MODEL 1
USER: ADFR SOLUTION from run 46
USER: SCORE 14.588632 LL:  -1.755 LR: -13.764 RR:   0.000 FEB:  -8.991
USER: RMSD 9.280032
USER: SEED 45
USER: STATUS no improvement in best 8 clusters for 5 generations
USER: GENES 18
USER: genes 0 Translation |==|  0.58755 0.67052 0.61985
USER: genes 1 Rotation |==|  0.75472 0.37232 0.09101 0.53924
USER: genes 2 Torsion [N]-CA--C-[N] |==|  0.00738
USER: genes 3 Torsion [C]-N--CA-[C] |==|  0.19279
USER: genes 4 Torsion [N]-CA--C-[O] |==|  0.99532
USER: genes 5 Torsion [N]-CA--CB-[OG] |==|  0.89895
USER: genes 6 Torsion [CA]-CB--OG-[HG] |==|  0.73043
USER: genes 7 Torsion [C]-CA--CB-[CG] |==|  0.21884
USER: genes 8 Torsion [CA]-CB--CG-[CD] |==|  0.22803
USER: genes 9 Torsion [CB]-CG--CD-[NE] |==|  0.99437
USER: genes 10 Torsion [CG]-CD--NE-[CZ] |==|  0.23668
USER: genes 11 Torsion [C]-CA--N-[C] |==|  0.57310
USER: genes 12 Torsion [N]-C--CA-[N] |==|  0.30012
USER: genes 13 Torsion [C]-CA--N-[C] |==|  0.66217
USER: genes 14 Torsion [N]-C--CA-[N] |==|  0.84530
USER: genes 15 Torsion [C]-CA--N-[H1] |==|  0.12870
USER: genes 16 Torsion [C]-CA--CB-[CG2] |==|  0.16881
USER: genes 17 Torsion [CA]-CB--CG1-[CD1] |==|  0.47316
ROOT
ATOM      1  CA  ARG B   3       6.397  23.136  -3.774  0.50 56.69 LIG 0.18  C 
ENDROOT
BRANCH 1 2
ATOM      2  C   ARG B   3       5.290  22.115  -3.682  0.50 56.65 LIG 0.24  C 
ATOM      3 O    ARG B   3       4.489  22.084  -2.748  0.50 56.65 LIG-0.27  OA
ATOM      4  N   SER B   4       5.247  21.316  -4.740  0.50 56.58 LIG-0.34  N 
ATOM      5 H    SER B   4       5.652  21.494  -5.477  0.50 56.58 LIG 0.16  HD
BRANCH 4 6
ATOM      6  CA  SER B   4       4.520  20.068  -4.769  0.50 56.54 LIG 0.19  C 
BRANCH 6 7
ATOM      7  C   SER B   4       3.039  20.414  -4.745  0.50 56.54 LIG 0.22  C 
ATOM      8 O    SER B   4       2.661  21.586  -4.676  0.50 56.51 LIG-0.29  OA
ENDBRANCH 6 7
BRANCH 6 9
ATOM      9  CB  SER B   4       4.895  19.199  -3.569  0.50 56.54 LIG 0.20  C 
BRANCH 9 10
ATOM     10 OG   SER B   4       6.268  19.334  -3.245  0.50 56.48 LIG-0.40  OA
ATOM     11 HG   SER B   4       6.701  18.704  -3.592  0.50 56.48 LIG 0.21  HD
ENDBRANCH 9 10
ENDBRANCH 6 9
ENDBRANCH 4 6
ENDBRANCH 1 2
BRANCH 1 12
ATOM     12  CB  ARG B   3       5.749  24.508  -3.594  0.50 56.69 LIG 0.04  C 
BRANCH 12 13
ATOM     13  CG  ARG B   3       5.411  24.921  -2.173  0.50 56.67 LIG 0.02  C 
BRANCH 13 14
ATOM     14  CD  ARG B   3       6.607  25.494  -1.417  0.50 56.64 LIG 0.14  C 
BRANCH 14 15
ATOM     15  NE  ARG B   3       7.836  25.474  -2.218  0.50 56.60 LIG-0.23  N 
ATOM     16  CZ  ARG B   3       8.206  26.412  -3.088  0.50 56.66 LIG 0.67  C 
ATOM     17  NH2 ARG B   3       9.348  26.270  -3.753  0.50 56.73 LIG-0.23  N 
ATOM     18  NH1 ARG B   3       7.455  27.488  -3.299  0.50 56.69 LIG-0.23  N 
ATOM     19 22HH ARG B   3       9.595  26.871  -4.318  0.50 56.73 LIG 0.17  HD
ATOM     20 21HH ARG B   3       9.840  25.578  -3.620  0.50 56.73 LIG 0.17  HD
ATOM     21 12HH ARG B   3       7.708  28.085  -3.865  0.50 56.69 LIG 0.17  HD
ATOM     22 11HH ARG B   3       6.717  27.588  -2.871  0.50 56.69 LIG 0.17  HD
ATOM     23 HE   ARG B   3       8.362  24.800  -2.118  0.50 56.60 LIG 0.18  HD
ENDBRANCH 14 15
ENDBRANCH 13 14
ENDBRANCH 12 13
ENDBRANCH 1 12
BRANCH 1 24
ATOM     24  N   ARG B   3       7.202  23.153  -4.988  0.50 56.75 LIG-0.35  N 
ATOM     25  C   ILE B   2       8.448  23.608  -4.960  0.50 56.81 LIG 0.24  C 
ATOM     26 O    ILE B   2       9.051  23.788  -3.911  0.50 56.81 LIG-0.27  OA
ATOM     27 H    ARG B   3       6.807  22.853  -5.691  0.50 56.75 LIG 0.16  HD
BRANCH 25 28
ATOM     28  CA  ILE B   2       9.108  23.907  -6.305  0.50 56.86 LIG 0.18  C 
BRANCH 28 29
ATOM     29  N   ILE B   2       9.216  25.353  -6.463  0.50 56.91 LIG-0.35  N 
ATOM     30 H    ILE B   2       9.665  25.741  -5.841  0.50 56.91 LIG 0.16  HD
ATOM     31  C   ALA B   1       8.663  26.000  -7.483  0.50 56.95 LIG 0.25  C 
ATOM     32 O    ALA B   1       8.007  25.437  -8.360  0.50 56.96 LIG-0.27  OA
BRANCH 31 33
ATOM     33  CA  ALA B   1       8.878  27.511  -7.514  0.50 56.96 LIG 0.27  C 
ATOM     34  CB  ALA B   1      10.347  27.832  -7.743  0.50 56.98 LIG 0.05  C 
BRANCH 33 35
ATOM     35  N   ALA B   1       8.410  28.135  -6.245  0.50 56.97 LIG-0.07  N 
ATOM     36 H1   ALA B   1       8.712  27.664  -5.553  0.50 56.97 LIG 0.28  HD
ATOM     37 H3   ALA B   1       7.520  28.145  -6.230  0.50 56.97 LIG 0.28  HD
ATOM     38 H2   ALA B   1       8.716  28.969  -6.193  0.50 56.97 LIG 0.28  HD
ENDBRANCH 33 35
ENDBRANCH 31 33
ENDBRANCH 28 29
BRANCH 28 39
ATOM     39  CB  ILE B   2      10.514  23.268  -6.398  0.50 56.87 LIG 0.01  C 
ATOM     40  CG2 ILE B   2      10.454  21.740  -6.267  1.00 56.86 LIG 0.01  C 
BRANCH 39 41
ATOM     41  CG1 ILE B   2      11.217  23.706  -7.696  1.00 56.91 LIG 0.00  C 
ATOM     42  CD1 ILE B   2      12.697  23.329  -7.795  0.50 56.92 LIG 0.01  C 
ENDBRANCH 39 41
ENDBRANCH 28 39
ENDBRANCH 25 28
ENDBRANCH 1 24
TORSDOF 16
ENDMDL
MODEL 2
USER: ADFR SOLUTION from run 76
USER: SCORE 14.879914 LL:  -1.778 LR: -13.522 RR:   0.000 FEB:  -8.749
USER: RMSD 9.113440
USER: SEED 75
USER: STATUS 1 or 2 clusters left
USER: GENES 18
USER: genes 0 Translation |==|  0.52081 0.59719 0.58480
USER: genes 1 Rotation |==|  0.93382 0.32783 0.57661 0.66215
USER: genes 2 Torsion [N]-CA--C-[N] |==|  0.49443
USER: genes 3 Torsion [C]-N--CA-[C] |==|  0.23268
USER: genes 4 Torsion [N]-CA--C-[O] |==|  0.18046
USER: genes 5 Torsion [N]-CA--CB-[OG] |==|  0.33622
USER: genes 6 Torsion [CA]-CB--OG-[HG] |==|  0.60232
USER: genes 7 Torsion [C]-CA--CB-[CG] |==|  0.45919
USER: genes 8 Torsion [CA]-CB--CG-[CD] |==|  0.66844
USER: genes 9 Torsion [CB]-CG--CD-[NE] |==|  0.44630
USER: genes 10 Torsion [CG]-CD--NE-[CZ] |==|  0.36296
USER: genes 11 Torsion [C]-CA--N-[C] |==|  0.55258
USER: genes 12 Torsion [N]-C--CA-[N] |==|  0.35640
USER: genes 13 Torsion [C]-CA--N-[C] |==|  0.65252
USER: genes 14 Torsion [N]-C--CA-[N] |==|  0.21421
USER: genes 15 Torsion [C]-CA--N-[H1] |==|  0.10669
USER: genes 16 Torsion [C]-CA--CB-[CG2] |==|  0.10233
USER: genes 17 Torsion [CA]-CB--CG1-[CD1] |==|  0.21043
ROOT
ATOM      1  CA  ARG B   3       4.394  20.936  -4.826  0.50 56.69 LIG 0.18  C 
ENDROOT
BRANCH 1 2
ATOM      2  C   ARG B   3       4.281  19.490  -4.412  0.50 56.65 LIG 0.24  C 
ATOM      3 O    ARG B   3       4.876  19.028  -3.437  0.50 56.65 LIG-0.27  OA
ATOM      4  N   SER B   4       3.431  18.810  -5.169  0.50 56.58 LIG-0.34  N 
ATOM      5 H    SER B   4       2.857  19.190  -5.685  0.50 56.58 LIG 0.16  HD
BRANCH 4 6
ATOM      6  CA  SER B   4       3.375  17.367  -5.210  0.50 56.54 LIG 0.19  C 
BRANCH 6 7
ATOM      7  C   SER B   4       2.511  16.921  -4.040  0.50 56.54 LIG 0.22  C 
ATOM      8 O    SER B   4       1.313  17.207  -3.989  0.50 56.51 LIG-0.29  OA
ENDBRANCH 6 7
BRANCH 6 9
ATOM      9  CB  SER B   4       4.780  16.772  -5.107  0.50 56.54 LIG 0.20  C 
BRANCH 9 10
ATOM     10 OG   SER B   4       4.895  15.916  -3.984  0.50 56.48 LIG-0.40  OA
ATOM     11 HG   SER B   4       5.659  15.999  -3.645  0.50 56.48 LIG 0.21  HD
ENDBRANCH 9 10
ENDBRANCH 6 9
ENDBRANCH 4 6
ENDBRANCH 1 2
BRANCH 1 12
ATOM     12  CB  ARG B   3       4.871  20.944  -6.278  0.50 56.69 LIG 0.04  C 
BRANCH 12 13
ATOM     13  CG  ARG B   3       4.737  22.253  -7.032  0.50 56.67 LIG 0.02  C 
BRANCH 13 14
ATOM     14  CD  ARG B   3       3.835  22.146  -8.260  0.50 56.64 LIG 0.14  C 
BRANCH 14 15
ATOM     15  NE  ARG B   3       3.348  23.455  -8.711  0.50 56.60 LIG-0.23  N 
ATOM     16  CZ  ARG B   3       3.394  23.907  -9.962  0.50 56.66 LIG 0.67  C 
ATOM     17  NH2 ARG B   3       2.918  25.117 -10.237  0.50 56.73 LIG-0.23  N 
ATOM     18  NH1 ARG B   3       3.903  23.167 -10.943  0.50 56.69 LIG-0.23  N 
ATOM     19 22HH ARG B   3       2.944  25.417 -11.042  0.50 56.73 LIG 0.17  HD
ATOM     20 21HH ARG B   3       2.584  25.601  -9.608  0.50 56.73 LIG 0.17  HD
ATOM     21 12HH ARG B   3       3.926  23.474 -11.746  0.50 56.69 LIG 0.17  HD
ATOM     22 11HH ARG B   3       4.211  22.382 -10.773  0.50 56.69 LIG 0.17  HD
ATOM     23 HE   ARG B   3       3.004  23.974  -8.116  0.50 56.60 LIG 0.18  HD
ENDBRANCH 14 15
ENDBRANCH 13 14
ENDBRANCH 12 13
ENDBRANCH 1 12
BRANCH 1 24
ATOM     24  N   ARG B   3       5.266  21.798  -4.040  0.50 56.75 LIG-0.35  N 
ATOM     25  C   ILE B   2       5.134  23.117  -4.098  0.50 56.81 LIG 0.24  C 
ATOM     26 O    ILE B   2       4.151  23.651  -4.591  0.50 56.81 LIG-0.27  OA
ATOM     27 H    ARG B   3       5.848  21.386  -3.558  0.50 56.75 LIG 0.16  HD
BRANCH 25 28
ATOM     28  CA  ILE B   2       6.276  23.954  -3.524  0.50 56.86 LIG 0.18  C 
BRANCH 28 29
ATOM     29  N   ILE B   2       6.689  24.933  -4.523  0.50 56.91 LIG-0.35  N 
ATOM     30 H    ILE B   2       6.049  25.429  -4.813  0.50 56.91 LIG 0.16  HD
ATOM     31  C   ALA B   1       7.946  25.037  -4.939  0.50 56.95 LIG 0.25  C 
ATOM     32 O    ALA B   1       8.852  24.311  -4.530  0.50 56.96 LIG-0.27  OA
BRANCH 31 33
ATOM     33  CA  ALA B   1       8.220  26.121  -5.979  0.50 56.96 LIG 0.27  C 
ATOM     34  CB  ALA B   1       9.526  25.839  -6.706  0.50 56.98 LIG 0.05  C 
BRANCH 33 35
ATOM     35  N   ALA B   1       8.270  27.465  -5.338  0.50 56.97 LIG-0.07  N 
ATOM     36 H1   ALA B   1       8.675  27.401  -4.547  0.50 56.97 LIG 0.28  HD
ATOM     37 H3   ALA B   1       7.442  27.770  -5.223  0.50 56.97 LIG 0.28  HD
ATOM     38 H2   ALA B   1       8.723  28.026  -5.859  0.50 56.97 LIG 0.28  HD
ENDBRANCH 33 35
ENDBRANCH 31 33
ENDBRANCH 28 29
BRANCH 28 39
ATOM     39  CB  ILE B   2       5.844  24.685  -2.230  0.50 56.87 LIG 0.01  C 
ATOM     40  CG2 ILE B   2       4.903  23.823  -1.377  1.00 56.86 LIG 0.01  C 
BRANCH 39 41
ATOM     41  CG1 ILE B   2       7.080  25.145  -1.435  1.00 56.91 LIG 0.00  C 
ATOM     42  CD1 ILE B   2       7.798  26.373  -1.997  0.50 56.92 LIG 0.01  C 
ENDBRANCH 39 41
ENDBRANCH 28 39
ENDBRANCH 25 28
ENDBRANCH 1 24
TORSDOF 16
ENDMDL
MODEL 3
USER: ADFR SOLUTION from run 103
USER: SCORE 14.877627 LL:  -2.349 LR: -13.228 RR:   0.000 FEB:  -8.455
USER: RMSD 12.707517
USER: SEED 102
USER: STATUS no improvement in best 2 clusters for 5 generations
USER: GENES 18
USER: genes 0 Translation |==|  0.72931 0.81682 0.49364
USER: genes 1 Rotation |==|  0.26779 0.94125 0.49876 0.53711
USER: genes 2 Torsion [N]-CA--C-[N] |==|  0.62966
USER: genes 3 Torsion [C]-N--CA-[C] |==|  0.70969
USER: genes 4 Torsion [N]-CA--C-[O] |==|  0.88425
USER: genes 5 Torsion [N]-CA--CB-[OG] |==|  0.96478
USER: genes 6 Torsion [CA]-CB--OG-[HG] |==|  0.85919
USER: genes 7 Torsion [C]-CA--CB-[CG] |==|  0.25461
USER: genes 8 Torsion [CA]-CB--CG-[CD] |==|  0.42487
USER: genes 9 Torsion [CB]-CG--CD-[NE] |==|  0.67340
USER: genes 10 Torsion [CG]-CD--NE-[CZ] |==|  0.19815
USER: genes 11 Torsion [C]-CA--N-[C] |==|  0.13610
USER: genes 12 Torsion [N]-C--CA-[N] |==|  0.08338
USER: genes 13 Torsion [C]-CA--N-[C] |==|  0.16057
USER: genes 14 Torsion [N]-C--CA-[N] |==|  0.30757
USER: genes 15 Torsion [C]-CA--N-[H1] |==|  0.64825
USER: genes 16 Torsion [C]-CA--CB-[CG2] |==|  0.23592
USER: genes 17 Torsion [CA]-CB--CG1-[CD1] |==|  0.32565
ROOT
ATOM      1  CA  ARG B   3      10.649  27.525  -7.561  0.50 56.69 LIG 0.18  C 
ENDROOT
BRANCH 1 2
ATOM      2  C   ARG B   3       9.393  27.483  -8.394  0.50 56.65 LIG 0.24  C 
ATOM      3 O    ARG B   3       8.266  27.473  -7.899  0.50 56.65 LIG-0.27  OA
ATOM      4  N   SER B   4       9.645  27.526  -9.695  0.50 56.58 LIG-0.34  N 
ATOM      5 H    SER B   4      10.406  27.766 -10.017  0.50 56.58 LIG 0.16  HD
BRANCH 4 6
ATOM      6  CA  SER B   4       8.677  27.177 -10.709  0.50 56.54 LIG 0.19  C 
BRANCH 6 7
ATOM      7  C   SER B   4       9.063  25.804 -11.240  0.50 56.54 LIG 0.22  C 
ATOM      8 O    SER B   4      10.242  25.515 -11.457  0.50 56.51 LIG-0.29  OA
ENDBRANCH 6 7
BRANCH 6 9
ATOM      9  CB  SER B   4       8.676  28.214 -11.832  0.50 56.54 LIG 0.20  C 
BRANCH 9 10
ATOM     10 OG   SER B   4       9.395  29.377 -11.459  0.50 56.48 LIG-0.40  OA
ATOM     11 HG   SER B   4       9.124  29.647 -10.712  0.50 56.48 LIG 0.21  HD
ENDBRANCH 9 10
ENDBRANCH 6 9
ENDBRANCH 4 6
ENDBRANCH 1 2
BRANCH 1 12
ATOM     12  CB  ARG B   3      11.823  27.332  -8.520  0.50 56.69 LIG 0.04  C 
BRANCH 12 13
ATOM     13  CG  ARG B   3      12.446  28.589  -9.097  0.50 56.67 LIG 0.02  C 
BRANCH 13 14
ATOM     14  CD  ARG B   3      13.916  28.411  -9.472  0.50 56.64 LIG 0.14  C 
BRANCH 14 15
ATOM     15  NE  ARG B   3      14.800  29.289  -8.698  0.50 56.60 LIG-0.23  N 
ATOM     16  CZ  ARG B   3      15.085  29.152  -7.405  0.50 56.66 LIG 0.67  C 
ATOM     17  NH2 ARG B   3      15.904  30.022  -6.821  0.50 56.73 LIG-0.23  N 
ATOM     18  NH1 ARG B   3      14.569  28.158  -6.688  0.50 56.69 LIG-0.23  N 
ATOM     19 22HH ARG B   3      16.093  29.941  -5.986  0.50 56.73 LIG 0.17  HD
ATOM     20 21HH ARG B   3      16.244  30.666  -7.279  0.50 56.73 LIG 0.17  HD
ATOM     21 12HH ARG B   3      14.763  28.083  -5.854  0.50 56.69 LIG 0.17  HD
ATOM     22 11HH ARG B   3      14.041  27.590  -7.060  0.50 56.69 LIG 0.17  HD
ATOM     23 HE   ARG B   3      15.164  29.948  -9.114  0.50 56.60 LIG 0.18  HD
ENDBRANCH 14 15
ENDBRANCH 13 14
ENDBRANCH 12 13
ENDBRANCH 1 12
BRANCH 1 24
ATOM     24  N   ARG B   3      10.771  26.565  -6.472  0.50 56.75 LIG-0.35  N 
ATOM     25  C   ILE B   2      10.528  25.278  -6.682  0.50 56.81 LIG 0.24  C 
ATOM     26 O    ILE B   2      10.445  24.807  -7.808  0.50 56.81 LIG-0.27  OA
ATOM     27 H    ARG B   3      11.004  26.901  -5.715  0.50 56.75 LIG 0.16  HD
BRANCH 25 28
ATOM     28  CA  ILE B   2      10.348  24.396  -5.448  0.50 56.86 LIG 0.18  C 
BRANCH 28 29
ATOM     29  N   ILE B   2       9.788  25.204  -4.371  0.50 56.91 LIG-0.35  N 
ATOM     30 H    ILE B   2      10.269  25.220  -3.658  0.50 56.91 LIG 0.16  HD
ATOM     31  C   ALA B   1       8.635  25.851  -4.494  0.50 56.95 LIG 0.25  C 
ATOM     32 O    ALA B   1       7.944  25.808  -5.512  0.50 56.96 LIG-0.27  OA
BRANCH 31 33
ATOM     33  CA  ALA B   1       8.191  26.666  -3.281  0.50 56.96 LIG 0.27  C 
ATOM     34  CB  ALA B   1       6.775  26.284  -2.876  0.50 56.98 LIG 0.05  C 
BRANCH 33 35
ATOM     35  N   ALA B   1       8.264  28.125  -3.572  0.50 56.97 LIG-0.07  N 
ATOM     36 H1   ALA B   1       8.749  28.529  -2.944  0.50 56.97 LIG 0.28  HD
ATOM     37 H3   ALA B   1       7.444  28.468  -3.579  0.50 56.97 LIG 0.28  HD
ATOM     38 H2   ALA B   1       8.645  28.250  -4.367  0.50 56.97 LIG 0.28  HD
ENDBRANCH 33 35
ENDBRANCH 31 33
ENDBRANCH 28 29
BRANCH 28 39
ATOM     39  CB  ILE B   2       9.411  23.200  -5.741  0.50 56.87 LIG 0.01  C 
ATOM     40  CG2 ILE B   2      10.171  22.020  -6.362  1.00 56.86 LIG 0.01  C 
BRANCH 39 41
ATOM     41  CG1 ILE B   2       8.652  22.787  -4.466  1.00 56.91 LIG 0.00  C 
ATOM     42  CD1 ILE B   2       7.131  22.934  -4.535  0.50 56.92 LIG 0.01  C 
ENDBRANCH 39 41
ENDBRANCH 28 39
ENDBRANCH 25 28
ENDBRANCH 1 24
TORSDOF 16
ENDMDL
MODEL 4
USER: ADFR SOLUTION from run 45
USER: SCORE 14.609572 LL:  -1.822 LR: -12.863 RR:   0.000 FEB:  -8.091
USER: RMSD 9.291099
USER: SEED 44
USER: STATUS no improvement in best 3 clusters for 5 generations
USER: GENES 18
USER: genes 0 Translation |==|  0.57180 0.66167 0.54227
USER: genes 1 Rotation |==|  0.18193 0.44682 0.86060 0.62638
USER: genes 2 Torsion [N]-CA--C-[N] |==|  0.93888
USER: genes 3 Torsion [C]-N--CA-[C] |==|  0.62058
USER: genes 4 Torsion [N]-CA--C-[O] |==|  0.06742
USER: genes 5 Torsion [N]-CA--CB-[OG] |==|  0.79723
USER: genes 6 Torsion [CA]-CB--OG-[HG] |==|  0.29773
USER: genes 7 Torsion [C]-CA--CB-[CG] |==|  0.41348
USER: genes 8 Torsion [CA]-CB--CG-[CD] |==|  0.32358
USER: genes 9 Torsion [CB]-CG--CD-[NE] |==|  0.75507
USER: genes 10 Torsion [CG]-CD--NE-[CZ] |==|  0.39445
USER: genes 11 Torsion [C]-CA--N-[C] |==|  0.83012
USER: genes 12 Torsion [N]-C--CA-[N] |==|  0.90760
USER: genes 13 Torsion [C]-CA--N-[C] |==|  0.79695
USER: genes 14 Torsion [N]-C--CA-[N] |==|  0.93436
USER: genes 15 Torsion [C]-CA--N-[H1] |==|  0.80533
USER: genes 16 Torsion [C]-CA--CB-[CG2] |==|  0.86876
USER: genes 17 Torsion [CA]-CB--CG1-[CD1] |==|  0.62084
ROOT
ATOM      1  CA  ARG B   3       5.924  22.870  -6.102  0.50 56.69 LIG 0.18  C 
ENDROOT
BRANCH 1 2
ATOM      2  C   ARG B   3       4.991  22.494  -7.226  0.50 56.65 LIG 0.24  C 
ATOM      3 O    ARG B   3       4.131  21.621  -7.114  0.50 56.65 LIG-0.27  OA
ATOM      4  N   SER B   4       5.163  23.250  -8.302  0.50 56.58 LIG-0.34  N 
ATOM      5 H    SER B   4       5.593  23.995  -8.287  0.50 56.58 LIG 0.16  HD
BRANCH 4 6
ATOM      6  CA  SER B   4       4.650  22.909  -9.609  0.50 56.54 LIG 0.19  C 
BRANCH 6 7
ATOM      7  C   SER B   4       5.753  23.205 -10.613  0.50 56.54 LIG 0.22  C 
ATOM      8 O    SER B   4       6.938  23.220 -10.270  0.50 56.51 LIG-0.29  OA
ENDBRANCH 6 7
BRANCH 6 9
ATOM      9  CB  SER B   4       3.395  23.723  -9.923  0.50 56.54 LIG 0.20  C 
BRANCH 9 10
ATOM     10 OG   SER B   4       2.284  23.270  -9.168  0.50 56.48 LIG-0.40  OA
ATOM     11 HG   SER B   4       2.107  23.828  -8.567  0.50 56.48 LIG 0.21  HD
ENDBRANCH 9 10
ENDBRANCH 6 9
ENDBRANCH 4 6
ENDBRANCH 1 2
BRANCH 1 12
ATOM     12  CB  ARG B   3       5.115  23.718  -5.121  0.50 56.69 LIG 0.04  C 
BRANCH 12 13
ATOM     13  CG  ARG B   3       5.504  23.624  -3.657  0.50 56.67 LIG 0.02  C 
BRANCH 13 14
ATOM     14  CD  ARG B   3       6.014  24.946  -3.087  0.50 56.64 LIG 0.14  C 
BRANCH 14 15
ATOM     15  NE  ARG B   3       7.460  25.113  -3.275  0.50 56.60 LIG-0.23  N 
ATOM     16  CZ  ARG B   3       8.073  26.257  -3.572  0.50 56.66 LIG 0.67  C 
ATOM     17  NH2 ARG B   3       9.394  26.270  -3.717  0.50 56.73 LIG-0.23  N 
ATOM     18  NH1 ARG B   3       7.387  27.386  -3.722  0.50 56.69 LIG-0.23  N 
ATOM     19 22HH ARG B   3       9.798  27.005  -3.909  0.50 56.73 LIG 0.17  HD
ATOM     20 21HH ARG B   3       9.845  25.544  -3.619  0.50 56.73 LIG 0.17  HD
ATOM     21 12HH ARG B   3       7.798  28.116  -3.914  0.50 56.69 LIG 0.17  HD
ATOM     22 11HH ARG B   3       6.532  27.385  -3.627  0.50 56.69 LIG 0.17  HD
ATOM     23 HE   ARG B   3       7.953  24.413  -3.186  0.50 56.60 LIG 0.18  HD
ENDBRANCH 14 15
ENDBRANCH 13 14
ENDBRANCH 12 13
ENDBRANCH 1 12
BRANCH 1 24
ATOM     24  N   ARG B   3       7.145  23.587  -6.446  0.50 56.75 LIG-0.35  N 
ATOM     25  C   ILE B   2       8.045  23.031  -7.246  0.50 56.81 LIG 0.24  C 
ATOM     26 O    ILE B   2       7.796  22.039  -7.917  0.50 56.81 LIG-0.27  OA
ATOM     27 H    ARG B   3       7.219  24.368  -6.095  0.50 56.75 LIG 0.16  HD
BRANCH 25 28
ATOM     28  CA  ILE B   2       9.426  23.682  -7.294  0.50 56.86 LIG 0.18  C 
BRANCH 28 29
ATOM     29  N   ILE B   2       9.272  25.122  -7.114  0.50 56.91 LIG-0.35  N 
ATOM     30 H    ILE B   2       9.527  25.408  -6.345  0.50 56.91 LIG 0.16  HD
ATOM     31  C   ALA B   1       8.779  25.908  -8.064  0.50 56.95 LIG 0.25  C 
ATOM     32 O    ALA B   1       8.400  25.487  -9.158  0.50 56.96 LIG-0.27  OA
BRANCH 31 33
ATOM     33  CA  ALA B   1       8.695  27.395  -7.727  0.50 56.96 LIG 0.27  C 
ATOM     34  CB  ALA B   1       9.883  28.140  -8.316  0.50 56.98 LIG 0.05  C 
BRANCH 33 35
ATOM     35  N   ALA B   1       8.645  27.597  -6.251  0.50 56.97 LIG-0.07  N 
ATOM     36 H1   ALA B   1       7.860  27.315  -5.939  0.50 56.97 LIG 0.28  HD
ATOM     37 H3   ALA B   1       8.744  28.462  -6.067  0.50 56.97 LIG 0.28  HD
ATOM     38 H2   ALA B   1       9.301  27.135  -5.866  0.50 56.97 LIG 0.28  HD
ENDBRANCH 33 35
ENDBRANCH 31 33
ENDBRANCH 28 29
BRANCH 28 39
ATOM     39  CB  ILE B   2      10.355  23.118  -6.194  0.50 56.87 LIG 0.01  C 
ATOM     40  CG2 ILE B   2       9.657  23.074  -4.827  1.00 56.86 LIG 0.01  C 
BRANCH 39 41
ATOM     41  CG1 ILE B   2      10.900  21.738  -6.605  1.00 56.91 LIG 0.00  C 
ATOM     42  CD1 ILE B   2      10.895  20.679  -5.502  0.50 56.92 LIG 0.01  C 
ENDBRANCH 39 41
ENDBRANCH 28 39
ENDBRANCH 25 28
ENDBRANCH 1 24
TORSDOF 16
ENDMDL
MODEL 5
USER: ADFR SOLUTION from run 18
USER: SCORE 15.158837 LL:  -2.573 LR: -12.857 RR:   0.000 FEB:  -8.085
USER: RMSD 9.407975
USER: SEED 17
USER: STATUS no improvement in best 13 clusters for 5 generations
USER: GENES 18
USER: genes 0 Translation |==|  0.59657 0.67462 0.47874
USER: genes 1 Rotation |==|  0.78757 0.10930 0.61999 0.51610
USER: genes 2 Torsion [N]-CA--C-[N] |==|  0.35884
USER: genes 3 Torsion [C]-N--CA-[C] |==|  0.81375
USER: genes 4 Torsion [N]-CA--C-[O] |==|  0.89917
USER: genes 5 Torsion [N]-CA--CB-[OG] |==|  0.96800
USER: genes 6 Torsion [CA]-CB--OG-[HG] |==|  0.80627
USER: genes 7 Torsion [C]-CA--CB-[CG] |==|  0.74118
USER: genes 8 Torsion [CA]-CB--CG-[CD] |==|  0.74981
USER: genes 9 Torsion [CB]-CG--CD-[NE] |==|  0.50724
USER: genes 10 Torsion [CG]-CD--NE-[CZ] |==|  0.64029
USER: genes 11 Torsion [C]-CA--N-[C] |==|  0.84966
USER: genes 12 Torsion [N]-C--CA-[N] |==|  0.20539
USER: genes 13 Torsion [C]-CA--N-[C] |==|  0.75264
USER: genes 14 Torsion [N]-C--CA-[N] |==|  0.78709
USER: genes 15 Torsion [C]-CA--N-[H1] |==|  0.66825
USER: genes 16 Torsion [C]-CA--CB-[CG2] |==|  0.20653
USER: genes 17 Torsion [CA]-CB--CG1-[CD1] |==|  0.24764
ROOT
ATOM      1  CA  ARG B   3       6.667  23.259  -8.008  0.50 56.69 LIG 0.18  C 
ENDROOT
BRANCH 1 2
ATOM      2  C   ARG B   3       5.556  22.484  -8.671  0.50 56.65 LIG 0.24  C 
ATOM      3 O    ARG B   3       5.402  21.273  -8.512  0.50 56.65 LIG-0.27  OA
ATOM      4  N   SER B   4       4.745  23.261  -9.375  0.50 56.58 LIG-0.34  N 
ATOM      5 H    SER B   4       4.725  24.116  -9.288  0.50 56.58 LIG 0.16  HD
BRANCH 4 6
ATOM      6  CA  SER B   4       3.813  22.761 -10.359  0.50 56.54 LIG 0.19  C 
BRANCH 6 7
ATOM      7  C   SER B   4       4.637  22.195 -11.506  0.50 56.54 LIG 0.22  C 
ATOM      8 O    SER B   4       5.692  22.730 -11.856  0.50 56.51 LIG-0.29  OA
ENDBRANCH 6 7
BRANCH 6 9
ATOM      9  CB  SER B   4       2.896  23.881 -10.849  0.50 56.54 LIG 0.20  C 
BRANCH 9 10
ATOM     10 OG   SER B   4       3.014  25.036 -10.037  0.50 56.48 LIG-0.40  OA
ATOM     11 HG   SER B   4       2.681  24.883  -9.282  0.50 56.48 LIG 0.21  HD
ENDBRANCH 9 10
ENDBRANCH 6 9
ENDBRANCH 4 6
ENDBRANCH 1 2
BRANCH 1 12
ATOM     12  CB  ARG B   3       7.955  22.914  -8.756  0.50 56.69 LIG 0.04  C 
BRANCH 12 13
ATOM     13  CG  ARG B   3       8.783  21.773  -8.198  0.50 56.67 LIG 0.02  C 
BRANCH 13 14
ATOM     14  CD  ARG B   3       9.821  22.231  -7.176  0.50 56.64 LIG 0.14  C 
BRANCH 14 15
ATOM     15  NE  ARG B   3      10.654  21.124  -6.692  0.50 56.60 LIG-0.23  N 
ATOM     16  CZ  ARG B   3      10.892  20.838  -5.413  0.50 56.66 LIG 0.67  C 
ATOM     17  NH2 ARG B   3      11.670  19.804  -5.110  0.50 56.73 LIG-0.23  N 
ATOM     18  NH1 ARG B   3      10.362  21.566  -4.435  0.50 56.69 LIG-0.23  N 
ATOM     19 22HH ARG B   3      11.829  19.612  -4.286  0.50 56.73 LIG 0.17  HD
ATOM     20 21HH ARG B   3      12.015  19.327  -5.737  0.50 56.73 LIG 0.17  HD
ATOM     21 12HH ARG B   3      10.525  21.369  -3.614  0.50 56.69 LIG 0.17  HD
ATOM     22 11HH ARG B   3       9.855  22.235  -4.624  0.50 56.69 LIG 0.17  HD
ATOM     23 HE   ARG B   3      11.020  20.618  -7.284  0.50 56.60 LIG 0.18  HD
ENDBRANCH 14 15
ENDBRANCH 13 14
ENDBRANCH 12 13
ENDBRANCH 1 12
BRANCH 1 24
ATOM     24  N   ARG B   3       6.882  23.048  -6.582  0.50 56.75 LIG-0.35  N 
ATOM     25  C   ILE B   2       5.881  23.198  -5.724  0.50 56.81 LIG 0.24  C 
ATOM     26 O    ILE B   2       4.716  23.265  -6.089  0.50 56.81 LIG-0.27  OA
ATOM     27 H    ARG B   3       7.684  22.828  -6.364  0.50 56.75 LIG 0.16  HD
BRANCH 25 28
ATOM     28  CA  ILE B   2       6.245  23.291  -4.244  0.50 56.86 LIG 0.18  C 
BRANCH 28 29
ATOM     29  N   ILE B   2       6.832  24.602  -3.986  0.50 56.91 LIG-0.35  N 
ATOM     30 H    ILE B   2       6.261  25.202  -3.755  0.50 56.91 LIG 0.16  HD
ATOM     31  C   ALA B   1       8.134  24.834  -4.103  0.50 56.95 LIG 0.25  C 
ATOM     32 O    ALA B   1       8.942  23.972  -4.451  0.50 56.96 LIG-0.27  OA
BRANCH 31 33
ATOM     33  CA  ALA B   1       8.593  26.255  -3.785  0.50 56.96 LIG 0.27  C 
ATOM     34  CB  ALA B   1       7.943  26.747  -2.502  0.50 56.98 LIG 0.05  C 
BRANCH 33 35
ATOM     35  N   ALA B   1       8.269  27.176  -4.910  0.50 56.97 LIG-0.07  N 
ATOM     36 H1   ALA B   1       9.020  27.532  -5.229  0.50 56.97 LIG 0.28  HD
ATOM     37 H3   ALA B   1       7.735  27.825  -4.617  0.50 56.97 LIG 0.28  HD
ATOM     38 H2   ALA B   1       7.858  26.723  -5.557  0.50 56.97 LIG 0.28  HD
ENDBRANCH 33 35
ENDBRANCH 31 33
ENDBRANCH 28 29
BRANCH 28 39
ATOM     39  CB  ILE B   2       5.003  23.093  -3.343  0.50 56.87 LIG 0.01  C 
ATOM     40  CG2 ILE B   2       4.562  21.623  -3.297  1.00 56.86 LIG 0.01  C 
BRANCH 39 41
ATOM     41  CG1 ILE B   2       5.264  23.658  -1.935  1.00 56.91 LIG 0.00  C 
ATOM     42  CD1 ILE B   2       4.906  25.133  -1.746  0.50 56.92 LIG 0.01  C 
ENDBRANCH 39 41
ENDBRANCH 28 39
ENDBRANCH 25 28
ENDBRANCH 1 24
TORSDOF 16
ENDMDL
MODEL 6
USER: ADFR SOLUTION from run 2
USER: SCORE 14.190453 LL:  -2.484 LR: -12.831 RR:   0.000 FEB:  -8.058
USER: RMSD 8.592154
USER: SEED 937395
USER: STATUS no improvement in best 3 clusters for 5 generations
USER: GENES 18
USER: genes 0 Translation |==|  0.52162 0.59124 0.60132
USER: genes 1 Rotation |==|  0.89610 0.43275 0.33905 0.75036
USER: genes 2 Torsion [N]-CA--C-[N] |==|  0.60000
USER: genes 3 Torsion [C]-N--CA-[C] |==|  0.81292
USER: genes 4 Torsion [N]-CA--C-[O] |==|  0.87316
USER: genes 5 Torsion [N]-CA--CB-[OG] |==|  0.95155
USER: genes 6 Torsion [CA]-CB--OG-[HG] |==|  0.98271
USER: genes 7 Torsion [C]-CA--CB-[CG] |==|  0.81515
USER: genes 8 Torsion [CA]-CB--CG-[CD] |==|  0.78714
USER: genes 9 Torsion [CB]-CG--CD-[NE] |==|  0.81429
USER: genes 10 Torsion [CG]-CD--NE-[CZ] |==|  0.48338
USER: genes 11 Torsion [C]-CA--N-[C] |==|  0.68713
USER: genes 12 Torsion [N]-C--CA-[N] |==|  0.53324
USER: genes 13 Torsion [C]-CA--N-[C] |==|  0.57563
USER: genes 14 Torsion [N]-C--CA-[N] |==|  0.56151
USER: genes 15 Torsion [C]-CA--N-[H1] |==|  0.84323
USER: genes 16 Torsion [C]-CA--CB-[CG2] |==|  0.37033
USER: genes 17 Torsion [CA]-CB--CG1-[CD1] |==|  0.35797
ROOT
ATOM      1  CA  ARG B   3       4.419  20.757  -4.331  0.50 56.69 LIG 0.18  C 
ENDROOT
BRANCH 1 2
ATOM      2  C   ARG B   3       4.751  19.351  -3.898  0.50 56.65 LIG 0.24  C 
ATOM      3 O    ARG B   3       5.795  19.063  -3.313  0.50 56.65 LIG-0.27  OA
ATOM      4  N   SER B   4       3.772  18.495  -4.160  0.50 56.58 LIG-0.34  N 
ATOM      5 H    SER B   4       2.971  18.744  -4.349  0.50 56.58 LIG 0.16  HD
BRANCH 4 6
ATOM      6  CA  SER B   4       3.943  17.060  -4.156  0.50 56.54 LIG 0.19  C 
BRANCH 6 7
ATOM      7  C   SER B   4       4.855  16.717  -5.325  0.50 56.54 LIG 0.22  C 
ATOM      8 O    SER B   4       4.677  17.216  -6.438  0.50 56.51 LIG-0.29  OA
ENDBRANCH 6 7
BRANCH 6 9
ATOM      9  CB  SER B   4       2.592  16.358  -4.295  0.50 56.54 LIG 0.20  C 
BRANCH 9 10
ATOM     10 OG   SER B   4       1.522  17.236  -3.995  0.50 56.48 LIG-0.40  OA
ATOM     11 HG   SER B   4       1.828  17.965  -3.711  0.50 56.48 LIG 0.21  HD
ENDBRANCH 9 10
ENDBRANCH 6 9
ENDBRANCH 4 6
ENDBRANCH 1 2
BRANCH 1 12
ATOM     12  CB  ARG B   3       3.322  20.647  -5.390  0.50 56.69 LIG 0.04  C 
BRANCH 12 13
ATOM     13  CG  ARG B   3       3.706  19.992  -6.703  0.50 56.67 LIG 0.02  C 
BRANCH 13 14
ATOM     14  CD  ARG B   3       4.523  20.908  -7.612  0.50 56.64 LIG 0.14  C 
BRANCH 14 15
ATOM     15  NE  ARG B   3       3.743  22.053  -8.097  0.50 56.60 LIG-0.23  N 
ATOM     16  CZ  ARG B   3       4.224  23.069  -8.810  0.50 56.66 LIG 0.67  C 
ATOM     17  NH2 ARG B   3       3.406  24.047  -9.185  0.50 56.73 LIG-0.23  N 
ATOM     18  NH1 ARG B   3       5.507  23.120  -9.156  0.50 56.69 LIG-0.23  N 
ATOM     19 22HH ARG B   3       3.709  24.708  -9.646  0.50 56.73 LIG 0.17  HD
ATOM     20 21HH ARG B   3       2.575  24.020  -8.967  0.50 56.73 LIG 0.17  HD
ATOM     21 12HH ARG B   3       5.802  23.783  -9.617  0.50 56.69 LIG 0.17  HD
ATOM     22 11HH ARG B   3       6.041  22.489  -8.919  0.50 56.69 LIG 0.17  HD
ATOM     23 HE   ARG B   3       2.904  22.069  -7.904  0.50 56.60 LIG 0.18  HD
ENDBRANCH 14 15
ENDBRANCH 13 14
ENDBRANCH 12 13
ENDBRANCH 1 12
BRANCH 1 24
ATOM     24  N   ARG B   3       5.501  21.576  -4.859  0.50 56.75 LIG-0.35  N 
ATOM     25  C   ILE B   2       5.930  22.636  -4.186  0.50 56.81 LIG 0.24  C 
ATOM     26 O    ILE B   2       5.631  22.828  -3.015  0.50 56.81 LIG-0.27  OA
ATOM     27 H    ARG B   3       5.819  21.315  -5.614  0.50 56.75 LIG 0.16  HD
BRANCH 25 28
ATOM     28  CA  ILE B   2       6.818  23.624  -4.940  0.50 56.86 LIG 0.18  C 
BRANCH 28 29
ATOM     29  N   ILE B   2       7.412  24.548  -3.981  0.50 56.91 LIG-0.35  N 
ATOM     30 H    ILE B   2       7.502  24.222  -3.190  0.50 56.91 LIG 0.16  HD
ATOM     31  C   ALA B   1       7.776  25.781  -4.313  0.50 56.95 LIG 0.25  C 
ATOM     32 O    ALA B   1       7.627  26.245  -5.444  0.50 56.96 LIG-0.27  OA
BRANCH 31 33
ATOM     33  CA  ALA B   1       8.396  26.621  -3.198  0.50 56.96 LIG 0.27  C 
ATOM     34  CB  ALA B   1       7.732  26.306  -1.867  0.50 56.98 LIG 0.05  C 
BRANCH 33 35
ATOM     35  N   ALA B   1       8.270  28.074  -3.502  0.50 56.97 LIG-0.07  N 
ATOM     36 H1   ALA B   1       8.645  28.246  -4.291  0.50 56.97 LIG 0.28  HD
ATOM     37 H3   ALA B   1       8.681  28.546  -2.870  0.50 56.97 LIG 0.28  HD
ATOM     38 H2   ALA B   1       7.409  28.299  -3.528  0.50 56.97 LIG 0.28  HD
ENDBRANCH 33 35
ENDBRANCH 31 33
ENDBRANCH 28 29
BRANCH 28 39
ATOM     39  CB  ILE B   2       7.938  22.895  -5.720  0.50 56.87 LIG 0.01  C 
ATOM     40  CG2 ILE B   2       8.061  23.415  -7.159  1.00 56.86 LIG 0.01  C 
BRANCH 39 41
ATOM     41  CG1 ILE B   2       9.273  22.991  -4.959  1.00 56.91 LIG 0.00  C 
ATOM     42  CD1 ILE B   2       9.998  21.662  -4.741  0.50 56.92 LIG 0.01  C 
ENDBRANCH 39 41
ENDBRANCH 28 39
ENDBRANCH 25 28
ENDBRANCH 1 24
TORSDOF 16
ENDMDL
MODEL 7
USER: ADFR SOLUTION from run 153
USER: SCORE 14.705012 LL:  -2.287 LR: -12.730 RR:   0.000 FEB:  -7.957
USER: RMSD 8.897415
USER: SEED 152
USER: STATUS no improvement in best 7 clusters for 5 generations
USER: GENES 18
USER: genes 0 Translation |==|  0.50760 0.63688 0.52856
USER: genes 1 Rotation |==|  0.86195 0.31042 0.44100 0.78208
USER: genes 2 Torsion [N]-CA--C-[N] |==|  0.86920
USER: genes 3 Torsion [C]-N--CA-[C] |==|  0.18320
USER: genes 4 Torsion [N]-CA--C-[O] |==|  0.41183
USER: genes 5 Torsion [N]-CA--CB-[OG] |==|  0.66753
USER: genes 6 Torsion [CA]-CB--OG-[HG] |==|  0.01612
USER: genes 7 Torsion [C]-CA--CB-[CG] |==|  0.57571
USER: genes 8 Torsion [CA]-CB--CG-[CD] |==|  0.63347
USER: genes 9 Torsion [CB]-CG--CD-[NE] |==|  0.23627
USER: genes 10 Torsion [CG]-CD--NE-[CZ] |==|  0.42730
USER: genes 11 Torsion [C]-CA--N-[C] |==|  0.81483
USER: genes 12 Torsion [N]-C--CA-[N] |==|  0.47778
USER: genes 13 Torsion [C]-CA--N-[C] |==|  0.64079
USER: genes 14 Torsion [N]-C--CA-[N] |==|  0.54733
USER: genes 15 Torsion [C]-CA--N-[H1] |==|  0.56556
USER: genes 16 Torsion [C]-CA--CB-[CG2] |==|  0.31474
USER: genes 17 Torsion [CA]-CB--CG1-[CD1] |==|  0.28966
ROOT
ATOM      1  CA  ARG B   3       3.998  22.126  -6.513  0.50 56.69 LIG 0.18  C 
ENDROOT
BRANCH 1 2
ATOM      2  C   ARG B   3       3.739  20.995  -5.549  0.50 56.65 LIG 0.24  C 
ATOM      3 O    ARG B   3       2.786  20.989  -4.771  0.50 56.65 LIG-0.27  OA
ATOM      4  N   SER B   4       4.606  20.002  -5.688  0.50 56.58 LIG-0.34  N 
ATOM      5 H    SER B   4       5.112  19.915  -6.379  0.50 56.58 LIG 0.16  HD
BRANCH 4 6
ATOM      6  CA  SER B   4       4.796  18.963  -4.702  0.50 56.54 LIG 0.19  C 
BRANCH 6 7
ATOM      7  C   SER B   4       3.506  18.159  -4.647  0.50 56.54 LIG 0.22  C 
ATOM      8 O    SER B   4       3.519  16.954  -4.387  0.50 56.51 LIG-0.29  OA
ENDBRANCH 6 7
BRANCH 6 9
ATOM      9  CB  SER B   4       5.117  19.572  -3.336  0.50 56.54 LIG 0.20  C 
BRANCH 9 10
ATOM     10 OG   SER B   4       6.385  19.145  -2.868  0.50 56.48 LIG-0.40  OA
ATOM     11 HG   SER B   4       6.767  18.695  -3.464  0.50 56.48 LIG 0.21  HD
ENDBRANCH 9 10
ENDBRANCH 6 9
ENDBRANCH 4 6
ENDBRANCH 1 2
BRANCH 1 12
ATOM     12  CB  ARG B   3       3.505  21.662  -7.883  0.50 56.69 LIG 0.04  C 
BRANCH 12 13
ATOM     13  CG  ARG B   3       4.179  22.275  -9.095  0.50 56.67 LIG 0.02  C 
BRANCH 13 14
ATOM     14  CD  ARG B   3       3.188  22.775 -10.143  0.50 56.64 LIG 0.14  C 
BRANCH 14 15
ATOM     15  NE  ARG B   3       2.712  24.134  -9.859  0.50 56.60 LIG-0.23  N 
ATOM     16  CZ  ARG B   3       2.270  25.002 -10.766  0.50 56.66 LIG 0.67  C 
ATOM     17  NH2 ARG B   3       1.868  26.207 -10.373  0.50 56.73 LIG-0.23  N 
ATOM     18  NH1 ARG B   3       2.218  24.684 -12.056  0.50 56.69 LIG-0.23  N 
ATOM     19 22HH ARG B   3       1.581  26.775 -10.952  0.50 56.73 LIG 0.17  HD
ATOM     20 21HH ARG B   3       1.896  26.419  -9.540  0.50 56.73 LIG 0.17  HD
ATOM     21 12HH ARG B   3       1.930  25.257 -12.629  0.50 56.69 LIG 0.17  HD
ATOM     22 11HH ARG B   3       2.474  23.906 -12.317  0.50 56.69 LIG 0.17  HD
ATOM     23 HE   ARG B   3       2.721  24.391  -9.038  0.50 56.60 LIG 0.18  HD
ENDBRANCH 14 15
ENDBRANCH 13 14
ENDBRANCH 12 13
ENDBRANCH 1 12
BRANCH 1 24
ATOM     24  N   ARG B   3       5.368  22.603  -6.645  0.50 56.75 LIG-0.35  N 
ATOM     25  C   ILE B   2       5.967  23.211  -5.629  0.50 56.81 LIG 0.24  C 
ATOM     26 O    ILE B   2       5.515  23.178  -4.493  0.50 56.81 LIG-0.27  OA
ATOM     27 H    ARG B   3       5.732  22.458  -7.410  0.50 56.75 LIG 0.16  HD
BRANCH 25 28
ATOM     28  CA  ILE B   2       7.256  23.971  -5.937  0.50 56.86 LIG 0.18  C 
BRANCH 28 29
ATOM     29  N   ILE B   2       7.654  24.720  -4.751  0.50 56.91 LIG-0.35  N 
ATOM     30 H    ILE B   2       7.678  24.251  -4.031  0.50 56.91 LIG 0.16  HD
ATOM     31  C   ALA B   1       7.950  26.015  -4.794  0.50 56.95 LIG 0.25  C 
ATOM     32 O    ALA B   1       7.897  26.683  -5.827  0.50 56.96 LIG-0.27  OA
BRANCH 31 33
ATOM     33  CA  ALA B   1       8.363  26.652  -3.470  0.50 56.96 LIG 0.27  C 
ATOM     34  CB  ALA B   1       7.490  26.133  -2.337  0.50 56.98 LIG 0.05  C 
BRANCH 33 35
ATOM     35  N   ALA B   1       8.269  28.137  -3.549  0.50 56.97 LIG-0.07  N 
ATOM     36 H1   ALA B   1       8.809  28.502  -2.943  0.50 56.97 LIG 0.28  HD
ATOM     37 H3   ALA B   1       7.431  28.390  -3.390  0.50 56.97 LIG 0.28  HD
ATOM     38 H2   ALA B   1       8.511  28.407  -4.362  0.50 56.97 LIG 0.28  HD
ENDBRANCH 33 35
ENDBRANCH 31 33
ENDBRANCH 28 29
BRANCH 28 39
ATOM     39  CB  ILE B   2       8.394  23.007  -6.348  0.50 56.87 LIG 0.01  C 
ATOM     40  CG2 ILE B   2       8.799  23.198  -7.816  1.00 56.86 LIG 0.01  C 
BRANCH 39 41
ATOM     41  CG1 ILE B   2       9.596  23.158  -5.397  1.00 56.91 LIG 0.00  C 
ATOM     42  CD1 ILE B   2       9.761  22.037  -4.370  0.50 56.92 LIG 0.01  C 
ENDBRANCH 39 41
ENDBRANCH 28 39
ENDBRANCH 25 28
ENDBRANCH 1 24
TORSDOF 16
ENDMDL
MODEL 8
USER: ADFR SOLUTION from run 139
USER: SCORE 14.046753 LL:  -2.128 LR: -12.719 RR:   0.000 FEB:  -7.946
USER: RMSD 8.119559
USER: SEED 138
USER: STATUS no improvement in best 3 clusters for 5 generations
USER: GENES 18
USER: genes 0 Translation |==|  0.55059 0.60657 0.59998
USER: genes 1 Rotation |==|  0.39469 0.18270 0.82872 0.67372
USER: genes 2 Torsion [N]-CA--C-[N] |==|  0.29108
USER: genes 3 Torsion [C]-N--CA-[C] |==|  0.69927
USER: genes 4 Torsion [N]-CA--C-[O] |==|  0.09689
USER: genes 5 Torsion [N]-CA--CB-[OG] |==|  0.90215
USER: genes 6 Torsion [CA]-CB--OG-[HG] |==|  0.72010
USER: genes 7 Torsion [C]-CA--CB-[CG] |==|  0.29745
USER: genes 8 Torsion [CA]-CB--CG-[CD] |==|  0.75009
USER: genes 9 Torsion [CB]-CG--CD-[NE] |==|  0.58904
USER: genes 10 Torsion [CG]-CD--NE-[CZ] |==|  0.39918
USER: genes 11 Torsion [C]-CA--N-[C] |==|  0.87215
USER: genes 12 Torsion [N]-C--CA-[N] |==|  0.45320
USER: genes 13 Torsion [C]-CA--N-[C] |==|  0.77969
USER: genes 14 Torsion [N]-C--CA-[N] |==|  0.09362
USER: genes 15 Torsion [C]-CA--N-[H1] |==|  0.06651
USER: genes 16 Torsion [C]-CA--CB-[CG2] |==|  0.08761
USER: genes 17 Torsion [CA]-CB--CG1-[CD1] |==|  0.13572
ROOT
ATOM      1  CA  ARG B   3       5.288  21.217  -4.371  0.50 56.69 LIG 0.18  C 
ENDROOT
BRANCH 1 2
ATOM      2  C   ARG B   3       4.052  21.427  -5.210  0.50 56.65 LIG 0.24  C 
ATOM      3 O    ARG B   3       2.942  21.634  -4.720  0.50 56.65 LIG-0.27  OA
ATOM      4  N   SER B   4       4.315  21.427  -6.509  0.50 56.58 LIG-0.34  N 
ATOM      5 H    SER B   4       5.110  21.516  -6.826  0.50 56.58 LIG 0.16  HD
BRANCH 4 6
ATOM      6  CA  SER B   4       3.303  21.279  -7.530  0.50 56.54 LIG 0.19  C 
BRANCH 6 7
ATOM      7  C   SER B   4       3.477  19.894  -8.133  0.50 56.54 LIG 0.22  C 
ATOM      8 O    SER B   4       3.835  18.939  -7.440  0.50 56.51 LIG-0.29  OA
ENDBRANCH 6 7
BRANCH 6 9
ATOM      9  CB  SER B   4       3.455  22.362  -8.598  0.50 56.54 LIG 0.20  C 
BRANCH 9 10
ATOM     10 OG   SER B   4       3.889  23.586  -8.033  0.50 56.48 LIG-0.40  OA
ATOM     11 HG   SER B   4       3.233  24.103  -7.946  0.50 56.48 LIG 0.21  HD
ENDBRANCH 9 10
ENDBRANCH 6 9
ENDBRANCH 4 6
ENDBRANCH 1 2
BRANCH 1 12
ATOM     12  CB  ARG B   3       4.943  20.148  -3.334  0.50 56.69 LIG 0.04  C 
BRANCH 12 13
ATOM     13  CG  ARG B   3       5.555  18.776  -3.540  0.50 56.67 LIG 0.02  C 
BRANCH 13 14
ATOM     14  CD  ARG B   3       4.683  17.852  -4.388  0.50 56.64 LIG 0.14  C 
BRANCH 14 15
ATOM     15  NE  ARG B   3       4.821  16.444  -4.000  0.50 56.60 LIG-0.23  N 
ATOM     16  CZ  ARG B   3       3.838  15.545  -3.995  0.50 56.66 LIG 0.67  C 
ATOM     17  NH2 ARG B   3       4.098  14.297  -3.618  0.50 56.73 LIG-0.23  N 
ATOM     18  NH1 ARG B   3       2.605  15.872  -4.366  0.50 56.69 LIG-0.23  N 
ATOM     19 22HH ARG B   3       3.470  13.709  -3.612  0.50 56.73 LIG 0.17  HD
ATOM     20 21HH ARG B   3       4.895  14.077  -3.380  0.50 56.73 LIG 0.17  HD
ATOM     21 12HH ARG B   3       1.981  15.280  -4.357  0.50 56.69 LIG 0.17  HD
ATOM     22 11HH ARG B   3       2.430  16.677  -4.614  0.50 56.69 LIG 0.17  HD
ATOM     23 HE   ARG B   3       5.601  16.177  -3.754  0.50 56.60 LIG 0.18  HD
ENDBRANCH 14 15
ENDBRANCH 13 14
ENDBRANCH 12 13
ENDBRANCH 1 12
BRANCH 1 24
ATOM     24  N   ARG B   3       5.844  22.375  -3.684  0.50 56.75 LIG-0.35  N 
ATOM     25  C   ILE B   2       5.995  23.526  -4.325  0.50 56.81 LIG 0.24  C 
ATOM     26 O    ILE B   2       5.463  23.745  -5.404  0.50 56.81 LIG-0.27  OA
ATOM     27 H    ARG B   3       6.053  22.243  -2.860  0.50 56.75 LIG 0.16  HD
BRANCH 25 28
ATOM     28  CA  ILE B   2       6.878  24.581  -3.659  0.50 56.86 LIG 0.18  C 
BRANCH 28 29
ATOM     29  N   ILE B   2       7.249  25.579  -4.655  0.50 56.91 LIG-0.35  N 
ATOM     30 H    ILE B   2       6.787  26.303  -4.615  0.50 56.91 LIG 0.16  HD
ATOM     31  C   ALA B   1       8.218  25.374  -5.540  0.50 56.95 LIG 0.25  C 
ATOM     32 O    ALA B   1       8.864  24.326  -5.600  0.50 56.96 LIG-0.27  OA
BRANCH 31 33
ATOM     33  CA  ALA B   1       8.497  26.521  -6.508  0.50 56.96 LIG 0.27  C 
ATOM     34  CB  ALA B   1       9.922  26.439  -7.031  0.50 56.98 LIG 0.05  C 
BRANCH 33 35
ATOM     35  N   ALA B   1       8.270  27.836  -5.843  0.50 56.97 LIG-0.07  N 
ATOM     36 H1   ALA B   1       8.357  27.742  -4.962  0.50 56.97 LIG 0.28  HD
ATOM     37 H3   ALA B   1       7.450  28.125  -6.031  0.50 56.97 LIG 0.28  HD
ATOM     38 H2   ALA B   1       8.868  28.425  -6.139  0.50 56.97 LIG 0.28  HD
ENDBRANCH 33 35
ENDBRANCH 31 33
ENDBRANCH 28 29
BRANCH 28 39
ATOM     39  CB  ILE B   2       6.144  25.269  -2.483  0.50 56.87 LIG 0.01  C 
ATOM     40  CG2 ILE B   2       5.160  24.317  -1.790  1.00 56.86 LIG 0.01  C 
BRANCH 39 41
ATOM     41  CG1 ILE B   2       7.160  25.866  -1.492  1.00 56.91 LIG 0.00  C 
ATOM     42  CD1 ILE B   2       8.266  26.714  -2.122  0.50 56.92 LIG 0.01  C 
ENDBRANCH 39 41
ENDBRANCH 28 39
ENDBRANCH 25 28
ENDBRANCH 1 24
TORSDOF 16
ENDMDL
MODEL 9
USER: ADFR SOLUTION from run 128
USER: SCORE 14.362549 LL:  -1.904 LR: -12.674 RR:   0.000 FEB:  -7.901
USER: RMSD 9.906735
USER: SEED 127
USER: STATUS no improvement in best 10 clusters for 5 generations
USER: GENES 18
USER: genes 0 Translation |==|  0.58931 0.67293 0.48161
USER: genes 1 Rotation |==|  0.18980 0.88639 0.43368 0.50886
USER: genes 2 Torsion [N]-CA--C-[N] |==|  0.40989
USER: genes 3 Torsion [C]-N--CA-[C] |==|  0.78207
USER: genes 4 Torsion [N]-CA--C-[O] |==|  0.86019
USER: genes 5 Torsion [N]-CA--CB-[OG] |==|  0.98140
USER: genes 6 Torsion [CA]-CB--OG-[HG] |==|  0.84435
USER: genes 7 Torsion [C]-CA--CB-[CG] |==|  0.48196
USER: genes 8 Torsion [CA]-CB--CG-[CD] |==|  0.74029
USER: genes 9 Torsion [CB]-CG--CD-[NE] |==|  0.26397
USER: genes 10 Torsion [CG]-CD--NE-[CZ] |==|  0.22742
USER: genes 11 Torsion [C]-CA--N-[C] |==|  0.79523
USER: genes 12 Torsion [N]-C--CA-[N] |==|  0.28538
USER: genes 13 Torsion [C]-CA--N-[C] |==|  0.76642
USER: genes 14 Torsion [N]-C--CA-[N] |==|  0.52506
USER: genes 15 Torsion [C]-CA--N-[H1] |==|  0.79670
USER: genes 16 Torsion [C]-CA--CB-[CG2] |==|  0.76776
USER: genes 17 Torsion [CA]-CB--CG1-[CD1] |==|  0.69480
ROOT
ATOM      1  CA  ARG B   3       6.449  23.208  -7.922  0.50 56.69 LIG 0.18  C 
ENDROOT
BRANCH 1 2
ATOM      2  C   ARG B   3       5.363  22.485  -8.679  0.50 56.65 LIG 0.24  C 
ATOM      3 O    ARG B   3       5.131  21.285  -8.527  0.50 56.65 LIG-0.27  OA
ATOM      4  N   SER B   4       4.663  23.296  -9.460  0.50 56.58 LIG-0.34  N 
ATOM      5 H    SER B   4       4.680  24.152  -9.381  0.50 56.58 LIG 0.16  HD
BRANCH 4 6
ATOM      6  CA  SER B   4       3.800  22.834 -10.522  0.50 56.54 LIG 0.19  C 
BRANCH 6 7
ATOM      7  C   SER B   4       4.694  22.478 -11.700  0.50 56.54 LIG 0.22  C 
ATOM      8 O    SER B   4       5.546  23.268 -12.113  0.50 56.51 LIG-0.29  OA
ENDBRANCH 6 7
BRANCH 6 9
ATOM      9  CB  SER B   4       2.796  23.920 -10.909  0.50 56.54 LIG 0.20  C 
BRANCH 9 10
ATOM     10 OG   SER B   4       2.872  25.029 -10.031  0.50 56.48 LIG-0.40  OA
ATOM     11 HG   SER B   4       2.758  24.769  -9.240  0.50 56.48 LIG 0.21  HD
ENDBRANCH 9 10
ENDBRANCH 6 9
ENDBRANCH 4 6
ENDBRANCH 1 2
BRANCH 1 12
ATOM     12  CB  ARG B   3       7.700  23.172  -8.800  0.50 56.69 LIG 0.04  C 
BRANCH 12 13
ATOM     13  CG  ARG B   3       8.895  23.972  -8.317  0.50 56.67 LIG 0.02  C 
BRANCH 13 14
ATOM     14  CD  ARG B   3       8.947  25.382  -8.901  0.50 56.64 LIG 0.14  C 
BRANCH 14 15
ATOM     15  NE  ARG B   3       8.338  26.377  -8.012  0.50 56.60 LIG-0.23  N 
ATOM     16  CZ  ARG B   3       8.937  26.952  -6.971  0.50 56.66 LIG 0.67  C 
ATOM     17  NH2 ARG B   3       8.269  27.841  -6.243  0.50 56.73 LIG-0.23  N 
ATOM     18  NH1 ARG B   3      10.192  26.654  -6.649  0.50 56.69 LIG-0.23  N 
ATOM     19 22HH ARG B   3       8.648  28.217  -5.568  0.50 56.73 LIG 0.17  HD
ATOM     20 21HH ARG B   3       7.457  28.040  -6.447  0.50 56.73 LIG 0.17  HD
ATOM     21 12HH ARG B   3      10.565  27.034  -5.973  0.50 56.69 LIG 0.17  HD
ATOM     22 11HH ARG B   3      10.632  26.082  -7.117  0.50 56.69 LIG 0.17  HD
ATOM     23 HE   ARG B   3       7.526  26.609  -8.178  0.50 56.60 LIG 0.18  HD
ENDBRANCH 14 15
ENDBRANCH 13 14
ENDBRANCH 12 13
ENDBRANCH 1 12
BRANCH 1 24
ATOM     24  N   ARG B   3       6.793  22.714  -6.595  0.50 56.75 LIG-0.35  N 
ATOM     25  C   ILE B   2       5.977  22.923  -5.570  0.50 56.81 LIG 0.24  C 
ATOM     26 O    ILE B   2       4.822  23.297  -5.723  0.50 56.81 LIG-0.27  OA
ATOM     27 H    ARG B   3       7.542  22.294  -6.546  0.50 56.75 LIG 0.16  HD
BRANCH 25 28
ATOM     28  CA  ILE B   2       6.543  22.680  -4.172  0.50 56.86 LIG 0.18  C 
BRANCH 28 29
ATOM     29  N   ILE B   2       6.852  23.968  -3.561  0.50 56.91 LIG-0.35  N 
ATOM     30 H    ILE B   2       6.231  24.272  -3.050  0.50 56.91 LIG 0.16  HD
ATOM     31  C   ALA B   1       7.997  24.604  -3.784  0.50 56.95 LIG 0.25  C 
ATOM     32 O    ALA B   1       8.874  24.168  -4.530  0.50 56.96 LIG-0.27  OA
BRANCH 31 33
ATOM     33  CA  ALA B   1       8.176  25.935  -3.059  0.50 56.96 LIG 0.27  C 
ATOM     34  CB  ALA B   1       6.945  26.809  -3.245  0.50 56.98 LIG 0.05  C 
BRANCH 33 35
ATOM     35  N   ALA B   1       9.388  26.645  -3.555  0.50 56.97 LIG-0.07  N 
ATOM     36 H1   ALA B   1      10.118  26.239  -3.246  0.50 56.97 LIG 0.28  HD
ATOM     37 H3   ALA B   1       9.376  27.488  -3.271  0.50 56.97 LIG 0.28  HD
ATOM     38 H2   ALA B   1       9.396  26.633  -4.445  0.50 56.97 LIG 0.28  HD
ENDBRANCH 33 35
ENDBRANCH 31 33
ENDBRANCH 28 29
BRANCH 28 39
ATOM     39  CB  ILE B   2       5.538  21.911  -3.282  0.50 56.87 LIG 0.01  C 
ATOM     40  CG2 ILE B   2       4.512  22.854  -2.637  1.00 56.86 LIG 0.01  C 
BRANCH 39 41
ATOM     41  CG1 ILE B   2       4.859  20.787  -4.085  1.00 56.91 LIG 0.00  C 
ATOM     42  CD1 ILE B   2       3.379  21.011  -4.400  0.50 56.92 LIG 0.01  C 
ENDBRANCH 39 41
ENDBRANCH 28 39
ENDBRANCH 25 28
ENDBRANCH 1 24
TORSDOF 16
ENDMDL
MODEL 10
USER: ADFR SOLUTION from run 158
USER: SCORE 13.507847 LL:  -2.231 LR: -12.643 RR:   0.000 FEB:  -7.871
USER: RMSD 8.866127
USER: SEED 157
USER: STATUS no improvement in best 13 clusters for 5 generations
USER: GENES 18
USER: genes 0 Translation |==|  0.56971 0.70218 0.59271
USER: genes 1 Rotation |==|  0.60650 0.45802 0.58024 0.98006
USER: genes 2 Torsion [N]-CA--C-[N] |==|  0.89991
USER: genes 3 Torsion [C]-N--CA-[C] |==|  0.15497
USER: genes 4 Torsion [N]-CA--C-[O] |==|  0.34821
USER: genes 5 Torsion [N]-CA--CB-[OG] |==|  0.96616
USER: genes 6 Torsion [CA]-CB--OG-[HG] |==|  0.45845
USER: genes 7 Torsion [C]-CA--CB-[CG] |==|  0.40457
USER: genes 8 Torsion [CA]-CB--CG-[CD] |==|  0.17175
USER: genes 9 Torsion [CB]-CG--CD-[NE] |==|  0.72886
USER: genes 10 Torsion [CG]-CD--NE-[CZ] |==|  0.36635
USER: genes 11 Torsion [C]-CA--N-[C] |==|  0.18014
USER: genes 12 Torsion [N]-C--CA-[N] |==|  0.17705
USER: genes 13 Torsion [C]-CA--N-[C] |==|  0.67429
USER: genes 14 Torsion [N]-C--CA-[N] |==|  0.87673
USER: genes 15 Torsion [C]-CA--N-[H1] |==|  0.47814
USER: genes 16 Torsion [C]-CA--CB-[CG2] |==|  0.16136
USER: genes 17 Torsion [CA]-CB--CG1-[CD1] |==|  0.23863
ROOT
ATOM      1  CA  ARG B   3       5.861  24.085  -4.589  0.50 56.69 LIG 0.18  C 
ENDROOT
BRANCH 1 2
ATOM      2  C   ARG B   3       6.220  24.945  -3.402  0.50 56.65 LIG 0.24  C 
ATOM      3 O    ARG B   3       5.373  25.474  -2.683  0.50 56.65 LIG-0.27  OA
ATOM      4  N   SER B   4       7.529  25.004  -3.196  0.50 56.58 LIG-0.34  N 
ATOM      5 H    SER B   4       8.084  24.452  -3.553  0.50 56.58 LIG 0.16  HD
BRANCH 4 6
ATOM      6  CA  SER B   4       8.161  25.993  -2.354  0.50 56.54 LIG 0.19  C 
BRANCH 6 7
ATOM      7  C   SER B   4       7.508  25.895  -0.983  0.50 56.54 LIG 0.22  C 
ATOM      8 O    SER B   4       8.186  25.723   0.033  0.50 56.51 LIG-0.29  OA
ENDBRANCH 6 7
BRANCH 6 9
ATOM      9  CB  SER B   4       7.982  27.393  -2.943  0.50 56.54 LIG 0.20  C 
BRANCH 9 10
ATOM     10 OG   SER B   4       7.500  27.333  -4.274  0.50 56.48 LIG-0.40  OA
ATOM     11 HG   SER B   4       7.218  28.090  -4.504  0.50 56.48 LIG 0.21  HD
ENDBRANCH 9 10
ENDBRANCH 6 9
ENDBRANCH 4 6
ENDBRANCH 1 2
BRANCH 1 12
ATOM     12  CB  ARG B   3       5.755  22.649  -4.078  0.50 56.69 LIG 0.04  C 
BRANCH 12 13
ATOM     13  CG  ARG B   3       4.711  21.767  -4.736  0.50 56.67 LIG 0.02  C 
BRANCH 13 14
ATOM     14  CD  ARG B   3       4.954  21.562  -6.229  0.50 56.64 LIG 0.14  C 
BRANCH 14 15
ATOM     15  NE  ARG B   3       4.150  22.470  -7.055  0.50 56.60 LIG-0.23  N 
ATOM     16  CZ  ARG B   3       4.608  23.205  -8.066  0.50 56.66 LIG 0.67  C 
ATOM     17  NH2 ARG B   3       3.770  23.991  -8.734  0.50 56.73 LIG-0.23  N 
ATOM     18  NH1 ARG B   3       5.889  23.164  -8.421  0.50 56.69 LIG-0.23  N 
ATOM     19 22HH ARG B   3       4.058  24.469  -9.388  0.50 56.73 LIG 0.17  HD
ATOM     20 21HH ARG B   3       2.940  24.021  -8.512  0.50 56.73 LIG 0.17  HD
ATOM     21 12HH ARG B   3       6.169  23.645  -9.076  0.50 56.69 LIG 0.17  HD
ATOM     22 11HH ARG B   3       6.437  22.656  -7.995  0.50 56.69 LIG 0.17  HD
ATOM     23 HE   ARG B   3       3.311  22.533  -6.870  0.50 56.60 LIG 0.18  HD
ENDBRANCH 14 15
ENDBRANCH 13 14
ENDBRANCH 12 13
ENDBRANCH 1 12
BRANCH 1 24
ATOM     24  N   ARG B   3       6.756  24.111  -5.738  0.50 56.75 LIG-0.35  N 
ATOM     25  C   ILE B   2       7.997  23.655  -5.632  0.50 56.81 LIG 0.24  C 
ATOM     26 O    ILE B   2       8.363  22.980  -4.679  0.50 56.81 LIG-0.27  OA
ATOM     27 H    ARG B   3       6.414  24.436  -6.457  0.50 56.75 LIG 0.16  HD
BRANCH 25 28
ATOM     28  CA  ILE B   2       8.967  24.014  -6.756  0.50 56.86 LIG 0.18  C 
BRANCH 28 29
ATOM     29  N   ILE B   2       9.146  25.462  -6.777  0.50 56.91 LIG-0.35  N 
ATOM     30 H    ILE B   2       9.498  25.782  -6.061  0.50 56.91 LIG 0.16  HD
ATOM     31  C   ALA B   1       8.790  26.207  -7.817  0.50 56.95 LIG 0.25  C 
ATOM     32 O    ALA B   1       8.270  25.742  -8.832  0.50 56.96 LIG-0.27  OA
BRANCH 31 33
ATOM     33  CA  ALA B   1       9.056  27.706  -7.689  0.50 56.96 LIG 0.27  C 
ATOM     34  CB  ALA B   1      10.527  28.005  -7.929  0.50 56.98 LIG 0.05  C 
BRANCH 33 35
ATOM     35  N   ALA B   1       8.644  28.200  -6.345  0.50 56.97 LIG-0.07  N 
ATOM     36 H1   ALA B   1       8.909  29.044  -6.246  0.50 56.97 LIG 0.28  HD
ATOM     37 H3   ALA B   1       9.020  27.696  -5.716  0.50 56.97 LIG 0.28  HD
ATOM     38 H2   ALA B   1       7.758  28.156  -6.271  0.50 56.97 LIG 0.28  HD
ENDBRANCH 33 35
ENDBRANCH 31 33
ENDBRANCH 28 29
BRANCH 28 39
ATOM     39  CB  ILE B   2      10.338  23.325  -6.561  0.50 56.87 LIG 0.01  C 
ATOM     40  CG2 ILE B   2      10.203  21.797  -6.495  1.00 56.86 LIG 0.01  C 
BRANCH 39 41
ATOM     41  CG1 ILE B   2      11.323  23.767  -7.659  1.00 56.91 LIG 0.00  C 
ATOM     42  CD1 ILE B   2      12.085  25.061  -7.370  0.50 56.92 LIG 0.01  C 
ENDBRANCH 39 41
ENDBRANCH 28 39
ENDBRANCH 25 28
ENDBRANCH 1 24
TORSDOF 16
ENDMDL
MODEL 11
USER: ADFR SOLUTION from run 46
USER: SCORE 14.078294 LL:  -2.044 LR: -12.541 RR:   0.000 FEB:  -7.769
USER: RMSD 8.637903
USER: SEED 45
USER: STATUS no improvement in best 8 clusters for 5 generations
USER: GENES 18
USER: genes 0 Translation |==|  0.57546 0.65943 0.63089
USER: genes 1 Rotation |==|  0.73586 0.44536 0.06290 0.51816
USER: genes 2 Torsion [N]-CA--C-[N] |==|  0.07350
USER: genes 3 Torsion [C]-N--CA-[C] |==|  0.16709
USER: genes 4 Torsion [N]-CA--C-[O] |==|  0.08105
USER: genes 5 Torsion [N]-CA--CB-[OG] |==|  0.93585
USER: genes 6 Torsion [CA]-CB--OG-[HG] |==|  0.75452
USER: genes 7 Torsion [C]-CA--CB-[CG] |==|  0.32312
USER: genes 8 Torsion [CA]-CB--CG-[CD] |==|  0.23207
USER: genes 9 Torsion [CB]-CG--CD-[NE] |==|  0.08389
USER: genes 10 Torsion [CG]-CD--NE-[CZ] |==|  0.48254
USER: genes 11 Torsion [C]-CA--N-[C] |==|  0.12985
USER: genes 12 Torsion [N]-C--CA-[N] |==|  0.93687
USER: genes 13 Torsion [C]-CA--N-[C] |==|  0.82243
USER: genes 14 Torsion [N]-C--CA-[N] |==|  0.59044
USER: genes 15 Torsion [C]-CA--N-[H1] |==|  0.23672
USER: genes 16 Torsion [C]-CA--CB-[CG2] |==|  0.17786
USER: genes 17 Torsion [CA]-CB--CG1-[CD1] |==|  0.83153
ROOT
ATOM      1  CA  ARG B   3       6.034  22.803  -3.443  0.50 56.69 LIG 0.18  C 
ENDROOT
BRANCH 1 2
ATOM      2  C   ARG B   3       4.982  21.727  -3.543  0.50 56.65 LIG 0.24  C 
ATOM      3 O    ARG B   3       4.038  21.644  -2.758  0.50 56.65 LIG-0.27  OA
ATOM      4  N   SER B   4       5.159  20.940  -4.597  0.50 56.58 LIG-0.34  N 
ATOM      5 H    SER B   4       5.672  21.148  -5.254  0.50 56.58 LIG 0.16  HD
BRANCH 4 6
ATOM      6  CA  SER B   4       4.513  19.658  -4.754  0.50 56.54 LIG 0.19  C 
BRANCH 6 7
ATOM      7  C   SER B   4       3.012  19.910  -4.745  0.50 56.54 LIG 0.22  C 
ATOM      8 O    SER B   4       2.545  20.979  -5.147  0.50 56.51 LIG-0.29  OA
ENDBRANCH 6 7
BRANCH 6 9
ATOM      9  CB  SER B   4       4.912  18.713  -3.620  0.50 56.54 LIG 0.20  C 
BRANCH 9 10
ATOM     10 OG   SER B   4       6.147  19.097  -3.040  0.50 56.48 LIG-0.40  OA
ATOM     11 HG   SER B   4       6.777  18.732  -3.458  0.50 56.48 LIG 0.21  HD
ENDBRANCH 9 10
ENDBRANCH 6 9
ENDBRANCH 4 6
ENDBRANCH 1 2
BRANCH 1 12
ATOM     12  CB  ARG B   3       5.369  24.011  -2.784  0.50 56.69 LIG 0.04  C 
BRANCH 12 13
ATOM     13  CG  ARG B   3       5.914  24.436  -1.433  0.50 56.67 LIG 0.02  C 
BRANCH 13 14
ATOM     14  CD  ARG B   3       7.145  25.333  -1.540  0.50 56.64 LIG 0.14  C 
BRANCH 14 15
ATOM     15  NE  ARG B   3       7.137  26.149  -2.760  0.50 56.60 LIG-0.23  N 
ATOM     16  CZ  ARG B   3       8.018  27.102  -3.057  0.50 56.66 LIG 0.67  C 
ATOM     17  NH2 ARG B   3       7.895  27.770  -4.200  0.50 56.73 LIG-0.23  N 
ATOM     18  NH1 ARG B   3       9.019  27.395  -2.233  0.50 56.69 LIG-0.23  N 
ATOM     19 22HH ARG B   3       8.459  28.388  -4.400  0.50 56.73 LIG 0.17  HD
ATOM     20 21HH ARG B   3       7.252  27.585  -4.739  0.50 56.73 LIG 0.17  HD
ATOM     21 12HH ARG B   3       9.579  28.014  -2.439  0.50 56.69 LIG 0.17  HD
ATOM     22 11HH ARG B   3       9.106  26.965  -1.493  0.50 56.69 LIG 0.17  HD
ATOM     23 HE   ARG B   3       6.511  25.998  -3.331  0.50 56.60 LIG 0.18  HD
ENDBRANCH 14 15
ENDBRANCH 13 14
ENDBRANCH 12 13
ENDBRANCH 1 12
BRANCH 1 24
ATOM     24  N   ARG B   3       6.678  23.236  -4.676  0.50 56.75 LIG-0.35  N 
ATOM     25  C   ILE B   2       5.951  23.509  -5.752  0.50 56.81 LIG 0.24  C 
ATOM     26 O    ILE B   2       4.738  23.656  -5.698  0.50 56.81 LIG-0.27  OA
ATOM     27 H    ARG B   3       7.535  23.294  -4.638  0.50 56.75 LIG 0.16  HD
BRANCH 25 28
ATOM     28  CA  ILE B   2       6.697  23.629  -7.080  0.50 56.86 LIG 0.18  C 
BRANCH 28 29
ATOM     29  N   ILE B   2       8.094  23.944  -6.807  0.50 56.91 LIG-0.35  N 
ATOM     30 H    ILE B   2       8.647  23.335  -7.057  0.50 56.91 LIG 0.16  HD
ATOM     31  C   ALA B   1       8.466  25.078  -6.222  0.50 56.95 LIG 0.25  C 
ATOM     32 O    ALA B   1       7.666  25.938  -5.852  0.50 56.96 LIG-0.27  OA
BRANCH 31 33
ATOM     33  CA  ALA B   1       9.967  25.266  -6.019  0.50 56.96 LIG 0.27  C 
ATOM     34  CB  ALA B   1      10.666  23.916  -5.950  0.50 56.98 LIG 0.05  C 
BRANCH 33 35
ATOM     35  N   ALA B   1      10.236  26.045  -4.778  0.50 56.97 LIG-0.07  N 
ATOM     36 H1   ALA B   1      10.250  25.494  -4.078  0.50 56.97 LIG 0.28  HD
ATOM     37 H3   ALA B   1       9.596  26.652  -4.664  0.50 56.97 LIG 0.28  HD
ATOM     38 H2   ALA B   1      11.023  26.455  -4.849  0.50 56.97 LIG 0.28  HD
ENDBRANCH 33 35
ENDBRANCH 31 33
ENDBRANCH 28 29
BRANCH 28 39
ATOM     39  CB  ILE B   2       6.611  22.317  -7.896  0.50 56.87 LIG 0.01  C 
ATOM     40  CG2 ILE B   2       5.168  21.994  -8.306  1.00 56.86 LIG 0.01  C 
BRANCH 39 41
ATOM     41  CG1 ILE B   2       7.553  22.378  -9.112  1.00 56.91 LIG 0.00  C 
ATOM     42  CD1 ILE B   2       7.258  23.499 -10.111  0.50 56.92 LIG 0.01  C 
ENDBRANCH 39 41
ENDBRANCH 28 39
ENDBRANCH 25 28
ENDBRANCH 1 24
TORSDOF 16
ENDMDL
MODEL 12
USER: ADFR SOLUTION from run 85
USER: SCORE 14.810437 LL:  -2.604 LR: -12.525 RR:   0.000 FEB:  -7.753
USER: RMSD 8.244464
USER: SEED 84
USER: STATUS no improvement in best 7 clusters for 5 generations
USER: GENES 18
USER: genes 0 Translation |==|  0.55325 0.65440 0.53968
USER: genes 1 Rotation |==|  0.16231 0.39889 0.84166 0.59490
USER: genes 2 Torsion [N]-CA--C-[N] |==|  0.92900
USER: genes 3 Torsion [C]-N--CA-[C] |==|  0.67863
USER: genes 4 Torsion [N]-CA--C-[O] |==|  0.18166
USER: genes 5 Torsion [N]-CA--CB-[OG] |==|  0.86003
USER: genes 6 Torsion [CA]-CB--OG-[HG] |==|  0.29885
USER: genes 7 Torsion [C]-CA--CB-[CG] |==|  0.30615
USER: genes 8 Torsion [CA]-CB--CG-[CD] |==|  0.05436
USER: genes 9 Torsion [CB]-CG--CD-[NE] |==|  0.71671
USER: genes 10 Torsion [CG]-CD--NE-[CZ] |==|  0.50691
USER: genes 11 Torsion [C]-CA--N-[C] |==|  0.83333
USER: genes 12 Torsion [N]-C--CA-[N] |==|  0.08175
USER: genes 13 Torsion [C]-CA--N-[C] |==|  0.72528
USER: genes 14 Torsion [N]-C--CA-[N] |==|  0.44713
USER: genes 15 Torsion [C]-CA--N-[H1] |==|  0.25100
USER: genes 16 Torsion [C]-CA--CB-[CG2] |==|  0.47044
USER: genes 17 Torsion [CA]-CB--CG1-[CD1] |==|  0.40231
ROOT
ATOM      1  CA  ARG B   3       5.367  22.652  -6.180  0.50 56.69 LIG 0.18  C 
ENDROOT
BRANCH 1 2
ATOM      2  C   ARG B   3       4.715  22.184  -7.457  0.50 56.65 LIG 0.24  C 
ATOM      3 O    ARG B   3       4.081  21.132  -7.534  0.50 56.65 LIG-0.27  OA
ATOM      4  N   SER B   4       4.849  23.059  -8.445  0.50 56.58 LIG-0.34  N 
ATOM      5 H    SER B   4       5.083  23.876  -8.317  0.50 56.58 LIG 0.16  HD
BRANCH 4 6
ATOM      6  CA  SER B   4       4.617  22.737  -9.834  0.50 56.54 LIG 0.19  C 
BRANCH 6 7
ATOM      7  C   SER B   4       5.948  22.889 -10.555  0.50 56.54 LIG 0.22  C 
ATOM      8 O    SER B   4       6.899  22.147 -10.298  0.50 56.51 LIG-0.29  OA
ENDBRANCH 6 7
BRANCH 6 9
ATOM      9  CB  SER B   4       3.563  23.669 -10.433  0.50 56.54 LIG 0.20  C 
BRANCH 9 10
ATOM     10 OG   SER B   4       2.404  23.724  -9.621  0.50 56.48 LIG-0.40  OA
ATOM     11 HG   SER B   4       2.369  24.468  -9.232  0.50 56.48 LIG 0.21  HD
ENDBRANCH 9 10
ENDBRANCH 6 9
ENDBRANCH 4 6
ENDBRANCH 1 2
BRANCH 1 12
ATOM     12  CB  ARG B   3       4.267  23.278  -5.324  0.50 56.69 LIG 0.04  C 
BRANCH 12 13
ATOM     13  CG  ARG B   3       3.858  22.520  -4.076  0.50 56.67 LIG 0.02  C 
BRANCH 13 14
ATOM     14  CD  ARG B   3       4.911  21.513  -3.616  0.50 56.64 LIG 0.14  C 
BRANCH 14 15
ATOM     15  NE  ARG B   3       4.564  20.136  -3.986  0.50 56.60 LIG-0.23  N 
ATOM     16  CZ  ARG B   3       5.271  19.052  -3.674  0.50 56.66 LIG 0.67  C 
ATOM     17  NH2 ARG B   3       4.845  17.858  -4.074  0.50 56.73 LIG-0.23  N 
ATOM     18  NH1 ARG B   3       6.394  19.142  -2.968  0.50 56.69 LIG-0.23  N 
ATOM     19 22HH ARG B   3       5.296  17.152  -3.878  0.50 56.73 LIG 0.17  HD
ATOM     20 21HH ARG B   3       4.118  17.791  -4.529  0.50 56.73 LIG 0.17  HD
ATOM     21 12HH ARG B   3       6.839  18.432  -2.775  0.50 56.69 LIG 0.17  HD
ATOM     22 11HH ARG B   3       6.674  19.911  -2.703  0.50 56.69 LIG 0.17  HD
ATOM     23 HE   ARG B   3       3.844  20.019  -4.442  0.50 56.60 LIG 0.18  HD
ENDBRANCH 14 15
ENDBRANCH 13 14
ENDBRANCH 12 13
ENDBRANCH 1 12
BRANCH 1 24
ATOM     24  N   ARG B   3       6.471  23.596  -6.290  0.50 56.75 LIG-0.35  N 
ATOM     25  C   ILE B   2       7.568  23.270  -6.962  0.50 56.81 LIG 0.24  C 
ATOM     26 O    ILE B   2       7.609  22.304  -7.711  0.50 56.81 LIG-0.27  OA
ATOM     27 H    ARG B   3       6.346  24.350  -5.894  0.50 56.75 LIG 0.16  HD
BRANCH 25 28
ATOM     28  CA  ILE B   2       8.795  24.156  -6.758  0.50 56.86 LIG 0.18  C 
BRANCH 28 29
ATOM     29  N   ILE B   2       8.748  24.721  -5.414  0.50 56.91 LIG-0.35  N 
ATOM     30 H    ILE B   2       9.027  24.189  -4.799  0.50 56.91 LIG 0.16  HD
ATOM     31  C   ALA B   1       8.309  25.952  -5.175  0.50 56.95 LIG 0.25  C 
ATOM     32 O    ALA B   1       7.895  26.702  -6.060  0.50 56.96 LIG-0.27  OA
BRANCH 31 33
ATOM     33  CA  ALA B   1       8.335  26.402  -3.717  0.50 56.96 LIG 0.27  C 
ATOM     34  CB  ALA B   1       7.179  25.779  -2.949  0.50 56.98 LIG 0.05  C 
BRANCH 33 35
ATOM     35  N   ALA B   1       8.269  27.888  -3.624  0.50 56.97 LIG-0.07  N 
ATOM     36 H1   ALA B   1       7.418  28.145  -3.573  0.50 56.97 LIG 0.28  HD
ATOM     37 H3   ALA B   1       8.645  28.247  -4.346  0.50 56.97 LIG 0.28  HD
ATOM     38 H2   ALA B   1       8.705  28.160  -2.897  0.50 56.97 LIG 0.28  HD
ENDBRANCH 33 35
ENDBRANCH 31 33
ENDBRANCH 28 29
BRANCH 28 39
ATOM     39  CB  ILE B   2      10.106  23.355  -6.937  0.50 56.87 LIG 0.01  C 
ATOM     40  CG2 ILE B   2      11.333  24.275  -6.995  1.00 56.86 LIG 0.01  C 
BRANCH 39 41
ATOM     41  CG1 ILE B   2      10.240  22.289  -5.833  1.00 56.91 LIG 0.00  C 
ATOM     42  CD1 ILE B   2      10.899  20.979  -6.267  0.50 56.92 LIG 0.01  C 
ENDBRANCH 39 41
ENDBRANCH 28 39
ENDBRANCH 25 28
ENDBRANCH 1 24
TORSDOF 16
ENDMDL
MODEL 13
USER: ADFR SOLUTION from run 4
USER: SCORE 13.212857 LL:  -1.367 LR: -12.518 RR:   0.000 FEB:  -7.745
USER: RMSD 9.233248
USER: SEED 572762
USER: STATUS no improvement in best 6 clusters for 5 generations
USER: GENES 18
USER: genes 0 Translation |==|  0.51191 0.65206 0.54922
USER: genes 1 Rotation |==|  0.90639 0.29422 0.50836 0.70598
USER: genes 2 Torsion [N]-CA--C-[N] |==|  0.85017
USER: genes 3 Torsion [C]-N--CA-[C] |==|  0.14110
USER: genes 4 Torsion [N]-CA--C-[O] |==|  0.33948
USER: genes 5 Torsion [N]-CA--CB-[OG] |==|  0.72633
USER: genes 6 Torsion [CA]-CB--OG-[HG] |==|  0.82673
USER: genes 7 Torsion [C]-CA--CB-[CG] |==|  0.77923
USER: genes 8 Torsion [CA]-CB--CG-[CD] |==|  0.53196
USER: genes 9 Torsion [CB]-CG--CD-[NE] |==|  0.21273
USER: genes 10 Torsion [CG]-CD--NE-[CZ] |==|  0.39312
USER: genes 11 Torsion [C]-CA--N-[C] |==|  0.87044
USER: genes 12 Torsion [N]-C--CA-[N] |==|  0.04445
USER: genes 13 Torsion [C]-CA--N-[C] |==|  0.63618
USER: genes 14 Torsion [N]-C--CA-[N] |==|  0.21626
USER: genes 15 Torsion [C]-CA--N-[H1] |==|  0.69672
USER: genes 16 Torsion [C]-CA--CB-[CG2] |==|  0.12030
USER: genes 17 Torsion [CA]-CB--CG1-[CD1] |==|  0.21990
ROOT
ATOM      1  CA  ARG B   3       4.127  22.582  -5.893  0.50 56.69 LIG 0.18  C 
ENDROOT
BRANCH 1 2
ATOM      2  C   ARG B   3       3.751  21.240  -5.317  0.50 56.65 LIG 0.24  C 
ATOM      3 O    ARG B   3       2.635  21.004  -4.852  0.50 56.65 LIG-0.27  OA
ATOM      4  N   SER B   4       4.725  20.347  -5.431  0.50 56.58 LIG-0.34  N 
ATOM      5 H    SER B   4       5.397  20.453  -5.957  0.50 56.58 LIG 0.16  HD
BRANCH 4 6
ATOM      6  CA  SER B   4       4.764  19.108  -4.689  0.50 56.54 LIG 0.19  C 
BRANCH 6 7
ATOM      7  C   SER B   4       3.415  18.432  -4.880  0.50 56.54 LIG 0.22  C 
ATOM      8 O    SER B   4       3.334  17.298  -5.358  0.50 56.51 LIG-0.29  OA
ENDBRANCH 6 7
BRANCH 6 9
ATOM      9  CB  SER B   4       5.034  19.377  -3.208  0.50 56.54 LIG 0.20  C 
BRANCH 9 10
ATOM     10 OG   SER B   4       6.402  19.185  -2.891  0.50 56.48 LIG-0.40  OA
ATOM     11 HG   SER B   4       6.613  18.385  -3.032  0.50 56.48 LIG 0.21  HD
ENDBRANCH 9 10
ENDBRANCH 6 9
ENDBRANCH 4 6
ENDBRANCH 1 2
BRANCH 1 12
ATOM     12  CB  ARG B   3       4.223  22.401  -7.408  0.50 56.69 LIG 0.04  C 
BRANCH 12 13
ATOM     13  CG  ARG B   3       5.497  21.771  -7.940  0.50 56.67 LIG 0.02  C 
BRANCH 13 14
ATOM     14  CD  ARG B   3       5.630  21.883  -9.457  0.50 56.64 LIG 0.14  C 
BRANCH 14 15
ATOM     15  NE  ARG B   3       6.032  23.228  -9.885  0.50 56.60 LIG-0.23  N 
ATOM     16  CZ  ARG B   3       6.877  23.502 -10.877  0.50 56.66 LIG 0.67  C 
ATOM     17  NH2 ARG B   3       7.158  24.770 -11.161  0.50 56.73 LIG-0.23  N 
ATOM     18  NH1 ARG B   3       7.440  22.531 -11.589  0.50 56.69 LIG-0.23  N 
ATOM     19 22HH ARG B   3       7.704  24.957 -11.800  0.50 56.73 LIG 0.17  HD
ATOM     20 21HH ARG B   3       6.796  25.403 -10.707  0.50 56.73 LIG 0.17  HD
ATOM     21 12HH ARG B   3       7.985  22.726 -12.226  0.50 56.69 LIG 0.17  HD
ATOM     22 11HH ARG B   3       7.261  21.709 -11.412  0.50 56.69 LIG 0.17  HD
ATOM     23 HE   ARG B   3       5.694  23.894  -9.459  0.50 56.60 LIG 0.18  HD
ENDBRANCH 14 15
ENDBRANCH 13 14
ENDBRANCH 12 13
ENDBRANCH 1 12
BRANCH 1 24
ATOM     24  N   ARG B   3       5.355  23.203  -5.416  0.50 56.75 LIG-0.35  N 
ATOM     25  C   ILE B   2       5.619  23.255  -4.117  0.50 56.81 LIG 0.24  C 
ATOM     26 O    ILE B   2       5.001  22.586  -3.300  0.50 56.81 LIG-0.27  OA
ATOM     27 H    ARG B   3       5.867  23.518  -6.031  0.50 56.75 LIG 0.16  HD
BRANCH 25 28
ATOM     28  CA  ILE B   2       6.735  24.199  -3.672  0.50 56.86 LIG 0.18  C 
BRANCH 28 29
ATOM     29  N   ILE B   2       7.022  25.130  -4.758  0.50 56.91 LIG-0.35  N 
ATOM     30 H    ILE B   2       6.324  25.505  -5.092  0.50 56.91 LIG 0.16  HD
ATOM     31  C   ALA B   1       8.258  25.366  -5.184  0.50 56.95 LIG 0.25  C 
ATOM     32 O    ALA B   1       9.250  24.811  -4.710  0.50 56.96 LIG-0.27  OA
BRANCH 31 33
ATOM     33  CA  ALA B   1       8.393  26.378  -6.319  0.50 56.96 LIG 0.27  C 
ATOM     34  CB  ALA B   1       9.726  26.200  -7.030  0.50 56.98 LIG 0.05  C 
BRANCH 33 35
ATOM     35  N   ALA B   1       8.270  27.769  -5.802  0.50 56.97 LIG-0.07  N 
ATOM     36 H1   ALA B   1       7.497  28.119  -6.070  0.50 56.97 LIG 0.28  HD
ATOM     37 H3   ALA B   1       8.942  28.262  -6.113  0.50 56.97 LIG 0.28  HD
ATOM     38 H2   ALA B   1       8.297  27.759  -4.912  0.50 56.97 LIG 0.28  HD
ENDBRANCH 33 35
ENDBRANCH 31 33
ENDBRANCH 28 29
BRANCH 28 39
ATOM     39  CB  ILE B   2       6.334  24.990  -2.404  0.50 56.87 LIG 0.01  C 
ATOM     40  CG2 ILE B   2       5.644  24.092  -1.368  1.00 56.86 LIG 0.01  C 
BRANCH 39 41
ATOM     41  CG1 ILE B   2       7.559  25.712  -1.813  1.00 56.91 LIG 0.00  C 
ATOM     42  CD1 ILE B   2       7.954  27.011  -2.517  0.50 56.92 LIG 0.01  C 
ENDBRANCH 39 41
ENDBRANCH 28 39
ENDBRANCH 25 28
ENDBRANCH 1 24
TORSDOF 16
ENDMDL
MODEL 14
USER: ADFR SOLUTION from run 113
USER: SCORE 14.724566 LL:  -2.858 LR: -12.512 RR:   0.000 FEB:  -7.739
USER: RMSD 9.803997
USER: SEED 112
USER: STATUS searching
USER: GENES 18
USER: genes 0 Translation |==|  0.64822 0.69142 0.45234
USER: genes 1 Rotation |==|  0.16982 0.13417 0.45687 0.57274
USER: genes 2 Torsion [N]-CA--C-[N] |==|  0.00868
USER: genes 3 Torsion [C]-N--CA-[C] |==|  0.70611
USER: genes 4 Torsion [N]-CA--C-[O] |==|  0.98870
USER: genes 5 Torsion [N]-CA--CB-[OG] |==|  0.10755
USER: genes 6 Torsion [CA]-CB--OG-[HG] |==|  0.28477
USER: genes 7 Torsion [C]-CA--CB-[CG] |==|  0.42313
USER: genes 8 Torsion [CA]-CB--CG-[CD] |==|  0.41347
USER: genes 9 Torsion [CB]-CG--CD-[NE] |==|  0.91814
USER: genes 10 Torsion [CG]-CD--NE-[CZ] |==|  0.46547
USER: genes 11 Torsion [C]-CA--N-[C] |==|  0.76609
USER: genes 12 Torsion [N]-C--CA-[N] |==|  0.67699
USER: genes 13 Torsion [C]-CA--N-[C] |==|  0.15002
USER: genes 14 Torsion [N]-C--CA-[N] |==|  0.51322
USER: genes 15 Torsion [C]-CA--N-[H1] |==|  0.53178
USER: genes 16 Torsion [C]-CA--CB-[CG2] |==|  0.20112
USER: genes 17 Torsion [CA]-CB--CG1-[CD1] |==|  0.77430
ROOT
ATOM      1  CA  ARG B   3       8.217  23.762  -8.800  0.50 56.69 LIG 0.18  C 
ENDROOT
BRANCH 1 2
ATOM      2  C   ARG B   3       9.138  24.884  -9.211  0.50 56.65 LIG 0.24  C 
ATOM      3 O    ARG B   3       9.653  24.946 -10.328  0.50 56.65 LIG-0.27  OA
ATOM      4  N   SER B   4       9.268  25.806  -8.268  0.50 56.58 LIG-0.34  N 
ATOM      5 H    SER B   4       8.730  25.871  -7.599  0.50 56.58 LIG 0.16  HD
BRANCH 4 6
ATOM      6  CA  SER B   4      10.318  26.798  -8.259  0.50 56.54 LIG 0.19  C 
BRANCH 6 7
ATOM      7  C   SER B   4      11.311  26.386  -7.183  0.50 56.54 LIG 0.22  C 
ATOM      8 O    SER B   4      11.097  25.409  -6.460  0.50 56.51 LIG-0.29  OA
ENDBRANCH 6 7
BRANCH 6 9
ATOM      9  CB  SER B   4       9.745  28.185  -7.968  0.50 56.54 LIG 0.20  C 
BRANCH 9 10
ATOM     10 OG   SER B   4       8.718  28.124  -6.995  0.50 56.48 LIG-0.40  OA
ATOM     11 HG   SER B   4       9.018  28.381  -6.254  0.50 56.48 LIG 0.21  HD
ENDBRANCH 9 10
ENDBRANCH 6 9
ENDBRANCH 4 6
ENDBRANCH 1 2
BRANCH 1 12
ATOM     12  CB  ARG B   3       7.148  23.646  -9.886  0.50 56.69 LIG 0.04  C 
BRANCH 12 13
ATOM     13  CG  ARG B   3       6.520  22.279 -10.082  0.50 56.67 LIG 0.02  C 
BRANCH 13 14
ATOM     14  CD  ARG B   3       5.069  22.349 -10.551  0.50 56.64 LIG 0.14  C 
BRANCH 14 15
ATOM     15  NE  ARG B   3       4.386  23.558 -10.076  0.50 56.60 LIG-0.23  N 
ATOM     16  CZ  ARG B   3       3.208  24.001 -10.511  0.50 56.66 LIG 0.67  C 
ATOM     17  NH2 ARG B   3       2.701  25.116  -9.995  0.50 56.73 LIG-0.23  N 
ATOM     18  NH1 ARG B   3       2.530  23.346 -11.448  0.50 56.69 LIG-0.23  N 
ATOM     19 22HH ARG B   3       1.940  25.410 -10.270  0.50 56.73 LIG 0.17  HD
ATOM     20 21HH ARG B   3       3.132  25.544  -9.387  0.50 56.73 LIG 0.17  HD
ATOM     21 12HH ARG B   3       1.771  23.646 -11.718  0.50 56.69 LIG 0.17  HD
ATOM     22 11HH ARG B   3       2.851  22.623 -11.784  0.50 56.69 LIG 0.17  HD
ATOM     23 HE   ARG B   3       4.780  24.019  -9.465  0.50 56.60 LIG 0.18  HD
ENDBRANCH 14 15
ENDBRANCH 13 14
ENDBRANCH 12 13
ENDBRANCH 1 12
BRANCH 1 24
ATOM     24  N   ARG B   3       7.559  23.868  -7.504  0.50 56.75 LIG-0.35  N 
ATOM     25  C   ILE B   2       8.185  23.478  -6.401  0.50 56.81 LIG 0.24  C 
ATOM     26 O    ILE B   2       9.388  23.260  -6.378  0.50 56.81 LIG-0.27  OA
ATOM     27 H    ARG B   3       6.763  24.193  -7.525  0.50 56.75 LIG 0.16  HD
BRANCH 25 28
ATOM     28  CA  ILE B   2       7.333  23.304  -5.145  0.50 56.86 LIG 0.18  C 
BRANCH 28 29
ATOM     29  N   ILE B   2       7.774  24.267  -4.142  0.50 56.91 LIG-0.35  N 
ATOM     30 H    ILE B   2       7.977  23.916  -3.384  0.50 56.91 LIG 0.16  HD
ATOM     31  C   ALA B   1       7.848  25.569  -4.392  0.50 56.95 LIG 0.25  C 
ATOM     32 O    ALA B   1       7.539  26.065  -5.476  0.50 56.96 LIG-0.27  OA
BRANCH 31 33
ATOM     33  CA  ALA B   1       8.341  26.445  -3.243  0.50 56.96 LIG 0.27  C 
ATOM     34  CB  ALA B   1       7.520  26.186  -1.989  0.50 56.98 LIG 0.05  C 
BRANCH 33 35
ATOM     35  N   ALA B   1       8.270  27.887  -3.613  0.50 56.97 LIG-0.07  N 
ATOM     36 H1   ALA B   1       8.709  28.371  -3.008  0.50 56.97 LIG 0.28  HD
ATOM     37 H3   ALA B   1       7.419  28.145  -3.637  0.50 56.97 LIG 0.28  HD
ATOM     38 H2   ALA B   1       8.639  28.007  -4.414  0.50 56.97 LIG 0.28  HD
ENDBRANCH 33 35
ENDBRANCH 31 33
ENDBRANCH 28 29
BRANCH 28 39
ATOM     39  CB  ILE B   2       5.831  23.519  -5.447  0.50 56.87 LIG 0.01  C 
ATOM     40  CG2 ILE B   2       5.238  22.351  -6.246  1.00 56.86 LIG 0.01  C 
BRANCH 39 41
ATOM     41  CG1 ILE B   2       5.053  23.777  -4.144  1.00 56.91 LIG 0.00  C 
ATOM     42  CD1 ILE B   2       4.681  22.525  -3.347  0.50 56.92 LIG 0.01  C 
ENDBRANCH 39 41
ENDBRANCH 28 39
ENDBRANCH 25 28
ENDBRANCH 1 24
TORSDOF 16
ENDMDL
MODEL 15
USER: ADFR SOLUTION from run 40
USER: SCORE 14.246285 LL:  -1.966 LR: -12.481 RR:   0.000 FEB:  -7.708
USER: RMSD 9.396409
USER: SEED 39
USER: STATUS searching
USER: GENES 18
USER: genes 0 Translation |==|  0.60853 0.67607 0.54054
USER: genes 1 Rotation |==|  0.42154 0.52586 0.98565 0.58553
USER: genes 2 Torsion [N]-CA--C-[N] |==|  0.44872
USER: genes 3 Torsion [C]-N--CA-[C] |==|  0.72695
USER: genes 4 Torsion [N]-CA--C-[O] |==|  0.36444
USER: genes 5 Torsion [N]-CA--CB-[OG] |==|  0.14358
USER: genes 6 Torsion [CA]-CB--OG-[HG] |==|  0.56939
USER: genes 7 Torsion [C]-CA--CB-[CG] |==|  0.94765
USER: genes 8 Torsion [CA]-CB--CG-[CD] |==|  0.38048
USER: genes 9 Torsion [CB]-CG--CD-[NE] |==|  0.14709
USER: genes 10 Torsion [CG]-CD--NE-[CZ] |==|  0.13775
USER: genes 11 Torsion [C]-CA--N-[C] |==|  0.56111
USER: genes 12 Torsion [N]-C--CA-[N] |==|  0.36254
USER: genes 13 Torsion [C]-CA--N-[C] |==|  0.77122
USER: genes 14 Torsion [N]-C--CA-[N] |==|  0.42426
USER: genes 15 Torsion [C]-CA--N-[H1] |==|  0.80341
USER: genes 16 Torsion [C]-CA--CB-[CG2] |==|  0.20794
USER: genes 17 Torsion [CA]-CB--CG1-[CD1] |==|  0.87491
ROOT
ATOM      1  CA  ARG B   3       7.026  23.302  -6.154  0.50 56.69 LIG 0.18  C 
ENDROOT
BRANCH 1 2
ATOM      2  C   ARG B   3       5.715  22.670  -5.757  0.50 56.65 LIG 0.24  C 
ATOM      3 O    ARG B   3       4.651  22.939  -6.315  0.50 56.65 LIG-0.27  OA
ATOM      4  N   SER B   4       5.858  21.762  -4.801  0.50 56.58 LIG-0.34  N 
ATOM      5 H    SER B   4       6.618  21.421  -4.590  0.50 56.58 LIG 0.16  HD
BRANCH 4 6
ATOM      6  CA  SER B   4       4.759  21.249  -4.016  0.50 56.54 LIG 0.19  C 
BRANCH 6 7
ATOM      7  C   SER B   4       4.754  22.016  -2.702  0.50 56.54 LIG 0.22  C 
ATOM      8 O    SER B   4       3.716  22.515  -2.261  0.50 56.51 LIG-0.29  OA
ENDBRANCH 6 7
BRANCH 6 9
ATOM      9  CB  SER B   4       4.928  19.750  -3.770  0.50 56.54 LIG 0.20  C 
BRANCH 9 10
ATOM     10 OG   SER B   4       6.211  19.455  -3.245  0.50 56.48 LIG-0.40  OA
ATOM     11 HG   SER B   4       6.415  18.663  -3.431  0.50 56.48 LIG 0.21  HD
ENDBRANCH 9 10
ENDBRANCH 6 9
ENDBRANCH 4 6
ENDBRANCH 1 2
BRANCH 1 12
ATOM     12  CB  ARG B   3       7.394  24.290  -5.047  0.50 56.69 LIG 0.04  C 
BRANCH 12 13
ATOM     13  CG  ARG B   3       6.270  24.737  -4.130  0.50 56.67 LIG 0.02  C 
BRANCH 13 14
ATOM     14  CD  ARG B   3       6.677  24.772  -2.659  0.50 56.64 LIG 0.14  C 
BRANCH 14 15
ATOM     15  NE  ARG B   3       7.894  25.561  -2.435  0.50 56.60 LIG-0.23  N 
ATOM     16  CZ  ARG B   3       8.113  26.791  -2.895  0.50 56.66 LIG 0.67  C 
ATOM     17  NH2 ARG B   3       9.264  27.395  -2.620  0.50 56.73 LIG-0.23  N 
ATOM     18  NH1 ARG B   3       7.198  27.427  -3.620  0.50 56.69 LIG-0.23  N 
ATOM     19 22HH ARG B   3       9.414  28.190  -2.913  0.50 56.73 LIG 0.17  HD
ATOM     20 21HH ARG B   3       9.860  26.991  -2.149  0.50 56.73 LIG 0.17  HD
ATOM     21 12HH ARG B   3       7.354  28.221  -3.910  0.50 56.69 LIG 0.17  HD
ATOM     22 11HH ARG B   3       6.449  27.043  -3.800  0.50 56.69 LIG 0.17  HD
ATOM     23 HE   ARG B   3       8.519  25.198  -1.968  0.50 56.60 LIG 0.18  HD
ENDBRANCH 14 15
ENDBRANCH 13 14
ENDBRANCH 12 13
ENDBRANCH 1 12
BRANCH 1 24
ATOM     24  N   ARG B   3       7.084  23.991  -7.436  0.50 56.75 LIG-0.35  N 
ATOM     25  C   ILE B   2       8.249  24.181  -8.042  0.50 56.81 LIG 0.24  C 
ATOM     26 O    ILE B   2       9.264  23.590  -7.702  0.50 56.81 LIG-0.27  OA
ATOM     27 H    ARG B   3       6.324  24.249  -7.745  0.50 56.75 LIG 0.16  HD
BRANCH 25 28
ATOM     28  CA  ILE B   2       8.276  25.185  -9.193  0.50 56.86 LIG 0.18  C 
BRANCH 28 29
ATOM     29  N   ILE B   2       9.386  26.108  -8.985  0.50 56.91 LIG-0.35  N 
ATOM     30 H    ILE B   2      10.097  25.906  -9.425  0.50 56.91 LIG 0.16  HD
ATOM     31  C   ALA B   1       9.294  27.163  -8.184  0.50 56.95 LIG 0.25  C 
ATOM     32 O    ALA B   1       8.277  27.435  -7.544  0.50 56.96 LIG-0.27  OA
BRANCH 31 33
ATOM     33  CA  ALA B   1      10.540  28.040  -8.083  0.50 56.96 LIG 0.27  C 
ATOM     34  CB  ALA B   1      11.495  27.485  -7.039  0.50 56.98 LIG 0.05  C 
BRANCH 33 35
ATOM     35  N   ALA B   1      10.169  29.443  -7.745  0.50 56.97 LIG-0.07  N 
ATOM     36 H1   ALA B   1       9.770  29.821  -8.445  0.50 56.97 LIG 0.28  HD
ATOM     37 H3   ALA B   1      10.902  29.901  -7.538  0.50 56.97 LIG 0.28  HD
ATOM     38 H2   ALA B   1       9.612  29.444  -7.050  0.50 56.97 LIG 0.28  HD
ENDBRANCH 33 35
ENDBRANCH 31 33
ENDBRANCH 28 29
BRANCH 28 39
ATOM     39  CB  ILE B   2       8.440  24.475 -10.558  0.50 56.87 LIG 0.01  C 
ATOM     40  CG2 ILE B   2       7.141  23.789 -11.002  1.00 56.86 LIG 0.01  C 
BRANCH 39 41
ATOM     41  CG1 ILE B   2       8.959  25.463 -11.619  1.00 56.91 LIG 0.00  C 
ATOM     42  CD1 ILE B   2       8.270  26.829 -11.632  0.50 56.92 LIG 0.01  C 
ENDBRANCH 39 41
ENDBRANCH 28 39
ENDBRANCH 25 28
ENDBRANCH 1 24
TORSDOF 16
ENDMDL
MODEL 16
USER: ADFR SOLUTION from run 138
USER: SCORE 14.152884 LL:  -2.199 LR: -12.475 RR:   0.000 FEB:  -7.702
USER: RMSD 8.978781
USER: SEED 137
USER: STATUS no improvement in best 7 clusters for 5 generations
USER: GENES 18
USER: genes 0 Translation |==|  0.51283 0.63167 0.53343
USER: genes 1 Rotation |==|  0.86251 0.26657 0.43614 0.74499
USER: genes 2 Torsion [N]-CA--C-[N] |==|  0.92245
USER: genes 3 Torsion [C]-N--CA-[C] |==|  0.69813
USER: genes 4 Torsion [N]-CA--C-[O] |==|  0.01599
USER: genes 5 Torsion [N]-CA--CB-[OG] |==|  0.44824
USER: genes 6 Torsion [CA]-CB--OG-[HG] |==|  0.78778
USER: genes 7 Torsion [C]-CA--CB-[CG] |==|  0.53439
USER: genes 8 Torsion [CA]-CB--CG-[CD] |==|  0.60944
USER: genes 9 Torsion [CB]-CG--CD-[NE] |==|  0.26019
USER: genes 10 Torsion [CG]-CD--NE-[CZ] |==|  0.45774
USER: genes 11 Torsion [C]-CA--N-[C] |==|  0.72011
USER: genes 12 Torsion [N]-C--CA-[N] |==|  0.34124
USER: genes 13 Torsion [C]-CA--N-[C] |==|  0.60881
USER: genes 14 Torsion [N]-C--CA-[N] |==|  0.13213
USER: genes 15 Torsion [C]-CA--N-[H1] |==|  0.44228
USER: genes 16 Torsion [C]-CA--CB-[CG2] |==|  0.36165
USER: genes 17 Torsion [CA]-CB--CG1-[CD1] |==|  0.21829
ROOT
ATOM      1  CA  ARG B   3       4.155  21.970  -6.367  0.50 56.69 LIG 0.18  C 
ENDROOT
BRANCH 1 2
ATOM      2  C   ARG B   3       3.593  20.819  -5.571  0.50 56.65 LIG 0.24  C 
ATOM      3 O    ARG B   3       2.415  20.764  -5.220  0.50 56.65 LIG-0.27  OA
ATOM      4  N   SER B   4       4.489  19.864  -5.359  0.50 56.58 LIG-0.34  N 
ATOM      5 H    SER B   4       5.224  19.806  -5.801  0.50 56.58 LIG 0.16  HD
BRANCH 4 6
ATOM      6  CA  SER B   4       4.328  18.823  -4.370  0.50 56.54 LIG 0.19  C 
BRANCH 6 7
ATOM      7  C   SER B   4       5.315  19.116  -3.250  0.50 56.54 LIG 0.22  C 
ATOM      8 O    SER B   4       5.986  20.151  -3.249  0.50 56.51 LIG-0.29  OA
ENDBRANCH 6 7
BRANCH 6 9
ATOM      9  CB  SER B   4       4.596  17.450  -4.986  0.50 56.54 LIG 0.20  C 
BRANCH 9 10
ATOM     10 OG   SER B   4       4.863  16.481  -3.988  0.50 56.48 LIG-0.40  OA
ATOM     11 HG   SER B   4       5.645  16.583  -3.700  0.50 56.48 LIG 0.21  HD
ENDBRANCH 9 10
ENDBRANCH 6 9
ENDBRANCH 4 6
ENDBRANCH 1 2
BRANCH 1 12
ATOM     12  CB  ARG B   3       3.807  21.707  -7.832  0.50 56.69 LIG 0.04  C 
BRANCH 12 13
ATOM     13  CG  ARG B   3       4.507  22.570  -8.865  0.50 56.67 LIG 0.02  C 
BRANCH 13 14
ATOM     14  CD  ARG B   3       3.593  22.986 -10.015  0.50 56.64 LIG 0.14  C 
BRANCH 14 15
ATOM     15  NE  ARG B   3       2.968  24.294  -9.785  0.50 56.60 LIG-0.23  N 
ATOM     16  CZ  ARG B   3       2.365  25.035 -10.712  0.50 56.66 LIG 0.67  C 
ATOM     17  NH2 ARG B   3       1.839  26.207 -10.370  0.50 56.73 LIG-0.23  N 
ATOM     18  NH1 ARG B   3       2.275  24.622 -11.973  0.50 56.69 LIG-0.23  N 
ATOM     19 22HH ARG B   3       1.448  26.693 -10.963  0.50 56.73 LIG 0.17  HD
ATOM     20 21HH ARG B   3       1.890  26.480  -9.556  0.50 56.73 LIG 0.17  HD
ATOM     21 12HH ARG B   3       1.883  25.112 -12.560  0.50 56.69 LIG 0.17  HD
ATOM     22 11HH ARG B   3       2.611  23.863 -12.201  0.50 56.69 LIG 0.17  HD
ATOM     23 HE   ARG B   3       2.994  24.608  -8.984  0.50 56.60 LIG 0.18  HD
ENDBRANCH 14 15
ENDBRANCH 13 14
ENDBRANCH 12 13
ENDBRANCH 1 12
BRANCH 1 24
ATOM     24  N   ARG B   3       5.585  22.231  -6.264  0.50 56.75 LIG-0.35  N 
ATOM     25  C   ILE B   2       6.034  23.206  -5.485  0.50 56.81 LIG 0.24  C 
ATOM     26 O    ILE B   2       5.326  23.748  -4.647  0.50 56.81 LIG-0.27  OA
ATOM     27 H    ARG B   3       6.083  21.713  -6.736  0.50 56.75 LIG 0.16  HD
BRANCH 25 28
ATOM     28  CA  ILE B   2       7.487  23.635  -5.679  0.50 56.86 LIG 0.18  C 
BRANCH 28 29
ATOM     29  N   ILE B   2       7.518  25.061  -5.983  0.50 56.91 LIG-0.35  N 
ATOM     30 H    ILE B   2       6.953  25.528  -5.534  0.50 56.91 LIG 0.16  HD
ATOM     31  C   ALA B   1       8.351  25.579  -6.878  0.50 56.95 LIG 0.25  C 
ATOM     32 O    ALA B   1       9.147  24.901  -7.529  0.50 56.96 LIG-0.27  OA
BRANCH 31 33
ATOM     33  CA  ALA B   1       8.271  27.092  -7.072  0.50 56.96 LIG 0.27  C 
ATOM     34  CB  ALA B   1       9.434  27.579  -7.922  0.50 56.98 LIG 0.05  C 
BRANCH 33 35
ATOM     35  N   ALA B   1       8.270  27.791  -5.757  0.50 56.97 LIG-0.07  N 
ATOM     36 H1   ALA B   1       8.523  28.637  -5.870  0.50 56.97 LIG 0.28  HD
ATOM     37 H3   ALA B   1       8.836  27.384  -5.204  0.50 56.97 LIG 0.28  HD
ATOM     38 H2   ALA B   1       7.450  27.771  -5.410  0.50 56.97 LIG 0.28  HD
ENDBRANCH 33 35
ENDBRANCH 31 33
ENDBRANCH 28 29
BRANCH 28 39
ATOM     39  CB  ILE B   2       8.332  23.356  -4.414  0.50 56.87 LIG 0.01  C 
ATOM     40  CG2 ILE B   2       9.628  22.605  -4.749  1.00 56.86 LIG 0.01  C 
BRANCH 39 41
ATOM     41  CG1 ILE B   2       8.609  24.665  -3.652  1.00 56.91 LIG 0.00  C 
ATOM     42  CD1 ILE B   2       7.449  25.181  -2.799  0.50 56.92 LIG 0.01  C 
ENDBRANCH 39 41
ENDBRANCH 28 39
ENDBRANCH 25 28
ENDBRANCH 1 24
TORSDOF 16
ENDMDL
MODEL 17
USER: ADFR SOLUTION from run 87
USER: SCORE 13.826991 LL:  -2.087 LR: -12.402 RR:   0.000 FEB:  -7.629
USER: RMSD 12.416658
USER: SEED 86
USER: STATUS no improvement in best 4 clusters for 5 generations
USER: GENES 18
USER: genes 0 Translation |==|  0.75742 0.77902 0.50290
USER: genes 1 Rotation |==|  0.14268 0.34534 0.29255 0.73530
USER: genes 2 Torsion [N]-CA--C-[N] |==|  0.36701
USER: genes 3 Torsion [C]-N--CA-[C] |==|  0.23164
USER: genes 4 Torsion [N]-CA--C-[O] |==|  0.37344
USER: genes 5 Torsion [N]-CA--CB-[OG] |==|  0.26760
USER: genes 6 Torsion [CA]-CB--OG-[HG] |==|  0.70455
USER: genes 7 Torsion [C]-CA--CB-[CG] |==|  0.48431
USER: genes 8 Torsion [CA]-CB--CG-[CD] |==|  0.77646
USER: genes 9 Torsion [CB]-CG--CD-[NE] |==|  0.79614
USER: genes 10 Torsion [CG]-CD--NE-[CZ] |==|  0.52507
USER: genes 11 Torsion [C]-CA--N-[C] |==|  0.69861
USER: genes 12 Torsion [N]-C--CA-[N] |==|  0.98264
USER: genes 13 Torsion [C]-CA--N-[C] |==|  0.21381
USER: genes 14 Torsion [N]-C--CA-[N] |==|  0.41477
USER: genes 15 Torsion [C]-CA--N-[H1] |==|  0.91643
USER: genes 16 Torsion [C]-CA--CB-[CG2] |==|  0.14992
USER: genes 17 Torsion [CA]-CB--CG1-[CD1] |==|  0.34074
ROOT
ATOM      1  CA  ARG B   3      11.492  26.391  -7.283  0.50 56.69 LIG 0.18  C 
ENDROOT
BRANCH 1 2
ATOM      2  C   ARG B   3      12.969  26.652  -7.122  0.50 56.65 LIG 0.24  C 
ATOM      3 O    ARG B   3      13.466  27.030  -6.061  0.50 56.65 LIG-0.27  OA
ATOM      4  N   SER B   4      13.658  26.365  -8.218  0.50 56.58 LIG-0.34  N 
ATOM      5 H    SER B   4      13.340  25.889  -8.859  0.50 56.58 LIG 0.16  HD
BRANCH 4 6
ATOM      6  CA  SER B   4      15.009  26.818  -8.454  0.50 56.54 LIG 0.19  C 
BRANCH 6 7
ATOM      7  C   SER B   4      15.937  25.842  -7.745  0.50 56.54 LIG 0.22  C 
ATOM      8 O    SER B   4      16.943  25.401  -8.305  0.50 56.51 LIG-0.29  OA
ENDBRANCH 6 7
BRANCH 6 9
ATOM      9  CB  SER B   4      15.201  28.238  -7.918  0.50 56.54 LIG 0.20  C 
BRANCH 9 10
ATOM     10 OG   SER B   4      15.771  28.226  -6.621  0.50 56.48 LIG-0.40  OA
ATOM     11 HG   SER B   4      15.184  28.425  -6.055  0.50 56.48 LIG 0.21  HD
ENDBRANCH 9 10
ENDBRANCH 6 9
ENDBRANCH 4 6
ENDBRANCH 1 2
BRANCH 1 12
ATOM     12  CB  ARG B   3      10.816  27.753  -7.429  0.50 56.69 LIG 0.04  C 
BRANCH 12 13
ATOM     13  CG  ARG B   3       9.331  27.747  -7.738  0.50 56.67 LIG 0.02  C 
BRANCH 13 14
ATOM     14  CD  ARG B   3       9.028  27.508  -9.216  0.50 56.64 LIG 0.14  C 
BRANCH 14 15
ATOM     15  NE  ARG B   3       9.338  28.678 -10.046  0.50 56.60 LIG-0.23  N 
ATOM     16  CZ  ARG B   3       9.020  28.818 -11.331  0.50 56.66 LIG 0.67  C 
ATOM     17  NH2 ARG B   3       9.363  29.933 -11.969  0.50 56.73 LIG-0.23  N 
ATOM     18  NH1 ARG B   3       8.362  27.866 -11.986  0.50 56.69 LIG-0.23  N 
ATOM     19 22HH ARG B   3       9.162  30.032 -12.800  0.50 56.73 LIG 0.17  HD
ATOM     20 21HH ARG B   3       9.786  30.554 -11.552  0.50 56.73 LIG 0.17  HD
ATOM     21 12HH ARG B   3       8.165  27.972 -12.816  0.50 56.69 LIG 0.17  HD
ATOM     22 11HH ARG B   3       8.135  27.143 -11.578  0.50 56.69 LIG 0.17  HD
ATOM     23 HE   ARG B   3       9.760  29.327  -9.671  0.50 56.60 LIG 0.18  HD
ENDBRANCH 14 15
ENDBRANCH 13 14
ENDBRANCH 12 13
ENDBRANCH 1 12
BRANCH 1 24
ATOM     24  N   ARG B   3      10.819  25.642  -6.231  0.50 56.75 LIG-0.35  N 
ATOM     25  C   ILE B   2      10.416  24.397  -6.446  0.50 56.81 LIG 0.24  C 
ATOM     26 O    ILE B   2      10.799  23.746  -7.409  0.50 56.81 LIG-0.27  OA
ATOM     27 H    ARG B   3      10.713  26.069  -5.491  0.50 56.75 LIG 0.16  HD
BRANCH 25 28
ATOM     28  CA  ILE B   2       9.437  23.800  -5.437  0.50 56.86 LIG 0.18  C 
BRANCH 28 29
ATOM     29  N   ILE B   2       9.272  24.738  -4.332  0.50 56.91 LIG-0.35  N 
ATOM     30 H    ILE B   2       9.701  24.520  -3.620  0.50 56.91 LIG 0.16  HD
ATOM     31  C   ALA B   1       8.520  25.828  -4.432  0.50 56.95 LIG 0.25  C 
ATOM     32 O    ALA B   1       7.895  26.123  -5.451  0.50 56.96 LIG-0.27  OA
BRANCH 31 33
ATOM     33  CA  ALA B   1       8.460  26.717  -3.192  0.50 56.96 LIG 0.27  C 
ATOM     34  CB  ALA B   1       7.335  26.268  -2.273  0.50 56.98 LIG 0.05  C 
BRANCH 33 35
ATOM     35  N   ALA B   1       8.270  28.144  -3.576  0.50 56.97 LIG-0.07  N 
ATOM     36 H1   ALA B   1       8.645  28.290  -4.371  0.50 56.97 LIG 0.28  HD
ATOM     37 H3   ALA B   1       8.651  28.668  -2.967  0.50 56.97 LIG 0.28  HD
ATOM     38 H2   ALA B   1       7.400  28.326  -3.621  0.50 56.97 LIG 0.28  HD
ENDBRANCH 33 35
ENDBRANCH 31 33
ENDBRANCH 28 29
BRANCH 28 39
ATOM     39  CB  ILE B   2       8.062  23.514  -6.085  0.50 56.87 LIG 0.01  C 
ATOM     40  CG2 ILE B   2       8.194  22.640  -7.340  1.00 56.86 LIG 0.01  C 
BRANCH 39 41
ATOM     41  CG1 ILE B   2       7.100  22.895  -5.054  1.00 56.91 LIG 0.00  C 
ATOM     42  CD1 ILE B   2       5.795  23.662  -4.836  0.50 56.92 LIG 0.01  C 
ENDBRANCH 39 41
ENDBRANCH 28 39
ENDBRANCH 25 28
ENDBRANCH 1 24
TORSDOF 16
ENDMDL
MODEL 18
USER: ADFR SOLUTION from run 159
USER: SCORE 15.062933 LL:  -2.925 LR: -12.396 RR:   0.000 FEB:  -7.623
USER: RMSD 7.989055
USER: SEED 158
USER: STATUS no improvement in best 2 clusters for 5 generations
USER: GENES 18
USER: genes 0 Translation |==|  0.57533 0.63785 0.58648
USER: genes 1 Rotation |==|  0.31541 0.32907 0.85945 0.73980
USER: genes 2 Torsion [N]-CA--C-[N] |==|  0.21089
USER: genes 3 Torsion [C]-N--CA-[C] |==|  0.75071
USER: genes 4 Torsion [N]-CA--C-[O] |==|  0.09179
USER: genes 5 Torsion [N]-CA--CB-[OG] |==|  0.00383
USER: genes 6 Torsion [CA]-CB--OG-[HG] |==|  0.68677
USER: genes 7 Torsion [C]-CA--CB-[CG] |==|  0.24146
USER: genes 8 Torsion [CA]-CB--CG-[CD] |==|  0.95072
USER: genes 9 Torsion [CB]-CG--CD-[NE] |==|  0.39088
USER: genes 10 Torsion [CG]-CD--NE-[CZ] |==|  0.40731
USER: genes 11 Torsion [C]-CA--N-[C] |==|  0.77765
USER: genes 12 Torsion [N]-C--CA-[N] |==|  0.95236
USER: genes 13 Torsion [C]-CA--N-[C] |==|  0.79383
USER: genes 14 Torsion [N]-C--CA-[N] |==|  0.43206
USER: genes 15 Torsion [C]-CA--N-[H1] |==|  0.90098
USER: genes 16 Torsion [C]-CA--CB-[CG2] |==|  0.89009
USER: genes 17 Torsion [CA]-CB--CG1-[CD1] |==|  0.19862
ROOT
ATOM      1  CA  ARG B   3       6.030  22.156  -4.775  0.50 56.69 LIG 0.18  C 
ENDROOT
BRANCH 1 2
ATOM      2  C   ARG B   3       4.777  22.532  -5.526  0.50 56.65 LIG 0.24  C 
ATOM      3 O    ARG B   3       3.788  23.012  -4.971  0.50 56.65 LIG-0.27  OA
ATOM      4  N   SER B   4       4.894  22.350  -6.834  0.50 56.58 LIG-0.34  N 
ATOM      5 H    SER B   4       5.653  22.241  -7.225  0.50 56.58 LIG 0.16  HD
BRANCH 4 6
ATOM      6  CA  SER B   4       3.770  22.314  -7.740  0.50 56.54 LIG 0.19  C 
BRANCH 6 7
ATOM      7  C   SER B   4       3.310  20.866  -7.824  0.50 56.54 LIG 0.22  C 
ATOM      8 O    SER B   4       3.398  20.114  -6.851  0.50 56.51 LIG-0.29  OA
ENDBRANCH 6 7
BRANCH 6 9
ATOM      9  CB  SER B   4       4.173  22.838  -9.119  0.50 56.54 LIG 0.20  C 
BRANCH 9 10
ATOM     10 OG   SER B   4       5.546  23.189  -9.154  0.50 56.48 LIG-0.40  OA
ATOM     11 HG   SER B   4       5.620  24.020  -9.246  0.50 56.48 LIG 0.21  HD
ENDBRANCH 9 10
ENDBRANCH 6 9
ENDBRANCH 4 6
ENDBRANCH 1 2
BRANCH 1 12
ATOM     12  CB  ARG B   3       5.629  21.961  -3.314  0.50 56.69 LIG 0.04  C 
BRANCH 12 13
ATOM     13  CG  ARG B   3       5.133  20.582  -2.921  0.50 56.67 LIG 0.02  C 
BRANCH 13 14
ATOM     14  CD  ARG B   3       4.710  19.734  -4.118  0.50 56.64 LIG 0.14  C 
BRANCH 14 15
ATOM     15  NE  ARG B   3       5.106  18.329  -3.975  0.50 56.60 LIG-0.23  N 
ATOM     16  CZ  ARG B   3       4.423  17.283  -4.437  0.50 56.66 LIG 0.67  C 
ATOM     17  NH2 ARG B   3       4.895  16.056  -4.237  0.50 56.73 LIG-0.23  N 
ATOM     18  NH1 ARG B   3       3.281  17.445  -5.097  0.50 56.69 LIG-0.23  N 
ATOM     19 22HH ARG B   3       4.460  15.375  -4.531  0.50 56.73 LIG 0.17  HD
ATOM     20 21HH ARG B   3       5.634  15.944  -3.812  0.50 56.73 LIG 0.17  HD
ATOM     21 12HH ARG B   3       2.852  16.759  -5.389  0.50 56.69 LIG 0.17  HD
ATOM     22 11HH ARG B   3       2.971  18.235  -5.233  0.50 56.69 LIG 0.17  HD
ATOM     23 HE   ARG B   3       5.841  18.167  -3.558  0.50 56.60 LIG 0.18  HD
ENDBRANCH 14 15
ENDBRANCH 13 14
ENDBRANCH 12 13
ENDBRANCH 1 12
BRANCH 1 24
ATOM     24  N   ARG B   3       7.156  23.077  -4.834  0.50 56.75 LIG-0.35  N 
ATOM     25  C   ILE B   2       7.957  23.091  -5.892  0.50 56.81 LIG 0.24  C 
ATOM     26 O    ILE B   2       7.659  22.538  -6.941  0.50 56.81 LIG-0.27  OA
ATOM     27 H    ARG B   3       7.246  23.587  -4.147  0.50 56.75 LIG 0.16  HD
BRANCH 25 28
ATOM     28  CA  ILE B   2       9.287  23.828  -5.745  0.50 56.86 LIG 0.18  C 
BRANCH 28 29
ATOM     29  N   ILE B   2       9.211  24.707  -4.584  0.50 56.91 LIG-0.35  N 
ATOM     30 H    ILE B   2       9.653  24.427  -3.902  0.50 56.91 LIG 0.16  HD
ATOM     31  C   ALA B   1       8.516  25.839  -4.594  0.50 56.95 LIG 0.25  C 
ATOM     32 O    ALA B   1       7.872  26.225  -5.571  0.50 56.96 LIG-0.27  OA
BRANCH 31 33
ATOM     33  CA  ALA B   1       8.546  26.656  -3.305  0.50 56.96 LIG 0.27  C 
ATOM     34  CB  ALA B   1       7.532  26.114  -2.310  0.50 56.98 LIG 0.05  C 
BRANCH 33 35
ATOM     35  N   ALA B   1       8.270  28.093  -3.586  0.50 56.97 LIG-0.07  N 
ATOM     36 H1   ALA B   1       8.631  28.317  -4.368  0.50 56.97 LIG 0.28  HD
ATOM     37 H3   ALA B   1       8.623  28.594  -2.942  0.50 56.97 LIG 0.28  HD
ATOM     38 H2   ALA B   1       7.390  28.226  -3.617  0.50 56.97 LIG 0.28  HD
ENDBRANCH 33 35
ENDBRANCH 31 33
ENDBRANCH 28 29
BRANCH 28 39
ATOM     39  CB  ILE B   2      10.465  22.839  -5.570  0.50 56.87 LIG 0.01  C 
ATOM     40  CG2 ILE B   2      10.085  21.656  -4.670  1.00 56.86 LIG 0.01  C 
BRANCH 39 41
ATOM     41  CG1 ILE B   2      10.983  22.373  -6.943  1.00 56.91 LIG 0.00  C 
ATOM     42  CD1 ILE B   2      11.747  23.427  -7.745  0.50 56.92 LIG 0.01  C 
ENDBRANCH 39 41
ENDBRANCH 28 39
ENDBRANCH 25 28
ENDBRANCH 1 24
TORSDOF 16
ENDMDL
MODEL 19
USER: ADFR SOLUTION from run 72
USER: SCORE 13.555537 LL:  -2.157 LR: -12.377 RR:   0.000 FEB:  -7.605
USER: RMSD 7.901672
USER: SEED 71
USER: STATUS no improvement in best 9 clusters for 5 generations
USER: GENES 18
USER: genes 0 Translation |==|  0.55245 0.69629 0.60167
USER: genes 1 Rotation |==|  0.58820 0.48583 0.56647 0.98744
USER: genes 2 Torsion [N]-CA--C-[N] |==|  0.89043
USER: genes 3 Torsion [C]-N--CA-[C] |==|  0.16050
USER: genes 4 Torsion [N]-CA--C-[O] |==|  0.42473
USER: genes 5 Torsion [N]-CA--CB-[OG] |==|  0.91742
USER: genes 6 Torsion [CA]-CB--OG-[HG] |==|  0.49641
USER: genes 7 Torsion [C]-CA--CB-[CG] |==|  0.53981
USER: genes 8 Torsion [CA]-CB--CG-[CD] |==|  0.67000
USER: genes 9 Torsion [CB]-CG--CD-[NE] |==|  0.59740
USER: genes 10 Torsion [CG]-CD--NE-[CZ] |==|  0.13997
USER: genes 11 Torsion [C]-CA--N-[C] |==|  0.17261
USER: genes 12 Torsion [N]-C--CA-[N] |==|  0.33763
USER: genes 13 Torsion [C]-CA--N-[C] |==|  0.69709
USER: genes 14 Torsion [N]-C--CA-[N] |==|  0.83443
USER: genes 15 Torsion [C]-CA--N-[H1] |==|  0.21746
USER: genes 16 Torsion [C]-CA--CB-[CG2] |==|  0.34852
USER: genes 17 Torsion [CA]-CB--CG1-[CD1] |==|  0.26119
ROOT
ATOM      1  CA  ARG B   3       5.343  23.909  -4.320  0.50 56.69 LIG 0.18  C 
ENDROOT
BRANCH 1 2
ATOM      2  C   ARG B   3       5.862  24.851  -3.263  0.50 56.65 LIG 0.24  C 
ATOM      3 O    ARG B   3       5.118  25.525  -2.549  0.50 56.65 LIG-0.27  OA
ATOM      4  N   SER B   4       7.183  24.816  -3.154  0.50 56.58 LIG-0.34  N 
ATOM      5 H    SER B   4       7.662  24.184  -3.486  0.50 56.58 LIG 0.16  HD
BRANCH 4 6
ATOM      6  CA  SER B   4       7.956  25.827  -2.472  0.50 56.54 LIG 0.19  C 
BRANCH 6 7
ATOM      7  C   SER B   4       7.439  25.895  -1.042  0.50 56.54 LIG 0.22  C 
ATOM      8 O    SER B   4       8.169  26.265  -0.120  0.50 56.51 LIG-0.29  OA
ENDBRANCH 6 7
BRANCH 6 9
ATOM      9  CB  SER B   4       7.806  27.180  -3.169  0.50 56.54 LIG 0.20  C 
BRANCH 9 10
ATOM     10 OG   SER B   4       7.573  27.020  -4.558  0.50 56.48 LIG-0.40  OA
ATOM     11 HG   SER B   4       7.477  27.774  -4.914  0.50 56.48 LIG 0.21  HD
ENDBRANCH 9 10
ENDBRANCH 6 9
ENDBRANCH 4 6
ENDBRANCH 1 2
BRANCH 1 12
ATOM     12  CB  ARG B   3       5.245  22.528  -3.671  0.50 56.69 LIG 0.04  C 
BRANCH 12 13
ATOM     13  CG  ARG B   3       5.070  21.347  -4.606  0.50 56.67 LIG 0.02  C 
BRANCH 13 14
ATOM     14  CD  ARG B   3       3.768  20.584  -4.370  0.50 56.64 LIG 0.14  C 
BRANCH 14 15
ATOM     15  NE  ARG B   3       3.920  19.140  -4.587  0.50 56.60 LIG-0.23  N 
ATOM     16  CZ  ARG B   3       4.871  18.375  -4.055  0.50 56.66 LIG 0.67  C 
ATOM     17  NH2 ARG B   3       4.895  17.076  -4.336  0.50 56.73 LIG-0.23  N 
ATOM     18  NH1 ARG B   3       5.792  18.887  -3.245  0.50 56.69 LIG-0.23  N 
ATOM     19 22HH ARG B   3       5.506  16.574  -3.997  0.50 56.73 LIG 0.17  HD
ATOM     20 21HH ARG B   3       4.301  16.737  -4.856  0.50 56.73 LIG 0.17  HD
ATOM     21 12HH ARG B   3       6.400  18.379  -2.910  0.50 56.69 LIG 0.17  HD
ATOM     22 11HH ARG B   3       5.781  19.726  -3.057  0.50 56.69 LIG 0.17  HD
ATOM     23 HE   ARG B   3       3.346  18.757  -5.101  0.50 56.60 LIG 0.18  HD
ENDBRANCH 14 15
ENDBRANCH 13 14
ENDBRANCH 12 13
ENDBRANCH 1 12
BRANCH 1 24
ATOM     24  N   ARG B   3       6.106  23.793  -5.556  0.50 56.75 LIG-0.35  N 
ATOM     25  C   ILE B   2       7.353  23.344  -5.535  0.50 56.81 LIG 0.24  C 
ATOM     26 O    ILE B   2       7.826  22.781  -4.556  0.50 56.81 LIG-0.27  OA
ATOM     27 H    ARG B   3       5.685  24.035  -6.266  0.50 56.75 LIG 0.16  HD
BRANCH 25 28
ATOM     28  CA  ILE B   2       8.191  23.562  -6.793  0.50 56.86 LIG 0.18  C 
BRANCH 28 29
ATOM     29  N   ILE B   2       9.375  24.337  -6.440  0.50 56.91 LIG-0.35  N 
ATOM     30 H    ILE B   2       9.952  23.902  -5.973  0.50 56.91 LIG 0.16  HD
ATOM     31  C   ALA B   1       9.535  25.602  -6.812  0.50 56.95 LIG 0.25  C 
ATOM     32 O    ALA B   1       8.695  26.221  -7.467  0.50 56.96 LIG-0.27  OA
BRANCH 31 33
ATOM     33  CA  ALA B   1      10.836  26.271  -6.375  0.50 56.96 LIG 0.27  C 
ATOM     34  CB  ALA B   1      12.030  25.562  -6.995  0.50 56.98 LIG 0.05  C 
BRANCH 33 35
ATOM     35  N   ALA B   1      10.954  26.270  -4.890  0.50 56.97 LIG-0.07  N 
ATOM     36 H1   ALA B   1      11.211  25.464  -4.613  0.50 56.97 LIG 0.28  HD
ATOM     37 H3   ALA B   1      10.165  26.470  -4.530  0.50 56.97 LIG 0.28  HD
ATOM     38 H2   ALA B   1      11.556  26.876  -4.640  0.50 56.97 LIG 0.28  HD
ENDBRANCH 33 35
ENDBRANCH 31 33
ENDBRANCH 28 29
BRANCH 28 39
ATOM     39  CB  ILE B   2       8.621  22.217  -7.426  0.50 56.87 LIG 0.01  C 
ATOM     40  CG2 ILE B   2       8.210  22.126  -8.902  1.00 56.86 LIG 0.01  C 
BRANCH 39 41
ATOM     41  CG1 ILE B   2      10.132  21.993  -7.236  1.00 56.91 LIG 0.00  C 
ATOM     42  CD1 ILE B   2      10.520  21.171  -6.006  0.50 56.92 LIG 0.01  C 
ENDBRANCH 39 41
ENDBRANCH 28 39
ENDBRANCH 25 28
ENDBRANCH 1 24
TORSDOF 16
ENDMDL
MODEL 20
USER: ADFR SOLUTION from run 138
USER: SCORE 14.642601 LL:  -2.486 LR: -12.371 RR:   0.000 FEB:  -7.598
USER: RMSD 8.844061
USER: SEED 137
USER: STATUS no improvement in best 7 clusters for 5 generations
USER: GENES 18
USER: genes 0 Translation |==|  0.51233 0.64377 0.53685
USER: genes 1 Rotation |==|  0.84922 0.28066 0.42028 0.77125
USER: genes 2 Torsion [N]-CA--C-[N] |==|  0.89049
USER: genes 3 Torsion [C]-N--CA-[C] |==|  0.75205
USER: genes 4 Torsion [N]-CA--C-[O] |==|  0.98626
USER: genes 5 Torsion [N]-CA--CB-[OG] |==|  0.50900
USER: genes 6 Torsion [CA]-CB--OG-[HG] |==|  0.72724
USER: genes 7 Torsion [C]-CA--CB-[CG] |==|  0.70610
USER: genes 8 Torsion [CA]-CB--CG-[CD] |==|  0.62037
USER: genes 9 Torsion [CB]-CG--CD-[NE] |==|  0.25951
USER: genes 10 Torsion [CG]-CD--NE-[CZ] |==|  0.28743
USER: genes 11 Torsion [C]-CA--N-[C] |==|  0.80381
USER: genes 12 Torsion [N]-C--CA-[N] |==|  0.46109
USER: genes 13 Torsion [C]-CA--N-[C] |==|  0.72063
USER: genes 14 Torsion [N]-C--CA-[N] |==|  0.50720
USER: genes 15 Torsion [C]-CA--N-[H1] |==|  0.18819
USER: genes 16 Torsion [C]-CA--CB-[CG2] |==|  0.36893
USER: genes 17 Torsion [CA]-CB--CG1-[CD1] |==|  0.43864
ROOT
ATOM      1  CA  ARG B   3       4.140  22.333  -6.264  0.50 56.69 LIG 0.18  C 
ENDROOT
BRANCH 1 2
ATOM      2  C   ARG B   3       3.689  21.239  -5.329  0.50 56.65 LIG 0.24  C 
ATOM      3 O    ARG B   3       2.654  21.314  -4.667  0.50 56.65 LIG-0.27  OA
ATOM      4  N   SER B   4       4.491  20.183  -5.359  0.50 56.58 LIG-0.34  N 
ATOM      5 H    SER B   4       5.065  20.049  -5.985  0.50 56.58 LIG 0.16  HD
BRANCH 4 6
ATOM      6  CA  SER B   4       4.488  19.150  -4.349  0.50 56.54 LIG 0.19  C 
BRANCH 6 7
ATOM      7  C   SER B   4       5.473  19.577  -3.271  0.50 56.54 LIG 0.22  C 
ATOM      8 O    SER B   4       6.162  20.591  -3.405  0.50 56.51 LIG-0.29  OA
ENDBRANCH 6 7
BRANCH 6 9
ATOM      9  CB  SER B   4       4.895  17.806  -4.955  0.50 56.54 LIG 0.20  C 
BRANCH 9 10
ATOM     10 OG   SER B   4       4.826  16.766  -3.995  0.50 56.48 LIG-0.40  OA
ATOM     11 HG   SER B   4       5.592  16.622  -3.683  0.50 56.48 LIG 0.21  HD
ENDBRANCH 9 10
ENDBRANCH 6 9
ENDBRANCH 4 6
ENDBRANCH 1 2
BRANCH 1 12
ATOM     12  CB  ARG B   3       3.606  21.977  -7.651  0.50 56.69 LIG 0.04  C 
BRANCH 12 13
ATOM     13  CG  ARG B   3       4.615  21.459  -8.659  0.50 56.67 LIG 0.02  C 
BRANCH 13 14
ATOM     14  CD  ARG B   3       4.439  22.067 -10.049  0.50 56.64 LIG 0.14  C 
BRANCH 14 15
ATOM     15  NE  ARG B   3       5.283  23.249 -10.252  0.50 56.60 LIG-0.23  N 
ATOM     16  CZ  ARG B   3       6.410  23.281 -10.961  0.50 56.66 LIG 0.67  C 
ATOM     17  NH2 ARG B   3       7.083  24.422 -11.065  0.50 56.73 LIG-0.23  N 
ATOM     18  NH1 ARG B   3       6.871  22.192 -11.569  0.50 56.69 LIG-0.23  N 
ATOM     19 22HH ARG B   3       7.813  24.452 -11.520  0.50 56.73 LIG 0.17  HD
ATOM     20 21HH ARG B   3       6.790  25.131 -10.676  0.50 56.73 LIG 0.17  HD
ATOM     21 12HH ARG B   3       7.601  22.229 -12.023  0.50 56.69 LIG 0.17  HD
ATOM     22 11HH ARG B   3       6.439  21.451 -11.509  0.50 56.69 LIG 0.17  HD
ATOM     23 HE   ARG B   3       5.029  23.984  -9.882  0.50 56.60 LIG 0.18  HD
ENDBRANCH 14 15
ENDBRANCH 13 14
ENDBRANCH 12 13
ENDBRANCH 1 12
BRANCH 1 24
ATOM     24  N   ARG B   3       5.570  22.591  -6.364  0.50 56.75 LIG-0.35  N 
ATOM     25  C   ILE B   2       6.222  23.152  -5.354  0.50 56.81 LIG 0.24  C 
ATOM     26 O    ILE B   2       5.735  23.242  -4.235  0.50 56.81 LIG-0.27  OA
ATOM     27 H    ARG B   3       5.931  22.355  -7.108  0.50 56.75 LIG 0.16  HD
BRANCH 25 28
ATOM     28  CA  ILE B   2       7.621  23.692  -5.645  0.50 56.86 LIG 0.18  C 
BRANCH 28 29
ATOM     29  N   ILE B   2       8.032  24.549  -4.539  0.50 56.91 LIG-0.35  N 
ATOM     30 H    ILE B   2       8.316  24.120  -3.850  0.50 56.91 LIG 0.16  HD
ATOM     31  C   ALA B   1       7.969  25.874  -4.604  0.50 56.95 LIG 0.25  C 
ATOM     32 O    ALA B   1       7.546  26.480  -5.590  0.50 56.96 LIG-0.27  OA
BRANCH 31 33
ATOM     33  CA  ALA B   1       8.451  26.630  -3.368  0.50 56.96 LIG 0.27  C 
ATOM     34  CB  ALA B   1       7.701  26.157  -2.133  0.50 56.98 LIG 0.05  C 
BRANCH 33 35
ATOM     35  N   ALA B   1       8.270  28.098  -3.546  0.50 56.97 LIG-0.07  N 
ATOM     36 H1   ALA B   1       7.401  28.291  -3.563  0.50 56.97 LIG 0.28  HD
ATOM     37 H3   ALA B   1       8.645  28.353  -4.312  0.50 56.97 LIG 0.28  HD
ATOM     38 H2   ALA B   1       8.656  28.529  -2.870  0.50 56.97 LIG 0.28  HD
ENDBRANCH 33 35
ENDBRANCH 31 33
ENDBRANCH 28 29
BRANCH 28 39
ATOM     39  CB  ILE B   2       8.644  22.545  -5.822  0.50 56.87 LIG 0.01  C 
ATOM     40  CG2 ILE B   2       9.518  22.749  -7.067  1.00 56.86 LIG 0.01  C 
BRANCH 39 41
ATOM     41  CG1 ILE B   2       9.491  22.380  -4.547  1.00 56.91 LIG 0.00  C 
ATOM     42  CD1 ILE B   2      10.145  21.009  -4.370  0.50 56.92 LIG 0.01  C 
ENDBRANCH 39 41
ENDBRANCH 28 39
ENDBRANCH 25 28
ENDBRANCH 1 24
TORSDOF 16
ENDMDL
MODEL 21
USER: ADFR SOLUTION from run 81
USER: SCORE 14.732578 LL:  -2.787 LR: -12.370 RR:   0.000 FEB:  -7.597
USER: RMSD 8.499056
USER: SEED 80
USER: STATUS no improvement in best 7 clusters for 5 generations
USER: GENES 18
USER: genes 0 Translation |==|  0.56004 0.63963 0.57064
USER: genes 1 Rotation |==|  0.20961 0.28343 0.83055 0.59749
USER: genes 2 Torsion [N]-CA--C-[N] |==|  0.06052
USER: genes 3 Torsion [C]-N--CA-[C] |==|  0.56466
USER: genes 4 Torsion [N]-CA--C-[O] |==|  0.09744
USER: genes 5 Torsion [N]-CA--CB-[OG] |==|  0.96872
USER: genes 6 Torsion [CA]-CB--OG-[HG] |==|  0.39072
USER: genes 7 Torsion [C]-CA--CB-[CG] |==|  0.33757
USER: genes 8 Torsion [CA]-CB--CG-[CD] |==|  0.01411
USER: genes 9 Torsion [CB]-CG--CD-[NE] |==|  0.65860
USER: genes 10 Torsion [CG]-CD--NE-[CZ] |==|  0.13456
USER: genes 11 Torsion [C]-CA--N-[C] |==|  0.64017
USER: genes 12 Torsion [N]-C--CA-[N] |==|  0.86354
USER: genes 13 Torsion [C]-CA--N-[C] |==|  0.82885
USER: genes 14 Torsion [N]-C--CA-[N] |==|  0.10872
USER: genes 15 Torsion [C]-CA--N-[H1] |==|  0.42553
USER: genes 16 Torsion [C]-CA--CB-[CG2] |==|  0.49460
USER: genes 17 Torsion [CA]-CB--CG1-[CD1] |==|  0.36646
ROOT
ATOM      1  CA  ARG B   3       5.571  22.209  -5.251  0.50 56.69 LIG 0.18  C 
ENDROOT
BRANCH 1 2
ATOM      2  C   ARG B   3       5.010  22.038  -6.640  0.50 56.65 LIG 0.24  C 
ATOM      3 O    ARG B   3       4.044  21.315  -6.884  0.50 56.65 LIG-0.27  OA
ATOM      4  N   SER B   4       5.630  22.795  -7.535  0.50 56.58 LIG-0.34  N 
ATOM      5 H    SER B   4       6.136  23.457  -7.318  0.50 56.58 LIG 0.16  HD
BRANCH 4 6
ATOM      6  CA  SER B   4       5.526  22.595  -8.962  0.50 56.54 LIG 0.19  C 
BRANCH 6 7
ATOM      7  C   SER B   4       6.761  23.220  -9.592  0.50 56.54 LIG 0.22  C 
ATOM      8 O    SER B   4       7.853  23.187  -9.019  0.50 56.51 LIG-0.29  OA
ENDBRANCH 6 7
BRANCH 6 9
ATOM      9  CB  SER B   4       4.251  23.243  -9.503  0.50 56.54 LIG 0.20  C 
BRANCH 9 10
ATOM     10 OG   SER B   4       3.389  23.640  -8.452  0.50 56.48 LIG-0.40  OA
ATOM     11 HG   SER B   4       3.039  24.379  -8.640  0.50 56.48 LIG 0.21  HD
ENDBRANCH 9 10
ENDBRANCH 6 9
ENDBRANCH 4 6
ENDBRANCH 1 2
BRANCH 1 12
ATOM     12  CB  ARG B   3       4.395  22.096  -4.282  0.50 56.69 LIG 0.04  C 
BRANCH 12 13
ATOM     13  CG  ARG B   3       4.479  21.005  -3.231  0.50 56.67 LIG 0.02  C 
BRANCH 13 14
ATOM     14  CD  ARG B   3       5.814  20.263  -3.244  0.50 56.64 LIG 0.14  C 
BRANCH 14 15
ATOM     15  NE  ARG B   3       5.647  18.818  -3.436  0.50 56.60 LIG-0.23  N 
ATOM     16  CZ  ARG B   3       4.894  18.245  -4.373  0.50 56.66 LIG 0.67  C 
ATOM     17  NH2 ARG B   3       4.829  16.919  -4.437  0.50 56.73 LIG-0.23  N 
ATOM     18  NH1 ARG B   3       4.211  18.976  -5.248  0.50 56.69 LIG-0.23  N 
ATOM     19 22HH ARG B   3       4.345  16.540  -5.039  0.50 56.73 LIG 0.17  HD
ATOM     20 21HH ARG B   3       5.271  16.439  -3.876  0.50 56.73 LIG 0.17  HD
ATOM     21 12HH ARG B   3       3.729  18.591  -5.847  0.50 56.69 LIG 0.17  HD
ATOM     22 11HH ARG B   3       4.250  19.835  -5.215  0.50 56.69 LIG 0.17  HD
ATOM     23 HE   ARG B   3       6.071  18.297  -2.898  0.50 56.60 LIG 0.18  HD
ENDBRANCH 14 15
ENDBRANCH 13 14
ENDBRANCH 12 13
ENDBRANCH 1 12
BRANCH 1 24
ATOM     24  N   ARG B   3       6.301  23.436  -4.962  0.50 56.75 LIG-0.35  N 
ATOM     25  C   ILE B   2       7.503  23.386  -4.403  0.50 56.81 LIG 0.24  C 
ATOM     26 O    ILE B   2       8.147  22.348  -4.338  0.50 56.81 LIG-0.27  OA
ATOM     27 H    ARG B   3       5.894  24.161  -5.180  0.50 56.75 LIG 0.16  HD
BRANCH 25 28
ATOM     28  CA  ILE B   2       8.056  24.689  -3.830  0.50 56.86 LIG 0.18  C 
BRANCH 28 29
ATOM     29  N   ILE B   2       7.913  25.740  -4.831  0.50 56.91 LIG-0.35  N 
ATOM     30 H    ILE B   2       7.409  26.392  -4.585  0.50 56.91 LIG 0.16  HD
ATOM     31  C   ALA B   1       8.513  25.681  -6.014  0.50 56.95 LIG 0.25  C 
ATOM     32 O    ALA B   1       9.220  24.735  -6.364  0.50 56.96 LIG-0.27  OA
BRANCH 31 33
ATOM     33  CA  ALA B   1       8.275  26.867  -6.947  0.50 56.96 LIG 0.27  C 
ATOM     34  CB  ALA B   1       9.341  26.910  -8.031  0.50 56.98 LIG 0.05  C 
BRANCH 33 35
ATOM     35  N   ALA B   1       8.271  28.145  -6.181  0.50 56.97 LIG-0.07  N 
ATOM     36 H1   ALA B   1       8.519  28.812  -6.715  0.50 56.97 LIG 0.28  HD
ATOM     37 H3   ALA B   1       8.839  28.084  -5.499  0.50 56.97 LIG 0.28  HD
ATOM     38 H2   ALA B   1       7.452  28.303  -5.871  0.50 56.97 LIG 0.28  HD
ENDBRANCH 33 35
ENDBRANCH 31 33
ENDBRANCH 28 29
BRANCH 28 39
ATOM     39  CB  ILE B   2       7.312  25.099  -2.537  0.50 56.87 LIG 0.01  C 
ATOM     40  CG2 ILE B   2       7.893  26.382  -1.928  1.00 56.86 LIG 0.01  C 
BRANCH 39 41
ATOM     41  CG1 ILE B   2       5.800  25.224  -2.804  1.00 56.91 LIG 0.00  C 
ATOM     42  CD1 ILE B   2       4.898  24.518  -1.791  0.50 56.92 LIG 0.01  C 
ENDBRANCH 39 41
ENDBRANCH 28 39
ENDBRANCH 25 28
ENDBRANCH 1 24
TORSDOF 16
ENDMDL
MODEL 22
USER: ADFR SOLUTION from run 149
USER: SCORE 14.639048 LL:  -2.514 LR: -12.317 RR:   0.000 FEB:  -7.544
USER: RMSD 12.926147
USER: SEED 148
USER: STATUS no improvement in best 3 clusters for 5 generations
USER: GENES 18
USER: genes 0 Translation |==|  0.70416 0.81767 0.47992
USER: genes 1 Rotation |==|  0.08758 0.67528 0.49401 0.72170
USER: genes 2 Torsion [N]-CA--C-[N] |==|  0.36968
USER: genes 3 Torsion [C]-N--CA-[C] |==|  0.66576
USER: genes 4 Torsion [N]-CA--C-[O] |==|  0.18801
USER: genes 5 Torsion [N]-CA--CB-[OG] |==|  0.99102
USER: genes 6 Torsion [CA]-CB--OG-[HG] |==|  0.24832
USER: genes 7 Torsion [C]-CA--CB-[CG] |==|  0.79801
USER: genes 8 Torsion [CA]-CB--CG-[CD] |==|  0.26524
USER: genes 9 Torsion [CB]-CG--CD-[NE] |==|  0.07150
USER: genes 10 Torsion [CG]-CD--NE-[CZ] |==|  0.43939
USER: genes 11 Torsion [C]-CA--N-[C] |==|  0.86022
USER: genes 12 Torsion [N]-C--CA-[N] |==|  0.12568
USER: genes 13 Torsion [C]-CA--N-[C] |==|  0.12993
USER: genes 14 Torsion [N]-C--CA-[N] |==|  0.29335
USER: genes 15 Torsion [C]-CA--N-[H1] |==|  0.30916
USER: genes 16 Torsion [C]-CA--CB-[CG2] |==|  0.17931
USER: genes 17 Torsion [CA]-CB--CG1-[CD1] |==|  0.63410
ROOT
ATOM      1  CA  ARG B   3       9.895  27.550  -7.972  0.50 56.69 LIG 0.18  C 
ENDROOT
BRANCH 1 2
ATOM      2  C   ARG B   3      10.140  27.142  -9.404  0.50 56.65 LIG 0.24  C 
ATOM      3 O    ARG B   3      11.216  26.686  -9.791  0.50 56.65 LIG-0.27  OA
ATOM      4  N   SER B   4       9.059  27.269 -10.160  0.50 56.58 LIG-0.34  N 
ATOM      5 H    SER B   4       8.268  27.362  -9.834  0.50 56.58 LIG 0.16  HD
BRANCH 4 6
ATOM      6  CA  SER B   4       9.089  27.266 -11.605  0.50 56.54 LIG 0.19  C 
BRANCH 6 7
ATOM      7  C   SER B   4       8.516  28.598 -12.065  0.50 56.54 LIG 0.22  C 
ATOM      8 O    SER B   4       9.117  29.655 -11.858  0.50 56.51 LIG-0.29  OA
ENDBRANCH 6 7
BRANCH 6 9
ATOM      9  CB  SER B   4       8.268  26.100 -12.157  0.50 56.54 LIG 0.20  C 
BRANCH 9 10
ATOM     10 OG   SER B   4       7.758  25.290 -11.112  0.50 56.48 LIG-0.40  OA
ATOM     11 HG   SER B   4       7.007  25.581 -10.873  0.50 56.48 LIG 0.21  HD
ENDBRANCH 9 10
ENDBRANCH 6 9
ENDBRANCH 4 6
ENDBRANCH 1 2
BRANCH 1 12
ATOM     12  CB  ARG B   3      10.543  28.921  -7.786  0.50 56.69 LIG 0.04  C 
BRANCH 12 13
ATOM     13  CG  ARG B   3      12.059  28.958  -7.735  0.50 56.67 LIG 0.02  C 
BRANCH 13 14
ATOM     14  CD  ARG B   3      12.696  29.274  -9.086  0.50 56.64 LIG 0.14  C 
BRANCH 14 15
ATOM     15  NE  ARG B   3      11.800  30.041  -9.960  0.50 56.60 LIG-0.23  N 
ATOM     16  CZ  ARG B   3      12.184  30.797 -10.987  0.50 56.66 LIG 0.67  C 
ATOM     17  NH2 ARG B   3      11.266  31.443 -11.699  0.50 56.73 LIG-0.23  N 
ATOM     18  NH1 ARG B   3      13.467  30.912 -11.314  0.50 56.69 LIG-0.23  N 
ATOM     19 22HH ARG B   3      11.505  31.934 -12.364  0.50 56.73 LIG 0.17  HD
ATOM     20 21HH ARG B   3      10.434  31.371 -11.495  0.50 56.73 LIG 0.17  HD
ATOM     21 12HH ARG B   3      13.698  31.405 -11.980  0.50 56.69 LIG 0.17  HD
ATOM     22 11HH ARG B   3      14.066  30.495 -10.859  0.50 56.69 LIG 0.17  HD
ATOM     23 HE   ARG B   3      10.957  29.998  -9.794  0.50 56.60 LIG 0.18  HD
ENDBRANCH 14 15
ENDBRANCH 13 14
ENDBRANCH 12 13
ENDBRANCH 1 12
BRANCH 1 24
ATOM     24  N   ARG B   3      10.372  26.659  -6.923  0.50 56.75 LIG-0.35  N 
ATOM     25  C   ILE B   2      10.079  25.365  -6.959  0.50 56.81 LIG 0.24  C 
ATOM     26 O    ILE B   2       9.634  24.826  -7.962  0.50 56.81 LIG-0.27  OA
ATOM     27 H    ARG B   3      10.839  27.038  -6.309  0.50 56.75 LIG 0.16  HD
BRANCH 25 28
ATOM     28  CA  ILE B   2      10.319  24.565  -5.680  0.50 56.86 LIG 0.18  C 
BRANCH 28 29
ATOM     29  N   ILE B   2       9.796  25.322  -4.548  0.50 56.91 LIG-0.35  N 
ATOM     30 H    ILE B   2      10.333  25.367  -3.878  0.50 56.91 LIG 0.16  HD
ATOM     31  C   ALA B   1       8.595  25.888  -4.565  0.50 56.95 LIG 0.25  C 
ATOM     32 O    ALA B   1       7.826  25.806  -5.523  0.50 56.96 LIG-0.27  OA
BRANCH 31 33
ATOM     33  CA  ALA B   1       8.199  26.659  -3.307  0.50 56.96 LIG 0.27  C 
ATOM     34  CB  ALA B   1       6.798  26.266  -2.864  0.50 56.98 LIG 0.05  C 
BRANCH 33 35
ATOM     35  N   ALA B   1       8.266  28.128  -3.548  0.50 56.97 LIG-0.07  N 
ATOM     36 H1   ALA B   1       7.444  28.468  -3.542  0.50 56.97 LIG 0.28  HD
ATOM     37 H3   ALA B   1       8.645  28.282  -4.338  0.50 56.97 LIG 0.28  HD
ATOM     38 H2   ALA B   1       8.751  28.512  -2.907  0.50 56.97 LIG 0.28  HD
ENDBRANCH 33 35
ENDBRANCH 31 33
ENDBRANCH 28 29
BRANCH 28 39
ATOM     39  CB  ILE B   2       9.628  23.182  -5.741  0.50 56.87 LIG 0.01  C 
ATOM     40  CG2 ILE B   2      10.228  22.295  -6.841  1.00 56.86 LIG 0.01  C 
BRANCH 39 41
ATOM     41  CG1 ILE B   2       9.673  22.497  -4.363  1.00 56.91 LIG 0.00  C 
ATOM     42  CD1 ILE B   2      10.145  21.042  -4.372  0.50 56.92 LIG 0.01  C 
ENDBRANCH 39 41
ENDBRANCH 28 39
ENDBRANCH 25 28
ENDBRANCH 1 24
TORSDOF 16
ENDMDL
MODEL 23
USER: ADFR SOLUTION from run 103
USER: SCORE 13.337095 LL:  -1.823 LR: -12.280 RR:   0.000 FEB:  -7.507
USER: RMSD 9.954823
USER: SEED 102
USER: STATUS no improvement in best 2 clusters for 5 generations
USER: GENES 18
USER: genes 0 Translation |==|  0.62443 0.67304 0.42100
USER: genes 1 Rotation |==|  0.21472 0.10089 0.56643 0.57010
USER: genes 2 Torsion [N]-CA--C-[N] |==|  0.04182
USER: genes 3 Torsion [C]-N--CA-[C] |==|  0.83205
USER: genes 4 Torsion [N]-CA--C-[O] |==|  0.25088
USER: genes 5 Torsion [N]-CA--CB-[OG] |==|  0.46688
USER: genes 6 Torsion [CA]-CB--OG-[HG] |==|  0.40644
USER: genes 7 Torsion [C]-CA--CB-[CG] |==|  0.84250
USER: genes 8 Torsion [CA]-CB--CG-[CD] |==|  0.69264
USER: genes 9 Torsion [CB]-CG--CD-[NE] |==|  0.41097
USER: genes 10 Torsion [CG]-CD--NE-[CZ] |==|  0.18892
USER: genes 11 Torsion [C]-CA--N-[C] |==|  0.67223
USER: genes 12 Torsion [N]-C--CA-[N] |==|  0.76747
USER: genes 13 Torsion [C]-CA--N-[C] |==|  0.71454
USER: genes 14 Torsion [N]-C--CA-[N] |==|  0.90268
USER: genes 15 Torsion [C]-CA--N-[H1] |==|  0.65909
USER: genes 16 Torsion [C]-CA--CB-[CG2] |==|  0.10831
USER: genes 17 Torsion [CA]-CB--CG1-[CD1] |==|  0.16326
ROOT
ATOM      1  CA  ARG B   3       7.503  23.211  -9.740  0.50 56.69 LIG 0.18  C 
ENDROOT
BRANCH 1 2
ATOM      2  C   ARG B   3       7.929  24.310 -10.682  0.50 56.65 LIG 0.24  C 
ATOM      3 O    ARG B   3       7.964  24.163 -11.903  0.50 56.65 LIG-0.27  OA
ATOM      4  N   SER B   4       8.190  25.446 -10.050  0.50 56.58 LIG-0.34  N 
ATOM      5 H    SER B   4       7.940  25.601  -9.242  0.50 56.58 LIG 0.16  HD
BRANCH 4 6
ATOM      6  CA  SER B   4       8.918  26.543 -10.646  0.50 56.54 LIG 0.19  C 
BRANCH 6 7
ATOM      7  C   SER B   4      10.299  26.017 -11.008  0.50 56.54 LIG 0.22  C 
ATOM      8 O    SER B   4      10.520  25.520 -12.115  0.50 56.51 LIG-0.29  OA
ENDBRANCH 6 7
BRANCH 6 9
ATOM      9  CB  SER B   4       9.020  27.714  -9.669  0.50 56.54 LIG 0.20  C 
BRANCH 9 10
ATOM     10 OG   SER B   4       9.951  28.682 -10.122  0.50 56.48 LIG-0.40  OA
ATOM     11 HG   SER B   4       9.692  29.448  -9.893  0.50 56.48 LIG 0.21  HD
ENDBRANCH 9 10
ENDBRANCH 6 9
ENDBRANCH 4 6
ENDBRANCH 1 2
BRANCH 1 12
ATOM     12  CB  ARG B   3       6.333  22.487 -10.406  0.50 56.69 LIG 0.04  C 
BRANCH 12 13
ATOM     13  CG  ARG B   3       5.133  23.333 -10.785  0.50 56.67 LIG 0.02  C 
BRANCH 13 14
ATOM     14  CD  ARG B   3       3.900  23.039  -9.933  0.50 56.64 LIG 0.14  C 
BRANCH 14 15
ATOM     15  NE  ARG B   3       3.062  24.227  -9.735  0.50 56.60 LIG-0.23  N 
ATOM     16  CZ  ARG B   3       2.361  24.844 -10.684  0.50 56.66 LIG 0.67  C 
ATOM     17  NH2 ARG B   3       1.641  25.916 -10.370  0.50 56.73 LIG-0.23  N 
ATOM     18  NH1 ARG B   3       2.364  24.403 -11.939  0.50 56.69 LIG-0.23  N 
ATOM     19 22HH ARG B   3       1.185  26.321 -10.977  0.50 56.73 LIG 0.17  HD
ATOM     20 21HH ARG B   3       1.631  26.206  -9.560  0.50 56.73 LIG 0.17  HD
ATOM     21 12HH ARG B   3       1.906  24.814 -12.540  0.50 56.69 LIG 0.17  HD
ATOM     22 11HH ARG B   3       2.826  23.709 -12.149  0.50 56.69 LIG 0.17  HD
ATOM     23 HE   ARG B   3       3.021  24.553  -8.940  0.50 56.60 LIG 0.18  HD
ENDBRANCH 14 15
ENDBRANCH 13 14
ENDBRANCH 12 13
ENDBRANCH 1 12
BRANCH 1 24
ATOM     24  N   ARG B   3       7.112  23.591  -8.389  0.50 56.75 LIG-0.35  N 
ATOM     25  C   ILE B   2       7.793  23.143  -7.343  0.50 56.81 LIG 0.24  C 
ATOM     26 O    ILE B   2       8.893  22.620  -7.458  0.50 56.81 LIG-0.27  OA
ATOM     27 H    ARG B   3       6.427  24.110  -8.341  0.50 56.75 LIG 0.16  HD
BRANCH 25 28
ATOM     28  CA  ILE B   2       7.141  23.302  -5.971  0.50 56.86 LIG 0.18  C 
BRANCH 28 29
ATOM     29  N   ILE B   2       7.414  24.646  -5.474  0.50 56.91 LIG-0.35  N 
ATOM     30 H    ILE B   2       6.929  25.258  -5.833  0.50 56.91 LIG 0.16  HD
ATOM     31  C   ALA B   1       8.335  24.888  -4.548  0.50 56.95 LIG 0.25  C 
ATOM     32 O    ALA B   1       9.038  24.006  -4.051  0.50 56.96 LIG-0.27  OA
BRANCH 31 33
ATOM     33  CA  ALA B   1       8.492  26.346  -4.124  0.50 56.96 LIG 0.27  C 
ATOM     34  CB  ALA B   1       7.520  26.678  -3.002  0.50 56.98 LIG 0.05  C 
BRANCH 33 35
ATOM     35  N   ALA B   1       8.270  27.257  -5.281  0.50 56.97 LIG-0.07  N 
ATOM     36 H1   ALA B   1       8.989  27.769  -5.399  0.50 56.97 LIG 0.28  HD
ATOM     37 H3   ALA B   1       7.563  27.773  -5.121  0.50 56.97 LIG 0.28  HD
ATOM     38 H2   ALA B   1       8.125  26.775  -6.016  0.50 56.97 LIG 0.28  HD
ENDBRANCH 33 35
ENDBRANCH 31 33
ENDBRANCH 28 29
BRANCH 28 39
ATOM     39  CB  ILE B   2       5.612  23.077  -6.043  0.50 56.87 LIG 0.01  C 
ATOM     40  CG2 ILE B   2       5.249  21.933  -7.000  1.00 56.86 LIG 0.01  C 
BRANCH 39 41
ATOM     41  CG1 ILE B   2       5.035  22.851  -4.633  1.00 56.91 LIG 0.00  C 
ATOM     42  CD1 ILE B   2       5.270  23.991  -3.641  0.50 56.92 LIG 0.01  C 
ENDBRANCH 39 41
ENDBRANCH 28 39
ENDBRANCH 25 28
ENDBRANCH 1 24
TORSDOF 16
ENDMDL
MODEL 24
USER: ADFR SOLUTION from run 140
USER: SCORE 14.335353 LL:  -2.304 LR: -12.252 RR:   0.000 FEB:  -7.479
USER: RMSD 11.267051
USER: SEED 139
USER: STATUS no improvement in best 2 clusters for 5 generations
USER: GENES 18
USER: genes 0 Translation |==|  0.62518 0.70951 0.49532
USER: genes 1 Rotation |==|  0.08477 0.70693 0.40948 0.66300
USER: genes 2 Torsion [N]-CA--C-[N] |==|  0.38784
USER: genes 3 Torsion [C]-N--CA-[C] |==|  0.73610
USER: genes 4 Torsion [N]-CA--C-[O] |==|  0.25597
USER: genes 5 Torsion [N]-CA--CB-[OG] |==|  0.36970
USER: genes 6 Torsion [CA]-CB--OG-[HG] |==|  0.29298
USER: genes 7 Torsion [C]-CA--CB-[CG] |==|  0.99885
USER: genes 8 Torsion [CA]-CB--CG-[CD] |==|  0.39414
USER: genes 9 Torsion [CB]-CG--CD-[NE] |==|  0.67301
USER: genes 10 Torsion [CG]-CD--NE-[CZ] |==|  0.46324
USER: genes 11 Torsion [C]-CA--N-[C] |==|  0.71073
USER: genes 12 Torsion [N]-C--CA-[N] |==|  0.13167
USER: genes 13 Torsion [C]-CA--N-[C] |==|  0.13649
USER: genes 14 Torsion [N]-C--CA-[N] |==|  0.44305
USER: genes 15 Torsion [C]-CA--N-[H1] |==|  0.47592
USER: genes 16 Torsion [C]-CA--CB-[CG2] |==|  0.25929
USER: genes 17 Torsion [CA]-CB--CG1-[CD1] |==|  0.29313
ROOT
ATOM      1  CA  ARG B   3       7.525  24.305  -7.510  0.50 56.69 LIG 0.18  C 
ENDROOT
BRANCH 1 2
ATOM      2  C   ARG B   3       7.789  23.409  -8.694  0.50 56.65 LIG 0.24  C 
ATOM      3 O    ARG B   3       8.662  22.540  -8.690  0.50 56.65 LIG-0.27  OA
ATOM      4  N   SER B   4       6.941  23.621  -9.691  0.50 56.58 LIG-0.34  N 
ATOM      5 H    SER B   4       6.205  24.055  -9.595  0.50 56.58 LIG 0.16  HD
BRANCH 4 6
ATOM      6  CA  SER B   4       7.159  23.150 -11.039  0.50 56.54 LIG 0.19  C 
BRANCH 6 7
ATOM      7  C   SER B   4       7.803  24.292 -11.812  0.50 56.54 LIG 0.22  C 
ATOM      8 O    SER B   4       9.030  24.394 -11.890  0.50 56.51 LIG-0.29  OA
ENDBRANCH 6 7
BRANCH 6 9
ATOM      9  CB  SER B   4       5.836  22.735 -11.684  0.50 56.54 LIG 0.20  C 
BRANCH 9 10
ATOM     10 OG   SER B   4       5.709  23.270 -12.990  0.50 56.48 LIG-0.40  OA
ATOM     11 HG   SER B   4       5.831  22.661 -13.555  0.50 56.48 LIG 0.21  HD
ENDBRANCH 9 10
ENDBRANCH 6 9
ENDBRANCH 4 6
ENDBRANCH 1 2
BRANCH 1 12
ATOM     12  CB  ARG B   3       8.498  25.479  -7.619  0.50 56.69 LIG 0.04  C 
BRANCH 12 13
ATOM     13  CG  ARG B   3       9.447  25.471  -8.802  0.50 56.67 LIG 0.02  C 
BRANCH 13 14
ATOM     14  CD  ARG B   3       9.679  26.860  -9.393  0.50 56.64 LIG 0.14  C 
BRANCH 14 15
ATOM     15  NE  ARG B   3       9.224  26.959 -10.784  0.50 56.60 LIG-0.23  N 
ATOM     16  CZ  ARG B   3       9.067  28.091 -11.467  0.50 56.66 LIG 0.67  C 
ATOM     17  NH2 ARG B   3       8.644  28.039 -12.726  0.50 56.73 LIG-0.23  N 
ATOM     18  NH1 ARG B   3       9.332  29.270 -10.914  0.50 56.69 LIG-0.23  N 
ATOM     19 22HH ARG B   3       8.540  28.766 -13.175  0.50 56.73 LIG 0.17  HD
ATOM     20 21HH ARG B   3       8.474  27.280 -13.092  0.50 56.73 LIG 0.17  HD
ATOM     21 12HH ARG B   3       9.225  29.992 -11.368  0.50 56.69 LIG 0.17  HD
ATOM     22 11HH ARG B   3       9.608  29.311 -10.100  0.50 56.69 LIG 0.17  HD
ATOM     23 HE   ARG B   3       9.042  26.223 -11.192  0.50 56.60 LIG 0.18  HD
ENDBRANCH 14 15
ENDBRANCH 13 14
ENDBRANCH 12 13
ENDBRANCH 1 12
BRANCH 1 24
ATOM     24  N   ARG B   3       7.640  23.722  -6.181  0.50 56.75 LIG-0.35  N 
ATOM     25  C   ILE B   2       6.552  23.422  -5.484  0.50 56.81 LIG 0.24  C 
ATOM     26 O    ILE B   2       5.442  23.379  -5.997  0.50 56.81 LIG-0.27  OA
ATOM     27 H    ARG B   3       8.446  23.598  -5.906  0.50 56.75 LIG 0.16  HD
BRANCH 25 28
ATOM     28  CA  ILE B   2       6.739  23.134  -3.995  0.50 56.86 LIG 0.18  C 
BRANCH 28 29
ATOM     29  N   ILE B   2       7.577  24.178  -3.417  0.50 56.91 LIG-0.35  N 
ATOM     30 H    ILE B   2       8.229  23.881  -2.941  0.50 56.91 LIG 0.16  HD
ATOM     31  C   ALA B   1       7.342  25.470  -3.616  0.50 56.95 LIG 0.25  C 
ATOM     32 O    ALA B   1       6.396  25.886  -4.286  0.50 56.96 LIG-0.27  OA
BRANCH 31 33
ATOM     33  CA  ALA B   1       8.318  26.439  -2.954  0.50 56.96 LIG 0.27  C 
ATOM     34  CB  ALA B   1       8.001  26.582  -1.473  0.50 56.98 LIG 0.05  C 
BRANCH 33 35
ATOM     35  N   ALA B   1       8.270  27.771  -3.620  0.50 56.97 LIG-0.07  N 
ATOM     36 H1   ALA B   1       8.747  28.356  -3.148  0.50 56.97 LIG 0.28  HD
ATOM     37 H3   ALA B   1       7.426  28.047  -3.669  0.50 56.97 LIG 0.28  HD
ATOM     38 H2   ALA B   1       8.609  27.705  -4.440  0.50 56.97 LIG 0.28  HD
ENDBRANCH 33 35
ENDBRANCH 31 33
ENDBRANCH 28 29
BRANCH 28 39
ATOM     39  CB  ILE B   2       5.381  23.088  -3.254  0.50 56.87 LIG 0.01  C 
ATOM     40  CG2 ILE B   2       4.828  21.659  -3.169  1.00 56.86 LIG 0.01  C 
BRANCH 39 41
ATOM     41  CG1 ILE B   2       5.506  23.740  -1.865  1.00 56.91 LIG 0.00  C 
ATOM     42  CD1 ILE B   2       4.874  25.127  -1.735  0.50 56.92 LIG 0.01  C 
ENDBRANCH 39 41
ENDBRANCH 28 39
ENDBRANCH 25 28
ENDBRANCH 1 24
TORSDOF 16
ENDMDL
MODEL 25
USER: ADFR SOLUTION from run 131
USER: SCORE 14.346374 LL:  -2.349 LR: -12.209 RR:   0.000 FEB:  -7.436
USER: RMSD 12.303324
USER: SEED 130
USER: STATUS no improvement in best 10 clusters for 5 generations
USER: GENES 18
USER: genes 0 Translation |==|  0.70631 0.81507 0.41954
USER: genes 1 Rotation |==|  0.32389 0.94973 0.49638 0.62930
USER: genes 2 Torsion [N]-CA--C-[N] |==|  0.42278
USER: genes 3 Torsion [C]-N--CA-[C] |==|  0.84442
USER: genes 4 Torsion [N]-CA--C-[O] |==|  0.23507
USER: genes 5 Torsion [N]-CA--CB-[OG] |==|  0.12718
USER: genes 6 Torsion [CA]-CB--OG-[HG] |==|  0.83065
USER: genes 7 Torsion [C]-CA--CB-[CG] |==|  0.42932
USER: genes 8 Torsion [CA]-CB--CG-[CD] |==|  0.24321
USER: genes 9 Torsion [CB]-CG--CD-[NE] |==|  0.74752
USER: genes 10 Torsion [CG]-CD--NE-[CZ] |==|  0.77084
USER: genes 11 Torsion [C]-CA--N-[C] |==|  0.74444
USER: genes 12 Torsion [N]-C--CA-[N] |==|  0.44847
USER: genes 13 Torsion [C]-CA--N-[C] |==|  0.64524
USER: genes 14 Torsion [N]-C--CA-[N] |==|  0.83178
USER: genes 15 Torsion [C]-CA--N-[H1] |==|  0.61609
USER: genes 16 Torsion [C]-CA--CB-[CG2] |==|  0.16454
USER: genes 17 Torsion [CA]-CB--CG1-[CD1] |==|  0.29159
ROOT
ATOM      1  CA  ARG B   3       9.959  27.472  -9.784  0.50 56.69 LIG 0.18  C 
ENDROOT
BRANCH 1 2
ATOM      2  C   ARG B   3       9.074  27.848 -10.946  0.50 56.65 LIG 0.24  C 
ATOM      3 O    ARG B   3       8.295  27.054 -11.474  0.50 56.65 LIG-0.27  OA
ATOM      4  N   SER B   4       9.187  29.127 -11.277  0.50 56.58 LIG-0.34  N 
ATOM      5 H    SER B   4       9.549  29.713 -10.762  0.50 56.58 LIG 0.16  HD
BRANCH 4 6
ATOM      6  CA  SER B   4       8.719  29.673 -12.530  0.50 56.54 LIG 0.19  C 
BRANCH 6 7
ATOM      7  C   SER B   4       9.390  28.879 -13.641  0.50 56.54 LIG 0.22  C 
ATOM      8 O    SER B   4       8.917  27.811 -14.034  0.50 56.51 LIG-0.29  OA
ENDBRANCH 6 7
BRANCH 6 9
ATOM      9  CB  SER B   4       9.069  31.158 -12.634  0.50 56.54 LIG 0.20  C 
BRANCH 9 10
ATOM     10 OG   SER B   4      10.410  31.399 -12.245  0.50 56.48 LIG-0.40  OA
ATOM     11 HG   SER B   4      10.516  31.166 -11.446  0.50 56.48 LIG 0.21  HD
ENDBRANCH 9 10
ENDBRANCH 6 9
ENDBRANCH 4 6
ENDBRANCH 1 2
BRANCH 1 12
ATOM     12  CB  ARG B   3      11.334  27.142 -10.363  0.50 56.69 LIG 0.04  C 
BRANCH 12 13
ATOM     13  CG  ARG B   3      12.524  27.313  -9.438  0.50 56.67 LIG 0.02  C 
BRANCH 13 14
ATOM     14  CD  ARG B   3      12.816  26.068  -8.603  0.50 56.64 LIG 0.14  C 
BRANCH 14 15
ATOM     15  NE  ARG B   3      12.114  26.082  -7.314  0.50 56.60 LIG-0.23  N 
ATOM     16  CZ  ARG B   3      12.527  26.714  -6.218  0.50 56.66 LIG 0.67  C 
ATOM     17  NH2 ARG B   3      11.794  26.644  -5.111  0.50 56.73 LIG-0.23  N 
ATOM     18  NH1 ARG B   3      13.655  27.417  -6.212  0.50 56.69 LIG-0.23  N 
ATOM     19 22HH ARG B   3      12.053  27.050  -4.397  0.50 56.73 LIG 0.17  HD
ATOM     20 21HH ARG B   3      11.062  26.194  -5.107  0.50 56.73 LIG 0.17  HD
ATOM     21 12HH ARG B   3      13.908  27.819  -5.495  0.50 56.69 LIG 0.17  HD
ATOM     22 11HH ARG B   3      14.133  27.469  -6.925  0.50 56.69 LIG 0.17  HD
ATOM     23 HE   ARG B   3      11.375  25.645  -7.263  0.50 56.60 LIG 0.18  HD
ENDBRANCH 14 15
ENDBRANCH 13 14
ENDBRANCH 12 13
ENDBRANCH 1 12
BRANCH 1 24
ATOM     24  N   ARG B   3       9.530  26.368  -8.936  0.50 56.75 LIG-0.35  N 
ATOM     25  C   ILE B   2       8.798  26.599  -7.854  0.50 56.81 LIG 0.24  C 
ATOM     26 O    ILE B   2       8.249  27.674  -7.657  0.50 56.81 LIG-0.27  OA
ATOM     27 H    ARG B   3       9.787  25.589  -9.195  0.50 56.75 LIG 0.16  HD
BRANCH 25 28
ATOM     28  CA  ILE B   2       8.670  25.458  -6.847  0.50 56.86 LIG 0.18  C 
BRANCH 28 29
ATOM     29  N   ILE B   2       8.233  26.007  -5.568  0.50 56.91 LIG-0.35  N 
ATOM     30 H    ILE B   2       7.529  26.499  -5.620  0.50 56.91 LIG 0.16  HD
ATOM     31  C   ALA B   1       8.876  25.762  -4.432  0.50 56.95 LIG 0.25  C 
ATOM     32 O    ALA B   1       9.893  25.070  -4.370  0.50 56.96 LIG-0.27  OA
BRANCH 31 33
ATOM     33  CA  ALA B   1       8.285  26.399  -3.176  0.50 56.96 LIG 0.27  C 
ATOM     34  CB  ALA B   1       6.876  25.880  -2.932  0.50 56.98 LIG 0.05  C 
BRANCH 33 35
ATOM     35  N   ALA B   1       8.270  27.884  -3.298  0.50 56.97 LIG-0.07  N 
ATOM     36 H1   ALA B   1       8.521  28.248  -2.525  0.50 56.97 LIG 0.28  HD
ATOM     37 H3   ALA B   1       7.448  28.157  -3.501  0.50 56.97 LIG 0.28  HD
ATOM     38 H2   ALA B   1       8.833  28.136  -3.940  0.50 56.97 LIG 0.28  HD
ENDBRANCH 33 35
ENDBRANCH 31 33
ENDBRANCH 28 29
BRANCH 28 39
ATOM     39  CB  ILE B   2       7.656  24.392  -7.326  0.50 56.87 LIG 0.01  C 
ATOM     40  CG2 ILE B   2       8.064  23.785  -8.676  1.00 56.86 LIG 0.01  C 
BRANCH 39 41
ATOM     41  CG1 ILE B   2       7.461  23.311  -6.247  1.00 56.91 LIG 0.00  C 
ATOM     42  CD1 ILE B   2       6.146  23.395  -5.470  0.50 56.92 LIG 0.01  C 
ENDBRANCH 39 41
ENDBRANCH 28 39
ENDBRANCH 25 28
ENDBRANCH 1 24
TORSDOF 16
ENDMDL
MODEL 26
USER: ADFR SOLUTION from run 32
USER: SCORE 14.180590 LL:  -2.319 LR: -12.190 RR:   0.000 FEB:  -7.417
USER: RMSD 10.832686
USER: SEED 31
USER: STATUS no improvement in best 12 clusters for 5 generations
USER: GENES 18
USER: genes 0 Translation |==|  0.63497 0.70232 0.46987
USER: genes 1 Rotation |==|  0.11909 0.78019 0.37425 0.60291
USER: genes 2 Torsion [N]-CA--C-[N] |==|  0.38808
USER: genes 3 Torsion [C]-N--CA-[C] |==|  0.76558
USER: genes 4 Torsion [N]-CA--C-[O] |==|  0.36312
USER: genes 5 Torsion [N]-CA--CB-[OG] |==|  0.36730
USER: genes 6 Torsion [CA]-CB--OG-[HG] |==|  0.32643
USER: genes 7 Torsion [C]-CA--CB-[CG] |==|  0.56738
USER: genes 8 Torsion [CA]-CB--CG-[CD] |==|  0.31759
USER: genes 9 Torsion [CB]-CG--CD-[NE] |==|  0.35479
USER: genes 10 Torsion [CG]-CD--NE-[CZ] |==|  0.22523
USER: genes 11 Torsion [C]-CA--N-[C] |==|  0.78539
USER: genes 12 Torsion [N]-C--CA-[N] |==|  0.17783
USER: genes 13 Torsion [C]-CA--N-[C] |==|  0.77614
USER: genes 14 Torsion [N]-C--CA-[N] |==|  0.80855
USER: genes 15 Torsion [C]-CA--N-[H1] |==|  0.66259
USER: genes 16 Torsion [C]-CA--CB-[CG2] |==|  0.16155
USER: genes 17 Torsion [CA]-CB--CG1-[CD1] |==|  0.25777
ROOT
ATOM      1  CA  ARG B   3       7.819  24.090  -8.274  0.50 56.69 LIG 0.18  C 
ENDROOT
BRANCH 1 2
ATOM      2  C   ARG B   3       7.627  22.998  -9.297  0.50 56.65 LIG 0.24  C 
ATOM      3 O    ARG B   3       8.104  21.871  -9.165  0.50 56.65 LIG-0.27  OA
ATOM      4  N   SER B   4       6.843  23.373 -10.298  0.50 56.58 LIG-0.34  N 
ATOM      5 H    SER B   4       6.336  24.067 -10.261  0.50 56.58 LIG 0.16  HD
BRANCH 4 6
ATOM      6  CA  SER B   4       6.755  22.663 -11.553  0.50 56.54 LIG 0.19  C 
BRANCH 6 7
ATOM      7  C   SER B   4       7.896  23.161 -12.428  0.50 56.54 LIG 0.22  C 
ATOM      8 O    SER B   4       8.645  22.371 -13.007  0.50 56.51 LIG-0.29  OA
ENDBRANCH 6 7
BRANCH 6 9
ATOM      9  CB  SER B   4       5.404  22.919 -12.222  0.50 56.54 LIG 0.20  C 
BRANCH 9 10
ATOM     10 OG   SER B   4       5.562  23.257 -13.589  0.50 56.48 LIG-0.40  OA
ATOM     11 HG   SER B   4       5.188  22.677 -14.066  0.50 56.48 LIG 0.21  HD
ENDBRANCH 9 10
ENDBRANCH 6 9
ENDBRANCH 4 6
ENDBRANCH 1 2
BRANCH 1 12
ATOM     12  CB  ARG B   3       9.149  24.769  -8.597  0.50 56.69 LIG 0.04  C 
BRANCH 12 13
ATOM     13  CG  ARG B   3       9.847  25.481  -7.453  0.50 56.67 LIG 0.02  C 
BRANCH 13 14
ATOM     14  CD  ARG B   3      11.175  24.834  -7.066  0.50 56.64 LIG 0.14  C 
BRANCH 14 15
ATOM     15  NE  ARG B   3      12.279  25.800  -7.037  0.50 56.60 LIG-0.23  N 
ATOM     16  CZ  ARG B   3      12.551  26.632  -6.035  0.50 56.66 LIG 0.67  C 
ATOM     17  NH2 ARG B   3      13.585  27.461  -6.138  0.50 56.73 LIG-0.23  N 
ATOM     18  NH1 ARG B   3      11.810  26.645  -4.931  0.50 56.69 LIG-0.23  N 
ATOM     19 22HH ARG B   3      13.769  28.002  -5.495  0.50 56.73 LIG 0.17  HD
ATOM     20 21HH ARG B   3      14.071  27.457  -6.847  0.50 56.73 LIG 0.17  HD
ATOM     21 12HH ARG B   3      11.999  27.189  -4.292  0.50 56.69 LIG 0.17  HD
ATOM     22 11HH ARG B   3      11.142  26.110  -4.856  0.50 56.69 LIG 0.17  HD
ATOM     23 HE   ARG B   3      12.793  25.831  -7.727  0.50 56.60 LIG 0.18  HD
ENDBRANCH 14 15
ENDBRANCH 13 14
ENDBRANCH 12 13
ENDBRANCH 1 12
BRANCH 1 24
ATOM     24  N   ARG B   3       7.816  23.708  -6.868  0.50 56.75 LIG-0.35  N 
ATOM     25  C   ILE B   2       6.673  23.448  -6.247  0.50 56.81 LIG 0.24  C 
ATOM     26 O    ILE B   2       5.627  23.270  -6.855  0.50 56.81 LIG-0.27  OA
ATOM     27 H    ARG B   3       8.592  23.670  -6.500  0.50 56.75 LIG 0.16  HD
BRANCH 25 28
ATOM     28  CA  ILE B   2       6.712  23.385  -4.721  0.50 56.86 LIG 0.18  C 
BRANCH 28 29
ATOM     29  N   ILE B   2       7.071  24.702  -4.206  0.50 56.91 LIG-0.35  N 
ATOM     30 H    ILE B   2       6.401  25.167  -3.935  0.50 56.91 LIG 0.16  HD
ATOM     31  C   ALA B   1       8.328  25.130  -4.165  0.50 56.95 LIG 0.25  C 
ATOM     32 O    ALA B   1       9.280  24.463  -4.570  0.50 56.96 LIG-0.27  OA
BRANCH 31 33
ATOM     33  CA  ALA B   1       8.542  26.526  -3.585  0.50 56.96 LIG 0.27  C 
ATOM     34  CB  ALA B   1       7.896  26.634  -2.212  0.50 56.98 LIG 0.05  C 
BRANCH 33 35
ATOM     35  N   ALA B   1       7.984  27.565  -4.495  0.50 56.97 LIG-0.07  N 
ATOM     36 H1   ALA B   1       8.631  28.129  -4.734  0.50 56.97 LIG 0.28  HD
ATOM     37 H3   ALA B   1       7.341  28.014  -4.076  0.50 56.97 LIG 0.28  HD
ATOM     38 H2   ALA B   1       7.648  27.175  -5.221  0.50 56.97 LIG 0.28  HD
ENDBRANCH 33 35
ENDBRANCH 31 33
ENDBRANCH 28 29
BRANCH 28 39
ATOM     39  CB  ILE B   2       5.344  22.956  -4.138  0.50 56.87 LIG 0.01  C 
ATOM     40  CG2 ILE B   2       4.900  21.589  -4.676  1.00 56.86 LIG 0.01  C 
BRANCH 39 41
ATOM     41  CG1 ILE B   2       5.384  22.982  -2.599  1.00 56.91 LIG 0.00  C 
ATOM     42  CD1 ILE B   2       4.919  24.289  -1.956  0.50 56.92 LIG 0.01  C 
ENDBRANCH 39 41
ENDBRANCH 28 39
ENDBRANCH 25 28
ENDBRANCH 1 24
TORSDOF 16
ENDMDL
MODEL 27
USER: ADFR SOLUTION from run 158
USER: SCORE 13.939317 LL:  -2.663 LR: -12.105 RR:   0.000 FEB:  -7.332
USER: RMSD 8.076416
USER: SEED 157
USER: STATUS no improvement in best 13 clusters for 5 generations
USER: GENES 18
USER: genes 0 Translation |==|  0.57871 0.68270 0.55232
USER: genes 1 Rotation |==|  0.70714 0.39461 0.51021 0.94258
USER: genes 2 Torsion [N]-CA--C-[N] |==|  0.15914
USER: genes 3 Torsion [C]-N--CA-[C] |==|  0.82773
USER: genes 4 Torsion [N]-CA--C-[O] |==|  0.21051
USER: genes 5 Torsion [N]-CA--CB-[OG] |==|  0.02101
USER: genes 6 Torsion [CA]-CB--OG-[HG] |==|  0.66837
USER: genes 7 Torsion [C]-CA--CB-[CG] |==|  0.21316
USER: genes 8 Torsion [CA]-CB--CG-[CD] |==|  0.72121
USER: genes 9 Torsion [CB]-CG--CD-[NE] |==|  0.74861
USER: genes 10 Torsion [CG]-CD--NE-[CZ] |==|  0.32906
USER: genes 11 Torsion [C]-CA--N-[C] |==|  0.10318
USER: genes 12 Torsion [N]-C--CA-[N] |==|  0.16997
USER: genes 13 Torsion [C]-CA--N-[C] |==|  0.73889
USER: genes 14 Torsion [N]-C--CA-[N] |==|  0.83717
USER: genes 15 Torsion [C]-CA--N-[H1] |==|  0.42980
USER: genes 16 Torsion [C]-CA--CB-[CG2] |==|  0.15905
USER: genes 17 Torsion [CA]-CB--CG1-[CD1] |==|  0.59765
ROOT
ATOM      1  CA  ARG B   3       6.131  23.501  -5.800  0.50 56.69 LIG 0.18  C 
ENDROOT
BRANCH 1 2
ATOM      2  C   ARG B   3       6.440  23.599  -4.327  0.50 56.65 LIG 0.24  C 
ATOM      3 O    ARG B   3       6.325  22.645  -3.558  0.50 56.65 LIG-0.27  OA
ATOM      4  N   SER B   4       6.904  24.793  -3.984  0.50 56.58 LIG-0.34  N 
ATOM      5 H    SER B   4       7.197  25.363  -4.557  0.50 56.58 LIG 0.16  HD
BRANCH 4 6
ATOM      6  CA  SER B   4       6.968  25.263  -2.620  0.50 56.54 LIG 0.19  C 
BRANCH 6 7
ATOM      7  C   SER B   4       5.540  25.310  -2.097  0.50 56.54 LIG 0.22  C 
ATOM      8 O    SER B   4       4.945  24.277  -1.778  0.50 56.51 LIG-0.29  OA
ENDBRANCH 6 7
BRANCH 6 9
ATOM      9  CB  SER B   4       7.615  26.647  -2.558  0.50 56.54 LIG 0.20  C 
BRANCH 9 10
ATOM     10 OG   SER B   4       7.823  27.176  -3.856  0.50 56.48 LIG-0.40  OA
ATOM     11 HG   SER B   4       8.643  27.310  -3.976  0.50 56.48 LIG 0.21  HD
ENDBRANCH 9 10
ENDBRANCH 6 9
ENDBRANCH 4 6
ENDBRANCH 1 2
BRANCH 1 12
ATOM     12  CB  ARG B   3       5.613  22.085  -6.051  0.50 56.69 LIG 0.04  C 
BRANCH 12 13
ATOM     13  CG  ARG B   3       4.185  21.797  -5.630  0.50 56.67 LIG 0.02  C 
BRANCH 13 14
ATOM     14  CD  ARG B   3       4.091  21.061  -4.295  0.50 56.64 LIG 0.14  C 
BRANCH 14 15
ATOM     15  NE  ARG B   3       4.093  19.603  -4.460  0.50 56.60 LIG-0.23  N 
ATOM     16  CZ  ARG B   3       5.010  18.772  -3.971  0.50 56.66 LIG 0.67  C 
ATOM     17  NH2 ARG B   3       4.894  17.467  -4.196  0.50 56.73 LIG-0.23  N 
ATOM     18  NH1 ARG B   3       6.038  19.223  -3.258  0.50 56.69 LIG-0.23  N 
ATOM     19 22HH ARG B   3       5.482  16.922  -3.884  0.50 56.73 LIG 0.17  HD
ATOM     20 21HH ARG B   3       4.231  17.167  -4.653  0.50 56.73 LIG 0.17  HD
ATOM     21 12HH ARG B   3       6.623  18.673  -2.950  0.50 56.69 LIG 0.17  HD
ATOM     22 11HH ARG B   3       6.118  20.066  -3.107  0.50 56.69 LIG 0.17  HD
ATOM     23 HE   ARG B   3       3.447  19.257  -4.911  0.50 56.60 LIG 0.18  HD
ENDBRANCH 14 15
ENDBRANCH 13 14
ENDBRANCH 12 13
ENDBRANCH 1 12
BRANCH 1 24
ATOM     24  N   ARG B   3       7.211  23.779  -6.738  0.50 56.75 LIG-0.35  N 
ATOM     25  C   ILE B   2       8.452  23.396  -6.464  0.50 56.81 LIG 0.24  C 
ATOM     26 O    ILE B   2       8.705  22.598  -5.572  0.50 56.81 LIG-0.27  OA
ATOM     27 H    ARG B   3       6.975  24.195  -7.452  0.50 56.75 LIG 0.16  HD
BRANCH 25 28
ATOM     28  CA  ILE B   2       9.568  24.003  -7.312  0.50 56.86 LIG 0.18  C 
BRANCH 28 29
ATOM     29  N   ILE B   2       9.566  25.450  -7.125  0.50 56.91 LIG-0.35  N 
ATOM     30 H    ILE B   2      10.020  25.716  -6.445  0.50 56.91 LIG 0.16  HD
ATOM     31  C   ALA B   1       8.914  26.271  -7.940  0.50 56.95 LIG 0.25  C 
ATOM     32 O    ALA B   1       8.252  25.879  -8.902  0.50 56.96 LIG-0.27  OA
BRANCH 31 33
ATOM     33  CA  ALA B   1       9.021  27.760  -7.618  0.50 56.96 LIG 0.27  C 
ATOM     34  CB  ALA B   1      10.462  28.228  -7.748  0.50 56.98 LIG 0.05  C 
BRANCH 33 35
ATOM     35  N   ALA B   1       8.513  28.038  -6.245  0.50 56.97 LIG-0.07  N 
ATOM     36 H1   ALA B   1       8.895  28.779  -5.932  0.50 56.97 LIG 0.28  HD
ATOM     37 H3   ALA B   1       8.711  27.354  -5.711  0.50 56.97 LIG 0.28  HD
ATOM     38 H2   ALA B   1       7.630  28.148  -6.271  0.50 56.97 LIG 0.28  HD
ENDBRANCH 33 35
ENDBRANCH 31 33
ENDBRANCH 28 29
BRANCH 28 39
ATOM     39  CB  ILE B   2      10.951  23.432  -6.918  0.50 56.87 LIG 0.01  C 
ATOM     40  CG2 ILE B   2      10.990  21.902  -7.042  1.00 56.86 LIG 0.01  C 
BRANCH 39 41
ATOM     41  CG1 ILE B   2      12.064  24.103  -7.743  1.00 56.91 LIG 0.00  C 
ATOM     42  CD1 ILE B   2      13.236  23.195  -8.119  0.50 56.92 LIG 0.01  C 
ENDBRANCH 39 41
ENDBRANCH 28 39
ENDBRANCH 25 28
ENDBRANCH 1 24
TORSDOF 16
ENDMDL
MODEL 28
USER: ADFR SOLUTION from run 46
USER: SCORE 14.096444 LL:  -2.351 LR: -12.091 RR:   0.000 FEB:  -7.318
USER: RMSD 8.339153
USER: SEED 45
USER: STATUS no improvement in best 8 clusters for 5 generations
USER: GENES 18
USER: genes 0 Translation |==|  0.57594 0.66504 0.62617
USER: genes 1 Rotation |==|  0.73556 0.42654 0.06914 0.55890
USER: genes 2 Torsion [N]-CA--C-[N] |==|  0.02383
USER: genes 3 Torsion [C]-N--CA-[C] |==|  0.21593
USER: genes 4 Torsion [N]-CA--C-[O] |==|  0.05580
USER: genes 5 Torsion [N]-CA--CB-[OG] |==|  0.88905
USER: genes 6 Torsion [CA]-CB--OG-[HG] |==|  0.70137
USER: genes 7 Torsion [C]-CA--CB-[CG] |==|  0.30187
USER: genes 8 Torsion [CA]-CB--CG-[CD] |==|  0.22632
USER: genes 9 Torsion [CB]-CG--CD-[NE] |==|  0.09677
USER: genes 10 Torsion [CG]-CD--NE-[CZ] |==|  0.54834
USER: genes 11 Torsion [C]-CA--N-[C] |==|  0.70556
USER: genes 12 Torsion [N]-C--CA-[N] |==|  0.87634
USER: genes 13 Torsion [C]-CA--N-[C] |==|  0.72222
USER: genes 14 Torsion [N]-C--CA-[N] |==|  0.93426
USER: genes 15 Torsion [C]-CA--N-[H1] |==|  0.07554
USER: genes 16 Torsion [C]-CA--CB-[CG2] |==|  0.25252
USER: genes 17 Torsion [CA]-CB--CG1-[CD1] |==|  0.55309
ROOT
ATOM      1  CA  ARG B   3       6.048  22.971  -3.585  0.50 56.69 LIG 0.18  C 
ENDROOT
BRANCH 1 2
ATOM      2  C   ARG B   3       5.119  21.785  -3.516  0.50 56.65 LIG 0.24  C 
ATOM      3 O    ARG B   3       4.403  21.557  -2.540  0.50 56.65 LIG-0.27  OA
ATOM      4  N   SER B   4       5.117  21.075  -4.635  0.50 56.58 LIG-0.34  N 
ATOM      5 H    SER B   4       5.434  21.372  -5.378  0.50 56.58 LIG 0.16  HD
BRANCH 4 6
ATOM      6  CA  SER B   4       4.587  19.735  -4.731  0.50 56.54 LIG 0.19  C 
BRANCH 6 7
ATOM      7  C   SER B   4       3.072  19.858  -4.795  0.50 56.54 LIG 0.22  C 
ATOM      8 O    SER B   4       2.534  20.917  -5.128  0.50 56.51 LIG-0.29  OA
ENDBRANCH 6 7
BRANCH 6 9
ATOM      9  CB  SER B   4       5.014  18.901  -3.523  0.50 56.54 LIG 0.20  C 
BRANCH 9 10
ATOM     10 OG   SER B   4       6.358  19.170  -3.161  0.50 56.48 LIG-0.40  OA
ATOM     11 HG   SER B   4       6.841  18.517  -3.373  0.50 56.48 LIG 0.21  HD
ENDBRANCH 9 10
ENDBRANCH 6 9
ENDBRANCH 4 6
ENDBRANCH 1 2
BRANCH 1 12
ATOM     12  CB  ARG B   3       5.255  24.184  -3.099  0.50 56.69 LIG 0.04  C 
BRANCH 12 13
ATOM     13  CG  ARG B   3       5.633  24.747  -1.742  0.50 56.67 LIG 0.02  C 
BRANCH 13 14
ATOM     14  CD  ARG B   3       6.850  25.668  -1.794  0.50 56.64 LIG 0.14  C 
BRANCH 14 15
ATOM     15  NE  ARG B   3       6.906  26.449  -3.035  0.50 56.60 LIG-0.23  N 
ATOM     16  CZ  ARG B   3       7.984  27.073  -3.507  0.50 56.66 LIG 0.67  C 
ATOM     17  NH2 ARG B   3       7.898  27.751  -4.647  0.50 56.73 LIG-0.23  N 
ATOM     18  NH1 ARG B   3       9.144  27.025  -2.860  0.50 56.69 LIG-0.23  N 
ATOM     19 22HH ARG B   3       8.589  28.157  -4.959  0.50 56.73 LIG 0.17  HD
ATOM     20 21HH ARG B   3       7.151  27.784  -5.072  0.50 56.73 LIG 0.17  HD
ATOM     21 12HH ARG B   3       9.831  27.434  -3.178  0.50 56.69 LIG 0.17  HD
ATOM     22 11HH ARG B   3       9.208  26.586  -2.123  0.50 56.69 LIG 0.17  HD
ATOM     23 HE   ARG B   3       6.182  26.510  -3.495  0.50 56.60 LIG 0.18  HD
ENDBRANCH 14 15
ENDBRANCH 13 14
ENDBRANCH 12 13
ENDBRANCH 1 12
BRANCH 1 24
ATOM     24  N   ARG B   3       6.646  23.287  -4.875  0.50 56.75 LIG-0.35  N 
ATOM     25  C   ILE B   2       7.926  23.022  -5.104  0.50 56.81 LIG 0.24  C 
ATOM     26 O    ILE B   2       8.581  22.295  -4.371  0.50 56.81 LIG-0.27  OA
ATOM     27 H    ARG B   3       6.112  23.646  -5.446  0.50 56.75 LIG 0.16  HD
BRANCH 25 28
ATOM     28  CA  ILE B   2       8.560  23.674  -6.332  0.50 56.86 LIG 0.18  C 
BRANCH 28 29
ATOM     29  N   ILE B   2       7.643  23.544  -7.458  0.50 56.91 LIG-0.35  N 
ATOM     30 H    ILE B   2       7.006  24.122  -7.460  0.50 56.91 LIG 0.16  HD
ATOM     31  C   ALA B   1       7.791  22.611  -8.391  0.50 56.95 LIG 0.25  C 
ATOM     32 O    ALA B   1       8.697  21.777  -8.371  0.50 56.96 LIG-0.27  OA
BRANCH 31 33
ATOM     33  CA  ALA B   1       6.756  22.615  -9.514  0.50 56.96 LIG 0.27  C 
ATOM     34  CB  ALA B   1       7.306  23.328 -10.739  0.50 56.98 LIG 0.05  C 
BRANCH 33 35
ATOM     35  N   ALA B   1       5.495  23.270  -9.064  0.50 56.97 LIG-0.07  N 
ATOM     36 H1   ALA B   1       5.679  23.861  -8.424  0.50 56.97 LIG 0.28  HD
ATOM     37 H3   ALA B   1       4.937  22.654  -8.747  0.50 56.97 LIG 0.28  HD
ATOM     38 H2   ALA B   1       5.115  23.688  -9.752  0.50 56.97 LIG 0.28  HD
ENDBRANCH 33 35
ENDBRANCH 31 33
ENDBRANCH 28 29
BRANCH 28 39
ATOM     39  CB  ILE B   2       8.867  25.170  -6.082  0.50 56.87 LIG 0.01  C 
ATOM     40  CG2 ILE B   2      10.283  25.375  -5.526  1.00 56.86 LIG 0.01  C 
BRANCH 39 41
ATOM     41  CG1 ILE B   2       8.630  25.988  -7.364  1.00 56.91 LIG 0.00  C 
ATOM     42  CD1 ILE B   2       9.311  27.357  -7.401  0.50 56.92 LIG 0.01  C 
ENDBRANCH 39 41
ENDBRANCH 28 39
ENDBRANCH 25 28
ENDBRANCH 1 24
TORSDOF 16
ENDMDL
MODEL 29
USER: ADFR SOLUTION from run 152
USER: SCORE 13.887472 LL:  -2.252 LR: -12.030 RR:   0.000 FEB:  -7.257
USER: RMSD 10.233041
USER: SEED 151
USER: STATUS no improvement in best 12 clusters for 5 generations
USER: GENES 18
USER: genes 0 Translation |==|  0.61721 0.67029 0.47469
USER: genes 1 Rotation |==|  0.82720 0.72707 0.19949 0.53282
USER: genes 2 Torsion [N]-CA--C-[N] |==|  0.88889
USER: genes 3 Torsion [C]-N--CA-[C] |==|  0.66977
USER: genes 4 Torsion [N]-CA--C-[O] |==|  0.18201
USER: genes 5 Torsion [N]-CA--CB-[OG] |==|  0.43605
USER: genes 6 Torsion [CA]-CB--OG-[HG] |==|  0.82282
USER: genes 7 Torsion [C]-CA--CB-[CG] |==|  0.02231
USER: genes 8 Torsion [CA]-CB--CG-[CD] |==|  0.58064
USER: genes 9 Torsion [CB]-CG--CD-[NE] |==|  0.16277
USER: genes 10 Torsion [CG]-CD--NE-[CZ] |==|  0.22929
USER: genes 11 Torsion [C]-CA--N-[C] |==|  0.66909
USER: genes 12 Torsion [N]-C--CA-[N] |==|  0.37830
USER: genes 13 Torsion [C]-CA--N-[C] |==|  0.82198
USER: genes 14 Torsion [N]-C--CA-[N] |==|  0.11076
USER: genes 15 Torsion [C]-CA--N-[H1] |==|  0.36550
USER: genes 16 Torsion [C]-CA--CB-[CG2] |==|  0.78936
USER: genes 17 Torsion [CA]-CB--CG1-[CD1] |==|  0.36481
ROOT
ATOM      1  CA  ARG B   3       7.286  23.129  -8.129  0.50 56.69 LIG 0.18  C 
ENDROOT
BRANCH 1 2
ATOM      2  C   ARG B   3       7.416  22.532  -9.509  0.50 56.65 LIG 0.24  C 
ATOM      3 O    ARG B   3       7.876  21.407  -9.707  0.50 56.65 LIG-0.27  OA
ATOM      4  N   SER B   4       6.922  23.322 -10.452  0.50 56.58 LIG-0.34  N 
ATOM      5 H    SER B   4       6.401  23.985 -10.282  0.50 56.58 LIG 0.16  HD
BRANCH 4 6
ATOM      6  CA  SER B   4       7.202  23.158 -11.860  0.50 56.54 LIG 0.19  C 
BRANCH 6 7
ATOM      7  C   SER B   4       7.895  24.428 -12.328  0.50 56.54 LIG 0.22  C 
ATOM      8 O    SER B   4       9.011  24.737 -11.903  0.50 56.51 LIG-0.29  OA
ENDBRANCH 6 7
BRANCH 6 9
ATOM      9  CB  SER B   4       5.908  22.924 -12.641  0.50 56.54 LIG 0.20  C 
BRANCH 9 10
ATOM     10 OG   SER B   4       6.060  23.276 -14.005  0.50 56.48 LIG-0.40  OA
ATOM     11 HG   SER B   4       6.213  24.099 -14.067  0.50 56.48 LIG 0.21  HD
ENDBRANCH 9 10
ENDBRANCH 6 9
ENDBRANCH 4 6
ENDBRANCH 1 2
BRANCH 1 12
ATOM     12  CB  ARG B   3       5.868  22.825  -7.647  0.50 56.69 LIG 0.04  C 
BRANCH 12 13
ATOM     13  CG  ARG B   3       5.039  21.892  -8.510  0.50 56.67 LIG 0.02  C 
BRANCH 13 14
ATOM     14  CD  ARG B   3       3.540  22.166  -8.417  0.50 56.64 LIG 0.14  C 
BRANCH 14 15
ATOM     15  NE  ARG B   3       3.197  23.537  -8.812  0.50 56.60 LIG-0.23  N 
ATOM     16  CZ  ARG B   3       3.031  23.962 -10.063  0.50 56.66 LIG 0.67  C 
ATOM     17  NH2 ARG B   3       2.723  25.236 -10.283  0.50 56.73 LIG-0.23  N 
ATOM     18  NH1 ARG B   3       3.164  23.134 -11.094  0.50 56.69 LIG-0.23  N 
ATOM     19 22HH ARG B   3       2.614  25.520 -11.088  0.50 56.73 LIG 0.17  HD
ATOM     20 21HH ARG B   3       2.632  25.778  -9.621  0.50 56.73 LIG 0.17  HD
ATOM     21 12HH ARG B   3       3.054  23.424 -11.896  0.50 56.69 LIG 0.17  HD
ATOM     22 11HH ARG B   3       3.361  22.308 -10.959  0.50 56.69 LIG 0.17  HD
ATOM     23 HE   ARG B   3       3.096  24.115  -8.182  0.50 56.60 LIG 0.18  HD
ENDBRANCH 14 15
ENDBRANCH 13 14
ENDBRANCH 12 13
ENDBRANCH 1 12
BRANCH 1 24
ATOM     24  N   ARG B   3       7.536  24.556  -7.984  0.50 56.75 LIG-0.35  N 
ATOM     25  C   ILE B   2       8.515  24.989  -7.199  0.50 56.81 LIG 0.24  C 
ATOM     26 O    ILE B   2       9.387  24.244  -6.776  0.50 56.81 LIG-0.27  OA
ATOM     27 H    ARG B   3       7.011  25.066  -8.436  0.50 56.75 LIG 0.16  HD
BRANCH 25 28
ATOM     28  CA  ILE B   2       8.507  26.472  -6.835  0.50 56.86 LIG 0.18  C 
BRANCH 28 29
ATOM     29  N   ILE B   2       8.799  26.607  -5.412  0.50 56.91 LIG-0.35  N 
ATOM     30 H    ILE B   2       9.534  27.020  -5.243  0.50 56.91 LIG 0.16  HD
ATOM     31  C   ALA B   1       7.991  26.130  -4.472  0.50 56.95 LIG 0.25  C 
ATOM     32 O    ALA B   1       6.948  25.525  -4.724  0.50 56.96 LIG-0.27  OA
BRANCH 31 33
ATOM     33  CA  ALA B   1       8.431  26.364  -3.028  0.50 56.96 LIG 0.27  C 
ATOM     34  CB  ALA B   1       7.255  26.182  -2.081  0.50 56.98 LIG 0.05  C 
BRANCH 33 35
ATOM     35  N   ALA B   1       9.010  27.728  -2.870  0.50 56.97 LIG-0.07  N 
ATOM     36 H1   ALA B   1       8.645  28.125  -2.162  0.50 56.97 LIG 0.28  HD
ATOM     37 H3   ALA B   1       8.840  28.208  -3.599  0.50 56.97 LIG 0.28  HD
ATOM     38 H2   ALA B   1       9.890  27.665  -2.755  0.50 56.97 LIG 0.28  HD
ENDBRANCH 33 35
ENDBRANCH 31 33
ENDBRANCH 28 29
BRANCH 28 39
ATOM     39  CB  ILE B   2       9.554  27.262  -7.656  0.50 56.87 LIG 0.01  C 
ATOM     40  CG2 ILE B   2      10.979  27.022  -7.141  1.00 56.86 LIG 0.01  C 
BRANCH 39 41
ATOM     41  CG1 ILE B   2       9.421  26.931  -9.154  1.00 56.91 LIG 0.00  C 
ATOM     42  CD1 ILE B   2       9.378  28.141 -10.089  0.50 56.92 LIG 0.01  C 
ENDBRANCH 39 41
ENDBRANCH 28 39
ENDBRANCH 25 28
ENDBRANCH 1 24
TORSDOF 16
ENDMDL
MODEL 30
USER: ADFR SOLUTION from run 152
USER: SCORE 14.003592 LL:  -2.361 LR: -12.013 RR:   0.000 FEB:  -7.240
USER: RMSD 9.894065
USER: SEED 151
USER: STATUS no improvement in best 12 clusters for 5 generations
USER: GENES 18
USER: genes 0 Translation |==|  0.62318 0.66397 0.47807
USER: genes 1 Rotation |==|  0.78917 0.76333 0.19186 0.54566
USER: genes 2 Torsion [N]-CA--C-[N] |==|  0.91145
USER: genes 3 Torsion [C]-N--CA-[C] |==|  0.67871
USER: genes 4 Torsion [N]-CA--C-[O] |==|  0.18848
USER: genes 5 Torsion [N]-CA--CB-[OG] |==|  0.45352
USER: genes 6 Torsion [CA]-CB--OG-[HG] |==|  0.79934
USER: genes 7 Torsion [C]-CA--CB-[CG] |==|  0.60457
USER: genes 8 Torsion [CA]-CB--CG-[CD] |==|  0.64853
USER: genes 9 Torsion [CB]-CG--CD-[NE] |==|  0.45188
USER: genes 10 Torsion [CG]-CD--NE-[CZ] |==|  0.59118
USER: genes 11 Torsion [C]-CA--N-[C] |==|  0.68388
USER: genes 12 Torsion [N]-C--CA-[N] |==|  0.36552
USER: genes 13 Torsion [C]-CA--N-[C] |==|  0.78984
USER: genes 14 Torsion [N]-C--CA-[N] |==|  0.12308
USER: genes 15 Torsion [C]-CA--N-[H1] |==|  0.34395
USER: genes 16 Torsion [C]-CA--CB-[CG2] |==|  0.79543
USER: genes 17 Torsion [CA]-CB--CG1-[CD1] |==|  0.50768
ROOT
ATOM      1  CA  ARG B   3       7.465  22.939  -8.028  0.50 56.69 LIG 0.18  C 
ENDROOT
BRANCH 1 2
ATOM      2  C   ARG B   3       7.567  22.406  -9.435  0.50 56.65 LIG 0.24  C 
ATOM      3 O    ARG B   3       8.086  21.322  -9.701  0.50 56.65 LIG-0.27  OA
ATOM      4  N   SER B   4       6.983  23.200 -10.322  0.50 56.58 LIG-0.34  N 
ATOM      5 H    SER B   4       6.431  23.822 -10.102  0.50 56.58 LIG 0.16  HD
BRANCH 4 6
ATOM      6  CA  SER B   4       7.208  23.109 -11.746  0.50 56.54 LIG 0.19  C 
BRANCH 6 7
ATOM      7  C   SER B   4       7.874  24.408 -12.177  0.50 56.54 LIG 0.22  C 
ATOM      8 O    SER B   4       9.021  24.683 -11.816  0.50 56.51 LIG-0.29  OA
ENDBRANCH 6 7
BRANCH 6 9
ATOM      9  CB  SER B   4       5.886  22.905 -12.487  0.50 56.54 LIG 0.20  C 
BRANCH 9 10
ATOM     10 OG   SER B   4       6.020  23.191 -13.868  0.50 56.48 LIG-0.40  OA
ATOM     11 HG   SER B   4       6.095  24.020 -13.977  0.50 56.48 LIG 0.21  HD
ENDBRANCH 9 10
ENDBRANCH 6 9
ENDBRANCH 4 6
ENDBRANCH 1 2
BRANCH 1 12
ATOM     12  CB  ARG B   3       6.186  22.358  -7.427  0.50 56.69 LIG 0.04  C 
BRANCH 12 13
ATOM     13  CG  ARG B   3       5.384  23.270  -6.518  0.50 56.67 LIG 0.02  C 
BRANCH 13 14
ATOM     14  CD  ARG B   3       5.093  22.650  -5.153  0.50 56.64 LIG 0.14  C 
BRANCH 14 15
ATOM     15  NE  ARG B   3       4.691  23.651  -4.159  0.50 56.60 LIG-0.23  N 
ATOM     16  CZ  ARG B   3       4.957  23.596  -2.856  0.50 56.66 LIG 0.67  C 
ATOM     17  NH2 ARG B   3       4.530  24.573  -2.061  0.50 56.73 LIG-0.23  N 
ATOM     18  NH1 ARG B   3       5.645  22.584  -2.336  0.50 56.69 LIG-0.23  N 
ATOM     19 22HH ARG B   3       4.698  24.546  -1.218  0.50 56.73 LIG 0.17  HD
ATOM     20 21HH ARG B   3       4.087  25.232  -2.390  0.50 56.73 LIG 0.17  HD
ATOM     21 12HH ARG B   3       5.808  22.564  -1.492  0.50 56.69 LIG 0.17  HD
ATOM     22 11HH ARG B   3       5.926  21.950  -2.845  0.50 56.69 LIG 0.17  HD
ATOM     23 HE   ARG B   3       4.245  24.331  -4.442  0.50 56.60 LIG 0.18  HD
ENDBRANCH 14 15
ENDBRANCH 13 14
ENDBRANCH 12 13
ENDBRANCH 1 12
BRANCH 1 24
ATOM     24  N   ARG B   3       7.452  24.385  -7.851  0.50 56.75 LIG-0.35  N 
ATOM     25  C   ILE B   2       8.458  24.994  -7.237  0.50 56.81 LIG 0.24  C 
ATOM     26 O    ILE B   2       9.525  24.435  -7.023  0.50 56.81 LIG-0.27  OA
ATOM     27 H    ARG B   3       6.760  24.784  -8.170  0.50 56.75 LIG 0.16  HD
BRANCH 25 28
ATOM     28  CA  ILE B   2       8.228  26.438  -6.794  0.50 56.86 LIG 0.18  C 
BRANCH 28 29
ATOM     29  N   ILE B   2       8.654  26.577  -5.406  0.50 56.91 LIG-0.35  N 
ATOM     30 H    ILE B   2       9.407  26.981  -5.309  0.50 56.91 LIG 0.16  HD
ATOM     31  C   ALA B   1       7.932  26.115  -4.391  0.50 56.95 LIG 0.25  C 
ATOM     32 O    ALA B   1       6.863  25.523  -4.541  0.50 56.96 LIG-0.27  OA
BRANCH 31 33
ATOM     33  CA  ALA B   1       8.508  26.351  -2.997  0.50 56.96 LIG 0.27  C 
ATOM     34  CB  ALA B   1       7.452  26.083  -1.936  0.50 56.98 LIG 0.05  C 
BRANCH 33 35
ATOM     35  N   ALA B   1       9.020  27.745  -2.869  0.50 56.97 LIG-0.07  N 
ATOM     36 H1   ALA B   1       8.623  28.145  -2.180  0.50 56.97 LIG 0.28  HD
ATOM     37 H3   ALA B   1       8.843  28.195  -3.616  0.50 56.97 LIG 0.28  HD
ATOM     38 H2   ALA B   1       9.900  27.727  -2.735  0.50 56.97 LIG 0.28  HD
ENDBRANCH 33 35
ENDBRANCH 31 33
ENDBRANCH 28 29
BRANCH 28 39
ATOM     39  CB  ILE B   2       9.015  27.432  -7.680  0.50 56.87 LIG 0.01  C 
ATOM     40  CG2 ILE B   2      10.518  27.402  -7.373  1.00 56.86 LIG 0.01  C 
BRANCH 39 41
ATOM     41  CG1 ILE B   2       8.729  27.168  -9.170  1.00 56.91 LIG 0.00  C 
ATOM     42  CD1 ILE B   2       9.504  28.049 -10.151  0.50 56.92 LIG 0.01  C 
ENDBRANCH 39 41
ENDBRANCH 28 39
ENDBRANCH 25 28
ENDBRANCH 1 24
TORSDOF 16
ENDMDL
MODEL 31
USER: ADFR SOLUTION from run 19
USER: SCORE 14.010694 LL:  -2.228 LR: -11.988 RR:   0.000 FEB:  -7.215
USER: RMSD 10.306037
USER: SEED 18
USER: STATUS no improvement in best 5 clusters for 5 generations
USER: GENES 18
USER: genes 0 Translation |==|  0.66357 0.74481 0.52903
USER: genes 1 Rotation |==|  0.71267 0.40145 0.60218 0.92967
USER: genes 2 Torsion [N]-CA--C-[N] |==|  0.41109
USER: genes 3 Torsion [C]-N--CA-[C] |==|  0.51347
USER: genes 4 Torsion [N]-CA--C-[O] |==|  0.37140
USER: genes 5 Torsion [N]-CA--CB-[OG] |==|  0.06197
USER: genes 6 Torsion [CA]-CB--OG-[HG] |==|  0.79212
USER: genes 7 Torsion [C]-CA--CB-[CG] |==|  0.85154
USER: genes 8 Torsion [CA]-CB--CG-[CD] |==|  0.29021
USER: genes 9 Torsion [CB]-CG--CD-[NE] |==|  0.45535
USER: genes 10 Torsion [CG]-CD--NE-[CZ] |==|  0.85382
USER: genes 11 Torsion [C]-CA--N-[C] |==|  0.75199
USER: genes 12 Torsion [N]-C--CA-[N] |==|  0.39299
USER: genes 13 Torsion [C]-CA--N-[C] |==|  0.72236
USER: genes 14 Torsion [N]-C--CA-[N] |==|  0.10624
USER: genes 15 Torsion [C]-CA--N-[H1] |==|  0.01423
USER: genes 16 Torsion [C]-CA--CB-[CG2] |==|  0.78527
USER: genes 17 Torsion [CA]-CB--CG1-[CD1] |==|  0.17743
ROOT
ATOM      1  CA  ARG B   3       8.677  25.364  -6.499  0.50 56.69 LIG 0.18  C 
ENDROOT
BRANCH 1 2
ATOM      2  C   ARG B   3       8.722  25.580  -5.007  0.50 56.65 LIG 0.24  C 
ATOM      3 O    ARG B   3       9.772  25.765  -4.392  0.50 56.65 LIG-0.27  OA
ATOM      4  N   SER B   4       7.513  25.612  -4.463  0.50 56.58 LIG-0.34  N 
ATOM      5 H    SER B   4       6.795  25.717  -4.924  0.50 56.58 LIG 0.16  HD
BRANCH 4 6
ATOM      6  CA  SER B   4       7.272  25.477  -3.045  0.50 56.54 LIG 0.19  C 
BRANCH 6 7
ATOM      7  C   SER B   4       5.763  25.446  -2.850  0.50 56.54 LIG 0.22  C 
ATOM      8 O    SER B   4       5.234  24.606  -2.119  0.50 56.51 LIG-0.29  OA
ENDBRANCH 6 7
BRANCH 6 9
ATOM      9  CB  SER B   4       7.895  26.645  -2.280  0.50 56.54 LIG 0.20  C 
BRANCH 9 10
ATOM     10 OG   SER B   4       8.083  27.769  -3.121  0.50 56.48 LIG-0.40  OA
ATOM     11 HG   SER B   4       8.738  27.633  -3.629  0.50 56.48 LIG 0.21  HD
ENDBRANCH 9 10
ENDBRANCH 6 9
ENDBRANCH 4 6
ENDBRANCH 1 2
BRANCH 1 12
ATOM     12  CB  ARG B   3       8.703  23.854  -6.729  0.50 56.69 LIG 0.04  C 
BRANCH 12 13
ATOM     13  CG  ARG B   3       9.832  23.083  -6.070  0.50 56.67 LIG 0.02  C 
BRANCH 13 14
ATOM     14  CD  ARG B   3       9.382  22.299  -4.839  0.50 56.64 LIG 0.14  C 
BRANCH 14 15
ATOM     15  NE  ARG B   3      10.360  21.280  -4.439  0.50 56.60 LIG-0.23  N 
ATOM     16  CZ  ARG B   3      10.874  20.347  -5.237  0.50 56.66 LIG 0.67  C 
ATOM     17  NH2 ARG B   3      11.753  19.480  -4.745  0.50 56.73 LIG-0.23  N 
ATOM     18  NH1 ARG B   3      10.526  20.270  -6.518  0.50 56.69 LIG-0.23  N 
ATOM     19 22HH ARG B   3      12.090  18.873  -5.254  0.50 56.73 LIG 0.17  HD
ATOM     20 21HH ARG B   3      11.985  19.525  -3.918  0.50 56.73 LIG 0.17  HD
ATOM     21 12HH ARG B   3      10.867  19.661  -7.020  0.50 56.69 LIG 0.17  HD
ATOM     22 11HH ARG B   3       9.960  20.829  -6.844  0.50 56.69 LIG 0.17  HD
ATOM     23 HE   ARG B   3      10.622  21.287  -3.619  0.50 56.60 LIG 0.18  HD
ENDBRANCH 14 15
ENDBRANCH 13 14
ENDBRANCH 12 13
ENDBRANCH 1 12
BRANCH 1 24
ATOM     24  N   ARG B   3       9.724  25.980  -7.303  0.50 56.75 LIG-0.35  N 
ATOM     25  C   ILE B   2       9.570  27.209  -7.778  0.50 56.81 LIG 0.24  C 
ATOM     26 O    ILE B   2       8.693  27.958  -7.371  0.50 56.81 LIG-0.27  OA
ATOM     27 H    ARG B   3      10.419  25.489  -7.433  0.50 56.75 LIG 0.16  HD
BRANCH 25 28
ATOM     28  CA  ILE B   2      10.538  27.657  -8.871  0.50 56.86 LIG 0.18  C 
BRANCH 28 29
ATOM     29  N   ILE B   2       9.807  28.457  -9.847  0.50 56.91 LIG-0.35  N 
ATOM     30 H    ILE B   2       9.677  29.272  -9.606  0.50 56.91 LIG 0.16  HD
ATOM     31  C   ALA B   1       9.384  27.957 -11.003  0.50 56.95 LIG 0.25  C 
ATOM     32 O    ALA B   1       9.560  26.784 -11.333  0.50 56.96 LIG-0.27  OA
BRANCH 31 33
ATOM     33  CA  ALA B   1       8.645  28.927 -11.922  0.50 56.96 LIG 0.27  C 
ATOM     34  CB  ALA B   1       8.645  28.406 -13.351  0.50 56.98 LIG 0.05  C 
BRANCH 33 35
ATOM     35  N   ALA B   1       9.268  30.279 -11.870  0.50 56.97 LIG-0.07  N 
ATOM     36 H1   ALA B   1      10.002  30.249 -11.367  0.50 56.97 LIG 0.28  HD
ATOM     37 H3   ALA B   1       8.691  30.858 -11.518  0.50 56.97 LIG 0.28  HD
ATOM     38 H2   ALA B   1       9.484  30.539 -12.694  0.50 56.97 LIG 0.28  HD
ENDBRANCH 33 35
ENDBRANCH 31 33
ENDBRANCH 28 29
BRANCH 28 39
ATOM     39  CB  ILE B   2      11.703  28.490  -8.287  0.50 56.87 LIG 0.01  C 
ATOM     40  CG2 ILE B   2      11.270  29.927  -7.964  1.00 56.86 LIG 0.01  C 
BRANCH 39 41
ATOM     41  CG1 ILE B   2      12.306  27.783  -7.059  1.00 56.91 LIG 0.00  C 
ATOM     42  CD1 ILE B   2      12.960  26.430  -7.341  0.50 56.92 LIG 0.01  C 
ENDBRANCH 39 41
ENDBRANCH 28 39
ENDBRANCH 25 28
ENDBRANCH 1 24
TORSDOF 16
ENDMDL
MODEL 32
USER: ADFR SOLUTION from run 18
USER: SCORE 13.675636 LL:  -1.958 LR: -11.972 RR:   0.000 FEB:  -7.199
USER: RMSD 10.756344
USER: SEED 17
USER: STATUS no improvement in best 13 clusters for 5 generations
USER: GENES 18
USER: genes 0 Translation |==|  0.62500 0.69660 0.47656
USER: genes 1 Rotation |==|  0.15476 0.82514 0.38110 0.60466
USER: genes 2 Torsion [N]-CA--C-[N] |==|  0.45000
USER: genes 3 Torsion [C]-N--CA-[C] |==|  0.21554
USER: genes 4 Torsion [N]-CA--C-[O] |==|  0.10162
USER: genes 5 Torsion [N]-CA--CB-[OG] |==|  0.66265
USER: genes 6 Torsion [CA]-CB--OG-[HG] |==|  0.83991
USER: genes 7 Torsion [C]-CA--CB-[CG] |==|  0.47832
USER: genes 8 Torsion [CA]-CB--CG-[CD] |==|  0.84765
USER: genes 9 Torsion [CB]-CG--CD-[NE] |==|  0.58238
USER: genes 10 Torsion [CG]-CD--NE-[CZ] |==|  0.28223
USER: genes 11 Torsion [C]-CA--N-[C] |==|  0.79814
USER: genes 12 Torsion [N]-C--CA-[N] |==|  0.19497
USER: genes 13 Torsion [C]-CA--N-[C] |==|  0.76450
USER: genes 14 Torsion [N]-C--CA-[N] |==|  0.59407
USER: genes 15 Torsion [C]-CA--N-[H1] |==|  0.46945
USER: genes 16 Torsion [C]-CA--CB-[CG2] |==|  0.15603
USER: genes 17 Torsion [CA]-CB--CG1-[CD1] |==|  0.21198
ROOT
ATOM      1  CA  ARG B   3       7.520  23.918  -8.073  0.50 56.69 LIG 0.18  C 
ENDROOT
BRANCH 1 2
ATOM      2  C   ARG B   3       7.096  22.994  -9.187  0.50 56.65 LIG 0.24  C 
ATOM      3 O    ARG B   3       6.954  21.781  -9.028  0.50 56.65 LIG-0.27  OA
ATOM      4  N   SER B   4       6.835  23.643 -10.313  0.50 56.58 LIG-0.34  N 
ATOM      5 H    SER B   4       6.711  24.493 -10.345  0.50 56.58 LIG 0.16  HD
BRANCH 4 6
ATOM      6  CA  SER B   4       6.730  22.997 -11.602  0.50 56.54 LIG 0.19  C 
BRANCH 6 7
ATOM      7  C   SER B   4       5.365  22.328 -11.655  0.50 56.54 LIG 0.22  C 
ATOM      8 O    SER B   4       4.377  22.855 -11.138  0.50 56.51 LIG-0.29  OA
ENDBRANCH 6 7
BRANCH 6 9
ATOM      9  CB  SER B   4       7.848  21.970 -11.780  0.50 56.54 LIG 0.20  C 
BRANCH 9 10
ATOM     10 OG   SER B   4       8.640  22.263 -12.918  0.50 56.48 LIG-0.40  OA
ATOM     11 HG   SER B   4       8.152  22.287 -13.601  0.50 56.48 LIG 0.21  HD
ENDBRANCH 9 10
ENDBRANCH 6 9
ENDBRANCH 4 6
ENDBRANCH 1 2
BRANCH 1 12
ATOM     12  CB  ARG B   3       8.960  24.335  -8.369  0.50 56.69 LIG 0.04  C 
BRANCH 12 13
ATOM     13  CG  ARG B   3       9.554  25.414  -7.483  0.50 56.67 LIG 0.02  C 
BRANCH 13 14
ATOM     14  CD  ARG B   3       8.712  26.687  -7.445  0.50 56.64 LIG 0.14  C 
BRANCH 14 15
ATOM     15  NE  ARG B   3       9.525  27.887  -7.219  0.50 56.60 LIG-0.23  N 
ATOM     16  CZ  ARG B   3       9.897  28.756  -8.158  0.50 56.66 LIG 0.67  C 
ATOM     17  NH2 ARG B   3      10.639  29.805  -7.818  0.50 56.73 LIG-0.23  N 
ATOM     18  NH1 ARG B   3       9.537  28.593  -9.427  0.50 56.69 LIG-0.23  N 
ATOM     19 22HH ARG B   3      10.884  30.371  -8.417  0.50 56.73 LIG 0.17  HD
ATOM     20 21HH ARG B   3      10.873  29.919  -6.998  0.50 56.73 LIG 0.17  HD
ATOM     21 12HH ARG B   3       9.786  29.163 -10.021  0.50 56.69 LIG 0.17  HD
ATOM     22 11HH ARG B   3       9.056  27.918  -9.654  0.50 56.69 LIG 0.17  HD
ATOM     23 HE   ARG B   3       9.783  28.043  -6.413  0.50 56.60 LIG 0.18  HD
ENDBRANCH 14 15
ENDBRANCH 13 14
ENDBRANCH 12 13
ENDBRANCH 1 12
BRANCH 1 24
ATOM     24  N   ARG B   3       7.448  23.411  -6.709  0.50 56.75 LIG-0.35  N 
ATOM     25  C   ILE B   2       6.273  23.250  -6.115  0.50 56.81 LIG 0.24  C 
ATOM     26 O    ILE B   2       5.221  23.270  -6.738  0.50 56.81 LIG-0.27  OA
ATOM     27 H    ARG B   3       8.208  23.236  -6.346  0.50 56.75 LIG 0.16  HD
BRANCH 25 28
ATOM     28  CA  ILE B   2       6.284  23.041  -4.602  0.50 56.86 LIG 0.18  C 
BRANCH 28 29
ATOM     29  N   ILE B   2       6.669  24.292  -3.958  0.50 56.91 LIG-0.35  N 
ATOM     30 H    ILE B   2       6.004  24.775  -3.705  0.50 56.91 LIG 0.16  HD
ATOM     31  C   ALA B   1       7.938  24.642  -3.786  0.50 56.95 LIG 0.25  C 
ATOM     32 O    ALA B   1       8.884  23.952  -4.167  0.50 56.96 LIG-0.27  OA
BRANCH 31 33
ATOM     33  CA  ALA B   1       8.176  25.976  -3.082  0.50 56.96 LIG 0.27  C 
ATOM     34  CB  ALA B   1       6.966  26.884  -3.245  0.50 56.98 LIG 0.05  C 
BRANCH 33 35
ATOM     35  N   ALA B   1       9.394  26.645  -3.620  0.50 56.97 LIG-0.07  N 
ATOM     36 H1   ALA B   1       9.431  27.482  -3.319  0.50 56.97 LIG 0.28  HD
ATOM     37 H3   ALA B   1       9.362  26.650  -4.509  0.50 56.97 LIG 0.28  HD
ATOM     38 H2   ALA B   1      10.119  26.202  -3.352  0.50 56.97 LIG 0.28  HD
ENDBRANCH 33 35
ENDBRANCH 31 33
ENDBRANCH 28 29
BRANCH 28 39
ATOM     39  CB  ILE B   2       4.896  22.596  -4.083  0.50 56.87 LIG 0.01  C 
ATOM     40  CG2 ILE B   2       4.405  21.326  -4.791  1.00 56.86 LIG 0.01  C 
BRANCH 39 41
ATOM     41  CG1 ILE B   2       4.924  22.426  -2.553  1.00 56.91 LIG 0.00  C 
ATOM     42  CD1 ILE B   2       4.893  23.728  -1.751  0.50 56.92 LIG 0.01  C 
ENDBRANCH 39 41
ENDBRANCH 28 39
ENDBRANCH 25 28
ENDBRANCH 1 24
TORSDOF 16
ENDMDL
MODEL 33
USER: ADFR SOLUTION from run 47
USER: SCORE 14.112761 LL:  -2.322 LR: -11.974 RR:   0.000 FEB:  -7.201
USER: RMSD 10.602690
USER: SEED 46
USER: STATUS no improvement in best 10 clusters for 5 generations
USER: GENES 18
USER: genes 0 Translation |==|  0.66960 0.75644 0.56735
USER: genes 1 Rotation |==|  0.61137 0.42995 0.80183 0.87628
USER: genes 2 Torsion [N]-CA--C-[N] |==|  0.44175
USER: genes 3 Torsion [C]-N--CA-[C] |==|  0.83019
USER: genes 4 Torsion [N]-CA--C-[O] |==|  0.29183
USER: genes 5 Torsion [N]-CA--CB-[OG] |==|  0.94465
USER: genes 6 Torsion [CA]-CB--OG-[HG] |==|  0.73916
USER: genes 7 Torsion [C]-CA--CB-[CG] |==|  0.22065
USER: genes 8 Torsion [CA]-CB--CG-[CD] |==|  0.30819
USER: genes 9 Torsion [CB]-CG--CD-[NE] |==|  0.32386
USER: genes 10 Torsion [CG]-CD--NE-[CZ] |==|  0.49207
USER: genes 11 Torsion [C]-CA--N-[C] |==|  0.79612
USER: genes 12 Torsion [N]-C--CA-[N] |==|  0.01155
USER: genes 13 Torsion [C]-CA--N-[C] |==|  0.66955
USER: genes 14 Torsion [N]-C--CA-[N] |==|  0.57115
USER: genes 15 Torsion [C]-CA--N-[H1] |==|  0.34761
USER: genes 16 Torsion [C]-CA--CB-[CG2] |==|  0.54699
USER: genes 17 Torsion [CA]-CB--CG1-[CD1] |==|  0.49052
ROOT
ATOM      1  CA  ARG B   3       8.858  25.713  -5.349  0.50 56.69 LIG 0.18  C 
ENDROOT
BRANCH 1 2
ATOM      2  C   ARG B   3       8.055  26.279  -4.205  0.50 56.65 LIG 0.24  C 
ATOM      3 O    ARG B   3       8.265  27.397  -3.733  0.50 56.65 LIG-0.27  OA
ATOM      4  N   SER B   4       7.075  25.471  -3.824  0.50 56.58 LIG-0.34  N 
ATOM      5 H    SER B   4       6.796  24.815  -4.304  0.50 56.58 LIG 0.16  HD
BRANCH 4 6
ATOM      6  CA  SER B   4       6.373  25.604  -2.568  0.50 56.54 LIG 0.19  C 
BRANCH 6 7
ATOM      7  C   SER B   4       7.403  25.433  -1.461  0.50 56.54 LIG 0.22  C 
ATOM      8 O    SER B   4       7.812  26.402  -0.818  0.50 56.51 LIG-0.29  OA
ENDBRANCH 6 7
BRANCH 6 9
ATOM      9  CB  SER B   4       5.272  24.549  -2.455  0.50 56.54 LIG 0.20  C 
BRANCH 9 10
ATOM     10 OG   SER B   4       4.918  24.035  -3.727  0.50 56.48 LIG-0.40  OA
ATOM     11 HG   SER B   4       4.264  24.465  -4.031  0.50 56.48 LIG 0.21  HD
ENDBRANCH 9 10
ENDBRANCH 6 9
ENDBRANCH 4 6
ENDBRANCH 1 2
BRANCH 1 12
ATOM     12  CB  ARG B   3       9.807  24.674  -4.753  0.50 56.69 LIG 0.04  C 
BRANCH 12 13
ATOM     13  CG  ARG B   3       9.217  23.312  -4.440  0.50 56.67 LIG 0.02  C 
BRANCH 13 14
ATOM     14  CD  ARG B   3       9.740  22.208  -5.357  0.50 56.64 LIG 0.14  C 
BRANCH 14 15
ATOM     15  NE  ARG B   3      10.494  21.184  -4.623  0.50 56.60 LIG-0.23  N 
ATOM     16  CZ  ARG B   3      11.018  20.082  -5.156  0.50 56.66 LIG 0.67  C 
ATOM     17  NH2 ARG B   3      11.678  19.232  -4.376  0.50 56.73 LIG-0.23  N 
ATOM     18  NH1 ARG B   3      10.895  19.819  -6.453  0.50 56.69 LIG-0.23  N 
ATOM     19 22HH ARG B   3      12.020  18.517  -4.711  0.50 56.73 LIG 0.17  HD
ATOM     20 21HH ARG B   3      11.764  19.397  -3.536  0.50 56.73 LIG 0.17  HD
ATOM     21 12HH ARG B   3      11.239  19.102  -6.781  0.50 56.69 LIG 0.17  HD
ATOM     22 11HH ARG B   3      10.471  20.366  -6.964  0.50 56.69 LIG 0.17  HD
ATOM     23 HE   ARG B   3      10.606  21.307  -3.779  0.50 56.60 LIG 0.18  HD
ENDBRANCH 14 15
ENDBRANCH 13 14
ENDBRANCH 12 13
ENDBRANCH 1 12
BRANCH 1 24
ATOM     24  N   ARG B   3       9.631  26.645  -6.160  0.50 56.75 LIG-0.35  N 
ATOM     25  C   ILE B   2       9.022  27.454  -7.016  0.50 56.81 LIG 0.24  C 
ATOM     26 O    ILE B   2       7.813  27.639  -6.989  0.50 56.81 LIG-0.27  OA
ATOM     27 H    ARG B   3      10.481  26.618  -6.033  0.50 56.75 LIG 0.16  HD
BRANCH 25 28
ATOM     28  CA  ILE B   2       9.898  28.152  -8.055  0.50 56.86 LIG 0.18  C 
BRANCH 28 29
ATOM     29  N   ILE B   2      11.266  27.667  -7.916  0.50 56.91 LIG-0.35  N 
ATOM     30 H    ILE B   2      11.354  26.821  -8.046  0.50 56.91 LIG 0.16  HD
ATOM     31  C   ALA B   1      12.279  28.472  -7.614  0.50 56.95 LIG 0.25  C 
ATOM     32 O    ALA B   1      12.142  29.679  -7.413  0.50 56.96 LIG-0.27  OA
BRANCH 31 33
ATOM     33  CA  ALA B   1      13.653  27.813  -7.519  0.50 56.96 LIG 0.27  C 
ATOM     34  CB  ALA B   1      13.522  26.385  -7.014  0.50 56.98 LIG 0.05  C 
BRANCH 33 35
ATOM     35  N   ALA B   1      14.549  28.594  -6.620  0.50 56.97 LIG-0.07  N 
ATOM     36 H1   ALA B   1      14.868  28.061  -5.982  0.50 56.97 LIG 0.28  HD
ATOM     37 H3   ALA B   1      14.089  29.259  -6.248  0.50 56.97 LIG 0.28  HD
ATOM     38 H2   ALA B   1      15.225  28.929  -7.092  0.50 56.97 LIG 0.28  HD
ENDBRANCH 33 35
ENDBRANCH 31 33
ENDBRANCH 28 29
BRANCH 28 39
ATOM     39  CB  ILE B   2       9.394  27.880  -9.492  0.50 56.87 LIG 0.01  C 
ATOM     40  CG2 ILE B   2      10.466  28.207 -10.542  1.00 56.86 LIG 0.01  C 
BRANCH 39 41
ATOM     41  CG1 ILE B   2       8.889  26.431  -9.620  1.00 56.91 LIG 0.00  C 
ATOM     42  CD1 ILE B   2       8.289  26.067 -10.979  0.50 56.92 LIG 0.01  C 
ENDBRANCH 39 41
ENDBRANCH 28 39
ENDBRANCH 25 28
ENDBRANCH 1 24
TORSDOF 16
ENDMDL
MODEL 34
USER: ADFR SOLUTION from run 113
USER: SCORE 14.090514 LL:  -2.712 LR: -11.955 RR:   0.000 FEB:  -7.182
USER: RMSD 10.851377
USER: SEED 112
USER: STATUS searching
USER: GENES 18
USER: genes 0 Translation |==|  0.65657 0.70244 0.42677
USER: genes 1 Rotation |==|  0.16216 0.16593 0.38206 0.60175
USER: genes 2 Torsion [N]-CA--C-[N] |==|  0.93991
USER: genes 3 Torsion [C]-N--CA-[C] |==|  0.74699
USER: genes 4 Torsion [N]-CA--C-[O] |==|  0.44333
USER: genes 5 Torsion [N]-CA--CB-[OG] |==|  0.12055
USER: genes 6 Torsion [CA]-CB--OG-[HG] |==|  0.32622
USER: genes 7 Torsion [C]-CA--CB-[CG] |==|  0.17009
USER: genes 8 Torsion [CA]-CB--CG-[CD] |==|  0.69923
USER: genes 9 Torsion [CB]-CG--CD-[NE] |==|  0.06765
USER: genes 10 Torsion [CG]-CD--NE-[CZ] |==|  0.42122
USER: genes 11 Torsion [C]-CA--N-[C] |==|  0.81743
USER: genes 12 Torsion [N]-C--CA-[N] |==|  0.64891
USER: genes 13 Torsion [C]-CA--N-[C] |==|  0.15113
USER: genes 14 Torsion [N]-C--CA-[N] |==|  0.37753
USER: genes 15 Torsion [C]-CA--N-[H1] |==|  0.59866
USER: genes 16 Torsion [C]-CA--CB-[CG2] |==|  0.21264
USER: genes 17 Torsion [CA]-CB--CG1-[CD1] |==|  0.70998
ROOT
ATOM      1  CA  ARG B   3       8.467  24.093  -9.567  0.50 56.69 LIG 0.18  C 
ENDROOT
BRANCH 1 2
ATOM      2  C   ARG B   3       9.560  25.133  -9.554  0.50 56.65 LIG 0.24  C 
ATOM      3 O    ARG B   3      10.477  25.145 -10.375  0.50 56.65 LIG-0.27  OA
ATOM      4  N   SER B   4       9.378  26.048  -8.612  0.50 56.58 LIG-0.34  N 
ATOM      5 H    SER B   4       8.628  26.161  -8.208  0.50 56.58 LIG 0.16  HD
BRANCH 4 6
ATOM      6  CA  SER B   4      10.414  26.951  -8.165  0.50 56.54 LIG 0.19  C 
BRANCH 6 7
ATOM      7  C   SER B   4      11.118  26.278  -6.996  0.50 56.54 LIG 0.22  C 
ATOM      8 O    SER B   4      12.252  26.621  -6.653  0.50 56.51 LIG-0.29  OA
ENDBRANCH 6 7
BRANCH 6 9
ATOM      9  CB  SER B   4       9.812  28.291  -7.740  0.50 56.54 LIG 0.20  C 
BRANCH 9 10
ATOM     10 OG   SER B   4       8.639  28.106  -6.967  0.50 56.48 LIG-0.40  OA
ATOM     11 HG   SER B   4       8.758  28.419  -6.197  0.50 56.48 LIG 0.21  HD
ENDBRANCH 9 10
ENDBRANCH 6 9
ENDBRANCH 4 6
ENDBRANCH 1 2
BRANCH 1 12
ATOM     12  CB  ARG B   3       7.520  24.462 -10.708  0.50 56.69 LIG 0.04  C 
BRANCH 12 13
ATOM     13  CG  ARG B   3       8.110  24.478 -12.106  0.50 56.67 LIG 0.02  C 
BRANCH 13 14
ATOM     14  CD  ARG B   3       8.270  25.888 -12.671  0.50 56.64 LIG 0.14  C 
BRANCH 14 15
ATOM     15  NE  ARG B   3       8.376  26.903 -11.616  0.50 56.60 LIG-0.23  N 
ATOM     16  CZ  ARG B   3       9.024  28.062 -11.722  0.50 56.66 LIG 0.67  C 
ATOM     17  NH2 ARG B   3       9.044  28.894 -10.686  0.50 56.73 LIG-0.23  N 
ATOM     18  NH1 ARG B   3       9.646  28.402 -12.847  0.50 56.69 LIG-0.23  N 
ATOM     19 22HH ARG B   3       9.460  29.645 -10.746  0.50 56.73 LIG 0.17  HD
ATOM     20 21HH ARG B   3       8.641  28.683  -9.957  0.50 56.73 LIG 0.17  HD
ATOM     21 12HH ARG B   3      10.061  29.153 -12.899  0.50 56.69 LIG 0.17  HD
ATOM     22 11HH ARG B   3       9.635  27.869 -13.522  0.50 56.69 LIG 0.17  HD
ATOM     23 HE   ARG B   3       7.987  26.736 -10.867  0.50 56.60 LIG 0.18  HD
ENDBRANCH 14 15
ENDBRANCH 13 14
ENDBRANCH 12 13
ENDBRANCH 1 12
BRANCH 1 24
ATOM     24  N   ARG B   3       7.688  23.915  -8.349  0.50 56.75 LIG-0.35  N 
ATOM     25  C   ILE B   2       8.262  23.450  -7.248  0.50 56.81 LIG 0.24  C 
ATOM     26 O    ILE B   2       9.478  23.392  -7.122  0.50 56.81 LIG-0.27  OA
ATOM     27 H    ARG B   3       6.858  24.131  -8.413  0.50 56.75 LIG 0.16  HD
BRANCH 25 28
ATOM     28  CA  ILE B   2       7.336  22.978  -6.128  0.50 56.86 LIG 0.18  C 
BRANCH 28 29
ATOM     29  N   ILE B   2       7.704  23.664  -4.895  0.50 56.91 LIG-0.35  N 
ATOM     30 H    ILE B   2       7.869  23.137  -4.236  0.50 56.91 LIG 0.16  HD
ATOM     31  C   ALA B   1       7.774  24.988  -4.811  0.50 56.95 LIG 0.25  C 
ATOM     32 O    ALA B   1       7.520  25.736  -5.755  0.50 56.96 LIG-0.27  OA
BRANCH 31 33
ATOM     33  CA  ALA B   1       8.187  25.553  -3.454  0.50 56.96 LIG 0.27  C 
ATOM     34  CB  ALA B   1       6.970  26.069  -2.702  0.50 56.98 LIG 0.05  C 
BRANCH 33 35
ATOM     35  N   ALA B   1       9.186  26.645  -3.621  0.50 56.97 LIG-0.07  N 
ATOM     36 H1   ALA B   1       9.771  26.617  -2.951  0.50 56.97 LIG 0.28  HD
ATOM     37 H3   ALA B   1       8.770  27.431  -3.619  0.50 56.97 LIG 0.28  HD
ATOM     38 H2   ALA B   1       9.616  26.539  -4.394  0.50 56.97 LIG 0.28  HD
ENDBRANCH 33 35
ENDBRANCH 31 33
ENDBRANCH 28 29
BRANCH 28 39
ATOM     39  CB  ILE B   2       5.854  23.270  -6.461  0.50 56.87 LIG 0.01  C 
ATOM     40  CG2 ILE B   2       5.293  22.272  -7.484  1.00 56.86 LIG 0.01  C 
BRANCH 39 41
ATOM     41  CG1 ILE B   2       5.011  23.307  -5.174  1.00 56.91 LIG 0.00  C 
ATOM     42  CD1 ILE B   2       4.139  22.074  -4.928  0.50 56.92 LIG 0.01  C 
ENDBRANCH 39 41
ENDBRANCH 28 39
ENDBRANCH 25 28
ENDBRANCH 1 24
TORSDOF 16
ENDMDL
MODEL 35
USER: ADFR SOLUTION from run 35
USER: SCORE 13.732738 LL:  -2.232 LR: -11.946 RR:   0.000 FEB:  -7.173
USER: RMSD 11.593654
USER: SEED 34
USER: STATUS no improvement in best 7 clusters for 5 generations
USER: GENES 18
USER: genes 0 Translation |==|  0.65783 0.73768 0.37459
USER: genes 1 Rotation |==|  0.04696 0.55214 0.56671 0.69388
USER: genes 2 Torsion [N]-CA--C-[N] |==|  0.35011
USER: genes 3 Torsion [C]-N--CA-[C] |==|  0.53154
USER: genes 4 Torsion [N]-CA--C-[O] |==|  0.02780
USER: genes 5 Torsion [N]-CA--CB-[OG] |==|  0.08232
USER: genes 6 Torsion [CA]-CB--OG-[HG] |==|  0.88669
USER: genes 7 Torsion [C]-CA--CB-[CG] |==|  0.81373
USER: genes 8 Torsion [CA]-CB--CG-[CD] |==|  0.74668
USER: genes 9 Torsion [CB]-CG--CD-[NE] |==|  0.90891
USER: genes 10 Torsion [CG]-CD--NE-[CZ] |==|  0.42982
USER: genes 11 Torsion [C]-CA--N-[C] |==|  0.61170
USER: genes 12 Torsion [N]-C--CA-[N] |==|  0.39601
USER: genes 13 Torsion [C]-CA--N-[C] |==|  0.59287
USER: genes 14 Torsion [N]-C--CA-[N] |==|  0.58762
USER: genes 15 Torsion [C]-CA--N-[H1] |==|  0.95491
USER: genes 16 Torsion [C]-CA--CB-[CG2] |==|  0.34304
USER: genes 17 Torsion [CA]-CB--CG1-[CD1] |==|  0.52049
ROOT
ATOM      1  CA  ARG B   3       8.505  25.151 -11.132  0.50 56.69 LIG 0.18  C 
ENDROOT
BRANCH 1 2
ATOM      2  C   ARG B   3       8.881  24.833 -12.558  0.50 56.65 LIG 0.24  C 
ATOM      3 O    ARG B   3       9.969  25.145 -13.044  0.50 56.65 LIG-0.27  OA
ATOM      4  N   SER B   4       7.945  24.136 -13.187  0.50 56.58 LIG-0.34  N 
ATOM      5 H    SER B   4       7.308  23.730 -12.775  0.50 56.58 LIG 0.16  HD
BRANCH 4 6
ATOM      6  CA  SER B   4       7.893  23.981 -14.622  0.50 56.54 LIG 0.19  C 
BRANCH 6 7
ATOM      7  C   SER B   4       6.540  23.369 -14.956  0.50 56.54 LIG 0.22  C 
ATOM      8 O    SER B   4       5.659  23.270 -14.099  0.50 56.51 LIG-0.29  OA
ENDBRANCH 6 7
BRANCH 6 9
ATOM      9  CB  SER B   4       9.031  23.083 -15.108  0.50 56.54 LIG 0.20  C 
BRANCH 9 10
ATOM     10 OG   SER B   4       9.396  22.135 -14.120  0.50 56.48 LIG-0.40  OA
ATOM     11 HG   SER B   4       9.395  22.502 -13.365  0.50 56.48 LIG 0.21  HD
ENDBRANCH 9 10
ENDBRANCH 6 9
ENDBRANCH 4 6
ENDBRANCH 1 2
BRANCH 1 12
ATOM     12  CB  ARG B   3       8.270  26.659 -11.062  0.50 56.69 LIG 0.04  C 
BRANCH 12 13
ATOM     13  CG  ARG B   3       9.482  27.548 -11.266  0.50 56.67 LIG 0.02  C 
BRANCH 13 14
ATOM     14  CD  ARG B   3      10.194  27.897  -9.961  0.50 56.64 LIG 0.14  C 
BRANCH 14 15
ATOM     15  NE  ARG B   3       9.266  28.004  -8.829  0.50 56.60 LIG-0.23  N 
ATOM     16  CZ  ARG B   3       9.584  27.823  -7.549  0.50 56.66 LIG 0.67  C 
ATOM     17  NH2 ARG B   3       8.643  27.949  -6.619  0.50 56.73 LIG-0.23  N 
ATOM     18  NH1 ARG B   3      10.827  27.523  -7.185  0.50 56.69 LIG-0.23  N 
ATOM     19 22HH ARG B   3       8.839  27.833  -5.790  0.50 56.73 LIG 0.17  HD
ATOM     20 21HH ARG B   3       7.837  28.145  -6.847  0.50 56.73 LIG 0.17  HD
ATOM     21 12HH ARG B   3      11.016  27.409  -6.354  0.50 56.69 LIG 0.17  HD
ATOM     22 11HH ARG B   3      11.442  27.443  -7.781  0.50 56.69 LIG 0.17  HD
ATOM     23 HE   ARG B   3       8.447  28.201  -9.009  0.50 56.60 LIG 0.18  HD
ENDBRANCH 14 15
ENDBRANCH 13 14
ENDBRANCH 12 13
ENDBRANCH 1 12
BRANCH 1 24
ATOM     24  N   ARG B   3       9.443  24.772 -10.085  0.50 56.75 LIG-0.35  N 
ATOM     25  C   ILE B   2       9.002  24.266  -8.940  0.50 56.81 LIG 0.24  C 
ATOM     26 O    ILE B   2       7.854  23.866  -8.805  0.50 56.81 LIG-0.27  OA
ATOM     27 H    ARG B   3      10.272  24.903 -10.274  0.50 56.75 LIG 0.16  HD
BRANCH 25 28
ATOM     28  CA  ILE B   2       9.994  24.207  -7.780  0.50 56.86 LIG 0.18  C 
BRANCH 28 29
ATOM     29  N   ILE B   2       9.286  24.508  -6.541  0.50 56.91 LIG-0.35  N 
ATOM     30 H    ILE B   2       8.471  24.232  -6.527  0.50 56.91 LIG 0.16  HD
ATOM     31  C   ALA B   1       9.860  25.151  -5.531  0.50 56.95 LIG 0.25  C 
ATOM     32 O    ALA B   1      11.022  25.557  -5.566  0.50 56.96 LIG-0.27  OA
BRANCH 31 33
ATOM     33  CA  ALA B   1       8.989  25.376  -4.297  0.50 56.96 LIG 0.27  C 
ATOM     34  CB  ALA B   1       7.519  25.408  -4.686  0.50 56.98 LIG 0.05  C 
BRANCH 33 35
ATOM     35  N   ALA B   1       9.366  26.645  -3.613  0.50 56.97 LIG-0.07  N 
ATOM     36 H1   ALA B   1      10.164  26.913  -3.901  0.50 56.97 LIG 0.28  HD
ATOM     37 H3   ALA B   1       9.398  26.509  -2.734  0.50 56.97 LIG 0.28  HD
ATOM     38 H2   ALA B   1       8.760  27.272  -3.794  0.50 56.97 LIG 0.28  HD
ENDBRANCH 33 35
ENDBRANCH 31 33
ENDBRANCH 28 29
BRANCH 28 39
ATOM     39  CB  ILE B   2      10.657  22.813  -7.674  0.50 56.87 LIG 0.01  C 
ATOM     40  CG2 ILE B   2      12.187  22.904  -7.740  1.00 56.86 LIG 0.01  C 
BRANCH 39 41
ATOM     41  CG1 ILE B   2      10.179  22.087  -6.403  1.00 56.91 LIG 0.00  C 
ATOM     42  CD1 ILE B   2      10.897  20.772  -6.094  0.50 56.92 LIG 0.01  C 
ENDBRANCH 39 41
ENDBRANCH 28 39
ENDBRANCH 25 28
ENDBRANCH 1 24
TORSDOF 16
ENDMDL
MODEL 36
USER: ADFR SOLUTION from run 146
USER: SCORE 13.804824 LL:  -2.025 LR: -11.929 RR:   0.000 FEB:  -7.156
USER: RMSD 10.140361
USER: SEED 145
USER: STATUS no improvement in best 5 clusters for 5 generations
USER: GENES 18
USER: genes 0 Translation |==|  0.57089 0.65719 0.45450
USER: genes 1 Rotation |==|  0.05609 0.32964 0.63905 0.56772
USER: genes 2 Torsion [N]-CA--C-[N] |==|  0.90178
USER: genes 3 Torsion [C]-N--CA-[C] |==|  0.49265
USER: genes 4 Torsion [N]-CA--C-[O] |==|  0.38758
USER: genes 5 Torsion [N]-CA--CB-[OG] |==|  0.59542
USER: genes 6 Torsion [CA]-CB--OG-[HG] |==|  0.62928
USER: genes 7 Torsion [C]-CA--CB-[CG] |==|  0.11276
USER: genes 8 Torsion [CA]-CB--CG-[CD] |==|  0.62221
USER: genes 9 Torsion [CB]-CG--CD-[NE] |==|  0.90434
USER: genes 10 Torsion [CG]-CD--NE-[CZ] |==|  0.49287
USER: genes 11 Torsion [C]-CA--N-[C] |==|  0.77779
USER: genes 12 Torsion [N]-C--CA-[N] |==|  0.88354
USER: genes 13 Torsion [C]-CA--N-[C] |==|  0.83253
USER: genes 14 Torsion [N]-C--CA-[N] |==|  0.09921
USER: genes 15 Torsion [C]-CA--N-[H1] |==|  0.15226
USER: genes 16 Torsion [C]-CA--CB-[CG2] |==|  0.54524
USER: genes 17 Torsion [CA]-CB--CG1-[CD1] |==|  0.34283
ROOT
ATOM      1  CA  ARG B   3       5.897  22.736  -8.735  0.50 56.69 LIG 0.18  C 
ENDROOT
BRANCH 1 2
ATOM      2  C   ARG B   3       6.595  22.562 -10.061  0.50 56.65 LIG 0.24  C 
ATOM      3 O    ARG B   3       6.541  21.517 -10.709  0.50 56.65 LIG-0.27  OA
ATOM      4  N   SER B   4       7.203  23.669 -10.463  0.50 56.58 LIG-0.34  N 
ATOM      5 H    SER B   4       7.039  24.442 -10.124  0.50 56.58 LIG 0.16  HD
BRANCH 4 6
ATOM      6  CA  SER B   4       8.201  23.698 -11.507  0.50 56.54 LIG 0.19  C 
BRANCH 6 7
ATOM      7  C   SER B   4       8.595  25.154 -11.707  0.50 56.54 LIG 0.22  C 
ATOM      8 O    SER B   4       9.771  25.474 -11.895  0.50 56.51 LIG-0.29  OA
ENDBRANCH 6 7
BRANCH 6 9
ATOM      9  CB  SER B   4       7.643  23.103 -12.800  0.50 56.54 LIG 0.20  C 
BRANCH 9 10
ATOM     10 OG   SER B   4       8.647  22.410 -13.523  0.50 56.48 LIG-0.40  OA
ATOM     11 HG   SER B   4       8.614  22.633 -14.331  0.50 56.48 LIG 0.21  HD
ENDBRANCH 9 10
ENDBRANCH 6 9
ENDBRANCH 4 6
ENDBRANCH 1 2
BRANCH 1 12
ATOM     12  CB  ARG B   3       4.497  23.270  -9.039  0.50 56.69 LIG 0.04  C 
BRANCH 12 13
ATOM     13  CG  ARG B   3       3.781  22.667 -10.232  0.50 56.67 LIG 0.02  C 
BRANCH 13 14
ATOM     14  CD  ARG B   3       3.089  23.711 -11.106  0.50 56.64 LIG 0.14  C 
BRANCH 14 15
ATOM     15  NE  ARG B   3       2.556  24.830 -10.320  0.50 56.60 LIG-0.23  N 
ATOM     16  CZ  ARG B   3       1.949  25.904 -10.821  0.50 56.66 LIG 0.67  C 
ATOM     17  NH2 ARG B   3       1.512  26.850  -9.995  0.50 56.73 LIG-0.23  N 
ATOM     18  NH1 ARG B   3       1.768  26.045 -12.130  0.50 56.69 LIG-0.23  N 
ATOM     19 22HH ARG B   3       1.119  27.548 -10.309  0.50 56.73 LIG 0.17  HD
ATOM     20 21HH ARG B   3       1.624  26.766  -9.147  0.50 56.73 LIG 0.17  HD
ATOM     21 12HH ARG B   3       1.374  26.745 -12.437  0.50 56.69 LIG 0.17  HD
ATOM     22 11HH ARG B   3       2.045  25.435 -12.670  0.50 56.69 LIG 0.17  HD
ATOM     23 HE   ARG B   3       2.644  24.789  -9.465  0.50 56.60 LIG 0.18  HD
ENDBRANCH 14 15
ENDBRANCH 13 14
ENDBRANCH 12 13
ENDBRANCH 1 12
BRANCH 1 24
ATOM     24  N   ARG B   3       6.526  23.603  -7.748  0.50 56.75 LIG-0.35  N 
ATOM     25  C   ILE B   2       7.530  23.155  -7.006  0.50 56.81 LIG 0.24  C 
ATOM     26 O    ILE B   2       8.129  22.123  -7.276  0.50 56.81 LIG-0.27  OA
ATOM     27 H    ARG B   3       6.196  24.395  -7.696  0.50 56.75 LIG 0.16  HD
BRANCH 25 28
ATOM     28  CA  ILE B   2       7.913  23.986  -5.783  0.50 56.86 LIG 0.18  C 
BRANCH 28 29
ATOM     29  N   ILE B   2       7.883  25.398  -6.146  0.50 56.91 LIG-0.35  N 
ATOM     30 H    ILE B   2       7.326  25.866  -5.689  0.50 56.91 LIG 0.16  HD
ATOM     31  C   ALA B   1       8.655  25.902  -7.102  0.50 56.95 LIG 0.25  C 
ATOM     32 O    ALA B   1       9.440  25.221  -7.763  0.50 56.96 LIG-0.27  OA
BRANCH 31 33
ATOM     33  CA  ALA B   1       8.517  27.402  -7.355  0.50 56.96 LIG 0.27  C 
ATOM     34  CB  ALA B   1       9.767  27.943  -8.032  0.50 56.98 LIG 0.05  C 
BRANCH 33 35
ATOM     35  N   ALA B   1       8.270  28.129  -6.078  0.50 56.97 LIG-0.07  N 
ATOM     36 H1   ALA B   1       8.914  27.933  -5.495  0.50 56.97 LIG 0.28  HD
ATOM     37 H3   ALA B   1       7.483  27.884  -5.744  0.50 56.97 LIG 0.28  HD
ATOM     38 H2   ALA B   1       8.266  29.006  -6.231  0.50 56.97 LIG 0.28  HD
ENDBRANCH 33 35
ENDBRANCH 31 33
ENDBRANCH 28 29
BRANCH 28 39
ATOM     39  CB  ILE B   2       6.944  23.734  -4.603  0.50 56.87 LIG 0.01  C 
ATOM     40  CG2 ILE B   2       7.058  24.825  -3.530  1.00 56.86 LIG 0.01  C 
BRANCH 39 41
ATOM     41  CG1 ILE B   2       5.501  23.582  -5.116  1.00 56.91 LIG 0.00  C 
ATOM     42  CD1 ILE B   2       4.805  22.275  -4.731  0.50 56.92 LIG 0.01  C 
ENDBRANCH 39 41
ENDBRANCH 28 39
ENDBRANCH 25 28
ENDBRANCH 1 24
TORSDOF 16
ENDMDL
MODEL 37
USER: ADFR SOLUTION from run 92
USER: SCORE 13.937174 LL:  -2.152 LR: -11.913 RR:   0.000 FEB:  -7.140
USER: RMSD 11.279211
USER: SEED 91
USER: STATUS no improvement in best 8 clusters for 5 generations
USER: GENES 18
USER: genes 0 Translation |==|  0.63899 0.70973 0.44041
USER: genes 1 Rotation |==|  0.93477 0.25570 0.46442 0.50568
USER: genes 2 Torsion [N]-CA--C-[N] |==|  0.46705
USER: genes 3 Torsion [C]-N--CA-[C] |==|  0.81907
USER: genes 4 Torsion [N]-CA--C-[O] |==|  0.90550
USER: genes 5 Torsion [N]-CA--CB-[OG] |==|  0.31383
USER: genes 6 Torsion [CA]-CB--OG-[HG] |==|  0.33702
USER: genes 7 Torsion [C]-CA--CB-[CG] |==|  0.56985
USER: genes 8 Torsion [CA]-CB--CG-[CD] |==|  0.77116
USER: genes 9 Torsion [CB]-CG--CD-[NE] |==|  0.66499
USER: genes 10 Torsion [CG]-CD--NE-[CZ] |==|  0.15731
USER: genes 11 Torsion [C]-CA--N-[C] |==|  0.76613
USER: genes 12 Torsion [N]-C--CA-[N] |==|  0.37292
USER: genes 13 Torsion [C]-CA--N-[C] |==|  0.85547
USER: genes 14 Torsion [N]-C--CA-[N] |==|  0.40628
USER: genes 15 Torsion [C]-CA--N-[H1] |==|  0.64645
USER: genes 16 Torsion [C]-CA--CB-[CG2] |==|  0.77563
USER: genes 17 Torsion [CA]-CB--CG1-[CD1] |==|  0.50567
ROOT
ATOM      1  CA  ARG B   3       7.940  24.312  -9.158  0.50 56.69 LIG 0.18  C 
ENDROOT
BRANCH 1 2
ATOM      2  C   ARG B   3       7.378  23.070  -9.804  0.50 56.65 LIG 0.24  C 
ATOM      3 O    ARG B   3       7.881  21.957  -9.656  0.50 56.65 LIG-0.27  OA
ATOM      4  N   SER B   4       6.264  23.311 -10.481  0.50 56.58 LIG-0.34  N 
ATOM      5 H    SER B   4       5.803  24.030 -10.384  0.50 56.58 LIG 0.16  HD
BRANCH 4 6
ATOM      6  CA  SER B   4       5.704  22.396 -11.450  0.50 56.54 LIG 0.19  C 
BRANCH 6 7
ATOM      7  C   SER B   4       6.695  22.303 -12.600  0.50 56.54 LIG 0.22  C 
ATOM      8 O    SER B   4       7.369  23.279 -12.939  0.50 56.51 LIG-0.29  OA
ENDBRANCH 6 7
BRANCH 6 9
ATOM      9  CB  SER B   4       4.346  22.898 -11.941  0.50 56.54 LIG 0.20  C 
BRANCH 9 10
ATOM     10 OG   SER B   4       4.397  23.267 -13.308  0.50 56.48 LIG-0.40  OA
ATOM     11 HG   SER B   4       3.840  22.813 -13.742  0.50 56.48 LIG 0.21  HD
ENDBRANCH 9 10
ENDBRANCH 6 9
ENDBRANCH 4 6
ENDBRANCH 1 2
BRANCH 1 12
ATOM     12  CB  ARG B   3       8.450  25.207 -10.287  0.50 56.69 LIG 0.04  C 
BRANCH 12 13
ATOM     13  CG  ARG B   3       9.548  26.192  -9.933  0.50 56.67 LIG 0.02  C 
BRANCH 13 14
ATOM     14  CD  ARG B   3       9.018  27.474  -9.295  0.50 56.64 LIG 0.14  C 
BRANCH 14 15
ATOM     15  NE  ARG B   3       9.374  28.670 -10.067  0.50 56.60 LIG-0.23  N 
ATOM     16  CZ  ARG B   3       9.079  28.878 -11.348  0.50 56.66 LIG 0.67  C 
ATOM     17  NH2 ARG B   3       9.464  30.009 -11.931  0.50 56.73 LIG-0.23  N 
ATOM     18  NH1 ARG B   3       8.402  27.977 -12.053  0.50 56.69 LIG-0.23  N 
ATOM     19 22HH ARG B   3       9.278  30.152 -12.759  0.50 56.73 LIG 0.17  HD
ATOM     20 21HH ARG B   3       9.900  30.598 -11.481  0.50 56.73 LIG 0.17  HD
ATOM     21 12HH ARG B   3       8.220  28.126 -12.880  0.50 56.69 LIG 0.17  HD
ATOM     22 11HH ARG B   3       8.148  27.244 -11.682  0.50 56.69 LIG 0.17  HD
ATOM     23 HE   ARG B   3       9.811  29.289  -9.657  0.50 56.60 LIG 0.18  HD
ENDBRANCH 14 15
ENDBRANCH 13 14
ENDBRANCH 12 13
ENDBRANCH 1 12
BRANCH 1 24
ATOM     24  N   ARG B   3       9.003  24.142  -8.176  0.50 56.75 LIG-0.35  N 
ATOM     25  C   ILE B   2       8.710  23.869  -6.911  0.50 56.81 LIG 0.24  C 
ATOM     26 O    ILE B   2       7.595  23.505  -6.566  0.50 56.81 LIG-0.27  OA
ATOM     27 H    ARG B   3       9.801  24.232  -8.485  0.50 56.75 LIG 0.16  HD
BRANCH 25 28
ATOM     28  CA  ILE B   2       9.833  24.034  -5.889  0.50 56.86 LIG 0.18  C 
BRANCH 28 29
ATOM     29  N   ILE B   2       9.311  24.751  -4.731  0.50 56.91 LIG-0.35  N 
ATOM     30 H    ILE B   2       9.459  24.360  -3.980  0.50 56.91 LIG 0.16  HD
ATOM     31  C   ALA B   1       8.664  25.906  -4.842  0.50 56.95 LIG 0.25  C 
ATOM     32 O    ALA B   1       8.441  26.451  -5.924  0.50 56.96 LIG-0.27  OA
BRANCH 31 33
ATOM     33  CA  ALA B   1       8.192  26.538  -3.535  0.50 56.96 LIG 0.27  C 
ATOM     34  CB  ALA B   1       6.777  26.086  -3.208  0.50 56.98 LIG 0.05  C 
BRANCH 33 35
ATOM     35  N   ALA B   1       8.248  28.025  -3.620  0.50 56.97 LIG-0.07  N 
ATOM     36 H1   ALA B   1       8.710  28.345  -2.930  0.50 56.97 LIG 0.28  HD
ATOM     37 H3   ALA B   1       7.421  28.354  -3.601  0.50 56.97 LIG 0.28  HD
ATOM     38 H2   ALA B   1       8.645  28.264  -4.380  0.50 56.97 LIG 0.28  HD
ENDBRANCH 33 35
ENDBRANCH 31 33
ENDBRANCH 28 29
BRANCH 28 39
ATOM     39  CB  ILE B   2      10.394  22.664  -5.440  0.50 56.87 LIG 0.01  C 
ATOM     40  CG2 ILE B   2       9.510  22.009  -4.371  1.00 56.86 LIG 0.01  C 
BRANCH 39 41
ATOM     41  CG1 ILE B   2      10.601  21.743  -6.657  1.00 56.91 LIG 0.00  C 
ATOM     42  CD1 ILE B   2      11.109  20.337  -6.334  0.50 56.92 LIG 0.01  C 
ENDBRANCH 39 41
ENDBRANCH 28 39
ENDBRANCH 25 28
ENDBRANCH 1 24
TORSDOF 16
ENDMDL
MODEL 38
USER: ADFR SOLUTION from run 117
USER: SCORE 14.071688 LL:  -2.483 LR: -11.889 RR:   0.000 FEB:  -7.117
USER: RMSD 12.064802
USER: SEED 116
USER: STATUS no improvement in best 8 clusters for 5 generations
USER: GENES 18
USER: genes 0 Translation |==|  0.70845 0.76518 0.48190
USER: genes 1 Rotation |==|  0.23204 0.87152 0.41967 0.68362
USER: genes 2 Torsion [N]-CA--C-[N] |==|  0.38767
USER: genes 3 Torsion [C]-N--CA-[C] |==|  0.83061
USER: genes 4 Torsion [N]-CA--C-[O] |==|  0.20713
USER: genes 5 Torsion [N]-CA--CB-[OG] |==|  0.09105
USER: genes 6 Torsion [CA]-CB--OG-[HG] |==|  0.45052
USER: genes 7 Torsion [C]-CA--CB-[CG] |==|  0.44203
USER: genes 8 Torsion [CA]-CB--CG-[CD] |==|  0.65627
USER: genes 9 Torsion [CB]-CG--CD-[NE] |==|  0.05470
USER: genes 10 Torsion [CG]-CD--NE-[CZ] |==|  0.21286
USER: genes 11 Torsion [C]-CA--N-[C] |==|  0.85170
USER: genes 12 Torsion [N]-C--CA-[N] |==|  0.14918
USER: genes 13 Torsion [C]-CA--N-[C] |==|  0.12587
USER: genes 14 Torsion [N]-C--CA-[N] |==|  0.46048
USER: genes 15 Torsion [C]-CA--N-[H1] |==|  0.69794
USER: genes 16 Torsion [C]-CA--CB-[CG2] |==|  0.20193
USER: genes 17 Torsion [CA]-CB--CG1-[CD1] |==|  0.51928
ROOT
ATOM      1  CA  ARG B   3      10.024  25.975  -7.913  0.50 56.69 LIG 0.18  C 
ENDROOT
BRANCH 1 2
ATOM      2  C   ARG B   3       9.638  25.706  -9.346  0.50 56.65 LIG 0.24  C 
ATOM      3 O    ARG B   3       9.637  24.575  -9.834  0.50 56.65 LIG-0.27  OA
ATOM      4  N   SER B   4       9.245  26.802  -9.981  0.50 56.58 LIG-0.34  N 
ATOM      5 H    SER B   4       9.029  27.527  -9.572  0.50 56.58 LIG 0.16  HD
BRANCH 4 6
ATOM      6  CA  SER B   4       9.137  26.897 -11.418  0.50 56.54 LIG 0.19  C 
BRANCH 6 7
ATOM      7  C   SER B   4      10.527  26.653 -11.987  0.50 56.54 LIG 0.22  C 
ATOM      8 O    SER B   4      11.012  25.520 -12.016  0.50 56.51 LIG-0.29  OA
ENDBRANCH 6 7
BRANCH 6 9
ATOM      9  CB  SER B   4       8.615  28.275 -11.827  0.50 56.54 LIG 0.20  C 
BRANCH 9 10
ATOM     10 OG   SER B   4       9.057  29.280 -10.931  0.50 56.48 LIG-0.40  OA
ATOM     11 HG   SER B   4       8.975  30.033 -11.292  0.50 56.48 LIG 0.21  HD
ENDBRANCH 9 10
ENDBRANCH 6 9
ENDBRANCH 4 6
ENDBRANCH 1 2
BRANCH 1 12
ATOM     12  CB  ARG B   3      11.546  26.111  -7.882  0.50 56.69 LIG 0.04  C 
BRANCH 12 13
ATOM     13  CG  ARG B   3      12.141  26.849  -6.698  0.50 56.67 LIG 0.02  C 
BRANCH 13 14
ATOM     14  CD  ARG B   3      13.013  28.033  -7.108  0.50 56.64 LIG 0.14  C 
BRANCH 14 15
ATOM     15  NE  ARG B   3      12.732  28.487  -8.475  0.50 56.60 LIG-0.23  N 
ATOM     16  CZ  ARG B   3      11.680  29.213  -8.847  0.50 56.66 LIG 0.67  C 
ATOM     17  NH2 ARG B   3      11.543  29.557 -10.123  0.50 56.73 LIG-0.23  N 
ATOM     18  NH1 ARG B   3      10.767  29.604  -7.963  0.50 56.69 LIG-0.23  N 
ATOM     19 22HH ARG B   3      10.866  30.026 -10.373  0.50 56.73 LIG 0.17  HD
ATOM     20 21HH ARG B   3      12.131  29.310 -10.700  0.50 56.73 LIG 0.17  HD
ATOM     21 12HH ARG B   3      10.093  30.072  -8.219  0.50 56.69 LIG 0.17  HD
ATOM     22 11HH ARG B   3      10.850  29.387  -7.135  0.50 56.69 LIG 0.17  HD
ATOM     23 HE   ARG B   3      13.294  28.265  -9.087  0.50 56.60 LIG 0.18  HD
ENDBRANCH 14 15
ENDBRANCH 13 14
ENDBRANCH 12 13
ENDBRANCH 1 12
BRANCH 1 24
ATOM     24  N   ARG B   3       9.619  25.001  -6.909  0.50 56.75 LIG-0.35  N 
ATOM     25  C   ILE B   2       8.349  24.632  -6.806  0.50 56.81 LIG 0.24  C 
ATOM     26 O    ILE B   2       7.527  24.881  -7.677  0.50 56.81 LIG-0.27  OA
ATOM     27 H    ARG B   3      10.256  24.704  -6.413  0.50 56.75 LIG 0.16  HD
BRANCH 25 28
ATOM     28  CA  ILE B   2       7.946  23.879  -5.540  0.50 56.86 LIG 0.18  C 
BRANCH 28 29
ATOM     29  N   ILE B   2       8.350  24.663  -4.379  0.50 56.91 LIG-0.35  N 
ATOM     30 H    ILE B   2       8.735  24.204  -3.762  0.50 56.91 LIG 0.16  HD
ATOM     31  C   ALA B   1       8.135  25.971  -4.294  0.50 56.95 LIG 0.25  C 
ATOM     32 O    ALA B   1       7.567  26.618  -5.176  0.50 56.96 LIG-0.27  OA
BRANCH 31 33
ATOM     33  CA  ALA B   1       8.630  26.651  -3.020  0.50 56.96 LIG 0.27  C 
ATOM     34  CB  ALA B   1       7.752  26.267  -1.839  0.50 56.98 LIG 0.05  C 
BRANCH 33 35
ATOM     35  N   ALA B   1       8.645  28.132  -3.187  0.50 56.97 LIG-0.07  N 
ATOM     36 H1   ALA B   1       9.487  28.416  -3.238  0.50 56.97 LIG 0.28  HD
ATOM     37 H3   ALA B   1       8.245  28.513  -2.489  0.50 56.97 LIG 0.28  HD
ATOM     38 H2   ALA B   1       8.212  28.352  -3.933  0.50 56.97 LIG 0.28  HD
ENDBRANCH 33 35
ENDBRANCH 31 33
ENDBRANCH 28 29
BRANCH 28 39
ATOM     39  CB  ILE B   2       6.419  23.630  -5.492  0.50 56.87 LIG 0.01  C 
ATOM     40  CG2 ILE B   2       5.986  22.553  -6.496  1.00 56.86 LIG 0.01  C 
BRANCH 39 41
ATOM     41  CG1 ILE B   2       5.974  23.290  -4.058  1.00 56.91 LIG 0.00  C 
ATOM     42  CD1 ILE B   2       4.513  22.861  -3.912  0.50 56.92 LIG 0.01  C 
ENDBRANCH 39 41
ENDBRANCH 28 39
ENDBRANCH 25 28
ENDBRANCH 1 24
TORSDOF 16
ENDMDL
MODEL 39
USER: ADFR SOLUTION from run 108
USER: SCORE 12.633823 LL:  -1.958 LR: -11.878 RR:   0.000 FEB:  -7.105
USER: RMSD 9.813251
USER: SEED 107
USER: STATUS no improvement in best 15 clusters for 5 generations
USER: GENES 18
USER: genes 0 Translation |==|  0.57669 0.63970 0.45456
USER: genes 1 Rotation |==|  0.06993 0.29687 0.58011 0.63176
USER: genes 2 Torsion [N]-CA--C-[N] |==|  0.76667
USER: genes 3 Torsion [C]-N--CA-[C] |==|  0.16104
USER: genes 4 Torsion [N]-CA--C-[O] |==|  0.58753
USER: genes 5 Torsion [N]-CA--CB-[OG] |==|  0.50258
USER: genes 6 Torsion [CA]-CB--OG-[HG] |==|  0.77533
USER: genes 7 Torsion [C]-CA--CB-[CG] |==|  0.14432
USER: genes 8 Torsion [CA]-CB--CG-[CD] |==|  0.48756
USER: genes 9 Torsion [CB]-CG--CD-[NE] |==|  0.11586
USER: genes 10 Torsion [CG]-CD--NE-[CZ] |==|  0.32318
USER: genes 11 Torsion [C]-CA--N-[C] |==|  0.52326
USER: genes 12 Torsion [N]-C--CA-[N] |==|  0.01247
USER: genes 13 Torsion [C]-CA--N-[C] |==|  0.67864
USER: genes 14 Torsion [N]-C--CA-[N] |==|  0.34547
USER: genes 15 Torsion [C]-CA--N-[H1] |==|  0.72937
USER: genes 16 Torsion [C]-CA--CB-[CG2] |==|  0.20255
USER: genes 17 Torsion [CA]-CB--CG1-[CD1] |==|  0.71704
ROOT
ATOM      1  CA  ARG B   3       6.071  22.211  -8.733  0.50 56.69 LIG 0.18  C 
ENDROOT
BRANCH 1 2
ATOM      2  C   ARG B   3       6.927  22.515  -9.937  0.50 56.65 LIG 0.24  C 
ATOM      3 O    ARG B   3       7.705  21.696 -10.425  0.50 56.65 LIG-0.27  OA
ATOM      4  N   SER B   4       6.693  23.722 -10.434  0.50 56.58 LIG-0.34  N 
ATOM      5 H    SER B   4       5.996  24.184 -10.234  0.50 56.58 LIG 0.16  HD
BRANCH 4 6
ATOM      6  CA  SER B   4       7.579  24.390 -11.360  0.50 56.54 LIG 0.19  C 
BRANCH 6 7
ATOM      7  C   SER B   4       7.721  23.483 -12.573  0.50 56.54 LIG 0.22  C 
ATOM      8 O    SER B   4       8.766  23.457 -13.228  0.50 56.51 LIG-0.29  OA
ENDBRANCH 6 7
BRANCH 6 9
ATOM      9  CB  SER B   4       8.939  24.649 -10.711  0.50 56.54 LIG 0.20  C 
BRANCH 9 10
ATOM     10 OG   SER B   4       9.813  25.323 -11.599  0.50 56.48 LIG-0.40  OA
ATOM     11 HG   SER B   4      10.155  24.770 -12.130  0.50 56.48 LIG 0.21  HD
ENDBRANCH 9 10
ENDBRANCH 6 9
ENDBRANCH 4 6
ENDBRANCH 1 2
BRANCH 1 12
ATOM     12  CB  ARG B   3       4.690  22.804  -9.011  0.50 56.69 LIG 0.04  C 
BRANCH 12 13
ATOM     13  CG  ARG B   3       4.036  22.423 -10.326  0.50 56.67 LIG 0.02  C 
BRANCH 13 14
ATOM     14  CD  ARG B   3       2.618  22.971 -10.471  0.50 56.64 LIG 0.14  C 
BRANCH 14 15
ATOM     15  NE  ARG B   3       2.502  24.353  -9.990  0.50 56.60 LIG-0.23  N 
ATOM     16  CZ  ARG B   3       2.191  25.408 -10.741  0.50 56.66 LIG 0.67  C 
ATOM     17  NH2 ARG B   3       2.121  26.610 -10.178  0.50 56.73 LIG-0.23  N 
ATOM     18  NH1 ARG B   3       1.945  25.278 -12.041  0.50 56.69 LIG-0.23  N 
ATOM     19 22HH ARG B   3       1.921  27.297 -10.655  0.50 56.73 LIG 0.17  HD
ATOM     20 21HH ARG B   3       2.276  26.701  -9.337  0.50 56.73 LIG 0.17  HD
ATOM     21 12HH ARG B   3       1.745  25.970 -12.511  0.50 56.69 LIG 0.17  HD
ATOM     22 11HH ARG B   3       1.986  24.503 -12.411  0.50 56.69 LIG 0.17  HD
ATOM     23 HE   ARG B   3       2.649  24.493  -9.154  0.50 56.60 LIG 0.18  HD
ENDBRANCH 14 15
ENDBRANCH 13 14
ENDBRANCH 12 13
ENDBRANCH 1 12
BRANCH 1 24
ATOM     24  N   ARG B   3       6.533  22.687  -7.436  0.50 56.75 LIG-0.35  N 
ATOM     25  C   ILE B   2       5.915  22.311  -6.325  0.50 56.81 LIG 0.24  C 
ATOM     26 O    ILE B   2       5.119  21.382  -6.305  0.50 56.81 LIG-0.27  OA
ATOM     27 H    ARG B   3       7.215  23.211  -7.463  0.50 56.75 LIG 0.16  HD
BRANCH 25 28
ATOM     28  CA  ILE B   2       6.233  23.097  -5.054  0.50 56.86 LIG 0.18  C 
BRANCH 28 29
ATOM     29  N   ILE B   2       7.117  24.205  -5.397  0.50 56.91 LIG-0.35  N 
ATOM     30 H    ILE B   2       6.762  24.788  -5.921  0.50 56.91 LIG 0.16  HD
ATOM     31  C   ALA B   1       8.359  24.293  -4.935  0.50 56.95 LIG 0.25  C 
ATOM     32 O    ALA B   1       8.865  23.445  -4.198  0.50 56.96 LIG-0.27  OA
BRANCH 31 33
ATOM     33  CA  ALA B   1       9.152  25.522  -5.374  0.50 56.96 LIG 0.27  C 
ATOM     34  CB  ALA B   1      10.310  25.111  -6.271  0.50 56.98 LIG 0.05  C 
BRANCH 33 35
ATOM     35  N   ALA B   1       9.662  26.270  -4.191  0.50 56.97 LIG-0.07  N 
ATOM     36 H1   ALA B   1       9.112  26.946  -4.009  0.50 56.97 LIG 0.28  HD
ATOM     37 H3   ALA B   1      10.474  26.587  -4.367  0.50 56.97 LIG 0.28  HD
ATOM     38 H2   ALA B   1       9.703  25.724  -3.489  0.50 56.97 LIG 0.28  HD
ENDBRANCH 33 35
ENDBRANCH 31 33
ENDBRANCH 28 29
BRANCH 28 39
ATOM     39  CB  ILE B   2       4.947  23.645  -4.392  0.50 56.87 LIG 0.01  C 
ATOM     40  CG2 ILE B   2       4.135  22.531  -3.718  1.00 56.86 LIG 0.01  C 
BRANCH 39 41
ATOM     41  CG1 ILE B   2       5.290  24.780  -3.409  1.00 56.91 LIG 0.00  C 
ATOM     42  CD1 ILE B   2       5.289  24.386  -1.931  0.50 56.92 LIG 0.01  C 
ENDBRANCH 39 41
ENDBRANCH 28 39
ENDBRANCH 25 28
ENDBRANCH 1 24
TORSDOF 16
ENDMDL
MODEL 40
USER: ADFR SOLUTION from run 35
USER: SCORE 13.501869 LL:  -2.205 LR: -11.876 RR:   0.000 FEB:  -7.103
USER: RMSD 10.830745
USER: SEED 34
USER: STATUS no improvement in best 7 clusters for 5 generations
USER: GENES 18
USER: genes 0 Translation |==|  0.64338 0.69016 0.42373
USER: genes 1 Rotation |==|  0.49972 0.34068 0.96561 0.58844
USER: genes 2 Torsion [N]-CA--C-[N] |==|  0.02778
USER: genes 3 Torsion [C]-N--CA-[C] |==|  0.65080
USER: genes 4 Torsion [N]-CA--C-[O] |==|  0.08462
USER: genes 5 Torsion [N]-CA--CB-[OG] |==|  0.16476
USER: genes 6 Torsion [CA]-CB--OG-[HG] |==|  0.63150
USER: genes 7 Torsion [C]-CA--CB-[CG] |==|  0.71357
USER: genes 8 Torsion [CA]-CB--CG-[CD] |==|  0.33618
USER: genes 9 Torsion [CB]-CG--CD-[NE] |==|  0.35284
USER: genes 10 Torsion [CG]-CD--NE-[CZ] |==|  0.18288
USER: genes 11 Torsion [C]-CA--N-[C] |==|  0.60033
USER: genes 12 Torsion [N]-C--CA-[N] |==|  0.32533
USER: genes 13 Torsion [C]-CA--N-[C] |==|  0.76391
USER: genes 14 Torsion [N]-C--CA-[N] |==|  0.32264
USER: genes 15 Torsion [C]-CA--N-[H1] |==|  0.84450
USER: genes 16 Torsion [C]-CA--CB-[CG2] |==|  0.50494
USER: genes 17 Torsion [CA]-CB--CG1-[CD1] |==|  0.39108
ROOT
ATOM      1  CA  ARG B   3       8.071  23.725  -9.658  0.50 56.69 LIG 0.18  C 
ENDROOT
BRANCH 1 2
ATOM      2  C   ARG B   3       6.857  22.831  -9.676  0.50 56.65 LIG 0.24  C 
ATOM      3 O    ARG B   3       6.838  21.722  -9.142  0.50 56.65 LIG-0.27  OA
ATOM      4  N   SER B   4       5.815  23.402 -10.266  0.50 56.58 LIG-0.34  N 
ATOM      5 H    SER B   4       5.770  24.247 -10.421  0.50 56.58 LIG 0.16  HD
BRANCH 4 6
ATOM      6  CA  SER B   4       4.649  22.673 -10.709  0.50 56.54 LIG 0.19  C 
BRANCH 6 7
ATOM      7  C   SER B   4       4.449  23.005 -12.181  0.50 56.54 LIG 0.22  C 
ATOM      8 O    SER B   4       5.408  23.270 -12.909  0.50 56.51 LIG-0.29  OA
ENDBRANCH 6 7
BRANCH 6 9
ATOM      9  CB  SER B   4       3.422  23.073  -9.889  0.50 56.54 LIG 0.20  C 
BRANCH 9 10
ATOM     10 OG   SER B   4       3.156  24.460 -10.004  0.50 56.48 LIG-0.40  OA
ATOM     11 HG   SER B   4       3.021  24.783  -9.241  0.50 56.48 LIG 0.21  HD
ENDBRANCH 9 10
ENDBRANCH 6 9
ENDBRANCH 4 6
ENDBRANCH 1 2
BRANCH 1 12
ATOM     12  CB  ARG B   3       8.626  23.688  -8.234  0.50 56.69 LIG 0.04  C 
BRANCH 12 13
ATOM     13  CG  ARG B   3       8.337  24.893  -7.359  0.50 56.67 LIG 0.02  C 
BRANCH 13 14
ATOM     14  CD  ARG B   3       7.571  24.538  -6.086  0.50 56.64 LIG 0.14  C 
BRANCH 14 15
ATOM     15  NE  ARG B   3       8.234  25.040  -4.877  0.50 56.60 LIG-0.23  N 
ATOM     16  CZ  ARG B   3       8.396  26.324  -4.562  0.50 56.66 LIG 0.67  C 
ATOM     17  NH2 ARG B   3       9.018  26.644  -3.432  0.50 56.73 LIG-0.23  N 
ATOM     18  NH1 ARG B   3       7.941  27.289  -5.355  0.50 56.69 LIG-0.23  N 
ATOM     19 22HH ARG B   3       9.128  27.471  -3.221  0.50 56.73 LIG 0.17  HD
ATOM     20 21HH ARG B   3       9.313  26.025  -2.913  0.50 56.73 LIG 0.17  HD
ATOM     21 12HH ARG B   3       8.054  28.113  -5.137  0.50 56.69 LIG 0.17  HD
ATOM     22 11HH ARG B   3       7.535  27.089  -6.086  0.50 56.69 LIG 0.17  HD
ATOM     23 HE   ARG B   3       8.544  24.456  -4.326  0.50 56.60 LIG 0.18  HD
ENDBRANCH 14 15
ENDBRANCH 13 14
ENDBRANCH 12 13
ENDBRANCH 1 12
BRANCH 1 24
ATOM     24  N   ARG B   3       7.895  25.114 -10.058  0.50 56.75 LIG-0.35  N 
ATOM     25  C   ILE B   2       8.846  25.743 -10.736  0.50 56.81 LIG 0.24  C 
ATOM     26 O    ILE B   2       9.772  25.143 -11.266  0.50 56.81 LIG-0.27  OA
ATOM     27 H    ARG B   3       7.148  25.469  -9.821  0.50 56.75 LIG 0.16  HD
BRANCH 25 28
ATOM     28  CA  ILE B   2       8.743  27.264 -10.828  0.50 56.86 LIG 0.18  C 
BRANCH 28 29
ATOM     29  N   ILE B   2       9.903  27.853 -10.169  0.50 56.91 LIG-0.35  N 
ATOM     30 H    ILE B   2      10.550  28.043 -10.702  0.50 56.91 LIG 0.16  HD
ATOM     31  C   ALA B   1       9.942  28.072  -8.859  0.50 56.95 LIG 0.25  C 
ATOM     32 O    ALA B   1       9.016  27.781  -8.101  0.50 56.96 LIG-0.27  OA
BRANCH 31 33
ATOM     33  CA  ALA B   1      11.222  28.708  -8.324  0.50 56.96 LIG 0.27  C 
ATOM     34  CB  ALA B   1      11.861  27.811  -7.275  0.50 56.98 LIG 0.05  C 
BRANCH 33 35
ATOM     35  N   ALA B   1      10.939  30.052  -7.745  0.50 56.97 LIG-0.07  N 
ATOM     36 H1   ALA B   1      10.543  30.562  -8.358  0.50 56.97 LIG 0.28  HD
ATOM     37 H3   ALA B   1      11.702  30.432  -7.491  0.50 56.97 LIG 0.28  HD
ATOM     38 H2   ALA B   1      10.402  29.964  -7.040  0.50 56.97 LIG 0.28  HD
ENDBRANCH 33 35
ENDBRANCH 31 33
ENDBRANCH 28 29
BRANCH 28 39
ATOM     39  CB  ILE B   2       8.686  27.738 -12.300  0.50 56.87 LIG 0.01  C 
ATOM     40  CG2 ILE B   2       8.626  29.269 -12.402  1.00 56.86 LIG 0.01  C 
BRANCH 39 41
ATOM     41  CG1 ILE B   2       9.866  27.155 -13.098  1.00 56.91 LIG 0.00  C 
ATOM     42  CD1 ILE B   2       9.533  26.712 -14.524  0.50 56.92 LIG 0.01  C 
ENDBRANCH 39 41
ENDBRANCH 28 39
ENDBRANCH 25 28
ENDBRANCH 1 24
TORSDOF 16
ENDMDL
MODEL 41
USER: ADFR SOLUTION from run 141
USER: SCORE 13.987327 LL:  -2.598 LR: -11.878 RR:   0.000 FEB:  -7.105
USER: RMSD 9.094842
USER: SEED 140
USER: STATUS no improvement in best 4 clusters for 5 generations
USER: GENES 18
USER: genes 0 Translation |==|  0.56711 0.67273 0.61919
USER: genes 1 Rotation |==|  0.67528 0.44269 0.03654 0.53456
USER: genes 2 Torsion [N]-CA--C-[N] |==|  0.10136
USER: genes 3 Torsion [C]-N--CA-[C] |==|  0.75788
USER: genes 4 Torsion [N]-CA--C-[O] |==|  0.08921
USER: genes 5 Torsion [N]-CA--CB-[OG] |==|  0.99656
USER: genes 6 Torsion [CA]-CB--OG-[HG] |==|  0.38856
USER: genes 7 Torsion [C]-CA--CB-[CG] |==|  0.28645
USER: genes 8 Torsion [CA]-CB--CG-[CD] |==|  0.25128
USER: genes 9 Torsion [CB]-CG--CD-[NE] |==|  0.06470
USER: genes 10 Torsion [CG]-CD--NE-[CZ] |==|  0.60939
USER: genes 11 Torsion [C]-CA--N-[C] |==|  0.62505
USER: genes 12 Torsion [N]-C--CA-[N] |==|  0.44114
USER: genes 13 Torsion [C]-CA--N-[C] |==|  0.61896
USER: genes 14 Torsion [N]-C--CA-[N] |==|  0.56233
USER: genes 15 Torsion [C]-CA--N-[H1] |==|  0.41817
USER: genes 16 Torsion [C]-CA--CB-[CG2] |==|  0.74853
USER: genes 17 Torsion [CA]-CB--CG1-[CD1] |==|  0.26324
ROOT
ATOM      1  CA  ARG B   3       5.783  23.202  -3.794  0.50 56.69 LIG 0.18  C 
ENDROOT
BRANCH 1 2
ATOM      2  C   ARG B   3       4.772  22.105  -3.574  0.50 56.65 LIG 0.24  C 
ATOM      3 O    ARG B   3       3.950  22.132  -2.657  0.50 56.65 LIG-0.27  OA
ATOM      4  N   SER B   4       4.832  21.164  -4.506  0.50 56.58 LIG-0.34  N 
ATOM      5 H    SER B   4       5.240  21.273  -5.255  0.50 56.58 LIG 0.16  HD
BRANCH 4 6
ATOM      6  CA  SER B   4       4.223  19.862  -4.368  0.50 56.54 LIG 0.19  C 
BRANCH 6 7
ATOM      7  C   SER B   4       5.235  18.968  -3.666  0.50 56.54 LIG 0.22  C 
ATOM      8 O    SER B   4       6.024  19.429  -2.838  0.50 56.51 LIG-0.29  OA
ENDBRANCH 6 7
BRANCH 6 9
ATOM      9  CB  SER B   4       3.852  19.293  -5.738  0.50 56.54 LIG 0.20  C 
BRANCH 9 10
ATOM     10 OG   SER B   4       4.177  20.201  -6.776  0.50 56.48 LIG-0.40  OA
ATOM     11 HG   SER B   4       4.493  19.778  -7.429  0.50 56.48 LIG 0.21  HD
ENDBRANCH 9 10
ENDBRANCH 6 9
ENDBRANCH 4 6
ENDBRANCH 1 2
BRANCH 1 12
ATOM     12  CB  ARG B   3       5.286  24.424  -3.024  0.50 56.69 LIG 0.04  C 
BRANCH 12 13
ATOM     13  CG  ARG B   3       5.976  24.728  -1.708  0.50 56.67 LIG 0.02  C 
BRANCH 13 14
ATOM     14  CD  ARG B   3       7.174  25.663  -1.863  0.50 56.64 LIG 0.14  C 
BRANCH 14 15
ATOM     15  NE  ARG B   3       7.090  26.481  -3.078  0.50 56.60 LIG-0.23  N 
ATOM     16  CZ  ARG B   3       8.111  26.787  -3.876  0.50 56.66 LIG 0.67  C 
ATOM     17  NH2 ARG B   3       7.897  27.542  -4.948  0.50 56.73 LIG-0.23  N 
ATOM     18  NH1 ARG B   3       9.339  26.347  -3.620  0.50 56.69 LIG-0.23  N 
ATOM     19 22HH ARG B   3       8.551  27.744  -5.469  0.50 56.73 LIG 0.17  HD
ATOM     20 21HH ARG B   3       7.105  27.828  -5.122  0.50 56.73 LIG 0.17  HD
ATOM     21 12HH ARG B   3       9.988  26.553  -4.145  0.50 56.69 LIG 0.17  HD
ATOM     22 11HH ARG B   3       9.484  25.855  -2.929  0.50 56.69 LIG 0.17  HD
ATOM     23 HE   ARG B   3       6.316  26.790  -3.292  0.50 56.60 LIG 0.18  HD
ENDBRANCH 14 15
ENDBRANCH 13 14
ENDBRANCH 12 13
ENDBRANCH 1 12
BRANCH 1 24
ATOM     24  N   ARG B   3       6.065  23.596  -5.168  0.50 56.75 LIG-0.35  N 
ATOM     25  C   ILE B   2       7.316  23.775  -5.571  0.50 56.81 LIG 0.24  C 
ATOM     26 O    ILE B   2       8.273  23.386  -4.916  0.50 56.81 LIG-0.27  OA
ATOM     27 H    ARG B   3       5.372  23.697  -5.667  0.50 56.75 LIG 0.16  HD
BRANCH 25 28
ATOM     28  CA  ILE B   2       7.520  24.500  -6.900  0.50 56.86 LIG 0.18  C 
BRANCH 28 29
ATOM     29  N   ILE B   2       8.873  25.043  -6.936  0.50 56.91 LIG-0.35  N 
ATOM     30 H    ILE B   2       9.475  24.505  -6.640  0.50 56.91 LIG 0.16  HD
ATOM     31  C   ALA B   1       9.138  26.264  -7.387  0.50 56.95 LIG 0.25  C 
ATOM     32 O    ALA B   1       8.267  27.034  -7.794  0.50 56.96 LIG-0.27  OA
BRANCH 31 33
ATOM     33  CA  ALA B   1      10.607  26.680  -7.372  0.50 56.96 LIG 0.27  C 
ATOM     34  CB  ALA B   1      11.311  26.094  -6.159  0.50 56.98 LIG 0.05  C 
BRANCH 33 35
ATOM     35  N   ALA B   1      10.732  28.165  -7.370  0.50 56.97 LIG-0.07  N 
ATOM     36 H1   ALA B   1      11.481  28.399  -6.950  0.50 56.97 LIG 0.28  HD
ATOM     37 H3   ALA B   1      10.033  28.521  -6.950  0.50 56.97 LIG 0.28  HD
ATOM     38 H2   ALA B   1      10.757  28.462  -8.209  0.50 56.97 LIG 0.28  HD
ENDBRANCH 33 35
ENDBRANCH 31 33
ENDBRANCH 28 29
BRANCH 28 39
ATOM     39  CB  ILE B   2       7.312  23.547  -8.101  0.50 56.87 LIG 0.01  C 
ATOM     40  CG2 ILE B   2       8.623  22.869  -8.523  1.00 56.86 LIG 0.01  C 
BRANCH 39 41
ATOM     41  CG1 ILE B   2       6.209  22.520  -7.787  1.00 56.91 LIG 0.00  C 
ATOM     42  CD1 ILE B   2       4.809  22.895  -8.275  0.50 56.92 LIG 0.01  C 
ENDBRANCH 39 41
ENDBRANCH 28 39
ENDBRANCH 25 28
ENDBRANCH 1 24
TORSDOF 16
ENDMDL
MODEL 42
USER: ADFR SOLUTION from run 105
USER: SCORE 13.844583 LL:  -2.698 LR: -11.874 RR:   0.000 FEB:  -7.101
USER: RMSD 10.290184
USER: SEED 104
USER: STATUS no improvement in best 10 clusters for 5 generations
USER: GENES 18
USER: genes 0 Translation |==|  0.66205 0.66760 0.47732
USER: genes 1 Rotation |==|  0.28997 0.24679 0.87612 0.51753
USER: genes 2 Torsion [N]-CA--C-[N] |==|  0.93334
USER: genes 3 Torsion [C]-N--CA-[C] |==|  0.69017
USER: genes 4 Torsion [N]-CA--C-[O] |==|  0.14481
USER: genes 5 Torsion [N]-CA--CB-[OG] |==|  0.00967
USER: genes 6 Torsion [CA]-CB--OG-[HG] |==|  0.08596
USER: genes 7 Torsion [C]-CA--CB-[CG] |==|  0.46302
USER: genes 8 Torsion [CA]-CB--CG-[CD] |==|  0.93826
USER: genes 9 Torsion [CB]-CG--CD-[NE] |==|  0.69914
USER: genes 10 Torsion [CG]-CD--NE-[CZ] |==|  0.24026
USER: genes 11 Torsion [C]-CA--N-[C] |==|  0.67400
USER: genes 12 Torsion [N]-C--CA-[N] |==|  0.21519
USER: genes 13 Torsion [C]-CA--N-[C] |==|  0.79658
USER: genes 14 Torsion [N]-C--CA-[N] |==|  0.22835
USER: genes 15 Torsion [C]-CA--N-[H1] |==|  0.25626
USER: genes 16 Torsion [C]-CA--CB-[CG2] |==|  0.42651
USER: genes 17 Torsion [CA]-CB--CG1-[CD1] |==|  0.54237
ROOT
ATOM      1  CA  ARG B   3       8.632  23.048  -8.050  0.50 56.69 LIG 0.18  C 
ENDROOT
BRANCH 1 2
ATOM      2  C   ARG B   3       8.050  22.454  -9.309  0.50 56.65 LIG 0.24  C 
ATOM      3 O    ARG B   3       8.247  21.287  -9.648  0.50 56.65 LIG-0.27  OA
ATOM      4  N   SER B   4       7.264  23.305  -9.955  0.50 56.58 LIG-0.34  N 
ATOM      5 H    SER B   4       6.953  24.021  -9.594  0.50 56.58 LIG 0.16  HD
BRANCH 4 6
ATOM      6  CA  SER B   4       6.848  23.124 -11.327  0.50 56.54 LIG 0.19  C 
BRANCH 6 7
ATOM      7  C   SER B   4       7.530  24.210 -12.146  0.50 56.54 LIG 0.22  C 
ATOM      8 O    SER B   4       8.749  24.383 -12.082  0.50 56.51 LIG-0.29  OA
ENDBRANCH 6 7
BRANCH 6 9
ATOM      9  CB  SER B   4       5.327  23.228 -11.445  0.50 56.54 LIG 0.20  C 
BRANCH 9 10
ATOM     10 OG   SER B   4       4.735  23.551 -10.199  0.50 56.48 LIG-0.40  OA
ATOM     11 HG   SER B   4       5.265  24.022  -9.750  0.50 56.48 LIG 0.21  HD
ENDBRANCH 9 10
ENDBRANCH 6 9
ENDBRANCH 4 6
ENDBRANCH 1 2
BRANCH 1 12
ATOM     12  CB  ARG B   3       7.769  22.554  -6.889  0.50 56.69 LIG 0.04  C 
BRANCH 12 13
ATOM     13  CG  ARG B   3       8.326  22.756  -5.492  0.50 56.67 LIG 0.02  C 
BRANCH 13 14
ATOM     14  CD  ARG B   3       9.845  22.918  -5.471  0.50 56.64 LIG 0.14  C 
BRANCH 14 15
ATOM     15  NE  ARG B   3      10.523  21.744  -4.909  0.50 56.60 LIG-0.23  N 
ATOM     16  CZ  ARG B   3      10.882  20.659  -5.592  0.50 56.66 LIG 0.67  C 
ATOM     17  NH2 ARG B   3      11.492  19.662  -4.958  0.50 56.73 LIG-0.23  N 
ATOM     18  NH1 ARG B   3      10.646  20.557  -6.896  0.50 56.69 LIG-0.23  N 
ATOM     19 22HH ARG B   3      11.727  18.957  -5.391  0.50 56.73 LIG 0.17  HD
ATOM     20 21HH ARG B   3      11.650  19.722  -4.115  0.50 56.73 LIG 0.17  HD
ATOM     21 12HH ARG B   3      10.884  19.849  -7.322  0.50 56.69 LIG 0.17  HD
ATOM     22 11HH ARG B   3      10.254  21.200  -7.313  0.50 56.69 LIG 0.17  HD
ATOM     23 HE   ARG B   3      10.704  21.759  -4.068  0.50 56.60 LIG 0.18  HD
ENDBRANCH 14 15
ENDBRANCH 13 14
ENDBRANCH 12 13
ENDBRANCH 1 12
BRANCH 1 24
ATOM     24  N   ARG B   3       8.738  24.499  -7.973  0.50 56.75 LIG-0.35  N 
ATOM     25  C   ILE B   2       9.925  25.079  -7.864  0.50 56.81 LIG 0.24  C 
ATOM     26 O    ILE B   2      10.967  24.474  -8.074  0.50 56.81 LIG-0.27  OA
ATOM     27 H    ARG B   3       7.989  24.920  -8.003  0.50 56.75 LIG 0.16  HD
BRANCH 25 28
ATOM     28  CA  ILE B   2       9.943  26.551  -7.455  0.50 56.86 LIG 0.18  C 
BRANCH 28 29
ATOM     29  N   ILE B   2       9.707  26.642  -6.019  0.50 56.91 LIG-0.35  N 
ATOM     30 H    ILE B   2      10.405  26.846  -5.561  0.50 56.91 LIG 0.16  HD
ATOM     31  C   ALA B   1       8.512  26.426  -5.480  0.50 56.95 LIG 0.25  C 
ATOM     32 O    ALA B   1       7.521  26.119  -6.143  0.50 56.96 LIG-0.27  OA
BRANCH 31 33
ATOM     33  CA  ALA B   1       8.425  26.574  -3.963  0.50 56.96 LIG 0.27  C 
ATOM     34  CB  ALA B   1       7.262  25.760  -3.417  0.50 56.98 LIG 0.05  C 
BRANCH 33 35
ATOM     35  N   ALA B   1       8.270  28.006  -3.582  0.50 56.97 LIG-0.07  N 
ATOM     36 H1   ALA B   1       7.405  28.204  -3.515  0.50 56.97 LIG 0.28  HD
ATOM     37 H3   ALA B   1       8.644  28.521  -4.204  0.50 56.97 LIG 0.28  HD
ATOM     38 H2   ALA B   1       8.669  28.150  -2.799  0.50 56.97 LIG 0.28  HD
ENDBRANCH 33 35
ENDBRANCH 31 33
ENDBRANCH 28 29
BRANCH 28 39
ATOM     39  CB  ILE B   2      11.297  27.217  -7.801  0.50 56.87 LIG 0.01  C 
ATOM     40  CG2 ILE B   2      11.147  28.728  -8.021  1.00 56.86 LIG 0.01  C 
BRANCH 39 41
ATOM     41  CG1 ILE B   2      12.346  26.895  -6.721  1.00 56.91 LIG 0.00  C 
ATOM     42  CD1 ILE B   2      13.598  27.772  -6.746  0.50 56.92 LIG 0.01  C 
ENDBRANCH 39 41
ENDBRANCH 28 39
ENDBRANCH 25 28
ENDBRANCH 1 24
TORSDOF 16
ENDMDL
MODEL 43
USER: ADFR SOLUTION from run 4
USER: SCORE 14.131224 LL:  -2.296 LR: -11.873 RR:   0.000 FEB:  -7.100
USER: RMSD 9.897813
USER: SEED 572762
USER: STATUS no improvement in best 6 clusters for 5 generations
USER: GENES 18
USER: genes 0 Translation |==|  0.63806 0.69869 0.56989
USER: genes 1 Rotation |==|  0.68987 0.55516 0.21155 0.85735
USER: genes 2 Torsion [N]-CA--C-[N] |==|  0.94916
USER: genes 3 Torsion [C]-N--CA-[C] |==|  0.49074
USER: genes 4 Torsion [N]-CA--C-[O] |==|  0.03559
USER: genes 5 Torsion [N]-CA--CB-[OG] |==|  0.48170
USER: genes 6 Torsion [CA]-CB--OG-[HG] |==|  0.25606
USER: genes 7 Torsion [C]-CA--CB-[CG] |==|  0.20158
USER: genes 8 Torsion [CA]-CB--CG-[CD] |==|  0.10510
USER: genes 9 Torsion [CB]-CG--CD-[NE] |==|  0.08371
USER: genes 10 Torsion [CG]-CD--NE-[CZ] |==|  0.66870
USER: genes 11 Torsion [C]-CA--N-[C] |==|  0.82778
USER: genes 12 Torsion [N]-C--CA-[N] |==|  0.41686
USER: genes 13 Torsion [C]-CA--N-[C] |==|  0.82136
USER: genes 14 Torsion [N]-C--CA-[N] |==|  0.53001
USER: genes 15 Torsion [C]-CA--N-[H1] |==|  0.95836
USER: genes 16 Torsion [C]-CA--CB-[CG2] |==|  0.11650
USER: genes 17 Torsion [CA]-CB--CG1-[CD1] |==|  0.21990
ROOT
ATOM      1  CA  ARG B   3       7.912  23.981  -5.273  0.50 56.69 LIG 0.18  C 
ENDROOT
BRANCH 1 2
ATOM      2  C   ARG B   3       8.959  22.968  -4.882  0.50 56.65 LIG 0.24  C 
ATOM      3 O    ARG B   3       9.369  22.846  -3.728  0.50 56.65 LIG-0.27  OA
ATOM      4  N   SER B   4       9.325  22.198  -5.898  0.50 56.58 LIG-0.34  N 
ATOM      5 H    SER B   4       8.871  22.137  -6.626  0.50 56.58 LIG 0.16  HD
BRANCH 4 6
ATOM      6  CA  SER B   4      10.518  21.383  -5.894  0.50 56.54 LIG 0.19  C 
BRANCH 6 7
ATOM      7  C   SER B   4      10.527  20.600  -7.198  0.50 56.54 LIG 0.22  C 
ATOM      8 O    SER B   4       9.762  20.891  -8.120  0.50 56.51 LIG-0.29  OA
ENDBRANCH 6 7
BRANCH 6 9
ATOM      9  CB  SER B   4      10.519  20.439  -4.691  0.50 56.54 LIG 0.20  C 
BRANCH 9 10
ATOM     10 OG   SER B   4      11.605  19.530  -4.752  0.50 56.48 LIG-0.40  OA
ATOM     11 HG   SER B   4      12.261  19.849  -4.337  0.50 56.48 LIG 0.21  HD
ENDBRANCH 9 10
ENDBRANCH 6 9
ENDBRANCH 4 6
ENDBRANCH 1 2
BRANCH 1 12
ATOM     12  CB  ARG B   3       6.580  23.479  -4.716  0.50 56.69 LIG 0.04  C 
BRANCH 12 13
ATOM     13  CG  ARG B   3       6.389  23.576  -3.214  0.50 56.67 LIG 0.02  C 
BRANCH 13 14
ATOM     14  CD  ARG B   3       6.989  24.847  -2.616  0.50 56.64 LIG 0.14  C 
BRANCH 14 15
ATOM     15  NE  ARG B   3       6.975  25.970  -3.561  0.50 56.60 LIG-0.23  N 
ATOM     16  CZ  ARG B   3       8.049  26.616  -4.010  0.50 56.66 LIG 0.67  C 
ATOM     17  NH2 ARG B   3       7.895  27.621  -4.866  0.50 56.73 LIG-0.23  N 
ATOM     18  NH1 ARG B   3       9.272  26.270  -3.620  0.50 56.69 LIG-0.23  N 
ATOM     19 22HH ARG B   3       8.584  28.044  -5.161  0.50 56.73 LIG 0.17  HD
ATOM     20 21HH ARG B   3       7.107  27.848  -5.125  0.50 56.73 LIG 0.17  HD
ATOM     21 12HH ARG B   3       9.956  26.698  -3.919  0.50 56.69 LIG 0.17  HD
ATOM     22 11HH ARG B   3       9.379  25.619  -3.068  0.50 56.69 LIG 0.17  HD
ATOM     23 HE   ARG B   3       6.207  26.232  -3.849  0.50 56.60 LIG 0.18  HD
ENDBRANCH 14 15
ENDBRANCH 13 14
ENDBRANCH 12 13
ENDBRANCH 1 12
BRANCH 1 24
ATOM     24  N   ARG B   3       7.748  24.271  -6.691  0.50 56.75 LIG-0.35  N 
ATOM     25  C   ILE B   2       8.749  24.791  -7.389  0.50 56.81 LIG 0.24  C 
ATOM     26 O    ILE B   2       9.895  24.814  -6.964  0.50 56.81 LIG-0.27  OA
ATOM     27 H    ARG B   3       6.973  24.081  -7.014  0.50 56.75 LIG 0.16  HD
BRANCH 25 28
ATOM     28  CA  ILE B   2       8.409  25.372  -8.761  0.50 56.86 LIG 0.18  C 
BRANCH 28 29
ATOM     29  N   ILE B   2       9.337  26.460  -9.052  0.50 56.91 LIG-0.35  N 
ATOM     30 H    ILE B   2       9.850  26.312  -9.726  0.50 56.91 LIG 0.16  HD
ATOM     31  C   ALA B   1       9.375  27.574  -8.330  0.50 56.95 LIG 0.25  C 
ATOM     32 O    ALA B   1       8.648  27.770  -7.356  0.50 56.96 LIG-0.27  OA
BRANCH 31 33
ATOM     33  CA  ALA B   1      10.393  28.624  -8.771  0.50 56.96 LIG 0.27  C 
ATOM     34  CB  ALA B   1      11.746  27.977  -9.022  0.50 56.98 LIG 0.05  C 
BRANCH 33 35
ATOM     35  N   ALA B   1      10.520  29.696  -7.745  0.50 56.97 LIG-0.07  N 
ATOM     36 H1   ALA B   1       9.836  29.647  -7.177  0.50 56.97 LIG 0.28  HD
ATOM     37 H3   ALA B   1      10.517  30.491  -8.145  0.50 56.97 LIG 0.28  HD
ATOM     38 H2   ALA B   1      11.283  29.592  -7.299  0.50 56.97 LIG 0.28  HD
ENDBRANCH 33 35
ENDBRANCH 31 33
ENDBRANCH 28 29
BRANCH 28 39
ATOM     39  CB  ILE B   2       8.506  24.298  -9.870  0.50 56.87 LIG 0.01  C 
ATOM     40  CG2 ILE B   2       7.903  22.960  -9.419  1.00 56.86 LIG 0.01  C 
BRANCH 39 41
ATOM     41  CG1 ILE B   2       7.861  24.809 -11.171  1.00 56.91 LIG 0.00  C 
ATOM     42  CD1 ILE B   2       8.726  25.762 -11.998  0.50 56.92 LIG 0.01  C 
ENDBRANCH 39 41
ENDBRANCH 28 39
ENDBRANCH 25 28
ENDBRANCH 1 24
TORSDOF 16
ENDMDL
MODEL 44
USER: ADFR SOLUTION from run 144
USER: SCORE 13.791046 LL:  -2.459 LR: -11.862 RR:   0.000 FEB:  -7.089
USER: RMSD 8.281172
USER: SEED 143
USER: STATUS no improvement in best 6 clusters for 5 generations
USER: GENES 18
USER: genes 0 Translation |==|  0.54776 0.62010 0.54667
USER: genes 1 Rotation |==|  0.18913 0.22479 0.71559 0.67648
USER: genes 2 Torsion [N]-CA--C-[N] |==|  0.16006
USER: genes 3 Torsion [C]-N--CA-[C] |==|  0.80803
USER: genes 4 Torsion [N]-CA--C-[O] |==|  0.17830
USER: genes 5 Torsion [N]-CA--CB-[OG] |==|  0.79025
USER: genes 6 Torsion [CA]-CB--OG-[HG] |==|  0.88903
USER: genes 7 Torsion [C]-CA--CB-[CG] |==|  0.38429
USER: genes 8 Torsion [CA]-CB--CG-[CD] |==|  0.86999
USER: genes 9 Torsion [CB]-CG--CD-[NE] |==|  0.39384
USER: genes 10 Torsion [CG]-CD--NE-[CZ] |==|  0.31129
USER: genes 11 Torsion [C]-CA--N-[C] |==|  0.15753
USER: genes 12 Torsion [N]-C--CA-[N] |==|  0.31114
USER: genes 13 Torsion [C]-CA--N-[C] |==|  0.80513
USER: genes 14 Torsion [N]-C--CA-[N] |==|  0.06980
USER: genes 15 Torsion [C]-CA--N-[H1] |==|  0.76954
USER: genes 16 Torsion [C]-CA--CB-[CG2] |==|  0.11613
USER: genes 17 Torsion [CA]-CB--CG1-[CD1] |==|  0.17671
ROOT
ATOM      1  CA  ARG B   3       5.203  21.623  -5.970  0.50 56.69 LIG 0.18  C 
ENDROOT
BRANCH 1 2
ATOM      2  C   ARG B   3       5.022  22.277  -7.317  0.50 56.65 LIG 0.24  C 
ATOM      3 O    ARG B   3       3.917  22.570  -7.772  0.50 56.65 LIG-0.27  OA
ATOM      4  N   SER B   4       6.178  22.553  -7.906  0.50 56.58 LIG-0.34  N 
ATOM      5 H    SER B   4       6.928  22.559  -7.485  0.50 56.58 LIG 0.16  HD
BRANCH 4 6
ATOM      6  CA  SER B   4       6.303  22.870  -9.310  0.50 56.54 LIG 0.19  C 
BRANCH 6 7
ATOM      7  C   SER B   4       5.999  21.596 -10.084  0.50 56.54 LIG 0.22  C 
ATOM      8 O    SER B   4       4.881  21.077 -10.040  0.50 56.51 LIG-0.29  OA
ENDBRANCH 6 7
BRANCH 6 9
ATOM      9  CB  SER B   4       7.712  23.373  -9.624  0.50 56.54 LIG 0.20  C 
BRANCH 9 10
ATOM     10 OG   SER B   4       7.895  24.705  -9.174  0.50 56.48 LIG-0.40  OA
ATOM     11 HG   SER B   4       7.199  25.150  -9.326  0.50 56.48 LIG 0.21  HD
ENDBRANCH 9 10
ENDBRANCH 6 9
ENDBRANCH 4 6
ENDBRANCH 1 2
BRANCH 1 12
ATOM     12  CB  ARG B   3       3.803  21.360  -5.415  0.50 56.69 LIG 0.04  C 
BRANCH 12 13
ATOM     13  CG  ARG B   3       3.582  20.026  -4.727  0.50 56.67 LIG 0.02  C 
BRANCH 13 14
ATOM     14  CD  ARG B   3       4.133  18.844  -5.522  0.50 56.64 LIG 0.14  C 
BRANCH 14 15
ATOM     15  NE  ARG B   3       4.739  17.825  -4.658  0.50 56.60 LIG-0.23  N 
ATOM     16  CZ  ARG B   3       4.260  16.599  -4.456  0.50 56.66 LIG 0.67  C 
ATOM     17  NH2 ARG B   3       4.909  15.771  -3.644  0.50 56.73 LIG-0.23  N 
ATOM     18  NH1 ARG B   3       3.147  16.189  -5.056  0.50 56.69 LIG-0.23  N 
ATOM     19 22HH ARG B   3       4.606  14.977  -3.507  0.50 56.73 LIG 0.17  HD
ATOM     20 21HH ARG B   3       5.631  16.028  -3.254  0.50 56.73 LIG 0.17  HD
ATOM     21 12HH ARG B   3       2.850  15.394  -4.915  0.50 56.69 LIG 0.17  HD
ATOM     22 11HH ARG B   3       2.724  16.718  -5.585  0.50 56.69 LIG 0.17  HD
ATOM     23 HE   ARG B   3       5.465  18.037  -4.247  0.50 56.60 LIG 0.18  HD
ENDBRANCH 14 15
ENDBRANCH 13 14
ENDBRANCH 12 13
ENDBRANCH 1 12
BRANCH 1 24
ATOM     24  N   ARG B   3       5.979  22.341  -4.967  0.50 56.75 LIG-0.35  N 
ATOM     25  C   ILE B   2       5.628  23.566  -4.599  0.50 56.81 LIG 0.24  C 
ATOM     26 O    ILE B   2       4.536  24.041  -4.876  0.50 56.81 LIG-0.27  OA
ATOM     27 H    ARG B   3       6.654  21.911  -4.654  0.50 56.75 LIG 0.16  HD
BRANCH 25 28
ATOM     28  CA  ILE B   2       6.657  24.374  -3.810  0.50 56.86 LIG 0.18  C 
BRANCH 28 29
ATOM     29  N   ILE B   2       7.116  25.484  -4.638  0.50 56.91 LIG-0.35  N 
ATOM     30 H    ILE B   2       6.847  26.255  -4.371  0.50 56.91 LIG 0.16  HD
ATOM     31  C   ALA B   1       7.883  25.303  -5.708  0.50 56.95 LIG 0.25  C 
ATOM     32 O    ALA B   1       8.250  24.193  -6.092  0.50 56.96 LIG-0.27  OA
BRANCH 31 33
ATOM     33  CA  ALA B   1       8.291  26.567  -6.460  0.50 56.96 LIG 0.27  C 
ATOM     34  CB  ALA B   1       9.676  26.398  -7.067  0.50 56.98 LIG 0.05  C 
BRANCH 33 35
ATOM     35  N   ALA B   1       8.270  27.749  -5.554  0.50 56.97 LIG-0.07  N 
ATOM     36 H1   ALA B   1       7.439  28.064  -5.495  0.50 56.97 LIG 0.28  HD
ATOM     37 H3   ALA B   1       8.804  28.382  -5.879  0.50 56.97 LIG 0.28  HD
ATOM     38 H2   ALA B   1       8.554  27.509  -4.745  0.50 56.97 LIG 0.28  HD
ENDBRANCH 33 35
ENDBRANCH 31 33
ENDBRANCH 28 29
BRANCH 28 39
ATOM     39  CB  ILE B   2       6.055  24.923  -2.494  0.50 56.87 LIG 0.01  C 
ATOM     40  CG2 ILE B   2       5.176  23.879  -1.792  1.00 56.86 LIG 0.01  C 
BRANCH 39 41
ATOM     41  CG1 ILE B   2       7.171  25.448  -1.572  1.00 56.91 LIG 0.00  C 
ATOM     42  CD1 ILE B   2       7.961  26.639  -2.116  0.50 56.92 LIG 0.01  C 
ENDBRANCH 39 41
ENDBRANCH 28 39
ENDBRANCH 25 28
ENDBRANCH 1 24
TORSDOF 16
ENDMDL
MODEL 45
USER: ADFR SOLUTION from run 154
USER: SCORE 13.950372 LL:  -2.497 LR: -11.825 RR:   0.000 FEB:  -7.053
USER: RMSD 9.352291
USER: SEED 153
USER: STATUS no improvement in best 10 clusters for 5 generations
USER: GENES 18
USER: genes 0 Translation |==|  0.64702 0.68526 0.47660
USER: genes 1 Rotation |==|  0.19046 0.84194 0.34772 0.61863
USER: genes 2 Torsion [N]-CA--C-[N] |==|  0.32367
USER: genes 3 Torsion [C]-N--CA-[C] |==|  0.72465
USER: genes 4 Torsion [N]-CA--C-[O] |==|  0.22947
USER: genes 5 Torsion [N]-CA--CB-[OG] |==|  0.02448
USER: genes 6 Torsion [CA]-CB--OG-[HG] |==|  0.11674
USER: genes 7 Torsion [C]-CA--CB-[CG] |==|  0.64046
USER: genes 8 Torsion [CA]-CB--CG-[CD] |==|  0.24095
USER: genes 9 Torsion [CB]-CG--CD-[NE] |==|  0.63794
USER: genes 10 Torsion [CG]-CD--NE-[CZ] |==|  0.52448
USER: genes 11 Torsion [C]-CA--N-[C] |==|  0.79882
USER: genes 12 Torsion [N]-C--CA-[N] |==|  0.21467
USER: genes 13 Torsion [C]-CA--N-[C] |==|  0.77222
USER: genes 14 Torsion [N]-C--CA-[N] |==|  0.61580
USER: genes 15 Torsion [C]-CA--N-[H1] |==|  0.80541
USER: genes 16 Torsion [C]-CA--CB-[CG2] |==|  0.11163
USER: genes 17 Torsion [CA]-CB--CG1-[CD1] |==|  0.79343
ROOT
ATOM      1  CA  ARG B   3       8.181  23.578  -8.072  0.50 56.69 LIG 0.18  C 
ENDROOT
BRANCH 1 2
ATOM      2  C   ARG B   3       7.788  22.714  -9.245  0.50 56.65 LIG 0.24  C 
ATOM      3 O    ARG B   3       8.196  21.561  -9.388  0.50 56.65 LIG-0.27  OA
ATOM      4  N   SER B   4       6.919  23.312 -10.047  0.50 56.58 LIG-0.34  N 
ATOM      5 H    SER B   4       6.471  24.009  -9.816  0.50 56.58 LIG 0.16  HD
BRANCH 4 6
ATOM      6  CA  SER B   4       6.630  22.862 -11.389  0.50 56.54 LIG 0.19  C 
BRANCH 6 7
ATOM      7  C   SER B   4       7.437  23.737 -12.337  0.50 56.54 LIG 0.22  C 
ATOM      8 O    SER B   4       8.623  23.493 -12.571  0.50 56.51 LIG-0.29  OA
ENDBRANCH 6 7
BRANCH 6 9
ATOM      9  CB  SER B   4       5.134  22.977 -11.684  0.50 56.54 LIG 0.20  C 
BRANCH 9 10
ATOM     10 OG   SER B   4       4.458  23.675 -10.652  0.50 56.48 LIG-0.40  OA
ATOM     11 HG   SER B   4       4.918  24.336 -10.413  0.50 56.48 LIG 0.21  HD
ENDBRANCH 9 10
ENDBRANCH 6 9
ENDBRANCH 4 6
ENDBRANCH 1 2
BRANCH 1 12
ATOM     12  CB  ARG B   3       9.696  23.765  -8.148  0.50 56.69 LIG 0.04  C 
BRANCH 12 13
ATOM     13  CG  ARG B   3      10.483  23.475  -6.884  0.50 56.67 LIG 0.02  C 
BRANCH 13 14
ATOM     14  CD  ARG B   3      10.871  22.005  -6.745  0.50 56.64 LIG 0.14  C 
BRANCH 14 15
ATOM     15  NE  ARG B   3      10.531  21.460  -5.426  0.50 56.60 LIG-0.23  N 
ATOM     16  CZ  ARG B   3      10.898  20.266  -4.965  0.50 56.66 LIG 0.67  C 
ATOM     17  NH2 ARG B   3      10.520  19.892  -3.747  0.50 56.73 LIG-0.23  N 
ATOM     18  NH1 ARG B   3      11.641  19.444  -5.700  0.50 56.69 LIG-0.23  N 
ATOM     19 22HH ARG B   3      10.752  19.122  -3.441  0.50 56.73 LIG 0.17  HD
ATOM     20 21HH ARG B   3      10.042  20.419  -3.264  0.50 56.73 LIG 0.17  HD
ATOM     21 12HH ARG B   3      11.869  18.676  -5.388  0.50 56.69 LIG 0.17  HD
ATOM     22 11HH ARG B   3      11.892  19.680  -6.488  0.50 56.69 LIG 0.17  HD
ATOM     23 HE   ARG B   3      10.054  21.953  -4.906  0.50 56.60 LIG 0.18  HD
ENDBRANCH 14 15
ENDBRANCH 13 14
ENDBRANCH 12 13
ENDBRANCH 1 12
BRANCH 1 24
ATOM     24  N   ARG B   3       7.832  23.107  -6.738  0.50 56.75 LIG-0.35  N 
ATOM     25  C   ILE B   2       6.571  23.131  -6.327  0.50 56.81 LIG 0.24  C 
ATOM     26 O    ILE B   2       5.638  23.298  -7.100  0.50 56.81 LIG-0.27  OA
ATOM     27 H    ARG B   3       8.494  22.826  -6.267  0.50 56.75 LIG 0.16  HD
BRANCH 25 28
ATOM     28  CA  ILE B   2       6.325  22.944  -4.831  0.50 56.86 LIG 0.18  C 
BRANCH 28 29
ATOM     29  N   ILE B   2       6.633  24.194  -4.146  0.50 56.91 LIG-0.35  N 
ATOM     30 H    ILE B   2       5.945  24.681  -3.977  0.50 56.91 LIG 0.16  HD
ATOM     31  C   ALA B   1       7.873  24.538  -3.816  0.50 56.95 LIG 0.25  C 
ATOM     32 O    ALA B   1       8.856  23.841  -4.076  0.50 56.96 LIG-0.27  OA
BRANCH 31 33
ATOM     33  CA  ALA B   1       8.029  25.871  -3.090  0.50 56.96 LIG 0.27  C 
ATOM     34  CB  ALA B   1       6.770  26.709  -3.245  0.50 56.98 LIG 0.05  C 
BRANCH 33 35
ATOM     35  N   ALA B   1       9.209  26.618  -3.609  0.50 56.97 LIG-0.07  N 
ATOM     36 H1   ALA B   1       9.956  26.206  -3.356  0.50 56.97 LIG 0.28  HD
ATOM     37 H3   ALA B   1       9.202  27.446  -3.284  0.50 56.97 LIG 0.28  HD
ATOM     38 H2   ALA B   1       9.174  26.649  -4.498  0.50 56.97 LIG 0.28  HD
ENDBRANCH 33 35
ENDBRANCH 31 33
ENDBRANCH 28 29
BRANCH 28 39
ATOM     39  CB  ILE B   2       4.858  22.544  -4.545  0.50 56.87 LIG 0.01  C 
ATOM     40  CG2 ILE B   2       4.330  21.541  -5.580  1.00 56.86 LIG 0.01  C 
BRANCH 39 41
ATOM     41  CG1 ILE B   2       4.717  22.013  -3.107  1.00 56.91 LIG 0.00  C 
ATOM     42  CD1 ILE B   2       5.274  20.608  -2.872  0.50 56.92 LIG 0.01  C 
ENDBRANCH 39 41
ENDBRANCH 28 39
ENDBRANCH 25 28
ENDBRANCH 1 24
TORSDOF 16
ENDMDL
MODEL 46
USER: ADFR SOLUTION from run 75
USER: SCORE 13.600789 LL:  -2.097 LR: -11.827 RR:   0.000 FEB:  -7.054
USER: RMSD 8.791943
USER: SEED 74
USER: STATUS no improvement in best 14 clusters for 5 generations
USER: GENES 18
USER: genes 0 Translation |==|  0.55979 0.64790 0.51638
USER: genes 1 Rotation |==|  0.79546 0.26774 0.46364 0.82778
USER: genes 2 Torsion [N]-CA--C-[N] |==|  0.19258
USER: genes 3 Torsion [C]-N--CA-[C] |==|  0.84917
USER: genes 4 Torsion [N]-CA--C-[O] |==|  0.19223
USER: genes 5 Torsion [N]-CA--CB-[OG] |==|  0.06966
USER: genes 6 Torsion [CA]-CB--OG-[HG] |==|  0.25768
USER: genes 7 Torsion [C]-CA--CB-[CG] |==|  0.23953
USER: genes 8 Torsion [CA]-CB--CG-[CD] |==|  0.28987
USER: genes 9 Torsion [CB]-CG--CD-[NE] |==|  0.67479
USER: genes 10 Torsion [CG]-CD--NE-[CZ] |==|  0.56679
USER: genes 11 Torsion [C]-CA--N-[C] |==|  0.77778
USER: genes 12 Torsion [N]-C--CA-[N] |==|  0.39835
USER: genes 13 Torsion [C]-CA--N-[C] |==|  0.76231
USER: genes 14 Torsion [N]-C--CA-[N] |==|  0.86593
USER: genes 15 Torsion [C]-CA--N-[H1] |==|  0.14627
USER: genes 16 Torsion [C]-CA--CB-[CG2] |==|  0.95735
USER: genes 17 Torsion [CA]-CB--CG1-[CD1] |==|  0.64132
ROOT
ATOM      1  CA  ARG B   3       5.564  22.457  -6.879  0.50 56.69 LIG 0.18  C 
ENDROOT
BRANCH 1 2
ATOM      2  C   ARG B   3       5.095  21.763  -5.624  0.50 56.65 LIG 0.24  C 
ATOM      3 O    ARG B   3       4.669  20.608  -5.623  0.50 56.65 LIG-0.27  OA
ATOM      4  N   SER B   4       5.258  22.509  -4.540  0.50 56.58 LIG-0.34  N 
ATOM      5 H    SER B   4       5.763  23.204  -4.523  0.50 56.58 LIG 0.16  HD
BRANCH 4 6
ATOM      6  CA  SER B   4       4.610  22.236  -3.278  0.50 56.54 LIG 0.19  C 
BRANCH 6 7
ATOM      7  C   SER B   4       3.116  22.145  -3.555  0.50 56.54 LIG 0.22  C 
ATOM      8 O    SER B   4       2.645  21.204  -4.197  0.50 56.51 LIG-0.29  OA
ENDBRANCH 6 7
BRANCH 6 9
ATOM      9  CB  SER B   4       4.910  23.345  -2.269  0.50 56.54 LIG 0.20  C 
BRANCH 9 10
ATOM     10 OG   SER B   4       5.219  24.564  -2.922  0.50 56.48 LIG-0.40  OA
ATOM     11 HG   SER B   4       4.520  25.021  -3.008  0.50 56.48 LIG 0.21  HD
ENDBRANCH 9 10
ENDBRANCH 6 9
ENDBRANCH 4 6
ENDBRANCH 1 2
BRANCH 1 12
ATOM     12  CB  ARG B   3       5.050  21.633  -8.059  0.50 56.69 LIG 0.04  C 
BRANCH 12 13
ATOM     13  CG  ARG B   3       3.648  21.942  -8.547  0.50 56.67 LIG 0.02  C 
BRANCH 13 14
ATOM     14  CD  ARG B   3       3.629  22.741  -9.848  0.50 56.64 LIG 0.14  C 
BRANCH 14 15
ATOM     15  NE  ARG B   3       3.012  24.062  -9.684  0.50 56.60 LIG-0.23  N 
ATOM     16  CZ  ARG B   3       2.451  24.779 -10.655  0.50 56.66 LIG 0.67  C 
ATOM     17  NH2 ARG B   3       1.926  25.966 -10.370  0.50 56.73 LIG-0.23  N 
ATOM     18  NH1 ARG B   3       2.402  24.325 -11.904  0.50 56.69 LIG-0.23  N 
ATOM     19 22HH ARG B   3       1.562  26.436 -10.992  0.50 56.73 LIG 0.17  HD
ATOM     20 21HH ARG B   3       1.951  26.265  -9.564  0.50 56.73 LIG 0.17  HD
ATOM     21 12HH ARG B   3       2.037  24.801 -12.521  0.50 56.69 LIG 0.17  HD
ATOM     22 11HH ARG B   3       2.737  23.557 -12.096  0.50 56.69 LIG 0.17  HD
ATOM     23 HE   ARG B   3       3.012  24.401  -8.893  0.50 56.60 LIG 0.18  HD
ENDBRANCH 14 15
ENDBRANCH 13 14
ENDBRANCH 12 13
ENDBRANCH 1 12
BRANCH 1 24
ATOM     24  N   ARG B   3       6.996  22.667  -7.041  0.50 56.75 LIG-0.35  N 
ATOM     25  C   ILE B   2       7.601  23.672  -6.421  0.50 56.81 LIG 0.24  C 
ATOM     26 O    ILE B   2       7.064  24.295  -5.515  0.50 56.81 LIG-0.27  OA
ATOM     27 H    ARG B   3       7.391  22.101  -7.554  0.50 56.75 LIG 0.16  HD
BRANCH 25 28
ATOM     28  CA  ILE B   2       9.009  24.031  -6.891  0.50 56.86 LIG 0.18  C 
BRANCH 28 29
ATOM     29  N   ILE B   2       9.171  25.479  -6.827  0.50 56.91 LIG-0.35  N 
ATOM     30 H    ILE B   2       9.527  25.760  -6.097  0.50 56.91 LIG 0.16  HD
ATOM     31  C   ALA B   1       8.795  26.281  -7.817  0.50 56.95 LIG 0.25  C 
ATOM     32 O    ALA B   1       8.270  25.871  -8.853  0.50 56.96 LIG-0.27  OA
BRANCH 31 33
ATOM     33  CA  ALA B   1       9.045  27.772  -7.603  0.50 56.96 LIG 0.27  C 
ATOM     34  CB  ALA B   1      10.526  28.087  -7.745  0.50 56.98 LIG 0.05  C 
BRANCH 33 35
ATOM     35  N   ALA B   1       8.556  28.200  -6.262  0.50 56.97 LIG-0.07  N 
ATOM     36 H1   ALA B   1       8.905  27.671  -5.637  0.50 56.97 LIG 0.28  HD
ATOM     37 H3   ALA B   1       7.668  28.142  -6.238  0.50 56.97 LIG 0.28  HD
ATOM     38 H2   ALA B   1       8.803  29.042  -6.111  0.50 56.97 LIG 0.28  HD
ENDBRANCH 33 35
ENDBRANCH 31 33
ENDBRANCH 28 29
BRANCH 28 39
ATOM     39  CB  ILE B   2      10.087  23.349  -6.016  0.50 56.87 LIG 0.01  C 
ATOM     40  CG2 ILE B   2       9.499  22.813  -4.703  1.00 56.86 LIG 0.01  C 
BRANCH 39 41
ATOM     41  CG1 ILE B   2      10.810  22.248  -6.813  1.00 56.91 LIG 0.00  C 
ATOM     42  CD1 ILE B   2      10.888  20.886  -6.121  0.50 56.92 LIG 0.01  C 
ENDBRANCH 39 41
ENDBRANCH 28 39
ENDBRANCH 25 28
ENDBRANCH 1 24
TORSDOF 16
ENDMDL
MODEL 47
USER: ADFR SOLUTION from run 38
USER: SCORE 14.178162 LL:  -2.437 LR: -11.830 RR:   0.000 FEB:  -7.057
USER: RMSD 8.644144
USER: SEED 37
USER: STATUS no improvement in best 7 clusters for 5 generations
USER: GENES 18
USER: genes 0 Translation |==|  0.55360 0.64089 0.51586
USER: genes 1 Rotation |==|  0.19432 0.37347 0.84612 0.64404
USER: genes 2 Torsion [N]-CA--C-[N] |==|  0.96629
USER: genes 3 Torsion [C]-N--CA-[C] |==|  0.64052
USER: genes 4 Torsion [N]-CA--C-[O] |==|  0.96612
USER: genes 5 Torsion [N]-CA--CB-[OG] |==|  0.01332
USER: genes 6 Torsion [CA]-CB--OG-[HG] |==|  0.85073
USER: genes 7 Torsion [C]-CA--CB-[CG] |==|  0.31951
USER: genes 8 Torsion [CA]-CB--CG-[CD] |==|  0.30072
USER: genes 9 Torsion [CB]-CG--CD-[NE] |==|  0.13720
USER: genes 10 Torsion [CG]-CD--NE-[CZ] |==|  0.49129
USER: genes 11 Torsion [C]-CA--N-[C] |==|  0.79515
USER: genes 12 Torsion [N]-C--CA-[N] |==|  0.05556
USER: genes 13 Torsion [C]-CA--N-[C] |==|  0.70594
USER: genes 14 Torsion [N]-C--CA-[N] |==|  0.50907
USER: genes 15 Torsion [C]-CA--N-[H1] |==|  0.39463
USER: genes 16 Torsion [C]-CA--CB-[CG2] |==|  0.45249
USER: genes 17 Torsion [CA]-CB--CG1-[CD1] |==|  0.42049
ROOT
ATOM      1  CA  ARG B   3       5.378  22.247  -6.894  0.50 56.69 LIG 0.18  C 
ENDROOT
BRANCH 1 2
ATOM      2  C   ARG B   3       4.561  22.091  -8.153  0.50 56.65 LIG 0.24  C 
ATOM      3 O    ARG B   3       3.693  21.227  -8.280  0.50 56.65 LIG-0.27  OA
ATOM      4  N   SER B   4       4.840  23.020  -9.057  0.50 56.58 LIG-0.34  N 
ATOM      5 H    SER B   4       5.268  23.742  -8.870  0.50 56.58 LIG 0.16  HD
BRANCH 4 6
ATOM      6  CA  SER B   4       4.458  22.921 -10.447  0.50 56.54 LIG 0.19  C 
BRANCH 6 7
ATOM      7  C   SER B   4       5.707  23.193 -11.272  0.50 56.54 LIG 0.22  C 
ATOM      8 O    SER B   4       6.726  23.654 -10.752  0.50 56.51 LIG-0.29  OA
ENDBRANCH 6 7
BRANCH 6 9
ATOM      9  CB  SER B   4       3.359  23.932 -10.775  0.50 56.54 LIG 0.20  C 
BRANCH 9 10
ATOM     10 OG   SER B   4       3.081  24.769  -9.666  0.50 56.48 LIG-0.40  OA
ATOM     11 HG   SER B   4       2.911  24.296  -8.994  0.50 56.48 LIG 0.21  HD
ENDBRANCH 9 10
ENDBRANCH 6 9
ENDBRANCH 4 6
ENDBRANCH 1 2
BRANCH 1 12
ATOM     12  CB  ARG B   3       4.415  22.691  -5.794  0.50 56.69 LIG 0.04  C 
BRANCH 12 13
ATOM     13  CG  ARG B   3       4.203  21.727  -4.642  0.50 56.67 LIG 0.02  C 
BRANCH 13 14
ATOM     14  CD  ARG B   3       4.854  22.194  -3.342  0.50 56.64 LIG 0.14  C 
BRANCH 14 15
ATOM     15  NE  ARG B   3       4.520  23.586  -3.020  0.50 56.60 LIG-0.23  N 
ATOM     16  CZ  ARG B   3       4.897  24.236  -1.921  0.50 56.66 LIG 0.67  C 
ATOM     17  NH2 ARG B   3       4.523  25.500  -1.751  0.50 56.73 LIG-0.23  N 
ATOM     18  NH1 ARG B   3       5.645  23.645  -0.995  0.50 56.69 LIG-0.23  N 
ATOM     19 22HH ARG B   3       4.762  25.928  -1.044  0.50 56.73 LIG 0.17  HD
ATOM     20 21HH ARG B   3       4.042  25.891  -2.347  0.50 56.73 LIG 0.17  HD
ATOM     21 12HH ARG B   3       5.880  24.079  -0.290  0.50 56.69 LIG 0.17  HD
ATOM     22 11HH ARG B   3       5.893  22.828  -1.100  0.50 56.69 LIG 0.17  HD
ATOM     23 HE   ARG B   3       4.040  24.018  -3.589  0.50 56.60 LIG 0.18  HD
ENDBRANCH 14 15
ENDBRANCH 13 14
ENDBRANCH 12 13
ENDBRANCH 1 12
BRANCH 1 24
ATOM     24  N   ARG B   3       6.507  23.167  -6.930  0.50 56.75 LIG-0.35  N 
ATOM     25  C   ILE B   2       7.618  22.840  -7.578  0.50 56.81 LIG 0.24  C 
ATOM     26 O    ILE B   2       7.661  21.903  -8.363  0.50 56.81 LIG-0.27  OA
ATOM     27 H    ARG B   3       6.387  23.907  -6.509  0.50 56.75 LIG 0.16  HD
BRANCH 25 28
ATOM     28  CA  ILE B   2       8.858  23.686  -7.298  0.50 56.86 LIG 0.18  C 
BRANCH 28 29
ATOM     29  N   ILE B   2       8.677  24.379  -6.028  0.50 56.91 LIG-0.35  N 
ATOM     30 H    ILE B   2       8.755  23.873  -5.338  0.50 56.91 LIG 0.16  HD
ATOM     31  C   ALA B   1       8.413  25.679  -5.959  0.50 56.95 LIG 0.25  C 
ATOM     32 O    ALA B   1       8.287  26.394  -6.954  0.50 56.96 LIG-0.27  OA
BRANCH 31 33
ATOM     33  CA  ALA B   1       8.265  26.260  -4.554  0.50 56.96 LIG 0.27  C 
ATOM     34  CB  ALA B   1       7.217  25.485  -3.770  0.50 56.98 LIG 0.05  C 
BRANCH 33 35
ATOM     35  N   ALA B   1       7.895  27.702  -4.618  0.50 56.97 LIG-0.07  N 
ATOM     36 H1   ALA B   1       7.315  27.888  -3.969  0.50 56.97 LIG 0.28  HD
ATOM     37 H3   ALA B   1       7.525  27.878  -5.407  0.50 56.97 LIG 0.28  HD
ATOM     38 H2   ALA B   1       8.625  28.200  -4.515  0.50 56.97 LIG 0.28  HD
ENDBRANCH 33 35
ENDBRANCH 31 33
ENDBRANCH 28 29
BRANCH 28 39
ATOM     39  CB  ILE B   2      10.135  22.813  -7.235  0.50 56.87 LIG 0.01  C 
ATOM     40  CG2 ILE B   2      11.409  23.657  -7.377  1.00 56.86 LIG 0.01  C 
BRANCH 39 41
ATOM     41  CG1 ILE B   2      10.145  21.970  -5.946  1.00 56.91 LIG 0.00  C 
ATOM     42  CD1 ILE B   2      10.898  20.642  -6.042  0.50 56.92 LIG 0.01  C 
ENDBRANCH 39 41
ENDBRANCH 28 39
ENDBRANCH 25 28
ENDBRANCH 1 24
TORSDOF 16
ENDMDL
MODEL 48
USER: ADFR SOLUTION from run 37
USER: SCORE 12.316143 LL:  -1.840 LR: -11.818 RR:   0.000 FEB:  -7.046
USER: RMSD 12.630762
USER: SEED 36
USER: STATUS no improvement in best 8 clusters for 5 generations
USER: GENES 18
USER: genes 0 Translation |==|  0.67269 0.78692 0.41899
USER: genes 1 Rotation |==|  0.10289 0.71332 0.47000 0.71424
USER: genes 2 Torsion [N]-CA--C-[N] |==|  0.50905
USER: genes 3 Torsion [C]-N--CA-[C] |==|  0.85523
USER: genes 4 Torsion [N]-CA--C-[O] |==|  0.20011
USER: genes 5 Torsion [N]-CA--CB-[OG] |==|  0.03934
USER: genes 6 Torsion [CA]-CB--OG-[HG] |==|  0.33955
USER: genes 7 Torsion [C]-CA--CB-[CG] |==|  0.72446
USER: genes 8 Torsion [CA]-CB--CG-[CD] |==|  0.60647
USER: genes 9 Torsion [CB]-CG--CD-[NE] |==|  0.46538
USER: genes 10 Torsion [CG]-CD--NE-[CZ] |==|  0.27181
USER: genes 11 Torsion [C]-CA--N-[C] |==|  0.52778
USER: genes 12 Torsion [N]-C--CA-[N] |==|  0.45574
USER: genes 13 Torsion [C]-CA--N-[C] |==|  0.20639
USER: genes 14 Torsion [N]-C--CA-[N] |==|  0.22004
USER: genes 15 Torsion [C]-CA--N-[H1] |==|  0.91960
USER: genes 16 Torsion [C]-CA--CB-[CG2] |==|  0.05616
USER: genes 17 Torsion [CA]-CB--CG1-[CD1] |==|  0.31301
ROOT
ATOM      1  CA  ARG B   3       8.951  26.628  -9.800  0.50 56.69 LIG 0.18  C 
ENDROOT
BRANCH 1 2
ATOM      2  C   ARG B   3       9.113  26.139 -11.218  0.50 56.65 LIG 0.24  C 
ATOM      3 O    ARG B   3       9.374  24.967 -11.492  0.50 56.65 LIG-0.27  OA
ATOM      4  N   SER B   4       8.880  27.089 -12.112  0.50 56.58 LIG-0.34  N 
ATOM      5 H    SER B   4       8.477  27.824 -11.920  0.50 56.58 LIG 0.16  HD
BRANCH 4 6
ATOM      6  CA  SER B   4       9.274  26.995 -13.499  0.50 56.54 LIG 0.19  C 
BRANCH 6 7
ATOM      7  C   SER B   4      10.754  26.645 -13.519  0.50 56.54 LIG 0.22  C 
ATOM      8 O    SER B   4      11.146  25.520 -13.201  0.50 56.51 LIG-0.29  OA
ENDBRANCH 6 7
BRANCH 6 9
ATOM      9  CB  SER B   4       9.018  28.318 -14.222  0.50 56.54 LIG 0.20  C 
BRANCH 9 10
ATOM     10 OG   SER B   4       8.775  29.368 -13.302  0.50 56.48 LIG-0.40  OA
ATOM     11 HG   SER B   4       9.335  29.982 -13.423  0.50 56.48 LIG 0.21  HD
ENDBRANCH 9 10
ENDBRANCH 6 9
ENDBRANCH 4 6
ENDBRANCH 1 2
BRANCH 1 12
ATOM     12  CB  ARG B   3       9.847  27.857  -9.651  0.50 56.69 LIG 0.04  C 
BRANCH 12 13
ATOM     13  CG  ARG B   3      11.196  27.641  -8.991  0.50 56.67 LIG 0.02  C 
BRANCH 13 14
ATOM     14  CD  ARG B   3      11.603  28.791  -8.072  0.50 56.64 LIG 0.14  C 
BRANCH 14 15
ATOM     15  NE  ARG B   3      12.751  28.448  -7.224  0.50 56.60 LIG-0.23  N 
ATOM     16  CZ  ARG B   3      14.019  28.770  -7.474  0.50 56.66 LIG 0.67  C 
ATOM     17  NH2 ARG B   3      14.966  28.394  -6.620  0.50 56.73 LIG-0.23  N 
ATOM     18  NH1 ARG B   3      14.352  29.464  -8.558  0.50 56.69 LIG-0.23  N 
ATOM     19 22HH ARG B   3      15.788  28.598  -6.774  0.50 56.73 LIG 0.17  HD
ATOM     20 21HH ARG B   3      14.758  27.948  -5.916  0.50 56.73 LIG 0.17  HD
ATOM     21 12HH ARG B   3      15.175  29.663  -8.704  0.50 56.69 LIG 0.17  HD
ATOM     22 11HH ARG B   3      13.744  29.712  -9.112  0.50 56.69 LIG 0.17  HD
ATOM     23 HE   ARG B   3      12.591  28.001  -6.506  0.50 56.60 LIG 0.18  HD
ENDBRANCH 14 15
ENDBRANCH 13 14
ENDBRANCH 12 13
ENDBRANCH 1 12
BRANCH 1 24
ATOM     24  N   ARG B   3       9.251  25.694  -8.724  0.50 56.75 LIG-0.35  N 
ATOM     25  C   ILE B   2       8.941  25.994  -7.469  0.50 56.81 LIG 0.24  C 
ATOM     26 O    ILE B   2       8.187  26.915  -7.188  0.50 56.81 LIG-0.27  OA
ATOM     27 H    ARG B   3       9.632  24.963  -8.972  0.50 56.75 LIG 0.16  HD
BRANCH 25 28
ATOM     28  CA  ILE B   2       9.575  25.138  -6.374  0.50 56.86 LIG 0.18  C 
BRANCH 28 29
ATOM     29  N   ILE B   2       9.435  25.830  -5.098  0.50 56.91 LIG-0.35  N 
ATOM     30 H    ILE B   2      10.165  26.181  -4.808  0.50 56.91 LIG 0.16  HD
ATOM     31  C   ALA B   1       8.277  25.904  -4.452  0.50 56.95 LIG 0.25  C 
ATOM     32 O    ALA B   1       7.241  25.384  -4.868  0.50 56.96 LIG-0.27  OA
BRANCH 31 33
ATOM     33  CA  ALA B   1       8.292  26.676  -3.135  0.50 56.96 LIG 0.27  C 
ATOM     34  CB  ALA B   1       7.116  26.260  -2.264  0.50 56.98 LIG 0.05  C 
BRANCH 33 35
ATOM     35  N   ALA B   1       8.249  28.144  -3.385  0.50 56.97 LIG-0.07  N 
ATOM     36 H1   ALA B   1       8.631  28.323  -4.170  0.50 56.97 LIG 0.28  HD
ATOM     37 H3   ALA B   1       8.688  28.568  -2.738  0.50 56.97 LIG 0.28  HD
ATOM     38 H2   ALA B   1       7.402  28.419  -3.399  0.50 56.97 LIG 0.28  HD
ENDBRANCH 33 35
ENDBRANCH 31 33
ENDBRANCH 28 29
BRANCH 28 39
ATOM     39  CB  ILE B   2       8.905  23.747  -6.286  0.50 56.87 LIG 0.01  C 
ATOM     40  CG2 ILE B   2       8.159  23.391  -7.579  1.00 56.86 LIG 0.01  C 
BRANCH 39 41
ATOM     41  CG1 ILE B   2       9.942  22.673  -5.907  1.00 56.91 LIG 0.00  C 
ATOM     42  CD1 ILE B   2       9.755  22.042  -4.527  0.50 56.92 LIG 0.01  C 
ENDBRANCH 39 41
ENDBRANCH 28 39
ENDBRANCH 25 28
ENDBRANCH 1 24
TORSDOF 16
ENDMDL
MODEL 49
USER: ADFR SOLUTION from run 141
USER: SCORE 13.646722 LL:  -2.492 LR: -11.825 RR:   0.000 FEB:  -7.052
USER: RMSD 7.674906
USER: SEED 140
USER: STATUS no improvement in best 4 clusters for 5 generations
USER: GENES 18
USER: genes 0 Translation |==|  0.57349 0.65108 0.62996
USER: genes 1 Rotation |==|  0.26312 0.61061 0.92620 0.49880
USER: genes 2 Torsion [N]-CA--C-[N] |==|  0.03194
USER: genes 3 Torsion [C]-N--CA-[C] |==|  0.77163
USER: genes 4 Torsion [N]-CA--C-[O] |==|  0.02671
USER: genes 5 Torsion [N]-CA--CB-[OG] |==|  0.26990
USER: genes 6 Torsion [CA]-CB--OG-[HG] |==|  0.17934
USER: genes 7 Torsion [C]-CA--CB-[CG] |==|  0.31604
USER: genes 8 Torsion [CA]-CB--CG-[CD] |==|  0.25717
USER: genes 9 Torsion [CB]-CG--CD-[NE] |==|  0.13806
USER: genes 10 Torsion [CG]-CD--NE-[CZ] |==|  0.59246
USER: genes 11 Torsion [C]-CA--N-[C] |==|  0.16338
USER: genes 12 Torsion [N]-C--CA-[N] |==|  0.48136
USER: genes 13 Torsion [C]-CA--N-[C] |==|  0.80560
USER: genes 14 Torsion [N]-C--CA-[N] |==|  0.80909
USER: genes 15 Torsion [C]-CA--N-[H1] |==|  0.64448
USER: genes 16 Torsion [C]-CA--CB-[CG2] |==|  0.55376
USER: genes 17 Torsion [CA]-CB--CG1-[CD1] |==|  0.62451
ROOT
ATOM      1  CA  ARG B   3       5.975  22.552  -3.471  0.50 56.69 LIG 0.18  C 
ENDROOT
BRANCH 1 2
ATOM      2  C   ARG B   3       4.762  21.655  -3.449  0.50 56.65 LIG 0.24  C 
ATOM      3 O    ARG B   3       3.926  21.688  -2.546  0.50 56.65 LIG-0.27  OA
ATOM      4  N   SER B   4       4.676  20.892  -4.530  0.50 56.58 LIG-0.34  N 
ATOM      5 H    SER B   4       5.127  21.044  -5.247  0.50 56.58 LIG 0.16  HD
BRANCH 4 6
ATOM      6  CA  SER B   4       3.821  19.731  -4.623  0.50 56.54 LIG 0.19  C 
BRANCH 6 7
ATOM      7  C   SER B   4       4.565  18.577  -3.968  0.50 56.54 LIG 0.22  C 
ATOM      8 O    SER B   4       5.604  18.769  -3.332  0.50 56.51 LIG-0.29  OA
ENDBRANCH 6 7
BRANCH 6 9
ATOM      9  CB  SER B   4       3.501  19.414  -6.084  0.50 56.54 LIG 0.20  C 
BRANCH 9 10
ATOM     10 OG   SER B   4       4.359  18.406  -6.591  0.50 56.48 LIG-0.40  OA
ATOM     11 HG   SER B   4       4.220  17.688  -6.180  0.50 56.48 LIG 0.21  HD
ENDBRANCH 9 10
ENDBRANCH 6 9
ENDBRANCH 4 6
ENDBRANCH 1 2
BRANCH 1 12
ATOM     12  CB  ARG B   3       5.502  23.945  -3.055  0.50 56.69 LIG 0.04  C 
BRANCH 12 13
ATOM     13  CG  ARG B   3       6.028  24.477  -1.736  0.50 56.67 LIG 0.02  C 
BRANCH 13 14
ATOM     14  CD  ARG B   3       7.298  25.312  -1.891  0.50 56.64 LIG 0.14  C 
BRANCH 14 15
ATOM     15  NE  ARG B   3       7.166  26.339  -2.930  0.50 56.60 LIG-0.23  N 
ATOM     16  CZ  ARG B   3       8.149  26.770  -3.719  0.50 56.66 LIG 0.67  C 
ATOM     17  NH2 ARG B   3       7.895  27.711  -4.623  0.50 56.73 LIG-0.23  N 
ATOM     18  NH1 ARG B   3       9.378  26.272  -3.621  0.50 56.69 LIG-0.23  N 
ATOM     19 22HH ARG B   3       8.524  27.995  -5.136  0.50 56.73 LIG 0.17  HD
ATOM     20 21HH ARG B   3       7.102  28.036  -4.694  0.50 56.73 LIG 0.17  HD
ATOM     21 12HH ARG B   3      10.002  26.561  -4.137  0.50 56.69 LIG 0.17  HD
ATOM     22 11HH ARG B   3       9.549  25.661  -3.040  0.50 56.69 LIG 0.17  HD
ATOM     23 HE   ARG B   3       6.390  26.693  -3.039  0.50 56.60 LIG 0.18  HD
ENDBRANCH 14 15
ENDBRANCH 13 14
ENDBRANCH 12 13
ENDBRANCH 1 12
BRANCH 1 24
ATOM     24  N   ARG B   3       6.713  22.662  -4.722  0.50 56.75 LIG-0.35  N 
ATOM     25  C   ILE B   2       6.108  23.092  -5.822  0.50 56.81 LIG 0.24  C 
ATOM     26 O    ILE B   2       5.016  23.643  -5.791  0.50 56.81 LIG-0.27  OA
ATOM     27 H    ARG B   3       7.540  22.430  -4.678  0.50 56.75 LIG 0.16  HD
BRANCH 25 28
ATOM     28  CA  ILE B   2       6.835  22.867  -7.147  0.50 56.86 LIG 0.18  C 
BRANCH 28 29
ATOM     29  N   ILE B   2       5.951  23.257  -8.239  0.50 56.91 LIG-0.35  N 
ATOM     30 H    ILE B   2       6.196  23.972  -8.650  0.50 56.91 LIG 0.16  HD
ATOM     31  C   ALA B   1       4.867  22.561  -8.560  0.50 56.95 LIG 0.25  C 
ATOM     32 O    ALA B   1       4.515  21.547  -7.955  0.50 56.96 LIG-0.27  OA
BRANCH 31 33
ATOM     33  CA  ALA B   1       4.053  23.092  -9.737  0.50 56.96 LIG 0.27  C 
ATOM     34  CB  ALA B   1       4.944  23.278 -10.956  0.50 56.98 LIG 0.05  C 
BRANCH 33 35
ATOM     35  N   ALA B   1       3.394  24.381  -9.382  0.50 56.97 LIG-0.07  N 
ATOM     36 H1   ALA B   1       2.525  24.330  -9.567  0.50 56.97 LIG 0.28  HD
ATOM     37 H3   ALA B   1       3.760  25.040  -9.854  0.50 56.97 LIG 0.28  HD
ATOM     38 H2   ALA B   1       3.505  24.541  -8.514  0.50 56.97 LIG 0.28  HD
ENDBRANCH 33 35
ENDBRANCH 31 33
ENDBRANCH 28 29
BRANCH 28 39
ATOM     39  CB  ILE B   2       8.144  23.688  -7.220  0.50 56.87 LIG 0.01  C 
ATOM     40  CG2 ILE B   2       8.630  23.858  -8.666  1.00 56.86 LIG 0.01  C 
BRANCH 39 41
ATOM     41  CG1 ILE B   2       7.969  25.043  -6.510  1.00 56.91 LIG 0.00  C 
ATOM     42  CD1 ILE B   2       8.524  26.252  -7.265  0.50 56.92 LIG 0.01  C 
ENDBRANCH 39 41
ENDBRANCH 28 39
ENDBRANCH 25 28
ENDBRANCH 1 24
TORSDOF 16
ENDMDL
MODEL 50
USER: ADFR SOLUTION from run 131
USER: SCORE 14.001825 LL:  -2.407 LR: -11.814 RR:   0.000 FEB:  -7.042
USER: RMSD 13.152247
USER: SEED 130
USER: STATUS no improvement in best 10 clusters for 5 generations
USER: GENES 18
USER: genes 0 Translation |==|  0.70188 0.81817 0.41804
USER: genes 1 Rotation |==|  0.30382 0.93735 0.48819 0.64178
USER: genes 2 Torsion [N]-CA--C-[N] |==|  0.42811
USER: genes 3 Torsion [C]-N--CA-[C] |==|  0.83546
USER: genes 4 Torsion [N]-CA--C-[O] |==|  0.27862
USER: genes 5 Torsion [N]-CA--CB-[OG] |==|  0.10597
USER: genes 6 Torsion [CA]-CB--OG-[HG] |==|  0.72752
USER: genes 7 Torsion [C]-CA--CB-[CG] |==|  0.44384
USER: genes 8 Torsion [CA]-CB--CG-[CD] |==|  0.87841
USER: genes 9 Torsion [CB]-CG--CD-[NE] |==|  0.88287
USER: genes 10 Torsion [CG]-CD--NE-[CZ] |==|  0.74466
USER: genes 11 Torsion [C]-CA--N-[C] |==|  0.71645
USER: genes 12 Torsion [N]-C--CA-[N] |==|  0.46060
USER: genes 13 Torsion [C]-CA--N-[C] |==|  0.63742
USER: genes 14 Torsion [N]-C--CA-[N] |==|  0.83352
USER: genes 15 Torsion [C]-CA--N-[H1] |==|  0.64314
USER: genes 16 Torsion [C]-CA--CB-[CG2] |==|  0.16761
USER: genes 17 Torsion [CA]-CB--CG1-[CD1] |==|  0.28193
ROOT
ATOM      1  CA  ARG B   3       9.827  27.565  -9.829  0.50 56.69 LIG 0.18  C 
ENDROOT
BRANCH 1 2
ATOM      2  C   ARG B   3       8.998  27.832 -11.060  0.50 56.65 LIG 0.24  C 
ATOM      3 O    ARG B   3       8.297  26.969 -11.591  0.50 56.65 LIG-0.27  OA
ATOM      4  N   SER B   4       9.063  29.097 -11.452  0.50 56.58 LIG-0.34  N 
ATOM      5 H    SER B   4       9.360  29.728 -10.949  0.50 56.58 LIG 0.16  HD
BRANCH 4 6
ATOM      6  CA  SER B   4       8.646  29.551 -12.758  0.50 56.54 LIG 0.19  C 
BRANCH 6 7
ATOM      7  C   SER B   4       9.485  28.800 -13.781  0.50 56.54 LIG 0.22  C 
ATOM      8 O    SER B   4       9.031  27.823 -14.382  0.50 56.51 LIG-0.29  OA
ENDBRANCH 6 7
BRANCH 6 9
ATOM      9  CB  SER B   4       8.848  31.061 -12.892  0.50 56.54 LIG 0.20  C 
BRANCH 9 10
ATOM     10 OG   SER B   4      10.042  31.479 -12.253  0.50 56.48 LIG-0.40  OA
ATOM     11 HG   SER B   4       9.861  31.779 -11.490  0.50 56.48 LIG 0.21  HD
ENDBRANCH 9 10
ENDBRANCH 6 9
ENDBRANCH 4 6
ENDBRANCH 1 2
BRANCH 1 12
ATOM     12  CB  ARG B   3      11.261  27.332 -10.302  0.50 56.69 LIG 0.04  C 
BRANCH 12 13
ATOM     13  CG  ARG B   3      12.358  27.511  -9.270  0.50 56.67 LIG 0.02  C 
BRANCH 13 14
ATOM     14  CD  ARG B   3      12.167  28.753  -8.402  0.50 56.64 LIG 0.14  C 
BRANCH 14 15
ATOM     15  NE  ARG B   3      11.735  29.918  -9.183  0.50 56.60 LIG-0.23  N 
ATOM     16  CZ  ARG B   3      12.543  30.825  -9.728  0.50 56.66 LIG 0.67  C 
ATOM     17  NH2 ARG B   3      12.020  31.837 -10.413  0.50 56.73 LIG-0.23  N 
ATOM     18  NH1 ARG B   3      13.864  30.733  -9.603  0.50 56.69 LIG-0.23  N 
ATOM     19 22HH ARG B   3      12.535  32.428 -10.768  0.50 56.73 LIG 0.17  HD
ATOM     20 21HH ARG B   3      11.167  31.902 -10.500  0.50 56.73 LIG 0.17  HD
ATOM     21 12HH ARG B   3      14.372  31.328  -9.960  0.50 56.69 LIG 0.17  HD
ATOM     22 11HH ARG B   3      14.209  30.079  -9.164  0.50 56.69 LIG 0.17  HD
ATOM     23 HE   ARG B   3      10.889  30.024  -9.298  0.50 56.60 LIG 0.18  HD
ENDBRANCH 14 15
ENDBRANCH 13 14
ENDBRANCH 12 13
ENDBRANCH 1 12
BRANCH 1 24
ATOM     24  N   ARG B   3       9.429  26.455  -8.973  0.50 56.75 LIG-0.35  N 
ATOM     25  C   ILE B   2       8.774  26.682  -7.842  0.50 56.81 LIG 0.24  C 
ATOM     26 O    ILE B   2       8.262  27.765  -7.592  0.50 56.81 LIG-0.27  OA
ATOM     27 H    ARG B   3       9.652  25.676  -9.261  0.50 56.75 LIG 0.16  HD
BRANCH 25 28
ATOM     28  CA  ILE B   2       8.687  25.526  -6.847  0.50 56.86 LIG 0.18  C 
BRANCH 28 29
ATOM     29  N   ILE B   2       8.244  26.049  -5.559  0.50 56.91 LIG-0.35  N 
ATOM     30 H    ILE B   2       7.548  26.551  -5.605  0.50 56.91 LIG 0.16  HD
ATOM     31  C   ALA B   1       8.871  25.764  -4.423  0.50 56.95 LIG 0.25  C 
ATOM     32 O    ALA B   1       9.878  25.056  -4.369  0.50 56.96 LIG-0.27  OA
BRANCH 31 33
ATOM     33  CA  ALA B   1       8.276  26.377  -3.157  0.50 56.96 LIG 0.27  C 
ATOM     34  CB  ALA B   1       6.863  25.860  -2.933  0.50 56.98 LIG 0.05  C 
BRANCH 33 35
ATOM     35  N   ALA B   1       8.270  27.864  -3.246  0.50 56.97 LIG-0.07  N 
ATOM     36 H1   ALA B   1       8.650  28.206  -2.517  0.50 56.97 LIG 0.28  HD
ATOM     37 H3   ALA B   1       7.431  28.154  -3.307  0.50 56.97 LIG 0.28  HD
ATOM     38 H2   ALA B   1       8.726  28.121  -3.966  0.50 56.97 LIG 0.28  HD
ENDBRANCH 33 35
ENDBRANCH 31 33
ENDBRANCH 28 29
BRANCH 28 39
ATOM     39  CB  ILE B   2       7.700  24.437  -7.331  0.50 56.87 LIG 0.01  C 
ATOM     40  CG2 ILE B   2       8.130  23.839  -8.678  1.00 56.86 LIG 0.01  C 
BRANCH 39 41
ATOM     41  CG1 ILE B   2       7.523  23.354  -6.252  1.00 56.91 LIG 0.00  C 
ATOM     42  CD1 ILE B   2       6.240  23.458  -5.426  0.50 56.92 LIG 0.01  C 
ENDBRANCH 39 41
ENDBRANCH 28 39
ENDBRANCH 25 28
ENDBRANCH 1 24
TORSDOF 16
ENDMDL
MODEL 51
USER: ADFR SOLUTION from run 66
USER: SCORE 13.663019 LL:  -2.371 LR: -11.794 RR:   0.000 FEB:  -7.022
USER: RMSD 8.620681
USER: SEED 65
USER: STATUS no improvement in best 7 clusters for 5 generations
USER: GENES 18
USER: genes 0 Translation |==|  0.56492 0.67286 0.61494
USER: genes 1 Rotation |==|  0.22784 0.47304 0.90532 0.60448
USER: genes 2 Torsion [N]-CA--C-[N] |==|  0.98754
USER: genes 3 Torsion [C]-N--CA-[C] |==|  0.86082
USER: genes 4 Torsion [N]-CA--C-[O] |==|  0.31430
USER: genes 5 Torsion [N]-CA--CB-[OG] |==|  0.70817
USER: genes 6 Torsion [CA]-CB--OG-[HG] |==|  0.20518
USER: genes 7 Torsion [C]-CA--CB-[CG] |==|  0.46555
USER: genes 8 Torsion [CA]-CB--CG-[CD] |==|  0.25891
USER: genes 9 Torsion [CB]-CG--CD-[NE] |==|  0.73048
USER: genes 10 Torsion [CG]-CD--NE-[CZ] |==|  0.38246
USER: genes 11 Torsion [C]-CA--N-[C] |==|  0.83579
USER: genes 12 Torsion [N]-C--CA-[N] |==|  0.40553
USER: genes 13 Torsion [C]-CA--N-[C] |==|  0.83232
USER: genes 14 Torsion [N]-C--CA-[N] |==|  0.48144
USER: genes 15 Torsion [C]-CA--N-[H1] |==|  0.05770
USER: genes 16 Torsion [C]-CA--CB-[CG2] |==|  0.42922
USER: genes 17 Torsion [CA]-CB--CG1-[CD1] |==|  0.53838
ROOT
ATOM      1  CA  ARG B   3       5.718  23.206  -3.922  0.50 56.69 LIG 0.18  C 
ENDROOT
BRANCH 1 2
ATOM      2  C   ARG B   3       4.557  22.664  -4.719  0.50 56.65 LIG 0.24  C 
ATOM      3 O    ARG B   3       3.646  22.013  -4.209  0.50 56.65 LIG-0.27  OA
ATOM      4  N   SER B   4       4.605  23.026  -5.994  0.50 56.58 LIG-0.34  N 
ATOM      5 H    SER B   4       5.108  23.662  -6.282  0.50 56.58 LIG 0.16  HD
BRANCH 4 6
ATOM      6  CA  SER B   4       3.825  22.395  -7.033  0.50 56.54 LIG 0.19  C 
BRANCH 6 7
ATOM      7  C   SER B   4       4.033  20.894  -6.899  0.50 56.54 LIG 0.22  C 
ATOM      8 O    SER B   4       3.108  20.151  -6.563  0.50 56.51 LIG-0.29  OA
ENDBRANCH 6 7
BRANCH 6 9
ATOM      9  CB  SER B   4       4.269  22.885  -8.412  0.50 56.54 LIG 0.20  C 
BRANCH 9 10
ATOM     10 OG   SER B   4       3.334  23.796  -8.960  0.50 56.48 LIG-0.40  OA
ATOM     11 HG   SER B   4       3.396  24.534  -8.564  0.50 56.48 LIG 0.21  HD
ENDBRANCH 9 10
ENDBRANCH 6 9
ENDBRANCH 4 6
ENDBRANCH 1 2
BRANCH 1 12
ATOM     12  CB  ARG B   3       5.128  24.118  -2.847  0.50 56.69 LIG 0.04  C 
BRANCH 12 13
ATOM     13  CG  ARG B   3       6.064  24.556  -1.736  0.50 56.67 LIG 0.02  C 
BRANCH 13 14
ATOM     14  CD  ARG B   3       6.742  25.895  -2.018  0.50 56.64 LIG 0.14  C 
BRANCH 14 15
ATOM     15  NE  ARG B   3       8.088  25.731  -2.580  0.50 56.60 LIG-0.23  N 
ATOM     16  CZ  ARG B   3       8.598  26.443  -3.583  0.50 56.66 LIG 0.67  C 
ATOM     17  NH2 ARG B   3       9.835  26.190  -3.998  0.50 56.73 LIG-0.23  N 
ATOM     18  NH1 ARG B   3       7.893  27.403  -4.173  0.50 56.69 LIG-0.23  N 
ATOM     19 22HH ARG B   3      10.173  26.645  -4.646  0.50 56.73 LIG 0.17  HD
ATOM     20 21HH ARG B   3      10.298  25.573  -3.620  0.50 56.73 LIG 0.17  HD
ATOM     21 12HH ARG B   3       8.237  27.853  -4.821  0.50 56.69 LIG 0.17  HD
ATOM     22 11HH ARG B   3       7.093  27.573  -3.908  0.50 56.69 LIG 0.17  HD
ATOM     23 HE   ARG B   3       8.589  25.124  -2.232  0.50 56.60 LIG 0.18  HD
ENDBRANCH 14 15
ENDBRANCH 13 14
ENDBRANCH 12 13
ENDBRANCH 1 12
BRANCH 1 24
ATOM     24  N   ARG B   3       6.752  23.936  -4.642  0.50 56.75 LIG-0.35  N 
ATOM     25  C   ILE B   2       7.427  23.350  -5.622  0.50 56.81 LIG 0.24  C 
ATOM     26 O    ILE B   2       7.060  22.298  -6.127  0.50 56.81 LIG-0.27  OA
ATOM     27 H    ARG B   3       6.875  24.746  -4.381  0.50 56.75 LIG 0.16  HD
BRANCH 25 28
ATOM     28  CA  ILE B   2       8.700  24.046  -6.100  0.50 56.86 LIG 0.18  C 
BRANCH 28 29
ATOM     29  N   ILE B   2       9.671  23.030  -6.493  0.50 56.91 LIG-0.35  N 
ATOM     30 H    ILE B   2       9.912  23.077  -7.317  0.50 56.91 LIG 0.16  HD
ATOM     31  C   ALA B   1      10.131  22.120  -5.643  0.50 56.95 LIG 0.25  C 
ATOM     32 O    ALA B   1       9.766  22.051  -4.469  0.50 56.96 LIG-0.27  OA
BRANCH 31 33
ATOM     33  CA  ALA B   1      11.153  21.134  -6.205  0.50 56.96 LIG 0.27  C 
ATOM     34  CB  ALA B   1      10.518  20.270  -7.283  0.50 56.98 LIG 0.05  C 
BRANCH 33 35
ATOM     35  N   ALA B   1      11.706  20.275  -5.120  0.50 56.97 LIG-0.07  N 
ATOM     36 H1   ALA B   1      11.148  20.277  -4.426  0.50 56.97 LIG 0.28  HD
ATOM     37 H3   ALA B   1      12.497  20.593  -4.865  0.50 56.97 LIG 0.28  HD
ATOM     38 H2   ALA B   1      11.804  19.443  -5.421  0.50 56.97 LIG 0.28  HD
ENDBRANCH 33 35
ENDBRANCH 31 33
ENDBRANCH 28 29
BRANCH 28 39
ATOM     39  CB  ILE B   2       8.417  24.984  -7.297  0.50 56.87 LIG 0.01  C 
ATOM     40  CG2 ILE B   2       9.450  26.115  -7.392  1.00 56.86 LIG 0.01  C 
BRANCH 39 41
ATOM     41  CG1 ILE B   2       8.331  24.175  -8.605  1.00 56.91 LIG 0.00  C 
ATOM     42  CD1 ILE B   2       8.384  25.003  -9.890  0.50 56.92 LIG 0.01  C 
ENDBRANCH 39 41
ENDBRANCH 28 39
ENDBRANCH 25 28
ENDBRANCH 1 24
TORSDOF 16
ENDMDL
