MODEL 1
USER: ADFR SOLUTION from run 55
USER: SCORE 22.518352 LL:  -5.288 LR: -17.522 RR:   0.000 FEB: -10.960
USER: RMSD 9.483671
USER: SEED 54
USER: STATUS no improvement in best 3 clusters for 5 generations
USER: GENES 24
USER: genes 0 Translation |==|  0.55001 0.50625 0.28014
USER: genes 1 Rotation |==|  0.23986 0.88021 0.47551 0.69279
USER: genes 2 Torsion [CB]-CA--N-[C] |==|  0.85185
USER: genes 3 Torsion [N]-C--CA-[N] |==|  0.48386
USER: genes 4 Torsion [C]-CA--CB-[CG] |==|  0.30216
USER: genes 5 Torsion [CA]-CB--CG-[CD] |==|  0.54578
USER: genes 6 Torsion [CB]-CG--CD-[OE1] |==|  0.16302
USER: genes 7 Torsion [C]-CA--N-[C] |==|  0.59061
USER: genes 8 Torsion [N]-C--CA-[N] |==|  0.34881
USER: genes 9 Torsion [C]-CA--N-[H2] |==|  0.87955
USER: genes 10 Torsion [C]-CA--CB-[CG] |==|  0.32177
USER: genes 11 Torsion [CA]-CB--CG-[OD1] |==|  0.71311
USER: genes 12 Torsion [N]-CA--C-[N] |==|  0.37222
USER: genes 13 Torsion [C]-N--CA-[C] |==|  0.80565
USER: genes 14 Torsion [N]-CA--C-[N] |==|  0.37945
USER: genes 15 Torsion [C]-N--CA-[C] |==|  0.66105
USER: genes 16 Torsion [N]-CA--C-[O] |==|  0.78255
USER: genes 17 Torsion [N]-CA--CB-[CG] |==|  0.73518
USER: genes 18 Torsion [CA]-CB--CG-[CD2] |==|  0.02051
USER: genes 19 Torsion [N]-CA--CB-[CG] |==|  0.09759
USER: genes 20 Torsion [CA]-CB--CG-[CD2] |==|  0.12919
USER: genes 21 Torsion [CE1]-CZ--OH-[HH] |==|  0.01789
USER: genes 22 Torsion [N]-CA--CB-[CG] |==|  0.54799
USER: genes 23 Torsion [CA]-CB--CG-[CD1] |==|  0.15462
ROOT
ATOM      1  CA  PHE S   4      45.730  54.568  46.574  1.00 21.41 LIG 0.18  C 
ENDROOT
BRANCH 1 2
ATOM      2  N   PHE S   4      46.910  55.204  46.004  1.00 22.57 LIG-0.35  N 
ATOM      3 H    PHE S   4      46.738  55.743  45.356  1.00 22.57 LIG 0.16  HD
ATOM      4  C   GLU S   3      48.142  54.966  46.454  1.00 26.46 LIG 0.24  C 
ATOM      5 O    GLU S   3      48.385  54.187  47.382  1.00 26.71 LIG-0.27  OA
BRANCH 4 6
ATOM      6  CA  GLU S   3      49.271  55.658  45.709  1.00 28.27 LIG 0.18  C 
BRANCH 6 7
ATOM      7  CB  GLU S   3      49.280  55.008  44.335  1.00 28.84 LIG 0.04  C 
BRANCH 7 8
ATOM      8  CG  GLU S   3      48.808  55.825  43.181  1.00 31.31 LIG 0.12  C 
BRANCH 8 9
ATOM      9  CD  GLU S   3      48.507  54.918  42.013  1.00 32.39 LIG 0.17  C 
ATOM     10 OE2  GLU S   3      49.104  55.131  40.957  1.00 38.97 LIG-0.65  OA
ATOM     11 OE1  GLU S   3      47.649  54.005  42.152  1.00 34.38 LIG-0.65  OA
ENDBRANCH 8 9
ENDBRANCH 7 8
ENDBRANCH 6 7
BRANCH 6 12
ATOM     12  N   GLU S   3      50.538  55.397  46.423  1.00 29.65 LIG-0.35  N 
ATOM     13 H    GLU S   3      50.564  54.628  46.807  1.00 29.65 LIG 0.16  HD
ATOM     14  C   ASN S   2      51.537  56.262  46.467  1.00 31.60 LIG 0.25  C 
ATOM     15 O    ASN S   2      51.609  57.253  45.752  1.00 31.89 LIG-0.27  OA
BRANCH 14 16
ATOM     16  CA  ASN S   2      52.621  55.954  47.515  1.00 33.47 LIG 0.28  C 
BRANCH 16 17
ATOM     17  N   ASN S   2      53.997  55.879  46.958  1.00 34.35 LIG-0.07  N 
ATOM     18 H2   ASN S   2      53.984  55.420  46.195  1.00 34.35 LIG 0.28  HD
ATOM     19 H3   ASN S   2      54.300  56.701  46.804  1.00 34.35 LIG 0.28  HD
ATOM     20 H1   ASN S   2      54.532  55.470  47.540  1.00 34.35 LIG 0.28  HD
ENDBRANCH 16 17
BRANCH 16 21
ATOM     21  CB  ASN S   2      52.608  56.934  48.674  1.00 34.36 LIG 0.14  C 
BRANCH 21 22
ATOM     22  CG  ASN S   2      52.258  56.249  49.990  1.00 36.60 LIG 0.22  C 
ATOM     23 OD1  ASN S   2      51.113  56.358  50.506  1.00 40.55 LIG-0.27  OA
ATOM     24  ND2 ASN S   2      53.231  55.540  50.545  1.00 40.03 LIG-0.37  N 
ATOM     25 22HD ASN S   2      53.999  55.490  50.163  1.00 40.03 LIG 0.16  HD
ATOM     26 21HD ASN S   2      53.093  55.131  51.289  1.00 40.03 LIG 0.16  HD
ENDBRANCH 21 22
ENDBRANCH 16 21
ENDBRANCH 14 16
ENDBRANCH 6 12
ENDBRANCH 4 6
ENDBRANCH 1 2
BRANCH 1 27
ATOM     27  C   PHE S   4      45.501  55.042  48.007  1.00 20.14 LIG 0.24  C 
ATOM     28 O    PHE S   4      46.413  55.060  48.827  1.00 18.43 LIG-0.27  OA
ATOM     29  N   TYR S   5      44.252  55.379  48.301  1.00 19.70 LIG-0.35  N 
ATOM     30 H    TYR S   5      43.615  55.391  47.722  1.00 19.70 LIG 0.16  HD
BRANCH 29 31
ATOM     31  CA  TYR S   5      43.834  55.765  49.648  1.00 19.15 LIG 0.18  C 
BRANCH 31 32
ATOM     32  C   TYR S   5      43.894  54.503  50.495  1.00 19.17 LIG 0.24  C 
ATOM     33  N   PHE S   6      44.429  54.641  51.704  1.00 19.00 LIG-0.34  N 
ATOM     34 H    PHE S   6      44.743  55.386  51.997  1.00 19.00 LIG 0.16  HD
ATOM     35 O    TYR S   5      43.506  53.419  50.052  1.00 19.39 LIG-0.27  OA
BRANCH 33 36
ATOM     36  CA  PHE S   6      44.538  53.544  52.658  1.00 19.20 LIG 0.19  C 
BRANCH 36 37
ATOM     37  C   PHE S   6      43.839  53.820  53.983  1.00 19.81 LIG 0.20  C 
ATOM     38 O    PHE S   6      44.379  54.550  54.833  1.00 18.53 LIG-0.65  OA
ATOM     39 OXT  PHE S   6      42.725  53.255  54.146  1.00 20.48 LIG-0.65  OA
ENDBRANCH 36 37
BRANCH 36 40
ATOM     40  CB  PHE S   6      46.017  53.233  52.904  1.00 19.81 LIG 0.07  C 
BRANCH 40 41
ATOM     41  CG  PHE S   6      46.566  52.096  52.036  1.00 21.45 LIG-0.06  A 
ATOM     42  CD2 PHE S   6      45.798  51.549  51.026  1.00 24.56 LIG 0.01  A 
ATOM     43  CE2 PHE S   6      46.293  50.506  50.231  1.00 25.95 LIG 0.00  A 
ATOM     44  CZ  PHE S   6      47.569  50.054  50.431  1.00 23.46 LIG 0.00  A 
ATOM     45  CE1 PHE S   6      48.355  50.605  51.411  1.00 24.74 LIG 0.00  A 
ATOM     46  CD1 PHE S   6      47.870  51.611  52.203  1.00 22.31 LIG 0.01  A 
ENDBRANCH 40 41
ENDBRANCH 36 40
ENDBRANCH 33 36
ENDBRANCH 31 32
BRANCH 31 47
ATOM     47  CB  TYR S   5      42.414  56.356  49.595  1.00 19.45 LIG 0.07  C 
BRANCH 47 48
ATOM     48  CG  TYR S   5      41.463  55.754  48.594  1.00 19.88 LIG-0.06  A 
ATOM     49  CD1 TYR S   5      40.670  56.537  47.763  1.00 18.15 LIG 0.01  A 
ATOM     50  CE1 TYR S   5      39.791  55.972  46.875  1.00 18.26 LIG 0.04  A 
ATOM     51  CZ  TYR S   5      39.706  54.591  46.785  1.00 18.69 LIG 0.07  A 
ATOM     52  CE2 TYR S   5      40.485  53.801  47.578  1.00 19.96 LIG 0.04  A 
ATOM     53  CD2 TYR S   5      41.356  54.379  48.488  1.00 21.89 LIG 0.01  A 
BRANCH 51 54
ATOM     54 OH   TYR S   5      38.838  54.006  45.904  1.00 21.24 LIG-0.36  OA
ATOM     55 HH   TYR S   5      38.486  54.597  45.423  1.00 21.24 LIG 0.22  HD
ENDBRANCH 51 54
ENDBRANCH 47 48
ENDBRANCH 31 47
ENDBRANCH 29 31
ENDBRANCH 1 27
BRANCH 1 56
ATOM     56  CB  PHE S   4      45.943  53.069  46.571  1.00 21.76 LIG 0.07  C 
BRANCH 56 57
ATOM     57  CG  PHE S   4      44.683  52.290  46.740  1.00 21.60 LIG-0.06  A 
ATOM     58  CD2 PHE S   4      44.560  51.371  47.758  1.00 23.13 LIG 0.01  A 
ATOM     59  CE2 PHE S   4      43.425  50.630  47.898  1.00 23.23 LIG 0.00  A 
ATOM     60  CZ  PHE S   4      42.365  50.851  47.073  1.00 22.51 LIG 0.00  A 
ATOM     61  CE1 PHE S   4      42.464  51.764  46.045  1.00 22.53 LIG 0.00  A 
ATOM     62  CD1 PHE S   4      43.620  52.484  45.875  1.00 22.71 LIG 0.01  A 
ENDBRANCH 56 57
ENDBRANCH 1 56
TORSDOF 22
ENDMDL
MODEL 2
USER: ADFR SOLUTION from run 142
USER: SCORE 22.405862 LL:  -6.297 LR: -17.156 RR:   0.000 FEB: -10.593
USER: RMSD 2.444801
USER: SEED 141
USER: STATUS no improvement in best 2 clusters for 5 generations
USER: GENES 24
USER: genes 0 Translation |==|  0.47581 0.51982 0.51227
USER: genes 1 Rotation |==|  0.55791 0.48308 0.65254 0.97233
USER: genes 2 Torsion [CB]-CA--N-[C] |==|  0.21547
USER: genes 3 Torsion [N]-C--CA-[N] |==|  0.36881
USER: genes 4 Torsion [C]-CA--CB-[CG] |==|  0.48604
USER: genes 5 Torsion [CA]-CB--CG-[CD] |==|  0.28082
USER: genes 6 Torsion [CB]-CG--CD-[OE1] |==|  0.87792
USER: genes 7 Torsion [C]-CA--N-[C] |==|  0.77379
USER: genes 8 Torsion [N]-C--CA-[N] |==|  0.47547
USER: genes 9 Torsion [C]-CA--N-[H2] |==|  0.16385
USER: genes 10 Torsion [C]-CA--CB-[CG] |==|  0.85248
USER: genes 11 Torsion [CA]-CB--CG-[OD1] |==|  0.81109
USER: genes 12 Torsion [N]-CA--C-[N] |==|  0.46971
USER: genes 13 Torsion [C]-N--CA-[C] |==|  0.77183
USER: genes 14 Torsion [N]-CA--C-[N] |==|  0.42489
USER: genes 15 Torsion [C]-N--CA-[C] |==|  0.60777
USER: genes 16 Torsion [N]-CA--C-[O] |==|  0.41113
USER: genes 17 Torsion [N]-CA--CB-[CG] |==|  0.69795
USER: genes 18 Torsion [CA]-CB--CG-[CD2] |==|  0.01349
USER: genes 19 Torsion [N]-CA--CB-[CG] |==|  0.53339
USER: genes 20 Torsion [CA]-CB--CG-[CD2] |==|  0.02185
USER: genes 21 Torsion [CE1]-CZ--OH-[HH] |==|  0.09135
USER: genes 22 Torsion [N]-CA--CB-[CG] |==|  0.12943
USER: genes 23 Torsion [CA]-CB--CG-[CD1] |==|  0.20811
ROOT
ATOM      1  CA  PHE S   4      43.504  54.975  53.538  1.00 21.41 LIG 0.18  C 
ENDROOT
BRANCH 1 2
ATOM      2  N   PHE S   4      43.371  54.156  54.736  1.00 22.57 LIG-0.35  N 
ATOM      3 H    PHE S   4      43.116  53.349  54.581  1.00 22.57 LIG 0.16  HD
ATOM      4  C   GLU S   3      43.623  54.625  55.957  1.00 26.46 LIG 0.24  C 
ATOM      5 O    GLU S   3      43.983  55.787  56.175  1.00 26.71 LIG-0.27  OA
BRANCH 4 6
ATOM      6  CA  GLU S   3      43.371  53.664  57.107  1.00 28.27 LIG 0.18  C 
BRANCH 6 7
ATOM      7  CB  GLU S   3      42.134  54.210  57.801  1.00 28.84 LIG 0.04  C 
BRANCH 7 8
ATOM      8  CG  GLU S   3      41.559  53.410  58.920  1.00 31.31 LIG 0.12  C 
BRANCH 8 9
ATOM      9  CD  GLU S   3      41.980  54.014  60.238  1.00 32.39 LIG 0.17  C 
ATOM     10 OE2  GLU S   3      41.118  54.145  61.107  1.00 38.97 LIG-0.65  OA
ATOM     11 OE1  GLU S   3      43.177  54.380  60.388  1.00 34.38 LIG-0.65  OA
ENDBRANCH 8 9
ENDBRANCH 7 8
ENDBRANCH 6 7
BRANCH 6 12
ATOM     12  N   GLU S   3      44.538  53.695  58.012  1.00 29.65 LIG-0.35  N 
ATOM     13 H    GLU S   3      44.426  54.198  58.701  1.00 29.65 LIG 0.16  HD
ATOM     14  C   ASN S   2      45.649  53.013  57.787  1.00 31.60 LIG 0.25  C 
ATOM     15 O    ASN S   2      45.744  52.130  56.945  1.00 31.89 LIG-0.27  OA
BRANCH 14 16
ATOM     16  CA  ASN S   2      46.853  53.424  58.653  1.00 33.47 LIG 0.28  C 
BRANCH 16 17
ATOM     17  N   ASN S   2      48.023  52.514  58.531  1.00 34.35 LIG-0.07  N 
ATOM     18 H2   ASN S   2      48.292  52.488  57.683  1.00 34.35 LIG 0.28  HD
ATOM     19 H3   ASN S   2      48.686  52.814  59.043  1.00 34.35 LIG 0.28  HD
ATOM     20 H1   ASN S   2      47.792  51.696  58.795  1.00 34.35 LIG 0.28  HD
ENDBRANCH 16 17
BRANCH 16 21
ATOM     21  CB  ASN S   2      47.303  54.849  58.388  1.00 34.36 LIG 0.14  C 
BRANCH 21 22
ATOM     22  CG  ASN S   2      47.561  55.094  56.906  1.00 36.60 LIG 0.22  C 
ATOM     23 OD1  ASN S   2      48.520  54.541  56.303  1.00 40.55 LIG-0.27  OA
ATOM     24  ND2 ASN S   2      46.716  55.919  56.305  1.00 40.03 LIG-0.37  N 
ATOM     25 22HD ASN S   2      46.073  56.277  56.751  1.00 40.03 LIG 0.16  HD
ATOM     26 21HD ASN S   2      46.810  56.096  55.468  1.00 40.03 LIG 0.16  HD
ENDBRANCH 21 22
ENDBRANCH 16 21
ENDBRANCH 14 16
ENDBRANCH 6 12
ENDBRANCH 4 6
ENDBRANCH 1 2
BRANCH 1 27
ATOM     27  C   PHE S   4      42.757  54.342  52.366  1.00 20.14 LIG 0.24  C 
ATOM     28 O    PHE S   4      42.356  53.184  52.416  1.00 18.43 LIG-0.27  OA
ATOM     29  N   TYR S   5      42.626  55.113  51.295  1.00 19.70 LIG-0.35  N 
ATOM     30 H    TYR S   5      42.884  55.933  51.266  1.00 19.70 LIG 0.16  HD
BRANCH 29 31
ATOM     31  CA  TYR S   5      42.022  54.638  50.050  1.00 19.15 LIG 0.18  C 
BRANCH 31 32
ATOM     32  C   TYR S   5      43.114  53.892  49.300  1.00 19.17 LIG 0.24  C 
ATOM     33  N   PHE S   6      42.701  52.938  48.470  1.00 19.00 LIG-0.34  N 
ATOM     34 H    PHE S   6      41.873  52.732  48.367  1.00 19.00 LIG 0.16  HD
ATOM     35 O    TYR S   5      44.307  54.140  49.497  1.00 19.39 LIG-0.27  OA
BRANCH 33 36
ATOM     36  CA  PHE S   6      43.608  52.145  47.651  1.00 19.20 LIG 0.19  C 
BRANCH 36 37
ATOM     37  C   PHE S   6      43.071  51.858  46.255  1.00 19.81 LIG 0.20  C 
ATOM     38 O    PHE S   6      43.855  51.752  45.295  1.00 18.53 LIG-0.65  OA
ATOM     39 OXT  PHE S   6      41.819  51.762  46.154  1.00 20.48 LIG-0.65  OA
ENDBRANCH 36 37
BRANCH 36 40
ATOM     40  CB  PHE S   6      43.920  50.829  48.369  1.00 19.81 LIG 0.07  C 
BRANCH 40 41
ATOM     41  CG  PHE S   6      45.351  50.743  48.914  1.00 21.45 LIG-0.06  A 
ATOM     42  CD2 PHE S   6      46.201  51.828  48.830  1.00 24.56 LIG 0.01  A 
ATOM     43  CE2 PHE S   6      47.512  51.754  49.323  1.00 25.95 LIG 0.00  A 
ATOM     44  CZ  PHE S   6      47.937  50.606  49.934  1.00 23.46 LIG 0.00  A 
ATOM     45  CE1 PHE S   6      47.095  49.529  50.051  1.00 24.74 LIG 0.00  A 
ATOM     46  CD1 PHE S   6      45.821  49.589  49.555  1.00 22.31 LIG 0.01  A 
ENDBRANCH 40 41
ENDBRANCH 36 40
ENDBRANCH 33 36
ENDBRANCH 31 32
BRANCH 31 47
ATOM     47  CB  TYR S   5      41.490  55.839  49.248  1.00 19.45 LIG 0.07  C 
BRANCH 47 48
ATOM     48  CG  TYR S   5      40.593  55.532  48.078  1.00 19.88 LIG-0.06  A 
ATOM     49  CD1 TYR S   5      40.176  56.516  47.187  1.00 18.15 LIG 0.01  A 
ATOM     50  CE1 TYR S   5      39.339  56.223  46.142  1.00 18.26 LIG 0.04  A 
ATOM     51  CZ  TYR S   5      38.916  54.916  45.951  1.00 18.69 LIG 0.07  A 
ATOM     52  CE2 TYR S   5      39.324  53.930  46.801  1.00 19.96 LIG 0.04  A 
ATOM     53  CD2 TYR S   5      40.153  54.238  47.869  1.00 21.89 LIG 0.01  A 
BRANCH 51 54
ATOM     54 OH   TYR S   5      38.083  54.601  44.913  1.00 21.24 LIG-0.36  OA
ATOM     55 HH   TYR S   5      38.250  55.100  44.258  1.00 21.24 LIG 0.22  HD
ENDBRANCH 51 54
ENDBRANCH 47 48
ENDBRANCH 31 47
ENDBRANCH 29 31
ENDBRANCH 1 27
BRANCH 1 56
ATOM     56  CB  PHE S   4      44.974  55.087  53.193  1.00 21.76 LIG 0.07  C 
BRANCH 56 57
ATOM     57  CG  PHE S   4      45.695  53.782  53.236  1.00 21.60 LIG-0.06  A 
ATOM     58  CD2 PHE S   4      46.539  53.484  54.282  1.00 23.13 LIG 0.01  A 
ATOM     59  CE2 PHE S   4      47.229  52.310  54.311  1.00 23.23 LIG 0.00  A 
ATOM     60  CZ  PHE S   4      47.026  51.380  53.337  1.00 22.51 LIG 0.00  A 
ATOM     61  CE1 PHE S   4      46.188  51.655  52.279  1.00 22.53 LIG 0.00  A 
ATOM     62  CD1 PHE S   4      45.521  52.854  52.224  1.00 22.71 LIG 0.01  A 
ENDBRANCH 56 57
ENDBRANCH 1 56
TORSDOF 22
ENDMDL
MODEL 3
USER: ADFR SOLUTION from run 122
USER: SCORE 22.018540 LL:  -6.127 LR: -17.102 RR:   0.000 FEB: -10.539
USER: RMSD 1.883305
USER: SEED 121
USER: STATUS 1 or 2 clusters left
USER: GENES 24
USER: genes 0 Translation |==|  0.51860 0.47945 0.50174
USER: genes 1 Rotation |==|  0.46391 0.47270 0.50006 0.99795
USER: genes 2 Torsion [CB]-CA--N-[C] |==|  0.51113
USER: genes 3 Torsion [N]-C--CA-[N] |==|  0.03670
USER: genes 4 Torsion [C]-CA--CB-[CG] |==|  0.46211
USER: genes 5 Torsion [CA]-CB--CG-[CD] |==|  0.20308
USER: genes 6 Torsion [CB]-CG--CD-[OE1] |==|  0.70555
USER: genes 7 Torsion [C]-CA--N-[C] |==|  0.20359
USER: genes 8 Torsion [N]-C--CA-[N] |==|  0.21232
USER: genes 9 Torsion [C]-CA--N-[H2] |==|  0.56933
USER: genes 10 Torsion [C]-CA--CB-[CG] |==|  0.32775
USER: genes 11 Torsion [CA]-CB--CG-[OD1] |==|  0.25322
USER: genes 12 Torsion [N]-CA--C-[N] |==|  0.30359
USER: genes 13 Torsion [C]-N--CA-[C] |==|  0.77082
USER: genes 14 Torsion [N]-CA--C-[N] |==|  0.32710
USER: genes 15 Torsion [C]-N--CA-[C] |==|  0.70816
USER: genes 16 Torsion [N]-CA--C-[O] |==|  0.94086
USER: genes 17 Torsion [N]-CA--CB-[CG] |==|  0.81305
USER: genes 18 Torsion [CA]-CB--CG-[CD2] |==|  0.45314
USER: genes 19 Torsion [N]-CA--CB-[CG] |==|  0.47185
USER: genes 20 Torsion [CA]-CB--CG-[CD2] |==|  0.07755
USER: genes 21 Torsion [CE1]-CZ--OH-[HH] |==|  0.63420
USER: genes 22 Torsion [N]-CA--CB-[CG] |==|  0.79292
USER: genes 23 Torsion [CA]-CB--CG-[CD1] |==|  0.18981
ROOT
ATOM      1  CA  PHE S   4      44.788  53.764  53.222  1.00 21.41 LIG 0.18  C 
ENDROOT
BRANCH 1 2
ATOM      2  N   PHE S   4      44.227  53.630  54.560  1.00 22.57 LIG-0.35  N 
ATOM      3 H    PHE S   4      44.697  53.140  55.089  1.00 22.57 LIG 0.16  HD
ATOM      4  C   GLU S   3      43.088  54.218  54.923  1.00 26.46 LIG 0.24  C 
ATOM      5 O    GLU S   3      42.414  54.917  54.158  1.00 26.71 LIG-0.27  OA
BRANCH 4 6
ATOM      6  CA  GLU S   3      42.603  53.926  56.333  1.00 28.27 LIG 0.18  C 
BRANCH 6 7
ATOM      7  CB  GLU S   3      42.268  55.289  56.915  1.00 28.84 LIG 0.04  C 
BRANCH 7 8
ATOM      8  CG  GLU S   3      41.474  55.325  58.177  1.00 31.31 LIG 0.12  C 
BRANCH 8 9
ATOM      9  CD  GLU S   3      42.346  54.899  59.332  1.00 32.39 LIG 0.17  C 
ATOM     10 OE2  GLU S   3      43.211  55.687  59.716  1.00 38.97 LIG-0.65  OA
ATOM     11 OE1  GLU S   3      42.176  53.756  59.837  1.00 34.38 LIG-0.65  OA
ENDBRANCH 8 9
ENDBRANCH 7 8
ENDBRANCH 6 7
BRANCH 6 12
ATOM     12  N   GLU S   3      43.701  53.288  57.087  1.00 29.65 LIG-0.35  N 
ATOM     13 H    GLU S   3      43.583  52.447  57.222  1.00 29.65 LIG 0.16  HD
ATOM     14  C   ASN S   2      44.766  53.946  57.515  1.00 31.60 LIG 0.25  C 
ATOM     15 O    ASN S   2      45.058  55.076  57.147  1.00 31.89 LIG-0.27  OA
BRANCH 14 16
ATOM     16  CA  ASN S   2      45.625  53.197  58.548  1.00 33.47 LIG 0.28  C 
BRANCH 16 17
ATOM     17  N   ASN S   2      46.480  52.130  57.963  1.00 34.35 LIG-0.07  N 
ATOM     18 H2   ASN S   2      46.660  51.519  58.585  1.00 34.35 LIG 0.28  HD
ATOM     19 H3   ASN S   2      46.052  51.745  57.285  1.00 34.35 LIG 0.28  HD
ATOM     20 H1   ASN S   2      47.240  52.487  57.669  1.00 34.35 LIG 0.28  HD
ENDBRANCH 16 17
BRANCH 16 21
ATOM     21  CB  ASN S   2      46.492  54.130  59.373  1.00 34.36 LIG 0.14  C 
BRANCH 21 22
ATOM     22  CG  ASN S   2      46.141  54.064  60.855  1.00 36.60 LIG 0.22  C 
ATOM     23 OD1  ASN S   2      46.723  53.263  61.637  1.00 40.55 LIG-0.27  OA
ATOM     24  ND2 ASN S   2      45.193  54.898  61.259  1.00 40.03 LIG-0.37  N 
ATOM     25 22HD ASN S   2      44.819  55.430  60.695  1.00 40.03 LIG 0.16  HD
ATOM     26 21HD ASN S   2      44.952  54.907  62.084  1.00 40.03 LIG 0.16  HD
ENDBRANCH 21 22
ENDBRANCH 16 21
ENDBRANCH 14 16
ENDBRANCH 6 12
ENDBRANCH 4 6
ENDBRANCH 1 2
BRANCH 1 27
ATOM     27  C   PHE S   4      43.776  53.321  52.167  1.00 20.14 LIG 0.24  C 
ATOM     28 O    PHE S   4      43.505  52.137  52.001  1.00 18.43 LIG-0.27  OA
ATOM     29  N   TYR S   5      43.264  54.297  51.429  1.00 19.70 LIG-0.35  N 
ATOM     30 H    TYR S   5      43.434  55.130  51.560  1.00 19.70 LIG 0.16  HD
BRANCH 29 31
ATOM     31  CA  TYR S   5      42.354  54.046  50.312  1.00 19.15 LIG 0.18  C 
BRANCH 31 32
ATOM     32  C   TYR S   5      43.226  53.696  49.116  1.00 19.17 LIG 0.24  C 
ATOM     33  N   PHE S   6      43.057  52.477  48.612  1.00 19.00 LIG-0.34  N 
ATOM     34 H    PHE S   6      42.507  51.904  48.942  1.00 19.00 LIG 0.16  HD
ATOM     35 O    TYR S   5      44.064  54.491  48.684  1.00 19.39 LIG-0.27  OA
BRANCH 33 36
ATOM     36  CA  PHE S   6      43.788  51.986  47.450  1.00 19.20 LIG 0.19  C 
BRANCH 36 37
ATOM     37  C   PHE S   6      42.945  51.932  46.183  1.00 19.81 LIG 0.20  C 
ATOM     38 O    PHE S   6      41.705  51.898  46.260  1.00 18.53 LIG-0.65  OA
ATOM     39 OXT  PHE S   6      43.584  51.907  45.097  1.00 20.48 LIG-0.65  OA
ENDBRANCH 36 37
BRANCH 36 40
ATOM     40  CB  PHE S   6      44.355  50.597  47.759  1.00 19.81 LIG 0.07  C 
BRANCH 40 41
ATOM     41  CG  PHE S   6      45.451  50.598  48.830  1.00 21.45 LIG-0.06  A 
ATOM     42  CD2 PHE S   6      45.815  49.426  49.464  1.00 24.56 LIG 0.01  A 
ATOM     43  CE2 PHE S   6      46.815  49.423  50.447  1.00 25.95 LIG 0.00  A 
ATOM     44  CZ  PHE S   6      47.467  50.587  50.750  1.00 23.46 LIG 0.00  A 
ATOM     45  CE1 PHE S   6      47.136  51.754  50.109  1.00 24.74 LIG 0.00  A 
ATOM     46  CD1 PHE S   6      46.149  51.768  49.162  1.00 22.31 LIG 0.01  A 
ENDBRANCH 40 41
ENDBRANCH 36 40
ENDBRANCH 33 36
ENDBRANCH 31 32
BRANCH 31 47
ATOM     47  CB  TYR S   5      41.500  55.301  50.055  1.00 19.45 LIG 0.07  C 
BRANCH 47 48
ATOM     48  CG  TYR S   5      40.672  55.316  48.797  1.00 19.88 LIG-0.06  A 
ATOM     49  CD1 TYR S   5      40.324  56.498  48.154  1.00 18.15 LIG 0.01  A 
ATOM     50  CE1 TYR S   5      39.548  56.494  47.024  1.00 18.26 LIG 0.04  A 
ATOM     51  CZ  TYR S   5      39.120  55.286  46.495  1.00 18.69 LIG 0.07  A 
ATOM     52  CE2 TYR S   5      39.462  54.111  47.097  1.00 19.96 LIG 0.04  A 
ATOM     53  CD2 TYR S   5      40.229  54.124  48.252  1.00 21.89 LIG 0.01  A 
BRANCH 51 54
ATOM     54 OH   TYR S   5      38.348  55.258  45.366  1.00 21.24 LIG-0.36  OA
ATOM     55 HH   TYR S   5      37.688  54.752  45.491  1.00 21.24 LIG 0.22  HD
ENDBRANCH 51 54
ENDBRANCH 47 48
ENDBRANCH 31 47
ENDBRANCH 29 31
ENDBRANCH 1 27
BRANCH 1 56
ATOM     56  CB  PHE S   4      46.023  52.892  53.128  1.00 21.76 LIG 0.07  C 
BRANCH 56 57
ATOM     57  CG  PHE S   4      47.201  53.454  53.849  1.00 21.60 LIG-0.06  A 
ATOM     58  CD2 PHE S   4      48.298  53.905  53.149  1.00 23.13 LIG 0.01  A 
ATOM     59  CE2 PHE S   4      49.394  54.387  53.800  1.00 23.23 LIG 0.00  A 
ATOM     60  CZ  PHE S   4      49.380  54.499  55.157  1.00 22.51 LIG 0.00  A 
ATOM     61  CE1 PHE S   4      48.295  54.052  55.880  1.00 22.53 LIG 0.00  A 
ATOM     62  CD1 PHE S   4      47.205  53.529  55.231  1.00 22.71 LIG 0.01  A 
ENDBRANCH 56 57
ENDBRANCH 1 56
TORSDOF 22
ENDMDL
MODEL 4
USER: ADFR SOLUTION from run 101
USER: SCORE 19.724716 LL:  -4.331 LR: -16.887 RR:   0.000 FEB: -10.325
USER: RMSD 10.106604
USER: SEED 100
USER: STATUS no improvement in best 4 clusters for 5 generations
USER: GENES 24
USER: genes 0 Translation |==|  0.57315 0.53300 0.27670
USER: genes 1 Rotation |==|  0.21919 0.83783 0.45141 0.73378
USER: genes 2 Torsion [CB]-CA--N-[C] |==|  0.10848
USER: genes 3 Torsion [N]-C--CA-[N] |==|  0.29295
USER: genes 4 Torsion [C]-CA--CB-[CG] |==|  0.10248
USER: genes 5 Torsion [CA]-CB--CG-[CD] |==|  0.66972
USER: genes 6 Torsion [CB]-CG--CD-[OE1] |==|  0.35858
USER: genes 7 Torsion [C]-CA--N-[C] |==|  0.61394
USER: genes 8 Torsion [N]-C--CA-[N] |==|  0.26439
USER: genes 9 Torsion [C]-CA--N-[H2] |==|  0.51016
USER: genes 10 Torsion [C]-CA--CB-[CG] |==|  0.31499
USER: genes 11 Torsion [CA]-CB--CG-[OD1] |==|  0.76450
USER: genes 12 Torsion [N]-CA--C-[N] |==|  0.65556
USER: genes 13 Torsion [C]-N--CA-[C] |==|  0.64787
USER: genes 14 Torsion [N]-CA--C-[N] |==|  0.50993
USER: genes 15 Torsion [C]-N--CA-[C] |==|  0.10679
USER: genes 16 Torsion [N]-CA--C-[O] |==|  0.59377
USER: genes 17 Torsion [N]-CA--CB-[CG] |==|  0.18438
USER: genes 18 Torsion [CA]-CB--CG-[CD2] |==|  0.25971
USER: genes 19 Torsion [N]-CA--CB-[CG] |==|  0.02695
USER: genes 20 Torsion [CA]-CB--CG-[CD2] |==|  0.20229
USER: genes 21 Torsion [CE1]-CZ--OH-[HH] |==|  0.60544
USER: genes 22 Torsion [N]-CA--CB-[CG] |==|  0.67795
USER: genes 23 Torsion [CA]-CB--CG-[CD1] |==|  0.82070
ROOT
ATOM      1  CA  PHE S   4      46.424  55.370  46.471  1.00 21.41 LIG 0.18  C 
ENDROOT
BRANCH 1 2
ATOM      2  N   PHE S   4      47.622  56.141  46.164  1.00 22.57 LIG-0.35  N 
ATOM      3 H    PHE S   4      47.665  56.897  46.571  1.00 22.57 LIG 0.16  HD
ATOM      4  C   GLU S   3      48.562  55.703  45.327  1.00 26.46 LIG 0.24  C 
ATOM      5 O    GLU S   3      48.493  54.617  44.740  1.00 26.71 LIG-0.27  OA
BRANCH 4 6
ATOM      6  CA  GLU S   3      49.717  56.654  45.061  1.00 28.27 LIG 0.18  C 
BRANCH 6 7
ATOM      7  CB  GLU S   3      49.934  56.586  43.558  1.00 28.84 LIG 0.04  C 
BRANCH 7 8
ATOM      8  CG  GLU S   3      48.728  56.454  42.691  1.00 31.31 LIG 0.12  C 
BRANCH 8 9
ATOM      9  CD  GLU S   3      48.809  55.166  41.910  1.00 32.39 LIG 0.17  C 
ATOM     10 OE2  GLU S   3      49.837  54.951  41.268  1.00 38.97 LIG-0.65  OA
ATOM     11 OE1  GLU S   3      47.823  54.380  41.923  1.00 34.38 LIG-0.65  OA
ENDBRANCH 8 9
ENDBRANCH 7 8
ENDBRANCH 6 7
BRANCH 6 12
ATOM     12  N   GLU S   3      50.907  56.167  45.787  1.00 29.65 LIG-0.35  N 
ATOM     13 H    GLU S   3      51.006  55.313  45.752  1.00 29.65 LIG 0.16  HD
ATOM     14  C   ASN S   2      51.742  56.966  46.430  1.00 31.60 LIG 0.25  C 
ATOM     15 O    ASN S   2      51.747  58.183  46.306  1.00 31.89 LIG-0.27  OA
BRANCH 14 16
ATOM     16  CA  ASN S   2      52.719  56.257  47.385  1.00 33.47 LIG 0.28  C 
BRANCH 16 17
ATOM     17  N   ASN S   2      54.046  55.962  46.783  1.00 34.35 LIG-0.07  N 
ATOM     18 H2   ASN S   2      54.542  55.507  47.365  1.00 34.35 LIG 0.28  HD
ATOM     19 H3   ASN S   2      53.936  55.477  46.045  1.00 34.35 LIG 0.28  HD
ATOM     20 H1   ASN S   2      54.455  56.725  46.577  1.00 34.35 LIG 0.28  HD
ENDBRANCH 16 17
BRANCH 16 21
ATOM     21  CB  ASN S   2      52.921  57.017  48.682  1.00 34.36 LIG 0.14  C 
BRANCH 21 22
ATOM     22  CG  ASN S   2      52.360  56.255  49.877  1.00 36.60 LIG 0.22  C 
ATOM     23 OD1  ASN S   2      51.143  56.337  50.199  1.00 40.55 LIG-0.27  OA
ATOM     24  ND2 ASN S   2      53.230  55.511  50.545  1.00 40.03 LIG-0.37  N 
ATOM     25 22HD ASN S   2      54.052  55.481  50.294  1.00 40.03 LIG 0.16  HD
ATOM     26 21HD ASN S   2      52.972  55.057  51.229  1.00 40.03 LIG 0.16  HD
ENDBRANCH 21 22
ENDBRANCH 16 21
ENDBRANCH 14 16
ENDBRANCH 6 12
ENDBRANCH 4 6
ENDBRANCH 1 2
BRANCH 1 27
ATOM     27  C   PHE S   4      45.810  55.832  47.790  1.00 20.14 LIG 0.24  C 
ATOM     28 O    PHE S   4      45.536  57.010  47.988  1.00 18.43 LIG-0.27  OA
ATOM     29  N   TYR S   5      45.648  54.883  48.703  1.00 19.70 LIG-0.35  N 
ATOM     30 H    TYR S   5      45.816  54.052  48.558  1.00 19.70 LIG 0.16  HD
BRANCH 29 31
ATOM     31  CA  TYR S   5      45.162  55.162  50.054  1.00 19.15 LIG 0.18  C 
BRANCH 31 32
ATOM     32  C   TYR S   5      46.177  54.556  51.010  1.00 19.17 LIG 0.24  C 
ATOM     33  N   PHE S   6      45.878  54.639  52.303  1.00 19.00 LIG-0.34  N 
ATOM     34 H    PHE S   6      45.168  55.024  52.598  1.00 19.00 LIG 0.16  HD
ATOM     35 O    TYR S   5      47.229  54.063  50.595  1.00 19.39 LIG-0.27  OA
BRANCH 33 36
ATOM     36  CA  PHE S   6      46.722  54.085  53.355  1.00 19.20 LIG 0.19  C 
BRANCH 36 37
ATOM     37  C   PHE S   6      48.212  54.255  53.089  1.00 19.81 LIG 0.20  C 
ATOM     38 O    PHE S   6      49.016  53.385  53.468  1.00 18.53 LIG-0.65  OA
ATOM     39 OXT  PHE S   6      48.550  55.314  52.497  1.00 20.48 LIG-0.65  OA
ENDBRANCH 36 37
BRANCH 36 40
ATOM     40  CB  PHE S   6      46.391  52.602  53.542  1.00 19.81 LIG 0.07  C 
BRANCH 40 41
ATOM     41  CG  PHE S   6      46.758  51.727  52.337  1.00 21.45 LIG-0.06  A 
ATOM     42  CD2 PHE S   6      47.980  51.085  52.281  1.00 24.56 LIG 0.01  A 
ATOM     43  CE2 PHE S   6      48.322  50.288  51.180  1.00 25.95 LIG 0.00  A 
ATOM     44  CZ  PHE S   6      47.416  50.109  50.170  1.00 23.46 LIG 0.00  A 
ATOM     45  CE1 PHE S   6      46.187  50.717  50.224  1.00 24.74 LIG 0.00  A 
ATOM     46  CD1 PHE S   6      45.855  51.512  51.288  1.00 22.31 LIG 0.01  A 
ENDBRANCH 40 41
ENDBRANCH 36 40
ENDBRANCH 33 36
ENDBRANCH 31 32
BRANCH 31 47
ATOM     47  CB  TYR S   5      43.763  54.546  50.233  1.00 19.45 LIG 0.07  C 
BRANCH 47 48
ATOM     48  CG  TYR S   5      43.279  53.625  49.144  1.00 19.88 LIG-0.06  A 
ATOM     49  CD1 TYR S   5      42.285  53.999  48.247  1.00 18.15 LIG 0.01  A 
ATOM     50  CE1 TYR S   5      41.839  53.139  47.277  1.00 18.26 LIG 0.04  A 
ATOM     51  CZ  TYR S   5      42.406  51.879  47.170  1.00 18.69 LIG 0.07  A 
ATOM     52  CE2 TYR S   5      43.395  51.494  48.027  1.00 19.96 LIG 0.04  A 
ATOM     53  CD2 TYR S   5      43.826  52.361  49.019  1.00 21.89 LIG 0.01  A 
BRANCH 51 54
ATOM     54 OH   TYR S   5      41.979  51.005  46.208  1.00 21.24 LIG-0.36  OA
ATOM     55 HH   TYR S   5      41.970  50.226  46.522  1.00 21.24 LIG 0.22  HD
ENDBRANCH 51 54
ENDBRANCH 47 48
ENDBRANCH 31 47
ENDBRANCH 29 31
ENDBRANCH 1 27
BRANCH 1 56
ATOM     56  CB  PHE S   4      46.806  53.909  46.581  1.00 21.76 LIG 0.07  C 
BRANCH 56 57
ATOM     57  CG  PHE S   4      46.173  53.050  45.540  1.00 21.60 LIG-0.06  A 
ATOM     58  CD2 PHE S   4      46.946  52.406  44.599  1.00 23.13 LIG 0.01  A 
ATOM     59  CE2 PHE S   4      46.373  51.648  43.623  1.00 23.23 LIG 0.00  A 
ATOM     60  CZ  PHE S   4      45.025  51.456  43.618  1.00 22.51 LIG 0.00  A 
ATOM     61  CE1 PHE S   4      44.230  52.091  44.547  1.00 22.53 LIG 0.00  A 
ATOM     62  CD1 PHE S   4      44.799  52.888  45.508  1.00 22.71 LIG 0.01  A 
ENDBRANCH 56 57
ENDBRANCH 1 56
TORSDOF 22
ENDMDL
MODEL 5
USER: ADFR SOLUTION from run 100
USER: SCORE 19.661246 LL:  -4.276 LR: -16.706 RR:   0.000 FEB: -10.144
USER: RMSD 6.786590
USER: SEED 99
USER: STATUS no improvement in best 3 clusters for 5 generations
USER: GENES 24
USER: genes 0 Translation |==|  0.42826 0.49624 0.42305
USER: genes 1 Rotation |==|  0.41444 0.52178 0.97893 0.61326
USER: genes 2 Torsion [CB]-CA--N-[C] |==|  0.53960
USER: genes 3 Torsion [N]-C--CA-[N] |==|  0.55581
USER: genes 4 Torsion [C]-CA--CB-[CG] |==|  0.32496
USER: genes 5 Torsion [CA]-CB--CG-[CD] |==|  0.90550
USER: genes 6 Torsion [CB]-CG--CD-[OE1] |==|  0.77008
USER: genes 7 Torsion [C]-CA--N-[C] |==|  0.18386
USER: genes 8 Torsion [N]-C--CA-[N] |==|  0.13676
USER: genes 9 Torsion [C]-CA--N-[H2] |==|  0.15137
USER: genes 10 Torsion [C]-CA--CB-[CG] |==|  0.39924
USER: genes 11 Torsion [CA]-CB--CG-[OD1] |==|  0.66930
USER: genes 12 Torsion [N]-CA--C-[N] |==|  0.41590
USER: genes 13 Torsion [C]-N--CA-[C] |==|  0.65287
USER: genes 14 Torsion [N]-CA--C-[N] |==|  0.46662
USER: genes 15 Torsion [C]-N--CA-[C] |==|  0.82690
USER: genes 16 Torsion [N]-CA--C-[O] |==|  0.07075
USER: genes 17 Torsion [N]-CA--CB-[CG] |==|  0.68858
USER: genes 18 Torsion [CA]-CB--CG-[CD2] |==|  0.58497
USER: genes 19 Torsion [N]-CA--CB-[CG] |==|  0.73109
USER: genes 20 Torsion [CA]-CB--CG-[CD2] |==|  0.57558
USER: genes 21 Torsion [CE1]-CZ--OH-[HH] |==|  0.64721
USER: genes 22 Torsion [N]-CA--CB-[CG] |==|  0.59527
USER: genes 23 Torsion [CA]-CB--CG-[CD1] |==|  0.39724
ROOT
ATOM      1  CA  PHE S   4      42.078  54.267  50.862  1.00 21.41 LIG 0.18  C 
ENDROOT
BRANCH 1 2
ATOM      2  N   PHE S   4      42.153  54.607  52.276  1.00 22.57 LIG-0.35  N 
ATOM      3 H    PHE S   4      41.722  55.320  52.488  1.00 22.57 LIG 0.16  HD
ATOM      4  C   GLU S   3      42.832  53.870  53.155  1.00 26.46 LIG 0.24  C 
ATOM      5 O    GLU S   3      43.454  52.848  52.845  1.00 26.71 LIG-0.27  OA
BRANCH 4 6
ATOM      6  CA  GLU S   3      42.869  54.396  54.581  1.00 28.27 LIG 0.18  C 
BRANCH 6 7
ATOM      7  CB  GLU S   3      43.075  55.895  54.433  1.00 28.84 LIG 0.04  C 
BRANCH 7 8
ATOM      8  CG  GLU S   3      41.996  56.793  54.935  1.00 31.31 LIG 0.12  C 
BRANCH 8 9
ATOM      9  CD  GLU S   3      40.655  56.133  54.726  1.00 32.39 LIG 0.17  C 
ATOM     10 OE2  GLU S   3      40.170  55.514  55.674  1.00 38.97 LIG-0.65  OA
ATOM     11 OE1  GLU S   3      40.100  56.219  53.597  1.00 34.38 LIG-0.65  OA
ENDBRANCH 8 9
ENDBRANCH 7 8
ENDBRANCH 6 7
BRANCH 6 12
ATOM     12  N   GLU S   3      44.010  53.775  55.284  1.00 29.65 LIG-0.35  N 
ATOM     13 H    GLU S   3      43.775  53.249  55.923  1.00 29.65 LIG 0.16  HD
ATOM     14  C   ASN S   2      45.272  54.005  54.963  1.00 31.60 LIG 0.25  C 
ATOM     15 O    ASN S   2      45.618  54.564  53.931  1.00 31.89 LIG-0.27  OA
BRANCH 14 16
ATOM     16  CA  ASN S   2      46.305  53.535  56.002  1.00 33.47 LIG 0.28  C 
BRANCH 16 17
ATOM     17  N   ASN S   2      46.105  52.137  56.465  1.00 34.35 LIG-0.07  N 
ATOM     18 H2   ASN S   2      46.081  51.591  55.761  1.00 34.35 LIG 0.28  HD
ATOM     19 H3   ASN S   2      46.776  51.901  56.999  1.00 34.35 LIG 0.28  HD
ATOM     20 H1   ASN S   2      45.337  52.078  56.911  1.00 34.35 LIG 0.28  HD
ENDBRANCH 16 17
BRANCH 16 21
ATOM     21  CB  ASN S   2      47.735  53.697  55.517  1.00 34.36 LIG 0.14  C 
BRANCH 21 22
ATOM     22  CG  ASN S   2      48.673  54.100  56.649  1.00 36.60 LIG 0.22  C 
ATOM     23 OD1  ASN S   2      49.314  55.186  56.619  1.00 40.55 LIG-0.27  OA
ATOM     24  ND2 ASN S   2      48.764  53.240  57.654  1.00 40.03 LIG-0.37  N 
ATOM     25 22HD ASN S   2      48.311  52.510  57.637  1.00 40.03 LIG 0.16  HD
ATOM     26 21HD ASN S   2      49.278  53.413  58.322  1.00 40.03 LIG 0.16  HD
ENDBRANCH 21 22
ENDBRANCH 16 21
ENDBRANCH 14 16
ENDBRANCH 6 12
ENDBRANCH 4 6
ENDBRANCH 1 2
BRANCH 1 27
ATOM     27  C   PHE S   4      43.458  53.899  50.321  1.00 20.14 LIG 0.24  C 
ATOM     28 O    PHE S   4      44.475  54.426  50.758  1.00 18.43 LIG-0.27  OA
ATOM     29  N   TYR S   5      43.462  53.020  49.328  1.00 19.70 LIG-0.35  N 
ATOM     30 H    TYR S   5      42.752  52.630  49.036  1.00 19.70 LIG 0.16  HD
BRANCH 29 31
ATOM     31  CA  TYR S   5      44.684  52.625  48.629  1.00 19.15 LIG 0.18  C 
BRANCH 31 32
ATOM     32  C   TYR S   5      44.436  52.881  47.151  1.00 19.17 LIG 0.24  C 
ATOM     33  N   PHE S   6      45.507  52.823  46.364  1.00 19.00 LIG-0.34  N 
ATOM     34 H    PHE S   6      46.299  52.669  46.659  1.00 19.00 LIG 0.16  HD
ATOM     35 O    TYR S   5      43.312  53.170  46.733  1.00 19.39 LIG-0.27  OA
BRANCH 33 36
ATOM     36  CA  PHE S   6      45.448  53.014  44.920  1.00 19.20 LIG 0.19  C 
BRANCH 36 37
ATOM     37  C   PHE S   6      44.603  51.968  44.204  1.00 19.81 LIG 0.20  C 
ATOM     38 O    PHE S   6      43.692  51.380  44.812  1.00 18.53 LIG-0.65  OA
ATOM     39 OXT  PHE S   6      44.905  51.745  43.001  1.00 20.48 LIG-0.65  OA
ENDBRANCH 36 37
BRANCH 36 40
ATOM     40  CB  PHE S   6      46.869  53.014  44.351  1.00 19.81 LIG 0.07  C 
BRANCH 40 41
ATOM     41  CG  PHE S   6      47.318  54.373  43.802  1.00 21.45 LIG-0.06  A 
ATOM     42  CD2 PHE S   6      48.213  54.447  42.752  1.00 24.56 LIG 0.01  A 
ATOM     43  CE2 PHE S   6      48.629  55.688  42.249  1.00 25.95 LIG 0.00  A 
ATOM     44  CZ  PHE S   6      48.110  56.838  42.778  1.00 23.46 LIG 0.00  A 
ATOM     45  CE1 PHE S   6      47.199  56.781  43.802  1.00 24.74 LIG 0.00  A 
ATOM     46  CD1 PHE S   6      46.802  55.574  44.310  1.00 22.31 LIG 0.01  A 
ENDBRANCH 40 41
ENDBRANCH 36 40
ENDBRANCH 33 36
ENDBRANCH 31 32
BRANCH 31 47
ATOM     47  CB  TYR S   5      44.981  51.142  48.914  1.00 19.45 LIG 0.07  C 
BRANCH 47 48
ATOM     48  CG  TYR S   5      45.965  50.843  50.014  1.00 19.88 LIG-0.06  A 
ATOM     49  CD1 TYR S   5      46.170  51.713  51.079  1.00 18.15 LIG 0.01  A 
ATOM     50  CE1 TYR S   5      47.088  51.437  52.059  1.00 18.26 LIG 0.04  A 
ATOM     51  CZ  TYR S   5      47.811  50.255  52.003  1.00 18.69 LIG 0.07  A 
ATOM     52  CE2 TYR S   5      47.616  49.377  50.977  1.00 19.96 LIG 0.04  A 
ATOM     53  CD2 TYR S   5      46.702  49.673  49.978  1.00 21.89 LIG 0.01  A 
BRANCH 51 54
ATOM     54 OH   TYR S   5      48.730  49.957  52.971  1.00 21.24 LIG-0.36  OA
ATOM     55 HH   TYR S   5      49.468  49.777  52.612  1.00 21.24 LIG 0.22  HD
ENDBRANCH 51 54
ENDBRANCH 47 48
ENDBRANCH 31 47
ENDBRANCH 29 31
ENDBRANCH 1 27
BRANCH 1 56
ATOM     56  CB  PHE S   4      41.548  55.467  50.106  1.00 21.76 LIG 0.07  C 
BRANCH 56 57
ATOM     57  CG  PHE S   4      40.691  55.104  48.941  1.00 21.60 LIG-0.06  A 
ATOM     58  CD2 PHE S   4      40.989  54.003  48.170  1.00 23.13 LIG 0.01  A 
ATOM     59  CE2 PHE S   4      40.232  53.685  47.083  1.00 23.23 LIG 0.00  A 
ATOM     60  CZ  PHE S   4      39.118  54.414  46.796  1.00 22.51 LIG 0.00  A 
ATOM     61  CE1 PHE S   4      38.800  55.521  47.552  1.00 22.53 LIG 0.00  A 
ATOM     62  CD1 PHE S   4      39.582  55.870  48.624  1.00 22.71 LIG 0.01  A 
ENDBRANCH 56 57
ENDBRANCH 1 56
TORSDOF 22
ENDMDL
MODEL 6
USER: ADFR SOLUTION from run 100
USER: SCORE 19.560975 LL:  -4.755 LR: -16.227 RR:   0.000 FEB:  -9.665
USER: RMSD 6.311515
USER: SEED 99
USER: STATUS no improvement in best 3 clusters for 5 generations
USER: GENES 24
USER: genes 0 Translation |==|  0.43493 0.48296 0.43193
USER: genes 1 Rotation |==|  0.42195 0.54317 0.98327 0.59215
USER: genes 2 Torsion [CB]-CA--N-[C] |==|  0.53407
USER: genes 3 Torsion [N]-C--CA-[N] |==|  0.53202
USER: genes 4 Torsion [C]-CA--CB-[CG] |==|  0.31923
USER: genes 5 Torsion [CA]-CB--CG-[CD] |==|  0.90837
USER: genes 6 Torsion [CB]-CG--CD-[OE1] |==|  0.76766
USER: genes 7 Torsion [C]-CA--N-[C] |==|  0.52270
USER: genes 8 Torsion [N]-C--CA-[N] |==|  0.02651
USER: genes 9 Torsion [C]-CA--N-[H2] |==|  0.40918
USER: genes 10 Torsion [C]-CA--CB-[CG] |==|  0.37601
USER: genes 11 Torsion [CA]-CB--CG-[OD1] |==|  0.70657
USER: genes 12 Torsion [N]-CA--C-[N] |==|  0.38124
USER: genes 13 Torsion [C]-N--CA-[C] |==|  0.59864
USER: genes 14 Torsion [N]-CA--C-[N] |==|  0.30443
USER: genes 15 Torsion [C]-N--CA-[C] |==|  0.82873
USER: genes 16 Torsion [N]-CA--C-[O] |==|  0.15268
USER: genes 17 Torsion [N]-CA--CB-[CG] |==|  0.11936
USER: genes 18 Torsion [CA]-CB--CG-[CD2] |==|  0.27861
USER: genes 19 Torsion [N]-CA--CB-[CG] |==|  0.77777
USER: genes 20 Torsion [CA]-CB--CG-[CD2] |==|  0.91004
USER: genes 21 Torsion [CE1]-CZ--OH-[HH] |==|  0.82426
USER: genes 22 Torsion [N]-CA--CB-[CG] |==|  0.53895
USER: genes 23 Torsion [CA]-CB--CG-[CD1] |==|  0.83152
ROOT
ATOM      1  CA  PHE S   4      42.278  53.869  51.128  1.00 21.41 LIG 0.18  C 
ENDROOT
BRANCH 1 2
ATOM      2  N   PHE S   4      42.402  54.339  52.501  1.00 22.57 LIG-0.35  N 
ATOM      3 H    PHE S   4      41.954  55.055  52.668  1.00 22.57 LIG 0.16  HD
ATOM      4  C   GLU S   3      43.145  53.710  53.411  1.00 26.46 LIG 0.24  C 
ATOM      5 O    GLU S   3      43.791  52.685  53.166  1.00 26.71 LIG-0.27  OA
BRANCH 4 6
ATOM      6  CA  GLU S   3      43.225  54.365  54.779  1.00 28.27 LIG 0.18  C 
BRANCH 6 7
ATOM      7  CB  GLU S   3      43.584  55.814  54.492  1.00 28.84 LIG 0.04  C 
BRANCH 7 8
ATOM      8  CG  GLU S   3      42.579  56.858  54.843  1.00 31.31 LIG 0.12  C 
BRANCH 8 9
ATOM      9  CD  GLU S   3      41.189  56.301  54.656  1.00 32.39 LIG 0.17  C 
ATOM     10 OE2  GLU S   3      40.626  55.828  55.643  1.00 38.97 LIG-0.65  OA
ATOM     11 OE1  GLU S   3      40.674  56.317  53.505  1.00 34.38 LIG-0.65  OA
ENDBRANCH 8 9
ENDBRANCH 7 8
ENDBRANCH 6 7
BRANCH 6 12
ATOM     12  N   GLU S   3      44.290  53.704  55.559  1.00 29.65 LIG-0.35  N 
ATOM     13 H    GLU S   3      44.760  53.150  55.099  1.00 29.65 LIG 0.16  HD
ATOM     14  C   ASN S   2      44.502  53.939  56.843  1.00 31.60 LIG 0.25  C 
ATOM     15 O    ASN S   2      44.000  54.873  57.454  1.00 31.89 LIG-0.27  OA
BRANCH 14 16
ATOM     16  CA  ASN S   2      45.425  52.929  57.548  1.00 33.47 LIG 0.28  C 
BRANCH 16 17
ATOM     17  N   ASN S   2      46.105  51.984  56.624  1.00 34.35 LIG-0.07  N 
ATOM     18 H2   ASN S   2      46.907  51.777  56.948  1.00 34.35 LIG 0.28  HD
ATOM     19 H3   ASN S   2      45.618  51.244  56.544  1.00 34.35 LIG 0.28  HD
ATOM     20 H1   ASN S   2      46.198  52.365  55.825  1.00 34.35 LIG 0.28  HD
ENDBRANCH 16 17
BRANCH 16 21
ATOM     21  CB  ASN S   2      46.467  53.602  58.423  1.00 34.36 LIG 0.14  C 
BRANCH 21 22
ATOM     22  CG  ASN S   2      46.594  52.917  59.779  1.00 36.60 LIG 0.22  C 
ATOM     23 OD1  ASN S   2      46.126  53.437  60.828  1.00 40.55 LIG-0.27  OA
ATOM     24  ND2 ASN S   2      47.225  51.751  59.776  1.00 40.03 LIG-0.37  N 
ATOM     25 22HD ASN S   2      47.531  51.429  59.039  1.00 40.03 LIG 0.16  HD
ATOM     26 21HD ASN S   2      47.328  51.317  60.511  1.00 40.03 LIG 0.16  HD
ENDBRANCH 21 22
ENDBRANCH 16 21
ENDBRANCH 14 16
ENDBRANCH 6 12
ENDBRANCH 4 6
ENDBRANCH 1 2
BRANCH 1 27
ATOM     27  C   PHE S   4      43.651  53.546  50.543  1.00 20.14 LIG 0.24  C 
ATOM     28 O    PHE S   4      44.602  54.305  50.691  1.00 18.43 LIG-0.27  OA
ATOM     29  N   TYR S   5      43.716  52.426  49.834  1.00 19.70 LIG-0.35  N 
ATOM     30 H    TYR S   5      43.057  51.880  49.749  1.00 19.70 LIG 0.16  HD
BRANCH 29 31
ATOM     31  CA  TYR S   5      44.925  52.011  49.124  1.00 19.15 LIG 0.18  C 
BRANCH 31 32
ATOM     32  C   TYR S   5      44.461  51.336  47.843  1.00 19.17 LIG 0.24  C 
ATOM     33  N   PHE S   6      44.694  52.004  46.717  1.00 19.00 LIG-0.34  N 
ATOM     34 H    PHE S   6      45.066  52.780  46.699  1.00 19.00 LIG 0.16  HD
ATOM     35 O    TYR S   5      43.867  50.255  47.871  1.00 19.39 LIG-0.27  OA
BRANCH 33 36
ATOM     36  CA  PHE S   6      44.343  51.493  45.398  1.00 19.20 LIG 0.19  C 
BRANCH 36 37
ATOM     37  C   PHE S   6      45.059  50.198  45.039  1.00 19.81 LIG 0.20  C 
ATOM     38 O    PHE S   6      44.980  49.212  45.793  1.00 18.53 LIG-0.65  OA
ATOM     39 OXT  PHE S   6      45.725  50.214  43.970  1.00 20.48 LIG-0.65  OA
ENDBRANCH 36 37
BRANCH 36 40
ATOM     40  CB  PHE S   6      44.642  52.563  44.344  1.00 19.81 LIG 0.07  C 
BRANCH 40 41
ATOM     41  CG  PHE S   6      45.980  53.283  44.553  1.00 21.45 LIG-0.06  A 
ATOM     42  CD2 PHE S   6      47.091  52.929  43.812  1.00 24.56 LIG 0.01  A 
ATOM     43  CE2 PHE S   6      48.318  53.581  44.002  1.00 25.95 LIG 0.00  A 
ATOM     44  CZ  PHE S   6      48.402  54.610  44.900  1.00 23.46 LIG 0.00  A 
ATOM     45  CE1 PHE S   6      47.301  54.992  45.623  1.00 24.74 LIG 0.00  A 
ATOM     46  CD1 PHE S   6      46.105  54.347  45.457  1.00 22.31 LIG 0.01  A 
ENDBRANCH 40 41
ENDBRANCH 36 40
ENDBRANCH 33 36
ENDBRANCH 31 32
BRANCH 31 47
ATOM     47  CB  TYR S   5      45.741  51.057  50.015  1.00 19.45 LIG 0.07  C 
BRANCH 47 48
ATOM     48  CG  TYR S   5      46.593  51.686  51.085  1.00 19.88 LIG-0.06  A 
ATOM     49  CD1 TYR S   5      46.830  51.062  52.305  1.00 18.15 LIG 0.01  A 
ATOM     50  CE1 TYR S   5      47.589  51.660  53.277  1.00 18.26 LIG 0.04  A 
ATOM     51  CZ  TYR S   5      48.153  52.903  53.034  1.00 18.69 LIG 0.07  A 
ATOM     52  CE2 TYR S   5      47.949  53.529  51.839  1.00 19.96 LIG 0.04  A 
ATOM     53  CD2 TYR S   5      47.163  52.928  50.869  1.00 21.89 LIG 0.01  A 
BRANCH 51 54
ATOM     54 OH   TYR S   5      48.915  53.518  53.988  1.00 21.24 LIG-0.36  OA
ATOM     55 HH   TYR S   5      48.442  53.681  54.663  1.00 21.24 LIG 0.22  HD
ENDBRANCH 51 54
ENDBRANCH 47 48
ENDBRANCH 31 47
ENDBRANCH 29 31
ENDBRANCH 1 27
BRANCH 1 56
ATOM     56  CB  PHE S   4      41.625  54.958  50.303  1.00 21.76 LIG 0.07  C 
BRANCH 56 57
ATOM     57  CG  PHE S   4      41.144  54.487  48.973  1.00 21.60 LIG-0.06  A 
ATOM     58  CD2 PHE S   4      39.809  54.569  48.644  1.00 23.13 LIG 0.01  A 
ATOM     59  CE2 PHE S   4      39.354  54.109  47.445  1.00 23.23 LIG 0.00  A 
ATOM     60  CZ  PHE S   4      40.237  53.632  46.524  1.00 22.51 LIG 0.00  A 
ATOM     61  CE1 PHE S   4      41.577  53.538  46.830  1.00 22.53 LIG 0.00  A 
ATOM     62  CD1 PHE S   4      42.034  53.963  48.052  1.00 22.71 LIG 0.01  A 
ENDBRANCH 56 57
ENDBRANCH 1 56
TORSDOF 22
ENDMDL
MODEL 7
USER: ADFR SOLUTION from run 106
USER: SCORE 20.079831 LL:  -4.638 LR: -16.217 RR:   0.000 FEB:  -9.654
USER: RMSD 13.688311
USER: SEED 105
USER: STATUS no improvement in best 6 clusters for 5 generations
USER: GENES 24
USER: genes 0 Translation |==|  0.70198 0.34952 0.75025
USER: genes 1 Rotation |==|  0.72457 0.25854 0.73687 0.79181
USER: genes 2 Torsion [CB]-CA--N-[C] |==|  0.83250
USER: genes 3 Torsion [N]-C--CA-[N] |==|  0.28333
USER: genes 4 Torsion [C]-CA--CB-[CG] |==|  0.78044
USER: genes 5 Torsion [CA]-CB--CG-[CD] |==|  0.34311
USER: genes 6 Torsion [CB]-CG--CD-[OE1] |==|  0.93176
USER: genes 7 Torsion [C]-CA--N-[C] |==|  0.63052
USER: genes 8 Torsion [N]-C--CA-[N] |==|  0.93223
USER: genes 9 Torsion [C]-CA--N-[H2] |==|  0.38211
USER: genes 10 Torsion [C]-CA--CB-[CG] |==|  0.29553
USER: genes 11 Torsion [CA]-CB--CG-[OD1] |==|  0.78367
USER: genes 12 Torsion [N]-CA--C-[N] |==|  0.47195
USER: genes 13 Torsion [C]-N--CA-[C] |==|  0.82199
USER: genes 14 Torsion [N]-CA--C-[N] |==|  0.88481
USER: genes 15 Torsion [C]-N--CA-[C] |==|  0.55893
USER: genes 16 Torsion [N]-CA--C-[O] |==|  0.72030
USER: genes 17 Torsion [N]-CA--CB-[CG] |==|  0.67135
USER: genes 18 Torsion [CA]-CB--CG-[CD2] |==|  0.41557
USER: genes 19 Torsion [N]-CA--CB-[CG] |==|  0.89575
USER: genes 20 Torsion [CA]-CB--CG-[CD2] |==|  0.87956
USER: genes 21 Torsion [CE1]-CZ--OH-[HH] |==|  0.12904
USER: genes 22 Torsion [N]-CA--CB-[CG] |==|  0.54282
USER: genes 23 Torsion [CA]-CB--CG-[CD1] |==|  0.62633
ROOT
ATOM      1  CA  PHE S   4      50.289  49.866  60.678  1.00 21.41 LIG 0.18  C 
ENDROOT
BRANCH 1 2
ATOM      2  N   PHE S   4      50.391  48.434  60.424  1.00 22.57 LIG-0.35  N 
ATOM      3 H    PHE S   4      49.660  48.002  60.558  1.00 22.57 LIG 0.16  HD
ATOM      4  C   GLU S   3      51.522  47.856  60.020  1.00 26.46 LIG 0.24  C 
ATOM      5 O    GLU S   3      52.573  48.481  59.834  1.00 26.71 LIG-0.27  OA
BRANCH 4 6
ATOM      6  CA  GLU S   3      51.482  46.345  59.864  1.00 28.27 LIG 0.18  C 
BRANCH 6 7
ATOM      7  CB  GLU S   3      52.817  45.867  60.413  1.00 28.84 LIG 0.04  C 
BRANCH 7 8
ATOM      8  CG  GLU S   3      54.012  45.995  59.531  1.00 31.31 LIG 0.12  C 
BRANCH 8 9
ATOM      9  CD  GLU S   3      55.072  46.806  60.234  1.00 32.39 LIG 0.17  C 
ATOM     10 OE2  GLU S   3      56.245  46.617  59.910  1.00 38.97 LIG-0.65  OA
ATOM     11 OE1  GLU S   3      54.724  47.617  61.134  1.00 34.38 LIG-0.65  OA
ENDBRANCH 8 9
ENDBRANCH 7 8
ENDBRANCH 6 7
BRANCH 6 12
ATOM     12  N   GLU S   3      51.357  46.021  58.429  1.00 29.65 LIG-0.35  N 
ATOM     13 H    GLU S   3      51.901  46.460  57.928  1.00 29.65 LIG 0.16  HD
ATOM     14  C   ASN S   2      50.490  45.141  57.957  1.00 31.60 LIG 0.25  C 
ATOM     15 O    ASN S   2      49.872  44.354  58.661  1.00 31.89 LIG-0.27  OA
BRANCH 14 16
ATOM     16  CA  ASN S   2      50.283  45.181  56.433  1.00 33.47 LIG 0.28  C 
BRANCH 16 17
ATOM     17  N   ASN S   2      50.605  46.494  55.813  1.00 34.35 LIG-0.07  N 
ATOM     18 H2   ASN S   2      51.054  46.363  55.056  1.00 34.35 LIG 0.28  HD
ATOM     19 H3   ASN S   2      49.851  46.933  55.639  1.00 34.35 LIG 0.28  HD
ATOM     20 H1   ASN S   2      51.103  46.973  56.374  1.00 34.35 LIG 0.28  HD
ENDBRANCH 16 17
BRANCH 16 21
ATOM     21  CB  ASN S   2      51.053  44.091  55.710  1.00 34.36 LIG 0.14  C 
BRANCH 21 22
ATOM     22  CG  ASN S   2      50.132  42.982  55.214  1.00 36.60 LIG 0.22  C 
ATOM     23 OD1  ASN S   2      49.683  42.099  55.995  1.00 40.55 LIG-0.27  OA
ATOM     24  ND2 ASN S   2      49.841  43.012  53.921  1.00 40.03 LIG-0.37  N 
ATOM     25 22HD ASN S   2      50.168  43.631  53.421  1.00 40.03 LIG 0.16  HD
ATOM     26 21HD ASN S   2      49.326  42.413  53.583  1.00 40.03 LIG 0.16  HD
ENDBRANCH 21 22
ENDBRANCH 16 21
ENDBRANCH 14 16
ENDBRANCH 6 12
ENDBRANCH 4 6
ENDBRANCH 1 2
BRANCH 1 27
ATOM     27  C   PHE S   4      50.621  50.661  59.417  1.00 20.14 LIG 0.24  C 
ATOM     28 O    PHE S   4      51.138  50.126  58.443  1.00 18.43 LIG-0.27  OA
ATOM     29  N   TYR S   5      50.357  51.960  59.480  1.00 19.70 LIG-0.35  N 
ATOM     30 H    TYR S   5      49.972  52.333  60.153  1.00 19.70 LIG 0.16  HD
BRANCH 29 31
ATOM     31  CA  TYR S   5      50.697  52.888  58.403  1.00 19.15 LIG 0.18  C 
BRANCH 31 32
ATOM     32  C   TYR S   5      52.214  52.890  58.301  1.00 19.17 LIG 0.24  C 
ATOM     33  N   PHE S   6      52.873  52.894  59.456  1.00 19.00 LIG-0.34  N 
ATOM     34 H    PHE S   6      52.481  52.911  60.221  1.00 19.00 LIG 0.16  HD
ATOM     35 O    TYR S   5      52.780  52.934  57.205  1.00 19.39 LIG-0.27  OA
BRANCH 33 36
ATOM     36  CA  PHE S   6      54.328  52.867  59.545  1.00 19.20 LIG 0.19  C 
BRANCH 36 37
ATOM     37  C   PHE S   6      54.845  52.370  60.888  1.00 19.81 LIG 0.20  C 
ATOM     38 O    PHE S   6      55.239  53.182  61.744  1.00 18.53 LIG-0.65  OA
ATOM     39 OXT  PHE S   6      54.857  51.120  61.046  1.00 20.48 LIG-0.65  OA
ENDBRANCH 36 37
BRANCH 36 40
ATOM     40  CB  PHE S   6      54.878  54.267  59.261  1.00 19.81 LIG 0.07  C 
BRANCH 40 41
ATOM     41  CG  PHE S   6      55.790  54.339  58.030  1.00 21.45 LIG-0.06  A 
ATOM     42  CD2 PHE S   6      55.863  55.493  57.275  1.00 24.56 LIG 0.01  A 
ATOM     43  CE2 PHE S   6      56.692  55.562  56.146  1.00 25.95 LIG 0.00  A 
ATOM     44  CZ  PHE S   6      57.469  54.486  55.815  1.00 23.46 LIG 0.00  A 
ATOM     45  CE1 PHE S   6      57.429  53.341  56.570  1.00 24.74 LIG 0.00  A 
ATOM     46  CD1 PHE S   6      56.608  53.261  57.662  1.00 22.31 LIG 0.01  A 
ENDBRANCH 40 41
ENDBRANCH 36 40
ENDBRANCH 33 36
ENDBRANCH 31 32
BRANCH 31 47
ATOM     47  CB  TYR S   5      50.140  54.284  58.733  1.00 19.45 LIG 0.07  C 
BRANCH 47 48
ATOM     48  CG  TYR S   5      48.796  54.339  59.410  1.00 19.88 LIG-0.06  A 
ATOM     49  CD1 TYR S   5      48.540  55.190  60.480  1.00 18.15 LIG 0.01  A 
ATOM     50  CE1 TYR S   5      47.318  55.209  61.100  1.00 18.26 LIG 0.04  A 
ATOM     51  CZ  TYR S   5      46.306  54.380  60.639  1.00 18.69 LIG 0.07  A 
ATOM     52  CE2 TYR S   5      46.527  53.548  59.581  1.00 19.96 LIG 0.04  A 
ATOM     53  CD2 TYR S   5      47.772  53.519  58.973  1.00 21.89 LIG 0.01  A 
BRANCH 51 54
ATOM     54 OH   TYR S   5      45.078  54.384  61.241  1.00 21.24 LIG-0.36  OA
ATOM     55 HH   TYR S   5      44.825  55.177  61.357  1.00 21.24 LIG 0.22  HD
ENDBRANCH 51 54
ENDBRANCH 47 48
ENDBRANCH 31 47
ENDBRANCH 29 31
ENDBRANCH 1 27
BRANCH 1 56
ATOM     56  CB  PHE S   4      51.268  50.231  61.773  1.00 21.76 LIG 0.07  C 
BRANCH 56 57
ATOM     57  CG  PHE S   4      51.012  51.571  62.375  1.00 21.60 LIG-0.06  A 
ATOM     58  CD2 PHE S   4      49.734  51.948  62.723  1.00 23.13 LIG 0.01  A 
ATOM     59  CE2 PHE S   4      49.486  53.184  63.240  1.00 23.23 LIG 0.00  A 
ATOM     60  CZ  PHE S   4      50.521  54.033  63.493  1.00 22.51 LIG 0.00  A 
ATOM     61  CE1 PHE S   4      51.808  53.679  63.151  1.00 22.53 LIG 0.00  A 
ATOM     62  CD1 PHE S   4      52.058  52.451  62.593  1.00 22.71 LIG 0.01  A 
ENDBRANCH 56 57
ENDBRANCH 1 56
TORSDOF 22
ENDMDL
MODEL 8
USER: ADFR SOLUTION from run 49
USER: SCORE 21.394757 LL:  -6.084 LR: -15.781 RR:   0.000 FEB:  -9.219
USER: RMSD 6.433414
USER: SEED 48
USER: STATUS no improvement in best 2 clusters for 5 generations
USER: GENES 24
USER: genes 0 Translation |==|  0.62170 0.44818 0.48934
USER: genes 1 Rotation |==|  0.43918 0.55440 0.09402 0.78022
USER: genes 2 Torsion [CB]-CA--N-[C] |==|  0.51111
USER: genes 3 Torsion [N]-C--CA-[N] |==|  0.00294
USER: genes 4 Torsion [C]-CA--CB-[CG] |==|  0.60455
USER: genes 5 Torsion [CA]-CB--CG-[CD] |==|  0.40702
USER: genes 6 Torsion [CB]-CG--CD-[OE1] |==|  0.62507
USER: genes 7 Torsion [C]-CA--N-[C] |==|  0.72691
USER: genes 8 Torsion [N]-C--CA-[N] |==|  0.93579
USER: genes 9 Torsion [C]-CA--N-[H2] |==|  0.67985
USER: genes 10 Torsion [C]-CA--CB-[CG] |==|  0.26117
USER: genes 11 Torsion [CA]-CB--CG-[OD1] |==|  0.35750
USER: genes 12 Torsion [N]-CA--C-[N] |==|  0.47681
USER: genes 13 Torsion [C]-N--CA-[C] |==|  0.77677
USER: genes 14 Torsion [N]-CA--C-[N] |==|  0.98953
USER: genes 15 Torsion [C]-N--CA-[C] |==|  0.59831
USER: genes 16 Torsion [N]-CA--C-[O] |==|  0.77722
USER: genes 17 Torsion [N]-CA--CB-[CG] |==|  0.65053
USER: genes 18 Torsion [CA]-CB--CG-[CD2] |==|  0.94035
USER: genes 19 Torsion [N]-CA--CB-[CG] |==|  0.27496
USER: genes 20 Torsion [CA]-CB--CG-[CD2] |==|  0.84364
USER: genes 21 Torsion [CE1]-CZ--OH-[HH] |==|  0.46782
USER: genes 22 Torsion [N]-CA--CB-[CG] |==|  0.54954
USER: genes 23 Torsion [CA]-CB--CG-[CD1] |==|  0.14824
ROOT
ATOM      1  CA  PHE S   4      47.881  52.825  52.850  1.00 21.41 LIG 0.18  C 
ENDROOT
BRANCH 1 2
ATOM      2  N   PHE S   4      48.166  53.272  54.208  1.00 22.57 LIG-0.35  N 
ATOM      3 H    PHE S   4      47.622  52.962  54.799  1.00 22.57 LIG 0.16  HD
ATOM      4  C   GLU S   3      49.179  54.087  54.497  1.00 26.46 LIG 0.24  C 
ATOM      5 O    GLU S   3      49.954  54.533  53.644  1.00 26.71 LIG-0.27  OA
BRANCH 4 6
ATOM      6  CA  GLU S   3      49.301  54.513  55.950  1.00 28.27 LIG 0.18  C 
BRANCH 6 7
ATOM      7  CB  GLU S   3      50.664  54.002  56.388  1.00 28.84 LIG 0.04  C 
BRANCH 7 8
ATOM      8  CG  GLU S   3      50.790  53.469  57.775  1.00 31.31 LIG 0.12  C 
BRANCH 8 9
ATOM      9  CD  GLU S   3      51.796  52.345  57.792  1.00 32.39 LIG 0.17  C 
ATOM     10 OE2  GLU S   3      52.843  52.505  57.165  1.00 38.97 LIG-0.65  OA
ATOM     11 OE1  GLU S   3      51.519  51.286  58.420  1.00 34.38 LIG-0.65  OA
ENDBRANCH 8 9
ENDBRANCH 7 8
ENDBRANCH 6 7
BRANCH 6 12
ATOM     12  N   GLU S   3      48.223  53.864  56.725  1.00 29.65 LIG-0.35  N 
ATOM     13 H    GLU S   3      48.401  53.054  56.950  1.00 29.65 LIG 0.16  HD
ATOM     14  C   ASN S   2      47.092  54.472  57.042  1.00 31.60 LIG 0.25  C 
ATOM     15 O    ASN S   2      46.914  55.677  56.929  1.00 31.89 LIG-0.27  OA
BRANCH 14 16
ATOM     16  CA  ASN S   2      45.976  53.545  57.555  1.00 33.47 LIG 0.28  C 
BRANCH 16 17
ATOM     17  N   ASN S   2      46.118  52.130  57.121  1.00 34.35 LIG-0.07  N 
ATOM     18 H2   ASN S   2      45.437  51.912  56.591  1.00 34.35 LIG 0.28  HD
ATOM     19 H3   ASN S   2      46.882  52.030  56.678  1.00 34.35 LIG 0.28  HD
ATOM     20 H1   ASN S   2      46.118  51.599  57.835  1.00 34.35 LIG 0.28  HD
ENDBRANCH 16 17
BRANCH 16 21
ATOM     21  CB  ASN S   2      45.830  53.588  59.065  1.00 34.36 LIG 0.14  C 
BRANCH 21 22
ATOM     22  CG  ASN S   2      44.770  54.593  59.503  1.00 36.60 LIG 0.22  C 
ATOM     23 OD1  ASN S   2      43.844  54.271  60.295  1.00 40.55 LIG-0.27  OA
ATOM     24  ND2 ASN S   2      44.891  55.812  58.997  1.00 40.03 LIG-0.37  N 
ATOM     25 22HD ASN S   2      45.538  55.992  58.459  1.00 40.03 LIG 0.16  HD
ATOM     26 21HD ASN S   2      44.323  56.422  59.207  1.00 40.03 LIG 0.16  HD
ENDBRANCH 21 22
ENDBRANCH 16 21
ENDBRANCH 14 16
ENDBRANCH 6 12
ENDBRANCH 4 6
ENDBRANCH 1 2
BRANCH 1 27
ATOM     27  C   PHE S   4      47.689  54.020  51.919  1.00 20.14 LIG 0.24  C 
ATOM     28 O    PHE S   4      47.584  55.160  52.358  1.00 18.43 LIG-0.27  OA
ATOM     29  N   TYR S   5      47.597  53.725  50.629  1.00 19.70 LIG-0.35  N 
ATOM     30 H    TYR S   5      47.695  52.929  50.316  1.00 19.70 LIG 0.16  HD
BRANCH 29 31
ATOM     31  CA  TYR S   5      47.318  54.733  49.606  1.00 19.15 LIG 0.18  C 
BRANCH 31 32
ATOM     32  C   TYR S   5      45.816  54.968  49.633  1.00 19.17 LIG 0.24  C 
ATOM     33  N   PHE S   6      45.123  54.197  50.465  1.00 19.00 LIG-0.34  N 
ATOM     34 H    PHE S   6      45.484  53.587  50.952  1.00 19.00 LIG 0.16  HD
ATOM     35 O    TYR S   5      45.287  55.795  48.886  1.00 19.39 LIG-0.27  OA
BRANCH 33 36
ATOM     36  CA  PHE S   6      43.680  54.307  50.640  1.00 19.20 LIG 0.19  C 
BRANCH 36 37
ATOM     37  C   PHE S   6      43.220  54.047  52.068  1.00 19.81 LIG 0.20  C 
ATOM     38 O    PHE S   6      43.100  52.880  52.482  1.00 18.53 LIG-0.65  OA
ATOM     39 OXT  PHE S   6      42.963  55.068  52.759  1.00 20.48 LIG-0.65  OA
ENDBRANCH 36 37
BRANCH 36 40
ATOM     40  CB  PHE S   6      42.979  53.339  49.682  1.00 19.81 LIG 0.07  C 
BRANCH 40 41
ATOM     41  CG  PHE S   6      41.932  54.005  48.783  1.00 21.45 LIG-0.06  A 
ATOM     42  CD2 PHE S   6      41.364  55.213  49.140  1.00 24.56 LIG 0.01  A 
ATOM     43  CE2 PHE S   6      40.403  55.824  48.322  1.00 25.95 LIG 0.00  A 
ATOM     44  CZ  PHE S   6      40.056  55.237  47.136  1.00 23.46 LIG 0.00  A 
ATOM     45  CE1 PHE S   6      40.631  54.052  46.754  1.00 24.74 LIG 0.00  A 
ATOM     46  CD1 PHE S   6      41.556  53.441  47.556  1.00 22.31 LIG 0.01  A 
ENDBRANCH 40 41
ENDBRANCH 36 40
ENDBRANCH 33 36
ENDBRANCH 31 32
BRANCH 31 47
ATOM     47  CB  TYR S   5      47.797  54.219  48.236  1.00 19.45 LIG 0.07  C 
BRANCH 47 48
ATOM     48  CG  TYR S   5      46.752  53.626  47.329  1.00 19.88 LIG-0.06  A 
ATOM     49  CD1 TYR S   5      46.528  54.108  46.044  1.00 18.15 LIG 0.01  A 
ATOM     50  CE1 TYR S   5      45.556  53.571  45.240  1.00 18.26 LIG 0.04  A 
ATOM     51  CZ  TYR S   5      44.794  52.510  45.706  1.00 18.69 LIG 0.07  A 
ATOM     52  CE2 TYR S   5      45.006  52.008  46.957  1.00 19.96 LIG 0.04  A 
ATOM     53  CD2 TYR S   5      45.976  52.570  47.771  1.00 21.89 LIG 0.01  A 
BRANCH 51 54
ATOM     54 OH   TYR S   5      43.820  51.958  44.920  1.00 21.24 LIG-0.36  OA
ATOM     55 HH   TYR S   5      43.558  51.238  45.264  1.00 21.24 LIG 0.22  HD
ENDBRANCH 51 54
ENDBRANCH 47 48
ENDBRANCH 31 47
ENDBRANCH 29 31
ENDBRANCH 1 27
BRANCH 1 56
ATOM     56  CB  PHE S   4      46.613  51.998  52.871  1.00 21.76 LIG 0.07  C 
BRANCH 56 57
ATOM     57  CG  PHE S   4      46.440  51.146  51.660  1.00 21.60 LIG-0.06  A 
ATOM     58  CD2 PHE S   4      45.281  51.210  50.920  1.00 23.13 LIG 0.01  A 
ATOM     59  CE2 PHE S   4      45.100  50.409  49.832  1.00 23.23 LIG 0.00  A 
ATOM     60  CZ  PHE S   4      46.106  49.589  49.420  1.00 22.51 LIG 0.00  A 
ATOM     61  CE1 PHE S   4      47.275  49.506  50.145  1.00 22.53 LIG 0.00  A 
ATOM     62  CD1 PHE S   4      47.446  50.281  51.264  1.00 22.71 LIG 0.01  A 
ENDBRANCH 56 57
ENDBRANCH 1 56
TORSDOF 22
ENDMDL
MODEL 9
USER: ADFR SOLUTION from run 138
USER: SCORE 18.798470 LL:  -5.054 LR: -15.766 RR:   0.000 FEB:  -9.203
USER: RMSD 10.479313
USER: SEED 137
USER: STATUS no improvement in best 16 clusters for 5 generations
USER: GENES 24
USER: genes 0 Translation |==|  0.46253 0.42462 0.31996
USER: genes 1 Rotation |==|  0.74127 0.21938 0.16625 0.54063
USER: genes 2 Torsion [CB]-CA--N-[C] |==|  0.15556
USER: genes 3 Torsion [N]-C--CA-[N] |==|  0.42975
USER: genes 4 Torsion [C]-CA--CB-[CG] |==|  0.29188
USER: genes 5 Torsion [CA]-CB--CG-[CD] |==|  0.76745
USER: genes 6 Torsion [CB]-CG--CD-[OE1] |==|  0.91097
USER: genes 7 Torsion [C]-CA--N-[C] |==|  0.54041
USER: genes 8 Torsion [N]-C--CA-[N] |==|  0.67636
USER: genes 9 Torsion [C]-CA--N-[H2] |==|  0.92207
USER: genes 10 Torsion [C]-CA--CB-[CG] |==|  0.37566
USER: genes 11 Torsion [CA]-CB--CG-[OD1] |==|  0.72095
USER: genes 12 Torsion [N]-CA--C-[N] |==|  0.00236
USER: genes 13 Torsion [C]-N--CA-[C] |==|  0.20995
USER: genes 14 Torsion [N]-CA--C-[N] |==|  0.36610
USER: genes 15 Torsion [C]-N--CA-[C] |==|  0.49579
USER: genes 16 Torsion [N]-CA--C-[O] |==|  0.57854
USER: genes 17 Torsion [N]-CA--CB-[CG] |==|  0.21760
USER: genes 18 Torsion [CA]-CB--CG-[CD2] |==|  0.87791
USER: genes 19 Torsion [N]-CA--CB-[CG] |==|  0.83787
USER: genes 20 Torsion [CA]-CB--CG-[CD2] |==|  0.66351
USER: genes 21 Torsion [CE1]-CZ--OH-[HH] |==|  0.35272
USER: genes 22 Torsion [N]-CA--CB-[CG] |==|  0.23511
USER: genes 23 Torsion [CA]-CB--CG-[CD1] |==|  0.86974
ROOT
ATOM      1  CA  PHE S   4      43.106  52.119  47.769  1.00 21.41 LIG 0.18  C 
ENDROOT
BRANCH 1 2
ATOM      2  N   PHE S   4      42.465  53.416  47.595  1.00 22.57 LIG-0.35  N 
ATOM      3 H    PHE S   4      42.955  54.082  47.830  1.00 22.57 LIG 0.16  HD
ATOM      4  C   GLU S   3      41.229  53.546  47.114  1.00 26.46 LIG 0.24  C 
ATOM      5 O    GLU S   3      40.527  52.585  46.782  1.00 26.71 LIG-0.27  OA
BRANCH 4 6
ATOM      6  CA  GLU S   3      40.680  54.962  47.057  1.00 28.27 LIG 0.18  C 
BRANCH 6 7
ATOM      7  CB  GLU S   3      40.067  55.192  48.428  1.00 28.84 LIG 0.04  C 
BRANCH 7 8
ATOM      8  CG  GLU S   3      40.812  56.064  49.381  1.00 31.31 LIG 0.12  C 
BRANCH 8 9
ATOM      9  CD  GLU S   3      41.863  55.248  50.093  1.00 32.39 LIG 0.17  C 
ATOM     10 OE2  GLU S   3      42.914  55.811  50.397  1.00 38.97 LIG-0.65  OA
ATOM     11 OE1  GLU S   3      41.637  54.029  50.325  1.00 34.38 LIG-0.65  OA
ENDBRANCH 8 9
ENDBRANCH 7 8
ENDBRANCH 6 7
BRANCH 6 12
ATOM     12  N   GLU S   3      39.649  55.026  46.002  1.00 29.65 LIG-0.35  N 
ATOM     13 H    GLU S   3      39.380  54.254  45.735  1.00 29.65 LIG 0.16  HD
ATOM     14  C   ASN S   2      39.180  56.163  45.513  1.00 31.60 LIG 0.25  C 
ATOM     15 O    ASN S   2      39.380  57.255  46.027  1.00 31.89 LIG-0.27  OA
BRANCH 14 16
ATOM     16  CA  ASN S   2      38.368  56.029  44.214  1.00 33.47 LIG 0.28  C 
BRANCH 16 17
ATOM     17  N   ASN S   2      38.979  56.716  43.045  1.00 34.35 LIG-0.07  N 
ATOM     18 H2   ASN S   2      39.466  57.405  43.327  1.00 34.35 LIG 0.28  HD
ATOM     19 H3   ASN S   2      39.499  56.145  42.604  1.00 34.35 LIG 0.28  HD
ATOM     20 H1   ASN S   2      38.336  57.009  42.504  1.00 34.35 LIG 0.28  HD
ENDBRANCH 16 17
BRANCH 16 21
ATOM     21  CB  ASN S   2      38.087  54.583  43.847  1.00 34.36 LIG 0.14  C 
BRANCH 21 22
ATOM     22  CG  ASN S   2      36.638  54.381  43.418  1.00 36.60 LIG 0.22  C 
ATOM     23 OD1  ASN S   2      35.778  53.901  44.206  1.00 40.55 LIG-0.27  OA
ATOM     24  ND2 ASN S   2      36.351  54.739  42.175  1.00 40.03 LIG-0.37  N 
ATOM     25 22HD ASN S   2      36.967  55.062  41.668  1.00 40.03 LIG 0.16  HD
ATOM     26 21HD ASN S   2      35.550  54.648  41.875  1.00 40.03 LIG 0.16  HD
ENDBRANCH 21 22
ENDBRANCH 16 21
ENDBRANCH 14 16
ENDBRANCH 6 12
ENDBRANCH 4 6
ENDBRANCH 1 2
BRANCH 1 27
ATOM     27  C   PHE S   4      44.548  52.290  48.242  1.00 20.14 LIG 0.24  C 
ATOM     28 O    PHE S   4      45.261  51.321  48.477  1.00 18.43 LIG-0.27  OA
ATOM     29  N   TYR S   5      44.941  53.544  48.422  1.00 19.70 LIG-0.35  N 
ATOM     30 H    TYR S   5      44.451  54.226  48.234  1.00 19.70 LIG 0.16  HD
BRANCH 29 31
ATOM     31  CA  TYR S   5      46.256  53.889  48.960  1.00 19.15 LIG 0.18  C 
BRANCH 31 32
ATOM     32  C   TYR S   5      47.255  53.660  47.837  1.00 19.17 LIG 0.24  C 
ATOM     33  N   PHE S   6      48.118  54.646  47.618  1.00 19.00 LIG-0.34  N 
ATOM     34 H    PHE S   6      48.114  55.383  48.063  1.00 19.00 LIG 0.16  HD
ATOM     35 O    TYR S   5      47.220  52.634  47.153  1.00 19.39 LIG-0.27  OA
BRANCH 33 36
ATOM     36  CA  PHE S   6      49.162  54.583  46.602  1.00 19.20 LIG 0.19  C 
BRANCH 36 37
ATOM     37  C   PHE S   6      50.003  55.850  46.517  1.00 19.81 LIG 0.20  C 
ATOM     38 O    PHE S   6      50.536  56.173  45.441  1.00 18.53 LIG-0.65  OA
ATOM     39 OXT  PHE S   6      50.124  56.505  47.586  1.00 20.48 LIG-0.65  OA
ENDBRANCH 36 37
BRANCH 36 40
ATOM     40  CB  PHE S   6      48.526  54.286  45.241  1.00 19.81 LIG 0.07  C 
BRANCH 40 41
ATOM     41  CG  PHE S   6      47.872  55.506  44.582  1.00 21.45 LIG-0.06  A 
ATOM     42  CD2 PHE S   6      47.085  56.367  45.322  1.00 24.56 LIG 0.01  A 
ATOM     43  CE2 PHE S   6      46.481  57.482  44.723  1.00 25.95 LIG 0.00  A 
ATOM     44  CZ  PHE S   6      46.711  57.742  43.399  1.00 23.46 LIG 0.00  A 
ATOM     45  CE1 PHE S   6      47.512  56.912  42.657  1.00 24.74 LIG 0.00  A 
ATOM     46  CD1 PHE S   6      48.090  55.812  43.232  1.00 22.31 LIG 0.01  A 
ENDBRANCH 40 41
ENDBRANCH 36 40
ENDBRANCH 33 36
ENDBRANCH 31 32
BRANCH 31 47
ATOM     47  CB  TYR S   5      46.555  53.008  50.186  1.00 19.45 LIG 0.07  C 
BRANCH 47 48
ATOM     48  CG  TYR S   5      45.580  53.080  51.331  1.00 19.88 LIG-0.06  A 
ATOM     49  CD1 TYR S   5      44.232  52.777  51.176  1.00 18.15 LIG 0.01  A 
ATOM     50  CE1 TYR S   5      43.354  52.873  52.224  1.00 18.26 LIG 0.04  A 
ATOM     51  CZ  TYR S   5      43.820  53.255  53.473  1.00 18.69 LIG 0.07  A 
ATOM     52  CE2 TYR S   5      45.142  53.541  53.655  1.00 19.96 LIG 0.04  A 
ATOM     53  CD2 TYR S   5      46.020  53.464  52.585  1.00 21.89 LIG 0.01  A 
BRANCH 51 54
ATOM     54 OH   TYR S   5      42.963  53.354  54.534  1.00 21.24 LIG-0.36  OA
ATOM     55 HH   TYR S   5      43.258  52.900  55.176  1.00 21.24 LIG 0.22  HD
ENDBRANCH 51 54
ENDBRANCH 47 48
ENDBRANCH 31 47
ENDBRANCH 29 31
ENDBRANCH 1 27
BRANCH 1 56
ATOM     56  CB  PHE S   4      43.098  51.395  46.439  1.00 21.76 LIG 0.07  C 
BRANCH 56 57
ATOM     57  CG  PHE S   4      44.240  51.765  45.555  1.00 21.60 LIG-0.06  A 
ATOM     58  CD2 PHE S   4      44.973  50.790  44.915  1.00 23.13 LIG 0.01  A 
ATOM     59  CE2 PHE S   4      46.040  51.118  44.134  1.00 23.23 LIG 0.00  A 
ATOM     60  CZ  PHE S   4      46.343  52.427  43.915  1.00 22.51 LIG 0.00  A 
ATOM     61  CE1 PHE S   4      45.626  53.420  44.545  1.00 22.53 LIG 0.00  A 
ATOM     62  CD1 PHE S   4      44.575  53.095  45.365  1.00 22.71 LIG 0.01  A 
ENDBRANCH 56 57
ENDBRANCH 1 56
TORSDOF 22
ENDMDL
MODEL 10
USER: ADFR SOLUTION from run 68
USER: SCORE 20.162171 LL:  -5.307 LR: -15.749 RR:   0.000 FEB:  -9.186
USER: RMSD 10.377278
USER: SEED 67
USER: STATUS no improvement in best 3 clusters for 5 generations
USER: GENES 24
USER: genes 0 Translation |==|  0.50781 0.45764 0.47924
USER: genes 1 Rotation |==|  0.95987 0.31329 0.46007 0.54545
USER: genes 2 Torsion [CB]-CA--N-[C] |==|  0.52778
USER: genes 3 Torsion [N]-C--CA-[N] |==|  0.18957
USER: genes 4 Torsion [C]-CA--CB-[CG] |==|  0.72107
USER: genes 5 Torsion [CA]-CB--CG-[CD] |==|  0.79520
USER: genes 6 Torsion [CB]-CG--CD-[OE1] |==|  0.30147
USER: genes 7 Torsion [C]-CA--N-[C] |==|  0.77357
USER: genes 8 Torsion [N]-C--CA-[N] |==|  0.00927
USER: genes 9 Torsion [C]-CA--N-[H2] |==|  0.05872
USER: genes 10 Torsion [C]-CA--CB-[CG] |==|  0.85272
USER: genes 11 Torsion [CA]-CB--CG-[OD1] |==|  0.90960
USER: genes 12 Torsion [N]-CA--C-[N] |==|  0.43525
USER: genes 13 Torsion [C]-N--CA-[C] |==|  0.58928
USER: genes 14 Torsion [N]-CA--C-[N] |==|  0.50897
USER: genes 15 Torsion [C]-N--CA-[C] |==|  0.59282
USER: genes 16 Torsion [N]-CA--C-[O] |==|  0.60977
USER: genes 17 Torsion [N]-CA--CB-[CG] |==|  0.68728
USER: genes 18 Torsion [CA]-CB--CG-[CD2] |==|  0.41641
USER: genes 19 Torsion [N]-CA--CB-[CG] |==|  0.25628
USER: genes 20 Torsion [CA]-CB--CG-[CD2] |==|  0.85276
USER: genes 21 Torsion [CE1]-CZ--OH-[HH] |==|  0.45089
USER: genes 22 Torsion [N]-CA--CB-[CG] |==|  0.82325
USER: genes 23 Torsion [CA]-CB--CG-[CD1] |==|  0.52870
ROOT
ATOM      1  CA  PHE S   4      44.464  53.109  52.547  1.00 21.41 LIG 0.18  C 
ENDROOT
BRANCH 1 2
ATOM      2  N   PHE S   4      44.101  53.485  51.187  1.00 22.57 LIG-0.35  N 
ATOM      3 H    PHE S   4      44.738  53.391  50.617  1.00 22.57 LIG 0.16  HD
ATOM      4  C   GLU S   3      42.888  53.931  50.866  1.00 26.46 LIG 0.24  C 
ATOM      5 O    GLU S   3      41.977  54.068  51.690  1.00 26.71 LIG-0.27  OA
BRANCH 4 6
ATOM      6  CA  GLU S   3      42.689  54.344  49.417  1.00 28.27 LIG 0.18  C 
BRANCH 6 7
ATOM      7  CB  GLU S   3      41.299  54.959  49.380  1.00 28.84 LIG 0.04  C 
BRANCH 7 8
ATOM      8  CG  GLU S   3      40.183  54.115  48.866  1.00 31.31 LIG 0.12  C 
BRANCH 8 9
ATOM      9  CD  GLU S   3      40.298  53.986  47.367  1.00 32.39 LIG 0.17  C 
ATOM     10 OE2  GLU S   3      40.017  54.973  46.686  1.00 38.97 LIG-0.65  OA
ATOM     11 OE1  GLU S   3      40.649  52.880  46.873  1.00 34.38 LIG-0.65  OA
ENDBRANCH 8 9
ENDBRANCH 7 8
ENDBRANCH 6 7
BRANCH 6 12
ATOM     12  N   GLU S   3      42.752  53.137  48.569  1.00 29.65 LIG-0.35  N 
ATOM     13 H    GLU S   3      41.980  52.825  48.355  1.00 29.65 LIG 0.16  HD
ATOM     14  C   ASN S   2      43.888  52.586  48.174  1.00 31.60 LIG 0.25  C 
ATOM     15 O    ASN S   2      44.978  53.132  48.278  1.00 31.89 LIG-0.27  OA
BRANCH 14 16
ATOM     16  CA  ASN S   2      43.757  51.171  47.583  1.00 33.47 LIG 0.28  C 
BRANCH 16 17
ATOM     17  N   ASN S   2      42.355  50.686  47.481  1.00 34.35 LIG-0.07  N 
ATOM     18 H2   ASN S   2      41.799  51.381  47.488  1.00 34.35 LIG 0.28  HD
ATOM     19 H3   ASN S   2      42.252  50.232  46.724  1.00 34.35 LIG 0.28  HD
ATOM     20 H1   ASN S   2      42.174  50.155  48.172  1.00 34.35 LIG 0.28  HD
ENDBRANCH 16 17
BRANCH 16 21
ATOM     21  CB  ASN S   2      44.426  51.041  46.227  1.00 34.36 LIG 0.14  C 
BRANCH 21 22
ATOM     22  CG  ASN S   2      43.944  52.111  45.254  1.00 36.60 LIG 0.22  C 
ATOM     23 OD1  ASN S   2      42.767  52.561  45.298  1.00 40.55 LIG-0.27  OA
ATOM     24  ND2 ASN S   2      44.839  52.529  44.370  1.00 40.03 LIG-0.37  N 
ATOM     25 22HD ASN S   2      45.633  52.197  44.372  1.00 40.03 LIG 0.16  HD
ATOM     26 21HD ASN S   2      44.626  53.132  43.795  1.00 40.03 LIG 0.16  HD
ENDBRANCH 21 22
ENDBRANCH 16 21
ENDBRANCH 14 16
ENDBRANCH 6 12
ENDBRANCH 4 6
ENDBRANCH 1 2
BRANCH 1 27
ATOM     27  C   PHE S   4      44.079  54.211  53.531  1.00 20.14 LIG 0.24  C 
ATOM     28 O    PHE S   4      43.984  55.380  53.175  1.00 18.43 LIG-0.27  OA
ATOM     29  N   TYR S   5      43.908  53.816  54.787  1.00 19.70 LIG-0.35  N 
ATOM     30 H    TYR S   5      43.949  52.994  55.035  1.00 19.70 LIG 0.16  HD
BRANCH 29 31
ATOM     31  CA  TYR S   5      43.629  54.751  55.876  1.00 19.15 LIG 0.18  C 
BRANCH 31 32
ATOM     32  C   TYR S   5      44.270  54.161  57.123  1.00 19.17 LIG 0.24  C 
ATOM     33  N   PHE S   6      44.072  54.835  58.252  1.00 19.00 LIG-0.34  N 
ATOM     34 H    PHE S   6      43.627  55.570  58.288  1.00 19.00 LIG 0.16  HD
ATOM     35 O    TYR S   5      44.966  53.144  57.062  1.00 19.39 LIG-0.27  OA
BRANCH 33 36
ATOM     36  CA  PHE S   6      44.588  54.399  59.543  1.00 19.20 LIG 0.19  C 
BRANCH 36 37
ATOM     37  C   PHE S   6      43.679  54.755  60.712  1.00 19.81 LIG 0.20  C 
ATOM     38 O    PHE S   6      44.168  55.143  61.787  1.00 18.53 LIG-0.65  OA
ATOM     39 OXT  PHE S   6      42.443  54.610  60.513  1.00 20.48 LIG-0.65  OA
ENDBRANCH 36 37
BRANCH 36 40
ATOM     40  CB  PHE S   6      45.979  55.002  59.763  1.00 19.81 LIG 0.07  C 
BRANCH 40 41
ATOM     41  CG  PHE S   6      47.110  53.968  59.767  1.00 21.45 LIG-0.06  A 
ATOM     42  CD2 PHE S   6      48.378  54.312  59.340  1.00 24.56 LIG 0.01  A 
ATOM     43  CE2 PHE S   6      49.416  53.368  59.337  1.00 25.95 LIG 0.00  A 
ATOM     44  CZ  PHE S   6      49.178  52.105  59.804  1.00 23.46 LIG 0.00  A 
ATOM     45  CE1 PHE S   6      47.931  51.755  60.258  1.00 24.74 LIG 0.00  A 
ATOM     46  CD1 PHE S   6      46.910  52.666  60.246  1.00 22.31 LIG 0.01  A 
ENDBRANCH 40 41
ENDBRANCH 36 40
ENDBRANCH 33 36
ENDBRANCH 31 32
BRANCH 31 47
ATOM     47  CB  TYR S   5      42.107  54.914  56.035  1.00 19.45 LIG 0.07  C 
BRANCH 47 48
ATOM     48  CG  TYR S   5      41.422  54.000  57.015  1.00 19.88 LIG-0.06  A 
ATOM     49  CD1 TYR S   5      40.606  54.483  58.033  1.00 18.15 LIG 0.01  A 
ATOM     50  CE1 TYR S   5      40.010  53.637  58.932  1.00 18.26 LIG 0.04  A 
ATOM     51  CZ  TYR S   5      40.203  52.269  58.812  1.00 18.69 LIG 0.07  A 
ATOM     52  CE2 TYR S   5      40.984  51.769  57.813  1.00 19.96 LIG 0.04  A 
ATOM     53  CD2 TYR S   5      41.601  52.632  56.921  1.00 21.89 LIG 0.01  A 
BRANCH 51 54
ATOM     54 OH   TYR S   5      39.615  51.406  59.696  1.00 21.24 LIG-0.36  OA
ATOM     55 HH   TYR S   5      39.614  50.631  59.372  1.00 21.24 LIG 0.22  HD
ENDBRANCH 51 54
ENDBRANCH 47 48
ENDBRANCH 31 47
ENDBRANCH 29 31
ENDBRANCH 1 27
BRANCH 1 56
ATOM     56  CB  PHE S   4      45.961  52.890  52.603  1.00 21.76 LIG 0.07  C 
BRANCH 56 57
ATOM     57  CG  PHE S   4      46.427  51.758  51.752  1.00 21.60 LIG-0.06  A 
ATOM     58  CD2 PHE S   4      45.572  51.163  50.851  1.00 23.13 LIG 0.01  A 
ATOM     59  CE2 PHE S   4      45.979  50.105  50.095  1.00 23.23 LIG 0.00  A 
ATOM     60  CZ  PHE S   4      47.269  49.676  50.167  1.00 22.51 LIG 0.00  A 
ATOM     61  CE1 PHE S   4      48.143  50.254  51.062  1.00 22.53 LIG 0.00  A 
ATOM     62  CD1 PHE S   4      47.727  51.294  51.855  1.00 22.71 LIG 0.01  A 
ENDBRANCH 56 57
ENDBRANCH 1 56
TORSDOF 22
ENDMDL
MODEL 11
USER: ADFR SOLUTION from run 101
USER: SCORE 18.331631 LL:  -4.070 LR: -15.666 RR:   0.000 FEB:  -9.104
USER: RMSD 10.386883
USER: SEED 100
USER: STATUS no improvement in best 4 clusters for 5 generations
USER: GENES 24
USER: genes 0 Translation |==|  0.57266 0.52918 0.28441
USER: genes 1 Rotation |==|  0.22491 0.83778 0.46476 0.74288
USER: genes 2 Torsion [CB]-CA--N-[C] |==|  0.10014
USER: genes 3 Torsion [N]-C--CA-[N] |==|  0.30645
USER: genes 4 Torsion [C]-CA--CB-[CG] |==|  0.08134
USER: genes 5 Torsion [CA]-CB--CG-[CD] |==|  0.63517
USER: genes 6 Torsion [CB]-CG--CD-[OE1] |==|  0.33427
USER: genes 7 Torsion [C]-CA--N-[C] |==|  0.57293
USER: genes 8 Torsion [N]-C--CA-[N] |==|  0.29165
USER: genes 9 Torsion [C]-CA--N-[H2] |==|  0.51354
USER: genes 10 Torsion [C]-CA--CB-[CG] |==|  0.28945
USER: genes 11 Torsion [CA]-CB--CG-[OD1] |==|  0.76819
USER: genes 12 Torsion [N]-CA--C-[N] |==|  0.66530
USER: genes 13 Torsion [C]-N--CA-[C] |==|  0.66599
USER: genes 14 Torsion [N]-CA--C-[N] |==|  0.39336
USER: genes 15 Torsion [C]-N--CA-[C] |==|  0.17230
USER: genes 16 Torsion [N]-CA--C-[O] |==|  0.57646
USER: genes 17 Torsion [N]-CA--CB-[CG] |==|  0.75108
USER: genes 18 Torsion [CA]-CB--CG-[CD2] |==|  0.15637
USER: genes 19 Torsion [N]-CA--CB-[CG] |==|  0.98961
USER: genes 20 Torsion [CA]-CB--CG-[CD2] |==|  0.25366
USER: genes 21 Torsion [CE1]-CZ--OH-[HH] |==|  0.59844
USER: genes 22 Torsion [N]-CA--CB-[CG] |==|  0.67770
USER: genes 23 Torsion [CA]-CB--CG-[CD1] |==|  0.82744
ROOT
ATOM      1  CA  PHE S   4      46.410  55.255  46.702  1.00 21.41 LIG 0.18  C 
ENDROOT
BRANCH 1 2
ATOM      2  N   PHE S   4      47.596  56.061  46.445  1.00 22.57 LIG-0.35  N 
ATOM      3 H    PHE S   4      47.611  56.808  46.871  1.00 22.57 LIG 0.16  HD
ATOM      4  C   GLU S   3      48.567  55.666  45.621  1.00 26.46 LIG 0.24  C 
ATOM      5 O    GLU S   3      48.539  54.593  45.007  1.00 26.71 LIG-0.27  OA
BRANCH 4 6
ATOM      6  CA  GLU S   3      49.705  56.649  45.408  1.00 28.27 LIG 0.18  C 
BRANCH 6 7
ATOM      7  CB  GLU S   3      49.879  56.716  43.900  1.00 28.84 LIG 0.04  C 
BRANCH 7 8
ATOM      8  CG  GLU S   3      48.675  56.474  43.055  1.00 31.31 LIG 0.12  C 
BRANCH 8 9
ATOM      9  CD  GLU S   3      49.011  55.474  41.975  1.00 32.39 LIG 0.17  C 
ATOM     10 OE2  GLU S   3      49.896  55.775  41.173  1.00 38.97 LIG-0.65  OA
ATOM     11 OE1  GLU S   3      48.363  54.393  41.920  1.00 34.38 LIG-0.65  OA
ENDBRANCH 8 9
ENDBRANCH 7 8
ENDBRANCH 6 7
BRANCH 6 12
ATOM     12  N   GLU S   3      50.920  56.113  46.055  1.00 29.65 LIG-0.35  N 
ATOM     13 H    GLU S   3      50.926  55.256  46.118  1.00 29.65 LIG 0.16  HD
ATOM     14  C   ASN S   2      51.906  56.878  46.494  1.00 31.60 LIG 0.25  C 
ATOM     15 O    ASN S   2      52.019  58.065  46.217  1.00 31.89 LIG-0.27  OA
BRANCH 14 16
ATOM     16  CA  ASN S   2      52.915  56.175  47.418  1.00 33.47 LIG 0.28  C 
BRANCH 16 17
ATOM     17  N   ASN S   2      54.216  55.866  46.767  1.00 34.35 LIG-0.07  N 
ATOM     18 H2   ASN S   2      54.726  55.399  47.329  1.00 34.35 LIG 0.28  HD
ATOM     19 H3   ASN S   2      54.074  55.388  46.030  1.00 34.35 LIG 0.28  HD
ATOM     20 H1   ASN S   2      54.629  56.624  46.553  1.00 34.35 LIG 0.28  HD
ENDBRANCH 16 17
BRANCH 16 21
ATOM     21  CB  ASN S   2      53.173  56.948  48.698  1.00 34.36 LIG 0.14  C 
BRANCH 21 22
ATOM     22  CG  ASN S   2      52.463  56.318  49.891  1.00 36.60 LIG 0.22  C 
ATOM     23 OD1  ASN S   2      51.251  56.563  50.142  1.00 40.55 LIG-0.27  OA
ATOM     24  ND2 ASN S   2      53.200  55.507  50.636  1.00 40.03 LIG-0.37  N 
ATOM     25 22HD ASN S   2      54.023  55.366  50.432  1.00 40.03 LIG 0.16  HD
ATOM     26 21HD ASN S   2      52.854  55.122  51.323  1.00 40.03 LIG 0.16  HD
ENDBRANCH 21 22
ENDBRANCH 16 21
ENDBRANCH 14 16
ENDBRANCH 6 12
ENDBRANCH 4 6
ENDBRANCH 1 2
BRANCH 1 27
ATOM     27  C   PHE S   4      45.794  55.619  48.052  1.00 20.14 LIG 0.24  C 
ATOM     28 O    PHE S   4      45.447  56.767  48.305  1.00 18.43 LIG-0.27  OA
ATOM     29  N   TYR S   5      45.714  54.624  48.925  1.00 19.70 LIG-0.35  N 
ATOM     30 H    TYR S   5      45.934  53.813  48.742  1.00 19.70 LIG 0.16  HD
BRANCH 29 31
ATOM     31  CA  TYR S   5      45.240  54.814  50.296  1.00 19.15 LIG 0.18  C 
BRANCH 31 32
ATOM     32  C   TYR S   5      46.379  54.389  51.208  1.00 19.17 LIG 0.24  C 
ATOM     33  N   PHE S   6      46.553  55.126  52.301  1.00 19.00 LIG-0.34  N 
ATOM     34 H    PHE S   6      46.071  55.814  52.486  1.00 19.00 LIG 0.16  HD
ATOM     35 O    TYR S   5      47.116  53.445  50.912  1.00 19.39 LIG-0.27  OA
BRANCH 33 36
ATOM     36  CA  PHE S   6      47.577  54.845  53.300  1.00 19.20 LIG 0.19  C 
BRANCH 36 37
ATOM     37  C   PHE S   6      48.996  54.932  52.754  1.00 19.81 LIG 0.20  C 
ATOM     38 O    PHE S   6      49.905  54.261  53.272  1.00 18.53 LIG-0.65  OA
ATOM     39 OXT  PHE S   6      49.168  55.721  51.787  1.00 20.48 LIG-0.65  OA
ENDBRANCH 36 37
BRANCH 36 40
ATOM     40  CB  PHE S   6      47.333  53.457  53.899  1.00 19.81 LIG 0.07  C 
BRANCH 40 41
ATOM     41  CG  PHE S   6      46.416  53.464  55.128  1.00 21.45 LIG-0.06  A 
ATOM     42  CD2 PHE S   6      45.149  54.008  55.056  1.00 24.56 LIG 0.01  A 
ATOM     43  CE2 PHE S   6      44.308  54.020  56.179  1.00 25.95 LIG 0.00  A 
ATOM     44  CZ  PHE S   6      44.735  53.448  57.346  1.00 23.46 LIG 0.00  A 
ATOM     45  CE1 PHE S   6      45.980  52.879  57.425  1.00 24.74 LIG 0.00  A 
ATOM     46  CD1 PHE S   6      46.813  52.880  56.339  1.00 22.31 LIG 0.01  A 
ENDBRANCH 40 41
ENDBRANCH 36 40
ENDBRANCH 33 36
ENDBRANCH 31 32
BRANCH 31 47
ATOM     47  CB  TYR S   5      43.975  53.966  50.522  1.00 19.45 LIG 0.07  C 
BRANCH 47 48
ATOM     48  CG  TYR S   5      43.438  53.213  49.334  1.00 19.88 LIG-0.06  A 
ATOM     49  CD1 TYR S   5      42.519  53.776  48.455  1.00 18.15 LIG 0.01  A 
ATOM     50  CE1 TYR S   5      42.022  53.067  47.392  1.00 18.26 LIG 0.04  A 
ATOM     51  CZ  TYR S   5      42.460  51.770  47.172  1.00 18.69 LIG 0.07  A 
ATOM     52  CE2 TYR S   5      43.374  51.201  48.010  1.00 19.96 LIG 0.04  A 
ATOM     53  CD2 TYR S   5      43.856  51.916  49.095  1.00 21.89 LIG 0.01  A 
BRANCH 51 54
ATOM     54 OH   TYR S   5      41.980  51.045  46.116  1.00 21.24 LIG-0.36  OA
ATOM     55 HH   TYR S   5      41.912  50.237  46.339  1.00 21.24 LIG 0.22  HD
ENDBRANCH 51 54
ENDBRANCH 47 48
ENDBRANCH 31 47
ENDBRANCH 29 31
ENDBRANCH 1 27
BRANCH 1 56
ATOM     56  CB  PHE S   4      46.811  53.796  46.713  1.00 21.76 LIG 0.07  C 
BRANCH 56 57
ATOM     57  CG  PHE S   4      46.184  53.000  45.620  1.00 21.60 LIG-0.06  A 
ATOM     58  CD2 PHE S   4      46.964  52.389  44.663  1.00 23.13 LIG 0.01  A 
ATOM     59  CE2 PHE S   4      46.398  51.689  43.641  1.00 23.23 LIG 0.00  A 
ATOM     60  CZ  PHE S   4      45.047  51.521  43.601  1.00 22.51 LIG 0.00  A 
ATOM     61  CE1 PHE S   4      44.245  52.124  44.546  1.00 22.53 LIG 0.00  A 
ATOM     62  CD1 PHE S   4      44.808  52.863  45.555  1.00 22.71 LIG 0.01  A 
ENDBRANCH 56 57
ENDBRANCH 1 56
TORSDOF 22
ENDMDL
MODEL 12
USER: ADFR SOLUTION from run 34
USER: SCORE 18.611385 LL:  -5.068 LR: -15.640 RR:   0.000 FEB:  -9.077
USER: RMSD 5.251133
USER: SEED 33
USER: STATUS no improvement in best 14 clusters for 5 generations
USER: GENES 24
USER: genes 0 Translation |==|  0.59023 0.47133 0.45079
USER: genes 1 Rotation |==|  0.34324 0.55179 0.18720 0.85342
USER: genes 2 Torsion [CB]-CA--N-[C] |==|  0.16349
USER: genes 3 Torsion [N]-C--CA-[N] |==|  0.31111
USER: genes 4 Torsion [C]-CA--CB-[CG] |==|  0.56220
USER: genes 5 Torsion [CA]-CB--CG-[CD] |==|  0.24824
USER: genes 6 Torsion [CB]-CG--CD-[OE1] |==|  0.21354
USER: genes 7 Torsion [C]-CA--N-[C] |==|  0.83875
USER: genes 8 Torsion [N]-C--CA-[N] |==|  0.73604
USER: genes 9 Torsion [C]-CA--N-[H2] |==|  0.46126
USER: genes 10 Torsion [C]-CA--CB-[CG] |==|  0.51280
USER: genes 11 Torsion [CA]-CB--CG-[OD1] |==|  0.74564
USER: genes 12 Torsion [N]-CA--C-[N] |==|  0.72173
USER: genes 13 Torsion [C]-N--CA-[C] |==|  0.18413
USER: genes 14 Torsion [N]-CA--C-[N] |==|  0.23302
USER: genes 15 Torsion [C]-N--CA-[C] |==|  0.61763
USER: genes 16 Torsion [N]-CA--C-[O] |==|  0.71538
USER: genes 17 Torsion [N]-CA--CB-[CG] |==|  0.65804
USER: genes 18 Torsion [CA]-CB--CG-[CD2] |==|  0.73797
USER: genes 19 Torsion [N]-CA--CB-[CG] |==|  0.48073
USER: genes 20 Torsion [CA]-CB--CG-[CD2] |==|  0.15958
USER: genes 21 Torsion [CE1]-CZ--OH-[HH] |==|  0.53577
USER: genes 22 Torsion [N]-CA--CB-[CG] |==|  0.54478
USER: genes 23 Torsion [CA]-CB--CG-[CD1] |==|  0.73295
ROOT
ATOM      1  CA  PHE S   4      46.937  53.520  51.694  1.00 21.41 LIG 0.18  C 
ENDROOT
BRANCH 1 2
ATOM      2  N   PHE S   4      47.318  54.331  52.843  1.00 22.57 LIG-0.35  N 
ATOM      3 H    PHE S   4      46.952  55.109  52.858  1.00 22.57 LIG 0.16  HD
ATOM      4  C   GLU S   3      48.159  53.896  53.780  1.00 26.46 LIG 0.24  C 
ATOM      5 O    GLU S   3      48.686  52.779  53.751  1.00 26.71 LIG-0.27  OA
BRANCH 4 6
ATOM      6  CA  GLU S   3      48.507  54.888  54.878  1.00 28.27 LIG 0.18  C 
BRANCH 6 7
ATOM      7  CB  GLU S   3      50.026  54.872  54.944  1.00 28.84 LIG 0.04  C 
BRANCH 7 8
ATOM      8  CG  GLU S   3      50.667  55.321  56.212  1.00 31.31 LIG 0.12  C 
BRANCH 8 9
ATOM      9  CD  GLU S   3      50.834  54.141  57.137  1.00 32.39 LIG 0.17  C 
ATOM     10 OE2  GLU S   3      50.057  54.046  58.088  1.00 38.97 LIG-0.65  OA
ATOM     11 OE1  GLU S   3      51.766  53.320  56.919  1.00 34.38 LIG-0.65  OA
ENDBRANCH 8 9
ENDBRANCH 7 8
ENDBRANCH 6 7
BRANCH 6 12
ATOM     12  N   GLU S   3      47.921  54.412  56.148  1.00 29.65 LIG-0.35  N 
ATOM     13 H    GLU S   3      48.501  54.293  56.771  1.00 29.65 LIG 0.16  HD
ATOM     14  C   ASN S   2      46.627  54.191  56.311  1.00 31.60 LIG 0.25  C 
ATOM     15 O    ASN S   2      45.770  54.563  55.521  1.00 31.89 LIG-0.27  OA
BRANCH 14 16
ATOM     16  CA  ASN S   2      46.256  53.398  57.576  1.00 33.47 LIG 0.28  C 
BRANCH 16 17
ATOM     17  N   ASN S   2      46.105  51.936  57.351  1.00 34.35 LIG-0.07  N 
ATOM     18 H2   ASN S   2      46.093  51.514  58.135  1.00 34.35 LIG 0.28  HD
ATOM     19 H3   ASN S   2      45.344  51.779  56.918  1.00 34.35 LIG 0.28  HD
ATOM     20 H1   ASN S   2      46.788  51.638  56.865  1.00 34.35 LIG 0.28  HD
ENDBRANCH 16 17
BRANCH 16 21
ATOM     21  CB  ASN S   2      47.233  53.625  58.716  1.00 34.36 LIG 0.14  C 
BRANCH 21 22
ATOM     22  CG  ASN S   2      46.912  52.746  59.919  1.00 36.60 LIG 0.22  C 
ATOM     23 OD1  ASN S   2      46.159  53.148  60.847  1.00 40.55 LIG-0.27  OA
ATOM     24  ND2 ASN S   2      47.474  51.546  59.920  1.00 40.03 LIG-0.37  N 
ATOM     25 22HD ASN S   2      47.983  51.309  59.268  1.00 40.03 LIG 0.16  HD
ATOM     26 21HD ASN S   2      47.331  51.004  60.573  1.00 40.03 LIG 0.16  HD
ENDBRANCH 21 22
ENDBRANCH 16 21
ENDBRANCH 14 16
ENDBRANCH 6 12
ENDBRANCH 4 6
ENDBRANCH 1 2
BRANCH 1 27
ATOM     27  C   PHE S   4      45.942  54.270  50.811  1.00 20.14 LIG 0.24  C 
ATOM     28 O    PHE S   4      46.309  55.157  50.048  1.00 18.43 LIG-0.27  OA
ATOM     29  N   TYR S   5      44.670  53.926  50.971  1.00 19.70 LIG-0.35  N 
ATOM     30 H    TYR S   5      44.413  53.288  51.487  1.00 19.70 LIG 0.16  HD
BRANCH 29 31
ATOM     31  CA  TYR S   5      43.577  54.605  50.277  1.00 19.15 LIG 0.18  C 
BRANCH 31 32
ATOM     32  C   TYR S   5      43.748  54.297  48.798  1.00 19.17 LIG 0.24  C 
ATOM     33  N   PHE S   6      43.237  53.141  48.383  1.00 19.00 LIG-0.34  N 
ATOM     34 H    PHE S   6      42.847  52.583  48.910  1.00 19.00 LIG 0.16  HD
ATOM     35 O    TYR S   5      44.365  55.063  48.054  1.00 19.39 LIG-0.27  OA
BRANCH 33 36
ATOM     36  CA  PHE S   6      43.284  52.700  46.995  1.00 19.20 LIG 0.19  C 
BRANCH 36 37
ATOM     37  C   PHE S   6      41.983  52.071  46.513  1.00 19.81 LIG 0.20  C 
ATOM     38 O    PHE S   6      41.886  50.835  46.419  1.00 18.53 LIG-0.65  OA
ATOM     39 OXT  PHE S   6      41.060  52.875  46.213  1.00 20.48 LIG-0.65  OA
ENDBRANCH 36 37
BRANCH 36 40
ATOM     40  CB  PHE S   6      44.439  51.710  46.817  1.00 19.81 LIG 0.07  C 
BRANCH 40 41
ATOM     41  CG  PHE S   6      45.453  52.125  45.746  1.00 21.45 LIG-0.06  A 
ATOM     42  CD2 PHE S   6      45.339  51.658  44.451  1.00 24.56 LIG 0.01  A 
ATOM     43  CE2 PHE S   6      46.267  52.031  43.468  1.00 25.95 LIG 0.00  A 
ATOM     44  CZ  PHE S   6      47.272  52.904  43.787  1.00 23.46 LIG 0.00  A 
ATOM     45  CE1 PHE S   6      47.382  53.400  45.061  1.00 24.74 LIG 0.00  A 
ATOM     46  CD1 PHE S   6      46.491  53.024  46.030  1.00 22.31 LIG 0.01  A 
ENDBRANCH 40 41
ENDBRANCH 36 40
ENDBRANCH 33 36
ENDBRANCH 31 32
BRANCH 31 47
ATOM     47  CB  TYR S   5      43.649  56.116  50.563  1.00 19.45 LIG 0.07  C 
BRANCH 47 48
ATOM     48  CG  TYR S   5      42.696  56.999  49.802  1.00 19.88 LIG-0.06  A 
ATOM     49  CD1 TYR S   5      43.137  58.050  49.005  1.00 18.15 LIG 0.01  A 
ATOM     50  CE1 TYR S   5      42.254  58.859  48.339  1.00 18.26 LIG 0.04  A 
ATOM     51  CZ  TYR S   5      40.893  58.614  48.440  1.00 18.69 LIG 0.07  A 
ATOM     52  CE2 TYR S   5      40.436  57.579  49.202  1.00 19.96 LIG 0.04  A 
ATOM     53  CD2 TYR S   5      41.334  56.778  49.890  1.00 21.89 LIG 0.01  A 
BRANCH 51 54
ATOM     54 OH   TYR S   5      39.994  59.407  47.782  1.00 21.24 LIG-0.36  OA
ATOM     55 HH   TYR S   5      39.220  59.254  48.071  1.00 21.24 LIG 0.22  HD
ENDBRANCH 51 54
ENDBRANCH 47 48
ENDBRANCH 31 47
ENDBRANCH 29 31
ENDBRANCH 1 27
BRANCH 1 56
ATOM     56  CB  PHE S   4      46.297  52.244  52.197  1.00 21.76 LIG 0.07  C 
BRANCH 56 57
ATOM     57  CG  PHE S   4      46.210  51.175  51.161  1.00 21.60 LIG-0.06  A 
ATOM     58  CD2 PHE S   4      47.284  50.347  50.919  1.00 23.13 LIG 0.01  A 
ATOM     59  CE2 PHE S   4      47.225  49.391  49.950  1.00 23.23 LIG 0.00  A 
ATOM     60  CZ  PHE S   4      46.067  49.194  49.261  1.00 22.51 LIG 0.00  A 
ATOM     61  CE1 PHE S   4      44.980  50.011  49.484  1.00 22.53 LIG 0.00  A 
ATOM     62  CD1 PHE S   4      45.047  51.002  50.431  1.00 22.71 LIG 0.01  A 
ENDBRANCH 56 57
ENDBRANCH 1 56
TORSDOF 22
ENDMDL
MODEL 13
USER: ADFR SOLUTION from run 99
USER: SCORE 20.304399 LL:  -5.368 LR: -15.576 RR:   0.000 FEB:  -9.014
USER: RMSD 10.059017
USER: SEED 98
USER: STATUS searching
USER: GENES 24
USER: genes 0 Translation |==|  0.48101 0.45353 0.46936
USER: genes 1 Rotation |==|  0.96838 0.34602 0.44393 0.56137
USER: genes 2 Torsion [CB]-CA--N-[C] |==|  0.83315
USER: genes 3 Torsion [N]-C--CA-[N] |==|  0.89750
USER: genes 4 Torsion [C]-CA--CB-[CG] |==|  0.67938
USER: genes 5 Torsion [CA]-CB--CG-[CD] |==|  0.81717
USER: genes 6 Torsion [CB]-CG--CD-[OE1] |==|  0.28440
USER: genes 7 Torsion [C]-CA--N-[C] |==|  0.79483
USER: genes 8 Torsion [N]-C--CA-[N] |==|  0.02163
USER: genes 9 Torsion [C]-CA--N-[H2] |==|  0.70958
USER: genes 10 Torsion [C]-CA--CB-[CG] |==|  0.89397
USER: genes 11 Torsion [CA]-CB--CG-[OD1] |==|  0.90427
USER: genes 12 Torsion [N]-CA--C-[N] |==|  0.44353
USER: genes 13 Torsion [C]-N--CA-[C] |==|  0.65804
USER: genes 14 Torsion [N]-CA--C-[N] |==|  0.86866
USER: genes 15 Torsion [C]-N--CA-[C] |==|  0.24142
USER: genes 16 Torsion [N]-CA--C-[O] |==|  0.45660
USER: genes 17 Torsion [N]-CA--CB-[CG] |==|  0.77809
USER: genes 18 Torsion [CA]-CB--CG-[CD2] |==|  0.08854
USER: genes 19 Torsion [N]-CA--CB-[CG] |==|  0.40586
USER: genes 20 Torsion [CA]-CB--CG-[CD2] |==|  0.62466
USER: genes 21 Torsion [CE1]-CZ--OH-[HH] |==|  0.75045
USER: genes 22 Torsion [N]-CA--CB-[CG] |==|  0.80134
USER: genes 23 Torsion [CA]-CB--CG-[CD1] |==|  0.06456
ROOT
ATOM      1  CA  PHE S   4      43.660  52.986  52.251  1.00 21.41 LIG 0.18  C 
ENDROOT
BRANCH 1 2
ATOM      2  N   PHE S   4      43.129  53.274  50.925  1.00 22.57 LIG-0.35  N 
ATOM      3 H    PHE S   4      42.620  52.656  50.611  1.00 22.57 LIG 0.16  HD
ATOM      4  C   GLU S   3      43.412  54.397  50.267  1.00 26.46 LIG 0.24  C 
ATOM      5 O    GLU S   3      44.148  55.281  50.721  1.00 26.71 LIG-0.27  OA
BRANCH 4 6
ATOM      6  CA  GLU S   3      42.833  54.517  48.867  1.00 28.27 LIG 0.18  C 
BRANCH 6 7
ATOM      7  CB  GLU S   3      41.400  54.975  49.081  1.00 28.84 LIG 0.04  C 
BRANCH 7 8
ATOM      8  CG  GLU S   3      40.309  54.047  48.667  1.00 31.31 LIG 0.12  C 
BRANCH 8 9
ATOM      9  CD  GLU S   3      40.332  53.879  47.168  1.00 32.39 LIG 0.17  C 
ATOM     10 OE2  GLU S   3      39.837  54.777  46.485  1.00 38.97 LIG-0.65  OA
ATOM     11 OE1  GLU S   3      40.829  52.829  46.677  1.00 34.38 LIG-0.65  OA
ENDBRANCH 8 9
ENDBRANCH 7 8
ENDBRANCH 6 7
BRANCH 6 12
ATOM     12  N   GLU S   3      42.870  53.187  48.226  1.00 29.65 LIG-0.35  N 
ATOM     13 H    GLU S   3      42.099  52.811  48.168  1.00 29.65 LIG 0.16  HD
ATOM     14  C   ASN S   2      43.983  52.626  47.782  1.00 31.60 LIG 0.25  C 
ATOM     15 O    ASN S   2      45.041  53.227  47.653  1.00 31.89 LIG-0.27  OA
BRANCH 14 16
ATOM     16  CA  ASN S   2      43.871  51.127  47.451  1.00 33.47 LIG 0.28  C 
BRANCH 16 17
ATOM     17  N   ASN S   2      42.484  50.597  47.512  1.00 34.35 LIG-0.07  N 
ATOM     18 H2   ASN S   2      42.380  50.118  48.255  1.00 34.35 LIG 0.28  HD
ATOM     19 H3   ASN S   2      41.906  51.273  47.512  1.00 34.35 LIG 0.28  HD
ATOM     20 H1   ASN S   2      42.333  50.079  46.803  1.00 34.35 LIG 0.28  HD
ENDBRANCH 16 17
BRANCH 16 21
ATOM     21  CB  ASN S   2      44.476  50.780  46.104  1.00 34.36 LIG 0.14  C 
BRANCH 21 22
ATOM     22  CG  ASN S   2      44.200  51.862  45.065  1.00 36.60 LIG 0.22  C 
ATOM     23 OD1  ASN S   2      43.122  52.516  45.064  1.00 40.55 LIG-0.27  OA
ATOM     24  ND2 ASN S   2      45.162  52.062  44.175  1.00 40.03 LIG-0.37  N 
ATOM     25 22HD ASN S   2      45.883  51.595  44.209  1.00 40.03 LIG 0.16  HD
ATOM     26 21HD ASN S   2      45.064  52.660  43.564  1.00 40.03 LIG 0.16  HD
ENDBRANCH 21 22
ENDBRANCH 16 21
ENDBRANCH 14 16
ENDBRANCH 6 12
ENDBRANCH 4 6
ENDBRANCH 1 2
BRANCH 1 27
ATOM     27  C   PHE S   4      43.222  54.054  53.250  1.00 20.14 LIG 0.24  C 
ATOM     28 O    PHE S   4      42.889  55.175  52.881  1.00 18.43 LIG-0.27  OA
ATOM     29  N   TYR S   5      43.279  53.694  54.526  1.00 19.70 LIG-0.35  N 
ATOM     30 H    TYR S   5      43.488  52.901  54.786  1.00 19.70 LIG 0.16  HD
BRANCH 29 31
ATOM     31  CA  TYR S   5      42.987  54.619  55.620  1.00 19.15 LIG 0.18  C 
BRANCH 31 32
ATOM     32  C   TYR S   5      44.221  54.636  56.510  1.00 19.17 LIG 0.24  C 
ATOM     33  N   PHE S   6      44.723  53.447  56.828  1.00 19.00 LIG-0.34  N 
ATOM     34 H    PHE S   6      44.373  52.704  56.570  1.00 19.00 LIG 0.16  HD
ATOM     35 O    TYR S   5      44.684  55.696  56.937  1.00 19.39 LIG-0.27  OA
BRANCH 33 36
ATOM     36  CA  PHE S   6      45.917  53.277  57.646  1.00 19.20 LIG 0.19  C 
BRANCH 36 37
ATOM     37  C   PHE S   6      45.630  53.255  59.141  1.00 19.81 LIG 0.20  C 
ATOM     38 O    PHE S   6      46.490  52.834  59.935  1.00 18.53 LIG-0.65  OA
ATOM     39 OXT  PHE S   6      44.491  53.664  59.491  1.00 20.48 LIG-0.65  OA
ENDBRANCH 36 37
BRANCH 36 40
ATOM     40  CB  PHE S   6      46.915  54.393  57.323  1.00 19.81 LIG 0.07  C 
BRANCH 40 41
ATOM     41  CG  PHE S   6      47.724  54.152  56.043  1.00 21.45 LIG-0.06  A 
ATOM     42  CD2 PHE S   6      47.171  53.462  54.982  1.00 24.56 LIG 0.01  A 
ATOM     43  CE2 PHE S   6      47.908  53.235  53.811  1.00 25.95 LIG 0.00  A 
ATOM     44  CZ  PHE S   6      49.175  53.741  53.704  1.00 23.46 LIG 0.00  A 
ATOM     45  CE1 PHE S   6      49.729  54.452  54.739  1.00 24.74 LIG 0.00  A 
ATOM     46  CD1 PHE S   6      49.021  54.661  55.891  1.00 22.31 LIG 0.01  A 
ENDBRANCH 40 41
ENDBRANCH 36 40
ENDBRANCH 33 36
ENDBRANCH 31 32
BRANCH 31 47
ATOM     47  CB  TYR S   5      41.737  54.138  56.379  1.00 19.45 LIG 0.07  C 
BRANCH 47 48
ATOM     48  CG  TYR S   5      41.701  54.391  57.863  1.00 19.88 LIG-0.06  A 
ATOM     49  CD1 TYR S   5      42.074  55.612  58.414  1.00 18.15 LIG 0.01  A 
ATOM     50  CE1 TYR S   5      42.059  55.817  59.769  1.00 18.26 LIG 0.04  A 
ATOM     51  CZ  TYR S   5      41.641  54.797  60.609  1.00 18.69 LIG 0.07  A 
ATOM     52  CE2 TYR S   5      41.254  53.595  60.092  1.00 19.96 LIG 0.04  A 
ATOM     53  CD2 TYR S   5      41.292  53.388  58.722  1.00 21.89 LIG 0.01  A 
BRANCH 51 54
ATOM     54 OH   TYR S   5      41.615  54.980  61.964  1.00 21.24 LIG-0.36  OA
ATOM     55 HH   TYR S   5      42.355  54.755  62.292  1.00 21.24 LIG 0.22  HD
ENDBRANCH 51 54
ENDBRANCH 47 48
ENDBRANCH 31 47
ENDBRANCH 29 31
ENDBRANCH 1 27
BRANCH 1 56
ATOM     56  CB  PHE S   4      45.172  52.966  52.170  1.00 21.76 LIG 0.07  C 
BRANCH 56 57
ATOM     57  CG  PHE S   4      45.712  51.777  51.451  1.00 21.60 LIG-0.06  A 
ATOM     58  CD2 PHE S   4      46.998  51.343  51.684  1.00 23.13 LIG 0.01  A 
ATOM     59  CE2 PHE S   4      47.512  50.279  51.006  1.00 23.23 LIG 0.00  A 
ATOM     60  CZ  PHE S   4      46.723  49.582  50.142  1.00 22.51 LIG 0.00  A 
ATOM     61  CE1 PHE S   4      45.433  49.997  49.890  1.00 22.53 LIG 0.00  A 
ATOM     62  CD1 PHE S   4      44.924  51.092  50.541  1.00 22.71 LIG 0.01  A 
ENDBRANCH 56 57
ENDBRANCH 1 56
TORSDOF 22
ENDMDL
MODEL 14
USER: ADFR SOLUTION from run 33
USER: SCORE 20.307063 LL:  -6.316 LR: -15.546 RR:   0.000 FEB:  -8.984
USER: RMSD 9.546129
USER: SEED 32
USER: STATUS no improvement in best 4 clusters for 5 generations
USER: GENES 24
USER: genes 0 Translation |==|  0.48593 0.44206 0.44961
USER: genes 1 Rotation |==|  0.97049 0.34195 0.44780 0.53062
USER: genes 2 Torsion [CB]-CA--N-[C] |==|  0.88224
USER: genes 3 Torsion [N]-C--CA-[N] |==|  0.65058
USER: genes 4 Torsion [C]-CA--CB-[CG] |==|  0.54176
USER: genes 5 Torsion [CA]-CB--CG-[CD] |==|  0.31177
USER: genes 6 Torsion [CB]-CG--CD-[OE1] |==|  0.70289
USER: genes 7 Torsion [C]-CA--N-[C] |==|  0.18233
USER: genes 8 Torsion [N]-C--CA-[N] |==|  0.82612
USER: genes 9 Torsion [C]-CA--N-[H2] |==|  0.58022
USER: genes 10 Torsion [C]-CA--CB-[CG] |==|  0.42517
USER: genes 11 Torsion [CA]-CB--CG-[OD1] |==|  0.19271
USER: genes 12 Torsion [N]-CA--C-[N] |==|  0.86111
USER: genes 13 Torsion [C]-N--CA-[C] |==|  0.60224
USER: genes 14 Torsion [N]-CA--C-[N] |==|  0.19369
USER: genes 15 Torsion [C]-N--CA-[C] |==|  0.61792
USER: genes 16 Torsion [N]-CA--C-[O] |==|  0.51433
USER: genes 17 Torsion [N]-CA--CB-[CG] |==|  0.22681
USER: genes 18 Torsion [CA]-CB--CG-[CD2] |==|  0.86711
USER: genes 19 Torsion [N]-CA--CB-[CG] |==|  0.83830
USER: genes 20 Torsion [CA]-CB--CG-[CD2] |==|  0.77634
USER: genes 21 Torsion [CE1]-CZ--OH-[HH] |==|  0.01279
USER: genes 22 Torsion [N]-CA--CB-[CG] |==|  0.77993
USER: genes 23 Torsion [CA]-CB--CG-[CD1] |==|  0.05123
ROOT
ATOM      1  CA  PHE S   4      43.808  52.642  51.658  1.00 21.41 LIG 0.18  C 
ENDROOT
BRANCH 1 2
ATOM      2  N   PHE S   4      43.359  53.087  50.345  1.00 22.57 LIG-0.35  N 
ATOM      3 H    PHE S   4      42.681  52.652  50.042  1.00 22.57 LIG 0.16  HD
ATOM      4  C   GLU S   3      43.951  54.079  49.683  1.00 26.46 LIG 0.24  C 
ATOM      5 O    GLU S   3      44.928  54.698  50.121  1.00 26.71 LIG-0.27  OA
BRANCH 4 6
ATOM      6  CA  GLU S   3      43.405  54.378  48.297  1.00 28.27 LIG 0.18  C 
BRANCH 6 7
ATOM      7  CB  GLU S   3      42.408  53.262  48.027  1.00 28.84 LIG 0.04  C 
BRANCH 7 8
ATOM      8  CG  GLU S   3      41.949  53.070  46.622  1.00 31.31 LIG 0.12  C 
BRANCH 8 9
ATOM      9  CD  GLU S   3      42.477  51.758  46.095  1.00 32.39 LIG 0.17  C 
ATOM     10 OE2  GLU S   3      41.980  50.723  46.539  1.00 38.97 LIG-0.65  OA
ATOM     11 OE1  GLU S   3      43.413  51.771  45.250  1.00 34.38 LIG-0.65  OA
ENDBRANCH 8 9
ENDBRANCH 7 8
ENDBRANCH 6 7
BRANCH 6 12
ATOM     12  N   GLU S   3      44.519  54.332  47.329  1.00 29.65 LIG-0.35  N 
ATOM     13 H    GLU S   3      44.692  55.093  46.967  1.00 29.65 LIG 0.16  HD
ATOM     14  C   ASN S   2      45.190  53.228  47.046  1.00 31.60 LIG 0.25  C 
ATOM     15 O    ASN S   2      45.111  52.199  47.705  1.00 31.89 LIG-0.27  OA
BRANCH 14 16
ATOM     16  CA  ASN S   2      46.080  53.307  45.794  1.00 33.47 LIG 0.28  C 
BRANCH 16 17
ATOM     17  N   ASN S   2      45.330  53.546  44.533  1.00 34.35 LIG-0.07  N 
ATOM     18 H2   ASN S   2      45.772  53.183  43.851  1.00 34.35 LIG 0.28  HD
ATOM     19 H3   ASN S   2      44.523  53.177  44.593  1.00 34.35 LIG 0.28  HD
ATOM     20 H1   ASN S   2      45.246  54.422  44.399  1.00 34.35 LIG 0.28  HD
ENDBRANCH 16 17
BRANCH 16 21
ATOM     21  CB  ASN S   2      47.177  54.349  45.923  1.00 34.36 LIG 0.14  C 
BRANCH 21 22
ATOM     22  CG  ASN S   2      48.388  54.004  45.064  1.00 36.60 LIG 0.22  C 
ATOM     23 OD1  ASN S   2      48.339  54.055  43.804  1.00 40.55 LIG-0.27  OA
ATOM     24  ND2 ASN S   2      49.480  53.651  45.725  1.00 40.03 LIG-0.37  N 
ATOM     25 22HD ASN S   2      49.474  53.628  46.585  1.00 40.03 LIG 0.16  HD
ATOM     26 21HD ASN S   2      50.196  53.445  45.295  1.00 40.03 LIG 0.16  HD
ENDBRANCH 21 22
ENDBRANCH 16 21
ENDBRANCH 14 16
ENDBRANCH 6 12
ENDBRANCH 4 6
ENDBRANCH 1 2
BRANCH 1 27
ATOM     27  C   PHE S   4      43.337  53.607  52.744  1.00 20.14 LIG 0.24  C 
ATOM     28 O    PHE S   4      42.729  53.209  53.731  1.00 18.43 LIG-0.27  OA
ATOM     29  N   TYR S   5      43.591  54.889  52.513  1.00 19.70 LIG-0.35  N 
ATOM     30 H    TYR S   5      44.039  55.168  51.834  1.00 19.70 LIG 0.16  HD
BRANCH 29 31
ATOM     31  CA  TYR S   5      43.129  55.957  53.398  1.00 19.15 LIG 0.18  C 
BRANCH 31 32
ATOM     32  C   TYR S   5      42.755  57.127  52.502  1.00 19.17 LIG 0.24  C 
ATOM     33  N   PHE S   6      41.670  56.960  51.752  1.00 19.00 LIG-0.34  N 
ATOM     34 H    PHE S   6      41.208  56.235  51.748  1.00 19.00 LIG 0.16  HD
ATOM     35 O    TYR S   5      43.455  58.142  52.454  1.00 19.39 LIG-0.27  OA
BRANCH 33 36
ATOM     36  CA  PHE S   6      41.152  57.988  50.858  1.00 19.20 LIG 0.19  C 
BRANCH 36 37
ATOM     37  C   PHE S   6      39.636  58.123  50.903  1.00 19.81 LIG 0.20  C 
ATOM     38 O    PHE S   6      39.055  58.896  50.121  1.00 18.53 LIG-0.65  OA
ATOM     39 OXT  PHE S   6      39.046  57.431  51.776  1.00 20.48 LIG-0.65  OA
ENDBRANCH 36 37
BRANCH 36 40
ATOM     40  CB  PHE S   6      41.606  57.690  49.426  1.00 19.81 LIG 0.07  C 
BRANCH 40 41
ATOM     41  CG  PHE S   6      40.744  56.648  48.705  1.00 21.45 LIG-0.06  A 
ATOM     42  CD2 PHE S   6      40.416  55.457  49.325  1.00 24.56 LIG 0.01  A 
ATOM     43  CE2 PHE S   6      39.631  54.499  48.668  1.00 25.95 LIG 0.00  A 
ATOM     44  CZ  PHE S   6      39.149  54.766  47.416  1.00 23.46 LIG 0.00  A 
ATOM     45  CE1 PHE S   6      39.443  55.955  46.798  1.00 24.74 LIG 0.00  A 
ATOM     46  CD1 PHE S   6      40.224  56.887  47.426  1.00 22.31 LIG 0.01  A 
ENDBRANCH 40 41
ENDBRANCH 36 40
ENDBRANCH 33 36
ENDBRANCH 31 32
BRANCH 31 47
ATOM     47  CB  TYR S   5      44.250  56.324  54.387  1.00 19.45 LIG 0.07  C 
BRANCH 47 48
ATOM     48  CG  TYR S   5      44.772  55.218  55.266  1.00 19.88 LIG-0.06  A 
ATOM     49  CD1 TYR S   5      45.946  54.531  54.973  1.00 18.15 LIG 0.01  A 
ATOM     50  CE1 TYR S   5      46.393  53.511  55.770  1.00 18.26 LIG 0.04  A 
ATOM     51  CZ  TYR S   5      45.677  53.169  56.907  1.00 18.69 LIG 0.07  A 
ATOM     52  CE2 TYR S   5      44.532  53.839  57.226  1.00 19.96 LIG 0.04  A 
ATOM     53  CD2 TYR S   5      44.074  54.855  56.403  1.00 21.89 LIG 0.01  A 
BRANCH 51 54
ATOM     54 OH   TYR S   5      46.106  52.156  57.720  1.00 21.24 LIG-0.36  OA
ATOM     55 HH   TYR S   5      46.847  51.871  57.445  1.00 21.24 LIG 0.22  HD
ENDBRANCH 51 54
ENDBRANCH 47 48
ENDBRANCH 31 47
ENDBRANCH 29 31
ENDBRANCH 1 27
BRANCH 1 56
ATOM     56  CB  PHE S   4      45.321  52.589  51.657  1.00 21.76 LIG 0.07  C 
BRANCH 56 57
ATOM     57  CG  PHE S   4      45.872  51.371  50.996  1.00 21.60 LIG-0.06  A 
ATOM     58  CD2 PHE S   4      47.169  50.974  51.233  1.00 23.13 LIG 0.01  A 
ATOM     59  CE2 PHE S   4      47.692  49.883  50.606  1.00 23.23 LIG 0.00  A 
ATOM     60  CZ  PHE S   4      46.903  49.125  49.795  1.00 22.51 LIG 0.00  A 
ATOM     61  CE1 PHE S   4      45.602  49.503  49.541  1.00 22.53 LIG 0.00  A 
ATOM     62  CD1 PHE S   4      45.083  50.624  50.138  1.00 22.71 LIG 0.01  A 
ENDBRANCH 56 57
ENDBRANCH 1 56
TORSDOF 22
ENDMDL
