MODEL 1
USER: ADFR SOLUTION from run 97
USER: SCORE 15.080297 LL:  -1.151 LR: -13.930 RR:   0.000 FEB: -11.245
USER: RMSD 12.624040
USER: SEED 96
USER: STATUS no improvement in best 15 clusters for 5 generations
USER: GENES 11
USER: genes 0 Translation |==|  0.37973 0.75959 0.64479
USER: genes 1 Rotation |==|  0.61655 0.46163 0.01558 0.51686
USER: genes 2 Torsion [N]-CA--C-[O] |==|  0.27099
USER: genes 3 Torsion [C]-N--CA-[CB] |==|  0.27909
USER: genes 4 Torsion [N]-CA--C-[OXT] |==|  0.06699
USER: genes 5 Torsion [N]-CA--CB-[CG] |==|  0.62334
USER: genes 6 Torsion [CA]-CB--CG-[CD1] |==|  0.74731
USER: genes 7 Torsion [N]-C--CA-[N] |==|  0.88709
USER: genes 8 Torsion [C]-CA--CB-[CG] |==|  0.18784
USER: genes 9 Torsion [CA]-CB--CG-[CD1] |==|  0.11125
USER: genes 10 Torsion [C]-CA--N-[H2] |==|  0.40807
ROOT
ATOM      1  C   TRP D   1       9.292  -3.032  39.184  1.00 35.88 LIG 0.25  C 
ATOM      2 O    TRP D   1      10.176  -2.733  40.065  1.00 38.57 LIG-0.27  OA
ATOM      3  N   PRO D   2       8.773  -4.165  38.909  1.00 34.89 LIG-0.34  N 
ATOM      4  CA  PRO D   2       8.990  -5.438  39.672  1.00 35.03 LIG 0.18  C 
ATOM      5  CB  PRO D   2       8.103  -6.376  38.904  1.00 35.34 LIG 0.04  C 
ATOM      6  CG  PRO D   2       6.929  -5.459  38.554  1.00 35.42 LIG 0.02  C 
ATOM      7  CD  PRO D   2       7.389  -4.041  38.482  1.00 35.14 LIG 0.13  C 
ENDROOT
BRANCH 4 8
ATOM      8  C   PRO D   2      10.385  -6.002  39.914  1.00 35.70 LIG 0.24  C 
ATOM      9 O    PRO D   2      11.025  -5.837  40.941  1.00 34.88 LIG-0.27  OA
ATOM     10  N   TRP D   3      10.760  -6.695  38.818  1.00 36.87 LIG-0.34  N 
ATOM     11 H    TRP D   3      10.198  -6.938  38.215  1.00 36.87 LIG 0.16  HD
BRANCH 10 12
ATOM     12  CA  TRP D   3      12.169  -7.126  38.509  1.00 37.56 LIG 0.19  C 
BRANCH 12 13
ATOM     13  C   TRP D   3      12.900  -6.857  37.141  1.00 38.92 LIG 0.20  C 
ATOM     14 OXT  TRP D   3      12.562  -5.899  36.367  1.00 41.38 LIG-0.65  OA
ATOM     15 O    TRP D   3      13.868  -7.703  36.819  1.00 40.06 LIG-0.65  OA
ENDBRANCH 12 13
BRANCH 12 16
ATOM     16  CB  TRP D   3      12.351  -8.643  38.886  1.00 36.55 LIG 0.08  C 
BRANCH 16 17
ATOM     17  CG  TRP D   3      13.672  -8.887  39.635  1.00 35.48 LIG-0.03  A 
ATOM     18  CD1 TRP D   3      14.907  -9.219  39.067  1.00 37.13 LIG 0.10  A 
ATOM     19  NE1 TRP D   3      15.855  -9.372  40.061  1.00 40.71 LIG-0.36  N 
ATOM     20 HE1  TRP D   3      16.679  -9.582  39.932  1.00 40.71 LIG 0.17  HD
ATOM     21  CE2 TRP D   3      15.281  -9.136  41.292  1.00 36.12 LIG 0.04  A 
ATOM     22  CD2 TRP D   3      13.886  -8.824  41.064  1.00 33.28 LIG-0.00  A 
ATOM     23  CZ2 TRP D   3      15.869  -9.192  42.582  1.00 34.49 LIG 0.03  A 
ATOM     24  CE3 TRP D   3      13.038  -8.570  42.173  1.00 31.46 LIG 0.01  A 
ATOM     25  CZ3 TRP D   3      13.596  -8.599  43.465  1.00 32.66 LIG 0.00  A 
ATOM     26  CH2 TRP D   3      15.026  -8.922  43.665  1.00 36.62 LIG 0.00  A 
ENDBRANCH 16 17
ENDBRANCH 12 16
ENDBRANCH 10 12
ENDBRANCH 4 8
BRANCH 1 27
ATOM     27  CA  TRP D   1       8.885  -1.982  38.104  1.00 34.78 LIG 0.28  C 
BRANCH 27 28
ATOM     28  CB  TRP D   1       7.485  -1.411  38.365  1.00 34.63 LIG 0.08  C 
BRANCH 28 29
ATOM     29  CG  TRP D   1       7.441  -0.538  39.655  1.00 37.87 LIG-0.03  A 
ATOM     30  CD1 TRP D   1       8.407   0.365  40.098  1.00 40.68 LIG 0.10  A 
ATOM     31  NE1 TRP D   1       7.977   0.978  41.258  1.00 42.18 LIG-0.36  N 
ATOM     32 HE1  TRP D   1       8.417   1.567  41.703  1.00 42.18 LIG 0.17  HD
ATOM     33  CE2 TRP D   1       6.723   0.489  41.590  1.00 41.11 LIG 0.04  A 
ATOM     34  CD2 TRP D   1       6.360  -0.466  40.610  1.00 38.74 LIG-0.00  A 
ATOM     35  CZ2 TRP D   1       5.871   0.818  42.688  1.00 41.13 LIG 0.03  A 
ATOM     36  CE3 TRP D   1       5.097  -1.086  40.710  1.00 40.52 LIG 0.01  A 
ATOM     37  CZ3 TRP D   1       4.255  -0.764  41.805  1.00 41.02 LIG 0.00  A 
ATOM     38  CH2 TRP D   1       4.650   0.188  42.769  1.00 39.74 LIG 0.00  A 
ENDBRANCH 28 29
ENDBRANCH 27 28
BRANCH 27 39
ATOM     39  N   TRP D   1       8.916  -2.571  36.715  1.00 33.45 LIG-0.07  N 
ATOM     40 H3   TRP D   1       9.711  -2.418  36.345  1.00 33.45 LIG 0.28  HD
ATOM     41 H2   TRP D   1       8.280  -2.195  36.218  1.00 33.45 LIG 0.28  HD
ATOM     42 H1   TRP D   1       8.775  -3.449  36.761  1.00 33.45 LIG 0.28  HD
ENDBRANCH 27 39
ENDBRANCH 1 27
TORSDOF 9
ENDMDL
MODEL 2
USER: ADFR SOLUTION from run 158
USER: SCORE 14.892133 LL:  -0.998 LR: -13.894 RR:   0.000 FEB: -11.210
USER: RMSD 12.183510
USER: SEED 157
USER: STATUS no improvement in best 16 clusters for 5 generations
USER: GENES 11
USER: genes 0 Translation |==|  0.35562 0.72329 0.63831
USER: genes 1 Rotation |==|  0.58726 0.61359 0.03266 0.60525
USER: genes 2 Torsion [N]-CA--C-[O] |==|  0.01390
USER: genes 3 Torsion [C]-N--CA-[CB] |==|  0.45986
USER: genes 4 Torsion [N]-CA--C-[OXT] |==|  0.45901
USER: genes 5 Torsion [N]-CA--CB-[CG] |==|  0.71777
USER: genes 6 Torsion [CA]-CB--CG-[CD1] |==|  0.69748
USER: genes 7 Torsion [N]-C--CA-[N] |==|  0.90236
USER: genes 8 Torsion [C]-CA--CB-[CG] |==|  0.35164
USER: genes 9 Torsion [CA]-CB--CG-[CD1] |==|  0.46025
USER: genes 10 Torsion [C]-CA--N-[H2] |==|  0.79322
ROOT
ATOM      1  C   TRP D   1       8.568  -4.121  38.989  1.00 35.88 LIG 0.25  C 
ATOM      2 O    TRP D   1       9.444  -3.846  39.887  1.00 38.57 LIG-0.27  OA
ATOM      3  N   PRO D   2       8.510  -5.117  38.194  1.00 34.89 LIG-0.34  N 
ATOM      4  CA  PRO D   2       9.416  -6.312  38.214  1.00 35.03 LIG 0.18  C 
ATOM      5  CB  PRO D   2       8.830  -7.124  37.095  1.00 35.34 LIG 0.04  C 
ATOM      6  CG  PRO D   2       7.337  -6.841  37.271  1.00 35.42 LIG 0.02  C 
ATOM      7  CD  PRO D   2       7.138  -5.507  37.910  1.00 35.14 LIG 0.13  C 
ENDROOT
BRANCH 4 8
ATOM      8  C   PRO D   2      10.931  -6.172  38.117  1.00 35.70 LIG 0.24  C 
ATOM      9 O    PRO D   2      11.524  -5.103  38.106  1.00 34.88 LIG-0.27  OA
ATOM     10  N   TRP D   3      11.470  -7.407  38.054  1.00 36.87 LIG-0.34  N 
ATOM     11 H    TRP D   3      11.025  -8.112  38.262  1.00 36.87 LIG 0.16  HD
BRANCH 10 12
ATOM     12  CA  TRP D   3      12.880  -7.714  37.624  1.00 37.56 LIG 0.19  C 
BRANCH 12 13
ATOM     13  C   TRP D   3      13.451  -7.431  36.184  1.00 38.92 LIG 0.20  C 
ATOM     14 OXT  TRP D   3      14.703  -7.445  35.936  1.00 41.38 LIG-0.65  OA
ATOM     15 O    TRP D   3      12.558  -7.145  35.247  1.00 40.06 LIG-0.65  OA
ENDBRANCH 12 13
BRANCH 12 16
ATOM     16  CB  TRP D   3      13.245  -9.190  38.029  1.00 36.55 LIG 0.08  C 
BRANCH 16 17
ATOM     17  CG  TRP D   3      14.115  -9.232  39.297  1.00 35.48 LIG-0.03  A 
ATOM     18  CD1 TRP D   3      15.472  -9.566  39.370  1.00 37.13 LIG 0.10  A 
ATOM     19  NE1 TRP D   3      15.900  -9.505  40.683  1.00 40.71 LIG-0.36  N 
ATOM     20 HE1  TRP D   3      16.698  -9.678  40.952  1.00 40.71 LIG 0.17  HD
ATOM     21  CE2 TRP D   3      14.855  -9.123  41.497  1.00 36.12 LIG 0.04  A 
ATOM     22  CD2 TRP D   3      13.694  -8.940  40.649  1.00 33.28 LIG-0.00  A 
ATOM     23  CZ2 TRP D   3      14.831  -8.945  42.904  1.00 34.49 LIG 0.03  A 
ATOM     24  CE3 TRP D   3      12.454  -8.577  41.235  1.00 31.46 LIG 0.01  A 
ATOM     25  CZ3 TRP D   3      12.403  -8.374  42.627  1.00 32.66 LIG 0.00  A 
ATOM     26  CH2 TRP D   3      13.606  -8.570  43.465  1.00 36.62 LIG 0.00  A 
ENDBRANCH 16 17
ENDBRANCH 12 16
ENDBRANCH 10 12
ENDBRANCH 4 8
BRANCH 1 27
ATOM     27  CA  TRP D   1       7.506  -3.052  38.587  1.00 34.78 LIG 0.28  C 
BRANCH 27 28
ATOM     28  CB  TRP D   1       6.143  -3.332  39.234  1.00 34.63 LIG 0.08  C 
BRANCH 28 29
ATOM     29  CG  TRP D   1       5.600  -2.096  40.011  1.00 37.87 LIG-0.03  A 
ATOM     30  CD1 TRP D   1       4.302  -1.893  40.477  1.00 40.68 LIG 0.10  A 
ATOM     31  NE1 TRP D   1       4.231  -0.695  41.160  1.00 42.18 LIG-0.36  N 
ATOM     32 HE1  TRP D   1       3.525  -0.372  41.529  1.00 42.18 LIG 0.17  HD
ATOM     33  CE2 TRP D   1       5.482  -0.097  41.154  1.00 41.11 LIG 0.04  A 
ATOM     34  CD2 TRP D   1       6.361  -0.945  40.438  1.00 38.74 LIG-0.00  A 
ATOM     35  CZ2 TRP D   1       5.912   1.137  41.730  1.00 41.13 LIG 0.03  A 
ATOM     36  CE3 TRP D   1       7.715  -0.567  40.321  1.00 40.52 LIG 0.01  A 
ATOM     37  CZ3 TRP D   1       8.140   0.662  40.888  1.00 41.02 LIG 0.00  A 
ATOM     38  CH2 TRP D   1       7.235   1.489  41.590  1.00 39.74 LIG 0.00  A 
ENDBRANCH 28 29
ENDBRANCH 27 28
BRANCH 27 39
ATOM     39  N   TRP D   1       7.326  -2.983  37.090  1.00 33.45 LIG-0.07  N 
ATOM     40 H3   TRP D   1       7.262  -3.807  36.760  1.00 33.45 LIG 0.28  HD
ATOM     41 H2   TRP D   1       8.025  -2.570  36.725  1.00 33.45 LIG 0.28  HD
ATOM     42 H1   TRP D   1       6.583  -2.530  36.901  1.00 33.45 LIG 0.28  HD
ENDBRANCH 27 39
ENDBRANCH 1 27
TORSDOF 9
ENDMDL
MODEL 3
USER: ADFR SOLUTION from run 18
USER: SCORE 14.548914 LL:  -0.915 LR: -13.634 RR:   0.000 FEB: -10.949
USER: RMSD 11.224286
USER: SEED 17
USER: STATUS no improvement in best 9 clusters for 5 generations
USER: GENES 11
USER: genes 0 Translation |==|  0.39891 0.75712 0.63740
USER: genes 1 Rotation |==|  0.47886 0.69739 0.45514 0.95670
USER: genes 2 Torsion [N]-CA--C-[O] |==|  0.50150
USER: genes 3 Torsion [C]-N--CA-[CB] |==|  0.60768
USER: genes 4 Torsion [N]-CA--C-[OXT] |==|  0.90427
USER: genes 5 Torsion [N]-CA--CB-[CG] |==|  0.61811
USER: genes 6 Torsion [CA]-CB--CG-[CD1] |==|  0.70049
USER: genes 7 Torsion [N]-C--CA-[N] |==|  0.91532
USER: genes 8 Torsion [C]-CA--CB-[CG] |==|  0.20766
USER: genes 9 Torsion [CA]-CB--CG-[CD1] |==|  0.96666
USER: genes 10 Torsion [C]-CA--N-[H2] |==|  0.67074
ROOT
ATOM      1  C   TRP D   1       9.867  -3.106  38.962  1.00 35.88 LIG 0.25  C 
ATOM      2 O    TRP D   1       9.337  -2.987  40.125  1.00 38.57 LIG-0.27  OA
ATOM      3  N   PRO D   2      10.361  -2.210  38.201  1.00 34.89 LIG-0.34  N 
ATOM      4  CA  PRO D   2      10.564  -0.768  38.560  1.00 35.03 LIG 0.18  C 
ATOM      5  CB  PRO D   2      11.201  -0.254  37.300  1.00 35.34 LIG 0.04  C 
ATOM      6  CG  PRO D   2      12.071  -1.448  36.898  1.00 35.42 LIG 0.02  C 
ATOM      7  CD  PRO D   2      11.477  -2.715  37.417  1.00 35.14 LIG 0.13  C 
ENDROOT
BRANCH 4 8
ATOM      8  C   PRO D   2       9.415   0.108  39.045  1.00 35.70 LIG 0.24  C 
ATOM      9 O    PRO D   2       9.527   1.289  39.340  1.00 34.88 LIG-0.27  OA
ATOM     10  N   TRP D   3       8.293  -0.641  39.080  1.00 36.87 LIG-0.34  N 
ATOM     11 H    TRP D   3       8.236  -1.399  38.679  1.00 36.87 LIG 0.16  HD
BRANCH 10 12
ATOM     12  CA  TRP D   3       7.026  -0.266  39.801  1.00 37.56 LIG 0.19  C 
BRANCH 12 13
ATOM     13  C   TRP D   3       6.899   0.936  40.809  1.00 38.92 LIG 0.20  C 
ATOM     14 OXT  TRP D   3       7.857   1.281  41.578  1.00 41.38 LIG-0.65  OA
ATOM     15 O    TRP D   3       5.726   1.552  40.839  1.00 40.06 LIG-0.65  OA
ENDBRANCH 12 13
BRANCH 12 16
ATOM     16  CB  TRP D   3       6.400  -1.548  40.465  1.00 36.55 LIG 0.08  C 
BRANCH 16 17
ATOM     17  CG  TRP D   3       4.874  -1.597  40.278  1.00 35.48 LIG-0.03  A 
ATOM     18  CD1 TRP D   3       3.903  -1.384  41.262  1.00 37.13 LIG 0.10  A 
ATOM     19  NE1 TRP D   3       2.641  -1.525  40.716  1.00 40.71 LIG-0.36  N 
ATOM     20 HE1  TRP D   3       1.902  -1.442  41.147  1.00 40.71 LIG 0.17  HD
ATOM     21  CE2 TRP D   3       2.745  -1.820  39.373  1.00 36.12 LIG 0.04  A 
ATOM     22  CD2 TRP D   3       4.157  -1.877  39.053  1.00 33.28 LIG-0.00  A 
ATOM     23  CZ2 TRP D   3       1.719  -2.061  38.424  1.00 34.49 LIG 0.03  A 
ATOM     24  CE3 TRP D   3       4.560  -2.201  37.733  1.00 31.46 LIG 0.01  A 
ATOM     25  CZ3 TRP D   3       3.564  -2.426  36.763  1.00 32.66 LIG 0.00  A 
ATOM     26  CH2 TRP D   3       2.131  -2.362  37.122  1.00 36.62 LIG 0.00  A 
ENDBRANCH 16 17
ENDBRANCH 12 16
ENDBRANCH 10 12
ENDBRANCH 4 8
BRANCH 1 27
ATOM     27  CA  TRP D   1       9.749  -4.457  38.190  1.00 34.78 LIG 0.28  C 
BRANCH 27 28
ATOM     28  CB  TRP D   1      11.001  -5.326  38.366  1.00 34.63 LIG 0.08  C 
BRANCH 28 29
ATOM     29  CG  TRP D   1      11.062  -5.982  39.778  1.00 37.87 LIG-0.03  A 
ATOM     30  CD1 TRP D   1      10.274  -5.678  40.887  1.00 40.68 LIG 0.10  A 
ATOM     31  NE1 TRP D   1      10.600  -6.513  41.937  1.00 42.18 LIG-0.36  N 
ATOM     32 HE1  TRP D   1      10.239  -6.498  42.717  1.00 42.18 LIG 0.17  HD
ATOM     33  CE2 TRP D   1      11.604  -7.379  41.530  1.00 41.11 LIG 0.04  A 
ATOM     34  CD2 TRP D   1      11.920  -7.070  40.186  1.00 38.74 LIG-0.00  A 
ATOM     35  CZ2 TRP D   1      12.263  -8.422  42.250  1.00 41.13 LIG 0.03  A 
ATOM     36  CE3 TRP D   1      12.901  -7.845  39.530  1.00 40.52 LIG 0.01  A 
ATOM     37  CZ3 TRP D   1      13.560  -8.875  40.248  1.00 41.02 LIG 0.00  A 
ATOM     38  CH2 TRP D   1      13.225  -9.153  41.591  1.00 39.74 LIG 0.00  A 
ENDBRANCH 28 29
ENDBRANCH 27 28
BRANCH 27 39
ATOM     39  N   TRP D   1       9.517  -4.236  36.715  1.00 33.45 LIG-0.07  N 
ATOM     40 H3   TRP D   1       9.510  -3.363  36.543  1.00 33.45 LIG 0.28  HD
ATOM     41 H2   TRP D   1       8.734  -4.590  36.480  1.00 33.45 LIG 0.28  HD
ATOM     42 H1   TRP D   1      10.169  -4.624  36.250  1.00 33.45 LIG 0.28  HD
ENDBRANCH 27 39
ENDBRANCH 1 27
TORSDOF 9
ENDMDL
MODEL 4
USER: ADFR SOLUTION from run 46
USER: SCORE 16.106451 LL:  -2.503 LR: -13.604 RR:   0.000 FEB: -10.919
USER: RMSD 10.533345
USER: SEED 45
USER: STATUS no improvement in best 2 clusters for 5 generations
USER: GENES 11
USER: genes 0 Translation |==|  0.31848 0.74233 0.60986
USER: genes 1 Rotation |==|  0.79996 0.12578 0.40096 0.60087
USER: genes 2 Torsion [N]-CA--C-[O] |==|  0.51127
USER: genes 3 Torsion [C]-N--CA-[CB] |==|  0.75531
USER: genes 4 Torsion [N]-CA--C-[OXT] |==|  0.31572
USER: genes 5 Torsion [N]-CA--CB-[CG] |==|  0.72524
USER: genes 6 Torsion [CA]-CB--CG-[CD1] |==|  0.53630
USER: genes 7 Torsion [N]-C--CA-[N] |==|  0.41658
USER: genes 8 Torsion [C]-CA--CB-[CG] |==|  0.46708
USER: genes 9 Torsion [CA]-CB--CG-[CD1] |==|  0.16323
USER: genes 10 Torsion [C]-CA--N-[H2] |==|  0.53729
ROOT
ATOM      1  C   TRP D   1       7.454  -3.550  38.136  1.00 35.88 LIG 0.25  C 
ATOM      2 O    TRP D   1       7.574  -2.370  37.646  1.00 38.57 LIG-0.27  OA
ATOM      3  N   PRO D   2       6.535  -4.028  38.880  1.00 34.89 LIG-0.34  N 
ATOM      4  CA  PRO D   2       5.263  -3.331  39.262  1.00 35.03 LIG 0.18  C 
ATOM      5  CB  PRO D   2       4.601  -4.396  40.090  1.00 35.34 LIG 0.04  C 
ATOM      6  CG  PRO D   2       5.007  -5.661  39.329  1.00 35.42 LIG 0.02  C 
ATOM      7  CD  PRO D   2       6.299  -5.438  38.615  1.00 35.14 LIG 0.13  C 
ENDROOT
BRANCH 4 8
ATOM      8  C   PRO D   2       5.269  -1.968  39.942  1.00 35.70 LIG 0.24  C 
ATOM      9 O    PRO D   2       4.266  -1.392  40.337  1.00 34.88 LIG-0.27  OA
ATOM     10  N   TRP D   3       6.545  -1.537  40.026  1.00 36.87 LIG-0.34  N 
ATOM     11 H    TRP D   3       7.215  -2.065  39.912  1.00 36.87 LIG 0.16  HD
BRANCH 10 12
ATOM     12  CA  TRP D   3       6.963  -0.121  40.320  1.00 37.56 LIG 0.19  C 
BRANCH 12 13
ATOM     13  C   TRP D   3       6.297   0.792  41.416  1.00 38.92 LIG 0.20  C 
ATOM     14 OXT  TRP D   3       6.930   1.178  42.454  1.00 41.38 LIG-0.65  OA
ATOM     15 O    TRP D   3       5.026   1.113  41.216  1.00 40.06 LIG-0.65  OA
ENDBRANCH 12 13
BRANCH 12 16
ATOM     16  CB  TRP D   3       7.054   0.691  38.975  1.00 36.55 LIG 0.08  C 
BRANCH 16 17
ATOM     17  CG  TRP D   3       8.503   0.793  38.470  1.00 35.48 LIG-0.03  A 
ATOM     18  CD1 TRP D   3       8.981   1.641  37.465  1.00 37.13 LIG 0.10  A 
ATOM     19  NE1 TRP D   3      10.336   1.434  37.282  1.00 40.71 LIG-0.36  N 
ATOM     20 HE1  TRP D   3      10.827   1.847  36.710  1.00 40.71 LIG 0.17  HD
ATOM     21  CE2 TRP D   3      10.782   0.467  38.158  1.00 36.12 LIG 0.04  A 
ATOM     22  CD2 TRP D   3       9.640   0.030  38.934  1.00 33.28 LIG-0.00  A 
ATOM     23  CZ2 TRP D   3      12.086  -0.070  38.313  1.00 34.49 LIG 0.03  A 
ATOM     24  CE3 TRP D   3       9.806  -0.998  39.898  1.00 31.46 LIG 0.01  A 
ATOM     25  CZ3 TRP D   3      11.092  -1.538  40.090  1.00 32.66 LIG 0.00  A 
ATOM     26  CH2 TRP D   3      12.237  -1.070  39.280  1.00 36.62 LIG 0.00  A 
ENDBRANCH 16 17
ENDBRANCH 12 16
ENDBRANCH 10 12
ENDBRANCH 4 8
BRANCH 1 27
ATOM     27  CA  TRP D   1       8.647  -4.553  38.048  1.00 34.78 LIG 0.28  C 
BRANCH 27 28
ATOM     28  CB  TRP D   1       9.658  -4.336  39.181  1.00 34.63 LIG 0.08  C 
BRANCH 28 29
ATOM     29  CG  TRP D   1      10.685  -5.505  39.279  1.00 37.87 LIG-0.03  A 
ATOM     30  CD1 TRP D   1      11.561  -5.945  38.289  1.00 40.68 LIG 0.10  A 
ATOM     31  NE1 TRP D   1      12.343  -6.972  38.778  1.00 42.18 LIG-0.36  N 
ATOM     32 HE1  TRP D   1      12.949  -7.392  38.336  1.00 42.18 LIG 0.17  HD
ATOM     33  CE2 TRP D   1      11.993  -7.217  40.098  1.00 41.11 LIG 0.04  A 
ATOM     34  CD2 TRP D   1      10.954  -6.320  40.441  1.00 38.74 LIG-0.00  A 
ATOM     35  CZ2 TRP D   1      12.517  -8.170  41.024  1.00 41.13 LIG 0.03  A 
ATOM     36  CE3 TRP D   1      10.445  -6.351  41.756  1.00 40.52 LIG 0.01  A 
ATOM     37  CZ3 TRP D   1      10.961  -7.301  42.674  1.00 41.02 LIG 0.00  A 
ATOM     38  CH2 TRP D   1      11.994  -8.187  42.297  1.00 39.74 LIG 0.00  A 
ENDBRANCH 28 29
ENDBRANCH 27 28
BRANCH 27 39
ATOM     39  N   TRP D   1       9.369  -4.444  36.728  1.00 33.45 LIG-0.07  N 
ATOM     40 H3   TRP D   1       8.775  -4.427  36.065  1.00 33.45 LIG 0.28  HD
ATOM     41 H2   TRP D   1       9.908  -5.145  36.625  1.00 33.45 LIG 0.28  HD
ATOM     42 H1   TRP D   1       9.850  -3.696  36.713  1.00 33.45 LIG 0.28  HD
ENDBRANCH 27 39
ENDBRANCH 1 27
TORSDOF 9
ENDMDL
MODEL 5
USER: ADFR SOLUTION from run 43
USER: SCORE 15.187206 LL:  -1.672 LR: -13.515 RR:   0.000 FEB: -10.830
USER: RMSD 11.911439
USER: SEED 42
USER: STATUS no improvement in best 6 clusters for 5 generations
USER: GENES 11
USER: genes 0 Translation |==|  0.40424 0.70608 0.63510
USER: genes 1 Rotation |==|  0.91181 0.59612 0.26755 0.63092
USER: genes 2 Torsion [N]-CA--C-[O] |==|  0.00688
USER: genes 3 Torsion [C]-N--CA-[CB] |==|  0.76415
USER: genes 4 Torsion [N]-CA--C-[OXT] |==|  0.51942
USER: genes 5 Torsion [N]-CA--CB-[CG] |==|  0.84139
USER: genes 6 Torsion [CA]-CB--CG-[CD1] |==|  0.45439
USER: genes 7 Torsion [N]-C--CA-[N] |==|  0.30202
USER: genes 8 Torsion [C]-CA--CB-[CG] |==|  0.78918
USER: genes 9 Torsion [CA]-CB--CG-[CD1] |==|  0.03803
USER: genes 10 Torsion [C]-CA--N-[H2] |==|  0.97862
ROOT
ATOM      1  C   TRP D   1      10.027  -4.638  38.893  1.00 35.88 LIG 0.25  C 
ATOM      2 O    TRP D   1       9.087  -4.879  39.733  1.00 38.57 LIG-0.27  OA
ATOM      3  N   PRO D   2      11.066  -5.325  38.622  1.00 34.89 LIG-0.34  N 
ATOM      4  CA  PRO D   2      11.376  -6.695  39.148  1.00 35.03 LIG 0.18  C 
ATOM      5  CB  PRO D   2      12.677  -6.973  38.452  1.00 35.34 LIG 0.04  C 
ATOM      6  CG  PRO D   2      12.432  -6.320  37.090  1.00 35.42 LIG 0.02  C 
ATOM      7  CD  PRO D   2      11.450  -5.205  37.224  1.00 35.14 LIG 0.13  C 
ENDROOT
BRANCH 4 8
ATOM      8  C   PRO D   2      11.428  -6.987  40.643  1.00 35.70 LIG 0.24  C 
ATOM      9 O    PRO D   2      11.185  -6.164  41.514  1.00 34.88 LIG-0.27  OA
ATOM     10  N   TRP D   3      11.775  -8.280  40.814  1.00 36.87 LIG-0.34  N 
ATOM     11 H    TRP D   3      11.740  -8.852  40.173  1.00 36.87 LIG 0.16  HD
BRANCH 10 12
ATOM     12  CA  TRP D   3      12.256  -8.883  42.106  1.00 37.56 LIG 0.19  C 
BRANCH 12 13
ATOM     13  C   TRP D   3      11.578  -8.641  43.506  1.00 38.92 LIG 0.20  C 
ATOM     14 OXT  TRP D   3      12.094  -9.066  44.593  1.00 41.38 LIG-0.65  OA
ATOM     15 O    TRP D   3      10.418  -7.999  43.491  1.00 40.06 LIG-0.65  OA
ENDBRANCH 12 13
BRANCH 12 16
ATOM     16  CB  TRP D   3      13.806  -8.650  42.252  1.00 36.55 LIG 0.08  C 
BRANCH 16 17
ATOM     17  CG  TRP D   3      14.582  -9.235  41.060  1.00 35.48 LIG-0.03  A 
ATOM     18  CD1 TRP D   3      15.901  -8.944  40.696  1.00 37.13 LIG 0.10  A 
ATOM     19  NE1 TRP D   3      16.243  -9.655  39.561  1.00 40.71 LIG-0.36  N 
ATOM     20 HE1  TRP D   3      17.005  -9.619  39.165  1.00 40.71 LIG 0.17  HD
ATOM     21  CE2 TRP D   3      15.177 -10.432  39.159  1.00 36.12 LIG 0.04  A 
ATOM     22  CD2 TRP D   3      14.094 -10.191  40.090  1.00 33.28 LIG-0.00  A 
ATOM     23  CZ2 TRP D   3      15.072 -11.305  38.045  1.00 34.49 LIG 0.03  A 
ATOM     24  CE3 TRP D   3      12.848 -10.840  39.893  1.00 31.46 LIG 0.01  A 
ATOM     25  CZ3 TRP D   3      12.719 -11.728  38.808  1.00 32.66 LIG 0.00  A 
ATOM     26  CH2 TRP D   3      13.843 -11.951  37.874  1.00 36.62 LIG 0.00  A 
ENDBRANCH 16 17
ENDBRANCH 12 16
ENDBRANCH 10 12
ENDBRANCH 4 8
BRANCH 1 27
ATOM     27  CA  TRP D   1      10.120  -3.236  38.213  1.00 34.78 LIG 0.28  C 
BRANCH 27 28
ATOM     28  CB  TRP D   1       9.853  -2.101  39.209  1.00 34.63 LIG 0.08  C 
BRANCH 28 29
ATOM     29  CG  TRP D   1       8.337  -1.961  39.542  1.00 37.87 LIG-0.03  A 
ATOM     30  CD1 TRP D   1       7.322  -2.874  39.261  1.00 40.68 LIG 0.10  A 
ATOM     31  NE1 TRP D   1       6.121  -2.407  39.759  1.00 42.18 LIG-0.36  N 
ATOM     32 HE1  TRP D   1       5.365  -2.811  39.696  1.00 42.18 LIG 0.17  HD
ATOM     33  CE2 TRP D   1       6.333  -1.184  40.377  1.00 41.11 LIG 0.04  A 
ATOM     34  CD2 TRP D   1       7.708  -0.873  40.255  1.00 38.74 LIG-0.00  A 
ATOM     35  CZ2 TRP D   1       5.410  -0.320  41.042  1.00 41.13 LIG 0.03  A 
ATOM     36  CE3 TRP D   1       8.183   0.320  40.841  1.00 40.52 LIG 0.01  A 
ATOM     37  CZ3 TRP D   1       7.265   1.181  41.494  1.00 41.02 LIG 0.00  A 
ATOM     38  CH2 TRP D   1       5.898   0.843  41.593  1.00 39.74 LIG 0.00  A 
ENDBRANCH 28 29
ENDBRANCH 27 28
BRANCH 27 39
ATOM     39  N   TRP D   1       9.151  -3.110  37.064  1.00 33.45 LIG-0.07  N 
ATOM     40 H3   TRP D   1       8.521  -2.516  37.270  1.00 33.45 LIG 0.28  HD
ATOM     41 H2   TRP D   1       8.773  -3.900  36.905  1.00 33.45 LIG 0.28  HD
ATOM     42 H1   TRP D   1       9.586  -2.839  36.336  1.00 33.45 LIG 0.28  HD
ENDBRANCH 27 39
ENDBRANCH 1 27
TORSDOF 9
ENDMDL
MODEL 6
USER: ADFR SOLUTION from run 135
USER: SCORE 14.695772 LL:  -1.248 LR: -13.448 RR:   0.000 FEB: -10.763
USER: RMSD 12.051637
USER: SEED 134
USER: STATUS no improvement in best 24 clusters for 5 generations
USER: GENES 11
USER: genes 0 Translation |==|  0.40223 0.70983 0.62359
USER: genes 1 Rotation |==|  0.63358 0.62205 0.03400 0.51016
USER: genes 2 Torsion [N]-CA--C-[O] |==|  0.94353
USER: genes 3 Torsion [C]-N--CA-[CB] |==|  0.10414
USER: genes 4 Torsion [N]-CA--C-[OXT] |==|  0.90254
USER: genes 5 Torsion [N]-CA--CB-[CG] |==|  0.27137
USER: genes 6 Torsion [CA]-CB--CG-[CD1] |==|  0.34624
USER: genes 7 Torsion [N]-C--CA-[N] |==|  0.91456
USER: genes 8 Torsion [C]-CA--CB-[CG] |==|  0.37510
USER: genes 9 Torsion [CA]-CB--CG-[CD1] |==|  0.01686
USER: genes 10 Torsion [C]-CA--N-[H2] |==|  0.93886
ROOT
ATOM      1  C   TRP D   1       9.967  -4.525  38.548  1.00 35.88 LIG 0.25  C 
ATOM      2 O    TRP D   1      10.782  -4.719  39.521  1.00 38.57 LIG-0.27  OA
ATOM      3  N   PRO D   2       9.623  -5.317  37.610  1.00 34.89 LIG-0.34  N 
ATOM      4  CA  PRO D   2      10.005  -6.763  37.496  1.00 35.03 LIG 0.18  C 
ATOM      5  CB  PRO D   2       9.279  -7.145  36.238  1.00 35.34 LIG 0.04  C 
ATOM      6  CG  PRO D   2       7.992  -6.329  36.378  1.00 35.42 LIG 0.02  C 
ATOM      7  CD  PRO D   2       8.243  -5.109  37.199  1.00 35.14 LIG 0.13  C 
ENDROOT
BRANCH 4 8
ATOM      8  C   PRO D   2      11.462  -7.210  37.500  1.00 35.70 LIG 0.24  C 
ATOM      9 O    PRO D   2      12.407  -6.480  37.238  1.00 34.88 LIG-0.27  OA
ATOM     10  N   TRP D   3      11.507  -8.516  37.840  1.00 36.87 LIG-0.34  N 
ATOM     11 H    TRP D   3      10.838  -8.918  38.200  1.00 36.87 LIG 0.16  HD
BRANCH 10 12
ATOM     12  CA  TRP D   3      12.695  -9.420  37.644  1.00 37.56 LIG 0.19  C 
BRANCH 12 13
ATOM     13  C   TRP D   3      12.832 -10.856  38.274  1.00 38.92 LIG 0.20  C 
ATOM     14 OXT  TRP D   3      12.370 -11.137  39.430  1.00 41.38 LIG-0.65  OA
ATOM     15 O    TRP D   3      13.487 -11.752  37.549  1.00 40.06 LIG-0.65  OA
ENDBRANCH 12 13
BRANCH 12 16
ATOM     16  CB  TRP D   3      14.019  -8.618  37.924  1.00 36.55 LIG 0.08  C 
BRANCH 16 17
ATOM     17  CG  TRP D   3      14.540  -8.862  39.351  1.00 35.48 LIG-0.03  A 
ATOM     18  CD1 TRP D   3      15.811  -9.320  39.711  1.00 37.13 LIG 0.10  A 
ATOM     19  NE1 TRP D   3      15.900  -9.426  41.086  1.00 40.71 LIG-0.36  N 
ATOM     20 HE1  TRP D   3      16.593  -9.695  41.519  1.00 40.71 LIG 0.17  HD
ATOM     21  CE2 TRP D   3      14.710  -9.035  41.662  1.00 36.12 LIG 0.04  A 
ATOM     22  CD2 TRP D   3      13.812  -8.668  40.586  1.00 33.28 LIG-0.00  A 
ATOM     23  CZ2 TRP D   3      14.345  -8.995  43.032  1.00 34.49 LIG 0.03  A 
ATOM     24  CE3 TRP D   3      12.490  -8.255  40.891  1.00 31.46 LIG 0.01  A 
ATOM     25  CZ3 TRP D   3      12.104  -8.187  42.244  1.00 32.66 LIG 0.00  A 
ATOM     26  CH2 TRP D   3      13.044  -8.570  43.319  1.00 36.62 LIG 0.00  A 
ENDBRANCH 16 17
ENDBRANCH 12 16
ENDBRANCH 10 12
ENDBRANCH 4 8
BRANCH 1 27
ATOM     27  CA  TRP D   1       9.433  -3.088  38.256  1.00 34.78 LIG 0.28  C 
BRANCH 27 28
ATOM     28  CB  TRP D   1       8.048  -2.858  38.876  1.00 34.63 LIG 0.08  C 
BRANCH 28 29
ATOM     29  CG  TRP D   1       7.953  -1.481  39.599  1.00 37.87 LIG-0.03  A 
ATOM     30  CD1 TRP D   1       8.911  -0.468  39.618  1.00 40.68 LIG 0.10  A 
ATOM     31  NE1 TRP D   1       8.432   0.615  40.328  1.00 42.18 LIG-0.36  N 
ATOM     32 HE1  TRP D   1       8.859   1.349  40.466  1.00 42.18 LIG 0.17  HD
ATOM     33  CE2 TRP D   1       7.153   0.330  40.780  1.00 41.11 LIG 0.04  A 
ATOM     34  CD2 TRP D   1       6.825  -0.976  40.346  1.00 38.74 LIG-0.00  A 
ATOM     35  CZ2 TRP D   1       6.251   1.130  41.545  1.00 41.13 LIG 0.03  A 
ATOM     36  CE3 TRP D   1       5.547  -1.487  40.657  1.00 40.52 LIG 0.01  A 
ATOM     37  CZ3 TRP D   1       4.654  -0.695  41.422  1.00 41.02 LIG 0.00  A 
ATOM     38  CH2 TRP D   1       5.016   0.603  41.845  1.00 39.74 LIG 0.00  A 
ENDBRANCH 28 29
ENDBRANCH 27 28
BRANCH 27 39
ATOM     39  N   TRP D   1       9.352  -2.814  36.775  1.00 33.45 LIG-0.07  N 
ATOM     40 H3   TRP D   1       8.517  -2.944  36.494  1.00 33.45 LIG 0.28  HD
ATOM     41 H2   TRP D   1       9.900  -3.365  36.340  1.00 33.45 LIG 0.28  HD
ATOM     42 H1   TRP D   1       9.590  -1.972  36.615  1.00 33.45 LIG 0.28  HD
ENDBRANCH 27 39
ENDBRANCH 1 27
TORSDOF 9
ENDMDL
MODEL 7
USER: ADFR SOLUTION from run 38
USER: SCORE 15.700616 LL:  -2.300 LR: -13.400 RR:   0.000 FEB: -10.715
USER: RMSD 10.411820
USER: SEED 37
USER: STATUS no improvement in best 10 clusters for 5 generations
USER: GENES 11
USER: genes 0 Translation |==|  0.39762 0.75763 0.63735
USER: genes 1 Rotation |==|  0.47706 0.68980 0.45563 0.95987
USER: genes 2 Torsion [N]-CA--C-[O] |==|  0.49350
USER: genes 3 Torsion [C]-N--CA-[CB] |==|  0.57049
USER: genes 4 Torsion [N]-CA--C-[OXT] |==|  0.91649
USER: genes 5 Torsion [N]-CA--CB-[CG] |==|  0.87711
USER: genes 6 Torsion [CA]-CB--CG-[CD1] |==|  0.85241
USER: genes 7 Torsion [N]-C--CA-[N] |==|  0.91320
USER: genes 8 Torsion [C]-CA--CB-[CG] |==|  0.21246
USER: genes 9 Torsion [CA]-CB--CG-[CD1] |==|  0.96446
USER: genes 10 Torsion [C]-CA--N-[H2] |==|  0.33424
ROOT
ATOM      1  C   TRP D   1       9.829  -3.091  38.960  1.00 35.88 LIG 0.25  C 
ATOM      2 O    TRP D   1       9.261  -2.966  40.105  1.00 38.57 LIG-0.27  OA
ATOM      3  N   PRO D   2      10.341  -2.197  38.209  1.00 34.89 LIG-0.34  N 
ATOM      4  CA  PRO D   2      10.522  -0.751  38.562  1.00 35.03 LIG 0.18  C 
ATOM      5  CB  PRO D   2      11.195  -0.243  37.319  1.00 35.34 LIG 0.04  C 
ATOM      6  CG  PRO D   2      12.086  -1.433  36.954  1.00 35.42 LIG 0.02  C 
ATOM      7  CD  PRO D   2      11.484  -2.700  37.465  1.00 35.14 LIG 0.13  C 
ENDROOT
BRANCH 4 8
ATOM      8  C   PRO D   2       9.352   0.121  39.003  1.00 35.70 LIG 0.24  C 
ATOM      9 O    PRO D   2       9.455   1.291  39.340  1.00 34.88 LIG-0.27  OA
ATOM     10  N   TRP D   3       8.224  -0.618  38.946  1.00 36.87 LIG-0.34  N 
ATOM     11 H    TRP D   3       8.187  -1.364  38.520  1.00 36.87 LIG 0.16  HD
BRANCH 10 12
ATOM     12  CA  TRP D   3       6.919  -0.254  39.601  1.00 37.56 LIG 0.19  C 
BRANCH 12 13
ATOM     13  C   TRP D   3       6.783   0.702  40.843  1.00 38.92 LIG 0.20  C 
ATOM     14 OXT  TRP D   3       7.701   0.805  41.724  1.00 41.38 LIG-0.65  OA
ATOM     15 O    TRP D   3       5.644   1.373  40.943  1.00 40.06 LIG-0.65  OA
ENDBRANCH 12 13
BRANCH 12 16
ATOM     16  CB  TRP D   3       6.086  -1.561  39.878  1.00 36.55 LIG 0.08  C 
BRANCH 16 17
ATOM     17  CG  TRP D   3       6.109  -2.516  38.673  1.00 35.48 LIG-0.03  A 
ATOM     18  CD1 TRP D   3       5.775  -2.204  37.351  1.00 37.13 LIG 0.10  A 
ATOM     19  NE1 TRP D   3       5.906  -3.328  36.556  1.00 40.71 LIG-0.36  N 
ATOM     20 HE1  TRP D   3       5.744  -3.359  35.713  1.00 40.71 LIG 0.17  HD
ATOM     21  CE2 TRP D   3       6.335  -4.392  37.321  1.00 36.12 LIG 0.04  A 
ATOM     22  CD2 TRP D   3       6.476  -3.916  38.681  1.00 33.28 LIG-0.00  A 
ATOM     23  CZ2 TRP D   3       6.588  -5.732  36.931  1.00 34.49 LIG 0.03  A 
ATOM     24  CE3 TRP D   3       6.875  -4.820  39.698  1.00 31.46 LIG 0.01  A 
ATOM     25  CZ3 TRP D   3       7.153  -6.153  39.340  1.00 32.66 LIG 0.00  A 
ATOM     26  CH2 TRP D   3       6.998  -6.609  37.941  1.00 36.62 LIG 0.00  A 
ENDBRANCH 16 17
ENDBRANCH 12 16
ENDBRANCH 10 12
ENDBRANCH 4 8
BRANCH 1 27
ATOM     27  CA  TRP D   1       9.744  -4.448  38.196  1.00 34.78 LIG 0.28  C 
BRANCH 27 28
ATOM     28  CB  TRP D   1      11.005  -5.299  38.404  1.00 34.63 LIG 0.08  C 
BRANCH 28 29
ATOM     29  CG  TRP D   1      11.025  -5.979  39.806  1.00 37.87 LIG-0.03  A 
ATOM     30  CD1 TRP D   1      10.201  -5.697  40.894  1.00 40.68 LIG 0.10  A 
ATOM     31  NE1 TRP D   1      10.498  -6.549  41.939  1.00 42.18 LIG-0.36  N 
ATOM     32 HE1  TRP D   1      10.112  -6.549  42.708  1.00 42.18 LIG 0.17  HD
ATOM     33  CE2 TRP D   1      11.519  -7.403  41.550  1.00 41.11 LIG 0.04  A 
ATOM     34  CD2 TRP D   1      11.876  -7.070  40.222  1.00 38.74 LIG-0.00  A 
ATOM     35  CZ2 TRP D   1      12.161  -8.455  42.272  1.00 41.13 LIG 0.03  A 
ATOM     36  CE3 TRP D   1      12.880  -7.829  39.584  1.00 40.52 LIG 0.01  A 
ATOM     37  CZ3 TRP D   1      13.521  -8.868  40.304  1.00 41.02 LIG 0.00  A 
ATOM     38  CH2 TRP D   1      13.146  -9.171  41.631  1.00 39.74 LIG 0.00  A 
ENDBRANCH 28 29
ENDBRANCH 27 28
BRANCH 27 39
ATOM     39  N   TRP D   1       9.540  -4.241  36.715  1.00 33.45 LIG-0.07  N 
ATOM     40 H3   TRP D   1       8.775  -4.621  36.465  1.00 33.45 LIG 0.28  HD
ATOM     41 H2   TRP D   1      10.215  -4.609  36.267  1.00 33.45 LIG 0.28  HD
ATOM     42 H1   TRP D   1       9.508  -3.369  36.539  1.00 33.45 LIG 0.28  HD
ENDBRANCH 27 39
ENDBRANCH 1 27
TORSDOF 9
ENDMDL
MODEL 8
USER: ADFR SOLUTION from run 80
USER: SCORE 14.221238 LL:  -0.861 LR: -13.360 RR:   0.000 FEB: -10.676
USER: RMSD 12.508175
USER: SEED 79
USER: STATUS no improvement in best 6 clusters for 5 generations
USER: GENES 11
USER: genes 0 Translation |==|  0.39685 0.73348 0.62808
USER: genes 1 Rotation |==|  0.62036 0.59812 0.02687 0.54512
USER: genes 2 Torsion [N]-CA--C-[O] |==|  0.89159
USER: genes 3 Torsion [C]-N--CA-[CB] |==|  0.53061
USER: genes 4 Torsion [N]-CA--C-[OXT] |==|  0.57891
USER: genes 5 Torsion [N]-CA--CB-[CG] |==|  0.75319
USER: genes 6 Torsion [CA]-CB--CG-[CD1] |==|  0.28509
USER: genes 7 Torsion [N]-C--CA-[N] |==|  0.91197
USER: genes 8 Torsion [C]-CA--CB-[CG] |==|  0.33036
USER: genes 9 Torsion [CA]-CB--CG-[CD1] |==|  0.02869
USER: genes 10 Torsion [C]-CA--N-[H2] |==|  0.94023
ROOT
ATOM      1  C   TRP D   1       9.805  -3.816  38.682  1.00 35.88 LIG 0.25  C 
ATOM      2 O    TRP D   1      10.650  -3.781  39.649  1.00 38.57 LIG-0.27  OA
ATOM      3  N   PRO D   2       9.545  -4.762  37.868  1.00 34.89 LIG-0.34  N 
ATOM      4  CA  PRO D   2      10.094  -6.156  37.937  1.00 35.03 LIG 0.18  C 
ATOM      5  CB  PRO D   2       9.402  -6.786  36.762  1.00 35.34 LIG 0.04  C 
ATOM      6  CG  PRO D   2       8.029  -6.112  36.829  1.00 35.42 LIG 0.02  C 
ATOM      7  CD  PRO D   2       8.146  -4.772  37.473  1.00 35.14 LIG 0.13  C 
ENDROOT
BRANCH 4 8
ATOM      8  C   PRO D   2      11.594  -6.428  37.958  1.00 35.70 LIG 0.24  C 
ATOM      9 O    PRO D   2      12.414  -5.809  37.297  1.00 34.88 LIG-0.27  OA
ATOM     10  N   TRP D   3      11.832  -7.440  38.818  1.00 36.87 LIG-0.34  N 
ATOM     11 H    TRP D   3      11.247  -7.700  39.393  1.00 36.87 LIG 0.16  HD
BRANCH 10 12
ATOM     12  CA  TRP D   3      13.110  -8.232  38.889  1.00 37.56 LIG 0.19  C 
BRANCH 12 13
ATOM     13  C   TRP D   3      13.960  -8.662  37.635  1.00 38.92 LIG 0.20  C 
ATOM     14 OXT  TRP D   3      14.685  -9.712  37.634  1.00 41.38 LIG-0.65  OA
ATOM     15 O    TRP D   3      13.907  -7.851  36.588  1.00 40.06 LIG-0.65  OA
ENDBRANCH 12 13
BRANCH 12 16
ATOM     16  CB  TRP D   3      12.900  -9.491  39.810  1.00 36.55 LIG 0.08  C 
BRANCH 16 17
ATOM     17  CG  TRP D   3      13.207  -9.174  41.283  1.00 35.48 LIG-0.03  A 
ATOM     18  CD1 TRP D   3      12.275  -8.945  42.302  1.00 37.13 LIG 0.10  A 
ATOM     19  NE1 TRP D   3      12.932  -8.680  43.488  1.00 40.71 LIG-0.36  N 
ATOM     20 HE1  TRP D   3      12.550  -8.505  44.238  1.00 40.71 LIG 0.17  HD
ATOM     21  CE2 TRP D   3      14.295  -8.738  43.289  1.00 36.12 LIG 0.04  A 
ATOM     22  CD2 TRP D   3      14.513  -9.050  41.892  1.00 33.28 LIG-0.00  A 
ATOM     23  CZ2 TRP D   3      15.348  -8.521  44.215  1.00 34.49 LIG 0.03  A 
ATOM     24  CE3 TRP D   3      15.839  -9.136  41.395  1.00 31.46 LIG 0.01  A 
ATOM     25  CZ3 TRP D   3      16.906  -8.945  42.294  1.00 32.66 LIG 0.00  A 
ATOM     26  CH2 TRP D   3      16.650  -8.626  43.715  1.00 36.62 LIG 0.00  A 
ENDBRANCH 16 17
ENDBRANCH 12 16
ENDBRANCH 10 12
ENDBRANCH 4 8
BRANCH 1 27
ATOM     27  CA  TRP D   1       9.102  -2.502  38.218  1.00 34.78 LIG 0.28  C 
BRANCH 27 28
ATOM     28  CB  TRP D   1       7.699  -2.363  38.823  1.00 34.63 LIG 0.08  C 
BRANCH 28 29
ATOM     29  CG  TRP D   1       7.570  -1.090  39.712  1.00 37.87 LIG-0.03  A 
ATOM     30  CD1 TRP D   1       8.480  -0.040  39.823  1.00 40.68 LIG 0.10  A 
ATOM     31  NE1 TRP D   1       7.981   0.925  40.675  1.00 42.18 LIG-0.36  N 
ATOM     32 HE1  TRP D   1       8.380   1.656  40.888  1.00 42.18 LIG 0.17  HD
ATOM     33  CE2 TRP D   1       6.735   0.523  41.131  1.00 41.11 LIG 0.04  A 
ATOM     34  CD2 TRP D   1       6.449  -0.736  40.552  1.00 38.74 LIG-0.00  A 
ATOM     35  CZ2 TRP D   1       5.827   1.180  42.018  1.00 41.13 LIG 0.03  A 
ATOM     36  CE3 TRP D   1       5.209  -1.343  40.840  1.00 40.52 LIG 0.01  A 
ATOM     37  CZ3 TRP D   1       4.311  -0.694  41.725  1.00 41.02 LIG 0.00  A 
ATOM     38  CH2 TRP D   1       4.630   0.559  42.292  1.00 39.74 LIG 0.00  A 
ENDBRANCH 28 29
ENDBRANCH 27 28
BRANCH 27 39
ATOM     39  N   TRP D   1       8.990  -2.433  36.715  1.00 33.45 LIG-0.07  N 
ATOM     40 H3   TRP D   1       8.176  -2.690  36.466  1.00 33.45 LIG 0.28  HD
ATOM     41 H2   TRP D   1       9.597  -2.970  36.346  1.00 33.45 LIG 0.28  HD
ATOM     42 H1   TRP D   1       9.132  -1.597  36.445  1.00 33.45 LIG 0.28  HD
ENDBRANCH 27 39
ENDBRANCH 1 27
TORSDOF 9
ENDMDL
MODEL 9
USER: ADFR SOLUTION from run 108
USER: SCORE 14.585838 LL:  -1.233 LR: -13.353 RR:   0.000 FEB: -10.668
USER: RMSD 10.916907
USER: SEED 107
USER: STATUS no improvement in best 7 clusters for 5 generations
USER: GENES 11
USER: genes 0 Translation |==|  0.42283 0.72939 0.62340
USER: genes 1 Rotation |==|  0.45531 0.73778 0.49724 0.93755
USER: genes 2 Torsion [N]-CA--C-[O] |==|  0.40156
USER: genes 3 Torsion [C]-N--CA-[CB] |==|  0.14717
USER: genes 4 Torsion [N]-CA--C-[OXT] |==|  0.71721
USER: genes 5 Torsion [N]-CA--CB-[CG] |==|  0.68215
USER: genes 6 Torsion [CA]-CB--CG-[CD1] |==|  0.29874
USER: genes 7 Torsion [N]-C--CA-[N] |==|  0.89965
USER: genes 8 Torsion [C]-CA--CB-[CG] |==|  0.27952
USER: genes 9 Torsion [CA]-CB--CG-[CD1] |==|  0.42271
USER: genes 10 Torsion [C]-CA--N-[H2] |==|  0.96845
ROOT
ATOM      1  C   TRP D   1      10.585  -3.938  38.542  1.00 35.88 LIG 0.25  C 
ATOM      2 O    TRP D   1      10.274  -3.884  39.787  1.00 38.57 LIG-0.27  OA
ATOM      3  N   PRO D   2      10.758  -2.989  37.709  1.00 34.89 LIG-0.34  N 
ATOM      4  CA  PRO D   2      10.768  -1.525  38.034  1.00 35.03 LIG 0.18  C 
ATOM      5  CB  PRO D   2      11.052  -0.940  36.680  1.00 35.34 LIG 0.04  C 
ATOM      6  CG  PRO D   2      12.025  -1.973  36.107  1.00 35.42 LIG 0.02  C 
ATOM      7  CD  PRO D   2      11.775  -3.310  36.720  1.00 35.14 LIG 0.13  C 
ENDROOT
BRANCH 4 8
ATOM      8  C   PRO D   2       9.597  -0.851  38.739  1.00 35.70 LIG 0.24  C 
ATOM      9 O    PRO D   2       9.711   0.055  39.551  1.00 34.88 LIG-0.27  OA
ATOM     10  N   TRP D   3       8.453  -1.423  38.307  1.00 36.87 LIG-0.34  N 
ATOM     11 H    TRP D   3       8.424  -1.912  37.600  1.00 36.87 LIG 0.16  HD
BRANCH 10 12
ATOM     12  CA  TRP D   3       7.113  -1.290  38.979  1.00 37.56 LIG 0.19  C 
BRANCH 12 13
ATOM     13  C   TRP D   3       5.806  -2.033  38.510  1.00 38.92 LIG 0.20  C 
ATOM     14 OXT  TRP D   3       4.894  -1.445  37.840  1.00 41.38 LIG-0.65  OA
ATOM     15 O    TRP D   3       5.690  -3.301  38.881  1.00 40.06 LIG-0.65  OA
ENDBRANCH 12 13
BRANCH 12 16
ATOM     16  CB  TRP D   3       6.777   0.233  39.188  1.00 36.55 LIG 0.08  C 
BRANCH 16 17
ATOM     17  CG  TRP D   3       6.722   0.603  40.680  1.00 35.48 LIG-0.03  A 
ATOM     18  CD1 TRP D   3       7.663   1.356  41.391  1.00 37.13 LIG 0.10  A 
ATOM     19  NE1 TRP D   3       7.275   1.465  42.713  1.00 40.71 LIG-0.36  N 
ATOM     20 HE1  TRP D   3       7.713   1.881  43.325  1.00 40.71 LIG 0.17  HD
ATOM     21  CE2 TRP D   3       6.080   0.805  42.904  1.00 36.12 LIG 0.04  A 
ATOM     22  CD2 TRP D   3       5.693   0.238  41.628  1.00 33.28 LIG-0.00  A 
ATOM     23  CZ2 TRP D   3       5.323   0.644  44.093  1.00 34.49 LIG 0.03  A 
ATOM     24  CE3 TRP D   3       4.506  -0.533  41.540  1.00 31.46 LIG 0.01  A 
ATOM     25  CZ3 TRP D   3       3.722  -0.695  42.698  1.00 32.66 LIG 0.00  A 
ATOM     26  CH2 TRP D   3       4.146  -0.105  43.987  1.00 36.62 LIG 0.00  A 
ENDBRANCH 16 17
ENDBRANCH 12 16
ENDBRANCH 10 12
ENDBRANCH 4 8
BRANCH 1 27
ATOM     27  CA  TRP D   1      10.561  -5.308  37.795  1.00 34.78 LIG 0.28  C 
BRANCH 27 28
ATOM     28  CB  TRP D   1      11.974  -5.873  37.597  1.00 34.63 LIG 0.08  C 
BRANCH 28 29
ATOM     29  CG  TRP D   1      12.313  -6.978  38.642  1.00 37.87 LIG-0.03  A 
ATOM     30  CD1 TRP D   1      13.195  -8.046  38.487  1.00 40.68 LIG 0.10  A 
ATOM     31  NE1 TRP D   1      13.257  -8.776  39.658  1.00 42.18 LIG-0.36  N 
ATOM     32 HE1  TRP D   1      13.737  -9.478  39.784  1.00 42.18 LIG 0.17  HD
ATOM     33  CE2 TRP D   1      12.419  -8.194  40.598  1.00 41.11 LIG 0.04  A 
ATOM     34  CD2 TRP D   1      11.809  -7.070  39.993  1.00 38.74 LIG-0.00  A 
ATOM     35  CZ2 TRP D   1      12.150  -8.576  41.948  1.00 41.13 LIG 0.03  A 
ATOM     36  CE3 TRP D   1      10.929  -6.284  40.766  1.00 40.52 LIG 0.01  A 
ATOM     37  CZ3 TRP D   1      10.657  -6.667  42.104  1.00 41.02 LIG 0.00  A 
ATOM     38  CH2 TRP D   1      11.278  -7.799  42.676  1.00 39.74 LIG 0.00  A 
ENDBRANCH 28 29
ENDBRANCH 27 28
BRANCH 27 39
ATOM     39  N   TRP D   1       9.892  -5.195  36.447  1.00 33.45 LIG-0.07  N 
ATOM     40 H3   TRP D   1      10.504  -5.264  35.805  1.00 33.45 LIG 0.28  HD
ATOM     41 H2   TRP D   1       9.483  -4.407  36.383  1.00 33.45 LIG 0.28  HD
ATOM     42 H1   TRP D   1       9.294  -5.847  36.357  1.00 33.45 LIG 0.28  HD
ENDBRANCH 27 39
ENDBRANCH 1 27
TORSDOF 9
ENDMDL
MODEL 10
USER: ADFR SOLUTION from run 152
USER: SCORE 15.346097 LL:  -2.028 LR: -13.318 RR:   0.000 FEB: -10.634
USER: RMSD 10.511389
USER: SEED 151
USER: STATUS no improvement in best 5 clusters for 5 generations
USER: GENES 11
USER: genes 0 Translation |==|  0.52900 0.66475 0.46812
USER: genes 1 Rotation |==|  0.94659 0.69387 0.48069 0.61226
USER: genes 2 Torsion [N]-CA--C-[O] |==|  0.51176
USER: genes 3 Torsion [C]-N--CA-[CB] |==|  0.34852
USER: genes 4 Torsion [N]-CA--C-[OXT] |==|  0.62294
USER: genes 5 Torsion [N]-CA--CB-[CG] |==|  0.74821
USER: genes 6 Torsion [CA]-CB--CG-[CD1] |==|  0.06772
USER: genes 7 Torsion [N]-C--CA-[N] |==|  0.43948
USER: genes 8 Torsion [C]-CA--CB-[CG] |==|  0.47868
USER: genes 9 Torsion [CA]-CB--CG-[CD1] |==|  0.94552
USER: genes 10 Torsion [C]-CA--N-[H2] |==|  0.36115
ROOT
ATOM      1  C   TRP D   1      13.770  -5.878  33.883  1.00 35.88 LIG 0.25  C 
ATOM      2 O    TRP D   1      12.883  -6.798  33.763  1.00 38.57 LIG-0.27  OA
ATOM      3  N   PRO D   2      14.990  -5.971  34.245  1.00 34.89 LIG-0.34  N 
ATOM      4  CA  PRO D   2      15.735  -7.248  34.496  1.00 35.03 LIG 0.18  C 
ATOM      5  CB  PRO D   2      17.096  -6.712  34.840  1.00 35.34 LIG 0.04  C 
ATOM      6  CG  PRO D   2      17.196  -5.519  33.886  1.00 35.42 LIG 0.02  C 
ATOM      7  CD  PRO D   2      15.834  -4.998  33.571  1.00 35.14 LIG 0.13  C 
ENDROOT
BRANCH 4 8
ATOM      8  C   PRO D   2      15.236  -8.286  35.495  1.00 35.70 LIG 0.24  C 
ATOM      9 O    PRO D   2      15.843  -9.304  35.790  1.00 34.88 LIG-0.27  OA
ATOM     10  N   TRP D   3      14.043  -7.876  35.975  1.00 36.87 LIG-0.34  N 
ATOM     11 H    TRP D   3      13.764  -7.069  35.881  1.00 36.87 LIG 0.16  HD
BRANCH 10 12
ATOM     12  CA  TRP D   3      13.066  -8.747  36.718  1.00 37.56 LIG 0.19  C 
BRANCH 12 13
ATOM     13  C   TRP D   3      11.748  -9.339  36.092  1.00 38.92 LIG 0.20  C 
ATOM     14 OXT  TRP D   3      10.634  -9.324  36.715  1.00 41.38 LIG-0.65  OA
ATOM     15 O    TRP D   3      11.867  -9.887  34.891  1.00 40.06 LIG-0.65  OA
ENDBRANCH 12 13
BRANCH 12 16
ATOM     16  CB  TRP D   3      12.711  -8.080  38.099  1.00 36.55 LIG 0.08  C 
BRANCH 16 17
ATOM     17  CG  TRP D   3      13.660  -8.548  39.216  1.00 35.48 LIG-0.03  A 
ATOM     18  CD1 TRP D   3      14.960  -9.039  39.058  1.00 37.13 LIG 0.10  A 
ATOM     19  NE1 TRP D   3      15.490  -9.369  40.292  1.00 40.71 LIG-0.36  N 
ATOM     20 HE1  TRP D   3      16.275  -9.695  40.422  1.00 40.71 LIG 0.17  HD
ATOM     21  CE2 TRP D   3      14.571  -9.096  41.282  1.00 36.12 LIG 0.04  A 
ATOM     22  CD2 TRP D   3      13.386  -8.571  40.636  1.00 33.28 LIG-0.00  A 
ATOM     23  CZ2 TRP D   3      14.677  -9.288  42.684  1.00 34.49 LIG 0.03  A 
ATOM     24  CE3 TRP D   3      12.254  -8.235  41.422  1.00 31.46 LIG 0.01  A 
ATOM     25  CZ3 TRP D   3      12.336  -8.395  42.819  1.00 32.66 LIG 0.00  A 
ATOM     26  CH2 TRP D   3      13.560  -8.936  43.448  1.00 36.62 LIG 0.00  A 
ENDBRANCH 16 17
ENDBRANCH 12 16
ENDBRANCH 10 12
ENDBRANCH 4 8
BRANCH 1 27
ATOM     27  CA  TRP D   1      13.349  -4.377  33.809  1.00 34.78 LIG 0.28  C 
BRANCH 27 28
ATOM     28  CB  TRP D   1      13.026  -3.806  35.196  1.00 34.63 LIG 0.08  C 
BRANCH 28 29
ATOM     29  CG  TRP D   1      12.792  -2.266  35.154  1.00 37.87 LIG-0.03  A 
ATOM     30  CD1 TRP D   1      13.200  -1.376  34.162  1.00 40.68 LIG 0.10  A 
ATOM     31  NE1 TRP D   1      12.759  -0.103  34.465  1.00 42.18 LIG-0.36  N 
ATOM     32 HE1  TRP D   1      12.900   0.600  33.990  1.00 42.18 LIG 0.17  HD
ATOM     33  CE2 TRP D   1      12.052  -0.142  35.657  1.00 41.11 LIG 0.04  A 
ATOM     34  CD2 TRP D   1      12.058  -1.480  36.118  1.00 38.74 LIG-0.00  A 
ATOM     35  CZ2 TRP D   1      11.400   0.910  36.372  1.00 41.13 LIG 0.03  A 
ATOM     36  CE3 TRP D   1      11.366  -1.785  37.309  1.00 40.52 LIG 0.01  A 
ATOM     37  CZ3 TRP D   1      10.726  -0.740  38.022  1.00 41.02 LIG 0.00  A 
ATOM     38  CH2 TRP D   1      10.744   0.587  37.538  1.00 39.74 LIG 0.00  A 
ENDBRANCH 28 29
ENDBRANCH 27 28
BRANCH 27 39
ATOM     39  N   TRP D   1      12.150  -4.180  32.914  1.00 33.45 LIG-0.07  N 
ATOM     40 H3   TRP D   1      12.400  -3.756  32.172  1.00 33.45 LIG 0.28  HD
ATOM     41 H2   TRP D   1      11.537  -3.695  33.340  1.00 33.45 LIG 0.28  HD
ATOM     42 H1   TRP D   1      11.805  -4.972  32.700  1.00 33.45 LIG 0.28  HD
ENDBRANCH 27 39
ENDBRANCH 1 27
TORSDOF 9
ENDMDL
MODEL 11
USER: ADFR SOLUTION from run 103
USER: SCORE 14.463851 LL:  -1.242 LR: -13.222 RR:   0.000 FEB: -10.537
USER: RMSD 10.906871
USER: SEED 102
USER: STATUS no improvement in best 10 clusters for 5 generations
USER: GENES 11
USER: genes 0 Translation |==|  0.39927 0.70609 0.61494
USER: genes 1 Rotation |==|  0.53289 0.67991 0.04255 0.58541
USER: genes 2 Torsion [N]-CA--C-[O] |==|  0.36185
USER: genes 3 Torsion [C]-N--CA-[CB] |==|  0.29038
USER: genes 4 Torsion [N]-CA--C-[OXT] |==|  0.62252
USER: genes 5 Torsion [N]-CA--CB-[CG] |==|  0.61655
USER: genes 6 Torsion [CA]-CB--CG-[CD1] |==|  0.06268
USER: genes 7 Torsion [N]-C--CA-[N] |==|  0.90300
USER: genes 8 Torsion [C]-CA--CB-[CG] |==|  0.45460
USER: genes 9 Torsion [CA]-CB--CG-[CD1] |==|  0.41152
USER: genes 10 Torsion [C]-CA--N-[H2] |==|  0.92612
ROOT
ATOM      1  C   TRP D   1       9.878  -4.637  38.288  1.00 35.88 LIG 0.25  C 
ATOM      2 O    TRP D   1      10.963  -4.512  38.962  1.00 38.57 LIG-0.27  OA
ATOM      3  N   PRO D   2       9.606  -5.438  37.333  1.00 34.89 LIG-0.34  N 
ATOM      4  CA  PRO D   2      10.484  -6.552  36.845  1.00 35.03 LIG 0.18  C 
ATOM      5  CB  PRO D   2       9.617  -7.135  35.765  1.00 35.34 LIG 0.04  C 
ATOM      6  CG  PRO D   2       8.226  -6.987  36.387  1.00 35.42 LIG 0.02  C 
ATOM      7  CD  PRO D   2       8.209  -5.838  37.339  1.00 35.14 LIG 0.13  C 
ENDROOT
BRANCH 4 8
ATOM      8  C   PRO D   2      11.916  -6.304  36.388  1.00 35.70 LIG 0.24  C 
ATOM      9 O    PRO D   2      12.882  -6.947  36.772  1.00 34.88 LIG-0.27  OA
ATOM     10  N   TRP D   3      11.912  -5.281  35.508  1.00 36.87 LIG-0.34  N 
ATOM     11 H    TRP D   3      11.190  -5.002  35.132  1.00 36.87 LIG 0.16  HD
BRANCH 10 12
ATOM     12  CA  TRP D   3      13.129  -4.509  35.074  1.00 37.56 LIG 0.19  C 
BRANCH 12 13
ATOM     13  C   TRP D   3      13.275  -2.945  35.182  1.00 38.92 LIG 0.20  C 
ATOM     14 OXT  TRP D   3      13.756  -2.241  34.233  1.00 41.38 LIG-0.65  OA
ATOM     15 O    TRP D   3      12.900  -2.401  36.331  1.00 40.06 LIG-0.65  OA
ENDBRANCH 12 13
BRANCH 12 16
ATOM     16  CB  TRP D   3      13.546  -4.954  33.623  1.00 36.55 LIG 0.08  C 
BRANCH 16 17
ATOM     17  CG  TRP D   3      15.071  -5.108  33.492  1.00 35.48 LIG-0.03  A 
ATOM     18  CD1 TRP D   3      15.982  -5.330  34.531  1.00 37.13 LIG 0.10  A 
ATOM     19  NE1 TRP D   3      17.266  -5.399  34.022  1.00 40.71 LIG-0.36  N 
ATOM     20 HE1  TRP D   3      17.977  -5.524  34.489  1.00 40.71 LIG 0.17  HD
ATOM     21  CE2 TRP D   3      17.234  -5.238  32.653  1.00 36.12 LIG 0.04  A 
ATOM     22  CD2 TRP D   3      15.849  -5.047  32.275  1.00 33.28 LIG-0.00  A 
ATOM     23  CZ2 TRP D   3      18.307  -5.223  31.726  1.00 34.49 LIG 0.03  A 
ATOM     24  CE3 TRP D   3      15.524  -4.819  30.913  1.00 31.46 LIG 0.01  A 
ATOM     25  CZ3 TRP D   3      16.566  -4.818  29.965  1.00 32.66 LIG 0.00  A 
ATOM     26  CH2 TRP D   3      17.970  -5.014  30.385  1.00 36.62 LIG 0.00  A 
ENDBRANCH 16 17
ENDBRANCH 12 16
ENDBRANCH 10 12
ENDBRANCH 4 8
BRANCH 1 27
ATOM     27  CA  TRP D   1       8.747  -3.572  38.431  1.00 34.78 LIG 0.28  C 
BRANCH 27 28
ATOM     28  CB  TRP D   1       7.611  -4.065  39.337  1.00 34.63 LIG 0.08  C 
BRANCH 28 29
ATOM     29  CG  TRP D   1       6.696  -2.897  39.814  1.00 37.87 LIG-0.03  A 
ATOM     30  CD1 TRP D   1       5.330  -2.951  40.087  1.00 40.68 LIG 0.10  A 
ATOM     31  NE1 TRP D   1       4.893  -1.719  40.532  1.00 42.18 LIG-0.36  N 
ATOM     32 HE1  TRP D   1       4.085  -1.527  40.755  1.00 42.18 LIG 0.17  HD
ATOM     33  CE2 TRP D   1       5.967  -0.842  40.560  1.00 41.11 LIG 0.04  A 
ATOM     34  CD2 TRP D   1       7.109  -1.545  40.112  1.00 38.74 LIG-0.00  A 
ATOM     35  CZ2 TRP D   1       6.019   0.531  40.952  1.00 41.13 LIG 0.03  A 
ATOM     36  CE3 TRP D   1       8.348  -0.870  40.083  1.00 40.52 LIG 0.01  A 
ATOM     37  CZ3 TRP D   1       8.398   0.495  40.465  1.00 41.02 LIG 0.00  A 
ATOM     38  CH2 TRP D   1       7.237   1.170  40.901  1.00 39.74 LIG 0.00  A 
ENDBRANCH 28 29
ENDBRANCH 27 28
BRANCH 27 39
ATOM     39  N   TRP D   1       8.167  -3.194  37.090  1.00 33.45 LIG-0.07  N 
ATOM     40 H3   TRP D   1       7.454  -3.699  36.922  1.00 33.45 LIG 0.28  HD
ATOM     41 H2   TRP D   1       8.778  -3.321  36.455  1.00 33.45 LIG 0.28  HD
ATOM     42 H1   TRP D   1       7.926  -2.337  37.102  1.00 33.45 LIG 0.28  HD
ENDBRANCH 27 39
ENDBRANCH 1 27
TORSDOF 9
ENDMDL
MODEL 12
USER: ADFR SOLUTION from run 63
USER: SCORE 14.319744 LL:  -1.170 LR: -13.150 RR:   0.000 FEB: -10.465
USER: RMSD 10.906940
USER: SEED 62
USER: STATUS no improvement in best 21 clusters for 5 generations
USER: GENES 11
USER: genes 0 Translation |==|  0.41640 0.74092 0.62794
USER: genes 1 Rotation |==|  0.46788 0.72946 0.39967 0.93157
USER: genes 2 Torsion [N]-CA--C-[O] |==|  0.42307
USER: genes 3 Torsion [C]-N--CA-[CB] |==|  0.90323
USER: genes 4 Torsion [N]-CA--C-[OXT] |==|  0.95771
USER: genes 5 Torsion [N]-CA--CB-[CG] |==|  0.58673
USER: genes 6 Torsion [CA]-CB--CG-[CD1] |==|  0.59359
USER: genes 7 Torsion [N]-C--CA-[N] |==|  0.91699
USER: genes 8 Torsion [C]-CA--CB-[CG] |==|  0.19520
USER: genes 9 Torsion [CA]-CB--CG-[CD1] |==|  0.01115
USER: genes 10 Torsion [C]-CA--N-[H2] |==|  0.30790
ROOT
ATOM      1  C   TRP D   1      10.392  -3.592  38.678  1.00 35.88 LIG 0.25  C 
ATOM      2 O    TRP D   1      10.090  -3.245  39.877  1.00 38.57 LIG-0.27  OA
ATOM      3  N   PRO D   2      10.917  -2.902  37.743  1.00 34.89 LIG-0.34  N 
ATOM      4  CA  PRO D   2      11.444  -1.504  37.874  1.00 35.03 LIG 0.18  C 
ATOM      5  CB  PRO D   2      11.953  -1.267  36.480  1.00 35.34 LIG 0.04  C 
ATOM      6  CG  PRO D   2      12.505  -2.650  36.126  1.00 35.42 LIG 0.02  C 
ATOM      7  CD  PRO D   2      11.775  -3.705  36.888  1.00 35.14 LIG 0.13  C 
ENDROOT
BRANCH 4 8
ATOM      8  C   PRO D   2      10.575  -0.363  38.390  1.00 35.70 LIG 0.24  C 
ATOM      9 O    PRO D   2      11.006   0.625  38.965  1.00 34.88 LIG-0.27  OA
ATOM     10  N   TRP D   3       9.287  -0.641  38.096  1.00 36.87 LIG-0.34  N 
ATOM     11 H    TRP D   3       9.068  -1.245  37.525  1.00 36.87 LIG 0.16  HD
BRANCH 10 12
ATOM     12  CA  TRP D   3       8.094   0.043  38.707  1.00 37.56 LIG 0.19  C 
BRANCH 12 13
ATOM     13  C   TRP D   3       7.331   1.253  38.050  1.00 38.92 LIG 0.20  C 
ATOM     14 OXT  TRP D   3       7.830   1.930  37.090  1.00 41.38 LIG-0.65  OA
ATOM     15 O    TRP D   3       6.150   1.553  38.573  1.00 40.06 LIG-0.65  OA
ENDBRANCH 12 13
BRANCH 12 16
ATOM     16  CB  TRP D   3       8.402   0.399  40.209  1.00 36.55 LIG 0.08  C 
BRANCH 16 17
ATOM     17  CG  TRP D   3       7.130   0.362  41.074  1.00 35.48 LIG-0.03  A 
ATOM     18  CD1 TRP D   3       6.841   1.179  42.172  1.00 37.13 LIG 0.10  A 
ATOM     19  NE1 TRP D   3       5.610   0.838  42.699  1.00 40.71 LIG-0.36  N 
ATOM     20 HE1  TRP D   3       5.243   1.211  43.381  1.00 40.71 LIG 0.17  HD
ATOM     21  CE2 TRP D   3       5.057  -0.190  41.966  1.00 36.12 LIG 0.04  A 
ATOM     22  CD2 TRP D   3       5.999  -0.525  40.917  1.00 33.28 LIG-0.00  A 
ATOM     23  CZ2 TRP D   3       3.822  -0.863  42.152  1.00 34.49 LIG 0.03  A 
ATOM     24  CE3 TRP D   3       5.700  -1.586  40.025  1.00 31.46 LIG 0.01  A 
ATOM     25  CZ3 TRP D   3       4.472  -2.261  40.172  1.00 32.66 LIG 0.00  A 
ATOM     26  CH2 TRP D   3       3.533  -1.896  41.254  1.00 36.62 LIG 0.00  A 
ENDBRANCH 16 17
ENDBRANCH 12 16
ENDBRANCH 10 12
ENDBRANCH 4 8
BRANCH 1 27
ATOM     27  CA  TRP D   1       9.897  -4.962  38.118  1.00 34.78 LIG 0.28  C 
BRANCH 27 28
ATOM     28  CB  TRP D   1      10.970  -6.052  38.249  1.00 34.63 LIG 0.08  C 
BRANCH 28 29
ATOM     29  CG  TRP D   1      11.198  -6.472  39.732  1.00 37.87 LIG-0.03  A 
ATOM     30  CD1 TRP D   1      10.499  -6.028  40.853  1.00 40.68 LIG 0.10  A 
ATOM     31  NE1 TRP D   1      10.967  -6.671  41.982  1.00 42.18 LIG-0.36  N 
ATOM     32 HE1  TRP D   1      10.678  -6.548  42.782  1.00 42.18 LIG 0.17  HD
ATOM     33  CE2 TRP D   1      11.977  -7.549  41.616  1.00 41.11 LIG 0.04  A 
ATOM     34  CD2 TRP D   1      12.150  -7.445  40.215  1.00 38.74 LIG-0.00  A 
ATOM     35  CZ2 TRP D   1      12.757  -8.435  42.419  1.00 41.13 LIG 0.03  A 
ATOM     36  CE3 TRP D   1      13.108  -8.272  39.592  1.00 40.52 LIG 0.01  A 
ATOM     37  CZ3 TRP D   1      13.887  -9.147  40.391  1.00 41.02 LIG 0.00  A 
ATOM     38  CH2 TRP D   1      13.694  -9.222  41.787  1.00 39.74 LIG 0.00  A 
ENDBRANCH 28 29
ENDBRANCH 27 28
BRANCH 27 39
ATOM     39  N   TRP D   1       9.489  -4.856  36.669  1.00 33.45 LIG-0.07  N 
ATOM     40 H3   TRP D   1       8.677  -5.204  36.563  1.00 33.45 LIG 0.28  HD
ATOM     41 H2   TRP D   1      10.071  -5.300  36.163  1.00 33.45 LIG 0.28  HD
ATOM     42 H1   TRP D   1       9.478  -4.000  36.426  1.00 33.45 LIG 0.28  HD
ENDBRANCH 27 39
ENDBRANCH 1 27
TORSDOF 9
ENDMDL
MODEL 13
USER: ADFR SOLUTION from run 5
USER: SCORE 15.092980 LL:  -2.039 LR: -13.054 RR:   0.000 FEB: -10.369
USER: RMSD 11.447797
USER: SEED 642329
USER: STATUS no improvement in best 26 clusters for 5 generations
USER: GENES 11
USER: genes 0 Translation |==|  0.42774 0.72746 0.60060
USER: genes 1 Rotation |==|  0.23435 0.38114 0.09556 0.54156
USER: genes 2 Torsion [N]-CA--C-[O] |==|  0.09507
USER: genes 3 Torsion [C]-N--CA-[CB] |==|  0.48260
USER: genes 4 Torsion [N]-CA--C-[OXT] |==|  0.99411
USER: genes 5 Torsion [N]-CA--CB-[CG] |==|  0.90598
USER: genes 6 Torsion [CA]-CB--CG-[CD1] |==|  0.74520
USER: genes 7 Torsion [N]-C--CA-[N] |==|  0.54367
USER: genes 8 Torsion [C]-CA--CB-[CG] |==|  0.41836
USER: genes 9 Torsion [CA]-CB--CG-[CD1] |==|  0.48874
USER: genes 10 Torsion [C]-CA--N-[H2] |==|  0.99614
ROOT
ATOM      1  C   TRP D   1      10.732  -3.996  37.858  1.00 35.88 LIG 0.25  C 
ATOM      2 O    TRP D   1      11.531  -3.836  36.866  1.00 38.57 LIG-0.27  OA
ATOM      3  N   PRO D   2      10.720  -4.909  38.748  1.00 34.89 LIG-0.34  N 
ATOM      4  CA  PRO D   2      11.757  -5.977  38.926  1.00 35.03 LIG 0.18  C 
ATOM      5  CB  PRO D   2      11.215  -6.695  40.130  1.00 35.34 LIG 0.04  C 
ATOM      6  CG  PRO D   2      10.650  -5.527  40.943  1.00 35.42 LIG 0.02  C 
ATOM      7  CD  PRO D   2      10.259  -4.410  40.034  1.00 35.14 LIG 0.13  C 
ENDROOT
BRANCH 4 8
ATOM      8  C   PRO D   2      12.138  -6.922  37.793  1.00 35.70 LIG 0.24  C 
ATOM      9 O    PRO D   2      12.163  -6.607  36.612  1.00 34.88 LIG-0.27  OA
ATOM     10  N   TRP D   3      12.436  -8.127  38.324  1.00 36.87 LIG-0.34  N 
ATOM     11 H    TRP D   3      12.590  -8.232  39.163  1.00 36.87 LIG 0.16  HD
BRANCH 10 12
ATOM     12  CA  TRP D   3      12.537  -9.413  37.547  1.00 37.56 LIG 0.19  C 
BRANCH 12 13
ATOM     13  C   TRP D   3      11.392  -9.993  36.636  1.00 38.92 LIG 0.20  C 
ATOM     14 OXT  TRP D   3      10.259  -9.418  36.521  1.00 41.38 LIG-0.65  OA
ATOM     15 O    TRP D   3      11.660 -11.135  36.018  1.00 40.06 LIG-0.65  OA
ENDBRANCH 12 13
BRANCH 12 16
ATOM     16  CB  TRP D   3      13.058 -10.559  38.492  1.00 36.55 LIG 0.08  C 
BRANCH 16 17
ATOM     17  CG  TRP D   3      14.051 -10.026  39.538  1.00 35.48 LIG-0.03  A 
ATOM     18  CD1 TRP D   3      15.443  -9.962  39.415  1.00 37.13 LIG 0.10  A 
ATOM     19  NE1 TRP D   3      15.993  -9.435  40.569  1.00 40.71 LIG-0.36  N 
ATOM     20 HE1  TRP D   3      16.833  -9.315  40.707  1.00 40.71 LIG 0.17  HD
ATOM     21  CE2 TRP D   3      14.991  -9.130  41.465  1.00 36.12 LIG 0.04  A 
ATOM     22  CD2 TRP D   3      13.734  -9.494  40.846  1.00 33.28 LIG-0.00  A 
ATOM     23  CZ2 TRP D   3      15.091  -8.587  42.772  1.00 34.49 LIG 0.03  A 
ATOM     24  CE3 TRP D   3      12.525  -9.320  41.567  1.00 31.46 LIG 0.01  A 
ATOM     25  CZ3 TRP D   3      12.589  -8.764  42.860  1.00 32.66 LIG 0.00  A 
ATOM     26  CH2 TRP D   3      13.890  -8.405  43.465  1.00 36.62 LIG 0.00  A 
ENDBRANCH 16 17
ENDBRANCH 12 16
ENDBRANCH 10 12
ENDBRANCH 4 8
BRANCH 1 27
ATOM     27  CA  TRP D   1       9.435  -3.134  37.957  1.00 34.78 LIG 0.28  C 
BRANCH 27 28
ATOM     28  CB  TRP D   1       8.191  -4.002  38.189  1.00 34.63 LIG 0.08  C 
BRANCH 28 29
ATOM     29  CG  TRP D   1       7.090  -3.243  38.989  1.00 37.87 LIG-0.03  A 
ATOM     30  CD1 TRP D   1       5.811  -3.697  39.306  1.00 40.68 LIG 0.10  A 
ATOM     31  NE1 TRP D   1       5.153  -2.751  40.067  1.00 42.18 LIG-0.36  N 
ATOM     32 HE1  TRP D   1       4.352  -2.823  40.371  1.00 42.18 LIG 0.17  HD
ATOM     33  CE2 TRP D   1       5.994  -1.665  40.262  1.00 41.11 LIG 0.04  A 
ATOM     34  CD2 TRP D   1       7.212  -1.938  39.596  1.00 38.74 LIG-0.00  A 
ATOM     35  CZ2 TRP D   1       5.772  -0.451  40.983  1.00 41.13 LIG 0.03  A 
ATOM     36  CE3 TRP D   1       8.251  -0.987  39.677  1.00 40.52 LIG 0.01  A 
ATOM     37  CZ3 TRP D   1       8.028   0.220  40.386  1.00 41.02 LIG 0.00  A 
ATOM     38  CH2 TRP D   1       6.798   0.465  41.035  1.00 39.74 LIG 0.00  A 
ENDBRANCH 28 29
ENDBRANCH 27 28
BRANCH 27 39
ATOM     39  N   TRP D   1       9.222  -2.305  36.715  1.00 33.45 LIG-0.07  N 
ATOM     40 H3   TRP D   1       8.455  -2.540  36.330  1.00 33.45 LIG 0.28  HD
ATOM     41 H2   TRP D   1       9.893  -2.442  36.147  1.00 33.45 LIG 0.28  HD
ATOM     42 H1   TRP D   1       9.191  -1.443  36.935  1.00 33.45 LIG 0.28  HD
ENDBRANCH 27 39
ENDBRANCH 1 27
TORSDOF 9
ENDMDL
MODEL 14
USER: ADFR SOLUTION from run 111
USER: SCORE 14.771086 LL:  -1.734 LR: -13.037 RR:   0.000 FEB: -10.353
USER: RMSD 10.773400
USER: SEED 110
USER: STATUS no improvement in best 12 clusters for 5 generations
USER: GENES 11
USER: genes 0 Translation |==|  0.40882 0.66027 0.57152
USER: genes 1 Rotation |==|  0.04571 0.32956 0.60355 0.56205
USER: genes 2 Torsion [N]-CA--C-[O] |==|  0.21349
USER: genes 3 Torsion [C]-N--CA-[CB] |==|  0.76261
USER: genes 4 Torsion [N]-CA--C-[OXT] |==|  0.59160
USER: genes 5 Torsion [N]-CA--CB-[CG] |==|  0.75712
USER: genes 6 Torsion [CA]-CB--CG-[CD1] |==|  0.00059
USER: genes 7 Torsion [N]-C--CA-[N] |==|  0.31009
USER: genes 8 Torsion [C]-CA--CB-[CG] |==|  0.68863
USER: genes 9 Torsion [CA]-CB--CG-[CD1] |==|  0.27949
USER: genes 10 Torsion [C]-CA--N-[H2] |==|  0.11238
ROOT
ATOM      1  C   TRP D   1      10.164  -6.012  36.986  1.00 35.88 LIG 0.25  C 
ATOM      2 O    TRP D   1       9.080  -6.698  37.021  1.00 38.57 LIG-0.27  OA
ATOM      3  N   PRO D   2      11.312  -6.335  36.532  1.00 34.89 LIG-0.34  N 
ATOM      4  CA  PRO D   2      11.638  -7.594  35.785  1.00 35.03 LIG 0.18  C 
ATOM      5  CB  PRO D   2      13.096  -7.374  35.494  1.00 35.34 LIG 0.04  C 
ATOM      6  CG  PRO D   2      13.122  -5.868  35.226  1.00 35.42 LIG 0.02  C 
ATOM      7  CD  PRO D   2      12.014  -5.195  35.965  1.00 35.14 LIG 0.13  C 
ENDROOT
BRANCH 4 8
ATOM      8  C   PRO D   2      11.350  -8.971  36.370  1.00 35.70 LIG 0.24  C 
ATOM      9 O    PRO D   2      10.241  -9.483  36.412  1.00 34.88 LIG-0.27  OA
ATOM     10  N   TRP D   3      12.512  -9.499  36.811  1.00 36.87 LIG-0.34  N 
ATOM     11 H    TRP D   3      13.276  -9.181  36.579  1.00 36.87 LIG 0.16  HD
BRANCH 10 12
ATOM     12  CA  TRP D   3      12.628 -10.678  37.740  1.00 37.56 LIG 0.19  C 
BRANCH 12 13
ATOM     13  C   TRP D   3      11.803 -12.010  37.592  1.00 38.92 LIG 0.20  C 
ATOM     14 OXT  TRP D   3      11.433 -12.695  38.604  1.00 41.38 LIG-0.65  OA
ATOM     15 O    TRP D   3      11.543 -12.402  36.353  1.00 40.06 LIG-0.65  OA
ENDBRANCH 12 13
BRANCH 12 16
ATOM     16  CB  TRP D   3      12.525 -10.185  39.231  1.00 36.55 LIG 0.08  C 
BRANCH 16 17
ATOM     17  CG  TRP D   3      13.898  -9.775  39.790  1.00 35.48 LIG-0.03  A 
ATOM     18  CD1 TRP D   3      15.121  -9.806  39.112  1.00 37.13 LIG 0.10  A 
ATOM     19  NE1 TRP D   3      16.133  -9.376  39.949  1.00 40.71 LIG-0.36  N 
ATOM     20 HE1  TRP D   3      16.964  -9.323  39.735  1.00 40.71 LIG 0.17  HD
ATOM     21  CE2 TRP D   3      15.610  -9.042  41.180  1.00 36.12 LIG 0.04  A 
ATOM     22  CD2 TRP D   3      14.183  -9.285  41.121  1.00 33.28 LIG-0.00  A 
ATOM     23  CZ2 TRP D   3      16.275  -8.570  42.341  1.00 34.49 LIG 0.03  A 
ATOM     24  CE3 TRP D   3      13.389  -9.058  42.274  1.00 31.46 LIG 0.01  A 
ATOM     25  CZ3 TRP D   3      14.017  -8.570  43.436  1.00 32.66 LIG 0.00  A 
ATOM     26  CH2 TRP D   3      15.477  -8.335  43.465  1.00 36.62 LIG 0.00  A 
ENDBRANCH 16 17
ENDBRANCH 12 16
ENDBRANCH 10 12
ENDBRANCH 4 8
BRANCH 1 27
ATOM     27  CA  TRP D   1      10.259  -4.667  37.771  1.00 34.78 LIG 0.28  C 
BRANCH 27 28
ATOM     28  CB  TRP D   1       9.686  -4.793  39.189  1.00 34.63 LIG 0.08  C 
BRANCH 28 29
ATOM     29  CG  TRP D   1       8.377  -3.967  39.365  1.00 37.87 LIG-0.03  A 
ATOM     30  CD1 TRP D   1       7.066  -4.443  39.340  1.00 40.68 LIG 0.10  A 
ATOM     31  NE1 TRP D   1       6.187  -3.406  39.582  1.00 42.18 LIG-0.36  N 
ATOM     32 HE1  TRP D   1       5.331  -3.475  39.611  1.00 42.18 LIG 0.17  HD
ATOM     33  CE2 TRP D   1       6.908  -2.237  39.773  1.00 41.11 LIG 0.04  A 
ATOM     34  CD2 TRP D   1       8.281  -2.552  39.638  1.00 38.74 LIG-0.00  A 
ATOM     35  CZ2 TRP D   1       6.452  -0.914  40.058  1.00 41.13 LIG 0.03  A 
ATOM     36  CE3 TRP D   1       9.229  -1.523  39.824  1.00 40.52 LIG 0.01  A 
ATOM     37  CZ3 TRP D   1       8.775  -0.208  40.100  1.00 41.02 LIG 0.00  A 
ATOM     38  CH2 TRP D   1       7.397   0.073  40.222  1.00 39.74 LIG 0.00  A 
ENDBRANCH 28 29
ENDBRANCH 27 28
BRANCH 27 39
ATOM     39  N   TRP D   1       9.538  -3.552  37.054  1.00 33.45 LIG-0.07  N 
ATOM     40 H3   TRP D   1       9.362  -2.895  37.628  1.00 33.45 LIG 0.28  HD
ATOM     41 H2   TRP D   1       8.775  -3.861  36.715  1.00 33.45 LIG 0.28  HD
ATOM     42 H1   TRP D   1      10.050  -3.242  36.396  1.00 33.45 LIG 0.28  HD
ENDBRANCH 27 39
ENDBRANCH 1 27
TORSDOF 9
ENDMDL
MODEL 15
USER: ADFR SOLUTION from run 130
USER: SCORE 14.101848 LL:  -1.098 LR: -13.004 RR:   0.000 FEB: -10.319
USER: RMSD 11.527220
USER: SEED 129
USER: STATUS no improvement in best 21 clusters for 5 generations
USER: GENES 11
USER: genes 0 Translation |==|  0.41035 0.73584 0.61562
USER: genes 1 Rotation |==|  0.45637 0.58079 0.01468 0.57769
USER: genes 2 Torsion [N]-CA--C-[O] |==|  0.40272
USER: genes 3 Torsion [C]-N--CA-[CB] |==|  0.35664
USER: genes 4 Torsion [N]-CA--C-[OXT] |==|  0.49310
USER: genes 5 Torsion [N]-CA--CB-[CG] |==|  0.58052
USER: genes 6 Torsion [CA]-CB--CG-[CD1] |==|  0.54483
USER: genes 7 Torsion [N]-C--CA-[N] |==|  0.91380
USER: genes 8 Torsion [C]-CA--CB-[CG] |==|  0.36373
USER: genes 9 Torsion [CA]-CB--CG-[CD1] |==|  0.90074
USER: genes 10 Torsion [C]-CA--N-[H2] |==|  0.33849
ROOT
ATOM      1  C   TRP D   1      10.210  -3.745  38.309  1.00 35.88 LIG 0.25  C 
ATOM      2 O    TRP D   1      11.400  -3.352  38.590  1.00 38.57 LIG-0.27  OA
ATOM      3  N   PRO D   2       9.812  -4.880  37.887  1.00 34.89 LIG-0.34  N 
ATOM      4  CA  PRO D   2      10.658  -6.110  37.742  1.00 35.03 LIG 0.18  C 
ATOM      5  CB  PRO D   2       9.634  -7.096  37.256  1.00 35.34 LIG 0.04  C 
ATOM      6  CG  PRO D   2       8.402  -6.665  38.055  1.00 35.42 LIG 0.02  C 
ATOM      7  CD  PRO D   2       8.488  -5.214  38.389  1.00 35.14 LIG 0.13  C 
ENDROOT
BRANCH 4 8
ATOM      8  C   PRO D   2      11.931  -6.114  36.905  1.00 35.70 LIG 0.24  C 
ATOM      9 O    PRO D   2      12.934  -6.756  37.181  1.00 34.88 LIG-0.27  OA
ATOM     10  N   TRP D   3      11.744  -5.307  35.840  1.00 36.87 LIG-0.34  N 
ATOM     11 H    TRP D   3      10.962  -5.042  35.598  1.00 36.87 LIG 0.16  HD
BRANCH 10 12
ATOM     12  CA  TRP D   3      12.839  -4.775  34.956  1.00 37.56 LIG 0.19  C 
BRANCH 12 13
ATOM     13  C   TRP D   3      13.433  -3.320  35.055  1.00 38.92 LIG 0.20  C 
ATOM     14 OXT  TRP D   3      14.395  -2.928  34.313  1.00 41.38 LIG-0.65  OA
ATOM     15 O    TRP D   3      12.900  -2.533  35.978  1.00 40.06 LIG-0.65  OA
ENDBRANCH 12 13
BRANCH 12 16
ATOM     16  CB  TRP D   3      12.494  -5.075  33.450  1.00 36.55 LIG 0.08  C 
BRANCH 16 17
ATOM     17  CG  TRP D   3      13.764  -5.236  32.597  1.00 35.48 LIG-0.03  A 
ATOM     18  CD1 TRP D   3      13.845  -5.195  31.201  1.00 37.13 LIG 0.10  A 
ATOM     19  NE1 TRP D   3      15.153  -5.393  30.801  1.00 40.71 LIG-0.36  N 
ATOM     20 HE1  TRP D   3      15.424  -5.412  29.985  1.00 40.71 LIG 0.17  HD
ATOM     21  CE2 TRP D   3      15.959  -5.557  31.907  1.00 36.12 LIG 0.04  A 
ATOM     22  CD2 TRP D   3      15.109  -5.465  33.076  1.00 33.28 LIG-0.00  A 
ATOM     23  CZ2 TRP D   3      17.356  -5.798  31.973  1.00 34.49 LIG 0.03  A 
ATOM     24  CE3 TRP D   3      15.676  -5.634  34.366  1.00 31.46 LIG 0.01  A 
ATOM     25  CZ3 TRP D   3      17.063  -5.855  34.465  1.00 32.66 LIG 0.00  A 
ATOM     26  CH2 TRP D   3      17.904  -5.945  33.251  1.00 36.62 LIG 0.00  A 
ENDBRANCH 16 17
ENDBRANCH 12 16
ENDBRANCH 10 12
ENDBRANCH 4 8
BRANCH 1 27
ATOM     27  CA  TRP D   1       9.047  -2.707  38.232  1.00 34.78 LIG 0.28  C 
BRANCH 27 28
ATOM     28  CB  TRP D   1       8.238  -2.662  39.535  1.00 34.63 LIG 0.08  C 
BRANCH 28 29
ATOM     29  CG  TRP D   1       8.035  -1.203  40.046  1.00 37.87 LIG-0.03  A 
ATOM     30  CD1 TRP D   1       8.937  -0.144  39.959  1.00 40.68 LIG 0.10  A 
ATOM     31  NE1 TRP D   1       8.368   1.000  40.482  1.00 42.18 LIG-0.36  N 
ATOM     32 HE1  TRP D   1       8.749   1.769  40.531  1.00 42.18 LIG 0.17  HD
ATOM     33  CE2 TRP D   1       7.083   0.708  40.916  1.00 41.11 LIG 0.04  A 
ATOM     34  CD2 TRP D   1       6.845  -0.664  40.662  1.00 38.74 LIG-0.00  A 
ATOM     35  CZ2 TRP D   1       6.103   1.555  41.516  1.00 41.13 LIG 0.03  A 
ATOM     36  CE3 TRP D   1       5.581  -1.199  40.987  1.00 40.52 LIG 0.01  A 
ATOM     37  CZ3 TRP D   1       4.610  -0.360  41.590  1.00 41.02 LIG 0.00  A 
ATOM     38  CH2 TRP D   1       4.882   1.004  41.836  1.00 39.74 LIG 0.00  A 
ENDBRANCH 28 29
ENDBRANCH 27 28
BRANCH 27 39
ATOM     39  N   TRP D   1       8.108  -3.008  37.090  1.00 33.45 LIG-0.07  N 
ATOM     40 H3   TRP D   1       8.113  -2.328  36.516  1.00 33.45 LIG 0.28  HD
ATOM     41 H2   TRP D   1       7.284  -3.124  37.405  1.00 33.45 LIG 0.28  HD
ATOM     42 H1   TRP D   1       8.374  -3.748  36.674  1.00 33.45 LIG 0.28  HD
ENDBRANCH 27 39
ENDBRANCH 1 27
TORSDOF 9
ENDMDL
MODEL 16
USER: ADFR SOLUTION from run 50
USER: SCORE 15.781204 LL:  -2.800 LR: -12.981 RR:   0.000 FEB: -10.296
USER: RMSD 10.098358
USER: SEED 49
USER: STATUS no improvement in best 9 clusters for 5 generations
USER: GENES 11
USER: genes 0 Translation |==|  0.38384 0.72236 0.59562
USER: genes 1 Rotation |==|  0.73328 0.08652 0.34563 0.52792
USER: genes 2 Torsion [N]-CA--C-[O] |==|  0.96232
USER: genes 3 Torsion [C]-N--CA-[CB] |==|  0.16975
USER: genes 4 Torsion [N]-CA--C-[OXT] |==|  0.63108
USER: genes 5 Torsion [N]-CA--CB-[CG] |==|  0.08878
USER: genes 6 Torsion [CA]-CB--CG-[CD1] |==|  0.19396
USER: genes 7 Torsion [N]-C--CA-[N] |==|  0.35181
USER: genes 8 Torsion [C]-CA--CB-[CG] |==|  0.21331
USER: genes 9 Torsion [CA]-CB--CG-[CD1] |==|  0.89022
USER: genes 10 Torsion [C]-CA--N-[H2] |==|  0.13665
ROOT
ATOM      1  C   TRP D   1       9.415  -4.149  37.708  1.00 35.88 LIG 0.25  C 
ATOM      2 O    TRP D   1      10.026  -3.032  37.546  1.00 38.57 LIG-0.27  OA
ATOM      3  N   PRO D   2       8.306  -4.388  38.291  1.00 34.89 LIG-0.34  N 
ATOM      4  CA  PRO D   2       7.356  -3.359  38.827  1.00 35.03 LIG 0.18  C 
ATOM      5  CB  PRO D   2       6.252  -4.240  39.340  1.00 35.34 LIG 0.04  C 
ATOM      6  CG  PRO D   2       6.235  -5.344  38.280  1.00 35.42 LIG 0.02  C 
ATOM      7  CD  PRO D   2       7.587  -5.486  37.664  1.00 35.14 LIG 0.13  C 
ENDROOT
BRANCH 4 8
ATOM      8  C   PRO D   2       7.797  -2.309  39.839  1.00 35.70 LIG 0.24  C 
ATOM      9 O    PRO D   2       8.846  -2.355  40.465  1.00 34.88 LIG-0.27  OA
ATOM     10  N   TRP D   3       6.846  -1.354  39.906  1.00 36.87 LIG-0.34  N 
ATOM     11 H    TRP D   3       6.234  -1.275  39.308  1.00 36.87 LIG 0.16  HD
BRANCH 10 12
ATOM     12  CA  TRP D   3       6.727  -0.328  41.001  1.00 37.56 LIG 0.19  C 
BRANCH 12 13
ATOM     13  C   TRP D   3       5.475   0.602  41.215  1.00 38.92 LIG 0.20  C 
ATOM     14 OXT  TRP D   3       5.587   1.858  41.410  1.00 41.38 LIG-0.65  OA
ATOM     15 O    TRP D   3       4.293   0.000  41.215  1.00 40.06 LIG-0.65  OA
ENDBRANCH 12 13
BRANCH 12 16
ATOM     16  CB  TRP D   3       8.025   0.562  41.033  1.00 36.55 LIG 0.08  C 
BRANCH 16 17
ATOM     17  CG  TRP D   3       8.632   0.732  39.630  1.00 35.48 LIG-0.03  A 
ATOM     18  CD1 TRP D   3       8.094   1.467  38.569  1.00 37.13 LIG 0.10  A 
ATOM     19  NE1 TRP D   3       8.921   1.371  37.465  1.00 40.71 LIG-0.36  N 
ATOM     20 HE1  TRP D   3       8.775   1.742  36.703  1.00 40.71 LIG 0.17  HD
ATOM     21  CE2 TRP D   3      10.016   0.591  37.769  1.00 36.12 LIG 0.04  A 
ATOM     22  CD2 TRP D   3       9.869   0.161  39.144  1.00 33.28 LIG-0.00  A 
ATOM     23  CZ2 TRP D   3      11.107   0.214  36.944  1.00 34.49 LIG 0.03  A 
ATOM     24  CE3 TRP D   3      10.847  -0.694  39.715  1.00 31.46 LIG 0.01  A 
ATOM     25  CZ3 TRP D   3      11.952  -1.070  38.927  1.00 32.66 LIG 0.00  A 
ATOM     26  CH2 TRP D   3      12.072  -0.614  37.525  1.00 36.62 LIG 0.00  A 
ENDBRANCH 16 17
ENDBRANCH 12 16
ENDBRANCH 10 12
ENDBRANCH 4 8
BRANCH 1 27
ATOM     27  CA  TRP D   1      10.143  -5.488  37.376  1.00 34.78 LIG 0.28  C 
BRANCH 27 28
ATOM     28  CB  TRP D   1      11.411  -5.673  38.221  1.00 34.63 LIG 0.08  C 
BRANCH 28 29
ATOM     29  CG  TRP D   1      11.081  -6.110  39.680  1.00 37.87 LIG-0.03  A 
ATOM     30  CD1 TRP D   1      10.036  -5.656  40.483  1.00 40.68 LIG 0.10  A 
ATOM     31  NE1 TRP D   1      10.053  -6.320  41.693  1.00 42.18 LIG-0.36  N 
ATOM     32 HE1  TRP D   1       9.499  -6.195  42.339  1.00 42.18 LIG 0.17  HD
ATOM     33  CE2 TRP D   1      11.108  -7.221  41.700  1.00 41.11 LIG 0.04  A 
ATOM     34  CD2 TRP D   1      11.775  -7.111  40.457  1.00 38.74 LIG-0.00  A 
ATOM     35  CZ2 TRP D   1      11.528  -8.134  42.715  1.00 41.13 LIG 0.03  A 
ATOM     36  CE3 TRP D   1      12.875  -7.959  40.206  1.00 40.52 LIG 0.01  A 
ATOM     37  CZ3 TRP D   1      13.296  -8.860  41.217  1.00 41.02 LIG 0.00  A 
ATOM     38  CH2 TRP D   1      12.612  -8.939  42.449  1.00 39.74 LIG 0.00  A 
ENDBRANCH 28 29
ENDBRANCH 27 28
BRANCH 27 39
ATOM     39  N   TRP D   1      10.519  -5.570  35.917  1.00 33.45 LIG-0.07  N 
ATOM     40 H3   TRP D   1      11.063  -6.262  35.788  1.00 33.45 LIG 0.28  HD
ATOM     41 H2   TRP D   1      10.931  -4.819  35.673  1.00 33.45 LIG 0.28  HD
ATOM     42 H1   TRP D   1       9.784  -5.677  35.426  1.00 33.45 LIG 0.28  HD
ENDBRANCH 27 39
ENDBRANCH 1 27
TORSDOF 9
ENDMDL
MODEL 17
USER: ADFR SOLUTION from run 119
USER: SCORE 14.140381 LL:  -1.171 LR: -12.969 RR:   0.000 FEB: -10.285
USER: RMSD 11.247815
USER: SEED 118
USER: STATUS no improvement in best 21 clusters for 5 generations
USER: GENES 11
USER: genes 0 Translation |==|  0.39516 0.67327 0.61790
USER: genes 1 Rotation |==|  0.38046 0.36324 0.96311 0.55037
USER: genes 2 Torsion [N]-CA--C-[O] |==|  0.51599
USER: genes 3 Torsion [C]-N--CA-[CB] |==|  0.90772
USER: genes 4 Torsion [N]-CA--C-[OXT] |==|  0.59116
USER: genes 5 Torsion [N]-CA--CB-[CG] |==|  0.63582
USER: genes 6 Torsion [CA]-CB--CG-[CD1] |==|  0.75370
USER: genes 7 Torsion [N]-C--CA-[N] |==|  0.91115
USER: genes 8 Torsion [C]-CA--CB-[CG] |==|  0.50398
USER: genes 9 Torsion [CA]-CB--CG-[CD1] |==|  0.42604
USER: genes 10 Torsion [C]-CA--N-[H2] |==|  0.31683
ROOT
ATOM      1  C   TRP D   1       9.755  -5.622  38.377  1.00 35.88 LIG 0.25  C 
ATOM      2 O    TRP D   1      10.604  -6.091  39.217  1.00 38.57 LIG-0.27  OA
ATOM      3  N   PRO D   2       9.169  -6.206  37.406  1.00 34.89 LIG-0.34  N 
ATOM      4  CA  PRO D   2       9.240  -7.670  37.090  1.00 35.03 LIG 0.18  C 
ATOM      5  CB  PRO D   2       8.334  -7.741  35.894  1.00 35.34 LIG 0.04  C 
ATOM      6  CG  PRO D   2       7.256  -6.723  36.276  1.00 35.42 LIG 0.02  C 
ATOM      7  CD  PRO D   2       7.827  -5.690  37.190  1.00 35.14 LIG 0.13  C 
ENDROOT
BRANCH 4 8
ATOM      8  C   PRO D   2      10.571  -8.380  36.869  1.00 35.70 LIG 0.24  C 
ATOM      9 O    PRO D   2      10.680  -9.543  36.511  1.00 34.88 LIG-0.27  OA
ATOM     10  N   TRP D   3      11.568  -7.508  37.130  1.00 36.87 LIG-0.34  N 
ATOM     11 H    TRP D   3      11.432  -6.661  37.185  1.00 36.87 LIG 0.16  HD
BRANCH 10 12
ATOM     12  CA  TRP D   3      13.008  -7.883  37.354  1.00 37.56 LIG 0.19  C 
BRANCH 12 13
ATOM     13  C   TRP D   3      14.126  -7.821  36.247  1.00 38.92 LIG 0.20  C 
ATOM     14 OXT  TRP D   3      15.099  -8.646  36.218  1.00 41.38 LIG-0.65  OA
ATOM     15 O    TRP D   3      14.018  -6.840  35.363  1.00 40.06 LIG-0.65  OA
ENDBRANCH 12 13
BRANCH 12 16
ATOM     16  CB  TRP D   3      13.082  -9.285  38.066  1.00 36.55 LIG 0.08  C 
BRANCH 16 17
ATOM     17  CG  TRP D   3      14.025  -9.256  39.281  1.00 35.48 LIG-0.03  A 
ATOM     18  CD1 TRP D   3      15.402  -9.504  39.279  1.00 37.13 LIG 0.10  A 
ATOM     19  NE1 TRP D   3      15.900  -9.399  40.564  1.00 40.71 LIG-0.36  N 
ATOM     20 HE1  TRP D   3      16.721  -9.519  40.788  1.00 40.71 LIG 0.17  HD
ATOM     21  CE2 TRP D   3      14.881  -9.071  41.433  1.00 36.12 LIG 0.04  A 
ATOM     22  CD2 TRP D   3      13.665  -8.972  40.653  1.00 33.28 LIG-0.00  A 
ATOM     23  CZ2 TRP D   3      14.928  -8.876  42.838  1.00 34.49 LIG 0.03  A 
ATOM     24  CE3 TRP D   3      12.440  -8.678  41.306  1.00 31.46 LIG 0.01  A 
ATOM     25  CZ3 TRP D   3      12.457  -8.460  42.697  1.00 32.66 LIG 0.00  A 
ATOM     26  CH2 TRP D   3      13.716  -8.570  43.465  1.00 36.62 LIG 0.00  A 
ENDBRANCH 16 17
ENDBRANCH 12 16
ENDBRANCH 10 12
ENDBRANCH 4 8
BRANCH 1 27
ATOM     27  CA  TRP D   1       9.495  -4.085  38.311  1.00 34.78 LIG 0.28  C 
BRANCH 27 28
ATOM     28  CB  TRP D   1       8.234  -3.686  39.090  1.00 34.63 LIG 0.08  C 
BRANCH 28 29
ATOM     29  CG  TRP D   1       7.950  -2.157  38.998  1.00 37.87 LIG-0.03  A 
ATOM     30  CD1 TRP D   1       6.716  -1.518  39.107  1.00 40.68 LIG 0.10  A 
ATOM     31  NE1 TRP D   1       6.887  -0.151  39.018  1.00 42.18 LIG-0.36  N 
ATOM     32 HE1  TRP D   1       6.258   0.434  39.059  1.00 42.18 LIG 0.17  HD
ATOM     33  CE2 TRP D   1       8.236   0.126  38.854  1.00 41.11 LIG 0.04  A 
ATOM     34  CD2 TRP D   1       8.929  -1.107  38.831  1.00 38.74 LIG-0.00  A 
ATOM     35  CZ2 TRP D   1       8.905   1.382  38.723  1.00 41.13 LIG 0.03  A 
ATOM     36  CE3 TRP D   1      10.334  -1.088  38.707  1.00 40.52 LIG 0.01  A 
ATOM     37  CZ3 TRP D   1      10.997   0.158  38.570  1.00 41.02 LIG 0.00  A 
ATOM     38  CH2 TRP D   1      10.275   1.371  38.590  1.00 39.74 LIG 0.00  A 
ENDBRANCH 28 29
ENDBRANCH 27 28
BRANCH 27 39
ATOM     39  N   TRP D   1       9.357  -3.604  36.887  1.00 33.45 LIG-0.07  N 
ATOM     40 H3   TRP D   1       9.930  -2.938  36.742  1.00 33.45 LIG 0.28  HD
ATOM     41 H2   TRP D   1       8.526  -3.316  36.750  1.00 33.45 LIG 0.28  HD
ATOM     42 H1   TRP D   1       9.534  -4.274  36.329  1.00 33.45 LIG 0.28  HD
ENDBRANCH 27 39
ENDBRANCH 1 27
TORSDOF 9
ENDMDL
MODEL 18
USER: ADFR SOLUTION from run 38
USER: SCORE 13.902316 LL:  -0.940 LR: -12.963 RR:   0.000 FEB: -10.278
USER: RMSD 11.164887
USER: SEED 37
USER: STATUS no improvement in best 10 clusters for 5 generations
USER: GENES 11
USER: genes 0 Translation |==|  0.44056 0.76022 0.58596
USER: genes 1 Rotation |==|  0.35299 0.58450 0.05436 0.65050
USER: genes 2 Torsion [N]-CA--C-[O] |==|  0.13756
USER: genes 3 Torsion [C]-N--CA-[CB] |==|  0.28920
USER: genes 4 Torsion [N]-CA--C-[OXT] |==|  0.07279
USER: genes 5 Torsion [N]-CA--CB-[CG] |==|  0.64738
USER: genes 6 Torsion [CA]-CB--CG-[CD1] |==|  0.13115
USER: genes 7 Torsion [N]-C--CA-[N] |==|  0.91436
USER: genes 8 Torsion [C]-CA--CB-[CG] |==|  0.51877
USER: genes 9 Torsion [CA]-CB--CG-[CD1] |==|  0.22128
USER: genes 10 Torsion [C]-CA--N-[H2] |==|  0.31124
ROOT
ATOM      1  C   TRP D   1      11.117  -3.014  37.419  1.00 35.88 LIG 0.25  C 
ATOM      2 O    TRP D   1      12.101  -2.201  37.284  1.00 38.57 LIG-0.27  OA
ATOM      3  N   PRO D   2      11.031  -4.242  37.089  1.00 34.89 LIG-0.34  N 
ATOM      4  CA  PRO D   2      12.150  -5.092  36.566  1.00 35.03 LIG 0.18  C 
ATOM      5  CB  PRO D   2      11.448  -6.411  36.409  1.00 35.34 LIG 0.04  C 
ATOM      6  CG  PRO D   2      10.517  -6.400  37.623  1.00 35.42 LIG 0.02  C 
ATOM      7  CD  PRO D   2      10.190  -4.995  38.006  1.00 35.14 LIG 0.13  C 
ENDROOT
BRANCH 4 8
ATOM      8  C   PRO D   2      12.950  -4.694  35.331  1.00 35.70 LIG 0.24  C 
ATOM      9 O    PRO D   2      13.445  -3.590  35.158  1.00 34.88 LIG-0.27  OA
ATOM     10  N   TRP D   3      13.007  -5.755  34.499  1.00 36.87 LIG-0.34  N 
ATOM     11 H    TRP D   3      12.812  -6.552  34.759  1.00 36.87 LIG 0.16  HD
BRANCH 10 12
ATOM     12  CA  TRP D   3      13.406  -5.697  33.049  1.00 37.56 LIG 0.19  C 
BRANCH 12 13
ATOM     13  C   TRP D   3      12.526  -6.240  31.862  1.00 38.92 LIG 0.20  C 
ATOM     14 OXT  TRP D   3      11.255  -6.322  31.942  1.00 41.38 LIG-0.65  OA
ATOM     15 O    TRP D   3      13.183  -6.641  30.783  1.00 40.06 LIG-0.65  OA
ENDBRANCH 12 13
BRANCH 12 16
ATOM     16  CB  TRP D   3      14.870  -6.249  32.883  1.00 36.55 LIG 0.08  C 
BRANCH 16 17
ATOM     17  CG  TRP D   3      15.772  -5.253  32.134  1.00 35.48 LIG-0.03  A 
ATOM     18  CD1 TRP D   3      15.889  -3.881  32.380  1.00 37.13 LIG 0.10  A 
ATOM     19  NE1 TRP D   3      16.788  -3.320  31.492  1.00 40.71 LIG-0.36  N 
ATOM     20 HE1  TRP D   3      17.003  -2.488  31.465  1.00 40.71 LIG 0.17  HD
ATOM     21  CE2 TRP D   3      17.288  -4.296  30.656  1.00 36.12 LIG 0.04  A 
ATOM     22  CD2 TRP D   3      16.663  -5.547  31.033  1.00 33.28 LIG-0.00  A 
ATOM     23  CZ2 TRP D   3      18.219  -4.175  29.592  1.00 34.49 LIG 0.03  A 
ATOM     24  CE3 TRP D   3      16.970  -6.725  30.306  1.00 31.46 LIG 0.01  A 
ATOM     25  CZ3 TRP D   3      17.905  -6.642  29.257  1.00 32.66 LIG 0.00  A 
ATOM     26  CH2 TRP D   3      18.526  -5.349  28.897  1.00 36.62 LIG 0.00  A 
ENDBRANCH 16 17
ENDBRANCH 12 16
ENDBRANCH 10 12
ENDBRANCH 4 8
BRANCH 1 27
ATOM     27  CA  TRP D   1       9.714  -2.472  37.836  1.00 34.78 LIG 0.28  C 
BRANCH 27 28
ATOM     28  CB  TRP D   1       9.468  -2.628  39.343  1.00 34.63 LIG 0.08  C 
BRANCH 28 29
ATOM     29  CG  TRP D   1       8.010  -2.247  39.739  1.00 37.87 LIG-0.03  A 
ATOM     30  CD1 TRP D   1       6.866  -3.031  39.606  1.00 40.68 LIG 0.10  A 
ATOM     31  NE1 TRP D   1       5.774  -2.357  40.117  1.00 42.18 LIG-0.36  N 
ATOM     32 HE1  TRP D   1       4.968  -2.655  40.135  1.00 42.18 LIG 0.17  HD
ATOM     33  CE2 TRP D   1       6.188  -1.123  40.595  1.00 41.11 LIG 0.04  A 
ATOM     34  CD2 TRP D   1       7.581  -1.020  40.369  1.00 38.74 LIG-0.00  A 
ATOM     35  CZ2 TRP D   1       5.436  -0.080  41.215  1.00 41.13 LIG 0.03  A 
ATOM     36  CE3 TRP D   1       8.250   0.145  40.804  1.00 40.52 LIG 0.01  A 
ATOM     37  CZ3 TRP D   1       7.501   1.183  41.414  1.00 41.02 LIG 0.00  A 
ATOM     38  CH2 TRP D   1       6.110   1.051  41.618  1.00 39.74 LIG 0.00  A 
ENDBRANCH 28 29
ENDBRANCH 27 28
BRANCH 27 39
ATOM     39  N   TRP D   1       8.604  -3.171  37.090  1.00 33.45 LIG-0.07  N 
ATOM     40 H3   TRP D   1       8.071  -2.564  36.714  1.00 33.45 LIG 0.28  HD
ATOM     41 H2   TRP D   1       8.132  -3.669  37.657  1.00 33.45 LIG 0.28  HD
ATOM     42 H1   TRP D   1       8.952  -3.691  36.458  1.00 33.45 LIG 0.28  HD
ENDBRANCH 27 39
ENDBRANCH 1 27
TORSDOF 9
ENDMDL
MODEL 19
USER: ADFR SOLUTION from run 7
USER: SCORE 15.211222 LL:  -2.260 LR: -12.951 RR:   0.000 FEB: -10.266
USER: RMSD 10.865694
USER: SEED 390997
USER: STATUS no improvement in best 11 clusters for 5 generations
USER: GENES 11
USER: genes 0 Translation |==|  0.43477 0.64399 0.57726
USER: genes 1 Rotation |==|  0.92677 0.71505 0.35306 0.50539
USER: genes 2 Torsion [N]-CA--C-[O] |==|  0.23158
USER: genes 3 Torsion [C]-N--CA-[CB] |==|  0.69976
USER: genes 4 Torsion [N]-CA--C-[OXT] |==|  0.31422
USER: genes 5 Torsion [N]-CA--CB-[CG] |==|  0.19446
USER: genes 6 Torsion [CA]-CB--CG-[CD1] |==|  0.82478
USER: genes 7 Torsion [N]-C--CA-[N] |==|  0.31346
USER: genes 8 Torsion [C]-CA--CB-[CG] |==|  0.60117
USER: genes 9 Torsion [CA]-CB--CG-[CD1] |==|  0.31142
USER: genes 10 Torsion [C]-CA--N-[H2] |==|  0.27908
ROOT
ATOM      1  C   TRP D   1      10.943  -6.500  37.158  1.00 35.88 LIG 0.25  C 
ATOM      2 O    TRP D   1      10.096  -7.414  37.465  1.00 38.57 LIG-0.27  OA
ATOM      3  N   PRO D   2      12.121  -6.615  36.682  1.00 34.89 LIG-0.34  N 
ATOM      4  CA  PRO D   2      12.765  -7.892  36.230  1.00 35.03 LIG 0.18  C 
ATOM      5  CB  PRO D   2      14.093  -7.379  35.750  1.00 35.34 LIG 0.04  C 
ATOM      6  CG  PRO D   2      13.688  -6.041  35.127  1.00 35.42 LIG 0.02  C 
ATOM      7  CD  PRO D   2      12.458  -5.517  35.791  1.00 35.14 LIG 0.13  C 
ENDROOT
BRANCH 4 8
ATOM      8  C   PRO D   2      12.892  -9.097  37.154  1.00 35.70 LIG 0.24  C 
ATOM      9 O    PRO D   2      12.007  -9.919  37.339  1.00 34.88 LIG-0.27  OA
ATOM     10  N   TRP D   3      14.125  -9.086  37.702  1.00 36.87 LIG-0.34  N 
ATOM     11 H    TRP D   3      14.762  -8.602  37.387  1.00 36.87 LIG 0.16  HD
BRANCH 10 12
ATOM     12  CA  TRP D   3      14.545  -9.892  38.903  1.00 37.56 LIG 0.19  C 
BRANCH 12 13
ATOM     13  C   TRP D   3      13.827 -11.207  39.385  1.00 38.92 LIG 0.20  C 
ATOM     14 OXT  TRP D   3      14.398 -12.347  39.340  1.00 41.38 LIG-0.65  OA
ATOM     15 O    TRP D   3      12.580 -11.070  39.811  1.00 40.06 LIG-0.65  OA
ENDBRANCH 12 13
BRANCH 12 16
ATOM     16  CB  TRP D   3      14.729  -8.936  40.140  1.00 36.55 LIG 0.08  C 
BRANCH 16 17
ATOM     17  CG  TRP D   3      13.382  -8.388  40.640  1.00 35.48 LIG-0.03  A 
ATOM     18  CD1 TRP D   3      12.498  -7.567  39.932  1.00 37.13 LIG 0.10  A 
ATOM     19  NE1 TRP D   3      11.400  -7.271  40.718  1.00 40.71 LIG-0.36  N 
ATOM     20 HE1  TRP D   3      10.739  -6.776  40.479  1.00 40.71 LIG 0.17  HD
ATOM     21  CE2 TRP D   3      11.525  -7.890  41.944  1.00 36.12 LIG 0.04  A 
ATOM     22  CD2 TRP D   3      12.779  -8.613  41.935  1.00 33.28 LIG-0.00  A 
ATOM     23  CZ2 TRP D   3      10.650  -7.854  43.060  1.00 34.49 LIG 0.03  A 
ATOM     24  CE3 TRP D   3      13.184  -9.320  43.096  1.00 31.46 LIG 0.01  A 
ATOM     25  CZ3 TRP D   3      12.328  -9.320  44.215  1.00 32.66 LIG 0.00  A 
ATOM     26  CH2 TRP D   3      11.054  -8.570  44.192  1.00 36.62 LIG 0.00  A 
ENDBRANCH 16 17
ENDBRANCH 12 16
ENDBRANCH 10 12
ENDBRANCH 4 8
BRANCH 1 27
ATOM     27  CA  TRP D   1      10.681  -5.022  37.584  1.00 34.78 LIG 0.28  C 
BRANCH 27 28
ATOM     28  CB  TRP D   1      10.237  -4.922  39.049  1.00 34.63 LIG 0.08  C 
BRANCH 28 29
ATOM     29  CG  TRP D   1       9.173  -3.804  39.262  1.00 37.87 LIG-0.03  A 
ATOM     30  CD1 TRP D   1       7.831  -3.968  39.604  1.00 40.68 LIG 0.10  A 
ATOM     31  NE1 TRP D   1       7.231  -2.733  39.747  1.00 42.18 LIG-0.36  N 
ATOM     32 HE1  TRP D   1       6.407  -2.600  39.954  1.00 42.18 LIG 0.17  HD
ATOM     33  CE2 TRP D   1       8.171  -1.742  39.505  1.00 41.11 LIG 0.04  A 
ATOM     34  CD2 TRP D   1       9.395  -2.378  39.194  1.00 38.74 LIG-0.00  A 
ATOM     35  CZ2 TRP D   1       8.035  -0.321  39.538  1.00 41.13 LIG 0.03  A 
ATOM     36  CE3 TRP D   1      10.526  -1.574  38.939  1.00 40.52 LIG 0.01  A 
ATOM     37  CZ3 TRP D   1      10.389  -0.163  38.965  1.00 41.02 LIG 0.00  A 
ATOM     38  CH2 TRP D   1       9.150   0.440  39.273  1.00 39.74 LIG 0.00  A 
ENDBRANCH 28 29
ENDBRANCH 27 28
BRANCH 27 39
ATOM     39  N   TRP D   1       9.633  -4.371  36.715  1.00 33.45 LIG-0.07  N 
ATOM     40 H3   TRP D   1       9.876  -3.534  36.535  1.00 33.45 LIG 0.28  HD
ATOM     41 H2   TRP D   1       8.852  -4.367  37.143  1.00 33.45 LIG 0.28  HD
ATOM     42 H1   TRP D   1       9.552  -4.826  35.955  1.00 33.45 LIG 0.28  HD
ENDBRANCH 27 39
ENDBRANCH 1 27
TORSDOF 9
ENDMDL
MODEL 20
USER: ADFR SOLUTION from run 1
USER: SCORE 15.454108 LL:  -2.564 LR: -12.891 RR:   0.000 FEB: -10.206
USER: RMSD 10.012963
USER: SEED 394581
USER: STATUS no improvement in best 3 clusters for 5 generations
USER: GENES 11
USER: genes 0 Translation |==|  0.34012 0.71161 0.62563
USER: genes 1 Rotation |==|  0.75043 0.07042 0.50886 0.55166
USER: genes 2 Torsion [N]-CA--C-[O] |==|  0.36257
USER: genes 3 Torsion [C]-N--CA-[CB] |==|  0.90478
USER: genes 4 Torsion [N]-CA--C-[OXT] |==|  0.42038
USER: genes 5 Torsion [N]-CA--CB-[CG] |==|  0.77779
USER: genes 6 Torsion [CA]-CB--CG-[CD1] |==|  0.96665
USER: genes 7 Torsion [N]-C--CA-[N] |==|  0.31130
USER: genes 8 Torsion [C]-CA--CB-[CG] |==|  0.45251
USER: genes 9 Torsion [CA]-CB--CG-[CD1] |==|  0.76403
USER: genes 10 Torsion [C]-CA--N-[H2] |==|  0.73744
ROOT
ATOM      1  C   TRP D   1       8.104  -4.472  38.609  1.00 35.88 LIG 0.25  C 
ATOM      2 O    TRP D   1       8.722  -3.552  37.961  1.00 38.57 LIG-0.27  OA
ATOM      3  N   PRO D   2       6.883  -4.524  38.974  1.00 34.89 LIG-0.34  N 
ATOM      4  CA  PRO D   2       5.812  -3.541  38.602  1.00 35.03 LIG 0.18  C 
ATOM      5  CB  PRO D   2       4.623  -4.154  39.285  1.00 35.34 LIG 0.04  C 
ATOM      6  CG  PRO D   2       4.900  -5.646  39.085  1.00 35.42 LIG 0.02  C 
ATOM      7  CD  PRO D   2       6.369  -5.884  38.965  1.00 35.14 LIG 0.13  C 
ENDROOT
BRANCH 4 8
ATOM      8  C   PRO D   2       5.957  -2.051  38.886  1.00 35.70 LIG 0.24  C 
ATOM      9 O    PRO D   2       5.762  -1.171  38.060  1.00 34.88 LIG-0.27  OA
ATOM     10  N   TRP D   3       6.324  -1.895  40.175  1.00 36.87 LIG-0.34  N 
ATOM     11 H    TRP D   3       6.255  -2.530  40.751  1.00 36.87 LIG 0.16  HD
BRANCH 10 12
ATOM     12  CA  TRP D   3       6.888  -0.631  40.767  1.00 37.56 LIG 0.19  C 
BRANCH 12 13
ATOM     13  C   TRP D   3       6.037   0.444  41.541  1.00 38.92 LIG 0.20  C 
ATOM     14 OXT  TRP D   3       6.541   1.180  42.453  1.00 41.38 LIG-0.65  OA
ATOM     15 O    TRP D   3       4.754   0.519  41.215  1.00 40.06 LIG-0.65  OA
ENDBRANCH 12 13
BRANCH 12 16
ATOM     16  CB  TRP D   3       7.772   0.105  39.694  1.00 36.55 LIG 0.08  C 
BRANCH 16 17
ATOM     17  CG  TRP D   3       9.173  -0.521  39.585  1.00 35.48 LIG-0.03  A 
ATOM     18  CD1 TRP D   3       9.747  -1.445  40.465  1.00 37.13 LIG 0.10  A 
ATOM     19  NE1 TRP D   3      11.024  -1.764  40.043  1.00 40.71 LIG-0.36  N 
ATOM     20 HE1  TRP D   3      11.556  -2.308  40.443  1.00 40.71 LIG 0.17  HD
ATOM     21  CE2 TRP D   3      11.317  -1.077  38.884  1.00 36.12 LIG 0.04  A 
ATOM     22  CD2 TRP D   3      10.160  -0.269  38.558  1.00 33.28 LIG-0.00  A 
ATOM     23  CZ2 TRP D   3      12.508  -1.084  38.113  1.00 34.49 LIG 0.03  A 
ATOM     24  CE3 TRP D   3      10.198   0.577  37.420  1.00 31.46 LIG 0.01  A 
ATOM     25  CZ3 TRP D   3      11.359   0.577  36.623  1.00 32.66 LIG 0.00  A 
ATOM     26  CH2 TRP D   3      12.525  -0.259  36.984  1.00 36.62 LIG 0.00  A 
ENDBRANCH 16 17
ENDBRANCH 12 16
ENDBRANCH 10 12
ENDBRANCH 4 8
BRANCH 1 27
ATOM     27  CA  TRP D   1       8.910  -5.630  39.274  1.00 34.78 LIG 0.28  C 
BRANCH 27 28
ATOM     28  CB  TRP D   1      10.139  -5.108  40.031  1.00 34.63 LIG 0.08  C 
BRANCH 28 29
ATOM     29  CG  TRP D   1      10.699  -6.162  41.033  1.00 37.87 LIG-0.03  A 
ATOM     30  CD1 TRP D   1      10.275  -6.394  42.340  1.00 40.68 LIG 0.10  A 
ATOM     31  NE1 TRP D   1      10.988  -7.444  42.884  1.00 42.18 LIG-0.36  N 
ATOM     32 HE1  TRP D   1      10.890  -7.755  43.679  1.00 42.18 LIG 0.17  HD
ATOM     33  CE2 TRP D   1      11.886  -7.917  41.939  1.00 41.11 LIG 0.04  A 
ATOM     34  CD2 TRP D   1      11.735  -7.133  40.771  1.00 38.74 LIG-0.00  A 
ATOM     35  CZ2 TRP D   1      12.829  -8.987  42.025  1.00 41.13 LIG 0.03  A 
ATOM     36  CE3 TRP D   1      12.525  -7.445  39.644  1.00 40.52 LIG 0.01  A 
ATOM     37  CZ3 TRP D   1      13.466  -8.503  39.732  1.00 41.02 LIG 0.00  A 
ATOM     38  CH2 TRP D   1      13.596  -9.262  40.915  1.00 39.74 LIG 0.00  A 
ENDBRANCH 28 29
ENDBRANCH 27 28
BRANCH 27 39
ATOM     39  N   TRP D   1       9.365  -6.647  38.256  1.00 33.45 LIG-0.07  N 
ATOM     40 H3   TRP D   1       9.431  -6.259  37.457  1.00 33.45 LIG 0.28  HD
ATOM     41 H2   TRP D   1       8.775  -7.312  38.215  1.00 33.45 LIG 0.28  HD
ATOM     42 H1   TRP D   1      10.159  -6.970  38.494  1.00 33.45 LIG 0.28  HD
ENDBRANCH 27 39
ENDBRANCH 1 27
TORSDOF 9
ENDMDL
MODEL 21
USER: ADFR SOLUTION from run 63
USER: SCORE 14.133397 LL:  -1.240 LR: -12.893 RR:   0.000 FEB: -10.208
USER: RMSD 10.450186
USER: SEED 62
USER: STATUS no improvement in best 21 clusters for 5 generations
USER: GENES 11
USER: genes 0 Translation |==|  0.40649 0.71208 0.61081
USER: genes 1 Rotation |==|  0.44083 0.64105 0.54421 0.97397
USER: genes 2 Torsion [N]-CA--C-[O] |==|  0.46905
USER: genes 3 Torsion [C]-N--CA-[CB] |==|  0.80309
USER: genes 4 Torsion [N]-CA--C-[OXT] |==|  0.90435
USER: genes 5 Torsion [N]-CA--CB-[CG] |==|  0.32520
USER: genes 6 Torsion [CA]-CB--CG-[CD1] |==|  0.25941
USER: genes 7 Torsion [N]-C--CA-[N] |==|  0.89702
USER: genes 8 Torsion [C]-CA--CB-[CG] |==|  0.28252
USER: genes 9 Torsion [CA]-CB--CG-[CD1] |==|  0.34612
USER: genes 10 Torsion [C]-CA--N-[H2] |==|  0.61158
ROOT
ATOM      1  C   TRP D   1      10.095  -4.458  38.164  1.00 35.88 LIG 0.25  C 
ATOM      2 O    TRP D   1       9.337  -4.585  39.192  1.00 38.57 LIG-0.27  OA
ATOM      3  N   PRO D   2      10.344  -3.420  37.466  1.00 34.89 LIG-0.34  N 
ATOM      4  CA  PRO D   2       9.892  -2.024  37.776  1.00 35.03 LIG 0.18  C 
ATOM      5  CB  PRO D   2      10.519  -1.269  36.638  1.00 35.34 LIG 0.04  C 
ATOM      6  CG  PRO D   2      11.847  -2.015  36.482  1.00 35.42 LIG 0.02  C 
ATOM      7  CD  PRO D   2      11.701  -3.426  36.946  1.00 35.14 LIG 0.13  C 
ENDROOT
BRANCH 4 8
ATOM      8  C   PRO D   2       8.421  -1.682  37.976  1.00 35.70 LIG 0.24  C 
ATOM      9 O    PRO D   2       8.016  -0.617  38.418  1.00 34.88 LIG-0.27  OA
ATOM     10  N   TRP D   3       7.680  -2.739  37.583  1.00 36.87 LIG-0.34  N 
ATOM     11 H    TRP D   3       8.006  -3.374  37.104  1.00 36.87 LIG 0.16  HD
BRANCH 10 12
ATOM     12  CA  TRP D   3       6.227  -2.948  37.915  1.00 37.56 LIG 0.19  C 
BRANCH 12 13
ATOM     13  C   TRP D   3       5.071  -1.959  37.511  1.00 38.92 LIG 0.20  C 
ATOM     14 OXT  TRP D   3       5.243  -0.695  37.465  1.00 41.38 LIG-0.65  OA
ATOM     15 O    TRP D   3       3.894  -2.510  37.251  1.00 40.06 LIG-0.65  OA
ENDBRANCH 12 13
BRANCH 12 16
ATOM     16  CB  TRP D   3       6.081  -3.293  39.444  1.00 36.55 LIG 0.08  C 
BRANCH 16 17
ATOM     17  CG  TRP D   3       5.266  -2.225  40.193  1.00 35.48 LIG-0.03  A 
ATOM     18  CD1 TRP D   3       3.889  -2.242  40.439  1.00 37.13 LIG 0.10  A 
ATOM     19  NE1 TRP D   3       3.522  -1.102  41.129  1.00 40.71 LIG-0.36  N 
ATOM     20 HE1  TRP D   3       2.721  -0.910  41.376  1.00 40.71 LIG 0.17  HD
ATOM     21  CE2 TRP D   3       4.633  -0.320  41.363  1.00 36.12 LIG 0.04  A 
ATOM     22  CD2 TRP D   3       5.769  -1.002  40.778  1.00 33.28 LIG-0.00  A 
ATOM     23  CZ2 TRP D   3       4.725   0.935  42.018  1.00 34.49 LIG 0.03  A 
ATOM     24  CE3 TRP D   3       7.051  -0.398  40.840  1.00 31.46 LIG 0.01  A 
ATOM     25  CZ3 TRP D   3       7.179   0.839  41.501  1.00 32.66 LIG 0.00  A 
ATOM     26  CH2 TRP D   3       5.998   1.510  42.086  1.00 36.62 LIG 0.00  A 
ENDBRANCH 16 17
ENDBRANCH 12 16
ENDBRANCH 10 12
ENDBRANCH 4 8
BRANCH 1 27
ATOM     27  CA  TRP D   1      10.670  -5.726  37.461  1.00 34.78 LIG 0.28  C 
BRANCH 27 28
ATOM     28  CB  TRP D   1      12.150  -5.945  37.803  1.00 34.63 LIG 0.08  C 
BRANCH 28 29
ATOM     29  CG  TRP D   1      12.342  -7.056  38.878  1.00 37.87 LIG-0.03  A 
ATOM     30  CD1 TRP D   1      13.129  -8.202  38.779  1.00 40.68 LIG 0.10  A 
ATOM     31  NE1 TRP D   1      13.075  -8.913  39.962  1.00 42.18 LIG-0.36  N 
ATOM     32 HE1  TRP D   1      13.484  -9.652  40.119  1.00 42.18 LIG 0.17  HD
ATOM     33  CE2 TRP D   1      12.254  -8.240  40.855  1.00 41.11 LIG 0.04  A 
ATOM     34  CD2 TRP D   1      11.775  -7.077  40.207  1.00 38.74 LIG-0.00  A 
ATOM     35  CZ2 TRP D   1      11.895  -8.570  42.197  1.00 41.13 LIG 0.03  A 
ATOM     36  CE3 TRP D   1      10.939  -6.200  40.929  1.00 40.52 LIG 0.01  A 
ATOM     37  CZ3 TRP D   1      10.576  -6.531  42.260  1.00 41.02 LIG 0.00  A 
ATOM     38  CH2 TRP D   1      11.067  -7.704  42.875  1.00 39.74 LIG 0.00  A 
ENDBRANCH 28 29
ENDBRANCH 27 28
BRANCH 27 39
ATOM     39  N   TRP D   1      10.528  -5.643  35.961  1.00 33.45 LIG-0.07  N 
ATOM     40 H3   TRP D   1       9.902  -5.044  35.755  1.00 33.45 LIG 0.28  HD
ATOM     41 H2   TRP D   1      10.293  -6.439  35.640  1.00 33.45 LIG 0.28  HD
ATOM     42 H1   TRP D   1      11.303  -5.396  35.602  1.00 33.45 LIG 0.28  HD
ENDBRANCH 27 39
ENDBRANCH 1 27
TORSDOF 9
ENDMDL
MODEL 22
USER: ADFR SOLUTION from run 102
USER: SCORE 13.734789 LL:  -0.912 LR: -12.822 RR:   0.000 FEB: -10.138
USER: RMSD 11.367168
USER: SEED 101
USER: STATUS no improvement in best 20 clusters for 5 generations
USER: GENES 11
USER: genes 0 Translation |==|  0.45000 0.74882 0.57181
USER: genes 1 Rotation |==|  0.29641 0.53529 0.05113 0.57626
USER: genes 2 Torsion [N]-CA--C-[O] |==|  0.67416
USER: genes 3 Torsion [C]-N--CA-[CB] |==|  0.16255
USER: genes 4 Torsion [N]-CA--C-[OXT] |==|  0.78288
USER: genes 5 Torsion [N]-CA--CB-[CG] |==|  0.59650
USER: genes 6 Torsion [CA]-CB--CG-[CD1] |==|  0.30608
USER: genes 7 Torsion [N]-C--CA-[N] |==|  0.90872
USER: genes 8 Torsion [C]-CA--CB-[CG] |==|  0.43301
USER: genes 9 Torsion [CA]-CB--CG-[CD1] |==|  0.79618
USER: genes 10 Torsion [C]-CA--N-[H2] |==|  0.63473
ROOT
ATOM      1  C   TRP D   1      11.400  -3.355  36.994  1.00 35.88 LIG 0.25  C 
ATOM      2 O    TRP D   1      12.435  -2.839  36.437  1.00 38.57 LIG-0.27  OA
ATOM      3  N   PRO D   2      11.078  -4.583  37.123  1.00 34.89 LIG-0.34  N 
ATOM      4  CA  PRO D   2      11.932  -5.758  36.753  1.00 35.03 LIG 0.18  C 
ATOM      5  CB  PRO D   2      11.039  -6.893  37.168  1.00 35.34 LIG 0.04  C 
ATOM      6  CG  PRO D   2      10.399  -6.320  38.435  1.00 35.42 LIG 0.02  C 
ATOM      7  CD  PRO D   2      10.357  -4.830  38.361  1.00 35.14 LIG 0.13  C 
ENDROOT
BRANCH 4 8
ATOM      8  C   PRO D   2      12.497  -5.930  35.348  1.00 35.70 LIG 0.24  C 
ATOM      9 O    PRO D   2      12.222  -6.861  34.605  1.00 34.88 LIG-0.27  OA
ATOM     10  N   TRP D   3      13.323  -4.895  35.090  1.00 36.87 LIG-0.34  N 
ATOM     11 H    TRP D   3      13.323  -4.179  35.567  1.00 36.87 LIG 0.16  HD
BRANCH 10 12
ATOM     12  CA  TRP D   3      14.326  -4.847  33.969  1.00 37.56 LIG 0.19  C 
BRANCH 12 13
ATOM     13  C   TRP D   3      15.423  -3.731  33.805  1.00 38.92 LIG 0.20  C 
ATOM     14 OXT  TRP D   3      15.150  -2.574  33.340  1.00 41.38 LIG-0.65  OA
ATOM     15 O    TRP D   3      16.658  -4.070  34.146  1.00 40.06 LIG-0.65  OA
ENDBRANCH 12 13
BRANCH 12 16
ATOM     16  CB  TRP D   3      13.587  -5.033  32.592  1.00 36.55 LIG 0.08  C 
BRANCH 16 17
ATOM     17  CG  TRP D   3      14.446  -5.818  31.587  1.00 35.48 LIG-0.03  A 
ATOM     18  CD1 TRP D   3      14.214  -7.117  31.122  1.00 37.13 LIG 0.10  A 
ATOM     19  NE1 TRP D   3      15.212  -7.485  30.239  1.00 40.71 LIG-0.36  N 
ATOM     20 HE1  TRP D   3      15.265  -8.245  29.841  1.00 40.71 LIG 0.17  HD
ATOM     21  CE2 TRP D   3      16.109  -6.448  30.091  1.00 36.12 LIG 0.04  A 
ATOM     22  CD2 TRP D   3      15.656  -5.364  30.938  1.00 33.28 LIG-0.00  A 
ATOM     23  CZ2 TRP D   3      17.286  -6.386  29.302  1.00 34.49 LIG 0.03  A 
ATOM     24  CE3 TRP D   3      16.420  -4.170  31.009  1.00 31.46 LIG 0.01  A 
ATOM     25  CZ3 TRP D   3      17.584  -4.070  30.223  1.00 32.66 LIG 0.00  A 
ATOM     26  CH2 TRP D   3      18.020  -5.197  29.369  1.00 36.62 LIG 0.00  A 
ENDBRANCH 16 17
ENDBRANCH 12 16
ENDBRANCH 10 12
ENDBRANCH 4 8
BRANCH 1 27
ATOM     27  CA  TRP D   1      10.206  -2.443  37.414  1.00 34.78 LIG 0.28  C 
BRANCH 27 28
ATOM     28  CB  TRP D   1      10.241  -2.113  38.913  1.00 34.63 LIG 0.08  C 
BRANCH 28 29
ATOM     29  CG  TRP D   1       9.483  -0.791  39.238  1.00 37.87 LIG-0.03  A 
ATOM     30  CD1 TRP D   1       9.898   0.511  38.965  1.00 40.68 LIG 0.10  A 
ATOM     31  NE1 TRP D   1       8.925   1.406  39.364  1.00 42.18 LIG-0.36  N 
ATOM     32 HE1  TRP D   1       8.974   2.262  39.291  1.00 42.18 LIG 0.17  HD
ATOM     33  CE2 TRP D   1       7.857   0.703  39.900  1.00 41.11 LIG 0.04  A 
ATOM     34  CD2 TRP D   1       8.175  -0.674  39.841  1.00 38.74 LIG-0.00  A 
ATOM     35  CZ2 TRP D   1       6.622   1.180  40.436  1.00 41.13 LIG 0.03  A 
ATOM     36  CE3 TRP D   1       7.221  -1.606  40.301  1.00 40.52 LIG 0.01  A 
ATOM     37  CZ3 TRP D   1       5.998  -1.132  40.840  1.00 41.02 LIG 0.00  A 
ATOM     38  CH2 TRP D   1       5.714   0.250  40.890  1.00 39.74 LIG 0.00  A 
ENDBRANCH 28 29
ENDBRANCH 27 28
BRANCH 27 39
ATOM     39  N   TRP D   1       8.878  -3.080  37.090  1.00 33.45 LIG-0.07  N 
ATOM     40 H3   TRP D   1       9.008  -3.788  36.568  1.00 33.45 LIG 0.28  HD
ATOM     41 H2   TRP D   1       8.360  -2.491  36.668  1.00 33.45 LIG 0.28  HD
ATOM     42 H1   TRP D   1       8.480  -3.337  37.843  1.00 33.45 LIG 0.28  HD
ENDBRANCH 27 39
ENDBRANCH 1 27
TORSDOF 9
ENDMDL
MODEL 23
USER: ADFR SOLUTION from run 140
USER: SCORE 13.724756 LL:  -0.979 LR: -12.746 RR:   0.000 FEB: -10.061
USER: RMSD 11.779961
USER: SEED 139
USER: STATUS no improvement in best 17 clusters for 5 generations
USER: GENES 11
USER: genes 0 Translation |==|  0.40502 0.77913 0.59356
USER: genes 1 Rotation |==|  0.35965 0.52970 0.06908 0.70912
USER: genes 2 Torsion [N]-CA--C-[O] |==|  0.18282
USER: genes 3 Torsion [C]-N--CA-[CB] |==|  0.12458
USER: genes 4 Torsion [N]-CA--C-[OXT] |==|  0.93744
USER: genes 5 Torsion [N]-CA--CB-[CG] |==|  0.27861
USER: genes 6 Torsion [CA]-CB--CG-[CD1] |==|  0.76058
USER: genes 7 Torsion [N]-C--CA-[N] |==|  0.91254
USER: genes 8 Torsion [C]-CA--CB-[CG] |==|  0.28035
USER: genes 9 Torsion [CA]-CB--CG-[CD1] |==|  0.84956
USER: genes 10 Torsion [C]-CA--N-[H2] |==|  0.31308
ROOT
ATOM      1  C   TRP D   1      10.051  -2.446  37.647  1.00 35.88 LIG 0.25  C 
ATOM      2 O    TRP D   1      10.781  -1.399  37.507  1.00 38.57 LIG-0.27  OA
ATOM      3  N   PRO D   2      10.350  -3.672  37.464  1.00 34.89 LIG-0.34  N 
ATOM      4  CA  PRO D   2      11.718  -4.206  37.158  1.00 35.03 LIG 0.18  C 
ATOM      5  CB  PRO D   2      11.434  -5.680  37.099  1.00 35.34 LIG 0.04  C 
ATOM      6  CG  PRO D   2      10.391  -5.828  38.209  1.00 35.42 LIG 0.02  C 
ATOM      7  CD  PRO D   2       9.642  -4.549  38.383  1.00 35.14 LIG 0.13  C 
ENDROOT
BRANCH 4 8
ATOM      8  C   PRO D   2      12.525  -3.708  35.965  1.00 35.70 LIG 0.24  C 
ATOM      9 O    PRO D   2      12.956  -2.570  35.852  1.00 34.88 LIG-0.27  OA
ATOM     10  N   TRP D   3      12.671  -4.728  35.093  1.00 36.87 LIG-0.34  N 
ATOM     11 H    TRP D   3      12.519  -5.545  35.314  1.00 36.87 LIG 0.16  HD
BRANCH 10 12
ATOM     12  CA  TRP D   3      13.106  -4.584  33.659  1.00 37.56 LIG 0.19  C 
BRANCH 12 13
ATOM     13  C   TRP D   3      13.364  -5.791  32.683  1.00 38.92 LIG 0.20  C 
ATOM     14 OXT  TRP D   3      13.635  -6.963  33.110  1.00 41.38 LIG-0.65  OA
ATOM     15 O    TRP D   3      13.319  -5.515  31.387  1.00 40.06 LIG-0.65  OA
ENDBRANCH 12 13
BRANCH 12 16
ATOM     16  CB  TRP D   3      14.331  -3.599  33.577  1.00 36.55 LIG 0.08  C 
BRANCH 16 17
ATOM     17  CG  TRP D   3      15.663  -4.358  33.452  1.00 35.48 LIG-0.03  A 
ATOM     18  CD1 TRP D   3      16.443  -4.858  34.500  1.00 37.13 LIG 0.10  A 
ATOM     19  NE1 TRP D   3      17.575  -5.467  33.993  1.00 40.71 LIG-0.36  N 
ATOM     20 HE1  TRP D   3      18.193  -5.835  34.465  1.00 40.71 LIG 0.17  HD
ATOM     21  CE2 TRP D   3      17.566  -5.398  32.616  1.00 36.12 LIG 0.04  A 
ATOM     22  CD2 TRP D   3      16.360  -4.694  32.230  1.00 33.28 LIG-0.00  A 
ATOM     23  CZ2 TRP D   3      18.525  -5.874  31.687  1.00 34.49 LIG 0.03  A 
ATOM     24  CE3 TRP D   3      16.108  -4.445  30.856  1.00 31.46 LIG 0.01  A 
ATOM     25  CZ3 TRP D   3      17.032  -4.924  29.907  1.00 32.66 LIG 0.00  A 
ATOM     26  CH2 TRP D   3      18.255  -5.637  30.335  1.00 36.62 LIG 0.00  A 
ENDBRANCH 16 17
ENDBRANCH 12 16
ENDBRANCH 10 12
ENDBRANCH 4 8
BRANCH 1 27
ATOM     27  CA  TRP D   1       8.512  -2.298  37.859  1.00 34.78 LIG 0.28  C 
BRANCH 27 28
ATOM     28  CB  TRP D   1       8.129  -2.396  39.342  1.00 34.63 LIG 0.08  C 
BRANCH 28 29
ATOM     29  CG  TRP D   1       7.874  -0.994  39.973  1.00 37.87 LIG-0.03  A 
ATOM     30  CD1 TRP D   1       8.734   0.102  39.973  1.00 40.68 LIG 0.10  A 
ATOM     31  NE1 TRP D   1       8.125   1.176  40.592  1.00 42.18 LIG-0.36  N 
ATOM     32 HE1  TRP D   1       8.477   1.952  40.704  1.00 42.18 LIG 0.17  HD
ATOM     33  CE2 TRP D   1       6.855   0.799  41.003  1.00 41.11 LIG 0.04  A 
ATOM     34  CD2 TRP D   1       6.668  -0.555  40.636  1.00 38.74 LIG-0.00  A 
ATOM     35  CZ2 TRP D   1       5.847   1.555  41.676  1.00 41.13 LIG 0.03  A 
ATOM     36  CE3 TRP D   1       5.427  -1.164  40.919  1.00 40.52 LIG 0.01  A 
ATOM     37  CZ3 TRP D   1       4.429  -0.415  41.593  1.00 41.02 LIG 0.00  A 
ATOM     38  CH2 TRP D   1       4.651   0.933  41.952  1.00 39.74 LIG 0.00  A 
ENDBRANCH 28 29
ENDBRANCH 27 28
BRANCH 27 39
ATOM     39  N   TRP D   1       7.741  -3.342  37.090  1.00 33.45 LIG-0.07  N 
ATOM     40 H3   TRP D   1       7.120  -2.945  36.590  1.00 33.45 LIG 0.28  HD
ATOM     41 H2   TRP D   1       7.349  -3.902  37.660  1.00 33.45 LIG 0.28  HD
ATOM     42 H1   TRP D   1       8.298  -3.796  36.565  1.00 33.45 LIG 0.28  HD
ENDBRANCH 27 39
ENDBRANCH 1 27
TORSDOF 9
ENDMDL
MODEL 24
USER: ADFR SOLUTION from run 73
USER: SCORE 15.445850 LL:  -2.716 LR: -12.730 RR:   0.000 FEB: -10.045
USER: RMSD 9.069621
USER: SEED 72
USER: STATUS no improvement in best 14 clusters for 5 generations
USER: GENES 11
USER: genes 0 Translation |==|  0.50210 0.67577 0.47009
USER: genes 1 Rotation |==|  0.90145 0.55737 0.21637 0.57142
USER: genes 2 Torsion [N]-CA--C-[O] |==|  0.82285
USER: genes 3 Torsion [C]-N--CA-[CB] |==|  0.23320
USER: genes 4 Torsion [N]-CA--C-[OXT] |==|  0.42162
USER: genes 5 Torsion [N]-CA--CB-[CG] |==|  0.67485
USER: genes 6 Torsion [CA]-CB--CG-[CD1] |==|  0.08340
USER: genes 7 Torsion [N]-C--CA-[N] |==|  0.42387
USER: genes 8 Torsion [C]-CA--CB-[CG] |==|  0.19550
USER: genes 9 Torsion [CA]-CB--CG-[CD1] |==|  0.67487
USER: genes 10 Torsion [C]-CA--N-[H2] |==|  0.24663
ROOT
ATOM      1  C   TRP D   1      12.963  -5.547  33.943  1.00 35.88 LIG 0.25  C 
ATOM      2 O    TRP D   1      12.160  -5.606  34.942  1.00 38.57 LIG-0.27  OA
ATOM      3  N   PRO D   2      13.695  -6.461  33.438  1.00 34.89 LIG-0.34  N 
ATOM      4  CA  PRO D   2      13.688  -7.909  33.829  1.00 35.03 LIG 0.18  C 
ATOM      5  CB  PRO D   2      14.708  -8.460  32.874  1.00 35.34 LIG 0.04  C 
ATOM      6  CG  PRO D   2      14.420  -7.632  31.620  1.00 35.42 LIG 0.02  C 
ATOM      7  CD  PRO D   2      13.840  -6.310  31.999  1.00 35.14 LIG 0.13  C 
ENDROOT
BRANCH 4 8
ATOM      8  C   PRO D   2      13.922  -8.352  35.269  1.00 35.70 LIG 0.24  C 
ATOM      9 O    PRO D   2      14.963  -8.173  35.883  1.00 34.88 LIG-0.27  OA
ATOM     10  N   TRP D   3      12.800  -8.952  35.718  1.00 36.87 LIG-0.34  N 
ATOM     11 H    TRP D   3      12.045  -8.874  35.313  1.00 36.87 LIG 0.16  HD
BRANCH 10 12
ATOM     12  CA  TRP D   3      12.714  -9.815  36.948  1.00 37.56 LIG 0.19  C 
BRANCH 12 13
ATOM     13  C   TRP D   3      11.780 -11.074  37.087  1.00 38.92 LIG 0.20  C 
ATOM     14 OXT  TRP D   3      12.071 -12.055  37.850  1.00 41.38 LIG-0.65  OA
ATOM     15 O    TRP D   3      10.685 -11.075  36.340  1.00 40.06 LIG-0.65  OA
ENDBRANCH 12 13
BRANCH 12 16
ATOM     16  CB  TRP D   3      12.525  -8.905  38.218  1.00 36.55 LIG 0.08  C 
BRANCH 16 17
ATOM     17  CG  TRP D   3      13.709  -9.034  39.191  1.00 35.48 LIG-0.03  A 
ATOM     18  CD1 TRP D   3      15.037  -9.321  38.860  1.00 37.13 LIG 0.10  A 
ATOM     19  NE1 TRP D   3      15.807  -9.368  40.007  1.00 40.71 LIG-0.36  N 
ATOM     20 HE1  TRP D   3      16.650  -9.535  40.031  1.00 40.71 LIG 0.17  HD
ATOM     21  CE2 TRP D   3      15.019  -9.107  41.108  1.00 36.12 LIG 0.04  A 
ATOM     22  CD2 TRP D   3      13.670  -8.889  40.630  1.00 33.28 LIG-0.00  A 
ATOM     23  CZ2 TRP D   3      15.379  -9.065  42.480  1.00 34.49 LIG 0.03  A 
ATOM     24  CE3 TRP D   3      12.633  -8.632  41.563  1.00 31.46 LIG 0.01  A 
ATOM     25  CZ3 TRP D   3      12.961  -8.565  42.930  1.00 32.66 LIG 0.00  A 
ATOM     26  CH2 TRP D   3      14.350  -8.794  43.387  1.00 36.62 LIG 0.00  A 
ENDBRANCH 16 17
ENDBRANCH 12 16
ENDBRANCH 10 12
ENDBRANCH 4 8
BRANCH 1 27
ATOM     27  CA  TRP D   1      13.330  -4.163  33.322  1.00 34.78 LIG 0.28  C 
BRANCH 27 28
ATOM     28  CB  TRP D   1      14.506  -3.504  34.055  1.00 34.63 LIG 0.08  C 
BRANCH 28 29
ATOM     29  CG  TRP D   1      15.851  -4.245  33.787  1.00 37.87 LIG-0.03  A 
ATOM     30  CD1 TRP D   1      16.658  -4.896  34.719  1.00 40.68 LIG 0.10  A 
ATOM     31  NE1 TRP D   1      17.740  -5.470  34.081  1.00 42.18 LIG-0.36  N 
ATOM     32 HE1  TRP D   1      18.364  -5.919  34.465  1.00 42.18 LIG 0.17  HD
ATOM     33  CE2 TRP D   1      17.655  -5.208  32.722  1.00 41.11 LIG 0.04  A 
ATOM     34  CD2 TRP D   1      16.487  -4.438  32.505  1.00 38.74 LIG-0.00  A 
ATOM     35  CZ2 TRP D   1      18.525  -5.594  31.657  1.00 41.13 LIG 0.03  A 
ATOM     36  CE3 TRP D   1      16.160  -4.070  31.182  1.00 40.52 LIG 0.01  A 
ATOM     37  CZ3 TRP D   1      17.028  -4.448  30.126  1.00 41.02 LIG 0.00  A 
ATOM     38  CH2 TRP D   1      18.190  -5.210  30.379  1.00 39.74 LIG 0.00  A 
ENDBRANCH 28 29
ENDBRANCH 27 28
BRANCH 27 39
ATOM     39  N   TRP D   1      12.156  -3.216  33.340  1.00 33.45 LIG-0.07  N 
ATOM     40 H3   TRP D   1      12.225  -2.645  32.661  1.00 33.45 LIG 0.28  HD
ATOM     41 H2   TRP D   1      12.150  -2.765  34.107  1.00 33.45 LIG 0.28  HD
ATOM     42 H1   TRP D   1      11.400  -3.678  33.263  1.00 33.45 LIG 0.28  HD
ENDBRANCH 27 39
ENDBRANCH 1 27
TORSDOF 9
ENDMDL
MODEL 25
USER: ADFR SOLUTION from run 139
USER: SCORE 14.967784 LL:  -2.238 LR: -12.730 RR:   0.000 FEB: -10.045
USER: RMSD 8.674825
USER: SEED 138
USER: STATUS no improvement in best 14 clusters for 5 generations
USER: GENES 11
USER: genes 0 Translation |==|  0.48060 0.68857 0.52166
USER: genes 1 Rotation |==|  0.84803 0.37714 0.17842 0.60183
USER: genes 2 Torsion [N]-CA--C-[O] |==|  0.76650
USER: genes 3 Torsion [C]-N--CA-[CB] |==|  0.52951
USER: genes 4 Torsion [N]-CA--C-[OXT] |==|  0.15629
USER: genes 5 Torsion [N]-CA--CB-[CG] |==|  0.90185
USER: genes 6 Torsion [CA]-CB--CG-[CD1] |==|  0.26240
USER: genes 7 Torsion [N]-C--CA-[N] |==|  0.33453
USER: genes 8 Torsion [C]-CA--CB-[CG] |==|  0.33272
USER: genes 9 Torsion [CA]-CB--CG-[CD1] |==|  0.64854
USER: genes 10 Torsion [C]-CA--N-[H2] |==|  0.84115
ROOT
ATOM      1  C   TRP D   1      12.318  -5.163  35.490  1.00 35.88 LIG 0.25  C 
ATOM      2 O    TRP D   1      11.856  -4.320  36.341  1.00 38.57 LIG-0.27  OA
ATOM      3  N   PRO D   2      12.424  -6.430  35.582  1.00 34.89 LIG-0.34  N 
ATOM      4  CA  PRO D   2      11.891  -7.278  36.699  1.00 35.03 LIG 0.18  C 
ATOM      5  CB  PRO D   2      12.287  -8.647  36.223  1.00 35.34 LIG 0.04  C 
ATOM      6  CG  PRO D   2      12.075  -8.510  34.713  1.00 35.42 LIG 0.02  C 
ATOM      7  CD  PRO D   2      12.244  -7.087  34.297  1.00 35.14 LIG 0.13  C 
ENDROOT
BRANCH 4 8
ATOM      8  C   PRO D   2      12.270  -7.021  38.152  1.00 35.70 LIG 0.24  C 
ATOM      9 O    PRO D   2      13.286  -7.445  38.683  1.00 34.88 LIG-0.27  OA
ATOM     10  N   TRP D   3      11.308  -6.262  38.717  1.00 36.87 LIG-0.34  N 
ATOM     11 H    TRP D   3      10.727  -5.836  38.248  1.00 36.87 LIG 0.16  HD
BRANCH 10 12
ATOM     12  CA  TRP D   3      11.124  -6.060  40.197  1.00 37.56 LIG 0.19  C 
BRANCH 12 13
ATOM     13  C   TRP D   3      11.322  -7.186  41.279  1.00 38.92 LIG 0.20  C 
ATOM     14 OXT  TRP D   3      12.414  -7.837  41.390  1.00 41.38 LIG-0.65  OA
ATOM     15 O    TRP D   3      10.275  -7.445  42.051  1.00 40.06 LIG-0.65  OA
ENDBRANCH 12 13
BRANCH 12 16
ATOM     16  CB  TRP D   3       9.750  -5.341  40.464  1.00 36.55 LIG 0.08  C 
BRANCH 16 17
ATOM     17  CG  TRP D   3       9.417  -4.324  39.360  1.00 35.48 LIG-0.03  A 
ATOM     18  CD1 TRP D   3       8.632  -4.548  38.223  1.00 37.13 LIG 0.10  A 
ATOM     19  NE1 TRP D   3       8.574  -3.398  37.459  1.00 40.71 LIG-0.36  N 
ATOM     20 HE1  TRP D   3       8.149  -3.319  36.715  1.00 40.71 LIG 0.17  HD
ATOM     21  CE2 TRP D   3       9.298  -2.396  38.068  1.00 36.12 LIG 0.04  A 
ATOM     22  CD2 TRP D   3       9.855  -2.947  39.286  1.00 33.28 LIG-0.00  A 
ATOM     23  CZ2 TRP D   3       9.525  -1.063  37.638  1.00 34.49 LIG 0.03  A 
ATOM     24  CE3 TRP D   3      10.684  -2.136  40.102  1.00 31.46 LIG 0.01  A 
ATOM     25  CZ3 TRP D   3      10.913  -0.803  39.712  1.00 32.66 LIG 0.00  A 
ATOM     26  CH2 TRP D   3      10.330  -0.270  38.461  1.00 36.62 LIG 0.00  A 
ENDBRANCH 16 17
ENDBRANCH 12 16
ENDBRANCH 10 12
ENDBRANCH 4 8
BRANCH 1 27
ATOM     27  CA  TRP D   1      13.076  -4.654  34.224  1.00 34.78 LIG 0.28  C 
BRANCH 27 28
ATOM     28  CB  TRP D   1      14.230  -3.711  34.592  1.00 34.63 LIG 0.08  C 
BRANCH 28 29
ATOM     29  CG  TRP D   1      15.606  -4.257  34.108  1.00 37.87 LIG-0.03  A 
ATOM     30  CD1 TRP D   1      16.756  -4.450  34.873  1.00 40.68 LIG 0.10  A 
ATOM     31  NE1 TRP D   1      17.753  -4.996  34.090  1.00 42.18 LIG-0.36  N 
ATOM     32 HE1  TRP D   1      18.546  -5.195  34.358  1.00 42.18 LIG 0.17  HD
ATOM     33  CE2 TRP D   1      17.271  -5.171  32.801  1.00 41.11 LIG 0.04  A 
ATOM     34  CD2 TRP D   1      15.932  -4.714  32.777  1.00 38.74 LIG-0.00  A 
ATOM     35  CZ2 TRP D   1      17.918  -5.704  31.645  1.00 41.13 LIG 0.03  A 
ATOM     36  CE3 TRP D   1      15.206  -4.820  31.572  1.00 40.52 LIG 0.01  A 
ATOM     37  CZ3 TRP D   1      15.851  -5.342  30.422  1.00 41.02 LIG 0.00  A 
ATOM     38  CH2 TRP D   1      17.191  -5.784  30.479  1.00 39.74 LIG 0.00  A 
ENDBRANCH 28 29
ENDBRANCH 27 28
BRANCH 27 39
ATOM     39  N   TRP D   1      12.150  -3.937  33.273  1.00 33.45 LIG-0.07  N 
ATOM     40 H3   TRP D   1      11.819  -3.212  33.670  1.00 33.45 LIG 0.28  HD
ATOM     41 H2   TRP D   1      11.483  -4.479  33.041  1.00 33.45 LIG 0.28  HD
ATOM     42 H1   TRP D   1      12.601  -3.695  32.545  1.00 33.45 LIG 0.28  HD
ENDBRANCH 27 39
ENDBRANCH 1 27
TORSDOF 9
ENDMDL
MODEL 26
USER: ADFR SOLUTION from run 139
USER: SCORE 15.079658 LL:  -2.392 LR: -12.688 RR:   0.000 FEB: -10.003
USER: RMSD 8.797428
USER: SEED 138
USER: STATUS no improvement in best 14 clusters for 5 generations
USER: GENES 11
USER: genes 0 Translation |==|  0.39574 0.71078 0.59508
USER: genes 1 Rotation |==|  0.36981 0.03958 0.51909 0.64387
USER: genes 2 Torsion [N]-CA--C-[O] |==|  0.68262
USER: genes 3 Torsion [C]-N--CA-[CB] |==|  0.50055
USER: genes 4 Torsion [N]-CA--C-[OXT] |==|  0.97942
USER: genes 5 Torsion [N]-CA--CB-[CG] |==|  0.77540
USER: genes 6 Torsion [CA]-CB--CG-[CD1] |==|  0.23237
USER: genes 7 Torsion [N]-C--CA-[N] |==|  0.48359
USER: genes 8 Torsion [C]-CA--CB-[CG] |==|  0.76095
USER: genes 9 Torsion [CA]-CB--CG-[CD1] |==|  0.13873
USER: genes 10 Torsion [C]-CA--N-[H2] |==|  0.48248
ROOT
ATOM      1  C   TRP D   1       9.772  -4.497  37.692  1.00 35.88 LIG 0.25  C 
ATOM      2 O    TRP D   1      10.335  -5.178  36.761  1.00 38.57 LIG-0.27  OA
ATOM      3  N   PRO D   2       9.853  -3.249  37.945  1.00 34.89 LIG-0.34  N 
ATOM      4  CA  PRO D   2      10.548  -2.225  37.098  1.00 35.03 LIG 0.18  C 
ATOM      5  CB  PRO D   2      10.263  -0.975  37.883  1.00 35.34 LIG 0.04  C 
ATOM      6  CG  PRO D   2       8.840  -1.251  38.375  1.00 35.42 LIG 0.02  C 
ATOM      7  CD  PRO D   2       8.612  -2.721  38.488  1.00 35.14 LIG 0.13  C 
ENDROOT
BRANCH 4 8
ATOM      8  C   PRO D   2      12.017  -2.363  36.715  1.00 35.70 LIG 0.24  C 
ATOM      9 O    PRO D   2      12.900  -1.606  37.090  1.00 34.88 LIG-0.27  OA
ATOM     10  N   TRP D   3      12.150  -3.444  35.918  1.00 36.87 LIG-0.34  N 
ATOM     11 H    TRP D   3      11.536  -4.042  35.851  1.00 36.87 LIG 0.16  HD
BRANCH 10 12
ATOM     12  CA  TRP D   3      13.351  -3.743  35.061  1.00 37.56 LIG 0.19  C 
BRANCH 12 13
ATOM     13  C   TRP D   3      14.031  -2.708  34.090  1.00 38.92 LIG 0.20  C 
ATOM     14 OXT  TRP D   3      13.521  -1.562  33.854  1.00 41.38 LIG-0.65  OA
ATOM     15 O    TRP D   3      15.150  -3.106  33.502  1.00 40.06 LIG-0.65  OA
ENDBRANCH 12 13
BRANCH 12 16
ATOM     16  CB  TRP D   3      13.118  -5.089  34.279  1.00 36.55 LIG 0.08  C 
BRANCH 16 17
ATOM     17  CG  TRP D   3      13.409  -6.316  35.159  1.00 35.48 LIG-0.03  A 
ATOM     18  CD1 TRP D   3      12.534  -6.920  36.068  1.00 37.13 LIG 0.10  A 
ATOM     19  NE1 TRP D   3      13.160  -7.990  36.681  1.00 40.71 LIG-0.36  N 
ATOM     20 HE1  TRP D   3      12.804  -8.496  37.278  1.00 40.71 LIG 0.17  HD
ATOM     21  CE2 TRP D   3      14.441  -8.124  36.190  1.00 36.12 LIG 0.04  A 
ATOM     22  CD2 TRP D   3      14.641  -7.072  35.215  1.00 33.28 LIG-0.00  A 
ATOM     23  CZ2 TRP D   3      15.442  -9.068  36.538  1.00 34.49 LIG 0.03  A 
ATOM     24  CE3 TRP D   3      15.898  -6.949  34.570  1.00 31.46 LIG 0.01  A 
ATOM     25  CZ3 TRP D   3      16.906  -7.883  34.880  1.00 32.66 LIG 0.00  A 
ATOM     26  CH2 TRP D   3      16.670  -8.945  35.881  1.00 36.62 LIG 0.00  A 
ENDBRANCH 16 17
ENDBRANCH 12 16
ENDBRANCH 10 12
ENDBRANCH 4 8
BRANCH 1 27
ATOM     27  CA  TRP D   1       9.039  -5.231  38.857  1.00 34.78 LIG 0.28  C 
BRANCH 27 28
ATOM     28  CB  TRP D   1       9.828  -5.145  40.171  1.00 34.63 LIG 0.08  C 
BRANCH 28 29
ATOM     29  CG  TRP D   1      10.889  -6.280  40.290  1.00 37.87 LIG-0.03  A 
ATOM     30  CD1 TRP D   1      11.840  -6.651  39.341  1.00 40.68 LIG 0.10  A 
ATOM     31  NE1 TRP D   1      12.629  -7.669  39.840  1.00 42.18 LIG-0.36  N 
ATOM     32 HE1  TRP D   1      13.276  -8.050  39.422  1.00 42.18 LIG 0.17  HD
ATOM     33  CE2 TRP D   1      12.208  -7.977  41.126  1.00 41.11 LIG 0.04  A 
ATOM     34  CD2 TRP D   1      11.118  -7.130  41.436  1.00 38.74 LIG-0.00  A 
ATOM     35  CZ2 TRP D   1      12.710  -8.945  42.048  1.00 41.13 LIG 0.03  A 
ATOM     36  CE3 TRP D   1      10.531  -7.229  42.715  1.00 40.52 LIG 0.01  A 
ATOM     37  CZ3 TRP D   1      11.025  -8.195  43.628  1.00 41.02 LIG 0.00  A 
ATOM     38  CH2 TRP D   1      12.111  -9.030  43.284  1.00 39.74 LIG 0.00  A 
ENDBRANCH 28 29
ENDBRANCH 27 28
BRANCH 27 39
ATOM     39  N   TRP D   1       8.796  -6.685  38.533  1.00 33.45 LIG-0.07  N 
ATOM     40 H3   TRP D   1       8.220  -6.746  37.858  1.00 33.45 LIG 0.28  HD
ATOM     41 H2   TRP D   1       8.461  -7.097  39.247  1.00 33.45 LIG 0.28  HD
ATOM     42 H1   TRP D   1       9.564  -7.070  38.302  1.00 33.45 LIG 0.28  HD
ENDBRANCH 27 39
ENDBRANCH 1 27
TORSDOF 9
ENDMDL
MODEL 27
USER: ADFR SOLUTION from run 50
USER: SCORE 15.024721 LL:  -2.366 LR: -12.659 RR:   0.000 FEB:  -9.974
USER: RMSD 10.196887
USER: SEED 49
USER: STATUS no improvement in best 9 clusters for 5 generations
USER: GENES 11
USER: genes 0 Translation |==|  0.35986 0.69667 0.58690
USER: genes 1 Rotation |==|  0.08466 0.76197 0.59307 0.51427
USER: genes 2 Torsion [N]-CA--C-[O] |==|  0.73248
USER: genes 3 Torsion [C]-N--CA-[CB] |==|  0.13492
USER: genes 4 Torsion [N]-CA--C-[OXT] |==|  0.38809
USER: genes 5 Torsion [N]-CA--CB-[CG] |==|  0.32994
USER: genes 6 Torsion [CA]-CB--CG-[CD1] |==|  0.29890
USER: genes 7 Torsion [N]-C--CA-[N] |==|  0.40669
USER: genes 8 Torsion [C]-CA--CB-[CG] |==|  0.35144
USER: genes 9 Torsion [CA]-CB--CG-[CD1] |==|  0.11445
USER: genes 10 Torsion [C]-CA--N-[H2] |==|  0.41645
ROOT
ATOM      1  C   TRP D   1       8.696  -4.920  37.447  1.00 35.88 LIG 0.25  C 
ATOM      2 O    TRP D   1       8.228  -3.724  37.457  1.00 38.57 LIG-0.27  OA
ATOM      3  N   PRO D   2       8.075  -6.032  37.510  1.00 34.89 LIG-0.34  N 
ATOM      4  CA  PRO D   2       6.586  -6.210  37.477  1.00 35.03 LIG 0.18  C 
ATOM      5  CB  PRO D   2       6.484  -7.708  37.544  1.00 35.34 LIG 0.04  C 
ATOM      6  CG  PRO D   2       7.687  -8.126  36.695  1.00 35.42 LIG 0.02  C 
ATOM      7  CD  PRO D   2       8.742  -7.073  36.744  1.00 35.14 LIG 0.13  C 
ENDROOT
BRANCH 4 8
ATOM      8  C   PRO D   2       5.672  -5.508  38.474  1.00 35.70 LIG 0.24  C 
ATOM      9 O    PRO D   2       5.251  -6.019  39.501  1.00 34.88 LIG-0.27  OA
ATOM     10  N   TRP D   3       5.430  -4.258  38.024  1.00 36.87 LIG-0.34  N 
ATOM     11 H    TRP D   3       5.905  -3.894  37.407  1.00 36.87 LIG 0.16  HD
BRANCH 10 12
ATOM     12  CA  TRP D   3       4.332  -3.358  38.522  1.00 37.56 LIG 0.19  C 
BRANCH 12 13
ATOM     13  C   TRP D   3       4.073  -1.897  37.995  1.00 38.92 LIG 0.20  C 
ATOM     14 OXT  TRP D   3       2.895  -1.446  37.797  1.00 41.38 LIG-0.65  OA
ATOM     15 O    TRP D   3       5.150  -1.170  37.734  1.00 40.06 LIG-0.65  OA
ENDBRANCH 12 13
BRANCH 12 16
ATOM     16  CB  TRP D   3       4.347  -3.329  40.096  1.00 36.55 LIG 0.08  C 
BRANCH 16 17
ATOM     17  CG  TRP D   3       4.604  -1.912  40.636  1.00 35.48 LIG-0.03  A 
ATOM     18  CD1 TRP D   3       3.674  -1.070  41.254  1.00 37.13 LIG 0.10  A 
ATOM     19  NE1 TRP D   3       4.276   0.128  41.590  1.00 40.71 LIG-0.36  N 
ATOM     20 HE1  TRP D   3       3.882   0.790  41.973  1.00 40.71 LIG 0.17  HD
ATOM     21  CE2 TRP D   3       5.603   0.103  41.218  1.00 36.12 LIG 0.04  A 
ATOM     22  CD2 TRP D   3       5.854  -1.184  40.603  1.00 33.28 LIG-0.00  A 
ATOM     23  CZ2 TRP D   3       6.592   1.111  41.353  1.00 34.49 LIG 0.03  A 
ATOM     24  CE3 TRP D   3       7.144  -1.471  40.089  1.00 31.46 LIG 0.01  A 
ATOM     25  CZ3 TRP D   3       8.153  -0.499  40.226  1.00 32.66 LIG 0.00  A 
ATOM     26  CH2 TRP D   3       7.864   0.807  40.858  1.00 36.62 LIG 0.00  A 
ENDBRANCH 16 17
ENDBRANCH 12 16
ENDBRANCH 10 12
ENDBRANCH 4 8
BRANCH 1 27
ATOM     27  CA  TRP D   1      10.231  -5.155  37.595  1.00 34.78 LIG 0.28  C 
BRANCH 27 28
ATOM     28  CB  TRP D   1      10.683  -5.058  39.059  1.00 34.63 LIG 0.08  C 
BRANCH 28 29
ATOM     29  CG  TRP D   1      11.478  -6.321  39.509  1.00 37.87 LIG-0.03  A 
ATOM     30  CD1 TRP D   1      12.438  -7.020  38.780  1.00 40.68 LIG 0.10  A 
ATOM     31  NE1 TRP D   1      12.946  -8.052  39.544  1.00 42.18 LIG-0.36  N 
ATOM     32 HE1  TRP D   1      13.549  -8.611  39.290  1.00 42.18 LIG 0.17  HD
ATOM     33  CE2 TRP D   1      12.329  -8.042  40.785  1.00 41.11 LIG 0.04  A 
ATOM     34  CD2 TRP D   1      11.400  -6.974  40.795  1.00 38.74 LIG-0.00  A 
ATOM     35  CZ2 TRP D   1      12.520  -8.899  41.912  1.00 41.13 LIG 0.03  A 
ATOM     36  CE3 TRP D   1      10.663  -6.734  41.974  1.00 40.52 LIG 0.01  A 
ATOM     37  CZ3 TRP D   1      10.848  -7.589  43.090  1.00 41.02 LIG 0.00  A 
ATOM     38  CH2 TRP D   1      11.779  -8.650  43.045  1.00 39.74 LIG 0.00  A 
ENDBRANCH 28 29
ENDBRANCH 27 28
BRANCH 27 39
ATOM     39  N   TRP D   1      11.027  -4.169  36.777  1.00 33.45 LIG-0.07  N 
ATOM     40 H3   TRP D   1      11.166  -4.502  35.963  1.00 33.45 LIG 0.28  HD
ATOM     41 H2   TRP D   1      11.809  -4.016  37.173  1.00 33.45 LIG 0.28  HD
ATOM     42 H1   TRP D   1      10.575  -3.405  36.710  1.00 33.45 LIG 0.28  HD
ENDBRANCH 27 39
ENDBRANCH 1 27
TORSDOF 9
ENDMDL
MODEL 28
USER: ADFR SOLUTION from run 49
USER: SCORE 13.743050 LL:  -1.111 LR: -12.632 RR:   0.000 FEB:  -9.948
USER: RMSD 11.324201
USER: SEED 48
USER: STATUS no improvement in best 9 clusters for 5 generations
USER: GENES 11
USER: genes 0 Translation |==|  0.46250 0.75896 0.56475
USER: genes 1 Rotation |==|  0.31292 0.55506 0.04779 0.58647
USER: genes 2 Torsion [N]-CA--C-[O] |==|  0.93162
USER: genes 3 Torsion [C]-N--CA-[CB] |==|  0.33378
USER: genes 4 Torsion [N]-CA--C-[OXT] |==|  0.48505
USER: genes 5 Torsion [N]-CA--CB-[CG] |==|  0.70159
USER: genes 6 Torsion [CA]-CB--CG-[CD1] |==|  0.18114
USER: genes 7 Torsion [N]-C--CA-[N] |==|  0.91445
USER: genes 8 Torsion [C]-CA--CB-[CG] |==|  0.43391
USER: genes 9 Torsion [CA]-CB--CG-[CD1] |==|  0.80334
USER: genes 10 Torsion [C]-CA--N-[H2] |==|  0.99095
ROOT
ATOM      1  C   TRP D   1      11.775  -3.051  36.783  1.00 35.88 LIG 0.25  C 
ATOM      2 O    TRP D   1      12.839  -2.488  36.336  1.00 38.57 LIG-0.27  OA
ATOM      3  N   PRO D   2      11.447  -4.283  36.774  1.00 34.89 LIG-0.34  N 
ATOM      4  CA  PRO D   2      12.321  -5.422  36.340  1.00 35.03 LIG 0.18  C 
ATOM      5  CB  PRO D   2      11.407  -6.587  36.594  1.00 35.34 LIG 0.04  C 
ATOM      6  CG  PRO D   2      10.697  -6.136  37.872  1.00 35.42 LIG 0.02  C 
ATOM      7  CD  PRO D   2      10.658  -4.646  37.940  1.00 35.14 LIG 0.13  C 
ENDROOT
BRANCH 4 8
ATOM      8  C   PRO D   2      12.963  -5.461  34.958  1.00 35.70 LIG 0.24  C 
ATOM      9 O    PRO D   2      12.525  -4.873  33.980  1.00 34.88 LIG-0.27  OA
ATOM     10  N   TRP D   3      14.067  -6.234  35.022  1.00 36.87 LIG-0.34  N 
ATOM     11 H    TRP D   3      14.428  -6.456  35.770  1.00 36.87 LIG 0.16  HD
BRANCH 10 12
ATOM     12  CA  TRP D   3      14.797  -6.798  33.832  1.00 37.56 LIG 0.19  C 
BRANCH 12 13
ATOM     13  C   TRP D   3      14.800  -8.321  33.432  1.00 38.92 LIG 0.20  C 
ATOM     14 OXT  TRP D   3      15.350  -8.740  32.360  1.00 41.38 LIG-0.65  OA
ATOM     15 O    TRP D   3      14.169  -9.144  34.258  1.00 40.06 LIG-0.65  OA
ENDBRANCH 12 13
BRANCH 12 16
ATOM     16  CB  TRP D   3      16.280  -6.273  33.827  1.00 36.55 LIG 0.08  C 
BRANCH 16 17
ATOM     17  CG  TRP D   3      16.509  -5.229  32.720  1.00 35.48 LIG-0.03  A 
ATOM     18  CD1 TRP D   3      15.925  -3.961  32.632  1.00 37.13 LIG 0.10  A 
ATOM     19  NE1 TRP D   3      16.365  -3.320  31.489  1.00 40.71 LIG-0.36  N 
ATOM     20 HE1  TRP D   3      16.125  -2.533  31.240  1.00 40.71 LIG 0.17  HD
ATOM     21  CE2 TRP D   3      17.248  -4.132  30.810  1.00 36.12 LIG 0.04  A 
ATOM     22  CD2 TRP D   3      17.367  -5.363  31.563  1.00 33.28 LIG-0.00  A 
ATOM     23  CZ2 TRP D   3      17.931  -3.893  29.590  1.00 34.49 LIG 0.03  A 
ATOM     24  CE3 TRP D   3      18.193  -6.405  31.070  1.00 31.46 LIG 0.01  A 
ATOM     25  CZ3 TRP D   3      18.900  -6.191  29.871  1.00 32.66 LIG 0.00  A 
ATOM     26  CH2 TRP D   3      18.756  -4.922  29.125  1.00 36.62 LIG 0.00  A 
ENDBRANCH 16 17
ENDBRANCH 12 16
ENDBRANCH 10 12
ENDBRANCH 4 8
BRANCH 1 27
ATOM     27  CA  TRP D   1      10.559  -2.177  37.222  1.00 34.78 LIG 0.28  C 
BRANCH 27 28
ATOM     28  CB  TRP D   1      10.539  -1.952  38.740  1.00 34.63 LIG 0.08  C 
BRANCH 28 29
ATOM     29  CG  TRP D   1       9.751  -0.665  39.129  1.00 37.87 LIG-0.03  A 
ATOM     30  CD1 TRP D   1      10.135   0.658  38.916  1.00 40.68 LIG 0.10  A 
ATOM     31  NE1 TRP D   1       9.143   1.511  39.359  1.00 42.18 LIG-0.36  N 
ATOM     32 HE1  TRP D   1       9.172   2.369  39.326  1.00 42.18 LIG 0.17  HD
ATOM     33  CE2 TRP D   1       8.094   0.758  39.865  1.00 41.11 LIG 0.04  A 
ATOM     34  CD2 TRP D   1       8.444  -0.607  39.741  1.00 38.74 LIG-0.00  A 
ATOM     35  CZ2 TRP D   1       6.850   1.180  40.427  1.00 41.13 LIG 0.03  A 
ATOM     36  CE3 TRP D   1       7.514  -1.582  40.160  1.00 40.52 LIG 0.01  A 
ATOM     37  CZ3 TRP D   1       6.282  -1.162  40.724  1.00 41.02 LIG 0.00  A 
ATOM     38  CH2 TRP D   1       5.966   0.209  40.840  1.00 39.74 LIG 0.00  A 
ENDBRANCH 28 29
ENDBRANCH 27 28
BRANCH 27 39
ATOM     39  N   TRP D   1       9.248  -2.799  36.808  1.00 33.45 LIG-0.07  N 
ATOM     40 H3   TRP D   1       8.774  -3.001  37.533  1.00 33.45 LIG 0.28  HD
ATOM     41 H2   TRP D   1       9.405  -3.540  36.340  1.00 33.45 LIG 0.28  HD
ATOM     42 H1   TRP D   1       8.792  -2.223  36.307  1.00 33.45 LIG 0.28  HD
ENDBRANCH 27 39
ENDBRANCH 1 27
TORSDOF 9
ENDMDL
MODEL 29
USER: ADFR SOLUTION from run 141
USER: SCORE 13.765505 LL:  -1.174 LR: -12.592 RR:   0.000 FEB:  -9.907
USER: RMSD 10.466844
USER: SEED 140
USER: STATUS no improvement in best 2 clusters for 5 generations
USER: GENES 11
USER: genes 0 Translation |==|  0.35863 0.72513 0.64466
USER: genes 1 Rotation |==|  0.51871 0.62810 0.58524 0.97537
USER: genes 2 Torsion [N]-CA--C-[O] |==|  0.49804
USER: genes 3 Torsion [C]-N--CA-[CB] |==|  0.24495
USER: genes 4 Torsion [N]-CA--C-[OXT] |==|  0.95635
USER: genes 5 Torsion [N]-CA--CB-[CG] |==|  0.13517
USER: genes 6 Torsion [CA]-CB--CG-[CD1] |==|  0.04118
USER: genes 7 Torsion [N]-C--CA-[N] |==|  0.90053
USER: genes 8 Torsion [C]-CA--CB-[CG] |==|  0.17474
USER: genes 9 Torsion [CA]-CB--CG-[CD1] |==|  0.88714
USER: genes 10 Torsion [C]-CA--N-[H2] |==|  0.99090
ROOT
ATOM      1  C   TRP D   1       8.659  -4.066  39.180  1.00 35.88 LIG 0.25  C 
ATOM      2 O    TRP D   1       7.921  -4.591  40.090  1.00 38.57 LIG-0.27  OA
ATOM      3  N   PRO D   2       8.825  -2.837  38.882  1.00 34.89 LIG-0.34  N 
ATOM      4  CA  PRO D   2       8.276  -1.667  39.642  1.00 35.03 LIG 0.18  C 
ATOM      5  CB  PRO D   2       8.836  -0.527  38.840  1.00 35.34 LIG 0.04  C 
ATOM      6  CG  PRO D   2      10.213  -1.077  38.461  1.00 35.42 LIG 0.02  C 
ATOM      7  CD  PRO D   2      10.175  -2.568  38.413  1.00 35.14 LIG 0.13  C 
ENDROOT
BRANCH 4 8
ATOM      8  C   PRO D   2       6.785  -1.520  39.923  1.00 35.70 LIG 0.24  C 
ATOM      9 O    PRO D   2       6.291  -0.593  40.547  1.00 34.88 LIG-0.27  OA
ATOM     10  N   TRP D   3       6.141  -2.567  39.366  1.00 36.87 LIG-0.34  N 
ATOM     11 H    TRP D   3       6.513  -3.075  38.780  1.00 36.87 LIG 0.16  HD
BRANCH 10 12
ATOM     12  CA  TRP D   3       4.729  -2.981  39.683  1.00 37.56 LIG 0.19  C 
BRANCH 12 13
ATOM     13  C   TRP D   3       4.247  -4.475  39.809  1.00 38.92 LIG 0.20  C 
ATOM     14 OXT  TRP D   3       4.942  -5.451  39.369  1.00 41.38 LIG-0.65  OA
ATOM     15 O    TRP D   3       3.060  -4.660  40.369  1.00 40.06 LIG-0.65  OA
ENDBRANCH 12 13
BRANCH 12 16
ATOM     16  CB  TRP D   3       3.730  -2.208  38.743  1.00 36.55 LIG 0.08  C 
BRANCH 16 17
ATOM     17  CG  TRP D   3       4.166  -2.279  37.270  1.00 35.48 LIG-0.03  A 
ATOM     18  CD1 TRP D   3       5.112  -3.149  36.718  1.00 37.13 LIG 0.10  A 
ATOM     19  NE1 TRP D   3       5.243  -2.902  35.364  1.00 40.71 LIG-0.36  N 
ATOM     20 HE1  TRP D   3       5.775  -3.320  34.834  1.00 40.71 LIG 0.17  HD
ATOM     21  CE2 TRP D   3       4.390  -1.885  34.991  1.00 36.12 LIG 0.04  A 
ATOM     22  CD2 TRP D   3       3.685  -1.457  36.182  1.00 33.28 LIG-0.00  A 
ATOM     23  CZ2 TRP D   3       4.200  -1.295  33.715  1.00 34.49 LIG 0.03  A 
ATOM     24  CE3 TRP D   3       2.759  -0.386  36.096  1.00 31.46 LIG 0.01  A 
ATOM     25  CZ3 TRP D   3       2.534   0.208  34.839  1.00 32.66 LIG 0.00  A 
ATOM     26  CH2 TRP D   3       3.272  -0.252  33.642  1.00 36.62 LIG 0.00  A 
ENDBRANCH 16 17
ENDBRANCH 12 16
ENDBRANCH 10 12
ENDBRANCH 4 8
BRANCH 1 27
ATOM     27  CA  TRP D   1       9.319  -4.973  38.095  1.00 34.78 LIG 0.28  C 
BRANCH 27 28
ATOM     28  CB  TRP D   1      10.807  -5.215  38.383  1.00 34.63 LIG 0.08  C 
BRANCH 28 29
ATOM     29  CG  TRP D   1      11.025  -5.980  39.723  1.00 37.87 LIG-0.03  A 
ATOM     30  CD1 TRP D   1      10.345  -5.791  40.925  1.00 40.68 LIG 0.10  A 
ATOM     31  NE1 TRP D   1      10.795  -6.697  41.865  1.00 42.18 LIG-0.36  N 
ATOM     32 HE1  TRP D   1      10.513  -6.756  42.676  1.00 42.18 LIG 0.17  HD
ATOM     33  CE2 TRP D   1      11.773  -7.495  41.292  1.00 41.11 LIG 0.04  A 
ATOM     34  CD2 TRP D   1      11.945  -7.070  39.953  1.00 38.74 LIG-0.00  A 
ATOM     35  CZ2 TRP D   1      12.525  -8.571  41.854  1.00 41.13 LIG 0.03  A 
ATOM     36  CE3 TRP D   1      12.872  -7.758  39.142  1.00 40.52 LIG 0.01  A 
ATOM     37  CZ3 TRP D   1      13.624  -8.821  39.703  1.00 41.02 LIG 0.00  A 
ATOM     38  CH2 TRP D   1      13.432  -9.217  41.045  1.00 39.74 LIG 0.00  A 
ENDBRANCH 28 29
ENDBRANCH 27 28
BRANCH 27 39
ATOM     39  N   TRP D   1       9.184  -4.378  36.715  1.00 33.45 LIG-0.07  N 
ATOM     40 H3   TRP D   1       9.992  -4.195  36.390  1.00 33.45 LIG 0.28  HD
ATOM     41 H2   TRP D   1       8.705  -3.629  36.759  1.00 33.45 LIG 0.28  HD
ATOM     42 H1   TRP D   1       8.775  -4.960  36.180  1.00 33.45 LIG 0.28  HD
ENDBRANCH 27 39
ENDBRANCH 1 27
TORSDOF 9
ENDMDL
MODEL 30
USER: ADFR SOLUTION from run 27
USER: SCORE 13.655705 LL:  -1.073 LR: -12.583 RR:   0.000 FEB:  -9.898
USER: RMSD 11.274448
USER: SEED 26
USER: STATUS no improvement in best 18 clusters for 5 generations
USER: GENES 11
USER: genes 0 Translation |==|  0.56024 0.72364 0.45419
USER: genes 1 Rotation |==|  0.43229 0.72635 0.07635 0.62126
USER: genes 2 Torsion [N]-CA--C-[O] |==|  0.87294
USER: genes 3 Torsion [C]-N--CA-[CB] |==|  0.66917
USER: genes 4 Torsion [N]-CA--C-[OXT] |==|  0.11845
USER: genes 5 Torsion [N]-CA--CB-[CG] |==|  0.81138
USER: genes 6 Torsion [CA]-CB--CG-[CD1] |==|  0.69156
USER: genes 7 Torsion [N]-C--CA-[N] |==|  0.91932
USER: genes 8 Torsion [C]-CA--CB-[CG] |==|  0.43877
USER: genes 9 Torsion [CA]-CB--CG-[CD1] |==|  0.47681
USER: genes 10 Torsion [C]-CA--N-[H2] |==|  0.93737
ROOT
ATOM      1  C   TRP D   1      14.707  -4.111  33.466  1.00 35.88 LIG 0.25  C 
ATOM      2 O    TRP D   1      15.879  -3.695  33.784  1.00 38.57 LIG-0.27  OA
ATOM      3  N   PRO D   2      14.352  -4.874  32.507  1.00 34.89 LIG-0.34  N 
ATOM      4  CA  PRO D   2      15.274  -5.596  31.571  1.00 35.03 LIG 0.18  C 
ATOM      5  CB  PRO D   2      14.283  -6.338  30.720  1.00 35.34 LIG 0.04  C 
ATOM      6  CG  PRO D   2      13.217  -6.704  31.756  1.00 35.42 LIG 0.02  C 
ATOM      7  CD  PRO D   2      13.216  -5.707  32.866  1.00 35.14 LIG 0.13  C 
ENDROOT
BRANCH 4 8
ATOM      8  C   PRO D   2      16.325  -4.858  30.751  1.00 35.70 LIG 0.24  C 
ATOM      9 O    PRO D   2      16.113  -3.828  30.127  1.00 34.88 LIG-0.27  OA
ATOM     10  N   TRP D   3      17.492  -5.530  30.847  1.00 36.87 LIG-0.34  N 
ATOM     11 H    TRP D   3      17.627  -6.128  31.450  1.00 36.87 LIG 0.16  HD
BRANCH 10 12
ATOM     12  CA  TRP D   3      18.679  -5.335  29.942  1.00 37.56 LIG 0.19  C 
BRANCH 12 13
ATOM     13  C   TRP D   3      18.834  -4.145  28.924  1.00 38.92 LIG 0.20  C 
ATOM     14 OXT  TRP D   3      18.525  -2.945  29.230  1.00 41.38 LIG-0.65  OA
ATOM     15 O    TRP D   3      19.275  -4.463  27.715  1.00 40.06 LIG-0.65  OA
ENDBRANCH 12 13
BRANCH 12 16
ATOM     16  CB  TRP D   3      18.997  -6.682  29.193  1.00 36.55 LIG 0.08  C 
BRANCH 16 17
ATOM     17  CG  TRP D   3      19.510  -7.763  30.160  1.00 35.48 LIG-0.03  A 
ATOM     18  CD1 TRP D   3      20.806  -8.287  30.218  1.00 37.13 LIG 0.10  A 
ATOM     19  NE1 TRP D   3      20.879  -9.249  31.208  1.00 40.71 LIG-0.36  N 
ATOM     20 HE1  TRP D   3      21.582  -9.701  31.408  1.00 40.71 LIG 0.17  HD
ATOM     21  CE2 TRP D   3      19.654  -9.374  31.828  1.00 36.12 LIG 0.04  A 
ATOM     22  CD2 TRP D   3      18.750  -8.442  31.187  1.00 33.28 LIG-0.00  A 
ATOM     23  CZ2 TRP D   3      19.265 -10.241  32.881  1.00 34.49 LIG 0.03  A 
ATOM     24  CE3 TRP D   3      17.396  -8.383  31.606  1.00 31.46 LIG 0.01  A 
ATOM     25  CZ3 TRP D   3      16.984  -9.218  32.662  1.00 32.66 LIG 0.00  A 
ATOM     26  CH2 TRP D   3      17.932 -10.160  33.296  1.00 36.62 LIG 0.00  A 
ENDBRANCH 16 17
ENDBRANCH 12 16
ENDBRANCH 10 12
ENDBRANCH 4 8
BRANCH 1 27
ATOM     27  CA  TRP D   1      13.450  -3.488  34.148  1.00 34.78 LIG 0.28  C 
BRANCH 27 28
ATOM     28  CB  TRP D   1      12.976  -4.327  35.343  1.00 34.63 LIG 0.08  C 
BRANCH 28 29
ATOM     29  CG  TRP D   1      12.120  -3.490  36.340  1.00 37.87 LIG-0.03  A 
ATOM     30  CD1 TRP D   1      11.400  -3.960  37.438  1.00 40.68 LIG 0.10  A 
ATOM     31  NE1 TRP D   1      10.812  -2.901  38.101  1.00 42.18 LIG-0.36  N 
ATOM     32 HE1  TRP D   1      10.321  -2.964  38.804  1.00 42.18 LIG 0.17  HD
ATOM     33  CE2 TRP D   1      11.141  -1.722  37.449  1.00 41.11 LIG 0.04  A 
ATOM     34  CD2 TRP D   1      11.954  -2.055  36.340  1.00 38.74 LIG-0.00  A 
ATOM     35  CZ2 TRP D   1      10.781  -0.374  37.756  1.00 41.13 LIG 0.03  A 
ATOM     36  CE3 TRP D   1      12.450  -1.011  35.531  1.00 40.52 LIG 0.01  A 
ATOM     37  CZ3 TRP D   1      12.087   0.327  35.832  1.00 41.02 LIG 0.00  A 
ATOM     38  CH2 TRP D   1      11.268   0.625  36.943  1.00 39.74 LIG 0.00  A 
ENDBRANCH 28 29
ENDBRANCH 27 28
BRANCH 27 39
ATOM     39  N   TRP D   1      12.305  -3.341  33.176  1.00 33.45 LIG-0.07  N 
ATOM     40 H3   TRP D   1      11.749  -4.031  33.265  1.00 33.45 LIG 0.28  HD
ATOM     41 H2   TRP D   1      12.622  -3.320  32.344  1.00 33.45 LIG 0.28  HD
ATOM     42 H1   TRP D   1      11.867  -2.585  33.345  1.00 33.45 LIG 0.28  HD
ENDBRANCH 27 39
ENDBRANCH 1 27
TORSDOF 9
ENDMDL
MODEL 31
USER: ADFR SOLUTION from run 12
USER: SCORE 13.723623 LL:  -1.189 LR: -12.535 RR:   0.000 FEB:  -9.850
USER: RMSD 11.090779
USER: SEED 36235
USER: STATUS no improvement in best 11 clusters for 5 generations
USER: GENES 11
USER: genes 0 Translation |==|  0.45602 0.76754 0.57589
USER: genes 1 Rotation |==|  0.34850 0.60364 0.05914 0.64817
USER: genes 2 Torsion [N]-CA--C-[O] |==|  0.14470
USER: genes 3 Torsion [C]-N--CA-[CB] |==|  0.17318
USER: genes 4 Torsion [N]-CA--C-[OXT] |==|  0.08098
USER: genes 5 Torsion [N]-CA--CB-[CG] |==|  0.12295
USER: genes 6 Torsion [CA]-CB--CG-[CD1] |==|  0.56981
USER: genes 7 Torsion [N]-C--CA-[N] |==|  0.90682
USER: genes 8 Torsion [C]-CA--CB-[CG] |==|  0.53662
USER: genes 9 Torsion [CA]-CB--CG-[CD1] |==|  0.25425
USER: genes 10 Torsion [C]-CA--N-[H2] |==|  0.36349
ROOT
ATOM      1  C   TRP D   1      11.581  -2.794  37.117  1.00 35.88 LIG 0.25  C 
ATOM      2 O    TRP D   1      12.577  -1.994  36.987  1.00 38.57 LIG-0.27  OA
ATOM      3  N   PRO D   2      11.451  -3.997  36.715  1.00 34.89 LIG-0.34  N 
ATOM      4  CA  PRO D   2      12.525  -4.835  36.087  1.00 35.03 LIG 0.18  C 
ATOM      5  CB  PRO D   2      11.786  -6.126  35.881  1.00 35.34 LIG 0.04  C 
ATOM      6  CG  PRO D   2      10.912  -6.173  37.136  1.00 35.42 LIG 0.02  C 
ATOM      7  CD  PRO D   2      10.635  -4.789  37.621  1.00 35.14 LIG 0.13  C 
ENDROOT
BRANCH 4 8
ATOM      8  C   PRO D   2      13.276  -4.375  34.843  1.00 35.70 LIG 0.24  C 
ATOM      9 O    PRO D   2      13.828  -3.290  34.734  1.00 34.88 LIG-0.27  OA
ATOM     10  N   TRP D   3      13.222  -5.361  33.923  1.00 36.87 LIG-0.34  N 
ATOM     11 H    TRP D   3      12.994  -6.165  34.126  1.00 36.87 LIG 0.16  HD
BRANCH 10 12
ATOM     12  CA  TRP D   3      13.542  -5.198  32.462  1.00 37.56 LIG 0.19  C 
BRANCH 12 13
ATOM     13  C   TRP D   3      13.196  -6.260  31.352  1.00 38.92 LIG 0.20  C 
ATOM     14 OXT  TRP D   3      12.196  -7.046  31.453  1.00 41.38 LIG-0.65  OA
ATOM     15 O    TRP D   3      14.024  -6.316  30.319  1.00 40.06 LIG-0.65  OA
ENDBRANCH 12 13
BRANCH 12 16
ATOM     16  CB  TRP D   3      15.047  -4.770  32.296  1.00 36.55 LIG 0.08  C 
BRANCH 16 17
ATOM     17  CG  TRP D   3      15.975  -5.594  33.205  1.00 35.48 LIG-0.03  A 
ATOM     18  CD1 TRP D   3      17.228  -5.207  33.693  1.00 37.13 LIG 0.10  A 
ATOM     19  NE1 TRP D   3      17.764  -6.220  34.465  1.00 40.71 LIG-0.36  N 
ATOM     20 HE1  TRP D   3      18.530  -6.193  34.855  1.00 40.71 LIG 0.17  HD
ATOM     21  CE2 TRP D   3      16.887  -7.282  34.515  1.00 36.12 LIG 0.04  A 
ATOM     22  CD2 TRP D   3      15.730  -6.922  33.721  1.00 33.28 LIG-0.00  A 
ATOM     23  CZ2 TRP D   3      17.025  -8.531  35.174  1.00 34.49 LIG 0.03  A 
ATOM     24  CE3 TRP D   3      14.673  -7.855  33.567  1.00 31.46 LIG 0.01  A 
ATOM     25  CZ3 TRP D   3      14.772  -9.096  34.225  1.00 32.66 LIG 0.00  A 
ATOM     26  CH2 TRP D   3      15.967  -9.434  35.028  1.00 36.62 LIG 0.00  A 
ENDBRANCH 16 17
ENDBRANCH 12 16
ENDBRANCH 10 12
ENDBRANCH 4 8
BRANCH 1 27
ATOM     27  CA  TRP D   1      10.211  -2.252  37.632  1.00 34.78 LIG 0.28  C 
BRANCH 27 28
ATOM     28  CB  TRP D   1      10.002  -2.557  39.121  1.00 34.63 LIG 0.08  C 
BRANCH 28 29
ATOM     29  CG  TRP D   1       8.527  -2.321  39.564  1.00 37.87 LIG-0.03  A 
ATOM     30  CD1 TRP D   1       7.490  -3.253  39.582  1.00 40.68 LIG 0.10  A 
ATOM     31  NE1 TRP D   1       6.345  -2.669  40.086  1.00 42.18 LIG-0.36  N 
ATOM     32 HE1  TRP D   1       5.586  -3.062  40.184  1.00 42.18 LIG 0.17  HD
ATOM     33  CE2 TRP D   1       6.615  -1.348  40.409  1.00 41.11 LIG 0.04  A 
ATOM     34  CD2 TRP D   1       7.970  -1.096  40.090  1.00 38.74 LIG-0.00  A 
ATOM     35  CZ2 TRP D   1       5.762  -0.346  40.964  1.00 41.13 LIG 0.03  A 
ATOM     36  CE3 TRP D   1       8.499   0.184  40.362  1.00 40.52 LIG 0.01  A 
ATOM     37  CZ3 TRP D   1       7.650   1.180  40.906  1.00 41.02 LIG 0.00  A 
ATOM     38  CH2 TRP D   1       6.299   0.897  41.207  1.00 39.74 LIG 0.00  A 
ENDBRANCH 28 29
ENDBRANCH 27 28
BRANCH 27 39
ATOM     39  N   TRP D   1       9.055  -2.828  36.853  1.00 33.45 LIG-0.07  N 
ATOM     40 H3   TRP D   1       8.698  -2.195  36.340  1.00 33.45 LIG 0.28  HD
ATOM     41 H2   TRP D   1       8.440  -3.136  37.417  1.00 33.45 LIG 0.28  HD
ATOM     42 H1   TRP D   1       9.346  -3.495  36.340  1.00 33.45 LIG 0.28  HD
ENDBRANCH 27 39
ENDBRANCH 1 27
TORSDOF 9
ENDMDL
MODEL 32
USER: ADFR SOLUTION from run 113
USER: SCORE 14.318067 LL:  -1.822 LR: -12.496 RR:   0.000 FEB:  -9.811
USER: RMSD 9.211216
USER: SEED 112
USER: STATUS no improvement in best 8 clusters for 5 generations
USER: GENES 11
USER: genes 0 Translation |==|  0.60344 0.65277 0.49101
USER: genes 1 Rotation |==|  0.45406 0.58570 0.88167 0.80801
USER: genes 2 Torsion [N]-CA--C-[O] |==|  0.81410
USER: genes 3 Torsion [C]-N--CA-[CB] |==|  0.57956
USER: genes 4 Torsion [N]-CA--C-[OXT] |==|  0.30778
USER: genes 5 Torsion [N]-CA--CB-[CG] |==|  0.79394
USER: genes 6 Torsion [CA]-CB--CG-[CD1] |==|  0.98913
USER: genes 7 Torsion [N]-C--CA-[N] |==|  0.43547
USER: genes 8 Torsion [C]-CA--CB-[CG] |==|  0.44792
USER: genes 9 Torsion [CA]-CB--CG-[CD1] |==|  0.89519
USER: genes 10 Torsion [C]-CA--N-[H2] |==|  0.40148
ROOT
ATOM      1  C   TRP D   1      16.003  -6.237  34.570  1.00 35.88 LIG 0.25  C 
ATOM      2 O    TRP D   1      16.424  -7.160  35.357  1.00 38.57 LIG-0.27  OA
ATOM      3  N   PRO D   2      14.809  -5.853  34.339  1.00 34.89 LIG-0.34  N 
ATOM      4  CA  PRO D   2      13.580  -6.322  35.059  1.00 35.03 LIG 0.18  C 
ATOM      5  CB  PRO D   2      12.526  -5.497  34.377  1.00 35.34 LIG 0.04  C 
ATOM      6  CG  PRO D   2      13.272  -4.177  34.164  1.00 35.42 LIG 0.02  C 
ATOM      7  CD  PRO D   2      14.739  -4.427  34.061  1.00 35.14 LIG 0.13  C 
ENDROOT
BRANCH 4 8
ATOM      8  C   PRO D   2      13.215  -7.799  35.145  1.00 35.70 LIG 0.24  C 
ATOM      9 O    PRO D   2      12.883  -8.483  34.188  1.00 34.88 LIG-0.27  OA
ATOM     10  N   TRP D   3      13.328  -8.193  36.431  1.00 36.87 LIG-0.34  N 
ATOM     11 H    TRP D   3      13.750  -7.725  37.017  1.00 36.87 LIG 0.16  HD
BRANCH 10 12
ATOM     12  CA  TRP D   3      12.753  -9.461  37.001  1.00 37.56 LIG 0.19  C 
BRANCH 12 13
ATOM     13  C   TRP D   3      11.577 -10.276  36.346  1.00 38.92 LIG 0.20  C 
ATOM     14 OXT  TRP D   3      11.757 -11.425  35.820  1.00 41.38 LIG-0.65  OA
ATOM     15 O    TRP D   3      10.389  -9.687  36.340  1.00 40.06 LIG-0.65  OA
ENDBRANCH 12 13
BRANCH 12 16
ATOM     16  CB  TRP D   3      12.433  -9.255  38.528  1.00 36.55 LIG 0.08  C 
BRANCH 16 17
ATOM     17  CG  TRP D   3      13.713  -9.243  39.381  1.00 35.48 LIG-0.03  A 
ATOM     18  CD1 TRP D   3      15.019  -9.466  38.932  1.00 37.13 LIG 0.10  A 
ATOM     19  NE1 TRP D   3      15.900  -9.387  39.995  1.00 40.71 LIG-0.36  N 
ATOM     20 HE1  TRP D   3      16.751  -9.499  39.942  1.00 40.71 LIG 0.17  HD
ATOM     21  CE2 TRP D   3      15.209  -9.102  41.153  1.00 36.12 LIG 0.04  A 
ATOM     22  CD2 TRP D   3      13.807  -9.003  40.804  1.00 33.28 LIG-0.00  A 
ATOM     23  CZ2 TRP D   3      15.698  -8.945  42.475  1.00 34.49 LIG 0.03  A 
ATOM     24  CE3 TRP D   3      12.851  -8.750  41.821  1.00 31.46 LIG 0.01  A 
ATOM     25  CZ3 TRP D   3      13.308  -8.570  43.141  1.00 32.66 LIG 0.00  A 
ATOM     26  CH2 TRP D   3      14.747  -8.678  43.465  1.00 36.62 LIG 0.00  A 
ENDBRANCH 16 17
ENDBRANCH 12 16
ENDBRANCH 10 12
ENDBRANCH 4 8
BRANCH 1 27
ATOM     27  CA  TRP D   1      16.984  -5.577  33.552  1.00 34.78 LIG 0.28  C 
BRANCH 27 28
ATOM     28  CB  TRP D   1      16.996  -6.319  32.209  1.00 34.63 LIG 0.08  C 
BRANCH 28 29
ATOM     29  CG  TRP D   1      17.580  -5.441  31.062  1.00 37.87 LIG-0.03  A 
ATOM     30  CD1 TRP D   1      17.400  -4.072  30.870  1.00 40.68 LIG 0.10  A 
ATOM     31  NE1 TRP D   1      18.119  -3.656  29.767  1.00 42.18 LIG-0.36  N 
ATOM     32 HE1  TRP D   1      18.150  -2.851  29.467  1.00 42.18 LIG 0.17  HD
ATOM     33  CE2 TRP D   1      18.783  -4.745  29.223  1.00 41.11 LIG 0.04  A 
ATOM     34  CD2 TRP D   1      18.463  -5.879  30.006  1.00 38.74 LIG-0.00  A 
ATOM     35  CZ2 TRP D   1      19.650  -4.818  28.090  1.00 41.13 LIG 0.03  A 
ATOM     36  CE3 TRP D   1      19.050  -7.117  29.669  1.00 40.52 LIG 0.01  A 
ATOM     37  CZ3 TRP D   1      19.905  -7.191  28.540  1.00 41.02 LIG 0.00  A 
ATOM     38  CH2 TRP D   1      20.199  -6.041  27.776  1.00 39.74 LIG 0.00  A 
ENDBRANCH 28 29
ENDBRANCH 27 28
BRANCH 27 39
ATOM     39  N   TRP D   1      18.393  -5.526  34.090  1.00 33.45 LIG-0.07  N 
ATOM     40 H3   TRP D   1      18.539  -4.732  34.465  1.00 33.45 LIG 0.28  HD
ATOM     41 H2   TRP D   1      18.970  -5.651  33.424  1.00 33.45 LIG 0.28  HD
ATOM     42 H1   TRP D   1      18.502  -6.166  34.699  1.00 33.45 LIG 0.28  HD
ENDBRANCH 27 39
ENDBRANCH 1 27
TORSDOF 9
ENDMDL
MODEL 33
USER: ADFR SOLUTION from run 77
USER: SCORE 14.155077 LL:  -1.659 LR: -12.496 RR:   0.000 FEB:  -9.811
USER: RMSD 10.843116
USER: SEED 76
USER: STATUS no improvement in best 18 clusters for 5 generations
USER: GENES 11
USER: genes 0 Translation |==|  0.55413 0.73350 0.45053
USER: genes 1 Rotation |==|  0.38841 0.67215 0.05159 0.58270
USER: genes 2 Torsion [N]-CA--C-[O] |==|  0.70201
USER: genes 3 Torsion [C]-N--CA-[CB] |==|  0.79066
USER: genes 4 Torsion [N]-CA--C-[OXT] |==|  0.05373
USER: genes 5 Torsion [N]-CA--CB-[CG] |==|  0.98976
USER: genes 6 Torsion [CA]-CB--CG-[CD1] |==|  0.34595
USER: genes 7 Torsion [N]-C--CA-[N] |==|  0.91013
USER: genes 8 Torsion [C]-CA--CB-[CG] |==|  0.45588
USER: genes 9 Torsion [CA]-CB--CG-[CD1] |==|  0.94803
USER: genes 10 Torsion [C]-CA--N-[H2] |==|  0.89654
ROOT
ATOM      1  C   TRP D   1      14.524  -3.815  33.356  1.00 35.88 LIG 0.25  C 
ATOM      2 O    TRP D   1      15.741  -3.406  33.368  1.00 38.57 LIG-0.27  OA
ATOM      3  N   PRO D   2      14.005  -4.793  32.723  1.00 34.89 LIG-0.34  N 
ATOM      4  CA  PRO D   2      14.752  -5.812  31.916  1.00 35.03 LIG 0.18  C 
ATOM      5  CB  PRO D   2      13.622  -6.697  31.470  1.00 35.34 LIG 0.04  C 
ATOM      6  CG  PRO D   2      12.724  -6.680  32.709  1.00 35.42 LIG 0.02  C 
ATOM      7  CD  PRO D   2      12.920  -5.411  33.469  1.00 35.14 LIG 0.13  C 
ENDROOT
BRANCH 4 8
ATOM      8  C   PRO D   2      15.678  -5.410  30.774  1.00 35.70 LIG 0.24  C 
ATOM      9 O    PRO D   2      15.420  -5.570  29.590  1.00 34.88 LIG-0.27  OA
ATOM     10  N   TRP D   3      16.792  -4.861  31.301  1.00 36.87 LIG-0.34  N 
ATOM     11 H    TRP D   3      16.830  -4.599  32.119  1.00 36.87 LIG 0.16  HD
BRANCH 10 12
ATOM     12  CA  TRP D   3      18.081  -4.637  30.557  1.00 37.56 LIG 0.19  C 
BRANCH 12 13
ATOM     13  C   TRP D   3      18.203  -3.822  29.215  1.00 38.92 LIG 0.20  C 
ATOM     14 OXT  TRP D   3      17.307  -2.994  28.840  1.00 41.38 LIG-0.65  OA
ATOM     15 O    TRP D   3      19.275  -4.070  28.476  1.00 40.06 LIG-0.65  OA
ENDBRANCH 12 13
BRANCH 12 16
ATOM     16  CB  TRP D   3      18.834  -6.008  30.383  1.00 36.55 LIG 0.08  C 
BRANCH 16 17
ATOM     17  CG  TRP D   3      18.096  -7.156  31.092  1.00 35.48 LIG-0.03  A 
ATOM     18  CD1 TRP D   3      17.662  -8.354  30.516  1.00 37.13 LIG 0.10  A 
ATOM     19  NE1 TRP D   3      17.027  -9.129  31.468  1.00 40.71 LIG-0.36  N 
ATOM     20 HE1  TRP D   3      16.678  -9.902  31.325  1.00 40.71 LIG 0.17  HD
ATOM     21  CE2 TRP D   3      17.036  -8.477  32.682  1.00 36.12 LIG 0.04  A 
ATOM     22  CD2 TRP D   3      17.709  -7.210  32.485  1.00 33.28 LIG-0.00  A 
ATOM     23  CZ2 TRP D   3      16.490  -8.887  33.926  1.00 34.49 LIG 0.03  A 
ATOM     24  CE3 TRP D   3      17.831  -6.308  33.573  1.00 31.46 LIG 0.01  A 
ATOM     25  CZ3 TRP D   3      17.317  -6.695  34.826  1.00 32.66 LIG 0.00  A 
ATOM     26  CH2 TRP D   3      16.633  -7.996  34.994  1.00 36.62 LIG 0.00  A 
ENDBRANCH 16 17
ENDBRANCH 12 16
ENDBRANCH 10 12
ENDBRANCH 4 8
BRANCH 1 27
ATOM     27  CA  TRP D   1      13.404  -2.941  34.000  1.00 34.78 LIG 0.28  C 
BRANCH 27 28
ATOM     28  CB  TRP D   1      13.047  -3.422  35.413  1.00 34.63 LIG 0.08  C 
BRANCH 28 29
ATOM     29  CG  TRP D   1      12.241  -2.352  36.209  1.00 37.87 LIG-0.03  A 
ATOM     30  CD1 TRP D   1      12.151  -0.987  35.938  1.00 40.68 LIG 0.10  A 
ATOM     31  NE1 TRP D   1      11.301  -0.385  36.844  1.00 42.18 LIG-0.36  N 
ATOM     32 HE1  TRP D   1      11.103   0.452  36.862  1.00 42.18 LIG 0.17  HD
ATOM     33  CE2 TRP D   1      10.819  -1.346  37.719  1.00 41.11 LIG 0.04  A 
ATOM     34  CD2 TRP D   1      11.392  -2.587  37.353  1.00 38.74 LIG-0.00  A 
ATOM     35  CZ2 TRP D   1       9.912  -1.217  38.815  1.00 41.13 LIG 0.03  A 
ATOM     36  CE3 TRP D   1      11.025  -3.739  38.081  1.00 40.52 LIG 0.01  A 
ATOM     37  CZ3 TRP D   1      10.130  -3.609  39.174  1.00 41.02 LIG 0.00  A 
ATOM     38  CH2 TRP D   1       9.582  -2.354  39.517  1.00 39.74 LIG 0.00  A 
ENDBRANCH 28 29
ENDBRANCH 27 28
BRANCH 27 39
ATOM     39  N   TRP D   1      12.150  -2.935  33.161  1.00 33.45 LIG-0.07  N 
ATOM     40 H3   TRP D   1      11.669  -3.662  33.340  1.00 33.45 LIG 0.28  HD
ATOM     41 H2   TRP D   1      12.370  -2.930  32.298  1.00 33.45 LIG 0.28  HD
ATOM     42 H1   TRP D   1      11.670  -2.209  33.348  1.00 33.45 LIG 0.28  HD
ENDBRANCH 27 39
ENDBRANCH 1 27
TORSDOF 9
ENDMDL
MODEL 34
USER: ADFR SOLUTION from run 139
USER: SCORE 14.439817 LL:  -1.959 LR: -12.481 RR:   0.000 FEB:  -9.796
USER: RMSD 8.465428
USER: SEED 138
USER: STATUS no improvement in best 14 clusters for 5 generations
USER: GENES 11
USER: genes 0 Translation |==|  0.43814 0.69040 0.56920
USER: genes 1 Rotation |==|  0.31162 0.09696 0.52229 0.72710
USER: genes 2 Torsion [N]-CA--C-[O] |==|  0.71728
USER: genes 3 Torsion [C]-N--CA-[CB] |==|  0.13866
USER: genes 4 Torsion [N]-CA--C-[OXT] |==|  0.99634
USER: genes 5 Torsion [N]-CA--CB-[CG] |==|  0.61658
USER: genes 6 Torsion [CA]-CB--CG-[CD1] |==|  0.15845
USER: genes 7 Torsion [N]-C--CA-[N] |==|  0.42901
USER: genes 8 Torsion [C]-CA--CB-[CG] |==|  0.47871
USER: genes 9 Torsion [CA]-CB--CG-[CD1] |==|  0.95852
USER: genes 10 Torsion [C]-CA--N-[H2] |==|  0.53824
ROOT
ATOM      1  C   TRP D   1      11.044  -5.108  36.916  1.00 35.88 LIG 0.25  C 
ATOM      2 O    TRP D   1      11.026  -5.869  35.882  1.00 38.57 LIG-0.27  OA
ATOM      3  N   PRO D   2      11.550  -3.946  37.057  1.00 34.89 LIG-0.34  N 
ATOM      4  CA  PRO D   2      12.150  -3.111  35.965  1.00 35.03 LIG 0.18  C 
ATOM      5  CB  PRO D   2      12.519  -1.873  36.732  1.00 35.34 LIG 0.04  C 
ATOM      6  CG  PRO D   2      11.349  -1.771  37.714  1.00 35.42 LIG 0.02  C 
ATOM      7  CD  PRO D   2      10.781  -3.125  37.978  1.00 35.14 LIG 0.13  C 
ENDROOT
BRANCH 4 8
ATOM      8  C   PRO D   2      13.286  -3.629  35.091  1.00 35.70 LIG 0.24  C 
ATOM      9 O    PRO D   2      14.460  -3.320  35.234  1.00 34.88 LIG-0.27  OA
ATOM     10  N   TRP D   3      12.767  -4.465  34.168  1.00 36.87 LIG-0.34  N 
ATOM     11 H    TRP D   3      11.975  -4.792  34.240  1.00 36.87 LIG 0.16  HD
BRANCH 10 12
ATOM     12  CA  TRP D   3      13.477  -4.927  32.923  1.00 37.56 LIG 0.19  C 
BRANCH 12 13
ATOM     13  C   TRP D   3      12.849  -5.890  31.848  1.00 38.92 LIG 0.20  C 
ATOM     14 OXT  TRP D   3      11.675  -6.375  31.973  1.00 41.38 LIG-0.65  OA
ATOM     15 O    TRP D   3      13.623  -6.198  30.816  1.00 40.06 LIG-0.65  OA
ENDBRANCH 12 13
BRANCH 12 16
ATOM     16  CB  TRP D   3      14.909  -5.460  33.301  1.00 36.55 LIG 0.08  C 
BRANCH 16 17
ATOM     17  CG  TRP D   3      15.972  -4.993  32.293  1.00 35.48 LIG-0.03  A 
ATOM     18  CD1 TRP D   3      16.273  -3.672  31.945  1.00 37.13 LIG 0.10  A 
ATOM     19  NE1 TRP D   3      17.278  -3.654  30.996  1.00 40.71 LIG-0.36  N 
ATOM     20 HE1  TRP D   3      17.610  -2.945  30.640  1.00 40.71 LIG 0.17  HD
ATOM     21  CE2 TRP D   3      17.669  -4.944  30.707  1.00 36.12 LIG 0.04  A 
ATOM     22  CD2 TRP D   3      16.858  -5.831  31.514  1.00 33.28 LIG-0.00  A 
ATOM     23  CZ2 TRP D   3      18.651  -5.400  29.790  1.00 34.49 LIG 0.03  A 
ATOM     24  CE3 TRP D   3      17.025  -7.234  31.390  1.00 31.46 LIG 0.01  A 
ATOM     25  CZ3 TRP D   3      18.005  -7.717  30.503  1.00 32.66 LIG 0.00  A 
ATOM     26  CH2 TRP D   3      18.817  -6.785  29.691  1.00 36.62 LIG 0.00  A 
ENDBRANCH 16 17
ENDBRANCH 12 16
ENDBRANCH 10 12
ENDBRANCH 4 8
BRANCH 1 27
ATOM     27  CA  TRP D   1      10.604  -5.671  38.303  1.00 34.78 LIG 0.28  C 
BRANCH 27 28
ATOM     28  CB  TRP D   1      11.775  -6.320  39.052  1.00 34.63 LIG 0.08  C 
BRANCH 28 29
ATOM     29  CG  TRP D   1      11.390  -6.712  40.511  1.00 37.87 LIG-0.03  A 
ATOM     30  CD1 TRP D   1      10.277  -6.287  41.234  1.00 40.68 LIG 0.10  A 
ATOM     31  NE1 TRP D   1      10.264  -6.895  42.474  1.00 42.18 LIG-0.36  N 
ATOM     32 HE1  TRP D   1       9.668  -6.776  43.082  1.00 42.18 LIG 0.17  HD
ATOM     33  CE2 TRP D   1      11.367  -7.730  42.579  1.00 41.11 LIG 0.04  A 
ATOM     34  CD2 TRP D   1      12.095  -7.634  41.370  1.00 38.74 LIG-0.00  A 
ATOM     35  CZ2 TRP D   1      11.782  -8.570  43.657  1.00 41.13 LIG 0.03  A 
ATOM     36  CE3 TRP D   1      13.255  -8.424  41.218  1.00 40.52 LIG 0.01  A 
ATOM     37  CZ3 TRP D   1      13.670  -9.253  42.291  1.00 41.02 LIG 0.00  A 
ATOM     38  CH2 TRP D   1      12.923  -9.320  43.488  1.00 39.74 LIG 0.00  A 
ENDBRANCH 28 29
ENDBRANCH 27 28
BRANCH 27 39
ATOM     39  N   TRP D   1       9.496  -6.686  38.165  1.00 33.45 LIG-0.07  N 
ATOM     40 H3   TRP D   1       8.874  -6.373  37.610  1.00 33.45 LIG 0.28  HD
ATOM     41 H2   TRP D   1       9.131  -6.839  38.963  1.00 33.45 LIG 0.28  HD
ATOM     42 H1   TRP D   1       9.827  -7.445  37.840  1.00 33.45 LIG 0.28  HD
ENDBRANCH 27 39
ENDBRANCH 1 27
TORSDOF 9
ENDMDL
MODEL 35
USER: ADFR SOLUTION from run 63
USER: SCORE 14.555788 LL:  -2.072 LR: -12.483 RR:   0.000 FEB:  -9.799
USER: RMSD 10.618693
USER: SEED 62
USER: STATUS no improvement in best 21 clusters for 5 generations
USER: GENES 11
USER: genes 0 Translation |==|  0.45924 0.63447 0.55716
USER: genes 1 Rotation |==|  0.89880 0.75839 0.34757 0.53098
USER: genes 2 Torsion [N]-CA--C-[O] |==|  0.47180
USER: genes 3 Torsion [C]-N--CA-[CB] |==|  0.58089
USER: genes 4 Torsion [N]-CA--C-[OXT] |==|  0.79853
USER: genes 5 Torsion [N]-CA--CB-[CG] |==|  0.62817
USER: genes 6 Torsion [CA]-CB--CG-[CD1] |==|  0.55520
USER: genes 7 Torsion [N]-C--CA-[N] |==|  0.35978
USER: genes 8 Torsion [C]-CA--CB-[CG] |==|  0.53475
USER: genes 9 Torsion [CA]-CB--CG-[CD1] |==|  0.30603
USER: genes 10 Torsion [C]-CA--N-[H2] |==|  0.55806
ROOT
ATOM      1  C   TRP D   1      11.677  -6.786  36.555  1.00 35.88 LIG 0.25  C 
ATOM      2 O    TRP D   1      11.058  -7.851  36.916  1.00 38.57 LIG-0.27  OA
ATOM      3  N   PRO D   2      12.849  -6.657  36.067  1.00 34.89 LIG-0.34  N 
ATOM      4  CA  PRO D   2      13.761  -7.777  35.665  1.00 35.03 LIG 0.18  C 
ATOM      5  CB  PRO D   2      14.938  -7.003  35.142  1.00 35.34 LIG 0.04  C 
ATOM      6  CG  PRO D   2      14.240  -5.820  34.465  1.00 35.42 LIG 0.02  C 
ATOM      7  CD  PRO D   2      12.927  -5.555  35.122  1.00 35.14 LIG 0.13  C 
ENDROOT
BRANCH 4 8
ATOM      8  C   PRO D   2      14.160  -8.877  36.641  1.00 35.70 LIG 0.24  C 
ATOM      9 O    PRO D   2      14.750  -9.899  36.322  1.00 34.88 LIG-0.27  OA
ATOM     10  N   TRP D   3      13.756  -8.518  37.877  1.00 36.87 LIG-0.34  N 
ATOM     11 H    TRP D   3      13.527  -7.711  38.068  1.00 36.87 LIG 0.16  HD
BRANCH 10 12
ATOM     12  CA  TRP D   3      13.655  -9.446  39.058  1.00 37.56 LIG 0.19  C 
BRANCH 12 13
ATOM     13  C   TRP D   3      13.562 -11.014  38.950  1.00 38.92 LIG 0.20  C 
ATOM     14 OXT  TRP D   3      12.508 -11.605  38.541  1.00 41.38 LIG-0.65  OA
ATOM     15 O    TRP D   3      14.633 -11.691  39.340  1.00 40.06 LIG-0.65  OA
ENDBRANCH 12 13
BRANCH 12 16
ATOM     16  CB  TRP D   3      12.525  -8.941  40.030  1.00 36.55 LIG 0.08  C 
BRANCH 16 17
ATOM     17  CG  TRP D   3      12.991  -8.950  41.496  1.00 35.48 LIG-0.03  A 
ATOM     18  CD1 TRP D   3      12.176  -8.945  42.633  1.00 37.13 LIG 0.10  A 
ATOM     19  NE1 TRP D   3      12.959  -8.942  43.772  1.00 40.71 LIG-0.36  N 
ATOM     20 HE1  TRP D   3      12.661  -8.933  44.578  1.00 40.71 LIG 0.17  HD
ATOM     21  CE2 TRP D   3      14.292  -8.956  43.420  1.00 36.12 LIG 0.04  A 
ATOM     22  CD2 TRP D   3      14.356  -8.960  41.973  1.00 33.28 LIG-0.00  A 
ATOM     23  CZ2 TRP D   3      15.440  -8.944  44.254  1.00 34.49 LIG 0.03  A 
ATOM     24  CE3 TRP D   3      15.620  -8.937  41.331  1.00 31.46 LIG 0.01  A 
ATOM     25  CZ3 TRP D   3      16.779  -8.945  42.131  1.00 32.66 LIG 0.00  A 
ATOM     26  CH2 TRP D   3      16.680  -8.940  43.607  1.00 36.62 LIG 0.00  A 
ENDBRANCH 16 17
ENDBRANCH 12 16
ENDBRANCH 10 12
ENDBRANCH 4 8
BRANCH 1 27
ATOM     27  CA  TRP D   1      11.091  -5.386  36.917  1.00 34.78 LIG 0.28  C 
BRANCH 27 28
ATOM     28  CB  TRP D   1      11.025  -5.171  38.435  1.00 34.63 LIG 0.08  C 
BRANCH 28 29
ATOM     29  CG  TRP D   1      10.166  -3.927  38.812  1.00 37.87 LIG-0.03  A 
ATOM     30  CD1 TRP D   1       8.919  -3.919  39.435  1.00 40.68 LIG 0.10  A 
ATOM     31  NE1 TRP D   1       8.507  -2.617  39.641  1.00 42.18 LIG-0.36  N 
ATOM     32 HE1  TRP D   1       7.767  -2.380  40.009  1.00 42.18 LIG 0.17  HD
ATOM     33  CE2 TRP D   1       9.480  -1.754  39.159  1.00 41.11 LIG 0.04  A 
ATOM     34  CD2 TRP D   1      10.529  -2.541  38.629  1.00 38.74 LIG-0.00  A 
ATOM     35  CZ2 TRP D   1       9.517  -0.326  39.151  1.00 41.13 LIG 0.03  A 
ATOM     36  CE3 TRP D   1      11.663  -1.886  38.104  1.00 40.52 LIG 0.01  A 
ATOM     37  CZ3 TRP D   1      11.696  -0.469  38.090  1.00 41.02 LIG 0.00  A 
ATOM     38  CH2 TRP D   1      10.629   0.288  38.621  1.00 39.74 LIG 0.00  A 
ENDBRANCH 28 29
ENDBRANCH 27 28
BRANCH 27 39
ATOM     39  N   TRP D   1       9.710  -5.195  36.341  1.00 33.45 LIG-0.07  N 
ATOM     40 H3   TRP D   1       9.676  -5.551  35.526  1.00 33.45 LIG 0.28  HD
ATOM     41 H2   TRP D   1       9.525  -4.325  36.292  1.00 33.45 LIG 0.28  HD
ATOM     42 H1   TRP D   1       9.112  -5.596  36.864  1.00 33.45 LIG 0.28  HD
ENDBRANCH 27 39
ENDBRANCH 1 27
TORSDOF 9
ENDMDL
MODEL 36
USER: ADFR SOLUTION from run 123
USER: SCORE 14.489202 LL:  -2.037 LR: -12.452 RR:   0.000 FEB:  -9.767
USER: RMSD 11.681345
USER: SEED 122
USER: STATUS no improvement in best 7 clusters for 5 generations
USER: GENES 11
USER: genes 0 Translation |==|  0.43207 0.69278 0.59107
USER: genes 1 Rotation |==|  0.91556 0.65867 0.27821 0.55428
USER: genes 2 Torsion [N]-CA--C-[O] |==|  0.02120
USER: genes 3 Torsion [C]-N--CA-[CB] |==|  0.16054
USER: genes 4 Torsion [N]-CA--C-[OXT] |==|  0.03511
USER: genes 5 Torsion [N]-CA--CB-[CG] |==|  0.70788
USER: genes 6 Torsion [CA]-CB--CG-[CD1] |==|  0.41073
USER: genes 7 Torsion [N]-C--CA-[N] |==|  0.35191
USER: genes 8 Torsion [C]-CA--CB-[CG] |==|  0.56119
USER: genes 9 Torsion [CA]-CB--CG-[CD1] |==|  0.78318
USER: genes 10 Torsion [C]-CA--N-[H2] |==|  0.99874
ROOT
ATOM      1  C   TRP D   1      10.862  -5.037  37.572  1.00 35.88 LIG 0.25  C 
ATOM      2 O    TRP D   1      10.020  -5.652  38.321  1.00 38.57 LIG-0.27  OA
ATOM      3  N   PRO D   2      11.907  -5.483  36.993  1.00 34.89 LIG-0.34  N 
ATOM      4  CA  PRO D   2      12.339  -6.918  36.944  1.00 35.03 LIG 0.18  C 
ATOM      5  CB  PRO D   2      13.583  -6.805  36.108  1.00 35.34 LIG 0.04  C 
ATOM      6  CG  PRO D   2      13.175  -5.718  35.112  1.00 35.42 LIG 0.02  C 
ATOM      7  CD  PRO D   2      12.150  -4.821  35.722  1.00 35.14 LIG 0.13  C 
ENDROOT
BRANCH 4 8
ATOM      8  C   PRO D   2      12.548  -7.737  38.212  1.00 35.70 LIG 0.24  C 
ATOM      9 O    PRO D   2      12.259  -7.352  39.335  1.00 34.88 LIG-0.27  OA
ATOM     10  N   TRP D   3      13.087  -8.926  37.868  1.00 36.87 LIG-0.34  N 
ATOM     11 H    TRP D   3      13.085  -9.212  37.057  1.00 36.87 LIG 0.16  HD
BRANCH 10 12
ATOM     12  CA  TRP D   3      13.748  -9.884  38.823  1.00 37.56 LIG 0.19  C 
BRANCH 12 13
ATOM     13  C   TRP D   3      14.542 -11.170  38.384  1.00 38.92 LIG 0.20  C 
ATOM     14 OXT  TRP D   3      14.886 -11.375  37.172  1.00 41.38 LIG-0.65  OA
ATOM     15 O    TRP D   3      14.804 -12.050  39.340  1.00 40.06 LIG-0.65  OA
ENDBRANCH 12 13
BRANCH 12 16
ATOM     16  CB  TRP D   3      12.732 -10.282  39.957  1.00 36.55 LIG 0.08  C 
BRANCH 16 17
ATOM     17  CG  TRP D   3      13.062  -9.582  41.286  1.00 35.48 LIG-0.03  A 
ATOM     18  CD1 TRP D   3      12.150  -9.174  42.266  1.00 37.13 LIG 0.10  A 
ATOM     19  NE1 TRP D   3      12.823  -8.570  43.311  1.00 40.71 LIG-0.36  N 
ATOM     20 HE1  TRP D   3      12.453  -8.241  44.014  1.00 40.71 LIG 0.17  HD
ATOM     21  CE2 TRP D   3      14.178  -8.574  43.057  1.00 36.12 LIG 0.04  A 
ATOM     22  CD2 TRP D   3      14.373  -9.211  41.771  1.00 33.28 LIG-0.00  A 
ATOM     23  CZ2 TRP D   3      15.240  -8.052  43.840  1.00 34.49 LIG 0.03  A 
ATOM     24  CE3 TRP D   3      15.683  -9.320  41.238  1.00 31.46 LIG 0.01  A 
ATOM     25  CZ3 TRP D   3      16.760  -8.829  42.001  1.00 32.66 LIG 0.00  A 
ATOM     26  CH2 TRP D   3      16.528  -8.183  43.310  1.00 36.62 LIG 0.00  A 
ENDBRANCH 16 17
ENDBRANCH 12 16
ENDBRANCH 10 12
ENDBRANCH 4 8
BRANCH 1 27
ATOM     27  CA  TRP D   1      10.814  -3.481  37.465  1.00 34.78 LIG 0.28  C 
BRANCH 27 28
ATOM     28  CB  TRP D   1      11.025  -2.809  38.828  1.00 34.63 LIG 0.08  C 
BRANCH 28 29
ATOM     29  CG  TRP D   1      10.452  -1.360  38.860  1.00 37.87 LIG-0.03  A 
ATOM     30  CD1 TRP D   1      11.030  -0.211  38.322  1.00 40.68 LIG 0.10  A 
ATOM     31  NE1 TRP D   1      10.190   0.869  38.513  1.00 42.18 LIG-0.36  N 
ATOM     32 HE1  TRP D   1      10.350   1.675  38.262  1.00 42.18 LIG 0.17  HD
ATOM     33  CE2 TRP D   1       9.050   0.442  39.177  1.00 41.11 LIG 0.04  A 
ATOM     34  CD2 TRP D   1       9.184  -0.947  39.413  1.00 38.74 LIG-0.00  A 
ATOM     35  CZ2 TRP D   1       7.898   1.180  39.589  1.00 41.13 LIG 0.03  A 
ATOM     36  CE3 TRP D   1       8.124  -1.626  40.052  1.00 40.52 LIG 0.01  A 
ATOM     37  CZ3 TRP D   1       6.985  -0.892  40.467  1.00 41.02 LIG 0.00  A 
ATOM     38  CH2 TRP D   1       6.886   0.495  40.222  1.00 39.74 LIG 0.00  A 
ENDBRANCH 28 29
ENDBRANCH 27 28
BRANCH 27 39
ATOM     39  N   TRP D   1       9.504  -3.003  36.887  1.00 33.45 LIG-0.07  N 
ATOM     40 H3   TRP D   1       9.093  -2.479  37.477  1.00 33.45 LIG 0.28  HD
ATOM     41 H2   TRP D   1       8.988  -3.704  36.702  1.00 33.45 LIG 0.28  HD
ATOM     42 H1   TRP D   1       9.659  -2.544  36.141  1.00 33.45 LIG 0.28  HD
ENDBRANCH 27 39
ENDBRANCH 1 27
TORSDOF 9
ENDMDL
MODEL 37
USER: ADFR SOLUTION from run 147
USER: SCORE 14.521127 LL:  -2.079 LR: -12.442 RR:   0.000 FEB:  -9.757
USER: RMSD 8.031353
USER: SEED 146
USER: STATUS no improvement in best 16 clusters for 5 generations
USER: GENES 11
USER: genes 0 Translation |==|  0.45862 0.61381 0.56058
USER: genes 1 Rotation |==|  0.87055 0.52802 0.32331 0.78405
USER: genes 2 Torsion [N]-CA--C-[O] |==|  0.52374
USER: genes 3 Torsion [C]-N--CA-[CB] |==|  0.59387
USER: genes 4 Torsion [N]-CA--C-[OXT] |==|  0.15433
USER: genes 5 Torsion [N]-CA--CB-[CG] |==|  0.80849
USER: genes 6 Torsion [CA]-CB--CG-[CD1] |==|  0.20767
USER: genes 7 Torsion [N]-C--CA-[N] |==|  0.52258
USER: genes 8 Torsion [C]-CA--CB-[CG] |==|  0.42984
USER: genes 9 Torsion [CA]-CB--CG-[CD1] |==|  0.14354
USER: genes 10 Torsion [C]-CA--N-[H2] |==|  0.80101
ROOT
ATOM      1  C   TRP D   1      11.659  -7.406  36.658  1.00 35.88 LIG 0.25  C 
ATOM      2 O    TRP D   1      10.509  -7.339  37.226  1.00 38.57 LIG-0.27  OA
ATOM      3  N   PRO D   2      12.761  -7.859  37.111  1.00 34.89 LIG-0.34  N 
ATOM      4  CA  PRO D   2      12.947  -8.569  38.419  1.00 35.03 LIG 0.18  C 
ATOM      5  CB  PRO D   2      14.416  -8.879  38.361  1.00 35.34 LIG 0.04  C 
ATOM      6  CG  PRO D   2      14.595  -9.194  36.874  1.00 35.42 LIG 0.02  C 
ATOM      7  CD  PRO D   2      13.571  -8.467  36.068  1.00 35.14 LIG 0.13  C 
ENDROOT
BRANCH 4 8
ATOM      8  C   PRO D   2      12.525  -7.938  39.741  1.00 35.70 LIG 0.24  C 
ATOM      9 O    PRO D   2      12.788  -8.404  40.840  1.00 34.88 LIG-0.27  OA
ATOM     10  N   TRP D   3      11.837  -6.809  39.475  1.00 36.87 LIG-0.34  N 
ATOM     11 H    TRP D   3      11.854  -6.434  38.702  1.00 36.87 LIG 0.16  HD
BRANCH 10 12
ATOM     12  CA  TRP D   3      10.971  -6.072  40.461  1.00 37.56 LIG 0.19  C 
BRANCH 12 13
ATOM     13  C   TRP D   3      10.464  -6.675  41.824  1.00 38.92 LIG 0.20  C 
ATOM     14 OXT  TRP D   3      11.265  -7.149  42.697  1.00 41.38 LIG-0.65  OA
ATOM     15 O    TRP D   3       9.150  -6.695  42.001  1.00 40.06 LIG-0.65  OA
ENDBRANCH 12 13
BRANCH 12 16
ATOM     16  CB  TRP D   3       9.747  -5.428  39.710  1.00 36.55 LIG 0.08  C 
BRANCH 16 17
ATOM     17  CG  TRP D   3      10.187  -4.278  38.788  1.00 35.48 LIG-0.03  A 
ATOM     18  CD1 TRP D   3      10.837  -4.395  37.555  1.00 37.13 LIG 0.10  A 
ATOM     19  NE1 TRP D   3      11.081  -3.140  37.031  1.00 40.71 LIG-0.36  N 
ATOM     20 HE1  TRP D   3      11.476  -2.983  36.283  1.00 40.71 LIG 0.17  HD
ATOM     21  CE2 TRP D   3      10.594  -2.175  37.887  1.00 36.12 LIG 0.04  A 
ATOM     22  CD2 TRP D   3      10.016  -2.861  39.024  1.00 33.28 LIG-0.00  A 
ATOM     23  CZ2 TRP D   3      10.635  -0.762  37.764  1.00 34.49 LIG 0.03  A 
ATOM     24  CE3 TRP D   3       9.467  -2.103  40.090  1.00 31.46 LIG 0.01  A 
ATOM     25  CZ3 TRP D   3       9.475  -0.699  39.989  1.00 32.66 LIG 0.00  A 
ATOM     26  CH2 TRP D   3      10.074  -0.028  38.814  1.00 36.62 LIG 0.00  A 
ENDBRANCH 16 17
ENDBRANCH 12 16
ENDBRANCH 10 12
ENDBRANCH 4 8
BRANCH 1 27
ATOM     27  CA  TRP D   1      11.901  -6.664  35.306  1.00 34.78 LIG 0.28  C 
BRANCH 27 28
ATOM     28  CB  TRP D   1      13.048  -5.650  35.411  1.00 34.63 LIG 0.08  C 
BRANCH 28 29
ATOM     29  CG  TRP D   1      13.714  -5.376  34.029  1.00 37.87 LIG-0.03  A 
ATOM     30  CD1 TRP D   1      13.080  -5.021  32.840  1.00 40.68 LIG 0.10  A 
ATOM     31  NE1 TRP D   1      14.020  -4.820  31.849  1.00 42.18 LIG-0.36  N 
ATOM     32 HE1  TRP D   1      13.849  -4.596  31.037  1.00 42.18 LIG 0.17  HD
ATOM     33  CE2 TRP D   1      15.285  -5.038  32.376  1.00 41.11 LIG 0.04  A 
ATOM     34  CD2 TRP D   1      15.129  -5.393  33.737  1.00 38.74 LIG-0.00  A 
ATOM     35  CZ2 TRP D   1      16.566  -4.947  31.752  1.00 41.13 LIG 0.03  A 
ATOM     36  CE3 TRP D   1      16.287  -5.633  34.506  1.00 40.52 LIG 0.01  A 
ATOM     37  CZ3 TRP D   1      17.558  -5.550  33.885  1.00 41.02 LIG 0.00  A 
ATOM     38  CH2 TRP D   1      17.678  -5.199  32.522  1.00 39.74 LIG 0.00  A 
ENDBRANCH 28 29
ENDBRANCH 27 28
BRANCH 27 39
ATOM     39  N   TRP D   1      10.661  -5.945  34.836  1.00 33.45 LIG-0.07  N 
ATOM     40 H3   TRP D   1      10.320  -5.470  35.507  1.00 33.45 LIG 0.28  HD
ATOM     41 H2   TRP D   1      10.059  -6.540  34.558  1.00 33.45 LIG 0.28  HD
ATOM     42 H1   TRP D   1      10.870  -5.400  34.164  1.00 33.45 LIG 0.28  HD
ENDBRANCH 27 39
ENDBRANCH 1 27
TORSDOF 9
ENDMDL
MODEL 38
USER: ADFR SOLUTION from run 3
USER: SCORE 14.714341 LL:  -2.275 LR: -12.439 RR:   0.000 FEB:  -9.754
USER: RMSD 11.390208
USER: SEED 946826
USER: STATUS no improvement in best 15 clusters for 5 generations
USER: GENES 11
USER: genes 0 Translation |==|  0.41437 0.68086 0.60399
USER: genes 1 Rotation |==|  0.92481 0.68177 0.31262 0.53724
USER: genes 2 Torsion [N]-CA--C-[O] |==|  0.44142
USER: genes 3 Torsion [C]-N--CA-[CB] |==|  0.27186
USER: genes 4 Torsion [N]-CA--C-[OXT] |==|  0.94500
USER: genes 5 Torsion [N]-CA--CB-[CG] |==|  0.84518
USER: genes 6 Torsion [CA]-CB--CG-[CD1] |==|  0.35861
USER: genes 7 Torsion [N]-C--CA-[N] |==|  0.30189
USER: genes 8 Torsion [C]-CA--CB-[CG] |==|  0.56660
USER: genes 9 Torsion [CA]-CB--CG-[CD1] |==|  0.37528
USER: genes 10 Torsion [C]-CA--N-[H2] |==|  0.69303
ROOT
ATOM      1  C   TRP D   1      10.331  -5.394  37.960  1.00 35.88 LIG 0.25  C 
ATOM      2 O    TRP D   1       9.458  -6.148  38.523  1.00 38.57 LIG-0.27  OA
ATOM      3  N   PRO D   2      11.450  -5.705  37.433  1.00 34.89 LIG-0.34  N 
ATOM      4  CA  PRO D   2      11.966  -7.098  37.225  1.00 35.03 LIG 0.18  C 
ATOM      5  CB  PRO D   2      13.275  -6.811  36.545  1.00 35.34 LIG 0.04  C 
ATOM      6  CG  PRO D   2      12.902  -5.607  35.677  1.00 35.42 LIG 0.02  C 
ATOM      7  CD  PRO D   2      11.775  -4.854  36.300  1.00 35.14 LIG 0.13  C 
ENDROOT
BRANCH 4 8
ATOM      8  C   PRO D   2      12.099  -8.086  38.378  1.00 35.70 LIG 0.24  C 
ATOM      9 O    PRO D   2      12.150  -9.299  38.242  1.00 34.88 LIG-0.27  OA
ATOM     10  N   TRP D   3      12.152  -7.389  39.532  1.00 36.87 LIG-0.34  N 
ATOM     11 H    TRP D   3      12.308  -6.544  39.550  1.00 36.87 LIG 0.16  HD
BRANCH 10 12
ATOM     12  CA  TRP D   3      11.952  -7.974  40.905  1.00 37.56 LIG 0.19  C 
BRANCH 12 13
ATOM     13  C   TRP D   3      10.997  -7.366  41.999  1.00 38.92 LIG 0.20  C 
ATOM     14 OXT  TRP D   3      10.603  -6.153  41.958  1.00 41.38 LIG-0.65  OA
ATOM     15 O    TRP D   3      10.650  -8.178  42.988  1.00 40.06 LIG-0.65  OA
ENDBRANCH 12 13
BRANCH 12 16
ATOM     16  CB  TRP D   3      13.351  -8.263  41.563  1.00 36.55 LIG 0.08  C 
BRANCH 16 17
ATOM     17  CG  TRP D   3      14.218  -9.175  40.678  1.00 35.48 LIG-0.03  A 
ATOM     18  CD1 TRP D   3      15.539  -8.945  40.280  1.00 37.13 LIG 0.10  A 
ATOM     19  NE1 TRP D   3      15.975  -9.983  39.478  1.00 40.71 LIG-0.36  N 
ATOM     20 HE1  TRP D   3      16.755 -10.038  39.121  1.00 40.71 LIG 0.17  HD
ATOM     21  CE2 TRP D   3      14.971 -10.917  39.338  1.00 36.12 LIG 0.04  A 
ATOM     22  CD2 TRP D   3      13.829 -10.438  40.089  1.00 33.28 LIG-0.00  A 
ATOM     23  CZ2 TRP D   3      14.968 -12.127  38.598  1.00 34.49 LIG 0.03  A 
ATOM     24  CE3 TRP D   3      12.629 -11.193  40.090  1.00 31.46 LIG 0.01  A 
ATOM     25  CZ3 TRP D   3      12.600 -12.409  39.381  1.00 32.66 LIG 0.00  A 
ATOM     26  CH2 TRP D   3      13.783 -12.870  38.622  1.00 36.62 LIG 0.00  A 
ENDBRANCH 16 17
ENDBRANCH 12 16
ENDBRANCH 10 12
ENDBRANCH 4 8
BRANCH 1 27
ATOM     27  CA  TRP D   1      10.205  -3.843  38.070  1.00 34.78 LIG 0.28  C 
BRANCH 27 28
ATOM     28  CB  TRP D   1       9.804  -3.403  39.485  1.00 34.63 LIG 0.08  C 
BRANCH 28 29
ATOM     29  CG  TRP D   1       9.108  -2.009  39.488  1.00 37.87 LIG-0.03  A 
ATOM     30  CD1 TRP D   1       7.956  -1.641  40.180  1.00 40.68 LIG 0.10  A 
ATOM     31  NE1 TRP D   1       7.686  -0.305  39.963  1.00 42.18 LIG-0.36  N 
ATOM     32 HE1  TRP D   1       7.021   0.130  40.293  1.00 42.18 LIG 0.17  HD
ATOM     33  CE2 TRP D   1       8.659   0.223  39.129  1.00 41.11 LIG 0.04  A 
ATOM     34  CD2 TRP D   1       9.562  -0.818  38.808  1.00 38.74 LIG-0.00  A 
ATOM     35  CZ2 TRP D   1       8.816   1.552  38.627  1.00 41.13 LIG 0.03  A 
ATOM     36  CE3 TRP D   1      10.672  -0.519  37.990  1.00 40.52 LIG 0.01  A 
ATOM     37  CZ3 TRP D   1      10.823   0.798  37.487  1.00 41.02 LIG 0.00  A 
ATOM     38  CH2 TRP D   1       9.900   1.813  37.821  1.00 39.74 LIG 0.00  A 
ENDBRANCH 28 29
ENDBRANCH 27 28
BRANCH 27 39
ATOM     39  N   TRP D   1       9.198  -3.295  37.090  1.00 33.45 LIG-0.07  N 
ATOM     40 H3   TRP D   1       8.752  -3.968  36.715  1.00 33.45 LIG 0.28  HD
ATOM     41 H2   TRP D   1       9.619  -2.831  36.458  1.00 33.45 LIG 0.28  HD
ATOM     42 H1   TRP D   1       8.626  -2.763  37.517  1.00 33.45 LIG 0.28  HD
ENDBRANCH 27 39
ENDBRANCH 1 27
TORSDOF 9
ENDMDL
MODEL 39
USER: ADFR SOLUTION from run 117
USER: SCORE 13.697590 LL:  -1.266 LR: -12.432 RR:   0.000 FEB:  -9.747
USER: RMSD 11.842748
USER: SEED 116
USER: STATUS no improvement in best 12 clusters for 5 generations
USER: GENES 11
USER: genes 0 Translation |==|  0.45343 0.74388 0.57543
USER: genes 1 Rotation |==|  0.72775 0.58232 0.93347 0.55879
USER: genes 2 Torsion [N]-CA--C-[O] |==|  0.89833
USER: genes 3 Torsion [C]-N--CA-[CB] |==|  0.53943
USER: genes 4 Torsion [N]-CA--C-[OXT] |==|  0.04759
USER: genes 5 Torsion [N]-CA--CB-[CG] |==|  0.12945
USER: genes 6 Torsion [CA]-CB--CG-[CD1] |==|  0.08815
USER: genes 7 Torsion [N]-C--CA-[N] |==|  0.90361
USER: genes 8 Torsion [C]-CA--CB-[CG] |==|  0.57548
USER: genes 9 Torsion [CA]-CB--CG-[CD1] |==|  0.73688
USER: genes 10 Torsion [C]-CA--N-[H2] |==|  0.59291
ROOT
ATOM      1  C   TRP D   1      11.503  -3.504  37.103  1.00 35.88 LIG 0.25  C 
ATOM      2 O    TRP D   1      12.525  -3.745  36.363  1.00 38.57 LIG-0.27  OA
ATOM      3  N   PRO D   2      10.929  -4.254  37.959  1.00 34.89 LIG-0.34  N 
ATOM      4  CA  PRO D   2      11.413  -5.598  38.414  1.00 35.03 LIG 0.18  C 
ATOM      5  CB  PRO D   2      10.360  -5.945  39.428  1.00 35.34 LIG 0.04  C 
ATOM      6  CG  PRO D   2      10.087  -4.575  40.055  1.00 35.42 LIG 0.02  C 
ATOM      7  CD  PRO D   2      10.382  -3.493  39.071  1.00 35.14 LIG 0.13  C 
ENDROOT
BRANCH 4 8
ATOM      8  C   PRO D   2      11.684  -6.729  37.429  1.00 35.70 LIG 0.24  C 
ATOM      9 O    PRO D   2      11.018  -6.944  36.427  1.00 34.88 LIG-0.27  OA
ATOM     10  N   TRP D   3      12.762  -7.419  37.857  1.00 36.87 LIG-0.34  N 
ATOM     11 H    TRP D   3      13.299  -7.106  38.452  1.00 36.87 LIG 0.16  HD
BRANCH 10 12
ATOM     12  CA  TRP D   3      13.163  -8.786  37.371  1.00 37.56 LIG 0.19  C 
BRANCH 12 13
ATOM     13  C   TRP D   3      12.147  -9.918  36.967  1.00 38.92 LIG 0.20  C 
ATOM     14 OXT  TRP D   3      10.921  -9.672  36.715  1.00 41.38 LIG-0.65  OA
ATOM     15 O    TRP D   3      12.630 -11.153  36.935  1.00 40.06 LIG-0.65  OA
ENDBRANCH 12 13
BRANCH 12 16
ATOM     16  CB  TRP D   3      14.237  -9.398  38.346  1.00 36.55 LIG 0.08  C 
BRANCH 16 17
ATOM     17  CG  TRP D   3      13.827  -9.232  39.819  1.00 35.48 LIG-0.03  A 
ATOM     18  CD1 TRP D   3      12.524  -9.222  40.329  1.00 37.13 LIG 0.10  A 
ATOM     19  NE1 TRP D   3      12.558  -9.037  41.699  1.00 40.71 LIG-0.36  N 
ATOM     20 HE1  TRP D   3      11.868  -8.993  42.210  1.00 40.71 LIG 0.17  HD
ATOM     21  CE2 TRP D   3      13.866  -8.934  42.123  1.00 36.12 LIG 0.04  A 
ATOM     22  CD2 TRP D   3      14.709  -9.052  40.951  1.00 33.28 LIG-0.00  A 
ATOM     23  CZ2 TRP D   3      14.371  -8.726  43.432  1.00 34.49 LIG 0.03  A 
ATOM     24  CE3 TRP D   3      16.116  -8.945  41.091  1.00 31.46 LIG 0.01  A 
ATOM     25  CZ3 TRP D   3      16.650  -8.758  42.381  1.00 32.66 LIG 0.00  A 
ATOM     26  CH2 TRP D   3      15.762  -8.640  43.558  1.00 36.62 LIG 0.00  A 
ENDBRANCH 16 17
ENDBRANCH 12 16
ENDBRANCH 10 12
ENDBRANCH 4 8
BRANCH 1 27
ATOM     27  CA  TRP D   1      10.641  -2.229  36.845  1.00 34.78 LIG 0.28  C 
BRANCH 27 28
ATOM     28  CB  TRP D   1      10.964  -1.111  37.844  1.00 34.63 LIG 0.08  C 
BRANCH 28 29
ATOM     29  CG  TRP D   1       9.750  -0.160  38.070  1.00 37.87 LIG-0.03  A 
ATOM     30  CD1 TRP D   1       9.489   1.046  37.422  1.00 40.68 LIG 0.10  A 
ATOM     31  NE1 TRP D   1       8.290   1.567  37.866  1.00 42.18 LIG-0.36  N 
ATOM     32 HE1  TRP D   1       7.937   2.304  37.600  1.00 42.18 LIG 0.17  HD
ATOM     33  CE2 TRP D   1       7.746   0.707  38.809  1.00 41.11 LIG 0.04  A 
ATOM     34  CD2 TRP D   1       8.638  -0.380  38.964  1.00 38.74 LIG-0.00  A 
ATOM     35  CZ2 TRP D   1       6.525   0.806  39.544  1.00 41.13 LIG 0.03  A 
ATOM     36  CE3 TRP D   1       8.286  -1.417  39.855  1.00 40.52 LIG 0.01  A 
ATOM     37  CZ3 TRP D   1       7.077  -1.316  40.589  1.00 41.02 LIG 0.00  A 
ATOM     38  CH2 TRP D   1       6.213  -0.213  40.415  1.00 39.74 LIG 0.00  A 
ENDBRANCH 28 29
ENDBRANCH 27 28
BRANCH 27 39
ATOM     39  N   TRP D   1       9.164  -2.532  36.919  1.00 33.45 LIG-0.07  N 
ATOM     40 H3   TRP D   1       9.026  -3.387  36.715  1.00 33.45 LIG 0.28  HD
ATOM     41 H2   TRP D   1       8.725  -2.015  36.343  1.00 33.45 LIG 0.28  HD
ATOM     42 H1   TRP D   1       8.869  -2.373  37.743  1.00 33.45 LIG 0.28  HD
ENDBRANCH 27 39
ENDBRANCH 1 27
TORSDOF 9
ENDMDL
MODEL 40
USER: ADFR SOLUTION from run 107
USER: SCORE 14.937040 LL:  -2.540 LR: -12.397 RR:   0.000 FEB:  -9.713
USER: RMSD 9.088233
USER: SEED 106
USER: STATUS no improvement in best 14 clusters for 5 generations
USER: GENES 11
USER: genes 0 Translation |==|  0.50671 0.67628 0.49225
USER: genes 1 Rotation |==|  0.80984 0.48666 0.11344 0.56629
USER: genes 2 Torsion [N]-CA--C-[O] |==|  0.92241
USER: genes 3 Torsion [C]-N--CA-[CB] |==|  0.18649
USER: genes 4 Torsion [N]-CA--C-[OXT] |==|  0.92668
USER: genes 5 Torsion [N]-CA--CB-[CG] |==|  0.17599
USER: genes 6 Torsion [CA]-CB--CG-[CD1] |==|  0.80397
USER: genes 7 Torsion [N]-C--CA-[N] |==|  0.34634
USER: genes 8 Torsion [C]-CA--CB-[CG] |==|  0.20104
USER: genes 9 Torsion [CA]-CB--CG-[CD1] |==|  0.69888
USER: genes 10 Torsion [C]-CA--N-[H2] |==|  0.51968
ROOT
ATOM      1  C   TRP D   1      13.101  -5.532  34.607  1.00 35.88 LIG 0.25  C 
ATOM      2 O    TRP D   1      12.921  -5.175  35.828  1.00 38.57 LIG-0.27  OA
ATOM      3  N   PRO D   2      13.295  -6.696  34.125  1.00 34.89 LIG-0.34  N 
ATOM      4  CA  PRO D   2      13.224  -7.986  34.887  1.00 35.03 LIG 0.18  C 
ATOM      5  CB  PRO D   2      13.498  -8.974  33.789  1.00 35.34 LIG 0.04  C 
ATOM      6  CG  PRO D   2      12.770  -8.320  32.612  1.00 35.42 LIG 0.02  C 
ATOM      7  CD  PRO D   2      12.714  -6.841  32.800  1.00 35.14 LIG 0.13  C 
ENDROOT
BRANCH 4 8
ATOM      8  C   PRO D   2      14.070  -8.231  36.131  1.00 35.70 LIG 0.24  C 
ATOM      9 O    PRO D   2      15.154  -7.706  36.340  1.00 34.88 LIG-0.27  OA
ATOM     10  N   TRP D   3      13.416  -9.101  36.928  1.00 36.87 LIG-0.34  N 
ATOM     11 H    TRP D   3      12.581  -9.280  36.822  1.00 36.87 LIG 0.16  HD
BRANCH 10 12
ATOM     12  CA  TRP D   3      14.033  -9.856  38.075  1.00 37.56 LIG 0.19  C 
BRANCH 12 13
ATOM     13  C   TRP D   3      13.405 -11.140  38.734  1.00 38.92 LIG 0.20  C 
ATOM     14 OXT  TRP D   3      12.150 -11.369  38.713  1.00 41.38 LIG-0.65  OA
ATOM     15 O    TRP D   3      14.252 -11.957  39.344  1.00 40.06 LIG-0.65  OA
ENDBRANCH 12 13
BRANCH 12 16
ATOM     16  CB  TRP D   3      14.431  -8.847  39.216  1.00 36.55 LIG 0.08  C 
BRANCH 16 17
ATOM     17  CG  TRP D   3      13.198  -8.139  39.803  1.00 35.48 LIG-0.03  A 
ATOM     18  CD1 TRP D   3      12.409  -7.171  39.171  1.00 37.13 LIG 0.10  A 
ATOM     19  NE1 TRP D   3      11.400  -6.760  40.022  1.00 40.71 LIG-0.36  N 
ATOM     20 HE1  TRP D   3      10.806  -6.167  39.835  1.00 40.71 LIG 0.17  HD
ATOM     21  CE2 TRP D   3      11.489  -7.445  41.215  1.00 36.12 LIG 0.04  A 
ATOM     22  CD2 TRP D   3      12.627  -8.336  41.117  1.00 33.28 LIG-0.00  A 
ATOM     23  CZ2 TRP D   3      10.678  -7.338  42.374  1.00 34.49 LIG 0.03  A 
ATOM     24  CE3 TRP D   3      12.977  -9.144  42.228  1.00 31.46 LIG 0.01  A 
ATOM     25  CZ3 TRP D   3      12.179  -9.075  43.387  1.00 32.66 LIG 0.00  A 
ATOM     26  CH2 TRP D   3      11.024  -8.154  43.456  1.00 36.62 LIG 0.00  A 
ENDBRANCH 16 17
ENDBRANCH 12 16
ENDBRANCH 10 12
ENDBRANCH 4 8
BRANCH 1 27
ATOM     27  CA  TRP D   1      13.348  -4.450  33.510  1.00 34.78 LIG 0.28  C 
BRANCH 27 28
ATOM     28  CB  TRP D   1      14.574  -3.585  33.828  1.00 34.63 LIG 0.08  C 
BRANCH 28 29
ATOM     29  CG  TRP D   1      15.908  -4.365  33.628  1.00 37.87 LIG-0.03  A 
ATOM     30  CD1 TRP D   1      16.776  -4.823  34.618  1.00 40.68 LIG 0.10  A 
ATOM     31  NE1 TRP D   1      17.824  -5.512  34.040  1.00 42.18 LIG-0.36  N 
ATOM     32 HE1  TRP D   1      18.475  -5.878  34.465  1.00 42.18 LIG 0.17  HD
ATOM     33  CE2 TRP D   1      17.655  -5.519  32.663  1.00 41.11 LIG 0.04  A 
ATOM     34  CD2 TRP D   1      16.468  -4.805  32.372  1.00 38.74 LIG-0.00  A 
ATOM     35  CZ2 TRP D   1      18.464  -6.106  31.643  1.00 41.13 LIG 0.03  A 
ATOM     36  CE3 TRP D   1      16.059  -4.701  31.026  1.00 40.52 LIG 0.01  A 
ATOM     37  CZ3 TRP D   1      16.866  -5.278  30.012  1.00 41.02 LIG 0.00  A 
ATOM     38  CH2 TRP D   1      18.048  -5.979  30.337  1.00 39.74 LIG 0.00  A 
ENDBRANCH 28 29
ENDBRANCH 27 28
BRANCH 27 39
ATOM     39  N   TRP D   1      12.150  -3.549  33.338  1.00 33.45 LIG-0.07  N 
ATOM     40 H3   TRP D   1      11.423  -4.043  33.201  1.00 33.45 LIG 0.28  HD
ATOM     41 H2   TRP D   1      12.279  -3.012  32.640  1.00 33.45 LIG 0.28  HD
ATOM     42 H1   TRP D   1      12.040  -3.058  34.073  1.00 33.45 LIG 0.28  HD
ENDBRANCH 27 39
ENDBRANCH 1 27
TORSDOF 9
ENDMDL
MODEL 41
USER: ADFR SOLUTION from run 6
USER: SCORE 13.591273 LL:  -1.204 LR: -12.388 RR:   0.000 FEB:  -9.703
USER: RMSD 11.903756
USER: SEED 683233
USER: STATUS no improvement in best 18 clusters for 5 generations
USER: GENES 11
USER: genes 0 Translation |==|  0.35889 0.78028 0.62207
USER: genes 1 Rotation |==|  0.46842 0.54457 0.08768 0.77750
USER: genes 2 Torsion [N]-CA--C-[O] |==|  0.26630
USER: genes 3 Torsion [C]-N--CA-[CB] |==|  0.46346
USER: genes 4 Torsion [N]-CA--C-[OXT] |==|  0.24720
USER: genes 5 Torsion [N]-CA--CB-[CG] |==|  0.90125
USER: genes 6 Torsion [CA]-CB--CG-[CD1] |==|  0.21293
USER: genes 7 Torsion [N]-C--CA-[N] |==|  0.91607
USER: genes 8 Torsion [C]-CA--CB-[CG] |==|  0.29627
USER: genes 9 Torsion [CA]-CB--CG-[CD1] |==|  0.35442
USER: genes 10 Torsion [C]-CA--N-[H2] |==|  0.99932
ROOT
ATOM      1  C   TRP D   1       8.667  -2.412  38.502  1.00 35.88 LIG 0.25  C 
ATOM      2 O    TRP D   1       9.093  -1.276  38.924  1.00 38.57 LIG-0.27  OA
ATOM      3  N   PRO D   2       9.328  -3.435  38.125  1.00 34.89 LIG-0.34  N 
ATOM      4  CA  PRO D   2      10.815  -3.602  38.215  1.00 35.03 LIG 0.18  C 
ATOM      5  CB  PRO D   2      10.973  -4.992  37.667  1.00 35.34 LIG 0.04  C 
ATOM      6  CG  PRO D   2       9.726  -5.678  38.232  1.00 35.42 LIG 0.02  C 
ATOM      7  CD  PRO D   2       8.643  -4.676  38.450  1.00 35.14 LIG 0.13  C 
ENDROOT
BRANCH 4 8
ATOM      8  C   PRO D   2      11.775  -2.602  37.582  1.00 35.70 LIG 0.24  C 
ATOM      9 O    PRO D   2      12.297  -1.674  38.183  1.00 34.88 LIG-0.27  OA
ATOM     10  N   TRP D   3      11.935  -2.928  36.282  1.00 36.87 LIG-0.34  N 
ATOM     11 H    TRP D   3      11.702  -3.695  35.971  1.00 36.87 LIG 0.16  HD
BRANCH 10 12
ATOM     12  CA  TRP D   3      12.525  -2.027  35.231  1.00 37.56 LIG 0.19  C 
BRANCH 12 13
ATOM     13  C   TRP D   3      11.903  -0.649  34.792  1.00 38.92 LIG 0.20  C 
ATOM     14 OXT  TRP D   3      12.203   0.447  35.373  1.00 41.38 LIG-0.65  OA
ATOM     15 O    TRP D   3      11.023  -0.694  33.802  1.00 40.06 LIG-0.65  OA
ENDBRANCH 12 13
BRANCH 12 16
ATOM     16  CB  TRP D   3      12.852  -2.866  33.940  1.00 36.55 LIG 0.08  C 
BRANCH 16 17
ATOM     17  CG  TRP D   3      13.333  -4.284  34.291  1.00 35.48 LIG-0.03  A 
ATOM     18  CD1 TRP D   3      12.540  -5.359  34.705  1.00 37.13 LIG 0.10  A 
ATOM     19  NE1 TRP D   3      13.334  -6.465  34.940  1.00 40.71 LIG-0.36  N 
ATOM     20 HE1  TRP D   3      13.050  -7.231  35.208  1.00 40.71 LIG 0.17  HD
ATOM     21  CE2 TRP D   3      14.652  -6.157  34.679  1.00 36.12 LIG 0.04  A 
ATOM     22  CD2 TRP D   3      14.695  -4.770  34.263  1.00 33.28 LIG-0.00  A 
ATOM     23  CZ2 TRP D   3      15.806  -6.974  34.796  1.00 34.49 LIG 0.03  A 
ATOM     24  CE3 TRP D   3      15.945  -4.171  33.963  1.00 31.46 LIG 0.01  A 
ATOM     25  CZ3 TRP D   3      17.107  -4.962  34.050  1.00 32.66 LIG 0.00  A 
ATOM     26  CH2 TRP D   3      17.029  -6.375  34.480  1.00 36.62 LIG 0.00  A 
ENDBRANCH 16 17
ENDBRANCH 12 16
ENDBRANCH 10 12
ENDBRANCH 4 8
BRANCH 1 27
ATOM     27  CA  TRP D   1       7.155  -2.597  38.163  1.00 34.78 LIG 0.28  C 
BRANCH 27 28
ATOM     28  CB  TRP D   1       6.383  -3.229  39.328  1.00 34.63 LIG 0.08  C 
BRANCH 28 29
ATOM     29  CG  TRP D   1       5.472  -2.194  40.055  1.00 37.87 LIG-0.03  A 
ATOM     30  CD1 TRP D   1       4.111  -2.312  40.332  1.00 40.68 LIG 0.10  A 
ATOM     31  NE1 TRP D   1       3.678  -1.205  41.033  1.00 42.18 LIG-0.36  N 
ATOM     32 HE1  TRP D   1       2.873  -1.070  41.305  1.00 42.18 LIG 0.17  HD
ATOM     33  CE2 TRP D   1       4.749  -0.347  41.230  1.00 41.11 LIG 0.04  A 
ATOM     34  CD2 TRP D   1       5.886  -0.933  40.626  1.00 38.74 LIG-0.00  A 
ATOM     35  CZ2 TRP D   1       4.804   0.913  41.902  1.00 41.13 LIG 0.03  A 
ATOM     36  CE3 TRP D   1       7.122  -0.259  40.722  1.00 40.52 LIG 0.01  A 
ATOM     37  CZ3 TRP D   1       7.175   0.994  41.383  1.00 41.02 LIG 0.00  A 
ATOM     38  CH2 TRP D   1       6.020   1.555  41.969  1.00 39.74 LIG 0.00  A 
ENDBRANCH 28 29
ENDBRANCH 27 28
BRANCH 27 39
ATOM     39  N   TRP D   1       6.961  -3.451  36.934  1.00 33.45 LIG-0.07  N 
ATOM     40 H3   TRP D   1       6.489  -4.174  37.147  1.00 33.45 LIG 0.28  HD
ATOM     41 H2   TRP D   1       7.754  -3.698  36.615  1.00 33.45 LIG 0.28  HD
ATOM     42 H1   TRP D   1       6.525  -2.985  36.314  1.00 33.45 LIG 0.28  HD
ENDBRANCH 27 39
ENDBRANCH 1 27
TORSDOF 9
ENDMDL
MODEL 42
USER: ADFR SOLUTION from run 138
USER: SCORE 14.350536 LL:  -1.958 LR: -12.392 RR:   0.000 FEB:  -9.707
USER: RMSD 9.313447
USER: SEED 137
USER: STATUS no improvement in best 21 clusters for 5 generations
USER: GENES 11
USER: genes 0 Translation |==|  0.48890 0.69575 0.49859
USER: genes 1 Rotation |==|  0.21347 0.60182 0.89608 0.52549
USER: genes 2 Torsion [N]-CA--C-[O] |==|  0.32454
USER: genes 3 Torsion [C]-N--CA-[CB] |==|  0.16103
USER: genes 4 Torsion [N]-CA--C-[OXT] |==|  0.19597
USER: genes 5 Torsion [N]-CA--CB-[CG] |==|  0.60308
USER: genes 6 Torsion [CA]-CB--CG-[CD1] |==|  0.84774
USER: genes 7 Torsion [N]-C--CA-[N] |==|  0.26670
USER: genes 8 Torsion [C]-CA--CB-[CG] |==|  0.27327
USER: genes 9 Torsion [CA]-CB--CG-[CD1] |==|  0.69666
USER: genes 10 Torsion [C]-CA--N-[H2] |==|  0.34777
ROOT
ATOM      1  C   TRP D   1      12.567  -4.948  34.798  1.00 35.88 LIG 0.25  C 
ATOM      2 O    TRP D   1      12.650  -4.493  35.996  1.00 38.57 LIG-0.27  OA
ATOM      3  N   PRO D   2      12.137  -6.076  34.388  1.00 34.89 LIG-0.34  N 
ATOM      4  CA  PRO D   2      11.480  -7.126  35.235  1.00 35.03 LIG 0.18  C 
ATOM      5  CB  PRO D   2      11.174  -8.169  34.197  1.00 35.34 LIG 0.04  C 
ATOM      6  CG  PRO D   2      10.802  -7.295  32.997  1.00 35.42 LIG 0.02  C 
ATOM      7  CD  PRO D   2      11.492  -5.975  33.089  1.00 35.14 LIG 0.13  C 
ENDROOT
BRANCH 4 8
ATOM      8  C   PRO D   2      12.160  -7.700  36.472  1.00 35.70 LIG 0.24  C 
ATOM      9 O    PRO D   2      11.729  -7.584  37.610  1.00 34.88 LIG-0.27  OA
ATOM     10  N   TRP D   3      13.283  -8.340  36.084  1.00 36.87 LIG-0.34  N 
ATOM     11 H    TRP D   3      13.427  -8.554  35.264  1.00 36.87 LIG 0.16  HD
BRANCH 10 12
ATOM     12  CA  TRP D   3      14.402  -8.755  37.000  1.00 37.56 LIG 0.19  C 
BRANCH 12 13
ATOM     13  C   TRP D   3      15.788  -9.320  36.511  1.00 38.92 LIG 0.20  C 
ATOM     14 OXT  TRP D   3      16.653  -8.585  35.929  1.00 41.38 LIG-0.65  OA
ATOM     15 O    TRP D   3      15.994 -10.614  36.709  1.00 40.06 LIG-0.65  OA
ENDBRANCH 12 13
BRANCH 12 16
ATOM     16  CB  TRP D   3      13.840  -9.703  38.123  1.00 36.55 LIG 0.08  C 
BRANCH 16 17
ATOM     17  CG  TRP D   3      14.526  -9.451  39.476  1.00 35.48 LIG-0.03  A 
ATOM     18  CD1 TRP D   3      15.900  -9.475  39.736  1.00 37.13 LIG 0.10  A 
ATOM     19  NE1 TRP D   3      16.130  -9.213  41.074  1.00 40.71 LIG-0.36  N 
ATOM     20 HE1  TRP D   3      16.904  -9.187  41.447  1.00 40.71 LIG 0.17  HD
ATOM     21  CE2 TRP D   3      14.930  -9.001  41.720  1.00 36.12 LIG 0.04  A 
ATOM     22  CD2 TRP D   3      13.879  -9.145  40.734  1.00 33.28 LIG-0.00  A 
ATOM     23  CZ2 TRP D   3      14.686  -8.716  43.088  1.00 34.49 LIG 0.03  A 
ATOM     24  CE3 TRP D   3      12.525  -9.012  41.134  1.00 31.46 LIG 0.01  A 
ATOM     25  CZ3 TRP D   3      12.250  -8.710  42.482  1.00 32.66 LIG 0.00  A 
ATOM     26  CH2 TRP D   3      13.347  -8.570  43.465  1.00 36.62 LIG 0.00  A 
ENDBRANCH 16 17
ENDBRANCH 12 16
ENDBRANCH 10 12
ENDBRANCH 4 8
BRANCH 1 27
ATOM     27  CA  TRP D   1      13.256  -4.181  33.626  1.00 34.78 LIG 0.28  C 
BRANCH 27 28
ATOM     28  CB  TRP D   1      14.498  -3.414  34.100  1.00 34.63 LIG 0.08  C 
BRANCH 28 29
ATOM     29  CG  TRP D   1      15.813  -4.198  33.812  1.00 37.87 LIG-0.03  A 
ATOM     30  CD1 TRP D   1      16.650  -4.816  34.740  1.00 40.68 LIG 0.10  A 
ATOM     31  NE1 TRP D   1      17.689  -5.448  34.086  1.00 42.18 LIG-0.36  N 
ATOM     32 HE1  TRP D   1      18.322  -5.889  34.465  1.00 42.18 LIG 0.17  HD
ATOM     33  CE2 TRP D   1      17.546  -5.256  32.720  1.00 41.11 LIG 0.04  A 
ATOM     34  CD2 TRP D   1      16.385  -4.474  32.514  1.00 38.74 LIG-0.00  A 
ATOM     35  CZ2 TRP D   1      18.358  -5.718  31.639  1.00 41.13 LIG 0.03  A 
ATOM     36  CE3 TRP D   1      16.005  -4.169  31.190  1.00 40.52 LIG 0.01  A 
ATOM     37  CZ3 TRP D   1      16.815  -4.622  30.118  1.00 41.02 LIG 0.00  A 
ATOM     38  CH2 TRP D   1      17.971  -5.396  30.358  1.00 39.74 LIG 0.00  A 
ENDBRANCH 28 29
ENDBRANCH 27 28
BRANCH 27 39
ATOM     39  N   TRP D   1      12.310  -3.209  32.965  1.00 33.45 LIG-0.07  N 
ATOM     40 H3   TRP D   1      12.158  -3.466  32.127  1.00 33.45 LIG 0.28  HD
ATOM     41 H2   TRP D   1      12.671  -2.395  32.965  1.00 33.45 LIG 0.28  HD
ATOM     42 H1   TRP D   1      11.541  -3.191  33.413  1.00 33.45 LIG 0.28  HD
ENDBRANCH 27 39
ENDBRANCH 1 27
TORSDOF 9
ENDMDL
MODEL 43
USER: ADFR SOLUTION from run 72
USER: SCORE 13.375140 LL:  -0.987 LR: -12.388 RR:   0.000 FEB:  -9.703
USER: RMSD 11.224993
USER: SEED 71
USER: STATUS no improvement in best 25 clusters for 5 generations
USER: GENES 11
USER: genes 0 Translation |==|  0.32937 0.74455 0.64873
USER: genes 1 Rotation |==|  0.51458 0.54957 0.64141 0.97680
USER: genes 2 Torsion [N]-CA--C-[O] |==|  0.39711
USER: genes 3 Torsion [C]-N--CA-[CB] |==|  0.53487
USER: genes 4 Torsion [N]-CA--C-[OXT] |==|  0.42201
USER: genes 5 Torsion [N]-CA--CB-[CG] |==|  0.76246
USER: genes 6 Torsion [CA]-CB--CG-[CD1] |==|  0.38855
USER: genes 7 Torsion [N]-C--CA-[N] |==|  0.89376
USER: genes 8 Torsion [C]-CA--CB-[CG] |==|  0.37269
USER: genes 9 Torsion [CA]-CB--CG-[CD1] |==|  0.20058
USER: genes 10 Torsion [C]-CA--N-[H2] |==|  0.78598
ROOT
ATOM      1  C   TRP D   1       7.781  -3.483  39.302  1.00 35.88 LIG 0.25  C 
ATOM      2 O    TRP D   1       6.939  -4.247  39.899  1.00 38.57 LIG-0.27  OA
ATOM      3  N   PRO D   2       7.758  -2.218  39.148  1.00 34.89 LIG-0.34  N 
ATOM      4  CA  PRO D   2       6.770  -1.275  39.767  1.00 35.03 LIG 0.18  C 
ATOM      5  CB  PRO D   2       7.282   0.041  39.254  1.00 35.34 LIG 0.04  C 
ATOM      6  CG  PRO D   2       8.794  -0.191  39.295  1.00 35.42 LIG 0.02  C 
ATOM      7  CD  PRO D   2       9.095  -1.645  39.146  1.00 35.14 LIG 0.13  C 
ENDROOT
BRANCH 4 8
ATOM      8  C   PRO D   2       5.268  -1.445  39.571  1.00 35.70 LIG 0.24  C 
ATOM      9 O    PRO D   2       4.432  -1.222  40.435  1.00 34.88 LIG-0.27  OA
ATOM     10  N   TRP D   3       5.047  -1.869  38.309  1.00 36.87 LIG-0.34  N 
ATOM     11 H    TRP D   3       5.649  -1.819  37.698  1.00 36.87 LIG 0.16  HD
BRANCH 10 12
ATOM     12  CA  TRP D   3       3.759  -2.468  37.812  1.00 37.56 LIG 0.19  C 
BRANCH 12 13
ATOM     13  C   TRP D   3       2.835  -3.420  38.660  1.00 38.92 LIG 0.20  C 
ATOM     14 OXT  TRP D   3       1.576  -3.492  38.467  1.00 41.38 LIG-0.65  OA
ATOM     15 O    TRP D   3       3.435  -4.120  39.613  1.00 40.06 LIG-0.65  OA
ENDBRANCH 12 13
BRANCH 12 16
ATOM     16  CB  TRP D   3       3.994  -3.123  36.400  1.00 36.55 LIG 0.08  C 
BRANCH 16 17
ATOM     17  CG  TRP D   3       3.853  -2.093  35.266  1.00 35.48 LIG-0.03  A 
ATOM     18  CD1 TRP D   3       4.651  -1.996  34.120  1.00 37.13 LIG 0.10  A 
ATOM     19  NE1 TRP D   3       4.226  -0.936  33.341  1.00 40.71 LIG-0.36  N 
ATOM     20 HE1  TRP D   3       4.581  -0.695  32.597  1.00 40.71 LIG 0.17  HD
ATOM     21  CE2 TRP D   3       3.145  -0.323  33.938  1.00 36.12 LIG 0.04  A 
ATOM     22  CD2 TRP D   3       2.875  -1.032  35.172  1.00 33.28 LIG-0.00  A 
ATOM     23  CZ2 TRP D   3       2.400   0.805  33.506  1.00 34.49 LIG 0.03  A 
ATOM     24  CE3 TRP D   3       1.826  -0.587  36.017  1.00 31.46 LIG 0.01  A 
ATOM     25  CZ3 TRP D   3       1.055   0.517  35.605  1.00 32.66 LIG 0.00  A 
ATOM     26  CH2 TRP D   3       1.357   1.221  34.339  1.00 36.62 LIG 0.00  A 
ENDBRANCH 16 17
ENDBRANCH 12 16
ENDBRANCH 10 12
ENDBRANCH 4 8
BRANCH 1 27
ATOM     27  CA  TRP D   1       8.912  -4.108  38.427  1.00 34.78 LIG 0.28  C 
BRANCH 27 28
ATOM     28  CB  TRP D   1      10.275  -4.048  39.130  1.00 34.63 LIG 0.08  C 
BRANCH 28 29
ATOM     29  CG  TRP D   1      11.041  -5.402  39.034  1.00 37.87 LIG-0.03  A 
ATOM     30  CD1 TRP D   1      11.650  -5.950  37.906  1.00 40.68 LIG 0.10  A 
ATOM     31  NE1 TRP D   1      12.268  -7.139  38.239  1.00 42.18 LIG-0.36  N 
ATOM     32 HE1  TRP D   1      12.702  -7.645  37.696  1.00 42.18 LIG 0.17  HD
ATOM     33  CE2 TRP D   1      12.076  -7.385  39.590  1.00 41.11 LIG 0.04  A 
ATOM     34  CD2 TRP D   1      11.307  -6.320  40.117  1.00 38.74 LIG-0.00  A 
ATOM     35  CZ2 TRP D   1      12.525  -8.475  40.397  1.00 41.13 LIG 0.03  A 
ATOM     36  CE3 TRP D   1      11.005  -6.324  41.495  1.00 40.52 LIG 0.01  A 
ATOM     37  CZ3 TRP D   1      11.446  -7.410  42.294  1.00 41.02 LIG 0.00  A 
ATOM     38  CH2 TRP D   1      12.205  -8.461  41.736  1.00 39.74 LIG 0.00  A 
ENDBRANCH 28 29
ENDBRANCH 27 28
BRANCH 27 39
ATOM     39  N   TRP D   1       9.026  -3.419  37.090  1.00 33.45 LIG-0.07  N 
ATOM     40 H3   TRP D   1       8.965  -2.538  37.204  1.00 33.45 LIG 0.28  HD
ATOM     41 H2   TRP D   1       8.370  -3.695  36.555  1.00 33.45 LIG 0.28  HD
ATOM     42 H1   TRP D   1       9.812  -3.615  36.721  1.00 33.45 LIG 0.28  HD
ENDBRANCH 27 39
ENDBRANCH 1 27
TORSDOF 9
ENDMDL
MODEL 44
USER: ADFR SOLUTION from run 115
USER: SCORE 14.140710 LL:  -1.747 LR: -12.393 RR:   0.000 FEB:  -9.709
USER: RMSD 8.612381
USER: SEED 114
USER: STATUS no improvement in best 10 clusters for 5 generations
USER: GENES 11
USER: genes 0 Translation |==|  0.48779 0.59266 0.58254
USER: genes 1 Rotation |==|  0.34200 0.94863 0.52721 0.65175
USER: genes 2 Torsion [N]-CA--C-[O] |==|  0.96605
USER: genes 3 Torsion [C]-N--CA-[CB] |==|  0.95102
USER: genes 4 Torsion [N]-CA--C-[OXT] |==|  0.00976
USER: genes 5 Torsion [N]-CA--CB-[CG] |==|  0.70506
USER: genes 6 Torsion [CA]-CB--CG-[CD1] |==|  0.24655
USER: genes 7 Torsion [N]-C--CA-[N] |==|  0.36282
USER: genes 8 Torsion [C]-CA--CB-[CG] |==|  0.80749
USER: genes 9 Torsion [CA]-CB--CG-[CD1] |==|  0.91309
USER: genes 10 Torsion [C]-CA--N-[H2] |==|  0.39287
ROOT
ATOM      1  C   TRP D   1      12.534  -8.040  37.316  1.00 35.88 LIG 0.25  C 
ATOM      2 O    TRP D   1      13.563  -7.374  37.696  1.00 38.57 LIG-0.27  OA
ATOM      3  N   PRO D   2      11.391  -7.619  36.938  1.00 34.89 LIG-0.34  N 
ATOM      4  CA  PRO D   2      11.013  -6.185  36.715  1.00 35.03 LIG 0.18  C 
ATOM      5  CB  PRO D   2       9.592  -6.340  36.253  1.00 35.34 LIG 0.04  C 
ATOM      6  CG  PRO D   2       9.687  -7.622  35.422  1.00 35.42 LIG 0.02  C 
ATOM      7  CD  PRO D   2      10.802  -8.478  35.923  1.00 35.14 LIG 0.13  C 
ENDROOT
BRANCH 4 8
ATOM      8  C   PRO D   2      11.171  -5.134  37.807  1.00 35.70 LIG 0.24  C 
ATOM      9 O    PRO D   2      11.400  -5.390  38.980  1.00 34.88 LIG-0.27  OA
ATOM     10  N   TRP D   3      11.020  -3.914  37.251  1.00 36.87 LIG-0.34  N 
ATOM     11 H    TRP D   3      11.057  -3.791  36.401  1.00 36.87 LIG 0.16  HD
BRANCH 10 12
ATOM     12  CA  TRP D   3      10.773  -2.640  38.014  1.00 37.56 LIG 0.19  C 
BRANCH 12 13
ATOM     13  C   TRP D   3      11.794  -1.445  38.103  1.00 38.92 LIG 0.20  C 
ATOM     14 OXT  TRP D   3      12.900  -1.448  37.466  1.00 41.38 LIG-0.65  OA
ATOM     15 O    TRP D   3      11.456  -0.446  38.905  1.00 40.06 LIG-0.65  OA
ENDBRANCH 12 13
BRANCH 12 16
ATOM     16  CB  TRP D   3      10.275  -2.984  39.467  1.00 36.55 LIG 0.08  C 
BRANCH 16 17
ATOM     17  CG  TRP D   3       8.771  -2.706  39.633  1.00 35.48 LIG-0.03  A 
ATOM     18  CD1 TRP D   3       7.722  -3.595  39.373  1.00 37.13 LIG 0.10  A 
ATOM     19  NE1 TRP D   3       6.512  -2.979  39.628  1.00 40.71 LIG-0.36  N 
ATOM     20 HE1  TRP D   3       5.740  -3.344  39.528  1.00 40.71 LIG 0.17  HD
ATOM     21  CE2 TRP D   3       6.728  -1.690  40.067  1.00 36.12 LIG 0.04  A 
ATOM     22  CD2 TRP D   3       8.160  -1.476  40.083  1.00 33.28 LIG-0.00  A 
ATOM     23  CZ2 TRP D   3       5.784  -0.695  40.429  1.00 34.49 LIG 0.03  A 
ATOM     24  CE3 TRP D   3       8.671  -0.208  40.465  1.00 31.46 LIG 0.01  A 
ATOM     25  CZ3 TRP D   3       7.760   0.794  40.849  1.00 32.66 LIG 0.00  A 
ATOM     26  CH2 TRP D   3       6.303   0.544  40.820  1.00 36.62 LIG 0.00  A 
ENDBRANCH 16 17
ENDBRANCH 12 16
ENDBRANCH 10 12
ENDBRANCH 4 8
BRANCH 1 27
ATOM     27  CA  TRP D   1      12.496  -9.588  37.509  1.00 34.78 LIG 0.28  C 
BRANCH 27 28
ATOM     28  CB  TRP D   1      12.525  -9.978  38.993  1.00 34.63 LIG 0.08  C 
BRANCH 28 29
ATOM     29  CG  TRP D   1      13.904  -9.670  39.651  1.00 37.87 LIG-0.03  A 
ATOM     30  CD1 TRP D   1      15.156  -9.694  39.040  1.00 40.68 LIG 0.10  A 
ATOM     31  NE1 TRP D   1      16.127  -9.315  39.945  1.00 42.18 LIG-0.36  N 
ATOM     32 HE1  TRP D   1      16.969  -9.262  39.781  1.00 42.18 LIG 0.17  HD
ATOM     33  CE2 TRP D   1      15.524  -9.033  41.162  1.00 41.11 LIG 0.04  A 
ATOM     34  CD2 TRP D   1      14.134  -9.250  41.014  1.00 38.74 LIG-0.00  A 
ATOM     35  CZ2 TRP D   1      16.103  -8.598  42.393  1.00 41.13 LIG 0.03  A 
ATOM     36  CE3 TRP D   1      13.292  -8.995  42.117  1.00 40.52 LIG 0.01  A 
ATOM     37  CZ3 TRP D   1      13.867  -8.570  43.341  1.00 41.02 LIG 0.00  A 
ATOM     38  CH2 TRP D   1      15.260  -8.369  43.457  1.00 39.74 LIG 0.00  A 
ENDBRANCH 28 29
ENDBRANCH 27 28
BRANCH 27 39
ATOM     39  N   TRP D   1      13.648 -10.265  36.809  1.00 33.45 LIG-0.07  N 
ATOM     40 H3   TRP D   1      13.373 -10.583  36.024  1.00 33.45 LIG 0.28  HD
ATOM     41 H2   TRP D   1      13.950 -10.935  37.311  1.00 33.45 LIG 0.28  HD
ATOM     42 H1   TRP D   1      14.302  -9.676  36.676  1.00 33.45 LIG 0.28  HD
ENDBRANCH 27 39
ENDBRANCH 1 27
TORSDOF 9
ENDMDL
MODEL 45
USER: ADFR SOLUTION from run 134
USER: SCORE 13.534443 LL:  -1.149 LR: -12.386 RR:   0.000 FEB:  -9.701
USER: RMSD 11.653889
USER: SEED 133
USER: STATUS no improvement in best 16 clusters for 5 generations
USER: GENES 11
USER: genes 0 Translation |==|  0.55322 0.75121 0.45086
USER: genes 1 Rotation |==|  0.30665 0.52083 0.08578 0.70150
USER: genes 2 Torsion [N]-CA--C-[O] |==|  0.96626
USER: genes 3 Torsion [C]-N--CA-[CB] |==|  0.77380
USER: genes 4 Torsion [N]-CA--C-[OXT] |==|  0.04602
USER: genes 5 Torsion [N]-CA--CB-[CG] |==|  0.84657
USER: genes 6 Torsion [CA]-CB--CG-[CD1] |==|  0.27901
USER: genes 7 Torsion [N]-C--CA-[N] |==|  0.90880
USER: genes 8 Torsion [C]-CA--CB-[CG] |==|  0.32703
USER: genes 9 Torsion [CA]-CB--CG-[CD1] |==|  0.93616
USER: genes 10 Torsion [C]-CA--N-[H2] |==|  0.63836
ROOT
ATOM      1  C   TRP D   1      14.497  -3.284  33.366  1.00 35.88 LIG 0.25  C 
ATOM      2 O    TRP D   1      15.150  -2.254  32.965  1.00 38.57 LIG-0.27  OA
ATOM      3  N   PRO D   2      14.801  -4.519  33.279  1.00 34.89 LIG-0.34  N 
ATOM      4  CA  PRO D   2      16.106  -5.070  32.787  1.00 35.03 LIG 0.18  C 
ATOM      5  CB  PRO D   2      15.869  -6.544  32.961  1.00 35.34 LIG 0.04  C 
ATOM      6  CG  PRO D   2      15.056  -6.564  34.258  1.00 35.42 LIG 0.02  C 
ATOM      7  CD  PRO D   2      14.307  -5.283  34.414  1.00 35.14 LIG 0.13  C 
ENDROOT
BRANCH 4 8
ATOM      8  C   PRO D   2      16.659  -4.716  31.412  1.00 35.70 LIG 0.24  C 
ATOM      9 O    PRO D   2      16.018  -4.153  30.537  1.00 34.88 LIG-0.27  OA
ATOM     10  N   TRP D   3      17.944  -5.123  31.351  1.00 36.87 LIG-0.34  N 
ATOM     11 H    TRP D   3      18.393  -5.331  32.055  1.00 36.87 LIG 0.16  HD
BRANCH 10 12
ATOM     12  CA  TRP D   3      18.747  -5.266  30.086  1.00 37.56 LIG 0.19  C 
BRANCH 12 13
ATOM     13  C   TRP D   3      18.854  -4.159  28.972  1.00 38.92 LIG 0.20  C 
ATOM     14 OXT  TRP D   3      18.525  -2.945  29.187  1.00 41.38 LIG-0.65  OA
ATOM     15 O    TRP D   3      19.275  -4.566  27.782  1.00 40.06 LIG-0.65  OA
ENDBRANCH 12 13
BRANCH 12 16
ATOM     16  CB  TRP D   3      18.407  -6.640  29.399  1.00 36.55 LIG 0.08  C 
BRANCH 16 17
ATOM     17  CG  TRP D   3      18.624  -7.824  30.357  1.00 35.48 LIG-0.03  A 
ATOM     18  CD1 TRP D   3      17.639  -8.510  31.076  1.00 37.13 LIG 0.10  A 
ATOM     19  NE1 TRP D   3      18.222  -9.503  31.840  1.00 40.71 LIG-0.36  N 
ATOM     20 HE1  TRP D   3      17.798 -10.039  32.362  1.00 40.71 LIG 0.17  HD
ATOM     21  CE2 TRP D   3      19.586  -9.506  31.639  1.00 36.12 LIG 0.04  A 
ATOM     22  CD2 TRP D   3      19.884  -8.446  30.699  1.00 33.28 LIG-0.00  A 
ATOM     23  CZ2 TRP D   3      20.578 -10.336  32.222  1.00 34.49 LIG 0.03  A 
ATOM     24  CE3 TRP D   3      21.232  -8.196  30.334  1.00 31.46 LIG 0.01  A 
ATOM     25  CZ3 TRP D   3      22.238  -9.016  30.881  1.00 32.66 LIG 0.00  A 
ATOM     26  CH2 TRP D   3      21.900 -10.090  31.840  1.00 36.62 LIG 0.00  A 
ENDBRANCH 16 17
ENDBRANCH 12 16
ENDBRANCH 10 12
ENDBRANCH 4 8
BRANCH 1 27
ATOM     27  CA  TRP D   1      13.020  -3.129  33.845  1.00 34.78 LIG 0.28  C 
BRANCH 27 28
ATOM     28  CB  TRP D   1      12.920  -3.079  35.376  1.00 34.63 LIG 0.08  C 
BRANCH 28 29
ATOM     29  CG  TRP D   1      12.337  -1.724  35.879  1.00 37.87 LIG-0.03  A 
ATOM     30  CD1 TRP D   1      12.337  -0.502  35.208  1.00 40.68 LIG 0.10  A 
ATOM     31  NE1 TRP D   1      11.682   0.449  35.965  1.00 42.18 LIG-0.36  N 
ATOM     32 HE1  TRP D   1      11.567   1.271  35.743  1.00 42.18 LIG 0.17  HD
ATOM     33  CE2 TRP D   1      11.240  -0.138  37.142  1.00 41.11 LIG 0.04  A 
ATOM     34  CD2 TRP D   1      11.638  -1.496  37.122  1.00 38.74 LIG-0.00  A 
ATOM     35  CZ2 TRP D   1      10.512   0.430  38.232  1.00 41.13 LIG 0.03  A 
ATOM     36  CE3 TRP D   1      11.271  -2.320  38.206  1.00 40.52 LIG 0.01  A 
ATOM     37  CZ3 TRP D   1      10.554  -1.755  39.291  1.00 41.02 LIG 0.00  A 
ATOM     38  CH2 TRP D   1      10.178  -0.394  39.283  1.00 39.74 LIG 0.00  A 
ENDBRANCH 28 29
ENDBRANCH 27 28
BRANCH 27 39
ATOM     39  N   TRP D   1      12.150  -4.254  33.340  1.00 33.45 LIG-0.07  N 
ATOM     40 H3   TRP D   1      12.600  -4.729  32.737  1.00 33.45 LIG 0.28  HD
ATOM     41 H2   TRP D   1      11.416  -3.917  32.965  1.00 33.45 LIG 0.28  HD
ATOM     42 H1   TRP D   1      11.920  -4.780  34.020  1.00 33.45 LIG 0.28  HD
ENDBRANCH 27 39
ENDBRANCH 1 27
TORSDOF 9
ENDMDL
MODEL 46
USER: ADFR SOLUTION from run 114
USER: SCORE 14.509917 LL:  -2.128 LR: -12.382 RR:   0.000 FEB:  -9.697
USER: RMSD 8.741425
USER: SEED 113
USER: STATUS no improvement in best 20 clusters for 5 generations
USER: GENES 11
USER: genes 0 Translation |==|  0.48417 0.65053 0.55536
USER: genes 1 Rotation |==|  0.59902 0.79006 0.85626 0.67070
USER: genes 2 Torsion [N]-CA--C-[O] |==|  0.01384
USER: genes 3 Torsion [C]-N--CA-[CB] |==|  0.26140
USER: genes 4 Torsion [N]-CA--C-[OXT] |==|  0.52395
USER: genes 5 Torsion [N]-CA--CB-[CG] |==|  0.81933
USER: genes 6 Torsion [CA]-CB--CG-[CD1] |==|  0.37610
USER: genes 7 Torsion [N]-C--CA-[N] |==|  0.26432
USER: genes 8 Torsion [C]-CA--CB-[CG] |==|  0.66821
USER: genes 9 Torsion [CA]-CB--CG-[CD1] |==|  0.70502
USER: genes 10 Torsion [C]-CA--N-[H2] |==|  0.83181
ROOT
ATOM      1  C   TRP D   1      12.425  -6.304  36.501  1.00 35.88 LIG 0.25  C 
ATOM      2 O    TRP D   1      13.569  -6.875  36.622  1.00 38.57 LIG-0.27  OA
ATOM      3  N   PRO D   2      11.568  -6.010  37.399  1.00 34.89 LIG-0.34  N 
ATOM      4  CA  PRO D   2      11.764  -6.151  38.879  1.00 35.03 LIG 0.18  C 
ATOM      5  CB  PRO D   2      10.453  -5.619  39.384  1.00 35.34 LIG 0.04  C 
ATOM      6  CG  PRO D   2      10.185  -4.490  38.387  1.00 35.42 LIG 0.02  C 
ATOM      7  CD  PRO D   2      10.843  -4.790  37.082  1.00 35.14 LIG 0.13  C 
ENDROOT
BRANCH 4 8
ATOM      8  C   PRO D   2      12.150  -7.481  39.515  1.00 35.70 LIG 0.24  C 
ATOM      9 O    PRO D   2      12.413  -8.495  38.884  1.00 34.88 LIG-0.27  OA
ATOM     10  N   TRP D   3      12.150  -7.330  40.856  1.00 36.87 LIG-0.34  N 
ATOM     11 H    TRP D   3      12.150  -6.555  41.229  1.00 36.87 LIG 0.16  HD
BRANCH 10 12
ATOM     12  CA  TRP D   3      12.150  -8.457  41.853  1.00 37.56 LIG 0.19  C 
BRANCH 12 13
ATOM     13  C   TRP D   3      11.232  -8.512  43.131  1.00 38.92 LIG 0.20  C 
ATOM     14 OXT  TRP D   3      11.377  -9.404  44.033  1.00 41.38 LIG-0.65  OA
ATOM     15 O    TRP D   3      10.275  -7.598  43.203  1.00 40.06 LIG-0.65  OA
ENDBRANCH 12 13
BRANCH 12 16
ATOM     16  CB  TRP D   3      13.629  -8.781  42.282  1.00 36.55 LIG 0.08  C 
BRANCH 16 17
ATOM     17  CG  TRP D   3      14.457  -9.320  41.103  1.00 35.48 LIG-0.03  A 
ATOM     18  CD1 TRP D   3      15.759  -8.945  40.753  1.00 37.13 LIG 0.10  A 
ATOM     19  NE1 TRP D   3      16.160  -9.638  39.627  1.00 40.71 LIG-0.36  N 
ATOM     20 HE1  TRP D   3      16.923  -9.554  39.240  1.00 40.71 LIG 0.17  HD
ATOM     21  CE2 TRP D   3      15.153 -10.485  39.216  1.00 36.12 LIG 0.04  A 
ATOM     22  CD2 TRP D   3      14.045 -10.311  40.133  1.00 33.28 LIG-0.00  A 
ATOM     23  CZ2 TRP D   3      15.119 -11.368  38.107  1.00 34.49 LIG 0.03  A 
ATOM     24  CE3 TRP D   3      12.847 -11.041  39.925  1.00 31.46 LIG 0.01  A 
ATOM     25  CZ3 TRP D   3      12.789 -11.942  38.843  1.00 32.66 LIG 0.00  A 
ATOM     26  CH2 TRP D   3      13.938 -12.095  37.924  1.00 36.62 LIG 0.00  A 
ENDBRANCH 16 17
ENDBRANCH 12 16
ENDBRANCH 10 12
ENDBRANCH 4 8
BRANCH 1 27
ATOM     27  CA  TRP D   1      11.808  -6.092  35.083  1.00 34.78 LIG 0.28  C 
BRANCH 27 28
ATOM     28  CB  TRP D   1      12.279  -7.164  34.091  1.00 34.63 LIG 0.08  C 
BRANCH 28 29
ATOM     29  CG  TRP D   1      13.048  -6.545  32.885  1.00 37.87 LIG-0.03  A 
ATOM     30  CD1 TRP D   1      12.590  -6.398  31.576  1.00 40.68 LIG 0.10  A 
ATOM     31  NE1 TRP D   1      13.548  -5.760  30.813  1.00 42.18 LIG-0.36  N 
ATOM     32 HE1  TRP D   1      13.475  -5.570  29.978  1.00 42.18 LIG 0.17  HD
ATOM     33  CE2 TRP D   1      14.646  -5.476  31.612  1.00 41.11 LIG 0.04  A 
ATOM     34  CD2 TRP D   1      14.368  -5.959  32.913  1.00 38.74 LIG-0.00  A 
ATOM     35  CZ2 TRP D   1      15.874  -4.824  31.285  1.00 41.13 LIG 0.03  A 
ATOM     36  CE3 TRP D   1      15.329  -5.756  33.926  1.00 40.52 LIG 0.01  A 
ATOM     37  CZ3 TRP D   1      16.551  -5.115  33.599  1.00 41.02 LIG 0.00  A 
ATOM     38  CH2 TRP D   1      16.800  -4.651  32.289  1.00 39.74 LIG 0.00  A 
ENDBRANCH 28 29
ENDBRANCH 27 28
BRANCH 27 39
ATOM     39  N   TRP D   1      12.150  -4.732  34.526  1.00 33.45 LIG-0.07  N 
ATOM     40 H3   TRP D   1      13.034  -4.648  34.469  1.00 33.45 LIG 0.28  HD
ATOM     41 H2   TRP D   1      11.826  -4.100  35.062  1.00 33.45 LIG 0.28  HD
ATOM     42 H1   TRP D   1      11.792  -4.645  33.716  1.00 33.45 LIG 0.28  HD
ENDBRANCH 27 39
ENDBRANCH 1 27
TORSDOF 9
ENDMDL
MODEL 47
USER: ADFR SOLUTION from run 29
USER: SCORE 14.037243 LL:  -1.658 LR: -12.379 RR:   0.000 FEB:  -9.695
USER: RMSD 7.835045
USER: SEED 28
USER: STATUS no improvement in best 11 clusters for 5 generations
USER: GENES 11
USER: genes 0 Translation |==|  0.48263 0.64448 0.54188
USER: genes 1 Rotation |==|  0.39969 0.07025 0.55626 0.72822
USER: genes 2 Torsion [N]-CA--C-[O] |==|  0.69344
USER: genes 3 Torsion [C]-N--CA-[CB] |==|  0.18029
USER: genes 4 Torsion [N]-CA--C-[OXT] |==|  0.94959
USER: genes 5 Torsion [N]-CA--CB-[CG] |==|  0.58455
USER: genes 6 Torsion [CA]-CB--CG-[CD1] |==|  0.16876
USER: genes 7 Torsion [N]-C--CA-[N] |==|  0.24359
USER: genes 8 Torsion [C]-CA--CB-[CG] |==|  0.37301
USER: genes 9 Torsion [CA]-CB--CG-[CD1] |==|  0.64048
USER: genes 10 Torsion [C]-CA--N-[H2] |==|  0.65330
ROOT
ATOM      1  C   TRP D   1      12.379  -6.486  36.096  1.00 35.88 LIG 0.25  C 
ATOM      2 O    TRP D   1      12.616  -7.142  35.019  1.00 38.57 LIG-0.27  OA
ATOM      3  N   PRO D   2      12.412  -5.227  36.301  1.00 34.89 LIG-0.34  N 
ATOM      4  CA  PRO D   2      12.617  -4.172  35.255  1.00 35.03 LIG 0.18  C 
ATOM      5  CB  PRO D   2      12.516  -2.928  36.092  1.00 35.34 LIG 0.04  C 
ATOM      6  CG  PRO D   2      11.427  -3.328  37.090  1.00 35.42 LIG 0.02  C 
ATOM      7  CD  PRO D   2      11.421  -4.808  37.279  1.00 35.14 LIG 0.13  C 
ENDROOT
BRANCH 4 8
ATOM      8  C   PRO D   2      13.835  -4.175  34.340  1.00 35.70 LIG 0.24  C 
ATOM      9 O    PRO D   2      14.740  -3.356  34.396  1.00 34.88 LIG-0.27  OA
ATOM     10  N   TRP D   3      13.729  -5.219  33.491  1.00 36.87 LIG-0.34  N 
ATOM     11 H    TRP D   3      13.178  -5.866  33.628  1.00 36.87 LIG 0.16  HD
BRANCH 10 12
ATOM     12  CA  TRP D   3      14.531  -5.394  32.230  1.00 37.56 LIG 0.19  C 
BRANCH 12 13
ATOM     13  C   TRP D   3      14.169  -6.404  31.079  1.00 38.92 LIG 0.20  C 
ATOM     14 OXT  TRP D   3      13.373  -7.384  31.261  1.00 41.38 LIG-0.65  OA
ATOM     15 O    TRP D   3      14.766  -6.200  29.913  1.00 40.06 LIG-0.65  OA
ENDBRANCH 12 13
BRANCH 12 16
ATOM     16  CB  TRP D   3      16.053  -5.570  32.594  1.00 36.55 LIG 0.08  C 
BRANCH 16 17
ATOM     17  CG  TRP D   3      16.969  -5.019  31.488  1.00 35.48 LIG-0.03  A 
ATOM     18  CD1 TRP D   3      17.025  -3.699  31.028  1.00 37.13 LIG 0.10  A 
ATOM     19  NE1 TRP D   3      17.961  -3.593  30.017  1.00 40.71 LIG-0.36  N 
ATOM     20 HE1  TRP D   3      18.150  -2.871  29.590  1.00 40.71 LIG 0.17  HD
ATOM     21  CE2 TRP D   3      18.547  -4.821  29.794  1.00 36.12 LIG 0.04  A 
ATOM     22  CD2 TRP D   3      17.939  -5.761  30.714  1.00 33.28 LIG-0.00  A 
ATOM     23  CZ2 TRP D   3      19.542  -5.184  28.850  1.00 34.49 LIG 0.03  A 
ATOM     24  CE3 TRP D   3      18.332  -7.123  30.680  1.00 31.46 LIG 0.01  A 
ATOM     25  CZ3 TRP D   3      19.332  -7.511  29.766  1.00 32.66 LIG 0.00  A 
ATOM     26  CH2 TRP D   3      19.932  -6.527  28.839  1.00 36.62 LIG 0.00  A 
ENDBRANCH 16 17
ENDBRANCH 12 16
ENDBRANCH 10 12
ENDBRANCH 4 8
BRANCH 1 27
ATOM     27  CA  TRP D   1      12.229  -7.244  37.452  1.00 34.78 LIG 0.28  C 
BRANCH 27 28
ATOM     28  CB  TRP D   1      12.886  -8.630  37.404  1.00 34.63 LIG 0.08  C 
BRANCH 28 29
ATOM     29  CG  TRP D   1      13.749  -8.911  38.671  1.00 37.87 LIG-0.03  A 
ATOM     30  CD1 TRP D   1      15.068  -9.360  38.712  1.00 40.68 LIG 0.10  A 
ATOM     31  NE1 TRP D   1      15.495  -9.439  40.023  1.00 42.18 LIG-0.36  N 
ATOM     32 HE1  TRP D   1      16.275  -9.695  40.279  1.00 42.18 LIG 0.17  HD
ATOM     33  CE2 TRP D   1      14.464  -9.039  40.859  1.00 41.11 LIG 0.04  A 
ATOM     34  CD2 TRP D   1      13.355  -8.706  40.045  1.00 38.74 LIG-0.00  A 
ATOM     35  CZ2 TRP D   1      14.423  -8.942  42.284  1.00 41.13 LIG 0.03  A 
ATOM     36  CE3 TRP D   1      12.181  -8.233  40.668  1.00 40.52 LIG 0.01  A 
ATOM     37  CZ3 TRP D   1      12.138  -8.144  42.083  1.00 41.02 LIG 0.00  A 
ATOM     38  CH2 TRP D   1      13.260  -8.490  42.866  1.00 39.74 LIG 0.00  A 
ENDBRANCH 28 29
ENDBRANCH 27 28
BRANCH 27 39
ATOM     39  N   TRP D   1      10.780  -7.409  37.840  1.00 33.45 LIG-0.07  N 
ATOM     40 H3   TRP D   1      10.265  -6.979  37.255  1.00 33.45 LIG 0.28  HD
ATOM     41 H2   TRP D   1      10.650  -7.071  38.653  1.00 33.45 LIG 0.28  HD
ATOM     42 H1   TRP D   1      10.569  -8.273  37.841  1.00 33.45 LIG 0.28  HD
ENDBRANCH 27 39
ENDBRANCH 1 27
TORSDOF 9
ENDMDL
MODEL 48
USER: ADFR SOLUTION from run 108
USER: SCORE 14.443659 LL:  -2.075 LR: -12.369 RR:   0.000 FEB:  -9.684
USER: RMSD 10.420339
USER: SEED 107
USER: STATUS no improvement in best 7 clusters for 5 generations
USER: GENES 11
USER: genes 0 Translation |==|  0.41189 0.75402 0.62896
USER: genes 1 Rotation |==|  0.45951 0.75764 0.49271 0.92653
USER: genes 2 Torsion [N]-CA--C-[O] |==|  0.42758
USER: genes 3 Torsion [C]-N--CA-[CB] |==|  0.68254
USER: genes 4 Torsion [N]-CA--C-[OXT] |==|  0.32807
USER: genes 5 Torsion [N]-CA--CB-[CG] |==|  0.85490
USER: genes 6 Torsion [CA]-CB--CG-[CD1] |==|  0.37820
USER: genes 7 Torsion [N]-C--CA-[N] |==|  0.89235
USER: genes 8 Torsion [C]-CA--CB-[CG] |==|  0.29047
USER: genes 9 Torsion [CA]-CB--CG-[CD1] |==|  0.43199
USER: genes 10 Torsion [C]-CA--N-[H2] |==|  0.95620
ROOT
ATOM      1  C   TRP D   1      10.257  -3.199  38.709  1.00 35.88 LIG 0.25  C 
ATOM      2 O    TRP D   1      10.059  -3.140  39.976  1.00 38.57 LIG-0.27  OA
ATOM      3  N   PRO D   2      10.385  -2.252  37.864  1.00 34.89 LIG-0.34  N 
ATOM      4  CA  PRO D   2      10.470  -0.791  38.190  1.00 35.03 LIG 0.18  C 
ATOM      5  CB  PRO D   2      10.650  -0.210  36.816  1.00 35.34 LIG 0.04  C 
ATOM      6  CG  PRO D   2      11.536  -1.270  36.158  1.00 35.42 LIG 0.02  C 
ATOM      7  CD  PRO D   2      11.300  -2.601  36.789  1.00 35.14 LIG 0.13  C 
ENDROOT
BRANCH 4 8
ATOM      8  C   PRO D   2       9.387  -0.084  38.996  1.00 35.70 LIG 0.24  C 
ATOM      9 O    PRO D   2       9.574   0.918  39.670  1.00 34.88 LIG-0.27  OA
ATOM     10  N   TRP D   3       8.225  -0.750  38.826  1.00 36.87 LIG-0.34  N 
ATOM     11 H    TRP D   3       8.114  -1.322  38.194  1.00 36.87 LIG 0.16  HD
BRANCH 10 12
ATOM     12  CA  TRP D   3       7.003  -0.590  39.690  1.00 37.56 LIG 0.19  C 
BRANCH 12 13
ATOM     13  C   TRP D   3       6.759   0.618  40.670  1.00 38.92 LIG 0.20  C 
ATOM     14 OXT  TRP D   3       5.775   1.418  40.529  1.00 41.38 LIG-0.65  OA
ATOM     15 O    TRP D   3       7.654   0.778  41.634  1.00 40.06 LIG-0.65  OA
ENDBRANCH 12 13
BRANCH 12 16
ATOM     16  CB  TRP D   3       6.726  -1.931  40.465  1.00 36.55 LIG 0.08  C 
BRANCH 16 17
ATOM     17  CG  TRP D   3       6.677  -3.138  39.513  1.00 35.48 LIG-0.03  A 
ATOM     18  CD1 TRP D   3       7.272  -4.388  39.715  1.00 37.13 LIG 0.10  A 
ATOM     19  NE1 TRP D   3       7.018  -5.209  38.632  1.00 40.71 LIG-0.36  N 
ATOM     20 HE1  TRP D   3       7.297  -6.018  38.548  1.00 40.71 LIG 0.17  HD
ATOM     21  CE2 TRP D   3       6.251  -4.535  37.706  1.00 36.12 LIG 0.04  A 
ATOM     22  CD2 TRP D   3       6.012  -3.206  38.230  1.00 33.28 LIG-0.00  A 
ATOM     23  CZ2 TRP D   3       5.769  -4.977  36.447  1.00 34.49 LIG 0.03  A 
ATOM     24  CE3 TRP D   3       5.271  -2.275  37.459  1.00 31.46 LIG 0.01  A 
ATOM     25  CZ3 TRP D   3       4.762  -2.691  36.213  1.00 32.66 LIG 0.00  A 
ATOM     26  CH2 TRP D   3       5.025  -4.054  35.705  1.00 36.62 LIG 0.00  A 
ENDBRANCH 16 17
ENDBRANCH 12 16
ENDBRANCH 10 12
ENDBRANCH 4 8
BRANCH 1 27
ATOM     27  CA  TRP D   1      10.124  -4.565  37.965  1.00 34.78 LIG 0.28  C 
BRANCH 27 28
ATOM     28  CB  TRP D   1      11.494  -5.141  37.584  1.00 34.63 LIG 0.08  C 
BRANCH 28 29
ATOM     29  CG  TRP D   1      11.910  -6.321  38.513  1.00 37.87 LIG-0.03  A 
ATOM     30  CD1 TRP D   1      12.794  -7.358  38.219  1.00 40.68 LIG 0.10  A 
ATOM     31  NE1 TRP D   1      12.936  -8.179  39.320  1.00 42.18 LIG-0.36  N 
ATOM     32 HE1  TRP D   1      13.432  -8.880  39.359  1.00 42.18 LIG 0.17  HD
ATOM     33  CE2 TRP D   1      12.150  -7.690  40.353  1.00 41.11 LIG 0.04  A 
ATOM     34  CD2 TRP D   1      11.490  -6.531  39.880  1.00 38.74 LIG-0.00  A 
ATOM     35  CZ2 TRP D   1      11.969  -8.184  41.681  1.00 41.13 LIG 0.03  A 
ATOM     36  CE3 TRP D   1      10.650  -5.825  40.766  1.00 40.52 LIG 0.01  A 
ATOM     37  CZ3 TRP D   1      10.465  -6.320  42.082  1.00 41.02 LIG 0.00  A 
ATOM     38  CH2 TRP D   1      11.133  -7.484  42.521  1.00 39.74 LIG 0.00  A 
ENDBRANCH 28 29
ENDBRANCH 27 28
BRANCH 27 39
ATOM     39  N   TRP D   1       9.288  -4.438  36.715  1.00 33.45 LIG-0.07  N 
ATOM     40 H3   TRP D   1       9.819  -4.446  36.001  1.00 33.45 LIG 0.28  HD
ATOM     41 H2   TRP D   1       8.832  -3.674  36.738  1.00 33.45 LIG 0.28  HD
ATOM     42 H1   TRP D   1       8.719  -5.121  36.668  1.00 33.45 LIG 0.28  HD
ENDBRANCH 27 39
ENDBRANCH 1 27
TORSDOF 9
ENDMDL
MODEL 49
USER: ADFR SOLUTION from run 39
USER: SCORE 15.197613 LL:  -2.870 LR: -12.327 RR:   0.000 FEB:  -9.643
USER: RMSD 9.531737
USER: SEED 38
USER: STATUS no improvement in best 8 clusters for 5 generations
USER: GENES 11
USER: genes 0 Translation |==|  0.35105 0.72546 0.60008
USER: genes 1 Rotation |==|  0.84796 0.16277 0.39869 0.57027
USER: genes 2 Torsion [N]-CA--C-[O] |==|  0.54290
USER: genes 3 Torsion [C]-N--CA-[CB] |==|  0.41121
USER: genes 4 Torsion [N]-CA--C-[OXT] |==|  0.00207
USER: genes 5 Torsion [N]-CA--CB-[CG] |==|  0.15567
USER: genes 6 Torsion [CA]-CB--CG-[CD1] |==|  0.70917
USER: genes 7 Torsion [N]-C--CA-[N] |==|  0.47999
USER: genes 8 Torsion [C]-CA--CB-[CG] |==|  0.43010
USER: genes 9 Torsion [CA]-CB--CG-[CD1] |==|  0.07408
USER: genes 10 Torsion [C]-CA--N-[H2] |==|  0.00984
ROOT
ATOM      1  C   TRP D   1       8.432  -4.056  37.842  1.00 35.88 LIG 0.25  C 
ATOM      2 O    TRP D   1       8.337  -2.813  37.535  1.00 38.57 LIG-0.27  OA
ATOM      3  N   PRO D   2       7.579  -4.817  38.409  1.00 34.89 LIG-0.34  N 
ATOM      4  CA  PRO D   2       6.163  -4.453  38.743  1.00 35.03 LIG 0.18  C 
ATOM      5  CB  PRO D   2       5.678  -5.744  39.340  1.00 35.34 LIG 0.04  C 
ATOM      6  CG  PRO D   2       6.400  -6.769  38.462  1.00 35.42 LIG 0.02  C 
ATOM      7  CD  PRO D   2       7.667  -6.187  37.930  1.00 35.14 LIG 0.13  C 
ENDROOT
BRANCH 4 8
ATOM      8  C   PRO D   2       5.826  -3.239  39.600  1.00 35.70 LIG 0.24  C 
ATOM      9 O    PRO D   2       4.739  -3.047  40.124  1.00 34.88 LIG-0.27  OA
ATOM     10  N   TRP D   3       6.919  -2.450  39.671  1.00 36.87 LIG-0.34  N 
ATOM     11 H    TRP D   3       7.701  -2.731  39.450  1.00 36.87 LIG 0.16  HD
BRANCH 10 12
ATOM     12  CA  TRP D   3       6.923  -1.017  40.130  1.00 37.56 LIG 0.19  C 
BRANCH 12 13
ATOM     13  C   TRP D   3       6.525   0.208  39.225  1.00 38.92 LIG 0.20  C 
ATOM     14 OXT  TRP D   3       6.150   0.063  38.014  1.00 41.38 LIG-0.65  OA
ATOM     15 O    TRP D   3       6.633   1.406  39.782  1.00 40.06 LIG-0.65  OA
ENDBRANCH 12 13
BRANCH 12 16
ATOM     16  CB  TRP D   3       8.290  -0.695  40.840  1.00 36.55 LIG 0.08  C 
BRANCH 16 17
ATOM     17  CG  TRP D   3       9.490  -0.995  39.925  1.00 35.48 LIG-0.03  A 
ATOM     18  CD1 TRP D   3      10.360  -2.087  40.017  1.00 37.13 LIG 0.10  A 
ATOM     19  NE1 TRP D   3      11.322  -2.004  39.028  1.00 40.71 LIG-0.36  N 
ATOM     20 HE1  TRP D   3      11.958  -2.570  38.908  1.00 40.71 LIG 0.17  HD
ATOM     21  CE2 TRP D   3      11.107  -0.879  38.261  1.00 36.12 LIG 0.04  A 
ATOM     22  CD2 TRP D   3       9.946  -0.204  38.803  1.00 33.28 LIG-0.00  A 
ATOM     23  CZ2 TRP D   3      11.850  -0.391  37.155  1.00 34.49 LIG 0.03  A 
ATOM     24  CE3 TRP D   3       9.515   1.017  38.224  1.00 31.46 LIG 0.01  A 
ATOM     25  CZ3 TRP D   3      10.220   1.517  37.112  1.00 32.66 LIG 0.00  A 
ATOM     26  CH2 TRP D   3      11.403   0.805  36.583  1.00 36.62 LIG 0.00  A 
ENDBRANCH 16 17
ENDBRANCH 12 16
ENDBRANCH 10 12
ENDBRANCH 4 8
BRANCH 1 27
ATOM     27  CA  TRP D   1       9.812  -4.777  37.748  1.00 34.78 LIG 0.28  C 
BRANCH 27 28
ATOM     28  CB  TRP D   1      10.416  -5.035  39.135  1.00 34.63 LIG 0.08  C 
BRANCH 28 29
ATOM     29  CG  TRP D   1      11.403  -6.241  39.127  1.00 37.87 LIG-0.03  A 
ATOM     30  CD1 TRP D   1      12.147  -6.718  38.048  1.00 40.68 LIG 0.10  A 
ATOM     31  NE1 TRP D   1      12.940  -7.772  38.456  1.00 42.18 LIG-0.36  N 
ATOM     32 HE1  TRP D   1      13.477  -8.216  37.952  1.00 42.18 LIG 0.17  HD
ATOM     33  CE2 TRP D   1      12.729  -8.000  39.808  1.00 41.11 LIG 0.04  A 
ATOM     34  CD2 TRP D   1      11.769  -7.063  40.257  1.00 38.74 LIG-0.00  A 
ATOM     35  CZ2 TRP D   1      13.317  -8.968  40.677  1.00 41.13 LIG 0.03  A 
ATOM     36  CE3 TRP D   1      11.408  -7.070  41.621  1.00 40.52 LIG 0.01  A 
ATOM     37  CZ3 TRP D   1      11.987  -8.036  42.483  1.00 41.02 LIG 0.00  A 
ATOM     38  CH2 TRP D   1      12.938  -8.962  42.000  1.00 39.74 LIG 0.00  A 
ENDBRANCH 28 29
ENDBRANCH 27 28
BRANCH 27 39
ATOM     39  N   TRP D   1      10.800  -3.983  36.930  1.00 33.45 LIG-0.07  N 
ATOM     40 H3   TRP D   1      11.528  -3.823  37.416  1.00 33.45 LIG 0.28  HD
ATOM     41 H2   TRP D   1      10.431  -3.210  36.686  1.00 33.45 LIG 0.28  HD
ATOM     42 H1   TRP D   1      11.025  -4.445  36.204  1.00 33.45 LIG 0.28  HD
ENDBRANCH 27 39
ENDBRANCH 1 27
TORSDOF 9
ENDMDL
MODEL 50
USER: ADFR SOLUTION from run 63
USER: SCORE 13.561802 LL:  -1.230 LR: -12.332 RR:   0.000 FEB:  -9.647
USER: RMSD 10.707396
USER: SEED 62
USER: STATUS no improvement in best 21 clusters for 5 generations
USER: GENES 11
USER: genes 0 Translation |==|  0.40328 0.70043 0.61926
USER: genes 1 Rotation |==|  0.47160 0.65502 0.58479 0.96688
USER: genes 2 Torsion [N]-CA--C-[O] |==|  0.38629
USER: genes 3 Torsion [C]-N--CA-[CB] |==|  0.89061
USER: genes 4 Torsion [N]-CA--C-[OXT] |==|  0.94241
USER: genes 5 Torsion [N]-CA--CB-[CG] |==|  0.32540
USER: genes 6 Torsion [CA]-CB--CG-[CD1] |==|  0.83236
USER: genes 7 Torsion [N]-C--CA-[N] |==|  0.90156
USER: genes 8 Torsion [C]-CA--CB-[CG] |==|  0.27472
USER: genes 9 Torsion [CA]-CB--CG-[CD1] |==|  0.33224
USER: genes 10 Torsion [C]-CA--N-[H2] |==|  0.96003
ROOT
ATOM      1  C   TRP D   1       9.999  -4.807  38.418  1.00 35.88 LIG 0.25  C 
ATOM      2 O    TRP D   1       9.364  -5.177  39.471  1.00 38.57 LIG-0.27  OA
ATOM      3  N   PRO D   2      10.064  -3.655  37.875  1.00 34.89 LIG-0.34  N 
ATOM      4  CA  PRO D   2       9.498  -2.385  38.438  1.00 35.03 LIG 0.18  C 
ATOM      5  CB  PRO D   2       9.924  -1.400  37.387  1.00 35.34 LIG 0.04  C 
ATOM      6  CG  PRO D   2      11.302  -1.948  37.007  1.00 35.42 LIG 0.02  C 
ATOM      7  CD  PRO D   2      11.356  -3.419  37.251  1.00 35.14 LIG 0.13  C 
ENDROOT
BRANCH 4 8
ATOM      8  C   PRO D   2       8.026  -2.258  38.810  1.00 35.70 LIG 0.24  C 
ATOM      9 O    PRO D   2       7.615  -1.691  39.811  1.00 34.88 LIG-0.27  OA
ATOM     10  N   TRP D   3       7.290  -2.864  37.854  1.00 36.87 LIG-0.34  N 
ATOM     11 H    TRP D   3       7.618  -3.069  37.085  1.00 36.87 LIG 0.16  HD
BRANCH 10 12
ATOM     12  CA  TRP D   3       5.843  -3.254  37.993  1.00 37.56 LIG 0.19  C 
BRANCH 12 13
ATOM     13  C   TRP D   3       4.632  -2.335  37.583  1.00 38.92 LIG 0.20  C 
ATOM     14 OXT  TRP D   3       4.749  -1.070  37.465  1.00 41.38 LIG-0.65  OA
ATOM     15 O    TRP D   3       3.471  -2.947  37.398  1.00 40.06 LIG-0.65  OA
ENDBRANCH 12 13
BRANCH 12 16
ATOM     16  CB  TRP D   3       5.584  -3.810  39.442  1.00 36.55 LIG 0.08  C 
BRANCH 16 17
ATOM     17  CG  TRP D   3       4.586  -2.934  40.217  1.00 35.48 LIG-0.03  A 
ATOM     18  CD1 TRP D   3       4.735  -1.580  40.540  1.00 37.13 LIG 0.10  A 
ATOM     19  NE1 TRP D   3       3.635  -1.144  41.254  1.00 40.71 LIG-0.36  N 
ATOM     20 HE1  TRP D   3       3.525  -0.347  41.556  1.00 40.71 LIG 0.17  HD
ATOM     21  CE2 TRP D   3       2.739  -2.181  41.409  1.00 36.12 LIG 0.04  A 
ATOM     22  CD2 TRP D   3       3.311  -3.344  40.762  1.00 33.28 LIG-0.00  A 
ATOM     23  CZ2 TRP D   3       1.490  -2.195  42.081  1.00 34.49 LIG 0.03  A 
ATOM     24  CE3 TRP D   3       2.610  -4.577  40.799  1.00 31.46 LIG 0.01  A 
ATOM     25  CZ3 TRP D   3       1.358  -4.618  41.441  1.00 32.66 LIG 0.00  A 
ATOM     26  CH2 TRP D   3       0.802  -3.413  42.094  1.00 36.62 LIG 0.00  A 
ENDBRANCH 16 17
ENDBRANCH 12 16
ENDBRANCH 10 12
ENDBRANCH 4 8
BRANCH 1 27
ATOM     27  CA  TRP D   1      10.634  -5.878  37.477  1.00 34.78 LIG 0.28  C 
BRANCH 27 28
ATOM     28  CB  TRP D   1      12.150  -5.992  37.687  1.00 34.63 LIG 0.08  C 
BRANCH 28 29
ATOM     29  CG  TRP D   1      12.523  -7.195  38.605  1.00 37.87 LIG-0.03  A 
ATOM     30  CD1 TRP D   1      13.320  -8.292  38.279  1.00 40.68 LIG 0.10  A 
ATOM     31  NE1 TRP D   1      13.453  -9.117  39.378  1.00 42.18 LIG-0.36  N 
ATOM     32 HE1  TRP D   1      13.901  -9.851  39.400  1.00 42.18 LIG 0.17  HD
ATOM     33  CE2 TRP D   1      12.748  -8.571  40.441  1.00 41.11 LIG 0.04  A 
ATOM     34  CD2 TRP D   1      12.150  -7.371  39.989  1.00 38.74 LIG-0.00  A 
ATOM     35  CZ2 TRP D   1      12.591  -9.047  41.779  1.00 41.13 LIG 0.03  A 
ATOM     36  CE3 TRP D   1      11.400  -6.606  40.907  1.00 40.52 LIG 0.01  A 
ATOM     37  CZ3 TRP D   1      11.239  -7.082  42.233  1.00 41.02 LIG 0.00  A 
ATOM     38  CH2 TRP D   1      11.844  -8.288  42.650  1.00 39.74 LIG 0.00  A 
ENDBRANCH 28 29
ENDBRANCH 27 28
BRANCH 27 39
ATOM     39  N   TRP D   1      10.368  -5.570  36.024  1.00 33.45 LIG-0.07  N 
ATOM     40 H3   TRP D   1      11.112  -5.262  35.645  1.00 33.45 LIG 0.28  HD
ATOM     41 H2   TRP D   1       9.727  -4.955  35.963  1.00 33.45 LIG 0.28  HD
ATOM     42 H1   TRP D   1      10.109  -6.311  35.606  1.00 33.45 LIG 0.28  HD
ENDBRANCH 27 39
ENDBRANCH 1 27
TORSDOF 9
ENDMDL
MODEL 51
USER: ADFR SOLUTION from run 24
USER: SCORE 13.906104 LL:  -1.598 LR: -12.308 RR:   0.000 FEB:  -9.624
USER: RMSD 8.673902
USER: SEED 23
USER: STATUS no improvement in best 16 clusters for 5 generations
USER: GENES 11
USER: genes 0 Translation |==|  0.47459 0.62086 0.63543
USER: genes 1 Rotation |==|  0.47285 0.84281 0.77782 0.73359
USER: genes 2 Torsion [N]-CA--C-[O] |==|  0.52699
USER: genes 3 Torsion [C]-N--CA-[CB] |==|  0.75278
USER: genes 4 Torsion [N]-CA--C-[OXT] |==|  0.51774
USER: genes 5 Torsion [N]-CA--CB-[CG] |==|  0.78725
USER: genes 6 Torsion [CA]-CB--CG-[CD1] |==|  0.48939
USER: genes 7 Torsion [N]-C--CA-[N] |==|  0.91142
USER: genes 8 Torsion [C]-CA--CB-[CG] |==|  0.28877
USER: genes 9 Torsion [CA]-CB--CG-[CD1] |==|  0.03408
USER: genes 10 Torsion [C]-CA--N-[H2] |==|  0.97543
ROOT
ATOM      1  C   TRP D   1      12.138  -7.194  38.903  1.00 35.88 LIG 0.25  C 
ATOM      2 O    TRP D   1      13.125  -7.445  39.685  1.00 38.57 LIG-0.27  OA
ATOM      3  N   PRO D   2      11.032  -6.612  39.156  1.00 34.89 LIG-0.34  N 
ATOM      4  CA  PRO D   2      10.668  -5.942  40.448  1.00 35.03 LIG 0.18  C 
ATOM      5  CB  PRO D   2       9.295  -5.427  40.117  1.00 35.34 LIG 0.04  C 
ATOM      6  CG  PRO D   2       9.473  -5.025  38.651  1.00 35.42 LIG 0.02  C 
ATOM      7  CD  PRO D   2      10.543  -5.851  38.018  1.00 35.14 LIG 0.13  C 
ENDROOT
BRANCH 4 8
ATOM      8  C   PRO D   2      10.719  -6.682  41.779  1.00 35.70 LIG 0.24  C 
ATOM      9 O    PRO D   2      10.275  -6.242  42.829  1.00 34.88 LIG-0.27  OA
ATOM     10  N   TRP D   3      11.322  -7.874  41.581  1.00 36.87 LIG-0.34  N 
ATOM     11 H    TRP D   3      11.433  -8.206  40.796  1.00 36.87 LIG 0.16  HD
BRANCH 10 12
ATOM     12  CA  TRP D   3      11.866  -8.758  42.671  1.00 37.56 LIG 0.19  C 
BRANCH 12 13
ATOM     13  C   TRP D   3      11.137  -9.035  44.038  1.00 38.92 LIG 0.20  C 
ATOM     14 OXT  TRP D   3      11.689  -9.695  44.981  1.00 41.38 LIG-0.65  OA
ATOM     15 O    TRP D   3       9.900  -8.570  44.145  1.00 40.06 LIG-0.65  OA
ENDBRANCH 12 13
BRANCH 12 16
ATOM     16  CB  TRP D   3      13.362  -8.369  42.968  1.00 36.55 LIG 0.08  C 
BRANCH 16 17
ATOM     17  CG  TRP D   3      14.314  -8.907  41.886  1.00 35.48 LIG-0.03  A 
ATOM     18  CD1 TRP D   3      15.693  -8.684  41.799  1.00 37.13 LIG 0.10  A 
ATOM     19  NE1 TRP D   3      16.201  -9.320  40.682  1.00 40.71 LIG-0.36  N 
ATOM     20 HE1  TRP D   3      17.025  -9.307  40.437  1.00 40.71 LIG 0.17  HD
ATOM     21  CE2 TRP D   3      15.188  -9.980  40.020  1.00 36.12 LIG 0.04  A 
ATOM     22  CD2 TRP D   3      13.964  -9.740  40.757  1.00 33.28 LIG-0.00  A 
ATOM     23  CZ2 TRP D   3      15.245 -10.746  38.827  1.00 34.49 LIG 0.03  A 
ATOM     24  CE3 TRP D   3      12.744 -10.278  40.275  1.00 31.46 LIG 0.01  A 
ATOM     25  CZ3 TRP D   3      12.770 -11.059  39.104  1.00 32.66 LIG 0.00  A 
ATOM     26  CH2 TRP D   3      14.036 -11.285  38.373  1.00 36.62 LIG 0.00  A 
ENDBRANCH 16 17
ENDBRANCH 12 16
ENDBRANCH 10 12
ENDBRANCH 4 8
BRANCH 1 27
ATOM     27  CA  TRP D   1      12.091  -7.834  37.481  1.00 34.78 LIG 0.28  C 
BRANCH 27 28
ATOM     28  CB  TRP D   1      12.585  -6.861  36.402  1.00 34.63 LIG 0.08  C 
BRANCH 28 29
ATOM     29  CG  TRP D   1      14.025  -7.207  35.918  1.00 37.87 LIG-0.03  A 
ATOM     30  CD1 TRP D   1      14.746  -8.373  36.174  1.00 40.68 LIG 0.10  A 
ATOM     31  NE1 TRP D   1      15.966  -8.320  35.530  1.00 42.18 LIG-0.36  N 
ATOM     32 HE1  TRP D   1      16.569  -8.932  35.553  1.00 42.18 LIG 0.17  HD
ATOM     33  CE2 TRP D   1      16.061  -7.121  34.840  1.00 41.11 LIG 0.04  A 
ATOM     34  CD2 TRP D   1      14.865  -6.398  35.066  1.00 38.74 LIG-0.00  A 
ATOM     35  CZ2 TRP D   1      17.118  -6.612  34.025  1.00 41.13 LIG 0.03  A 
ATOM     36  CE3 TRP D   1      14.706  -5.146  34.435  1.00 40.52 LIG 0.01  A 
ATOM     37  CZ3 TRP D   1      15.758  -4.639  33.632  1.00 41.02 LIG 0.00  A 
ATOM     38  CH2 TRP D   1      16.942  -5.383  33.432  1.00 39.74 LIG 0.00  A 
ENDBRANCH 28 29
ENDBRANCH 27 28
BRANCH 27 39
ATOM     39  N   TRP D   1      10.699  -8.290  37.121  1.00 33.45 LIG-0.07  N 
ATOM     40 H3   TRP D   1      10.377  -7.776  36.470  1.00 33.45 LIG 0.28  HD
ATOM     41 H2   TRP D   1      10.172  -8.230  37.836  1.00 33.45 LIG 0.28  HD
ATOM     42 H1   TRP D   1      10.725  -9.136  36.844  1.00 33.45 LIG 0.28  HD
ENDBRANCH 27 39
ENDBRANCH 1 27
TORSDOF 9
ENDMDL
MODEL 52
USER: ADFR SOLUTION from run 139
USER: SCORE 14.246337 LL:  -1.941 LR: -12.305 RR:   0.000 FEB:  -9.620
USER: RMSD 8.572867
USER: SEED 138
USER: STATUS no improvement in best 14 clusters for 5 generations
USER: GENES 11
USER: genes 0 Translation |==|  0.43126 0.69359 0.56992
USER: genes 1 Rotation |==|  0.34871 0.09154 0.49474 0.74544
USER: genes 2 Torsion [N]-CA--C-[O] |==|  0.51643
USER: genes 3 Torsion [C]-N--CA-[CB] |==|  0.87048
USER: genes 4 Torsion [N]-CA--C-[OXT] |==|  0.83132
USER: genes 5 Torsion [N]-CA--CB-[CG] |==|  0.51345
USER: genes 6 Torsion [CA]-CB--CG-[CD1] |==|  0.25023
USER: genes 7 Torsion [N]-C--CA-[N] |==|  0.46074
USER: genes 8 Torsion [C]-CA--CB-[CG] |==|  0.44581
USER: genes 9 Torsion [CA]-CB--CG-[CD1] |==|  0.93425
USER: genes 10 Torsion [C]-CA--N-[H2] |==|  0.94796
ROOT
ATOM      1  C   TRP D   1      10.838  -5.012  36.938  1.00 35.88 LIG 0.25  C 
ATOM      2 O    TRP D   1      10.853  -5.570  35.781  1.00 38.57 LIG-0.27  OA
ATOM      3  N   PRO D   2      11.260  -3.861  37.287  1.00 34.89 LIG-0.34  N 
ATOM      4  CA  PRO D   2      11.775  -2.797  36.363  1.00 35.03 LIG 0.18  C 
ATOM      5  CB  PRO D   2      12.070  -1.697  37.343  1.00 35.34 LIG 0.04  C 
ATOM      6  CG  PRO D   2      10.916  -1.865  38.335  1.00 35.42 LIG 0.02  C 
ATOM      7  CD  PRO D   2      10.454  -3.283  38.349  1.00 35.14 LIG 0.13  C 
ENDROOT
BRANCH 4 8
ATOM      8  C   PRO D   2      12.927  -3.059  35.400  1.00 35.70 LIG 0.24  C 
ATOM      9 O    PRO D   2      13.450  -2.201  34.704  1.00 34.88 LIG-0.27  OA
ATOM     10  N   TRP D   3      13.248  -4.368  35.465  1.00 36.87 LIG-0.34  N 
ATOM     11 H    TRP D   3      12.982  -4.873  36.108  1.00 36.87 LIG 0.16  HD
BRANCH 10 12
ATOM     12  CA  TRP D   3      14.090  -5.102  34.457  1.00 37.56 LIG 0.19  C 
BRANCH 12 13
ATOM     13  C   TRP D   3      15.664  -5.131  34.465  1.00 38.92 LIG 0.20  C 
ATOM     14 OXT  TRP D   3      16.363  -4.069  34.354  1.00 41.38 LIG-0.65  OA
ATOM     15 O    TRP D   3      16.226  -6.328  34.561  1.00 40.06 LIG-0.65  OA
ENDBRANCH 12 13
BRANCH 12 16
ATOM     16  CB  TRP D   3      13.601  -4.747  33.003  1.00 36.55 LIG 0.08  C 
BRANCH 16 17
ATOM     17  CG  TRP D   3      14.350  -5.564  31.937  1.00 35.48 LIG-0.03  A 
ATOM     18  CD1 TRP D   3      13.977  -6.810  31.421  1.00 37.13 LIG 0.10  A 
ATOM     19  NE1 TRP D   3      14.908  -7.231  30.490  1.00 40.71 LIG-0.36  N 
ATOM     20 HE1  TRP D   3      14.875  -7.972  30.057  1.00 40.71 LIG 0.17  HD
ATOM     21  CE2 TRP D   3      15.900  -6.281  30.361  1.00 36.12 LIG 0.04  A 
ATOM     22  CD2 TRP D   3      15.581  -5.200  31.270  1.00 33.28 LIG-0.00  A 
ATOM     23  CZ2 TRP D   3      17.055  -6.297  29.538  1.00 34.49 LIG 0.03  A 
ATOM     24  CE3 TRP D   3      16.462  -4.092  31.371  1.00 31.46 LIG 0.01  A 
ATOM     25  CZ3 TRP D   3      17.607  -4.069  30.553  1.00 32.66 LIG 0.00  A 
ATOM     26  CH2 TRP D   3      17.905  -5.190  29.635  1.00 36.62 LIG 0.00  A 
ENDBRANCH 16 17
ENDBRANCH 12 16
ENDBRANCH 10 12
ENDBRANCH 4 8
BRANCH 1 27
ATOM     27  CA  TRP D   1      10.469  -5.852  38.200  1.00 34.78 LIG 0.28  C 
BRANCH 27 28
ATOM     28  CB  TRP D   1      11.718  -6.304  38.969  1.00 34.63 LIG 0.08  C 
BRANCH 28 29
ATOM     29  CG  TRP D   1      11.387  -6.700  40.439  1.00 37.87 LIG-0.03  A 
ATOM     30  CD1 TRP D   1      10.302  -6.278  41.205  1.00 40.68 LIG 0.10  A 
ATOM     31  NE1 TRP D   1      10.335  -6.890  42.442  1.00 42.18 LIG-0.36  N 
ATOM     32 HE1  TRP D   1       9.763  -6.773  43.072  1.00 42.18 LIG 0.17  HD
ATOM     33  CE2 TRP D   1      11.441  -7.726  42.503  1.00 41.11 LIG 0.04  A 
ATOM     34  CD2 TRP D   1      12.124  -7.626  41.268  1.00 38.74 LIG-0.00  A 
ATOM     35  CZ2 TRP D   1      11.895  -8.570  43.562  1.00 41.13 LIG 0.03  A 
ATOM     36  CE3 TRP D   1      13.276  -8.416  41.070  1.00 40.52 LIG 0.01  A 
ATOM     37  CZ3 TRP D   1      13.730  -9.249  42.124  1.00 41.02 LIG 0.00  A 
ATOM     38  CH2 TRP D   1      13.029  -9.320  43.347  1.00 39.74 LIG 0.00  A 
ENDBRANCH 28 29
ENDBRANCH 27 28
BRANCH 27 39
ATOM     39  N   TRP D   1       9.655  -7.070  37.840  1.00 33.45 LIG-0.07  N 
ATOM     40 H3   TRP D   1      10.180  -7.789  37.840  1.00 33.45 LIG 0.28  HD
ATOM     41 H2   TRP D   1       9.300  -6.962  37.031  1.00 33.45 LIG 0.28  HD
ATOM     42 H1   TRP D   1       9.004  -7.179  38.437  1.00 33.45 LIG 0.28  HD
ENDBRANCH 27 39
ENDBRANCH 1 27
TORSDOF 9
ENDMDL
MODEL 53
USER: ADFR SOLUTION from run 139
USER: SCORE 14.317370 LL:  -2.015 LR: -12.303 RR:   0.000 FEB:  -9.618
USER: RMSD 8.874320
USER: SEED 138
USER: STATUS no improvement in best 14 clusters for 5 generations
USER: GENES 11
USER: genes 0 Translation |==|  0.41732 0.71088 0.60623
USER: genes 1 Rotation |==|  0.42387 0.05337 0.48783 0.71113
USER: genes 2 Torsion [N]-CA--C-[O] |==|  0.69300
USER: genes 3 Torsion [C]-N--CA-[CB] |==|  0.47879
USER: genes 4 Torsion [N]-CA--C-[OXT] |==|  0.95011
USER: genes 5 Torsion [N]-CA--CB-[CG] |==|  0.76221
USER: genes 6 Torsion [CA]-CB--CG-[CD1] |==|  0.26624
USER: genes 7 Torsion [N]-C--CA-[N] |==|  0.40000
USER: genes 8 Torsion [C]-CA--CB-[CG] |==|  0.43075
USER: genes 9 Torsion [CA]-CB--CG-[CD1] |==|  0.97230
USER: genes 10 Torsion [C]-CA--N-[H2] |==|  0.94629
ROOT
ATOM      1  C   TRP D   1      10.420  -4.494  38.027  1.00 35.88 LIG 0.25  C 
ATOM      2 O    TRP D   1      10.799  -4.845  36.852  1.00 38.57 LIG-0.27  OA
ATOM      3  N   PRO D   2      10.428  -3.339  38.568  1.00 34.89 LIG-0.34  N 
ATOM      4  CA  PRO D   2      10.774  -2.050  37.884  1.00 35.03 LIG 0.18  C 
ATOM      5  CB  PRO D   2      10.564  -1.074  39.006  1.00 35.34 LIG 0.04  C 
ATOM      6  CG  PRO D   2       9.349  -1.685  39.709  1.00 35.42 LIG 0.02  C 
ATOM      7  CD  PRO D   2       9.314  -3.160  39.486  1.00 35.14 LIG 0.13  C 
ENDROOT
BRANCH 4 8
ATOM      8  C   PRO D   2      12.104  -1.854  37.167  1.00 35.70 LIG 0.24  C 
ATOM      9 O    PRO D   2      12.994  -1.113  37.558  1.00 34.88 LIG-0.27  OA
ATOM     10  N   TRP D   3      12.113  -2.630  36.063  1.00 36.87 LIG-0.34  N 
ATOM     11 H    TRP D   3      11.548  -3.268  35.947  1.00 36.87 LIG 0.16  HD
BRANCH 10 12
ATOM     12  CA  TRP D   3      13.078  -2.491  34.916  1.00 37.56 LIG 0.19  C 
BRANCH 12 13
ATOM     13  C   TRP D   3      13.281  -1.173  34.080  1.00 38.92 LIG 0.20  C 
ATOM     14 OXT  TRP D   3      12.423  -0.228  34.083  1.00 41.38 LIG-0.65  OA
ATOM     15 O    TRP D   3      14.382  -1.112  33.343  1.00 40.06 LIG-0.65  OA
ENDBRANCH 12 13
BRANCH 12 16
ATOM     16  CB  TRP D   3      12.889  -3.694  33.920  1.00 36.55 LIG 0.08  C 
BRANCH 16 17
ATOM     17  CG  TRP D   3      13.711  -4.922  34.349  1.00 35.48 LIG-0.03  A 
ATOM     18  CD1 TRP D   3      13.257  -6.013  35.097  1.00 37.13 LIG 0.10  A 
ATOM     19  NE1 TRP D   3      14.290  -6.910  35.293  1.00 40.71 LIG-0.36  N 
ATOM     20 HE1  TRP D   3      14.229  -7.647  35.733  1.00 40.71 LIG 0.17  HD
ATOM     21  CE2 TRP D   3      15.433  -6.446  34.678  1.00 36.12 LIG 0.04  A 
ATOM     22  CD2 TRP D   3      15.106  -5.176  34.064  1.00 33.28 LIG-0.00  A 
ATOM     23  CZ2 TRP D   3      16.726  -7.027  34.632  1.00 34.49 LIG 0.03  A 
ATOM     24  CE3 TRP D   3      16.117  -4.449  33.385  1.00 31.46 LIG 0.01  A 
ATOM     25  CZ3 TRP D   3      17.407  -5.009  33.304  1.00 32.66 LIG 0.00  A 
ATOM     26  CH2 TRP D   3      17.709  -6.308  33.944  1.00 36.62 LIG 0.00  A 
ENDBRANCH 16 17
ENDBRANCH 12 16
ENDBRANCH 10 12
ENDBRANCH 4 8
BRANCH 1 27
ATOM     27  CA  TRP D   1      10.087  -5.582  39.094  1.00 34.78 LIG 0.28  C 
BRANCH 27 28
ATOM     28  CB  TRP D   1      11.357  -6.193  39.700  1.00 34.63 LIG 0.08  C 
BRANCH 28 29
ATOM     29  CG  TRP D   1      11.104  -6.775  41.123  1.00 37.87 LIG-0.03  A 
ATOM     30  CD1 TRP D   1       9.965  -6.617  41.911  1.00 40.68 LIG 0.10  A 
ATOM     31  NE1 TRP D   1      10.107  -7.326  43.087  1.00 42.18 LIG-0.36  N 
ATOM     32 HE1  TRP D   1       9.525  -7.367  43.718  1.00 42.18 LIG 0.17  HD
ATOM     33  CE2 TRP D   1      11.339  -7.963  43.085  1.00 41.11 LIG 0.04  A 
ATOM     34  CD2 TRP D   1      11.991  -7.635  41.873  1.00 38.74 LIG-0.00  A 
ATOM     35  CZ2 TRP D   1      11.934  -8.812  44.067  1.00 41.13 LIG 0.03  A 
ATOM     36  CE3 TRP D   1      13.261  -8.195  41.618  1.00 40.52 LIG 0.01  A 
ATOM     37  CZ3 TRP D   1      13.854  -9.032  42.597  1.00 41.02 LIG 0.00  A 
ATOM     38  CH2 TRP D   1      13.179  -9.334  43.799  1.00 39.74 LIG 0.00  A 
ENDBRANCH 28 29
ENDBRANCH 27 28
BRANCH 27 39
ATOM     39  N   TRP D   1       9.245  -6.692  38.513  1.00 33.45 LIG-0.07  N 
ATOM     40 H3   TRP D   1       9.763  -7.393  38.332  1.00 33.45 LIG 0.28  HD
ATOM     41 H2   TRP D   1       8.856  -6.409  37.765  1.00 33.45 LIG 0.28  HD
ATOM     42 H1   TRP D   1       8.621  -6.930  39.101  1.00 33.45 LIG 0.28  HD
ENDBRANCH 27 39
ENDBRANCH 1 27
TORSDOF 9
ENDMDL
MODEL 54
USER: ADFR SOLUTION from run 87
USER: SCORE 14.093334 LL:  -1.808 LR: -12.286 RR:   0.000 FEB:  -9.601
USER: RMSD 10.104970
USER: SEED 86
USER: STATUS no improvement in best 32 clusters for 5 generations
USER: GENES 11
USER: genes 0 Translation |==|  0.45941 0.65584 0.49200
USER: genes 1 Rotation |==|  0.13305 0.57354 0.82890 0.54199
USER: genes 2 Torsion [N]-CA--C-[O] |==|  0.31296
USER: genes 3 Torsion [C]-N--CA-[CB] |==|  0.87837
USER: genes 4 Torsion [N]-CA--C-[OXT] |==|  0.58641
USER: genes 5 Torsion [N]-CA--CB-[CG] |==|  0.57459
USER: genes 6 Torsion [CA]-CB--CG-[CD1] |==|  0.11430
USER: genes 7 Torsion [N]-C--CA-[N] |==|  0.26544
USER: genes 8 Torsion [C]-CA--CB-[CG] |==|  0.69570
USER: genes 9 Torsion [CA]-CB--CG-[CD1] |==|  0.78970
USER: genes 10 Torsion [C]-CA--N-[H2] |==|  0.49380
ROOT
ATOM      1  C   TRP D   1      11.682  -6.145  34.600  1.00 35.88 LIG 0.25  C 
ATOM      2 O    TRP D   1      11.226  -5.770  35.740  1.00 38.57 LIG-0.27  OA
ATOM      3  N   PRO D   2      11.547  -7.263  34.002  1.00 34.89 LIG-0.34  N 
ATOM      4  CA  PRO D   2      10.678  -8.400  34.450  1.00 35.03 LIG 0.18  C 
ATOM      5  CB  PRO D   2      10.911  -9.383  33.338  1.00 35.34 LIG 0.04  C 
ATOM      6  CG  PRO D   2      11.007  -8.449  32.130  1.00 35.42 LIG 0.02  C 
ATOM      7  CD  PRO D   2      11.495  -7.105  32.557  1.00 35.14 LIG 0.13  C 
ENDROOT
BRANCH 4 8
ATOM      8  C   PRO D   2      10.823  -9.023  35.834  1.00 35.70 LIG 0.24  C 
ATOM      9 O    PRO D   2       9.980  -8.945  36.715  1.00 34.88 LIG-0.27  OA
ATOM     10  N   TRP D   3      12.013  -9.656  35.895  1.00 36.87 LIG-0.34  N 
ATOM     11 H    TRP D   3      12.470  -9.842  35.190  1.00 36.87 LIG 0.16  HD
BRANCH 10 12
ATOM     12  CA  TRP D   3      12.687 -10.111  37.161  1.00 37.56 LIG 0.19  C 
BRANCH 12 13
ATOM     13  C   TRP D   3      12.429 -11.500  37.855  1.00 38.92 LIG 0.20  C 
ATOM     14 OXT  TRP D   3      12.511 -11.653  39.120  1.00 41.38 LIG-0.65  OA
ATOM     15 O    TRP D   3      12.154 -12.515  37.048  1.00 40.06 LIG-0.65  OA
ENDBRANCH 12 13
BRANCH 12 16
ATOM     16  CB  TRP D   3      12.584  -8.979  38.249  1.00 36.55 LIG 0.08  C 
BRANCH 16 17
ATOM     17  CG  TRP D   3      13.740  -9.055  39.261  1.00 35.48 LIG-0.03  A 
ATOM     18  CD1 TRP D   3      15.084  -9.320  38.977  1.00 37.13 LIG 0.10  A 
ATOM     19  NE1 TRP D   3      15.819  -9.319  40.147  1.00 40.71 LIG-0.36  N 
ATOM     20 HE1  TRP D   3      16.665  -9.467  40.201  1.00 40.71 LIG 0.17  HD
ATOM     21  CE2 TRP D   3      14.993  -9.046  41.217  1.00 36.12 LIG 0.04  A 
ATOM     22  CD2 TRP D   3      13.654  -8.871  40.693  1.00 33.28 LIG-0.00  A 
ATOM     23  CZ2 TRP D   3      15.311  -8.959  42.597  1.00 34.49 LIG 0.03  A 
ATOM     24  CE3 TRP D   3      12.584  -8.613  41.587  1.00 31.46 LIG 0.01  A 
ATOM     25  CZ3 TRP D   3      12.870  -8.501  42.962  1.00 32.66 LIG 0.00  A 
ATOM     26  CH2 TRP D   3      14.248  -8.686  43.465  1.00 36.62 LIG 0.00  A 
ENDBRANCH 16 17
ENDBRANCH 12 16
ENDBRANCH 10 12
ENDBRANCH 4 8
BRANCH 1 27
ATOM     27  CA  TRP D   1      12.737  -5.266  33.858  1.00 34.78 LIG 0.28  C 
BRANCH 27 28
ATOM     28  CB  TRP D   1      13.600  -4.463  34.840  1.00 34.63 LIG 0.08  C 
BRANCH 28 29
ATOM     29  CG  TRP D   1      13.279  -2.939  34.789  1.00 37.87 LIG-0.03  A 
ATOM     30  CD1 TRP D   1      13.660  -2.026  33.806  1.00 40.68 LIG 0.10  A 
ATOM     31  NE1 TRP D   1      13.139  -0.781  34.096  1.00 42.18 LIG-0.36  N 
ATOM     32 HE1  TRP D   1      13.251  -0.071  33.624  1.00 42.18 LIG 0.17  HD
ATOM     33  CE2 TRP D   1      12.406  -0.860  35.271  1.00 41.11 LIG 0.04  A 
ATOM     34  CD2 TRP D   1      12.477  -2.195  35.733  1.00 38.74 LIG-0.00  A 
ATOM     35  CZ2 TRP D   1      11.677   0.152  35.967  1.00 41.13 LIG 0.03  A 
ATOM     36  CE3 TRP D   1      11.775  -2.539  36.908  1.00 40.52 LIG 0.01  A 
ATOM     37  CZ3 TRP D   1      11.057  -1.533  37.603  1.00 41.02 LIG 0.00  A 
ATOM     38  CH2 TRP D   1      11.012  -0.207  37.117  1.00 39.74 LIG 0.00  A 
ENDBRANCH 28 29
ENDBRANCH 27 28
BRANCH 27 39
ATOM     39  N   TRP D   1      12.082  -4.307  32.894  1.00 33.45 LIG-0.07  N 
ATOM     40 H3   TRP D   1      11.648  -4.767  32.267  1.00 33.45 LIG 0.28  HD
ATOM     41 H2   TRP D   1      12.705  -3.799  32.511  1.00 33.45 LIG 0.28  HD
ATOM     42 H1   TRP D   1      11.507  -3.790  33.333  1.00 33.45 LIG 0.28  HD
ENDBRANCH 27 39
ENDBRANCH 1 27
TORSDOF 9
ENDMDL
MODEL 55
USER: ADFR SOLUTION from run 100
USER: SCORE 14.387666 LL:  -2.099 LR: -12.289 RR:   0.000 FEB:  -9.604
USER: RMSD 9.993876
USER: SEED 99
USER: STATUS no improvement in best 28 clusters for 5 generations
USER: GENES 11
USER: genes 0 Translation |==|  0.42944 0.69589 0.61916
USER: genes 1 Rotation |==|  0.23903 0.34599 0.10399 0.53669
USER: genes 2 Torsion [N]-CA--C-[O] |==|  0.44523
USER: genes 3 Torsion [C]-N--CA-[CB] |==|  0.90631
USER: genes 4 Torsion [N]-CA--C-[OXT] |==|  0.72660
USER: genes 5 Torsion [N]-CA--CB-[CG] |==|  0.77724
USER: genes 6 Torsion [CA]-CB--CG-[CD1] |==|  0.97177
USER: genes 7 Torsion [N]-C--CA-[N] |==|  0.52985
USER: genes 8 Torsion [C]-CA--CB-[CG] |==|  0.43537
USER: genes 9 Torsion [CA]-CB--CG-[CD1] |==|  0.48294
USER: genes 10 Torsion [C]-CA--N-[H2] |==|  0.33981
ROOT
ATOM      1  C   TRP D   1      10.783  -4.943  38.415  1.00 35.88 LIG 0.25  C 
ATOM      2 O    TRP D   1      11.588  -4.861  37.418  1.00 38.57 LIG-0.27  OA
ATOM      3  N   PRO D   2      10.814  -5.732  39.417  1.00 34.89 LIG-0.34  N 
ATOM      4  CA  PRO D   2      11.916  -6.696  39.742  1.00 35.03 LIG 0.18  C 
ATOM      5  CB  PRO D   2      11.400  -7.286  41.024  1.00 35.34 LIG 0.04  C 
ATOM      6  CG  PRO D   2      10.746  -6.063  41.672  1.00 35.42 LIG 0.02  C 
ATOM      7  CD  PRO D   2      10.299  -5.102  40.622  1.00 35.14 LIG 0.13  C 
ENDROOT
BRANCH 4 8
ATOM      8  C   PRO D   2      12.378  -7.753  38.746  1.00 35.70 LIG 0.24  C 
ATOM      9 O    PRO D   2      13.458  -8.322  38.797  1.00 34.88 LIG-0.27  OA
ATOM     10  N   TRP D   3      11.400  -7.935  37.833  1.00 36.87 LIG-0.34  N 
ATOM     11 H    TRP D   3      10.597  -7.655  37.961  1.00 36.87 LIG 0.16  HD
BRANCH 10 12
ATOM     12  CA  TRP D   3      11.572  -8.631  36.510  1.00 37.56 LIG 0.19  C 
BRANCH 12 13
ATOM     13  C   TRP D   3      11.213 -10.141  36.246  1.00 38.92 LIG 0.20  C 
ATOM     14 OXT  TRP D   3      12.097 -11.061  36.260  1.00 41.38 LIG-0.65  OA
ATOM     15 O    TRP D   3       9.942 -10.401  35.975  1.00 40.06 LIG-0.65  OA
ENDBRANCH 12 13
BRANCH 12 16
ATOM     16  CB  TRP D   3      13.016  -8.352  35.951  1.00 36.55 LIG 0.08  C 
BRANCH 16 17
ATOM     17  CG  TRP D   3      13.110  -6.971  35.282  1.00 35.48 LIG-0.03  A 
ATOM     18  CD1 TRP D   3      12.046  -6.115  34.975  1.00 37.13 LIG 0.10  A 
ATOM     19  NE1 TRP D   3      12.525  -4.971  34.366  1.00 40.71 LIG-0.36  N 
ATOM     20 HE1  TRP D   3      12.040  -4.317  34.090  1.00 40.71 LIG 0.17  HD
ATOM     21  CE2 TRP D   3      13.899  -5.035  34.268  1.00 36.12 LIG 0.04  A 
ATOM     22  CD2 TRP D   3      14.312  -6.299  34.841  1.00 33.28 LIG-0.00  A 
ATOM     23  CZ2 TRP D   3      14.803  -4.097  33.705  1.00 34.49 LIG 0.03  A 
ATOM     24  CE3 TRP D   3      15.687  -6.648  34.840  1.00 31.46 LIG 0.01  A 
ATOM     25  CZ3 TRP D   3      16.612  -5.730  34.306  1.00 32.66 LIG 0.00  A 
ATOM     26  CH2 TRP D   3      16.157  -4.447  33.727  1.00 36.62 LIG 0.00  A 
ENDBRANCH 16 17
ENDBRANCH 12 16
ENDBRANCH 10 12
ENDBRANCH 4 8
BRANCH 1 27
ATOM     27  CA  TRP D   1       9.431  -4.165  38.389  1.00 34.78 LIG 0.28  C 
BRANCH 27 28
ATOM     28  CB  TRP D   1       8.232  -5.099  38.600  1.00 34.63 LIG 0.08  C 
BRANCH 28 29
ATOM     29  CG  TRP D   1       6.988  -4.337  39.147  1.00 37.87 LIG-0.03  A 
ATOM     30  CD1 TRP D   1       5.703  -4.843  39.340  1.00 40.68 LIG 0.10  A 
ATOM     31  NE1 TRP D   1       4.893  -3.869  39.887  1.00 42.18 LIG-0.36  N 
ATOM     32 HE1  TRP D   1       4.062  -3.965  40.086  1.00 42.18 LIG 0.17  HD
ATOM     33  CE2 TRP D   1       5.635  -2.711  40.065  1.00 41.11 LIG 0.04  A 
ATOM     34  CD2 TRP D   1       6.949  -2.968  39.607  1.00 38.74 LIG-0.00  A 
ATOM     35  CZ2 TRP D   1       5.246  -1.445  40.600  1.00 41.13 LIG 0.03  A 
ATOM     36  CE3 TRP D   1       7.912  -1.942  39.715  1.00 40.52 LIG 0.01  A 
ATOM     37  CZ3 TRP D   1       7.524  -0.684  40.240  1.00 41.02 LIG 0.00  A 
ATOM     38  CH2 TRP D   1       6.202  -0.458  40.682  1.00 39.74 LIG 0.00  A 
ENDBRANCH 28 29
ENDBRANCH 27 28
BRANCH 27 39
ATOM     39  N   TRP D   1       9.243  -3.420  37.090  1.00 33.45 LIG-0.07  N 
ATOM     40 H3   TRP D   1       9.199  -2.546  37.252  1.00 33.45 LIG 0.28  HD
ATOM     41 H2   TRP D   1       8.488  -3.688  36.701  1.00 33.45 LIG 0.28  HD
ATOM     42 H1   TRP D   1       9.930  -3.587  36.550  1.00 33.45 LIG 0.28  HD
ENDBRANCH 27 39
ENDBRANCH 1 27
TORSDOF 9
ENDMDL
MODEL 56
USER: ADFR SOLUTION from run 44
USER: SCORE 13.941282 LL:  -1.676 LR: -12.266 RR:   0.000 FEB:  -9.581
USER: RMSD 9.857112
USER: SEED 43
USER: STATUS no improvement in best 20 clusters for 5 generations
USER: GENES 11
USER: genes 0 Translation |==|  0.50670 0.70927 0.45372
USER: genes 1 Rotation |==|  0.80296 0.23319 0.33064 0.74154
USER: genes 2 Torsion [N]-CA--C-[O] |==|  0.95710
USER: genes 3 Torsion [C]-N--CA-[CB] |==|  0.63244
USER: genes 4 Torsion [N]-CA--C-[OXT] |==|  0.94912
USER: genes 5 Torsion [N]-CA--CB-[CG] |==|  0.71178
USER: genes 6 Torsion [CA]-CB--CG-[CD1] |==|  0.28043
USER: genes 7 Torsion [N]-C--CA-[N] |==|  0.43474
USER: genes 8 Torsion [C]-CA--CB-[CG] |==|  0.47361
USER: genes 9 Torsion [CA]-CB--CG-[CD1] |==|  0.79128
USER: genes 10 Torsion [C]-CA--N-[H2] |==|  0.33251
ROOT
ATOM      1  C   TRP D   1      13.101  -4.542  33.452  1.00 35.88 LIG 0.25  C 
ATOM      2 O    TRP D   1      12.517  -3.460  33.082  1.00 38.57 LIG-0.27  OA
ATOM      3  N   PRO D   2      13.047  -5.149  34.572  1.00 34.89 LIG-0.34  N 
ATOM      4  CA  PRO D   2      12.150  -4.795  35.721  1.00 35.03 LIG 0.18  C 
ATOM      5  CB  PRO D   2      12.516  -5.873  36.702  1.00 35.34 LIG 0.04  C 
ATOM      6  CG  PRO D   2      12.732  -7.065  35.767  1.00 35.42 LIG 0.02  C 
ATOM      7  CD  PRO D   2      13.152  -6.591  34.417  1.00 35.14 LIG 0.13  C 
ENDROOT
BRANCH 4 8
ATOM      8  C   PRO D   2      12.150  -3.403  36.340  1.00 35.70 LIG 0.24  C 
ATOM      9 O    PRO D   2      13.026  -2.570  36.161  1.00 34.88 LIG-0.27  OA
ATOM     10  N   TRP D   3      11.037  -3.270  37.092  1.00 36.87 LIG-0.34  N 
ATOM     11 H    TRP D   3      10.370  -3.809  37.022  1.00 36.87 LIG 0.16  HD
BRANCH 10 12
ATOM     12  CA  TRP D   3      10.813  -2.197  38.123  1.00 37.56 LIG 0.19  C 
BRANCH 12 13
ATOM     13  C   TRP D   3      11.868  -1.089  38.496  1.00 38.92 LIG 0.20  C 
ATOM     14 OXT  TRP D   3      13.106  -1.207  38.211  1.00 41.38 LIG-0.65  OA
ATOM     15 O    TRP D   3      11.402  -0.037  39.155  1.00 40.06 LIG-0.65  OA
ENDBRANCH 12 13
BRANCH 12 16
ATOM     16  CB  TRP D   3      10.275  -2.846  39.451  1.00 36.55 LIG 0.08  C 
BRANCH 16 17
ATOM     17  CG  TRP D   3       8.764  -2.613  39.626  1.00 35.48 LIG-0.03  A 
ATOM     18  CD1 TRP D   3       7.740  -3.530  39.364  1.00 37.13 LIG 0.10  A 
ATOM     19  NE1 TRP D   3       6.513  -2.951  39.629  1.00 40.71 LIG-0.36  N 
ATOM     20 HE1  TRP D   3       5.752  -3.337  39.529  1.00 40.71 LIG 0.17  HD
ATOM     21  CE2 TRP D   3       6.694  -1.660  40.078  1.00 36.12 LIG 0.04  A 
ATOM     22  CD2 TRP D   3       8.120  -1.404  40.090  1.00 33.28 LIG-0.00  A 
ATOM     23  CZ2 TRP D   3       5.724  -0.695  40.453  1.00 34.49 LIG 0.03  A 
ATOM     24  CE3 TRP D   3       8.596  -0.126  40.480  1.00 31.46 LIG 0.01  A 
ATOM     25  CZ3 TRP D   3       7.658   0.847  40.876  1.00 32.66 LIG 0.00  A 
ATOM     26  CH2 TRP D   3       6.208   0.554  40.852  1.00 36.62 LIG 0.00  A 
ENDBRANCH 16 17
ENDBRANCH 12 16
ENDBRANCH 10 12
ENDBRANCH 4 8
BRANCH 1 27
ATOM     27  CA  TRP D   1      14.218  -5.165  32.559  1.00 34.78 LIG 0.28  C 
BRANCH 27 28
ATOM     28  CB  TRP D   1      15.607  -4.623  32.923  1.00 34.63 LIG 0.08  C 
BRANCH 28 29
ATOM     29  CG  TRP D   1      16.747  -5.407  32.206  1.00 37.87 LIG-0.03  A 
ATOM     30  CD1 TRP D   1      17.222  -6.681  32.517  1.00 40.68 LIG 0.10  A 
ATOM     31  NE1 TRP D   1      18.205  -7.046  31.618  1.00 42.18 LIG-0.36  N 
ATOM     32 HE1  TRP D   1      18.635  -7.790  31.625  1.00 42.18 LIG 0.17  HD
ATOM     33  CE2 TRP D   1      18.385  -6.019  30.704  1.00 41.11 LIG 0.04  A 
ATOM     34  CD2 TRP D   1      17.492  -4.976  31.046  1.00 38.74 LIG-0.00  A 
ATOM     35  CZ2 TRP D   1      19.275  -5.929  29.590  1.00 41.13 LIG 0.03  A 
ATOM     36  CE3 TRP D   1      17.462  -3.822  30.235  1.00 40.52 LIG 0.01  A 
ATOM     37  CZ3 TRP D   1      18.351  -3.730  29.133  1.00 41.02 LIG 0.00  A 
ATOM     38  CH2 TRP D   1      19.235  -4.786  28.823  1.00 39.74 LIG 0.00  A 
ENDBRANCH 28 29
ENDBRANCH 27 28
BRANCH 27 39
ATOM     39  N   TRP D   1      13.967  -4.909  31.093  1.00 33.45 LIG-0.07  N 
ATOM     40 H3   TRP D   1      13.893  -5.685  30.664  1.00 33.45 LIG 0.28  HD
ATOM     41 H2   TRP D   1      14.646  -4.445  30.752  1.00 33.45 LIG 0.28  HD
ATOM     42 H1   TRP D   1      13.214  -4.445  30.998  1.00 33.45 LIG 0.28  HD
ENDBRANCH 27 39
ENDBRANCH 1 27
TORSDOF 9
ENDMDL
MODEL 57
USER: ADFR SOLUTION from run 13
USER: SCORE 13.681559 LL:  -1.433 LR: -12.248 RR:   0.000 FEB:  -9.564
USER: RMSD 11.147932
USER: SEED 62400
USER: STATUS no improvement in best 8 clusters for 5 generations
USER: GENES 11
USER: genes 0 Translation |==|  0.38438 0.71268 0.63877
USER: genes 1 Rotation |==|  0.49894 0.68499 0.60090 0.95343
USER: genes 2 Torsion [N]-CA--C-[O] |==|  0.44451
USER: genes 3 Torsion [C]-N--CA-[CB] |==|  0.19433
USER: genes 4 Torsion [N]-CA--C-[OXT] |==|  0.02455
USER: genes 5 Torsion [N]-CA--CB-[CG] |==|  0.66950
USER: genes 6 Torsion [CA]-CB--CG-[CD1] |==|  0.77462
USER: genes 7 Torsion [N]-C--CA-[N] |==|  0.89934
USER: genes 8 Torsion [C]-CA--CB-[CG] |==|  0.26919
USER: genes 9 Torsion [CA]-CB--CG-[CD1] |==|  0.34944
USER: genes 10 Torsion [C]-CA--N-[H2] |==|  0.93962
ROOT
ATOM      1  C   TRP D   1       9.431  -4.439  39.003  1.00 35.88 LIG 0.25  C 
ATOM      2 O    TRP D   1       8.972  -4.931  40.097  1.00 38.57 LIG-0.27  OA
ATOM      3  N   PRO D   2       9.389  -3.239  38.575  1.00 34.89 LIG-0.34  N 
ATOM      4  CA  PRO D   2       8.889  -2.050  39.341  1.00 35.03 LIG 0.18  C 
ATOM      5  CB  PRO D   2       9.130  -0.954  38.342  1.00 35.34 LIG 0.04  C 
ATOM      6  CG  PRO D   2      10.446  -1.413  37.708  1.00 35.42 LIG 0.02  C 
ATOM      7  CD  PRO D   2      10.566  -2.898  37.793  1.00 35.14 LIG 0.13  C 
ENDROOT
BRANCH 4 8
ATOM      8  C   PRO D   2       7.488  -2.012  39.938  1.00 35.70 LIG 0.24  C 
ATOM      9 O    PRO D   2       7.144  -1.263  40.840  1.00 34.88 LIG-0.27  OA
ATOM     10  N   TRP D   3       6.727  -2.927  39.301  1.00 36.87 LIG-0.34  N 
ATOM     11 H    TRP D   3       6.965  -3.280  38.554  1.00 36.87 LIG 0.16  HD
BRANCH 10 12
ATOM     12  CA  TRP D   3       5.400  -3.441  39.791  1.00 37.56 LIG 0.19  C 
BRANCH 12 13
ATOM     13  C   TRP D   3       4.747  -4.797  39.331  1.00 38.92 LIG 0.20  C 
ATOM     14 OXT  TRP D   3       5.380  -5.649  38.621  1.00 41.38 LIG-0.65  OA
ATOM     15 O    TRP D   3       3.487  -4.992  39.693  1.00 40.06 LIG-0.65  OA
ENDBRANCH 12 13
BRANCH 12 16
ATOM     16  CB  TRP D   3       4.321  -2.301  39.682  1.00 36.55 LIG 0.08  C 
BRANCH 16 17
ATOM     17  CG  TRP D   3       3.733  -1.941  41.057  1.00 35.48 LIG-0.03  A 
ATOM     18  CD1 TRP D   3       2.724  -2.626  41.742  1.00 37.13 LIG 0.10  A 
ATOM     19  NE1 TRP D   3       2.457  -1.993  42.941  1.00 40.71 LIG-0.36  N 
ATOM     20 HE1  TRP D   3       1.866  -2.245  43.513  1.00 40.71 LIG 0.17  HD
ATOM     21  CE2 TRP D   3       3.280  -0.896  43.082  1.00 36.12 LIG 0.04  A 
ATOM     22  CD2 TRP D   3       4.111  -0.826  41.898  1.00 33.28 LIG-0.00  A 
ATOM     23  CZ2 TRP D   3       3.345   0.047  44.140  1.00 34.49 LIG 0.03  A 
ATOM     24  CE3 TRP D   3       5.038   0.238  41.759  1.00 31.46 LIG 0.01  A 
ATOM     25  CZ3 TRP D   3       5.140   1.180  42.801  1.00 32.66 LIG 0.00  A 
ATOM     26  CH2 TRP D   3       4.275   1.082  43.997  1.00 36.62 LIG 0.00  A 
ENDBRANCH 16 17
ENDBRANCH 12 16
ENDBRANCH 10 12
ENDBRANCH 4 8
BRANCH 1 27
ATOM     27  CA  TRP D   1       9.939  -5.391  37.876  1.00 34.78 LIG 0.28  C 
BRANCH 27 28
ATOM     28  CB  TRP D   1      11.472  -5.456  37.832  1.00 34.63 LIG 0.08  C 
BRANCH 28 29
ATOM     29  CG  TRP D   1      12.026  -6.692  38.603  1.00 37.87 LIG-0.03  A 
ATOM     30  CD1 TRP D   1      12.891  -7.672  38.118  1.00 40.68 LIG 0.10  A 
ATOM     31  NE1 TRP D   1      13.187  -8.573  39.121  1.00 42.18 LIG-0.36  N 
ATOM     32 HE1  TRP D   1      13.700  -9.259  39.040  1.00 42.18 LIG 0.17  HD
ATOM     33  CE2 TRP D   1      12.524  -8.194  40.279  1.00 41.11 LIG 0.04  A 
ATOM     34  CD2 TRP D   1      11.785  -7.023  39.988  1.00 38.74 LIG-0.00  A 
ATOM     35  CZ2 TRP D   1      12.521  -8.798  41.573  1.00 41.13 LIG 0.03  A 
ATOM     36  CE3 TRP D   1      11.045  -6.419  41.026  1.00 40.52 LIG 0.01  A 
ATOM     37  CZ3 TRP D   1      11.037  -7.022  42.309  1.00 41.02 LIG 0.00  A 
ATOM     38  CH2 TRP D   1      11.781  -8.195  42.565  1.00 39.74 LIG 0.00  A 
ENDBRANCH 28 29
ENDBRANCH 27 28
BRANCH 27 39
ATOM     39  N   TRP D   1       9.434  -4.966  36.519  1.00 33.45 LIG-0.07  N 
ATOM     40 H3   TRP D   1      10.065  -4.498  36.101  1.00 33.45 LIG 0.28  HD
ATOM     41 H2   TRP D   1       8.707  -4.462  36.617  1.00 33.45 LIG 0.28  HD
ATOM     42 H1   TRP D   1       9.233  -5.687  36.038  1.00 33.45 LIG 0.28  HD
ENDBRANCH 27 39
ENDBRANCH 1 27
TORSDOF 9
ENDMDL
MODEL 58
USER: ADFR SOLUTION from run 132
USER: SCORE 15.075501 LL:  -2.835 LR: -12.240 RR:   0.000 FEB:  -9.555
USER: RMSD 9.812136
USER: SEED 131
USER: STATUS no improvement in best 15 clusters for 5 generations
USER: GENES 11
USER: genes 0 Translation |==|  0.34515 0.70387 0.59564
USER: genes 1 Rotation |==|  0.90367 0.21859 0.43872 0.56406
USER: genes 2 Torsion [N]-CA--C-[O] |==|  0.68271
USER: genes 3 Torsion [C]-N--CA-[CB] |==|  0.26013
USER: genes 4 Torsion [N]-CA--C-[OXT] |==|  0.78613
USER: genes 5 Torsion [N]-CA--CB-[CG] |==|  0.08204
USER: genes 6 Torsion [CA]-CB--CG-[CD1] |==|  0.80133
USER: genes 7 Torsion [N]-C--CA-[N] |==|  0.46513
USER: genes 8 Torsion [C]-CA--CB-[CG] |==|  0.36332
USER: genes 9 Torsion [CA]-CB--CG-[CD1] |==|  0.11621
USER: genes 10 Torsion [C]-CA--N-[H2] |==|  0.68868
ROOT
ATOM      1  C   TRP D   1       8.255  -4.704  37.709  1.00 35.88 LIG 0.25  C 
ATOM      2 O    TRP D   1       7.816  -3.553  37.346  1.00 38.57 LIG-0.27  OA
ATOM      3  N   PRO D   2       7.616  -5.702  38.181  1.00 34.89 LIG-0.34  N 
ATOM      4  CA  PRO D   2       6.125  -5.812  38.303  1.00 35.03 LIG 0.18  C 
ATOM      5  CB  PRO D   2       5.995  -7.196  38.875  1.00 35.34 LIG 0.04  C 
ATOM      6  CG  PRO D   2       7.122  -7.928  38.143  1.00 35.42 LIG 0.02  C 
ATOM      7  CD  PRO D   2       8.201  -6.968  37.769  1.00 35.14 LIG 0.13  C 
ENDROOT
BRANCH 4 8
ATOM      8  C   PRO D   2       5.303  -4.777  39.061  1.00 35.70 LIG 0.24  C 
ATOM      9 O    PRO D   2       4.686  -5.007  40.090  1.00 34.88 LIG-0.27  OA
ATOM     10  N   TRP D   3       5.389  -3.601  38.404  1.00 36.87 LIG-0.34  N 
ATOM     11 H    TRP D   3       5.988  -3.453  37.806  1.00 36.87 LIG 0.16  HD
BRANCH 10 12
ATOM     12  CA  TRP D   3       4.478  -2.422  38.620  1.00 37.56 LIG 0.19  C 
BRANCH 12 13
ATOM     13  C   TRP D   3       3.843  -1.566  37.462  1.00 38.92 LIG 0.20  C 
ATOM     14 OXT  TRP D   3       4.514  -0.695  36.814  1.00 41.38 LIG-0.65  OA
ATOM     15 O    TRP D   3       2.557  -1.776  37.218  1.00 40.06 LIG-0.65  OA
ENDBRANCH 12 13
BRANCH 12 16
ATOM     16  CB  TRP D   3       5.121  -1.445  39.673  1.00 36.55 LIG 0.08  C 
BRANCH 16 17
ATOM     17  CG  TRP D   3       6.658  -1.505  39.640  1.00 35.48 LIG-0.03  A 
ATOM     18  CD1 TRP D   3       7.465  -2.556  40.090  1.00 37.13 LIG 0.10  A 
ATOM     19  NE1 TRP D   3       8.797  -2.237  39.906  1.00 40.71 LIG-0.36  N 
ATOM     20 HE1  TRP D   3       9.460  -2.740  40.120  1.00 40.71 LIG 0.17  HD
ATOM     21  CE2 TRP D   3       8.902  -0.990  39.326  1.00 36.12 LIG 0.04  A 
ATOM     22  CD2 TRP D   3       7.556  -0.487  39.141  1.00 33.28 LIG-0.00  A 
ATOM     23  CZ2 TRP D   3      10.065  -0.260  38.972  1.00 34.49 LIG 0.03  A 
ATOM     24  CE3 TRP D   3       7.365   0.806  38.590  1.00 31.46 LIG 0.01  A 
ATOM     25  CZ3 TRP D   3       8.500   1.548  38.210  1.00 32.66 LIG 0.00  A 
ATOM     26  CH2 TRP D   3       9.861   1.006  38.414  1.00 36.62 LIG 0.00  A 
ENDBRANCH 16 17
ENDBRANCH 12 16
ENDBRANCH 10 12
ENDBRANCH 4 8
BRANCH 1 27
ATOM     27  CA  TRP D   1       9.791  -4.946  37.832  1.00 34.78 LIG 0.28  C 
BRANCH 27 28
ATOM     28  CB  TRP D   1      10.264  -4.879  39.290  1.00 34.63 LIG 0.08  C 
BRANCH 28 29
ATOM     29  CG  TRP D   1      11.150  -6.102  39.673  1.00 37.87 LIG-0.03  A 
ATOM     30  CD1 TRP D   1      12.151  -6.695  38.905  1.00 40.68 LIG 0.10  A 
ATOM     31  NE1 TRP D   1      12.739  -7.723  39.614  1.00 42.18 LIG-0.36  N 
ATOM     32 HE1  TRP D   1      13.377  -8.225  39.329  1.00 42.18 LIG 0.17  HD
ATOM     33  CE2 TRP D   1      12.135  -7.816  40.859  1.00 41.11 LIG 0.04  A 
ATOM     34  CD2 TRP D   1      11.133  -6.820  40.927  1.00 38.74 LIG-0.00  A 
ATOM     35  CZ2 TRP D   1      12.399  -8.710  41.941  1.00 41.13 LIG 0.03  A 
ATOM     36  CE3 TRP D   1      10.394  -6.689  42.121  1.00 40.52 LIG 0.01  A 
ATOM     37  CZ3 TRP D   1      10.651  -7.581  43.193  1.00 41.02 LIG 0.00  A 
ATOM     38  CH2 TRP D   1      11.654  -8.570  43.090  1.00 39.74 LIG 0.00  A 
ENDBRANCH 28 29
ENDBRANCH 27 28
BRANCH 27 39
ATOM     39  N   TRP D   1      10.579  -3.946  37.022  1.00 33.45 LIG-0.07  N 
ATOM     40 H3   TRP D   1      10.029  -3.320  36.707  1.00 33.45 LIG 0.28  HD
ATOM     41 H2   TRP D   1      10.977  -4.360  36.342  1.00 33.45 LIG 0.28  HD
ATOM     42 H1   TRP D   1      11.195  -3.565  37.538  1.00 33.45 LIG 0.28  HD
ENDBRANCH 27 39
ENDBRANCH 1 27
TORSDOF 9
ENDMDL
MODEL 59
USER: ADFR SOLUTION from run 29
USER: SCORE 13.456363 LL:  -1.269 LR: -12.188 RR:   0.000 FEB:  -9.503
USER: RMSD 11.960134
USER: SEED 28
USER: STATUS no improvement in best 11 clusters for 5 generations
USER: GENES 11
USER: genes 0 Translation |==|  0.32538 0.73834 0.65068
USER: genes 1 Rotation |==|  0.49074 0.57237 0.65481 0.96980
USER: genes 2 Torsion [N]-CA--C-[O] |==|  0.37055
USER: genes 3 Torsion [C]-N--CA-[CB] |==|  0.32184
USER: genes 4 Torsion [N]-CA--C-[OXT] |==|  0.00286
USER: genes 5 Torsion [N]-CA--CB-[CG] |==|  0.75271
USER: genes 6 Torsion [CA]-CB--CG-[CD1] |==|  0.96188
USER: genes 7 Torsion [N]-C--CA-[N] |==|  0.89849
USER: genes 8 Torsion [C]-CA--CB-[CG] |==|  0.37728
USER: genes 9 Torsion [CA]-CB--CG-[CD1] |==|  0.21928
USER: genes 10 Torsion [C]-CA--N-[H2] |==|  0.05975
ROOT
ATOM      1  C   TRP D   1       7.662  -3.670  39.360  1.00 35.88 LIG 0.25  C 
ATOM      2 O    TRP D   1       6.914  -4.416  40.090  1.00 38.57 LIG-0.27  OA
ATOM      3  N   PRO D   2       7.536  -2.434  39.072  1.00 34.89 LIG-0.34  N 
ATOM      4  CA  PRO D   2       6.517  -1.497  39.648  1.00 35.03 LIG 0.18  C 
ATOM      5  CB  PRO D   2       6.899  -0.215  38.964  1.00 35.34 LIG 0.04  C 
ATOM      6  CG  PRO D   2       8.425  -0.338  38.932  1.00 35.42 LIG 0.02  C 
ATOM      7  CD  PRO D   2       8.824  -1.776  38.921  1.00 35.14 LIG 0.13  C 
ENDROOT
BRANCH 4 8
ATOM      8  C   PRO D   2       5.023  -1.789  39.571  1.00 35.70 LIG 0.24  C 
ATOM      9 O    PRO D   2       4.252  -1.683  40.512  1.00 34.88 LIG-0.27  OA
ATOM     10  N   TRP D   3       4.727  -2.167  38.309  1.00 36.87 LIG-0.34  N 
ATOM     11 H    TRP D   3       5.267  -2.034  37.653  1.00 36.87 LIG 0.16  HD
BRANCH 10 12
ATOM     12  CA  TRP D   3       3.455  -2.852  37.888  1.00 37.56 LIG 0.19  C 
BRANCH 12 13
ATOM     13  C   TRP D   3       3.377  -4.331  37.354  1.00 38.92 LIG 0.20  C 
ATOM     14 OXT  TRP D   3       4.411  -5.073  37.257  1.00 41.38 LIG-0.65  OA
ATOM     15 O    TRP D   3       2.179  -4.754  36.977  1.00 40.06 LIG-0.65  OA
ENDBRANCH 12 13
BRANCH 12 16
ATOM     16  CB  TRP D   3       2.655  -1.919  36.906  1.00 36.55 LIG 0.08  C 
BRANCH 16 17
ATOM     17  CG  TRP D   3       1.700  -0.981  37.664  1.00 35.48 LIG-0.03  A 
ATOM     18  CD1 TRP D   3       1.316  -1.084  39.005  1.00 37.13 LIG 0.10  A 
ATOM     19  NE1 TRP D   3       0.436  -0.065  39.320  1.00 40.71 LIG-0.36  N 
ATOM     20 HE1  TRP D   3       0.072   0.054  40.090  1.00 40.71 LIG 0.17  HD
ATOM     21  CE2 TRP D   3       0.229   0.731  38.214  1.00 36.12 LIG 0.04  A 
ATOM     22  CD2 TRP D   3       1.019   0.179  37.133  1.00 33.28 LIG-0.00  A 
ATOM     23  CZ2 TRP D   3      -0.600   1.873  38.073  1.00 34.49 LIG 0.03  A 
ATOM     24  CE3 TRP D   3       0.967   0.786  35.852  1.00 31.46 LIG 0.01  A 
ATOM     25  CZ3 TRP D   3       0.168   1.933  35.684  1.00 32.66 LIG 0.00  A 
ATOM     26  CH2 TRP D   3      -0.627   2.472  36.809  1.00 36.62 LIG 0.00  A 
ENDBRANCH 16 17
ENDBRANCH 12 16
ENDBRANCH 10 12
ENDBRANCH 4 8
BRANCH 1 27
ATOM     27  CA  TRP D   1       8.784  -4.311  38.487  1.00 34.78 LIG 0.28  C 
BRANCH 27 28
ATOM     28  CB  TRP D   1      10.172  -4.117  39.110  1.00 34.63 LIG 0.08  C 
BRANCH 28 29
ATOM     29  CG  TRP D   1      11.024  -5.421  39.057  1.00 37.87 LIG-0.03  A 
ATOM     30  CD1 TRP D   1      11.720  -5.932  37.962  1.00 40.68 LIG 0.10  A 
ATOM     31  NE1 TRP D   1      12.392  -7.080  38.329  1.00 42.18 LIG-0.36  N 
ATOM     32 HE1  TRP D   1      12.882  -7.559  37.809  1.00 42.18 LIG 0.17  HD
ATOM     33  CE2 TRP D   1      12.150  -7.337  39.670  1.00 41.11 LIG 0.04  A 
ATOM     34  CD2 TRP D   1      11.293  -6.320  40.154  1.00 38.74 LIG-0.00  A 
ATOM     35  CZ2 TRP D   1      12.626  -8.396  40.502  1.00 41.13 LIG 0.03  A 
ATOM     36  CE3 TRP D   1      10.925  -6.342  41.516  1.00 40.52 LIG 0.01  A 
ATOM     37  CZ3 TRP D   1      11.392  -7.398  42.340  1.00 41.02 LIG 0.00  A 
ATOM     38  CH2 TRP D   1      12.241  -8.401  41.823  1.00 39.74 LIG 0.00  A 
ENDBRANCH 28 29
ENDBRANCH 27 28
BRANCH 27 39
ATOM     39  N   TRP D   1       8.797  -3.740  37.090  1.00 33.45 LIG-0.07  N 
ATOM     40 H3   TRP D   1       9.638  -3.646  36.815  1.00 33.45 LIG 0.28  HD
ATOM     41 H2   TRP D   1       8.394  -2.946  37.089  1.00 33.45 LIG 0.28  HD
ATOM     42 H1   TRP D   1       8.366  -4.291  36.540  1.00 33.45 LIG 0.28  HD
ENDBRANCH 27 39
ENDBRANCH 1 27
TORSDOF 9
ENDMDL
MODEL 60
USER: ADFR SOLUTION from run 143
USER: SCORE 13.444157 LL:  -1.272 LR: -12.172 RR:   0.000 FEB:  -9.488
USER: RMSD 10.618772
USER: SEED 142
USER: STATUS no improvement in best 6 clusters for 5 generations
USER: GENES 11
USER: genes 0 Translation |==|  0.36703 0.68118 0.63139
USER: genes 1 Rotation |==|  0.50490 0.62387 0.69040 0.94540
USER: genes 2 Torsion [N]-CA--C-[O] |==|  0.01220
USER: genes 3 Torsion [C]-N--CA-[CB] |==|  0.58737
USER: genes 4 Torsion [N]-CA--C-[OXT] |==|  0.78784
USER: genes 5 Torsion [N]-CA--CB-[CG] |==|  0.87891
USER: genes 6 Torsion [CA]-CB--CG-[CD1] |==|  0.73301
USER: genes 7 Torsion [N]-C--CA-[N] |==|  0.91432
USER: genes 8 Torsion [C]-CA--CB-[CG] |==|  0.24678
USER: genes 9 Torsion [CA]-CB--CG-[CD1] |==|  0.29606
USER: genes 10 Torsion [C]-CA--N-[H2] |==|  0.95803
ROOT
ATOM      1  C   TRP D   1       8.911  -5.385  38.782  1.00 35.88 LIG 0.25  C 
ATOM      2 O    TRP D   1       8.468  -6.229  39.642  1.00 38.57 LIG-0.27  OA
ATOM      3  N   PRO D   2       8.540  -4.185  38.560  1.00 34.89 LIG-0.34  N 
ATOM      4  CA  PRO D   2       7.549  -3.407  39.375  1.00 35.03 LIG 0.18  C 
ATOM      5  CB  PRO D   2       7.571  -2.089  38.655  1.00 35.34 LIG 0.04  C 
ATOM      6  CG  PRO D   2       9.050  -1.980  38.277  1.00 35.42 LIG 0.02  C 
ATOM      7  CD  PRO D   2       9.647  -3.340  38.140  1.00 35.14 LIG 0.13  C 
ENDROOT
BRANCH 4 8
ATOM      8  C   PRO D   2       6.138  -3.923  39.628  1.00 35.70 LIG 0.24  C 
ATOM      9 O    PRO D   2       5.729  -5.017  39.266  1.00 34.88 LIG-0.27  OA
ATOM     10  N   TRP D   3       5.453  -2.978  40.306  1.00 36.87 LIG-0.34  N 
ATOM     11 H    TRP D   3       5.846  -2.321  40.699  1.00 36.87 LIG 0.16  HD
BRANCH 10 12
ATOM     12  CA  TRP D   3       3.957  -2.941  40.465  1.00 37.56 LIG 0.19  C 
BRANCH 12 13
ATOM     13  C   TRP D   3       2.947  -3.741  39.560  1.00 38.92 LIG 0.20  C 
ATOM     14 OXT  TRP D   3       2.656  -3.369  38.374  1.00 41.38 LIG-0.65  OA
ATOM     15 O    TRP D   3       2.387  -4.808  40.112  1.00 40.06 LIG-0.65  OA
ENDBRANCH 12 13
BRANCH 12 16
ATOM     16  CB  TRP D   3       3.474  -1.446  40.557  1.00 36.55 LIG 0.08  C 
BRANCH 16 17
ATOM     17  CG  TRP D   3       4.381  -0.611  41.476  1.00 35.48 LIG-0.03  A 
ATOM     18  CD1 TRP D   3       4.165  -0.321  42.827  1.00 37.13 LIG 0.10  A 
ATOM     19  NE1 TRP D   3       5.194   0.467  43.308  1.00 40.71 LIG-0.36  N 
ATOM     20 HE1  TRP D   3       5.254   0.765  44.113  1.00 40.71 LIG 0.17  HD
ATOM     21  CE2 TRP D   3       6.107   0.706  42.304  1.00 36.12 LIG 0.04  A 
ATOM     22  CD2 TRP D   3       5.624   0.035  41.115  1.00 33.28 LIG-0.00  A 
ATOM     23  CZ2 TRP D   3       7.302   1.470  42.340  1.00 34.49 LIG 0.03  A 
ATOM     24  CE3 TRP D   3       6.359   0.143  39.906  1.00 31.46 LIG 0.01  A 
ATOM     25  CZ3 TRP D   3       7.560   0.880  39.915  1.00 32.66 LIG 0.00  A 
ATOM     26  CH2 TRP D   3       8.025   1.554  41.146  1.00 36.62 LIG 0.00  A 
ENDBRANCH 16 17
ENDBRANCH 12 16
ENDBRANCH 10 12
ENDBRANCH 4 8
BRANCH 1 27
ATOM     27  CA  TRP D   1       9.889  -5.857  37.662  1.00 34.78 LIG 0.28  C 
BRANCH 27 28
ATOM     28  CB  TRP D   1      11.353  -5.573  38.027  1.00 34.63 LIG 0.08  C 
BRANCH 28 29
ATOM     29  CG  TRP D   1      11.995  -6.751  38.820  1.00 37.87 LIG-0.03  A 
ATOM     30  CD1 TRP D   1      12.930  -7.674  38.354  1.00 40.68 LIG 0.10  A 
ATOM     31  NE1 TRP D   1      13.290  -8.532  39.374  1.00 42.18 LIG-0.36  N 
ATOM     32 HE1  TRP D   1      13.852  -9.179  39.307  1.00 42.18 LIG 0.17  HD
ATOM     33  CE2 TRP D   1      12.598  -8.181  40.524  1.00 41.11 LIG 0.04  A 
ATOM     34  CD2 TRP D   1      11.775  -7.074  40.211  1.00 38.74 LIG-0.00  A 
ATOM     35  CZ2 TRP D   1      12.637  -8.760  41.830  1.00 41.13 LIG 0.03  A 
ATOM     36  CE3 TRP D   1      10.991  -6.506  41.237  1.00 40.52 LIG 0.01  A 
ATOM     37  CZ3 TRP D   1      11.024  -7.085  42.531  1.00 41.02 LIG 0.00  A 
ATOM     38  CH2 TRP D   1      11.852  -8.195  42.809  1.00 39.74 LIG 0.00  A 
ENDBRANCH 28 29
ENDBRANCH 27 28
BRANCH 27 39
ATOM     39  N   TRP D   1       9.584  -5.195  36.340  1.00 33.45 LIG-0.07  N 
ATOM     40 H3   TRP D   1      10.192  -4.567  36.175  1.00 33.45 LIG 0.28  HD
ATOM     41 H2   TRP D   1       8.775  -4.823  36.374  1.00 33.45 LIG 0.28  HD
ATOM     42 H1   TRP D   1       9.603  -5.804  35.692  1.00 33.45 LIG 0.28  HD
ENDBRANCH 27 39
ENDBRANCH 1 27
TORSDOF 9
ENDMDL
MODEL 61
USER: ADFR SOLUTION from run 108
USER: SCORE 14.844202 LL:  -2.678 LR: -12.166 RR:   0.000 FEB:  -9.482
USER: RMSD 9.328746
USER: SEED 107
USER: STATUS no improvement in best 7 clusters for 5 generations
USER: GENES 11
USER: genes 0 Translation |==|  0.45414 0.65745 0.56875
USER: genes 1 Rotation |==|  0.67177 0.04362 0.41854 0.57467
USER: genes 2 Torsion [N]-CA--C-[O] |==|  0.75371
USER: genes 3 Torsion [C]-N--CA-[CB] |==|  0.74220
USER: genes 4 Torsion [N]-CA--C-[OXT] |==|  0.32649
USER: genes 5 Torsion [N]-CA--CB-[CG] |==|  0.25585
USER: genes 6 Torsion [CA]-CB--CG-[CD1] |==|  0.27011
USER: genes 7 Torsion [N]-C--CA-[N] |==|  0.34579
USER: genes 8 Torsion [C]-CA--CB-[CG] |==|  0.30159
USER: genes 9 Torsion [CA]-CB--CG-[CD1] |==|  0.35427
USER: genes 10 Torsion [C]-CA--N-[H2] |==|  0.66316
ROOT
ATOM      1  C   TRP D   1      11.524  -6.097  36.902  1.00 35.88 LIG 0.25  C 
ATOM      2 O    TRP D   1      12.308  -5.287  36.287  1.00 38.57 LIG-0.27  OA
ATOM      3  N   PRO D   2      10.471  -5.848  37.577  1.00 34.89 LIG-0.34  N 
ATOM      4  CA  PRO D   2       9.804  -4.510  37.703  1.00 35.03 LIG 0.18  C 
ATOM      5  CB  PRO D   2       8.627  -4.866  38.567  1.00 35.34 LIG 0.04  C 
ATOM      6  CG  PRO D   2       8.273  -6.255  38.029  1.00 35.42 LIG 0.02  C 
ATOM      7  CD  PRO D   2       9.487  -6.912  37.464  1.00 35.14 LIG 0.13  C 
ENDROOT
BRANCH 4 8
ATOM      8  C   PRO D   2      10.557  -3.282  38.202  1.00 35.70 LIG 0.24  C 
ATOM      9 O    PRO D   2      10.650  -2.963  39.378  1.00 34.88 LIG-0.27  OA
ATOM     10  N   TRP D   3      11.084  -2.643  37.136  1.00 36.87 LIG-0.34  N 
ATOM     11 H    TRP D   3      11.151  -3.017  36.365  1.00 36.87 LIG 0.16  HD
BRANCH 10 12
ATOM     12  CA  TRP D   3      11.610  -1.233  37.148  1.00 37.56 LIG 0.19  C 
BRANCH 12 13
ATOM     13  C   TRP D   3      12.411  -0.593  38.342  1.00 38.92 LIG 0.20  C 
ATOM     14 OXT  TRP D   3      13.616  -0.192  38.215  1.00 41.38 LIG-0.65  OA
ATOM     15 O    TRP D   3      11.773  -0.523  39.502  1.00 40.06 LIG-0.65  OA
ENDBRANCH 12 13
BRANCH 12 16
ATOM     16  CB  TRP D   3      10.467  -0.240  36.719  1.00 36.55 LIG 0.08  C 
BRANCH 16 17
ATOM     17  CG  TRP D   3       9.693   0.295  37.936  1.00 35.48 LIG-0.03  A 
ATOM     18  CD1 TRP D   3       9.900   1.514  38.590  1.00 37.13 LIG 0.10  A 
ATOM     19  NE1 TRP D   3       9.019   1.635  39.648  1.00 40.71 LIG-0.36  N 
ATOM     20 HE1  TRP D   3       8.980   2.305  40.186  1.00 40.71 LIG 0.17  HD
ATOM     21  CE2 TRP D   3       8.211   0.520  39.711  1.00 36.12 LIG 0.04  A 
ATOM     22  CD2 TRP D   3       8.610  -0.363  38.635  1.00 33.28 LIG-0.00  A 
ATOM     23  CZ2 TRP D   3       7.181   0.209  40.637  1.00 34.49 LIG 0.03  A 
ATOM     24  CE3 TRP D   3       7.963  -1.616  38.484  1.00 31.46 LIG 0.01  A 
ATOM     25  CZ3 TRP D   3       6.923  -1.945  39.375  1.00 32.66 LIG 0.00  A 
ATOM     26  CH2 TRP D   3       6.540  -1.022  40.465  1.00 36.62 LIG 0.00  A 
ENDBRANCH 16 17
ENDBRANCH 12 16
ENDBRANCH 10 12
ENDBRANCH 4 8
BRANCH 1 27
ATOM     27  CA  TRP D   1      11.942  -7.588  37.094  1.00 34.78 LIG 0.28  C 
BRANCH 27 28
ATOM     28  CB  TRP D   1      13.275  -7.714  37.844  1.00 34.63 LIG 0.08  C 
BRANCH 28 29
ATOM     29  CG  TRP D   1      13.081  -8.256  39.292  1.00 37.87 LIG-0.03  A 
ATOM     30  CD1 TRP D   1      13.731  -9.338  39.884  1.00 40.68 LIG 0.10  A 
ATOM     31  NE1 TRP D   1      13.321  -9.471  41.195  1.00 42.18 LIG-0.36  N 
ATOM     32 HE1  TRP D   1      13.593 -10.073  41.745  1.00 42.18 LIG 0.17  HD
ATOM     33  CE2 TRP D   1      12.399  -8.476  41.483  1.00 41.11 LIG 0.04  A 
ATOM     34  CD2 TRP D   1      12.222  -7.701  40.312  1.00 38.74 LIG-0.00  A 
ATOM     35  CZ2 TRP D   1      11.701  -8.195  42.697  1.00 41.13 LIG 0.03  A 
ATOM     36  CE3 TRP D   1      11.348  -6.595  40.362  1.00 40.52 LIG 0.01  A 
ATOM     37  CZ3 TRP D   1      10.650  -6.321  41.566  1.00 41.02 LIG 0.00  A 
ATOM     38  CH2 TRP D   1      10.844  -7.118  42.715  1.00 39.74 LIG 0.00  A 
ENDBRANCH 28 29
ENDBRANCH 27 28
BRANCH 27 39
ATOM     39  N   TRP D   1      12.060  -8.307  35.773  1.00 33.45 LIG-0.07  N 
ATOM     40 H3   TRP D   1      11.851  -7.749  35.111  1.00 33.45 LIG 0.28  HD
ATOM     41 H2   TRP D   1      11.505  -9.002  35.761  1.00 33.45 LIG 0.28  HD
ATOM     42 H1   TRP D   1      12.896  -8.593  35.664  1.00 33.45 LIG 0.28  HD
ENDBRANCH 27 39
ENDBRANCH 1 27
TORSDOF 9
ENDMDL
MODEL 62
USER: ADFR SOLUTION from run 103
USER: SCORE 14.525666 LL:  -2.412 LR: -12.113 RR:   0.000 FEB:  -9.429
USER: RMSD 9.212680
USER: SEED 102
USER: STATUS no improvement in best 10 clusters for 5 generations
USER: GENES 11
USER: genes 0 Translation |==|  0.49185 0.66417 0.50081
USER: genes 1 Rotation |==|  0.89455 0.47928 0.22313 0.63131
USER: genes 2 Torsion [N]-CA--C-[O] |==|  0.98232
USER: genes 3 Torsion [C]-N--CA-[CB] |==|  0.19648
USER: genes 4 Torsion [N]-CA--C-[OXT] |==|  0.75865
USER: genes 5 Torsion [N]-CA--CB-[CG] |==|  0.55535
USER: genes 6 Torsion [CA]-CB--CG-[CD1] |==|  0.59593
USER: genes 7 Torsion [N]-C--CA-[N] |==|  0.41335
USER: genes 8 Torsion [C]-CA--CB-[CG] |==|  0.27467
USER: genes 9 Torsion [CA]-CB--CG-[CD1] |==|  0.65188
USER: genes 10 Torsion [C]-CA--N-[H2] |==|  0.87963
ROOT
ATOM      1  C   TRP D   1      12.656  -5.895  34.864  1.00 35.88 LIG 0.25  C 
ATOM      2 O    TRP D   1      11.796  -5.509  35.736  1.00 38.57 LIG-0.27  OA
ATOM      3  N   PRO D   2      13.300  -6.993  34.794  1.00 34.89 LIG-0.34  N 
ATOM      4  CA  PRO D   2      13.097  -8.189  35.677  1.00 35.03 LIG 0.18  C 
ATOM      5  CB  PRO D   2      14.096  -9.143  35.086  1.00 35.34 LIG 0.04  C 
ATOM      6  CG  PRO D   2      13.981  -8.811  33.597  1.00 35.42 LIG 0.02  C 
ATOM      7  CD  PRO D   2      13.543  -7.396  33.418  1.00 35.14 LIG 0.13  C 
ENDROOT
BRANCH 4 8
ATOM      8  C   PRO D   2      13.194  -8.091  37.195  1.00 35.70 LIG 0.24  C 
ATOM      9 O    PRO D   2      13.546  -7.089  37.799  1.00 34.88 LIG-0.27  OA
ATOM     10  N   TRP D   3      12.825  -9.277  37.723  1.00 36.87 LIG-0.34  N 
ATOM     11 H    TRP D   3      12.405  -9.871  37.265  1.00 36.87 LIG 0.16  HD
BRANCH 10 12
ATOM     12  CA  TRP D   3      13.089  -9.712  39.139  1.00 37.56 LIG 0.19  C 
BRANCH 12 13
ATOM     13  C   TRP D   3      13.109 -11.212  39.619  1.00 38.92 LIG 0.20  C 
ATOM     14 OXT  TRP D   3      12.050 -11.822  39.985  1.00 41.38 LIG-0.65  OA
ATOM     15 O    TRP D   3      14.298 -11.797  39.655  1.00 40.06 LIG-0.65  OA
ENDBRANCH 12 13
BRANCH 12 16
ATOM     16  CB  TRP D   3      12.183  -8.882  40.123  1.00 36.55 LIG 0.08  C 
BRANCH 16 17
ATOM     17  CG  TRP D   3      12.731  -8.910  41.560  1.00 35.48 LIG-0.03  A 
ATOM     18  CD1 TRP D   3      11.982  -8.913  42.741  1.00 37.13 LIG 0.10  A 
ATOM     19  NE1 TRP D   3      12.829  -8.928  43.834  1.00 40.71 LIG-0.36  N 
ATOM     20 HE1  TRP D   3      12.576  -8.926  44.656  1.00 40.71 LIG 0.17  HD
ATOM     21  CE2 TRP D   3      14.140  -8.945  43.407  1.00 36.12 LIG 0.04  A 
ATOM     22  CD2 TRP D   3      14.121  -8.933  41.959  1.00 33.28 LIG-0.00  A 
ATOM     23  CZ2 TRP D   3      15.333  -8.949  44.174  1.00 34.49 LIG 0.03  A 
ATOM     24  CE3 TRP D   3      15.348  -8.911  41.247  1.00 31.46 LIG 0.01  A 
ATOM     25  CZ3 TRP D   3      16.550  -8.934  41.980  1.00 32.66 LIG 0.00  A 
ATOM     26  CH2 TRP D   3      16.535  -8.945  43.458  1.00 36.62 LIG 0.00  A 
ENDBRANCH 16 17
ENDBRANCH 12 16
ENDBRANCH 10 12
ENDBRANCH 4 8
BRANCH 1 27
ATOM     27  CA  TRP D   1      13.221  -4.876  33.827  1.00 34.78 LIG 0.28  C 
BRANCH 27 28
ATOM     28  CB  TRP D   1      14.364  -4.038  34.416  1.00 34.63 LIG 0.08  C 
BRANCH 28 29
ATOM     29  CG  TRP D   1      15.763  -4.587  34.002  1.00 37.87 LIG-0.03  A 
ATOM     30  CD1 TRP D   1      16.814  -4.945  34.846  1.00 40.68 LIG 0.10  A 
ATOM     31  NE1 TRP D   1      17.868  -5.432  34.099  1.00 42.18 LIG-0.36  N 
ATOM     32 HE1  TRP D   1      18.618  -5.708  34.416  1.00 42.18 LIG 0.17  HD
ATOM     33  CE2 TRP D   1      17.523  -5.403  32.756  1.00 41.11 LIG 0.04  A 
ATOM     34  CD2 TRP D   1      16.213  -4.875  32.660  1.00 38.74 LIG-0.00  A 
ATOM     35  CZ2 TRP D   1      18.270  -5.807  31.608  1.00 41.13 LIG 0.03  A 
ATOM     36  CE3 TRP D   1      15.619  -4.777  31.385  1.00 40.52 LIG 0.01  A 
ATOM     37  CZ3 TRP D   1      16.364  -5.171  30.244  1.00 41.02 LIG 0.00  A 
ATOM     38  CH2 TRP D   1      17.671  -5.688  30.374  1.00 39.74 LIG 0.00  A 
ENDBRANCH 28 29
ENDBRANCH 27 28
BRANCH 27 39
ATOM     39  N   TRP D   1      12.148  -3.943  33.321  1.00 33.45 LIG-0.07  N 
ATOM     40 H3   TRP D   1      11.977  -3.326  33.939  1.00 33.45 LIG 0.28  HD
ATOM     41 H2   TRP D   1      11.408  -4.406  33.151  1.00 33.45 LIG 0.28  HD
ATOM     42 H1   TRP D   1      12.427  -3.546  32.576  1.00 33.45 LIG 0.28  HD
ENDBRANCH 27 39
ENDBRANCH 1 27
TORSDOF 9
ENDMDL
MODEL 63
USER: ADFR SOLUTION from run 44
USER: SCORE 15.118354 LL:  -3.027 LR: -12.092 RR:   0.000 FEB:  -9.407
USER: RMSD 9.355574
USER: SEED 43
USER: STATUS no improvement in best 20 clusters for 5 generations
USER: GENES 11
USER: genes 0 Translation |==|  0.57107 0.73064 0.45628
USER: genes 1 Rotation |==|  0.27372 0.46734 0.15022 0.77457
USER: genes 2 Torsion [N]-CA--C-[O] |==|  0.07936
USER: genes 3 Torsion [C]-N--CA-[CB] |==|  0.80052
USER: genes 4 Torsion [N]-CA--C-[OXT] |==|  0.97204
USER: genes 5 Torsion [N]-CA--CB-[CG] |==|  0.93231
USER: genes 6 Torsion [CA]-CB--CG-[CD1] |==|  0.80318
USER: genes 7 Torsion [N]-C--CA-[N] |==|  0.55028
USER: genes 8 Torsion [C]-CA--CB-[CG] |==|  0.34593
USER: genes 9 Torsion [CA]-CB--CG-[CD1] |==|  0.62402
USER: genes 10 Torsion [C]-CA--N-[H2] |==|  0.69031
ROOT
ATOM      1  C   TRP D   1      15.032  -3.901  33.529  1.00 35.88 LIG 0.25  C 
ATOM      2 O    TRP D   1      15.145  -2.753  32.965  1.00 38.57 LIG-0.27  OA
ATOM      3  N   PRO D   2      15.828  -4.897  33.502  1.00 34.89 LIG-0.34  N 
ATOM      4  CA  PRO D   2      17.197  -4.912  32.889  1.00 35.03 LIG 0.18  C 
ATOM      5  CB  PRO D   2      17.629  -6.315  33.209  1.00 35.34 LIG 0.04  C 
ATOM      6  CG  PRO D   2      17.016  -6.506  34.598  1.00 35.42 LIG 0.02  C 
ATOM      7  CD  PRO D   2      15.806  -5.645  34.749  1.00 35.14 LIG 0.13  C 
ENDROOT
BRANCH 4 8
ATOM      8  C   PRO D   2      17.426  -4.538  31.430  1.00 35.70 LIG 0.24  C 
ATOM      9 O    PRO D   2      16.723  -3.763  30.799  1.00 34.88 LIG-0.27  OA
ATOM     10  N   TRP D   3      18.516  -5.199  30.986  1.00 36.87 LIG-0.34  N 
ATOM     11 H    TRP D   3      19.076  -5.571  31.523  1.00 36.87 LIG 0.16  HD
BRANCH 10 12
ATOM     12  CA  TRP D   3      18.893  -5.373  29.539  1.00 37.56 LIG 0.19  C 
BRANCH 12 13
ATOM     13  C   TRP D   3      19.162  -4.185  28.542  1.00 38.92 LIG 0.20  C 
ATOM     14 OXT  TRP D   3      18.898  -2.973  28.843  1.00 41.38 LIG-0.65  OA
ATOM     15 O    TRP D   3      19.650  -4.517  27.355  1.00 40.06 LIG-0.65  OA
ENDBRANCH 12 13
BRANCH 12 16
ATOM     16  CB  TRP D   3      17.904  -6.389  28.856  1.00 36.55 LIG 0.08  C 
BRANCH 16 17
ATOM     17  CG  TRP D   3      17.268  -7.341  29.883  1.00 35.48 LIG-0.03  A 
ATOM     18  CD1 TRP D   3      17.908  -8.377  30.573  1.00 37.13 LIG 0.10  A 
ATOM     19  NE1 TRP D   3      17.004  -9.019  31.399  1.00 40.71 LIG-0.36  N 
ATOM     20 HE1  TRP D   3      17.186  -9.688  31.906  1.00 40.71 LIG 0.17  HD
ATOM     21  CE2 TRP D   3      15.765  -8.424  31.286  1.00 36.12 LIG 0.04  A 
ATOM     22  CD2 TRP D   3      15.891  -7.347  30.325  1.00 33.28 LIG-0.00  A 
ATOM     23  CZ2 TRP D   3      14.547  -8.758  31.931  1.00 34.49 LIG 0.03  A 
ATOM     24  CE3 TRP D   3      14.748  -6.580  29.985  1.00 31.46 LIG 0.01  A 
ATOM     25  CZ3 TRP D   3      13.528  -6.874  30.623  1.00 32.66 LIG 0.00  A 
ATOM     26  CH2 TRP D   3      13.432  -7.981  31.599  1.00 36.62 LIG 0.00  A 
ENDBRANCH 16 17
ENDBRANCH 12 16
ENDBRANCH 10 12
ENDBRANCH 4 8
BRANCH 1 27
ATOM     27  CA  TRP D   1      13.678  -4.316  34.183  1.00 34.78 LIG 0.28  C 
BRANCH 27 28
ATOM     28  CB  TRP D   1      13.239  -5.719  33.743  1.00 34.63 LIG 0.08  C 
BRANCH 28 29
ATOM     29  CG  TRP D   1      12.989  -6.660  34.960  1.00 37.87 LIG-0.03  A 
ATOM     30  CD1 TRP D   1      13.407  -7.982  35.106  1.00 40.68 LIG 0.10  A 
ATOM     31  NE1 TRP D   1      13.030  -8.458  36.347  1.00 42.18 LIG-0.36  N 
ATOM     32 HE1  TRP D   1      13.185  -9.249  36.645  1.00 42.18 LIG 0.17  HD
ATOM     33  CE2 TRP D   1      12.364  -7.453  37.033  1.00 41.11 LIG 0.04  A 
ATOM     34  CD2 TRP D   1      12.316  -6.316  36.191  1.00 38.74 LIG-0.00  A 
ATOM     35  CZ2 TRP D   1      11.796  -7.458  38.343  1.00 41.13 LIG 0.03  A 
ATOM     36  CE3 TRP D   1      11.712  -5.140  36.683  1.00 40.52 LIG 0.01  A 
ATOM     37  CZ3 TRP D   1      11.142  -5.148  37.981  1.00 41.02 LIG 0.00  A 
ATOM     38  CH2 TRP D   1      11.201  -6.302  38.793  1.00 39.74 LIG 0.00  A 
ENDBRANCH 28 29
ENDBRANCH 27 28
BRANCH 27 39
ATOM     39  N   TRP D   1      12.577  -3.339  33.850  1.00 33.45 LIG-0.07  N 
ATOM     40 H3   TRP D   1      12.867  -2.763  33.236  1.00 33.45 LIG 0.28  HD
ATOM     41 H2   TRP D   1      12.340  -2.895  34.585  1.00 33.45 LIG 0.28  HD
ATOM     42 H1   TRP D   1      11.873  -3.781  33.532  1.00 33.45 LIG 0.28  HD
ENDBRANCH 27 39
ENDBRANCH 1 27
TORSDOF 9
ENDMDL
MODEL 64
USER: ADFR SOLUTION from run 18
USER: SCORE 14.331860 LL:  -2.341 LR: -11.991 RR:   0.000 FEB:  -9.306
USER: RMSD 10.297530
USER: SEED 17
USER: STATUS no improvement in best 9 clusters for 5 generations
USER: GENES 11
USER: genes 0 Translation |==|  0.40300 0.76619 0.63725
USER: genes 1 Rotation |==|  0.47347 0.70875 0.48964 0.95345
USER: genes 2 Torsion [N]-CA--C-[O] |==|  0.47047
USER: genes 3 Torsion [C]-N--CA-[CB] |==|  0.59430
USER: genes 4 Torsion [N]-CA--C-[OXT] |==|  0.92542
USER: genes 5 Torsion [N]-CA--CB-[CG] |==|  0.87604
USER: genes 6 Torsion [CA]-CB--CG-[CD1] |==|  0.86035
USER: genes 7 Torsion [N]-C--CA-[N] |==|  0.90142
USER: genes 8 Torsion [C]-CA--CB-[CG] |==|  0.57974
USER: genes 9 Torsion [CA]-CB--CG-[CD1] |==|  0.77417
USER: genes 10 Torsion [C]-CA--N-[H2] |==|  0.81869
ROOT
ATOM      1  C   TRP D   1       9.990  -2.834  38.958  1.00 35.88 LIG 0.25  C 
ATOM      2 O    TRP D   1       9.516  -2.826  40.151  1.00 38.57 LIG-0.27  OA
ATOM      3  N   PRO D   2      10.319  -1.854  38.211  1.00 34.89 LIG-0.34  N 
ATOM      4  CA  PRO D   2      10.353  -0.412  38.618  1.00 35.03 LIG 0.18  C 
ATOM      5  CB  PRO D   2      10.845   0.225  37.349  1.00 35.34 LIG 0.04  C 
ATOM      6  CG  PRO D   2      11.838  -0.829  36.853  1.00 35.42 LIG 0.02  C 
ATOM      7  CD  PRO D   2      11.445  -2.180  37.349  1.00 35.14 LIG 0.13  C 
ENDROOT
BRANCH 4 8
ATOM      8  C   PRO D   2       9.129   0.288  39.198  1.00 35.70 LIG 0.24  C 
ATOM      9 O    PRO D   2       9.150   1.395  39.715  1.00 34.88 LIG-0.27  OA
ATOM     10  N   TRP D   3       8.059  -0.518  39.033  1.00 36.87 LIG-0.34  N 
ATOM     11 H    TRP D   3       8.070  -1.188  38.494  1.00 36.87 LIG 0.16  HD
BRANCH 10 12
ATOM     12  CA  TRP D   3       6.742  -0.363  39.744  1.00 37.56 LIG 0.19  C 
BRANCH 12 13
ATOM     13  C   TRP D   3       6.521   0.534  41.019  1.00 38.92 LIG 0.20  C 
ATOM     14 OXT  TRP D   3       7.464   0.795  41.837  1.00 41.38 LIG-0.65  OA
ATOM     15 O    TRP D   3       5.287   0.976  41.215  1.00 40.06 LIG-0.65  OA
ENDBRANCH 12 13
BRANCH 12 16
ATOM     16  CB  TRP D   3       6.117  -1.782  40.012  1.00 36.55 LIG 0.08  C 
BRANCH 16 17
ATOM     17  CG  TRP D   3       6.221  -2.691  38.776  1.00 35.48 LIG-0.03  A 
ATOM     18  CD1 TRP D   3       5.836  -2.374  37.469  1.00 37.13 LIG 0.10  A 
ATOM     19  NE1 TRP D   3       6.069  -3.452  36.636  1.00 40.71 LIG-0.36  N 
ATOM     20 HE1  TRP D   3       5.899  -3.472  35.794  1.00 40.71 LIG 0.17  HD
ATOM     21  CE2 TRP D   3       6.618  -4.489  37.359  1.00 36.12 LIG 0.04  A 
ATOM     22  CD2 TRP D   3       6.730  -4.044  38.733  1.00 33.28 LIG-0.00  A 
ATOM     23  CZ2 TRP D   3       7.003  -5.783  36.923  1.00 34.49 LIG 0.03  A 
ATOM     24  CE3 TRP D   3       7.235  -4.934  39.715  1.00 31.46 LIG 0.01  A 
ATOM     25  CZ3 TRP D   3       7.644  -6.219  39.309  1.00 32.66 LIG 0.00  A 
ATOM     26  CH2 TRP D   3       7.515  -6.644  37.898  1.00 36.62 LIG 0.00  A 
ENDBRANCH 16 17
ENDBRANCH 12 16
ENDBRANCH 10 12
ENDBRANCH 4 8
BRANCH 1 27
ATOM     27  CA  TRP D   1      10.005  -4.161  38.136  1.00 34.78 LIG 0.28  C 
BRANCH 27 28
ATOM     28  CB  TRP D   1      11.400  -4.799  38.109  1.00 34.63 LIG 0.08  C 
BRANCH 28 29
ATOM     29  CG  TRP D   1      11.635  -5.634  36.815  1.00 37.87 LIG-0.03  A 
ATOM     30  CD1 TRP D   1      11.212  -6.938  36.561  1.00 40.68 LIG 0.10  A 
ATOM     31  NE1 TRP D   1      11.575  -7.307  35.281  1.00 42.18 LIG-0.36  N 
ATOM     32 HE1  TRP D   1      11.415  -8.070  34.918  1.00 42.18 LIG 0.17  HD
ATOM     33  CE2 TRP D   1      12.237  -6.250  34.677  1.00 41.11 LIG 0.04  A 
ATOM     34  CD2 TRP D   1      12.298  -5.189  35.611  1.00 38.74 LIG-0.00  A 
ATOM     35  CZ2 TRP D   1      12.793  -6.145  33.365  1.00 41.13 LIG 0.03  A 
ATOM     36  CE3 TRP D   1      12.901  -3.976  35.215  1.00 40.52 LIG 0.01  A 
ATOM     37  CZ3 TRP D   1      13.459  -3.875  33.915  1.00 41.02 LIG 0.00  A 
ATOM     38  CH2 TRP D   1      13.388  -4.956  33.009  1.00 39.74 LIG 0.00  A 
ENDBRANCH 28 29
ENDBRANCH 27 28
BRANCH 27 39
ATOM     39  N   TRP D   1       9.545  -3.941  36.716  1.00 33.45 LIG-0.07  N 
ATOM     40 H3   TRP D   1      10.038  -3.303  36.340  1.00 33.45 LIG 0.28  HD
ATOM     41 H2   TRP D   1       8.690  -3.695  36.715  1.00 33.45 LIG 0.28  HD
ATOM     42 H1   TRP D   1       9.637  -4.696  36.254  1.00 33.45 LIG 0.28  HD
ENDBRANCH 27 39
ENDBRANCH 1 27
TORSDOF 9
ENDMDL
MODEL 65
USER: ADFR SOLUTION from run 45
USER: SCORE 14.799054 LL:  -2.821 LR: -11.978 RR:   0.000 FEB:  -9.293
USER: RMSD 9.137105
USER: SEED 44
USER: STATUS no improvement in best 11 clusters for 5 generations
USER: GENES 11
USER: genes 0 Translation |==|  0.51961 0.65969 0.45541
USER: genes 1 Rotation |==|  0.97202 0.62486 0.56751 0.58394
USER: genes 2 Torsion [N]-CA--C-[O] |==|  0.27271
USER: genes 3 Torsion [C]-N--CA-[CB] |==|  0.59251
USER: genes 4 Torsion [N]-CA--C-[OXT] |==|  0.76329
USER: genes 5 Torsion [N]-CA--CB-[CG] |==|  0.79183
USER: genes 6 Torsion [CA]-CB--CG-[CD1] |==|  0.07655
USER: genes 7 Torsion [N]-C--CA-[N] |==|  0.51396
USER: genes 8 Torsion [C]-CA--CB-[CG] |==|  0.85542
USER: genes 9 Torsion [CA]-CB--CG-[CD1] |==|  0.11347
USER: genes 10 Torsion [C]-CA--N-[H2] |==|  0.75431
ROOT
ATOM      1  C   TRP D   1      13.488  -6.029  33.502  1.00 35.88 LIG 0.25  C 
ATOM      2 O    TRP D   1      12.560  -6.656  32.875  1.00 38.57 LIG-0.27  OA
ATOM      3  N   PRO D   2      14.471  -6.495  34.168  1.00 34.89 LIG-0.34  N 
ATOM      4  CA  PRO D   2      14.860  -7.940  34.267  1.00 35.03 LIG 0.18  C 
ATOM      5  CB  PRO D   2      16.084  -7.840  35.133  1.00 35.34 LIG 0.04  C 
ATOM      6  CG  PRO D   2      16.706  -6.539  34.621  1.00 35.42 LIG 0.02  C 
ATOM      7  CD  PRO D   2      15.646  -5.644  34.072  1.00 35.14 LIG 0.13  C 
ENDROOT
BRANCH 4 8
ATOM      8  C   PRO D   2      13.879  -9.004  34.744  1.00 35.70 LIG 0.24  C 
ATOM      9 O    PRO D   2      13.236  -9.730  34.001  1.00 34.88 LIG-0.27  OA
ATOM     10  N   TRP D   3      13.862  -8.993  36.094  1.00 36.87 LIG-0.34  N 
ATOM     11 H    TRP D   3      14.472  -8.603  36.557  1.00 36.87 LIG 0.16  HD
BRANCH 10 12
ATOM     12  CA  TRP D   3      12.807  -9.642  36.950  1.00 37.56 LIG 0.19  C 
BRANCH 12 13
ATOM     13  C   TRP D   3      11.401 -10.113  36.422  1.00 38.92 LIG 0.20  C 
ATOM     14 OXT  TRP D   3      10.405  -9.319  36.340  1.00 41.38 LIG-0.65  OA
ATOM     15 O    TRP D   3      11.298 -11.395  36.099  1.00 40.06 LIG-0.65  OA
ENDBRANCH 12 13
BRANCH 12 16
ATOM     16  CB  TRP D   3      12.595  -8.792  38.258  1.00 36.55 LIG 0.08  C 
BRANCH 16 17
ATOM     17  CG  TRP D   3      13.750  -8.985  39.254  1.00 35.48 LIG-0.03  A 
ATOM     18  CD1 TRP D   3      15.073  -9.320  38.947  1.00 37.13 LIG 0.10  A 
ATOM     19  NE1 TRP D   3      15.815  -9.417  40.110  1.00 40.71 LIG-0.36  N 
ATOM     20 HE1  TRP D   3      16.649  -9.619  40.149  1.00 40.71 LIG 0.17  HD
ATOM     21  CE2 TRP D   3      15.014  -9.142  41.198  1.00 36.12 LIG 0.04  A 
ATOM     22  CD2 TRP D   3      13.685  -8.862  40.694  1.00 33.28 LIG-0.00  A 
ATOM     23  CZ2 TRP D   3      15.344  -9.137  42.578  1.00 34.49 LIG 0.03  A 
ATOM     24  CE3 TRP D   3      12.638  -8.578  41.608  1.00 31.46 LIG 0.01  A 
ATOM     25  CZ3 TRP D   3      12.939  -8.547  42.984  1.00 32.66 LIG 0.00  A 
ATOM     26  CH2 TRP D   3      14.306  -8.839  43.466  1.00 36.62 LIG 0.00  A 
ENDBRANCH 16 17
ENDBRANCH 12 16
ENDBRANCH 10 12
ENDBRANCH 4 8
BRANCH 1 27
ATOM     27  CA  TRP D   1      13.374  -4.489  33.724  1.00 34.78 LIG 0.28  C 
BRANCH 27 28
ATOM     28  CB  TRP D   1      13.327  -4.130  35.215  1.00 34.63 LIG 0.08  C 
BRANCH 28 29
ATOM     29  CG  TRP D   1      12.232  -4.937  35.976  1.00 37.87 LIG-0.03  A 
ATOM     30  CD1 TRP D   1      11.910  -6.284  35.816  1.00 40.68 LIG 0.10  A 
ATOM     31  NE1 TRP D   1      10.917  -6.637  36.707  1.00 42.18 LIG-0.36  N 
ATOM     32 HE1  TRP D   1      10.566  -7.419  36.780  1.00 42.18 LIG 0.17  HD
ATOM     33  CE2 TRP D   1      10.576  -5.527  37.466  1.00 41.11 LIG 0.04  A 
ATOM     34  CD2 TRP D   1      11.376  -4.445  37.030  1.00 38.74 LIG-0.00  A 
ATOM     35  CZ2 TRP D   1       9.615  -5.393  38.515  1.00 41.13 LIG 0.03  A 
ATOM     36  CE3 TRP D   1      11.237  -3.200  37.680  1.00 40.52 LIG 0.01  A 
ATOM     37  CZ3 TRP D   1      10.278  -3.066  38.716  1.00 41.02 LIG 0.00  A 
ATOM     38  CH2 TRP D   1       9.490  -4.165  39.123  1.00 39.74 LIG 0.00  A 
ENDBRANCH 28 29
ENDBRANCH 27 28
BRANCH 27 39
ATOM     39  N   TRP D   1      12.150  -3.919  33.050  1.00 33.45 LIG-0.07  N 
ATOM     40 H3   TRP D   1      11.502  -4.529  33.047  1.00 33.45 LIG 0.28  HD
ATOM     41 H2   TRP D   1      12.349  -3.694  32.212  1.00 33.45 LIG 0.28  HD
ATOM     42 H1   TRP D   1      11.876  -3.198  33.493  1.00 33.45 LIG 0.28  HD
ENDBRANCH 27 39
ENDBRANCH 1 27
TORSDOF 9
ENDMDL
MODEL 66
USER: ADFR SOLUTION from run 42
USER: SCORE 13.979064 LL:  -2.001 LR: -11.979 RR:   0.000 FEB:  -9.294
USER: RMSD 7.968959
USER: SEED 41
USER: STATUS no improvement in best 14 clusters for 5 generations
USER: GENES 11
USER: genes 0 Translation |==|  0.43035 0.63901 0.54981
USER: genes 1 Rotation |==|  0.51834 0.83426 0.12862 0.50224
USER: genes 2 Torsion [N]-CA--C-[O] |==|  0.42861
USER: genes 3 Torsion [C]-N--CA-[CB] |==|  0.17047
USER: genes 4 Torsion [N]-CA--C-[OXT] |==|  0.07454
USER: genes 5 Torsion [N]-CA--CB-[CG] |==|  0.66743
USER: genes 6 Torsion [CA]-CB--CG-[CD1] |==|  0.11016
USER: genes 7 Torsion [N]-C--CA-[N] |==|  0.25853
USER: genes 8 Torsion [C]-CA--CB-[CG] |==|  0.70736
USER: genes 9 Torsion [CA]-CB--CG-[CD1] |==|  0.74261
USER: genes 10 Torsion [C]-CA--N-[H2] |==|  0.01810
ROOT
ATOM      1  C   TRP D   1      10.811  -6.650  36.334  1.00 35.88 LIG 0.25  C 
ATOM      2 O    TRP D   1      11.990  -7.096  36.573  1.00 38.57 LIG-0.27  OA
ATOM      3  N   PRO D   2      10.181  -6.578  35.228  1.00 34.89 LIG-0.34  N 
ATOM      4  CA  PRO D   2      10.641  -7.143  33.917  1.00 35.03 LIG 0.18  C 
ATOM      5  CB  PRO D   2       9.481  -6.779  33.034  1.00 35.34 LIG 0.04  C 
ATOM      6  CG  PRO D   2       8.305  -6.975  33.993  1.00 35.42 LIG 0.02  C 
ATOM      7  CD  PRO D   2       8.749  -6.765  35.402  1.00 35.14 LIG 0.13  C 
ENDROOT
BRANCH 4 8
ATOM      8  C   PRO D   2      11.989  -6.768  33.311  1.00 35.70 LIG 0.24  C 
ATOM      9 O    PRO D   2      12.615  -7.476  32.536  1.00 34.88 LIG-0.27  OA
ATOM     10  N   TRP D   3      12.341  -5.550  33.773  1.00 36.87 LIG-0.34  N 
ATOM     11 H    TRP D   3      11.777  -5.024  34.153  1.00 36.87 LIG 0.16  HD
BRANCH 10 12
ATOM     12  CA  TRP D   3      13.723  -4.961  33.690  1.00 37.56 LIG 0.19  C 
BRANCH 12 13
ATOM     13  C   TRP D   3      14.188  -3.672  34.466  1.00 38.92 LIG 0.20  C 
ATOM     14 OXT  TRP D   3      13.650  -3.310  35.565  1.00 41.38 LIG-0.65  OA
ATOM     15 O    TRP D   3      15.150  -2.961  33.894  1.00 40.06 LIG-0.65  OA
ENDBRANCH 12 13
BRANCH 12 16
ATOM     16  CB  TRP D   3      14.147  -4.820  32.181  1.00 36.55 LIG 0.08  C 
BRANCH 16 17
ATOM     17  CG  TRP D   3      15.411  -5.638  31.867  1.00 35.48 LIG-0.03  A 
ATOM     18  CD1 TRP D   3      15.725  -6.913  32.350  1.00 37.13 LIG 0.10  A 
ATOM     19  NE1 TRP D   3      16.952  -7.313  31.856  1.00 40.71 LIG-0.36  N 
ATOM     20 HE1  TRP D   3      17.337  -8.061  32.033  1.00 40.71 LIG 0.17  HD
ATOM     21  CE2 TRP D   3      17.468  -6.331  31.038  1.00 36.12 LIG 0.04  A 
ATOM     22  CD2 TRP D   3      16.514  -5.242  31.019  1.00 33.28 LIG-0.00  A 
ATOM     23  CZ2 TRP D   3      18.699  -6.304  30.333  1.00 34.49 LIG 0.03  A 
ATOM     24  CE3 TRP D   3      16.808  -4.070  30.275  1.00 31.46 LIG 0.01  A 
ATOM     25  CZ3 TRP D   3      18.014  -4.021  29.549  1.00 32.66 LIG 0.00  A 
ATOM     26  CH2 TRP D   3      18.968  -5.150  29.591  1.00 36.62 LIG 0.00  A 
ENDBRANCH 16 17
ENDBRANCH 12 16
ENDBRANCH 10 12
ENDBRANCH 4 8
BRANCH 1 27
ATOM     27  CA  TRP D   1      10.037  -5.869  37.441  1.00 34.78 LIG 0.28  C 
BRANCH 27 28
ATOM     28  CB  TRP D   1      10.991  -5.185  38.430  1.00 34.63 LIG 0.08  C 
BRANCH 28 29
ATOM     29  CG  TRP D   1      11.046  -5.928  39.798  1.00 37.87 LIG-0.03  A 
ATOM     30  CD1 TRP D   1      10.275  -5.671  40.931  1.00 40.68 LIG 0.10  A 
ATOM     31  NE1 TRP D   1      10.586  -6.578  41.925  1.00 42.18 LIG-0.36  N 
ATOM     32 HE1  TRP D   1      10.231  -6.602  42.707  1.00 42.18 LIG 0.17  HD
ATOM     33  CE2 TRP D   1      11.562  -7.445  41.456  1.00 41.11 LIG 0.04  A 
ATOM     34  CD2 TRP D   1      11.876  -7.063  40.130  1.00 38.74 LIG-0.00  A 
ATOM     35  CZ2 TRP D   1      12.197  -8.548  42.104  1.00 41.13 LIG 0.03  A 
ATOM     36  CE3 TRP D   1      12.829  -7.822  39.418  1.00 40.52 LIG 0.01  A 
ATOM     37  CZ3 TRP D   1      13.464  -8.913  40.065  1.00 41.02 LIG 0.00  A 
ATOM     38  CH2 TRP D   1      13.133  -9.263  41.392  1.00 39.74 LIG 0.00  A 
ENDBRANCH 28 29
ENDBRANCH 27 28
BRANCH 27 39
ATOM     39  N   TRP D   1       9.107  -6.772  38.213  1.00 33.45 LIG-0.07  N 
ATOM     40 H3   TRP D   1       9.273  -6.695  39.084  1.00 33.45 LIG 0.28  HD
ATOM     41 H2   TRP D   1       9.234  -7.616  37.960  1.00 33.45 LIG 0.28  HD
ATOM     42 H1   TRP D   1       8.264  -6.539  38.051  1.00 33.45 LIG 0.28  HD
ENDBRANCH 27 39
ENDBRANCH 1 27
TORSDOF 9
ENDMDL
MODEL 67
USER: ADFR SOLUTION from run 68
USER: SCORE 14.286108 LL:  -2.314 LR: -11.972 RR:   0.000 FEB:  -9.287
USER: RMSD 9.743013
USER: SEED 67
USER: STATUS no improvement in best 5 clusters for 5 generations
USER: GENES 11
USER: genes 0 Translation |==|  0.56748 0.72665 0.45165
USER: genes 1 Rotation |==|  0.30119 0.48029 0.12874 0.76880
USER: genes 2 Torsion [N]-CA--C-[O] |==|  0.07897
USER: genes 3 Torsion [C]-N--CA-[CB] |==|  0.75015
USER: genes 4 Torsion [N]-CA--C-[OXT] |==|  0.97991
USER: genes 5 Torsion [N]-CA--CB-[CG] |==|  0.91190
USER: genes 6 Torsion [CA]-CB--CG-[CD1] |==|  0.32069
USER: genes 7 Torsion [N]-C--CA-[N] |==|  0.53027
USER: genes 8 Torsion [C]-CA--CB-[CG] |==|  0.46189
USER: genes 9 Torsion [CA]-CB--CG-[CD1] |==|  0.42543
USER: genes 10 Torsion [C]-CA--N-[H2] |==|  0.70902
ROOT
ATOM      1  C   TRP D   1      14.924  -4.021  33.390  1.00 35.88 LIG 0.25  C 
ATOM      2 O    TRP D   1      15.175  -2.841  32.949  1.00 38.57 LIG-0.27  OA
ATOM      3  N   PRO D   2      15.642  -5.074  33.336  1.00 34.89 LIG-0.34  N 
ATOM      4  CA  PRO D   2      17.056  -5.149  32.843  1.00 35.03 LIG 0.18  C 
ATOM      5  CB  PRO D   2      17.351  -6.605  33.064  1.00 35.34 LIG 0.04  C 
ATOM      6  CG  PRO D   2      16.599  -6.866  34.372  1.00 35.42 LIG 0.02  C 
ATOM      7  CD  PRO D   2      15.449  -5.924  34.500  1.00 35.14 LIG 0.13  C 
ENDROOT
BRANCH 4 8
ATOM      8  C   PRO D   2      17.447  -4.668  31.451  1.00 35.70 LIG 0.24  C 
ATOM      9 O    PRO D   2      16.864  -3.786  30.838  1.00 34.88 LIG-0.27  OA
ATOM     10  N   TRP D   3      18.522  -5.374  31.042  1.00 36.87 LIG-0.34  N 
ATOM     11 H    TRP D   3      19.001  -5.836  31.587  1.00 36.87 LIG 0.16  HD
BRANCH 10 12
ATOM     12  CA  TRP D   3      19.018  -5.451  29.623  1.00 37.56 LIG 0.19  C 
BRANCH 12 13
ATOM     13  C   TRP D   3      19.078  -4.226  28.635  1.00 38.92 LIG 0.20  C 
ATOM     14 OXT  TRP D   3      18.578  -3.090  28.931  1.00 41.38 LIG-0.65  OA
ATOM     15 O    TRP D   3      19.649  -4.451  27.460  1.00 40.06 LIG-0.65  OA
ENDBRANCH 12 13
BRANCH 12 16
ATOM     16  CB  TRP D   3      18.325  -6.657  28.887  1.00 36.55 LIG 0.08  C 
BRANCH 16 17
ATOM     17  CG  TRP D   3      18.016  -7.812  29.855  1.00 35.48 LIG-0.03  A 
ATOM     18  CD1 TRP D   3      16.751  -8.290  30.211  1.00 37.13 LIG 0.10  A 
ATOM     19  NE1 TRP D   3      16.879  -9.328  31.115  1.00 40.71 LIG-0.36  N 
ATOM     20 HE1  TRP D   3      16.225  -9.760  31.468  1.00 40.71 LIG 0.17  HD
ATOM     21  CE2 TRP D   3      18.214  -9.566  31.365  1.00 36.12 LIG 0.04  A 
ATOM     22  CD2 TRP D   3      18.975  -8.616  30.580  1.00 33.28 LIG-0.00  A 
ATOM     23  CZ2 TRP D   3      18.809 -10.520  32.231  1.00 34.49 LIG 0.03  A 
ATOM     24  CE3 TRP D   3      20.390  -8.611  30.672  1.00 31.46 LIG 0.01  A 
ATOM     25  CZ3 TRP D   3      21.012  -9.559  31.508  1.00 32.66 LIG 0.00  A 
ATOM     26  CH2 TRP D   3      20.206 -10.515  32.299  1.00 36.62 LIG 0.00  A 
ENDBRANCH 16 17
ENDBRANCH 12 16
ENDBRANCH 10 12
ENDBRANCH 4 8
BRANCH 1 27
ATOM     27  CA  TRP D   1      13.488  -4.377  33.884  1.00 34.78 LIG 0.28  C 
BRANCH 27 28
ATOM     28  CB  TRP D   1      12.917  -5.595  33.146  1.00 34.63 LIG 0.08  C 
BRANCH 28 29
ATOM     29  CG  TRP D   1      11.651  -6.166  33.852  1.00 37.87 LIG-0.03  A 
ATOM     30  CD1 TRP D   1      10.603  -6.874  33.267  1.00 40.68 LIG 0.10  A 
ATOM     31  NE1 TRP D   1       9.692  -7.249  34.234  1.00 42.18 LIG-0.36  N 
ATOM     32 HE1  TRP D   1       8.969  -7.692  34.094  1.00 42.18 LIG 0.17  HD
ATOM     33  CE2 TRP D   1      10.132  -6.794  35.469  1.00 41.11 LIG 0.04  A 
ATOM     34  CD2 TRP D   1      11.352  -6.108  35.265  1.00 38.74 LIG-0.00  A 
ATOM     35  CZ2 TRP D   1       9.543  -6.938  36.762  1.00 41.13 LIG 0.03  A 
ATOM     36  CE3 TRP D   1      12.022  -5.577  36.387  1.00 40.52 LIG 0.01  A 
ATOM     37  CZ3 TRP D   1      11.433  -5.714  37.670  1.00 41.02 LIG 0.00  A 
ATOM     38  CH2 TRP D   1      10.210  -6.399  37.838  1.00 39.74 LIG 0.00  A 
ENDBRANCH 28 29
ENDBRANCH 27 28
BRANCH 27 39
ATOM     39  N   TRP D   1      12.537  -3.218  33.712  1.00 33.45 LIG-0.07  N 
ATOM     40 H3   TRP D   1      12.897  -2.617  33.163  1.00 33.45 LIG 0.28  HD
ATOM     41 H2   TRP D   1      12.381  -2.841  34.503  1.00 33.45 LIG 0.28  HD
ATOM     42 H1   TRP D   1      11.771  -3.511  33.367  1.00 33.45 LIG 0.28  HD
ENDBRANCH 27 39
ENDBRANCH 1 27
TORSDOF 9
ENDMDL
MODEL 68
USER: ADFR SOLUTION from run 38
USER: SCORE 14.589589 LL:  -2.627 LR: -11.962 RR:   0.000 FEB:  -9.278
USER: RMSD 11.197744
USER: SEED 37
USER: STATUS no improvement in best 10 clusters for 5 generations
USER: GENES 11
USER: genes 0 Translation |==|  0.41257 0.81450 0.64031
USER: genes 1 Rotation |==|  0.44523 0.74227 0.67837 0.89558
USER: genes 2 Torsion [N]-CA--C-[O] |==|  0.32245
USER: genes 3 Torsion [C]-N--CA-[CB] |==|  0.78393
USER: genes 4 Torsion [N]-CA--C-[OXT] |==|  0.55104
USER: genes 5 Torsion [N]-CA--CB-[CG] |==|  0.83866
USER: genes 6 Torsion [CA]-CB--CG-[CD1] |==|  0.87610
USER: genes 7 Torsion [N]-C--CA-[N] |==|  0.89506
USER: genes 8 Torsion [C]-CA--CB-[CG] |==|  0.57293
USER: genes 9 Torsion [CA]-CB--CG-[CD1] |==|  0.33876
USER: genes 10 Torsion [C]-CA--N-[H2] |==|  0.96573
ROOT
ATOM      1  C   TRP D   1      10.277  -1.385  39.049  1.00 35.88 LIG 0.25  C 
ATOM      2 O    TRP D   1      10.309  -1.816  40.258  1.00 38.57 LIG-0.27  OA
ATOM      3  N   PRO D   2       9.655  -0.384  38.563  1.00 34.89 LIG-0.34  N 
ATOM      4  CA  PRO D   2       8.891   0.641  39.348  1.00 35.03 LIG 0.18  C 
ATOM      5  CB  PRO D   2       8.438   1.555  38.245  1.00 35.34 LIG 0.04  C 
ATOM      6  CG  PRO D   2       9.653   1.525  37.315  1.00 35.42 LIG 0.02  C 
ATOM      7  CD  PRO D   2      10.388   0.236  37.471  1.00 35.14 LIG 0.13  C 
ENDROOT
BRANCH 4 8
ATOM      8  C   PRO D   2       7.763   0.249  40.295  1.00 35.70 LIG 0.24  C 
ATOM      9 O    PRO D   2       7.788   0.425  41.504  1.00 34.88 LIG-0.27  OA
ATOM     10  N   TRP D   3       6.768  -0.303  39.569  1.00 36.87 LIG-0.34  N 
ATOM     11 H    TRP D   3       6.725  -0.221  38.715  1.00 36.87 LIG 0.16  HD
BRANCH 10 12
ATOM     12  CA  TRP D   3       5.633  -1.114  40.135  1.00 37.56 LIG 0.19  C 
BRANCH 12 13
ATOM     13  C   TRP D   3       4.690  -0.631  41.299  1.00 38.92 LIG 0.20  C 
ATOM     14 OXT  TRP D   3       3.978  -1.445  41.978  1.00 41.38 LIG-0.65  OA
ATOM     15 O    TRP D   3       4.650   0.676  41.515  1.00 40.06 LIG-0.65  OA
ENDBRANCH 12 13
BRANCH 12 16
ATOM     16  CB  TRP D   3       6.137  -2.568  40.465  1.00 36.55 LIG 0.08  C 
BRANCH 16 17
ATOM     17  CG  TRP D   3       6.709  -3.267  39.220  1.00 35.48 LIG-0.03  A 
ATOM     18  CD1 TRP D   3       6.149  -3.285  37.938  1.00 37.13 LIG 0.10  A 
ATOM     19  NE1 TRP D   3       6.946  -4.028  37.088  1.00 40.71 LIG-0.36  N 
ATOM     20 HE1  TRP D   3       6.782  -4.173  36.257  1.00 40.71 LIG 0.17  HD
ATOM     21  CE2 TRP D   3       8.043  -4.504  37.775  1.00 36.12 LIG 0.04  A 
ATOM     22  CD2 TRP D   3       7.928  -4.041  39.142  1.00 33.28 LIG-0.00  A 
ATOM     23  CZ2 TRP D   3       9.108  -5.317  37.311  1.00 34.49 LIG 0.03  A 
ATOM     24  CE3 TRP D   3       8.914  -4.417  40.090  1.00 31.46 LIG 0.01  A 
ATOM     25  CZ3 TRP D   3       9.996  -5.208  39.656  1.00 32.66 LIG 0.00  A 
ATOM     26  CH2 TRP D   3      10.082  -5.666  38.252  1.00 36.62 LIG 0.00  A 
ENDBRANCH 16 17
ENDBRANCH 12 16
ENDBRANCH 10 12
ENDBRANCH 4 8
BRANCH 1 27
ATOM     27  CA  TRP D   1      10.873  -2.255  37.899  1.00 34.78 LIG 0.28  C 
BRANCH 27 28
ATOM     28  CB  TRP D   1      12.230  -1.719  37.424  1.00 34.63 LIG 0.08  C 
BRANCH 28 29
ATOM     29  CG  TRP D   1      12.525  -2.106  35.944  1.00 37.87 LIG-0.03  A 
ATOM     30  CD1 TRP D   1      12.785  -1.243  34.880  1.00 40.68 LIG 0.10  A 
ATOM     31  NE1 TRP D   1      13.046  -1.973  33.737  1.00 42.18 LIG-0.36  N 
ATOM     32 HE1  TRP D   1      13.229  -1.642  32.965  1.00 42.18 LIG 0.17  HD
ATOM     33  CE2 TRP D   1      12.963  -3.325  34.036  1.00 41.11 LIG 0.04  A 
ATOM     34  CD2 TRP D   1      12.633  -3.443  35.407  1.00 38.74 LIG-0.00  A 
ATOM     35  CZ2 TRP D   1      13.156  -4.463  33.196  1.00 41.13 LIG 0.03  A 
ATOM     36  CE3 TRP D   1      12.525  -4.734  35.965  1.00 40.52 LIG 0.01  A 
ATOM     37  CZ3 TRP D   1      12.710  -5.864  35.129  1.00 41.02 LIG 0.00  A 
ATOM     38  CH2 TRP D   1      13.031  -5.712  33.762  1.00 39.74 LIG 0.00  A 
ENDBRANCH 28 29
ENDBRANCH 27 28
BRANCH 27 39
ATOM     39  N   TRP D   1       9.939  -2.326  36.715  1.00 33.45 LIG-0.07  N 
ATOM     40 H3   TRP D   1      10.269  -1.838  36.047  1.00 33.45 LIG 0.28  HD
ATOM     41 H2   TRP D   1       9.140  -2.009  36.947  1.00 33.45 LIG 0.28  HD
ATOM     42 H1   TRP D   1       9.858  -3.171  36.451  1.00 33.45 LIG 0.28  HD
ENDBRANCH 27 39
ENDBRANCH 1 27
TORSDOF 9
ENDMDL
MODEL 69
USER: ADFR SOLUTION from run 139
USER: SCORE 13.810554 LL:  -1.863 LR: -11.947 RR:   0.000 FEB:  -9.262
USER: RMSD 8.171674
USER: SEED 138
USER: STATUS no improvement in best 14 clusters for 5 generations
USER: GENES 11
USER: genes 0 Translation |==|  0.43594 0.67995 0.57969
USER: genes 1 Rotation |==|  0.47839 0.09182 0.47345 0.78674
USER: genes 2 Torsion [N]-CA--C-[O] |==|  0.54527
USER: genes 3 Torsion [C]-N--CA-[CB] |==|  0.64451
USER: genes 4 Torsion [N]-CA--C-[OXT] |==|  0.37718
USER: genes 5 Torsion [N]-CA--CB-[CG] |==|  0.59142
USER: genes 6 Torsion [CA]-CB--CG-[CD1] |==|  0.57199
USER: genes 7 Torsion [N]-C--CA-[N] |==|  0.42055
USER: genes 8 Torsion [C]-CA--CB-[CG] |==|  0.43774
USER: genes 9 Torsion [CA]-CB--CG-[CD1] |==|  0.40431
USER: genes 10 Torsion [C]-CA--N-[H2] |==|  0.45409
ROOT
ATOM      1  C   TRP D   1      10.978  -5.421  37.231  1.00 35.88 LIG 0.25  C 
ATOM      2 O    TRP D   1      10.989  -5.500  35.949  1.00 38.57 LIG-0.27  OA
ATOM      3  N   PRO D   2      11.025  -4.390  37.979  1.00 34.89 LIG-0.34  N 
ATOM      4  CA  PRO D   2      10.969  -2.965  37.515  1.00 35.03 LIG 0.18  C 
ATOM      5  CB  PRO D   2      11.025  -2.241  38.830  1.00 35.34 LIG 0.04  C 
ATOM      6  CG  PRO D   2      10.192  -3.170  39.717  1.00 35.42 LIG 0.02  C 
ATOM      7  CD  PRO D   2      10.263  -4.570  39.204  1.00 35.14 LIG 0.13  C 
ENDROOT
BRANCH 4 8
ATOM      8  C   PRO D   2      11.956  -2.414  36.492  1.00 35.70 LIG 0.24  C 
ATOM      9 O    PRO D   2      12.145  -1.224  36.290  1.00 34.88 LIG-0.27  OA
ATOM     10  N   TRP D   3      12.560  -3.454  35.879  1.00 36.87 LIG-0.34  N 
ATOM     11 H    TRP D   3      12.531  -4.252  36.197  1.00 36.87 LIG 0.16  HD
BRANCH 10 12
ATOM     12  CA  TRP D   3      13.344  -3.365  34.597  1.00 37.56 LIG 0.19  C 
BRANCH 12 13
ATOM     13  C   TRP D   3      13.625  -2.027  33.818  1.00 38.92 LIG 0.20  C 
ATOM     14 OXT  TRP D   3      14.775  -1.748  33.340  1.00 41.38 LIG-0.65  OA
ATOM     15 O    TRP D   3      12.606  -1.186  33.715  1.00 40.06 LIG-0.65  OA
ENDBRANCH 12 13
BRANCH 12 16
ATOM     16  CB  TRP D   3      12.809  -4.438  33.578  1.00 36.55 LIG 0.08  C 
BRANCH 16 17
ATOM     17  CG  TRP D   3      13.934  -4.977  32.677  1.00 35.48 LIG-0.03  A 
ATOM     18  CD1 TRP D   3      13.793  -5.514  31.393  1.00 37.13 LIG 0.10  A 
ATOM     19  NE1 TRP D   3      15.028  -5.902  30.909  1.00 40.71 LIG-0.36  N 
ATOM     20 HE1  TRP D   3      15.168  -6.263  30.141  1.00 40.71 LIG 0.17  HD
ATOM     21  CE2 TRP D   3      16.004  -5.624  31.843  1.00 36.12 LIG 0.04  A 
ATOM     22  CD2 TRP D   3      15.345  -5.033  32.990  1.00 33.28 LIG-0.00  A 
ATOM     23  CZ2 TRP D   3      17.401  -5.863  31.781  1.00 34.49 LIG 0.03  A 
ATOM     24  CE3 TRP D   3      16.113  -4.677  34.128  1.00 31.46 LIG 0.01  A 
ATOM     25  CZ3 TRP D   3      17.505  -4.883  34.089  1.00 32.66 LIG 0.00  A 
ATOM     26  CH2 TRP D   3      18.148  -5.491  32.903  1.00 36.62 LIG 0.00  A 
ENDBRANCH 16 17
ENDBRANCH 12 16
ENDBRANCH 10 12
ENDBRANCH 4 8
BRANCH 1 27
ATOM     27  CA  TRP D   1      11.149  -6.713  38.090  1.00 34.78 LIG 0.28  C 
BRANCH 27 28
ATOM     28  CB  TRP D   1      12.627  -7.070  38.293  1.00 34.63 LIG 0.08  C 
BRANCH 28 29
ATOM     29  CG  TRP D   1      12.844  -7.966  39.550  1.00 37.87 LIG-0.03  A 
ATOM     30  CD1 TRP D   1      13.784  -8.983  39.712  1.00 40.68 LIG 0.10  A 
ATOM     31  NE1 TRP D   1      13.691  -9.508  40.985  1.00 42.18 LIG-0.36  N 
ATOM     32 HE1  TRP D   1      14.176 -10.146  41.298  1.00 42.18 LIG 0.17  HD
ATOM     33  CE2 TRP D   1      12.692  -8.841  41.677  1.00 41.11 LIG 0.04  A 
ATOM     34  CD2 TRP D   1      12.137  -7.874  40.806  1.00 38.74 LIG-0.00  A 
ATOM     35  CZ2 TRP D   1      12.229  -9.017  43.017  1.00 41.13 LIG 0.03  A 
ATOM     36  CE3 TRP D   1      11.113  -7.035  41.296  1.00 40.52 LIG 0.01  A 
ATOM     37  CZ3 TRP D   1      10.650  -7.215  42.624  1.00 41.02 LIG 0.00  A 
ATOM     38  CH2 TRP D   1      11.221  -8.195  43.465  1.00 39.74 LIG 0.00  A 
ENDBRANCH 28 29
ENDBRANCH 27 28
BRANCH 27 39
ATOM     39  N   TRP D   1      10.447  -7.893  37.465  1.00 33.45 LIG-0.07  N 
ATOM     40 H3   TRP D   1       9.571  -7.827  37.607  1.00 33.45 LIG 0.28  HD
ATOM     41 H2   TRP D   1      10.750  -8.647  37.829  1.00 33.45 LIG 0.28  HD
ATOM     42 H1   TRP D   1      10.605  -7.904  36.589  1.00 33.45 LIG 0.28  HD
ENDBRANCH 27 39
ENDBRANCH 1 27
TORSDOF 9
ENDMDL
