MODEL 1
USER: ADFR SOLUTION from run 14
USER: SCORE 8.147459 LL:  -1.403 LR:  -6.745 RR:   0.000 FEB:  -5.850
USER: RMSD 0.957493
USER: SEED 331527
USER: STATUS no improvement in best 12 clusters for 5 generations
USER: GENES 5
USER: genes 0 Translation |==|  0.46648 0.48797 0.51632
USER: genes 1 Rotation |==|  0.55002 0.51052 0.48270 0.99708
USER: genes 2 Torsion [N]-C--CA-[N] |==|  0.43594
USER: genes 3 Torsion [C]-CA--N-[H1] |==|  0.37638
USER: genes 4 Torsion [N]-CA--C-[O] |==|  0.45107
ROOT
ATOM      1  C   ALA A 201      18.585  11.609   4.450  1.00 26.07 LIG 0.25  C 
ATOM      2 O    ALA A 201      17.553  11.370   5.111  1.00 22.86 LIG-0.27  OA
ATOM      3  N   PRO A 202      19.271  12.757   4.602  1.00 25.00 LIG-0.34  N 
ATOM      4  CA  PRO A 202      20.503  13.092   3.881  1.00 23.99 LIG 0.19  C 
ATOM      5  CB  PRO A 202      20.545  14.591   4.017  1.00 24.00 LIG 0.04  C 
ATOM      6  CG  PRO A 202      19.991  14.824   5.393  1.00 23.51 LIG 0.02  C 
ATOM      7  CD  PRO A 202      18.840  13.845   5.460  1.00 22.64 LIG 0.13  C 
ENDROOT
BRANCH 1 8
ATOM      8  CA  ALA A 201      19.019  10.585   3.404  1.00 25.54 LIG 0.27  C 
ATOM      9  CB  ALA A 201      18.402  10.972   2.080  1.00 24.99 LIG 0.05  C 
BRANCH 8 10
ATOM     10  N   ALA A 201      18.465   9.347   3.886  1.00 26.99 LIG-0.07  N 
ATOM     11 H1   ALA A 201      18.090   8.907   3.210  1.00 26.99 LIG 0.28  HD
ATOM     12 H2   ALA A 201      19.113   8.850   4.241  1.00 26.99 LIG 0.28  HD
ATOM     13 H3   ALA A 201      17.849   9.518   4.506  1.00 26.99 LIG 0.28  HD
ENDBRANCH 8 10
ENDBRANCH 1 8
BRANCH 4 14
ATOM     14  C   PRO A 202      21.777  12.370   4.331  1.00 25.43 LIG 0.20  C 
ATOM     15 O    PRO A 202      22.756  12.345   3.593  1.00 26.00 LIG-0.65  OA
ATOM     16 OXT  PRO A 202      21.840  11.905   5.460  1.00 26.17 LIG-0.65  OA
ENDBRANCH 4 14
TORSDOF 3
ENDMDL
MODEL 2
USER: ADFR SOLUTION from run 121
USER: SCORE 8.168720 LL:  -1.466 LR:  -6.703 RR:   0.000 FEB:  -5.808
USER: RMSD 11.325075
USER: SEED 120
USER: STATUS no improvement in best 13 clusters for 5 generations
USER: GENES 5
USER: genes 0 Translation |==|  0.26324 0.23369 0.67778
USER: genes 1 Rotation |==|  0.25769 0.18033 0.55334 0.79369
USER: genes 2 Torsion [N]-C--CA-[N] |==|  0.38775
USER: genes 3 Torsion [C]-CA--N-[H1] |==|  0.10892
USER: genes 4 Torsion [N]-CA--C-[O] |==|  0.29018
ROOT
ATOM      1  C   ALA A 201      12.487   3.981   9.293  1.00 26.07 LIG 0.25  C 
ATOM      2 O    ALA A 201      11.669   3.397   8.553  1.00 22.86 LIG-0.27  OA
ATOM      3  N   PRO A 202      13.226   5.015   8.852  1.00 25.00 LIG-0.34  N 
ATOM      4  CA  PRO A 202      14.184   5.763   9.671  1.00 23.99 LIG 0.19  C 
ATOM      5  CB  PRO A 202      15.056   6.405   8.624  1.00 24.00 LIG 0.04  C 
ATOM      6  CG  PRO A 202      14.086   6.720   7.520  1.00 23.51 LIG 0.02  C 
ATOM      7  CD  PRO A 202      13.215   5.484   7.478  1.00 22.64 LIG 0.13  C 
ENDROOT
BRANCH 1 8
ATOM      8  CA  ALA A 201      12.680   3.446  10.710  1.00 25.54 LIG 0.27  C 
ATOM      9  CB  ALA A 201      13.489   2.173  10.627  1.00 24.99 LIG 0.05  C 
BRANCH 8 10
ATOM     10  N   ALA A 201      11.340   3.174  11.159  1.00 26.99 LIG-0.07  N 
ATOM     11 H1   ALA A 201      10.867   2.829  10.490  1.00 26.99 LIG 0.28  HD
ATOM     12 H2   ALA A 201      11.365   2.595  11.835  1.00 26.99 LIG 0.28  HD
ATOM     13 H3   ALA A 201      10.959   3.931  11.433  1.00 26.99 LIG 0.28  HD
ENDBRANCH 8 10
ENDBRANCH 1 8
BRANCH 4 14
ATOM     14  C   PRO A 202      13.594   6.735  10.698  1.00 25.43 LIG 0.20  C 
ATOM     15 O    PRO A 202      13.591   6.437  11.888  1.00 26.00 LIG-0.65  OA
ATOM     16 OXT  PRO A 202      13.215   7.840  10.335  1.00 26.17 LIG-0.65  OA
ENDBRANCH 4 14
TORSDOF 3
ENDMDL
MODEL 3
USER: ADFR SOLUTION from run 145
USER: SCORE 7.162284 LL:  -0.911 LR:  -6.251 RR:   0.000 FEB:  -5.356
USER: RMSD 10.814186
USER: SEED 144
USER: STATUS no improvement in best 14 clusters for 5 generations
USER: GENES 5
USER: genes 0 Translation |==|  0.34419 0.27757 0.63616
USER: genes 1 Rotation |==|  0.73437 0.55196 0.90128 0.67705
USER: genes 2 Torsion [N]-C--CA-[N] |==|  0.87584
USER: genes 3 Torsion [C]-CA--N-[H1] |==|  0.30822
USER: genes 4 Torsion [N]-CA--C-[O] |==|  0.34041
ROOT
ATOM      1  C   ALA A 201      14.916   5.297   8.045  1.00 26.07 LIG 0.25  C 
ATOM      2 O    ALA A 201      15.868   4.622   7.602  1.00 22.86 LIG-0.27  OA
ATOM      3  N   PRO A 202      14.116   4.833   9.023  1.00 25.00 LIG-0.34  N 
ATOM      4  CA  PRO A 202      12.999   5.580   9.609  1.00 23.99 LIG 0.19  C 
ATOM      5  CB  PRO A 202      12.176   4.478  10.224  1.00 24.00 LIG 0.04  C 
ATOM      6  CG  PRO A 202      13.216   3.510  10.713  1.00 23.51 LIG 0.02  C 
ATOM      7  CD  PRO A 202      14.219   3.498   9.582  1.00 22.64 LIG 0.13  C 
ENDROOT
BRANCH 1 8
ATOM      8  CA  ALA A 201      14.636   6.652   7.399  1.00 25.54 LIG 0.27  C 
ATOM      9  CB  ALA A 201      15.013   7.731   8.386  1.00 24.99 LIG 0.05  C 
BRANCH 8 10
ATOM     10  N   ALA A 201      13.215   6.636   7.172  1.00 26.99 LIG-0.07  N 
ATOM     11 H1   ALA A 201      12.822   7.222   7.714  1.00 26.99 LIG 0.28  HD
ATOM     12 H2   ALA A 201      13.047   6.856   6.326  1.00 26.99 LIG 0.28  HD
ATOM     13 H3   ALA A 201      12.897   5.821   7.335  1.00 26.99 LIG 0.28  HD
ENDBRANCH 8 10
ENDBRANCH 1 8
BRANCH 4 14
ATOM     14  C   PRO A 202      13.364   6.719  10.567  1.00 25.43 LIG 0.20  C 
ATOM     15 O    PRO A 202      12.975   7.858  10.335  1.00 26.00 LIG-0.65  OA
ATOM     16 OXT  PRO A 202      13.964   6.467  11.602  1.00 26.17 LIG-0.65  OA
ENDBRANCH 4 14
TORSDOF 3
ENDMDL
MODEL 4
USER: ADFR SOLUTION from run 127
USER: SCORE 7.460752 LL:  -1.620 LR:  -5.841 RR:   0.000 FEB:  -4.946
USER: RMSD 11.459374
USER: SEED 126
USER: STATUS no improvement in best 11 clusters for 5 generations
USER: GENES 5
USER: genes 0 Translation |==|  0.29308 0.32258 0.69072
USER: genes 1 Rotation |==|  0.76549 0.37383 0.10051 0.56323
USER: genes 2 Torsion [N]-C--CA-[N] |==|  0.28146
USER: genes 3 Torsion [C]-CA--N-[H1] |==|  0.96040
USER: genes 4 Torsion [N]-CA--C-[O] |==|  0.33857
ROOT
ATOM      1  C   ALA A 201      13.382   6.647   9.682  1.00 26.07 LIG 0.25  C 
ATOM      2 O    ALA A 201      13.215   7.466  10.609  1.00 22.86 LIG-0.27  OA
ATOM      3  N   PRO A 202      13.111   5.338   9.837  1.00 25.00 LIG-0.34  N 
ATOM      4  CA  PRO A 202      13.258   4.327   8.786  1.00 23.99 LIG 0.19  C 
ATOM      5  CB  PRO A 202      13.335   3.054   9.587  1.00 24.00 LIG 0.04  C 
ATOM      6  CG  PRO A 202      12.392   3.311  10.727  1.00 23.51 LIG 0.02  C 
ATOM      7  CD  PRO A 202      12.698   4.746  11.096  1.00 22.64 LIG 0.13  C 
ENDROOT
BRANCH 1 8
ATOM      8  CA  ALA A 201      13.970   7.162   8.370  1.00 25.54 LIG 0.27  C 
ATOM      9  CB  ALA A 201      14.998   8.220   8.697  1.00 24.99 LIG 0.05  C 
BRANCH 8 10
ATOM     10  N   ALA A 201      12.840   7.736   7.690  1.00 26.99 LIG-0.07  N 
ATOM     11 H1   ALA A 201      12.089   7.470   8.085  1.00 26.99 LIG 0.28  HD
ATOM     12 H2   ALA A 201      12.894   8.624   7.721  1.00 26.99 LIG 0.28  HD
ATOM     13 H3   ALA A 201      12.838   7.470   6.840  1.00 26.99 LIG 0.28  HD
ENDBRANCH 8 10
ENDBRANCH 1 8
BRANCH 4 14
ATOM     14  C   PRO A 202      12.194   4.328   7.683  1.00 25.43 LIG 0.20  C 
ATOM     15 O    PRO A 202      12.531   4.470   6.512  1.00 26.00 LIG-0.65  OA
ATOM     16 OXT  PRO A 202      11.028   4.095   7.969  1.00 26.17 LIG-0.65  OA
ENDBRANCH 4 14
TORSDOF 3
ENDMDL
MODEL 5
USER: ADFR SOLUTION from run 6
USER: SCORE 7.597266 LL:  -1.962 LR:  -5.635 RR:   0.000 FEB:  -4.741
USER: RMSD 3.285829
USER: SEED 773979
USER: STATUS no improvement in best 12 clusters for 5 generations
USER: GENES 5
USER: genes 0 Translation |==|  0.49895 0.57928 0.50128
USER: genes 1 Rotation |==|  0.18170 0.49604 0.37051 0.86318
USER: genes 2 Torsion [N]-C--CA-[N] |==|  0.26069
USER: genes 3 Torsion [C]-CA--N-[H1] |==|  0.38817
USER: genes 4 Torsion [N]-CA--C-[O] |==|  0.23564
ROOT
ATOM      1  C   ALA A 201      19.558  14.348   3.998  1.00 26.07 LIG 0.25  C 
ATOM      2 O    ALA A 201      18.795  15.333   3.930  1.00 22.86 LIG-0.27  OA
ATOM      3  N   PRO A 202      20.527  14.141   3.087  1.00 25.00 LIG-0.34  N 
ATOM      4  CA  PRO A 202      21.475  13.024   3.119  1.00 23.99 LIG 0.19  C 
ATOM      5  CB  PRO A 202      21.947  12.975   1.689  1.00 24.00 LIG 0.04  C 
ATOM      6  CG  PRO A 202      21.983  14.423   1.293  1.00 23.51 LIG 0.02  C 
ATOM      7  CD  PRO A 202      20.715  14.970   1.910  1.00 22.64 LIG 0.13  C 
ENDROOT
BRANCH 1 8
ATOM      8  CA  ALA A 201      19.325  13.336   5.117  1.00 25.54 LIG 0.27  C 
ATOM      9  CB  ALA A 201      17.853  13.344   5.460  1.00 24.99 LIG 0.05  C 
BRANCH 8 10
ATOM     10  N   ALA A 201      20.110  13.845   6.210  1.00 26.99 LIG-0.07  N 
ATOM     11 H1   ALA A 201      19.659  13.745   6.971  1.00 26.99 LIG 0.28  HD
ATOM     12 H2   ALA A 201      20.878  13.397   6.259  1.00 26.99 LIG 0.28  HD
ATOM     13 H3   ALA A 201      20.280  14.709   6.077  1.00 26.99 LIG 0.28  HD
ENDBRANCH 8 10
ENDBRANCH 1 8
BRANCH 4 14
ATOM     14  C   PRO A 202      22.595  13.106   4.161  1.00 25.43 LIG 0.20  C 
ATOM     15 O    PRO A 202      22.389  12.720   5.307  1.00 26.00 LIG-0.65  OA
ATOM     16 OXT  PRO A 202      23.711  13.470   3.821  1.00 26.17 LIG-0.65  OA
ENDBRANCH 4 14
TORSDOF 3
ENDMDL
MODEL 6
USER: ADFR SOLUTION from run 149
USER: SCORE 6.831629 LL:  -1.339 LR:  -5.493 RR:   0.000 FEB:  -4.598
USER: RMSD 10.743411
USER: SEED 148
USER: STATUS no improvement in best 17 clusters for 5 generations
USER: GENES 5
USER: genes 0 Translation |==|  0.27011 0.27329 0.71715
USER: genes 1 Rotation |==|  0.44992 0.69220 0.40560 0.94905
USER: genes 2 Torsion [N]-C--CA-[N] |==|  0.50729
USER: genes 3 Torsion [C]-CA--N-[H1] |==|  0.46275
USER: genes 4 Torsion [N]-CA--C-[O] |==|  0.08379
ROOT
ATOM      1  C   ALA A 201      12.693   5.169  10.475  1.00 26.07 LIG 0.25  C 
ATOM      2 O    ALA A 201      12.465   5.465  11.665  1.00 22.86 LIG-0.27  OA
ATOM      3  N   PRO A 202      13.349   6.008   9.651  1.00 25.00 LIG-0.34  N 
ATOM      4  CA  PRO A 202      13.675   5.716   8.252  1.00 23.99 LIG 0.19  C 
ATOM      5  CB  PRO A 202      13.908   7.095   7.692  1.00 24.00 LIG 0.04  C 
ATOM      6  CG  PRO A 202      14.559   7.821   8.835  1.00 23.51 LIG 0.02  C 
ATOM      7  CD  PRO A 202      13.763   7.347  10.030  1.00 22.64 LIG 0.13  C 
ENDROOT
BRANCH 1 8
ATOM      8  CA  ALA A 201      12.149   3.843   9.948  1.00 25.54 LIG 0.27  C 
ATOM      9  CB  ALA A 201      11.171   4.144   8.836  1.00 24.99 LIG 0.05  C 
BRANCH 8 10
ATOM     10  N   ALA A 201      11.475   3.274  11.085  1.00 26.99 LIG-0.07  N 
ATOM     11 H1   ALA A 201      10.965   2.595  10.819  1.00 26.99 LIG 0.28  HD
ATOM     12 H2   ALA A 201      12.077   2.980  11.671  1.00 26.99 LIG 0.28  HD
ATOM     13 H3   ALA A 201      10.965   3.894  11.470  1.00 26.99 LIG 0.28  HD
ENDBRANCH 8 10
ENDBRANCH 1 8
BRANCH 4 14
ATOM     14  C   PRO A 202      14.817   4.724   8.008  1.00 25.43 LIG 0.20  C 
ATOM     15 O    PRO A 202      15.034   3.833   8.822  1.00 26.00 LIG-0.65  OA
ATOM     16 OXT  PRO A 202      15.444   4.772   6.960  1.00 26.17 LIG-0.65  OA
ENDBRANCH 4 14
TORSDOF 3
ENDMDL
MODEL 7
USER: ADFR SOLUTION from run 130
USER: SCORE 6.550861 LL:  -1.142 LR:  -5.408 RR:   0.000 FEB:  -4.513
USER: RMSD 11.196798
USER: SEED 129
USER: STATUS no improvement in best 13 clusters for 5 generations
USER: GENES 5
USER: genes 0 Translation |==|  0.23963 0.47457 0.33750
USER: genes 1 Rotation |==|  0.56982 0.85499 0.23208 0.71755
USER: genes 2 Torsion [N]-C--CA-[N] |==|  0.52446
USER: genes 3 Torsion [C]-CA--N-[H1] |==|  0.14408
USER: genes 4 Torsion [N]-CA--C-[O] |==|  0.31249
ROOT
ATOM      1  C   ALA A 201      11.779  11.207  -0.915  1.00 26.07 LIG 0.25  C 
ATOM      2 O    ALA A 201      12.578  10.837  -0.030  1.00 22.86 LIG-0.27  OA
ATOM      3  N   PRO A 202      12.200  11.561  -2.144  1.00 25.00 LIG-0.34  N 
ATOM      4  CA  PRO A 202      11.318  11.979  -3.237  1.00 23.99 LIG 0.19  C 
ATOM      5  CB  PRO A 202      12.270  12.720  -4.139  1.00 24.00 LIG 0.04  C 
ATOM      6  CG  PRO A 202      13.545  11.936  -4.006  1.00 23.51 LIG 0.02  C 
ATOM      7  CD  PRO A 202      13.599  11.635  -2.525  1.00 22.64 LIG 0.13  C 
ENDROOT
BRANCH 1 8
ATOM      8  CA  ALA A 201      10.301  11.313  -0.547  1.00 25.54 LIG 0.27  C 
ATOM      9  CB  ALA A 201       9.840  12.720  -0.851  1.00 24.99 LIG 0.05  C 
BRANCH 8 10
ATOM     10  N   ALA A 201      10.281  11.061   0.869  1.00 26.99 LIG-0.07  N 
ATOM     11 H1   ALA A 201      10.867  11.595   1.274  1.00 26.99 LIG 0.28  HD
ATOM     12 H2   ALA A 201       9.465  11.220   1.188  1.00 26.99 LIG 0.28  HD
ATOM     13 H3   ALA A 201      10.499  10.212   1.023  1.00 26.99 LIG 0.28  HD
ENDBRANCH 8 10
ENDBRANCH 1 8
BRANCH 4 14
ATOM     14  C   PRO A 202      10.511  10.873  -3.927  1.00 25.43 LIG 0.20  C 
ATOM     15 O    PRO A 202       9.291  10.845  -3.807  1.00 26.00 LIG-0.65  OA
ATOM     16 OXT  PRO A 202      11.080  10.082  -4.665  1.00 26.17 LIG-0.65  OA
ENDBRANCH 4 14
TORSDOF 3
ENDMDL
MODEL 8
USER: ADFR SOLUTION from run 135
USER: SCORE 6.916116 LL:  -1.644 LR:  -5.272 RR:   0.000 FEB:  -4.378
USER: RMSD 4.200362
USER: SEED 134
USER: STATUS no improvement in best 14 clusters for 5 generations
USER: GENES 5
USER: genes 0 Translation |==|  0.45643 0.37874 0.60002
USER: genes 1 Rotation |==|  0.32843 0.51662 0.52383 0.96874
USER: genes 2 Torsion [N]-C--CA-[N] |==|  0.35685
USER: genes 3 Torsion [C]-CA--N-[H1] |==|  0.59729
USER: genes 4 Torsion [N]-CA--C-[O] |==|  0.63784
ROOT
ATOM      1  C   ALA A 201      18.283   8.332   6.961  1.00 26.07 LIG 0.25  C 
ATOM      2 O    ALA A 201      17.284   8.553   7.676  1.00 22.86 LIG-0.27  OA
ATOM      3  N   PRO A 202      18.745   9.249   6.090  1.00 25.00 LIG-0.34  N 
ATOM      4  CA  PRO A 202      19.925   9.069   5.240  1.00 23.99 LIG 0.19  C 
ATOM      5  CB  PRO A 202      19.692  10.094   4.161  1.00 24.00 LIG 0.04  C 
ATOM      6  CG  PRO A 202      19.048  11.229   4.905  1.00 23.51 LIG 0.02  C 
ATOM      7  CD  PRO A 202      18.090  10.519   5.835  1.00 22.64 LIG 0.13  C 
ENDROOT
BRANCH 1 8
ATOM      8  CA  ALA A 201      18.937   6.956   7.049  1.00 25.54 LIG 0.27  C 
ATOM      9  CB  ALA A 201      17.938   5.927   6.572  1.00 24.99 LIG 0.05  C 
BRANCH 8 10
ATOM     10  N   ALA A 201      19.209   6.795   8.453  1.00 26.99 LIG-0.07  N 
ATOM     11 H1   ALA A 201      19.970   6.345   8.558  1.00 26.99 LIG 0.28  HD
ATOM     12 H2   ALA A 201      19.283   7.596   8.835  1.00 26.99 LIG 0.28  HD
ATOM     13 H3   ALA A 201      18.543   6.345   8.835  1.00 26.99 LIG 0.28  HD
ENDBRANCH 8 10
ENDBRANCH 1 8
BRANCH 4 14
ATOM     14  C   PRO A 202      21.289   9.165   5.932  1.00 25.43 LIG 0.20  C 
ATOM     15 O    PRO A 202      22.162   9.884   5.459  1.00 26.00 LIG-0.65  OA
ATOM     16 OXT  PRO A 202      21.465   8.595   6.999  1.00 26.17 LIG-0.65  OA
ENDBRANCH 4 14
TORSDOF 3
ENDMDL
MODEL 9
USER: ADFR SOLUTION from run 137
USER: SCORE 6.538163 LL:  -1.347 LR:  -5.192 RR:   0.000 FEB:  -4.297
USER: RMSD 10.223735
USER: SEED 136
USER: STATUS no improvement in best 13 clusters for 5 generations
USER: GENES 5
USER: genes 0 Translation |==|  0.22104 0.47535 0.34542
USER: genes 1 Rotation |==|  0.66517 0.66479 0.22913 0.84956
USER: genes 2 Torsion [N]-C--CA-[N] |==|  0.48825
USER: genes 3 Torsion [C]-CA--N-[H1] |==|  0.93109
USER: genes 4 Torsion [N]-CA--C-[O] |==|  0.84637
ROOT
ATOM      1  C   ALA A 201      11.221  11.230  -0.677  1.00 26.07 LIG 0.25  C 
ATOM      2 O    ALA A 201      10.911  11.220   0.531  1.00 22.86 LIG-0.27  OA
ATOM      3  N   PRO A 202      12.505  11.186  -1.077  1.00 25.00 LIG-0.34  N 
ATOM      4  CA  PRO A 202      12.942  11.167  -2.477  1.00 23.99 LIG 0.19  C 
ATOM      5  CB  PRO A 202      14.371  11.628  -2.364  1.00 24.00 LIG 0.04  C 
ATOM      6  CG  PRO A 202      14.827  11.010  -1.072  1.00 23.51 LIG 0.02  C 
ATOM      7  CD  PRO A 202      13.634  11.215  -0.165  1.00 22.64 LIG 0.13  C 
ENDROOT
BRANCH 1 8
ATOM      8  CA  ALA A 201      10.099  11.362  -1.704  1.00 25.54 LIG 0.27  C 
ATOM      9  CB  ALA A 201      10.215  12.720  -2.357  1.00 24.99 LIG 0.05  C 
BRANCH 8 10
ATOM     10  N   ALA A 201       8.899  11.272  -0.915  1.00 26.99 LIG-0.07  N 
ATOM     11 H1   ALA A 201       9.070  10.825  -0.165  1.00 26.99 LIG 0.28  HD
ATOM     12 H2   ALA A 201       8.614  12.091  -0.714  1.00 26.99 LIG 0.28  HD
ATOM     13 H3   ALA A 201       8.270  10.845  -1.378  1.00 26.99 LIG 0.28  HD
ENDBRANCH 8 10
ENDBRANCH 1 8
BRANCH 4 14
ATOM     14  C   PRO A 202      12.750   9.851  -3.236  1.00 25.43 LIG 0.20  C 
ATOM     15 O    PRO A 202      13.231   8.815  -2.790  1.00 26.00 LIG-0.65  OA
ATOM     16 OXT  PRO A 202      12.042   9.827  -4.233  1.00 26.17 LIG-0.65  OA
ENDBRANCH 4 14
TORSDOF 3
ENDMDL
MODEL 10
USER: ADFR SOLUTION from run 62
USER: SCORE 7.141176 LL:  -2.086 LR:  -5.055 RR:   0.000 FEB:  -4.160
USER: RMSD 3.594247
USER: SEED 61
USER: STATUS no improvement in best 14 clusters for 5 generations
USER: GENES 5
USER: genes 0 Translation |==|  0.52500 0.57116 0.43596
USER: genes 1 Rotation |==|  0.84105 0.33483 0.53861 0.82391
USER: genes 2 Torsion [N]-C--CA-[N] |==|  0.24935
USER: genes 3 Torsion [C]-CA--N-[H1] |==|  0.44049
USER: genes 4 Torsion [N]-CA--C-[O] |==|  0.72123
ROOT
ATOM      1  C   ALA A 201      20.340  14.105   2.039  1.00 26.07 LIG 0.25  C 
ATOM      2 O    ALA A 201      19.421  13.845   1.235  1.00 22.86 LIG-0.27  OA
ATOM      3  N   PRO A 202      20.161  14.016   3.370  1.00 25.00 LIG-0.34  N 
ATOM      4  CA  PRO A 202      21.200  14.279   4.369  1.00 23.99 LIG 0.19  C 
ATOM      5  CB  PRO A 202      20.383  14.542   5.607  1.00 24.00 LIG 0.04  C 
ATOM      6  CG  PRO A 202      19.228  13.592   5.460  1.00 23.51 LIG 0.02  C 
ATOM      7  CD  PRO A 202      18.886  13.708   3.991  1.00 22.64 LIG 0.13  C 
ENDROOT
BRANCH 1 8
ATOM      8  CA  ALA A 201      21.670  14.595   1.472  1.00 25.54 LIG 0.27  C 
ATOM      9  CB  ALA A 201      21.404  15.231   0.128  1.00 24.99 LIG 0.05  C 
BRANCH 8 10
ATOM     10  N   ALA A 201      22.445  13.391   1.326  1.00 26.99 LIG-0.07  N 
ATOM     11 H1   ALA A 201      23.094  13.526   0.733  1.00 26.99 LIG 0.28  HD
ATOM     12 H2   ALA A 201      22.802  13.171   2.112  1.00 26.99 LIG 0.28  HD
ATOM     13 H3   ALA A 201      21.918  12.731   1.045  1.00 26.99 LIG 0.28  HD
ENDBRANCH 8 10
ENDBRANCH 1 8
BRANCH 4 14
ATOM     14  C   PRO A 202      22.282  13.206   4.531  1.00 25.43 LIG 0.20  C 
ATOM     15 O    PRO A 202      22.215  12.409   5.460  1.00 26.00 LIG-0.65  OA
ATOM     16 OXT  PRO A 202      23.153  13.095   3.680  1.00 26.17 LIG-0.65  OA
ENDBRANCH 4 14
TORSDOF 3
ENDMDL
MODEL 11
USER: ADFR SOLUTION from run 61
USER: SCORE 6.471390 LL:  -1.485 LR:  -4.986 RR:   0.000 FEB:  -4.092
USER: RMSD 10.649565
USER: SEED 60
USER: STATUS no improvement in best 13 clusters for 5 generations
USER: GENES 5
USER: genes 0 Translation |==|  0.29945 0.31630 0.70768
USER: genes 1 Rotation |==|  0.16786 0.66593 0.39402 0.81768
USER: genes 2 Torsion [N]-C--CA-[N] |==|  0.44420
USER: genes 3 Torsion [C]-CA--N-[H1] |==|  0.40603
USER: genes 4 Torsion [N]-CA--C-[O] |==|  0.73391
ROOT
ATOM      1  C   ALA A 201      13.574   6.459  10.190  1.00 26.07 LIG 0.25  C 
ATOM      2 O    ALA A 201      13.347   7.660  10.444  1.00 22.86 LIG-0.27  OA
ATOM      3  N   PRO A 202      13.743   6.024   8.928  1.00 25.00 LIG-0.34  N 
ATOM      4  CA  PRO A 202      14.039   4.637   8.558  1.00 23.99 LIG 0.19  C 
ATOM      5  CB  PRO A 202      13.623   4.605   7.111  1.00 24.00 LIG 0.04  C 
ATOM      6  CG  PRO A 202      14.008   5.970   6.616  1.00 23.51 LIG 0.02  C 
ATOM      7  CD  PRO A 202      13.590   6.869   7.758  1.00 22.64 LIG 0.13  C 
ENDROOT
BRANCH 1 8
ATOM      8  CA  ALA A 201      13.590   5.471  11.354  1.00 25.54 LIG 0.27  C 
ATOM      9  CB  ALA A 201      12.219   4.845  11.460  1.00 24.99 LIG 0.05  C 
BRANCH 8 10
ATOM     10  N   ALA A 201      13.868   6.296  12.500  1.00 26.99 LIG-0.07  N 
ATOM     11 H1   ALA A 201      13.442   5.970  13.210  1.00 26.99 LIG 0.28  HD
ATOM     12 H2   ALA A 201      14.745   6.301  12.656  1.00 26.99 LIG 0.28  HD
ATOM     13 H3   ALA A 201      13.590   7.127  12.343  1.00 26.99 LIG 0.28  HD
ENDBRANCH 8 10
ENDBRANCH 1 8
BRANCH 4 14
ATOM     14  C   PRO A 202      15.465   4.146   8.827  1.00 25.43 LIG 0.20  C 
ATOM     15 O    PRO A 202      16.298   4.174   7.928  1.00 26.00 LIG-0.65  OA
ATOM     16 OXT  PRO A 202      15.786   3.815   9.960  1.00 26.17 LIG-0.65  OA
ENDBRANCH 4 14
TORSDOF 3
ENDMDL
MODEL 12
USER: ADFR SOLUTION from run 19
USER: SCORE 7.047454 LL:  -2.058 LR:  -4.989 RR:   0.000 FEB:  -4.094
USER: RMSD 15.617206
USER: SEED 18
USER: STATUS no improvement in best 15 clusters for 5 generations
USER: GENES 5
USER: genes 0 Translation |==|  0.75476 0.36393 0.92540
USER: genes 1 Rotation |==|  0.96189 0.60283 0.33852 0.50235
USER: genes 2 Torsion [N]-C--CA-[N] |==|  0.25881
USER: genes 3 Torsion [C]-CA--N-[H1] |==|  0.77896
USER: genes 4 Torsion [N]-CA--C-[O] |==|  0.07043
ROOT
ATOM      1  C   ALA A 201      27.233   7.888  16.722  1.00 26.07 LIG 0.25  C 
ATOM      2 O    ALA A 201      26.034   7.564  16.848  1.00 22.86 LIG-0.27  OA
ATOM      3  N   PRO A 202      28.153   7.023  16.257  1.00 25.00 LIG-0.34  N 
ATOM      4  CA  PRO A 202      29.570   7.342  16.058  1.00 23.99 LIG 0.19  C 
ATOM      5  CB  PRO A 202      30.198   5.973  16.040  1.00 24.00 LIG 0.04  C 
ATOM      6  CG  PRO A 202      29.163   5.132  15.348  1.00 23.51 LIG 0.02  C 
ATOM      7  CD  PRO A 202      27.869   5.632  15.952  1.00 22.64 LIG 0.13  C 
ENDROOT
BRANCH 1 8
ATOM      8  CA  ALA A 201      27.649   9.285  17.174  1.00 25.54 LIG 0.27  C 
ATOM      9  CB  ALA A 201      26.715   9.720  18.280  1.00 24.99 LIG 0.05  C 
BRANCH 8 10
ATOM     10  N   ALA A 201      27.465  10.095  15.999  1.00 26.99 LIG-0.07  N 
ATOM     11 H1   ALA A 201      28.156   9.983  15.450  1.00 26.99 LIG 0.28  HD
ATOM     12 H2   ALA A 201      26.715   9.852  15.585  1.00 26.99 LIG 0.28  HD
ATOM     13 H3   ALA A 201      27.409  10.952  16.234  1.00 26.99 LIG 0.28  HD
ENDBRANCH 8 10
ENDBRANCH 1 8
BRANCH 4 14
ATOM     14  C   PRO A 202      29.910   8.220  14.849  1.00 25.43 LIG 0.20  C 
ATOM     15 O    PRO A 202      29.065   8.983  14.393  1.00 26.00 LIG-0.65  OA
ATOM     16 OXT  PRO A 202      31.050   8.220  14.405  1.00 26.17 LIG-0.65  OA
ENDBRANCH 4 14
TORSDOF 3
ENDMDL
MODEL 13
USER: ADFR SOLUTION from run 127
USER: SCORE 7.028771 LL:  -2.056 LR:  -4.973 RR:   0.000 FEB:  -4.078
USER: RMSD 10.139451
USER: SEED 126
USER: STATUS no improvement in best 11 clusters for 5 generations
USER: GENES 5
USER: genes 0 Translation |==|  0.34997 0.25661 0.63434
USER: genes 1 Rotation |==|  0.54529 0.11865 0.61766 0.79778
USER: genes 2 Torsion [N]-C--CA-[N] |==|  0.22497
USER: genes 3 Torsion [C]-CA--N-[H1] |==|  0.55801
USER: genes 4 Torsion [N]-CA--C-[O] |==|  0.53929
ROOT
ATOM      1  C   ALA A 201      15.089   4.668   7.990  1.00 26.07 LIG 0.25  C 
ATOM      2 O    ALA A 201      14.879   4.057   6.922  1.00 22.86 LIG-0.27  OA
ATOM      3  N   PRO A 202      14.470   5.830   8.272  1.00 25.00 LIG-0.34  N 
ATOM      4  CA  PRO A 202      14.647   6.587   9.515  1.00 23.99 LIG 0.19  C 
ATOM      5  CB  PRO A 202      14.181   7.962   9.111  1.00 24.00 LIG 0.04  C 
ATOM      6  CG  PRO A 202      13.053   7.674   8.161  1.00 23.51 LIG 0.02  C 
ATOM      7  CD  PRO A 202      13.590   6.519   7.346  1.00 22.64 LIG 0.13  C 
ENDROOT
BRANCH 1 8
ATOM      8  CA  ALA A 201      16.126   4.095   8.953  1.00 25.54 LIG 0.27  C 
ATOM      9  CB  ALA A 201      16.965   3.091   8.198  1.00 24.99 LIG 0.05  C 
BRANCH 8 10
ATOM     10  N   ALA A 201      15.333   3.446   9.963  1.00 26.99 LIG-0.07  N 
ATOM     11 H1   ALA A 201      15.817   3.349  10.704  1.00 26.99 LIG 0.28  HD
ATOM     12 H2   ALA A 201      14.614   3.941  10.141  1.00 26.99 LIG 0.28  HD
ATOM     13 H3   ALA A 201      15.076   2.645   9.671  1.00 26.99 LIG 0.28  HD
ENDBRANCH 8 10
ENDBRANCH 1 8
BRANCH 4 14
ATOM     14  C   PRO A 202      13.965   6.021  10.764  1.00 25.43 LIG 0.20  C 
ATOM     15 O    PRO A 202      13.849   6.720  11.765  1.00 26.00 LIG-0.65  OA
ATOM     16 OXT  PRO A 202      13.461   4.907  10.724  1.00 26.17 LIG-0.65  OA
ENDBRANCH 4 14
TORSDOF 3
ENDMDL
MODEL 14
USER: ADFR SOLUTION from run 88
USER: SCORE 6.663612 LL:  -1.896 LR:  -4.768 RR:   0.000 FEB:  -3.873
USER: RMSD 3.849651
USER: SEED 87
USER: STATUS no improvement in best 16 clusters for 5 generations
USER: GENES 5
USER: genes 0 Translation |==|  0.50426 0.55205 0.50491
USER: genes 1 Rotation |==|  0.07301 0.66893 0.31241 0.56283
USER: genes 2 Torsion [N]-C--CA-[N] |==|  0.21263
USER: genes 3 Torsion [C]-CA--N-[H1] |==|  0.83303
USER: genes 4 Torsion [N]-CA--C-[O] |==|  0.53808
ROOT
ATOM      1  C   ALA A 201      19.718  13.531   4.107  1.00 26.07 LIG 0.25  C 
ATOM      2 O    ALA A 201      19.770  14.339   3.157  1.00 22.86 LIG-0.27  OA
ATOM      3  N   PRO A 202      19.392  12.239   3.919  1.00 25.00 LIG-0.34  N 
ATOM      4  CA  PRO A 202      19.338  11.231   4.982  1.00 23.99 LIG 0.19  C 
ATOM      5  CB  PRO A 202      18.465  10.171   4.361  1.00 24.00 LIG 0.04  C 
ATOM      6  CG  PRO A 202      18.863  10.208   2.913  1.00 23.51 LIG 0.02  C 
ATOM      7  CD  PRO A 202      18.986  11.690   2.638  1.00 22.64 LIG 0.13  C 
ENDROOT
BRANCH 1 8
ATOM      8  CA  ALA A 201      19.973  14.064   5.515  1.00 25.54 LIG 0.27  C 
ATOM      9  CB  ALA A 201      19.960  15.574   5.457  1.00 24.99 LIG 0.05  C 
BRANCH 8 10
ATOM     10  N   ALA A 201      21.287  13.573   5.835  1.00 26.99 LIG-0.07  N 
ATOM     11 H1   ALA A 201      21.287  12.684   5.808  1.00 26.99 LIG 0.28  HD
ATOM     12 H2   ALA A 201      21.874  13.888   5.244  1.00 26.99 LIG 0.28  HD
ATOM     13 H3   ALA A 201      21.515  13.845   6.652  1.00 26.99 LIG 0.28  HD
ENDBRANCH 8 10
ENDBRANCH 1 8
BRANCH 4 14
ATOM     14  C   PRO A 202      20.682  10.724   5.514  1.00 25.43 LIG 0.20  C 
ATOM     15 O    PRO A 202      20.720   9.715   6.210  1.00 26.00 LIG-0.65  OA
ATOM     16 OXT  PRO A 202      21.716  11.276   5.165  1.00 26.17 LIG-0.65  OA
ENDBRANCH 4 14
TORSDOF 3
ENDMDL
