MODEL 1
USER: ADFR SOLUTION from run 76
USER: SCORE 21.120718 LL:  -2.446 LR: -20.844 RR:   0.000 FEB: -13.685
USER: RMSD 6.308409
USER: SEED 75
USER: STATUS searching
USER: GENES 26
USER: genes 0 Translation |==|  0.39017 0.45167 0.39013
USER: genes 1 Rotation |==|  0.86176 0.74559 0.70596 0.62804
USER: genes 2 Torsion [C]-CA--CB-[CG] |==|  0.58270
USER: genes 3 Torsion [CA]-CB--CG-[CD] |==|  0.74493
USER: genes 4 Torsion [CB]-CG--CD-[CE] |==|  0.62944
USER: genes 5 Torsion [CG]-CD--CE-[NZ] |==|  0.39765
USER: genes 6 Torsion [CD]-CE--NZ-[HZ3] |==|  0.13810
USER: genes 7 Torsion [N]-CA--C-[N] |==|  0.35983
USER: genes 8 Torsion [C]-N--CA-[CB] |==|  0.42475
USER: genes 9 Torsion [N]-CA--CB-[CG2] |==|  0.25051
USER: genes 10 Torsion [CA]-CB--OG1-[HG1] |==|  0.89735
USER: genes 11 Torsion [N]-CA--C-[N] |==|  0.43544
USER: genes 12 Torsion [C]-N--CA-[CB] |==|  0.43019
USER: genes 13 Torsion [N]-CA--C-[O] |==|  0.18136
USER: genes 14 Torsion [N]-CA--CB-[CG] |==|  0.74758
USER: genes 15 Torsion [CA]-CB--CG-[CD] |==|  0.20451
USER: genes 16 Torsion [CB]-CG--CD-[CE] |==|  0.29914
USER: genes 17 Torsion [CG]-CD--CE-[NZ] |==|  0.94568
USER: genes 18 Torsion [CD]-CE--NZ-[HZ1] |==|  0.54101
USER: genes 19 Torsion [CB]-CA--N-[C] |==|  0.53889
USER: genes 20 Torsion [N]-C--CA-[N] |==|  0.00654
USER: genes 21 Torsion [C]-CA--N-[C] |==|  0.21891
USER: genes 22 Torsion [N]-C--CA-[N] |==|  0.52693
USER: genes 23 Torsion [C]-CA--N-[H2] |==|  0.30399
USER: genes 24 Torsion [C]-CA--CB-[OG] |==|  0.18916
USER: genes 25 Torsion [CA]-CB--OG-[HG] |==|  0.71741
ROOT
ATOM      1  CA  LYS D   3     -25.385  19.550  16.074  1.00 12.74 LIG 0.18  C 
ENDROOT
BRANCH 1 2
ATOM      2  CB  LYS D   3     -24.654  19.917  14.790  1.00 13.63 LIG 0.04  C 
BRANCH 2 3
ATOM      3  CG  LYS D   3     -25.414  19.576  13.518  1.00 18.86 LIG 0.00  C 
BRANCH 3 4
ATOM      4  CD  LYS D   3     -25.020  18.193  13.052  1.00 22.56 LIG 0.03  C 
BRANCH 4 5
ATOM      5  CE  LYS D   3     -24.726  18.197  11.562  1.00 24.97 LIG 0.23  C 
BRANCH 5 6
ATOM      6  NZ  LYS D   3     -23.599  17.289  11.237  1.00 28.16 LIG-0.08  N 
ATOM      7 HZ3  LYS D   3     -23.739  16.495  11.614  1.00 28.16 LIG 0.27  HD
ATOM      8 HZ2  LYS D   3     -22.840  17.635  11.548  1.00 28.16 LIG 0.27  HD
ATOM      9 HZ1  LYS D   3     -23.540  17.193  10.354  1.00 28.16 LIG 0.27  HD
ENDBRANCH 5 6
ENDBRANCH 4 5
ENDBRANCH 3 4
ENDBRANCH 2 3
ENDBRANCH 1 2
BRANCH 1 10
ATOM     10  C   LYS D   3     -24.991  20.505  17.190  1.00 12.20 LIG 0.24  C 
ATOM     11 O    LYS D   3     -25.365  21.672  17.181  1.00 13.71 LIG-0.27  OA
ATOM     12  N   THR D   4     -24.219  20.005  18.144  1.00 12.61 LIG-0.34  N 
ATOM     13 H    THR D   4     -23.920  19.198  18.144  1.00 12.61 LIG 0.16  HD
BRANCH 12 14
ATOM     14  CA  THR D   4     -23.805  20.798  19.291  1.00 12.32 LIG 0.20  C 
BRANCH 14 15
ATOM     15  CB  THR D   4     -23.536  19.880  20.492  1.00 14.29 LIG 0.15  C 
ATOM     16  CG2 THR D   4     -22.091  19.439  20.512  1.00 19.77 LIG 0.04  C 
BRANCH 15 17
ATOM     17 OG1  THR D   4     -23.826  20.592  21.702  1.00 20.60 LIG-0.39  OA
ATOM     18 HG1  THR D   4     -23.595  21.395  21.617  1.00 20.60 LIG 0.21  HD
ENDBRANCH 15 17
ENDBRANCH 14 15
BRANCH 14 19
ATOM     19  C   THR D   4     -22.566  21.659  19.080  1.00 10.70 LIG 0.24  C 
ATOM     20  N   LYS D   5     -22.454  22.709  19.888  1.00 11.43 LIG-0.34  N 
ATOM     21 H    LYS D   5     -23.047  22.920  20.474  1.00 11.43 LIG 0.16  HD
ATOM     22 O    THR D   4     -21.734  21.375  18.220  1.00 10.42 LIG-0.27  OA
BRANCH 20 23
ATOM     23  CA  LYS D   5     -21.305  23.608  19.857  1.00 11.71 LIG 0.18  C 
BRANCH 23 24
ATOM     24  C   LYS D   5     -20.192  23.008  20.713  1.00 11.58 LIG 0.20  C 
ATOM     25 OXT  LYS D   5     -19.840  23.625  21.744  1.00 10.04 LIG-0.65  OA
ATOM     26 O    LYS D   5     -19.676  21.935  20.340  1.00 12.40 LIG-0.65  OA
ENDBRANCH 23 24
BRANCH 23 27
ATOM     27  CB  LYS D   5     -21.676  24.997  20.387  1.00 15.42 LIG 0.04  C 
BRANCH 27 28
ATOM     28  CG  LYS D   5     -22.152  25.962  19.315  1.00 18.22 LIG 0.00  C 
BRANCH 28 29
ATOM     29  CD  LYS D   5     -23.554  25.634  18.825  1.00 24.34 LIG 0.03  C 
BRANCH 29 30
ATOM     30  CE  LYS D   5     -24.587  26.628  19.310  1.00 24.78 LIG 0.23  C 
BRANCH 30 31
ATOM     31  NZ  LYS D   5     -24.073  27.374  20.492  1.00 27.37 LIG-0.08  N 
ATOM     32 HZ1  LYS D   5     -24.748  27.792  20.896  1.00 27.37 LIG 0.27  HD
ATOM     33 HZ2  LYS D   5     -23.694  26.804  21.061  1.00 27.37 LIG 0.27  HD
ATOM     34 HZ3  LYS D   5     -23.470  27.973  20.226  1.00 27.37 LIG 0.27  HD
ENDBRANCH 30 31
ENDBRANCH 29 30
ENDBRANCH 28 29
ENDBRANCH 27 28
ENDBRANCH 23 27
ENDBRANCH 20 23
ENDBRANCH 14 19
ENDBRANCH 12 14
ENDBRANCH 1 10
BRANCH 1 35
ATOM     35  N   LYS D   3     -26.826  19.585  15.866  1.00 13.26 LIG-0.35  N 
ATOM     36  C   SER D   2     -27.671  19.573  16.892  1.00 15.91 LIG 0.24  C 
ATOM     37 O    SER D   2     -27.296  19.531  18.063  1.00 16.67 LIG-0.27  OA
ATOM     38 H    LYS D   3     -27.068  19.614  15.041  1.00 13.26 LIG 0.16  HD
BRANCH 36 39
ATOM     39  CA  SER D   2     -29.158  19.613  16.550  1.00 18.03 LIG 0.20  C 
BRANCH 39 40
ATOM     40  N   SER D   2     -29.339  19.601  15.102  1.00 20.90 LIG-0.34  N 
ATOM     41  C   ALA D   1     -29.242  18.482  14.393  0.60 22.25 LIG 0.25  C 
ATOM     42 O    ALA D   1     -28.984  17.388  14.896  0.60 23.13 LIG-0.27  OA
ATOM     43 H    SER D   2     -29.511  20.371  14.760  1.00 20.90 LIG 0.16  HD
BRANCH 41 44
ATOM     44  CA  ALA D   1     -29.463  18.615  12.890  0.60 22.82 LIG 0.27  C 
ATOM     45  CB  ALA D   1     -30.734  19.410  12.620  0.60 23.19 LIG 0.05  C 
BRANCH 44 46
ATOM     46  N   ALA D   1     -29.559  17.275  12.245  0.60 23.87 LIG-0.07  N 
ATOM     47 H2   ALA D   1     -30.397  17.131  11.984  0.60 23.87 LIG 0.28  HD
ATOM     48 H1   ALA D   1     -29.318  16.648  12.828  0.60 23.87 LIG 0.28  HD
ATOM     49 H3   ALA D   1     -29.019  17.246  11.538  0.60 23.87 LIG 0.28  HD
ENDBRANCH 44 46
ENDBRANCH 41 44
ENDBRANCH 39 40
BRANCH 39 50
ATOM     50  CB  SER D   2     -29.861  18.405  17.174  1.00 19.56 LIG 0.20  C 
BRANCH 50 51
ATOM     51 OG   SER D   2     -29.881  18.504  18.588  1.00 25.44 LIG-0.40  OA
ATOM     52 HG   SER D   2     -29.286  18.008  18.913  1.00 25.44 LIG 0.21  HD
ENDBRANCH 50 51
ENDBRANCH 39 50
ENDBRANCH 36 39
ENDBRANCH 1 35
TORSDOF 24
ENDMDL
MODEL 2
USER: ADFR SOLUTION from run 50
USER: SCORE 20.606952 LL:  -2.576 LR: -19.934 RR:   0.000 FEB: -12.775
USER: RMSD 4.524940
USER: SEED 49
USER: STATUS 1 or 2 clusters left
USER: GENES 26
USER: genes 0 Translation |==|  0.51792 0.59410 0.49871
USER: genes 1 Rotation |==|  0.18522 0.28905 0.27775 0.73880
USER: genes 2 Torsion [C]-CA--CB-[CG] |==|  0.65947
USER: genes 3 Torsion [CA]-CB--CG-[CD] |==|  0.41461
USER: genes 4 Torsion [CB]-CG--CD-[CE] |==|  0.34769
USER: genes 5 Torsion [CG]-CD--CE-[NZ] |==|  0.40467
USER: genes 6 Torsion [CD]-CE--NZ-[HZ3] |==|  0.35870
USER: genes 7 Torsion [N]-CA--C-[N] |==|  0.55273
USER: genes 8 Torsion [C]-N--CA-[CB] |==|  0.83667
USER: genes 9 Torsion [N]-CA--CB-[CG2] |==|  0.38567
USER: genes 10 Torsion [CA]-CB--OG1-[HG1] |==|  0.80160
USER: genes 11 Torsion [N]-CA--C-[N] |==|  0.42196
USER: genes 12 Torsion [C]-N--CA-[CB] |==|  0.89391
USER: genes 13 Torsion [N]-CA--C-[O] |==|  0.83501
USER: genes 14 Torsion [N]-CA--CB-[CG] |==|  0.44497
USER: genes 15 Torsion [CA]-CB--CG-[CD] |==|  0.49323
USER: genes 16 Torsion [CB]-CG--CD-[CE] |==|  0.04382
USER: genes 17 Torsion [CG]-CD--CE-[NZ] |==|  0.64107
USER: genes 18 Torsion [CD]-CE--NZ-[HZ1] |==|  0.47373
USER: genes 19 Torsion [CB]-CA--N-[C] |==|  0.39981
USER: genes 20 Torsion [N]-C--CA-[N] |==|  0.41748
USER: genes 21 Torsion [C]-CA--N-[C] |==|  0.74344
USER: genes 22 Torsion [N]-C--CA-[N] |==|  0.89481
USER: genes 23 Torsion [C]-CA--N-[H2] |==|  0.85193
USER: genes 24 Torsion [C]-CA--CB-[OG] |==|  0.76626
USER: genes 25 Torsion [CA]-CB--OG-[HG] |==|  0.01550
ROOT
ATOM      1  CA  LYS D   3     -21.553  23.823  19.331  1.00 12.74 LIG 0.18  C 
ENDROOT
BRANCH 1 2
ATOM      2  CB  LYS D   3     -22.078  25.252  19.336  1.00 13.63 LIG 0.04  C 
BRANCH 2 3
ATOM      3  CG  LYS D   3     -23.593  25.361  19.407  1.00 18.86 LIG 0.00  C 
BRANCH 3 4
ATOM      4  CD  LYS D   3     -23.973  26.629  20.137  1.00 22.56 LIG 0.03  C 
BRANCH 4 5
ATOM      5  CE  LYS D   3     -24.905  27.474  19.286  1.00 24.97 LIG 0.23  C 
BRANCH 5 6
ATOM      6  NZ  LYS D   3     -25.892  28.193  20.127  1.00 28.16 LIG-0.08  N 
ATOM      7 HZ3  LYS D   3     -25.893  29.057  19.912  1.00 28.16 LIG 0.27  HD
ATOM      8 HZ2  LYS D   3     -25.674  28.102  20.985  1.00 28.16 LIG 0.27  HD
ATOM      9 HZ1  LYS D   3     -26.703  27.853  19.990  1.00 28.16 LIG 0.27  HD
ENDBRANCH 5 6
ENDBRANCH 4 5
ENDBRANCH 3 4
ENDBRANCH 2 3
ENDBRANCH 1 2
BRANCH 1 10
ATOM     10  C   LYS D   3     -20.593  23.615  20.493  1.00 12.20 LIG 0.24  C 
ATOM     11 O    LYS D   3     -20.600  22.573  21.136  1.00 13.71 LIG-0.27  OA
ATOM     12  N   THR D   4     -19.779  24.625  20.768  1.00 12.61 LIG-0.34  N 
ATOM     13 H    THR D   4     -19.788  25.375  20.348  1.00 12.61 LIG 0.16  HD
BRANCH 12 14
ATOM     14  CA  THR D   4     -18.784  24.541  21.825  1.00 12.32 LIG 0.20  C 
BRANCH 14 15
ATOM     15  CB  THR D   4     -19.471  24.258  23.169  1.00 14.29 LIG 0.15  C 
ATOM     16  CG2 THR D   4     -18.679  23.251  23.971  1.00 19.77 LIG 0.04  C 
BRANCH 15 17
ATOM     17 OG1  THR D   4     -19.570  25.479  23.914  1.00 20.60 LIG-0.39  OA
ATOM     18 HG1  THR D   4     -18.807  25.704  24.184  1.00 20.60 LIG 0.21  HD
ENDBRANCH 15 17
ENDBRANCH 14 15
BRANCH 14 19
ATOM     19  C   THR D   4     -17.703  23.486  21.627  1.00 10.70 LIG 0.24  C 
ATOM     20  N   LYS D   5     -16.533  23.751  22.200  1.00 11.43 LIG-0.34  N 
ATOM     21 H    LYS D   5     -16.370  24.478  22.629  1.00 11.43 LIG 0.16  HD
ATOM     22 O    THR D   4     -17.926  22.461  20.985  1.00 10.42 LIG-0.27  OA
BRANCH 20 23
ATOM     23  CA  LYS D   5     -15.405  22.825  22.153  1.00 11.71 LIG 0.18  C 
BRANCH 23 24
ATOM     24  C   LYS D   5     -14.674  23.015  20.826  1.00 11.58 LIG 0.20  C 
ATOM     25 OXT  LYS D   5     -13.470  23.358  20.859  1.00 10.04 LIG-0.65  OA
ATOM     26 O    LYS D   5     -15.311  22.831  19.770  1.00 12.40 LIG-0.65  OA
ENDBRANCH 23 24
BRANCH 23 27
ATOM     27  CB  LYS D   5     -15.876  21.374  22.285  1.00 15.42 LIG 0.04  C 
BRANCH 27 28
ATOM     28  CG  LYS D   5     -14.874  20.350  21.783  1.00 18.22 LIG 0.00  C 
BRANCH 28 29
ATOM     29  CD  LYS D   5     -15.357  18.922  21.988  1.00 24.34 LIG 0.03  C 
BRANCH 29 30
ATOM     30  CE  LYS D   5     -16.840  18.845  22.278  1.00 24.78 LIG 0.23  C 
BRANCH 30 31
ATOM     31  NZ  LYS D   5     -17.087  18.023  23.495  1.00 27.37 LIG-0.08  N 
ATOM     32 HZ1  LYS D   5     -17.941  18.096  23.735  1.00 27.37 LIG 0.27  HD
ATOM     33 HZ2  LYS D   5     -16.900  17.170  23.320  1.00 27.37 LIG 0.27  HD
ATOM     34 HZ3  LYS D   5     -16.567  18.310  24.158  1.00 27.37 LIG 0.27  HD
ENDBRANCH 30 31
ENDBRANCH 29 30
ENDBRANCH 28 29
ENDBRANCH 27 28
ENDBRANCH 23 27
ENDBRANCH 20 23
ENDBRANCH 14 19
ENDBRANCH 12 14
ENDBRANCH 1 10
BRANCH 1 35
ATOM     35  N   LYS D   3     -22.656  22.876  19.414  1.00 13.26 LIG-0.35  N 
ATOM     36  C   SER D   2     -22.619  21.717  18.763  1.00 15.91 LIG 0.24  C 
ATOM     37 O    SER D   2     -21.669  21.378  18.059  1.00 16.67 LIG-0.27  OA
ATOM     38 H    LYS D   3     -23.311  23.131  19.909  1.00 13.26 LIG 0.16  HD
BRANCH 36 39
ATOM     39  CA  SER D   2     -23.834  20.807  18.925  1.00 18.03 LIG 0.20  C 
BRANCH 39 40
ATOM     40  N   SER D   2     -24.016  19.996  17.725  1.00 20.90 LIG-0.34  N 
ATOM     41  C   ALA D   1     -24.801  20.388  16.727  0.60 22.25 LIG 0.25  C 
ATOM     42 O    ALA D   1     -25.432  21.445  16.745  0.60 23.13 LIG-0.27  OA
ATOM     43 H    SER D   2     -23.577  19.257  17.727  1.00 20.90 LIG 0.16  HD
BRANCH 41 44
ATOM     44  CA  ALA D   1     -24.892  19.446  15.531  0.60 22.82 LIG 0.27  C 
ATOM     45  CB  ALA D   1     -25.929  18.364  15.799  0.60 23.19 LIG 0.05  C 
BRANCH 44 46
ATOM     46  N   ALA D   1     -23.570  18.821  15.245  0.60 23.87 LIG-0.07  N 
ATOM     47 H2   ALA D   1     -22.953  19.456  15.160  0.60 23.87 LIG 0.28  HD
ATOM     48 H1   ALA D   1     -23.621  18.353  14.490  0.60 23.87 LIG 0.28  HD
ATOM     49 H3   ALA D   1     -23.347  18.279  15.915  0.60 23.87 LIG 0.28  HD
ENDBRANCH 44 46
ENDBRANCH 41 44
ENDBRANCH 39 40
BRANCH 39 50
ATOM     50  CB  SER D   2     -23.637  19.900  20.142  1.00 19.56 LIG 0.20  C 
BRANCH 50 51
ATOM     51 OG   SER D   2     -22.877  18.753  19.803  1.00 25.44 LIG-0.40  OA
ATOM     52 HG   SER D   2     -22.608  18.819  19.010  1.00 25.44 LIG 0.21  HD
ENDBRANCH 50 51
ENDBRANCH 39 50
ENDBRANCH 36 39
ENDBRANCH 1 35
TORSDOF 24
ENDMDL
MODEL 3
USER: ADFR SOLUTION from run 48
USER: SCORE 20.883928 LL:  -3.723 LR: -19.726 RR:   0.000 FEB: -12.567
USER: RMSD 5.457700
USER: SEED 47
USER: STATUS no improvement in best 3 clusters for 5 generations
USER: GENES 26
USER: genes 0 Translation |==|  0.40425 0.46388 0.38281
USER: genes 1 Rotation |==|  0.85222 0.75733 0.72952 0.58390
USER: genes 2 Torsion [C]-CA--CB-[CG] |==|  0.40971
USER: genes 3 Torsion [CA]-CB--CG-[CD] |==|  0.13802
USER: genes 4 Torsion [CB]-CG--CD-[CE] |==|  0.39831
USER: genes 5 Torsion [CG]-CD--CE-[NZ] |==|  0.23079
USER: genes 6 Torsion [CD]-CE--NZ-[HZ3] |==|  0.26166
USER: genes 7 Torsion [N]-CA--C-[N] |==|  0.34473
USER: genes 8 Torsion [C]-N--CA-[CB] |==|  0.37182
USER: genes 9 Torsion [N]-CA--CB-[CG2] |==|  0.22685
USER: genes 10 Torsion [CA]-CB--OG1-[HG1] |==|  0.17275
USER: genes 11 Torsion [N]-CA--C-[N] |==|  0.43366
USER: genes 12 Torsion [C]-N--CA-[CB] |==|  0.13918
USER: genes 13 Torsion [N]-CA--C-[O] |==|  0.35794
USER: genes 14 Torsion [N]-CA--CB-[CG] |==|  0.48400
USER: genes 15 Torsion [CA]-CB--CG-[CD] |==|  0.17876
USER: genes 16 Torsion [CB]-CG--CD-[CE] |==|  0.60688
USER: genes 17 Torsion [CG]-CD--CE-[NZ] |==|  0.20279
USER: genes 18 Torsion [CD]-CE--NZ-[HZ1] |==|  0.59224
USER: genes 19 Torsion [CB]-CA--N-[C] |==|  0.55000
USER: genes 20 Torsion [N]-C--CA-[N] |==|  0.12780
USER: genes 21 Torsion [C]-CA--N-[C] |==|  0.62577
USER: genes 22 Torsion [N]-C--CA-[N] |==|  0.54656
USER: genes 23 Torsion [C]-CA--N-[H2] |==|  0.07544
USER: genes 24 Torsion [C]-CA--CB-[OG] |==|  0.73411
USER: genes 25 Torsion [CA]-CB--OG-[HG] |==|  0.31356
ROOT
ATOM      1  CA  LYS D   3     -24.963  19.916  15.854  1.00 12.74 LIG 0.18  C 
ENDROOT
BRANCH 1 2
ATOM      2  CB  LYS D   3     -24.327  20.569  14.634  1.00 13.63 LIG 0.04  C 
BRANCH 2 3
ATOM      3  CG  LYS D   3     -23.845  19.586  13.579  1.00 18.86 LIG 0.00  C 
BRANCH 3 4
ATOM      4  CD  LYS D   3     -24.947  18.600  13.267  1.00 22.56 LIG 0.03  C 
BRANCH 4 5
ATOM      5  CE  LYS D   3     -24.945  18.248  11.790  1.00 24.97 LIG 0.23  C 
BRANCH 5 6
ATOM      6  NZ  LYS D   3     -23.954  17.184  11.496  1.00 28.16 LIG-0.08  N 
ATOM      7 HZ3  LYS D   3     -24.356  16.390  11.516  1.00 28.16 LIG 0.27  HD
ATOM      8 HZ2  LYS D   3     -23.307  17.203  12.107  1.00 28.16 LIG 0.27  HD
ATOM      9 HZ1  LYS D   3     -23.603  17.319  10.689  1.00 28.16 LIG 0.27  HD
ENDBRANCH 5 6
ENDBRANCH 4 5
ENDBRANCH 3 4
ENDBRANCH 2 3
ENDBRANCH 1 2
BRANCH 1 10
ATOM     10  C   LYS D   3     -24.686  20.750  17.096  1.00 12.20 LIG 0.24  C 
ATOM     11 O    LYS D   3     -25.149  21.878  17.213  1.00 13.71 LIG-0.27  OA
ATOM     12  N   THR D   4     -23.912  20.192  18.016  1.00 12.61 LIG-0.34  N 
ATOM     13 H    THR D   4     -23.551  19.416  17.931  1.00 12.61 LIG 0.16  HD
BRANCH 12 14
ATOM     14  CA  THR D   4     -23.604  20.863  19.269  1.00 12.32 LIG 0.20  C 
BRANCH 14 15
ATOM     15  CB  THR D   4     -23.773  19.886  20.441  1.00 14.29 LIG 0.15  C 
ATOM     16  CG2 THR D   4     -22.547  19.017  20.592  1.00 19.77 LIG 0.04  C 
BRANCH 15 17
ATOM     17 OG1  THR D   4     -23.972  20.632  21.649  1.00 20.60 LIG-0.39  OA
ATOM     18 HG1  THR D   4     -24.678  21.084  21.587  1.00 20.60 LIG 0.21  HD
ENDBRANCH 15 17
ENDBRANCH 14 15
BRANCH 14 19
ATOM     19  C   THR D   4     -22.206  21.462  19.365  1.00 10.70 LIG 0.24  C 
ATOM     20  N   LYS D   5     -22.070  22.461  20.232  1.00 11.43 LIG-0.34  N 
ATOM     21 H    LYS D   5     -22.723  22.780  20.692  1.00 11.43 LIG 0.16  HD
ATOM     22 O    THR D   4     -21.280  21.027  18.683  1.00 10.42 LIG-0.27  OA
BRANCH 20 23
ATOM     23  CA  LYS D   5     -20.790  23.114  20.488  1.00 11.71 LIG 0.18  C 
BRANCH 23 24
ATOM     24  C   LYS D   5     -21.036  24.345  21.357  1.00 11.58 LIG 0.20  C 
ATOM     25 OXT  LYS D   5     -21.904  25.167  20.986  1.00 10.04 LIG-0.65  OA
ATOM     26 O    LYS D   5     -20.352  24.482  22.392  1.00 12.40 LIG-0.65  OA
ENDBRANCH 23 24
BRANCH 23 27
ATOM     27  CB  LYS D   5     -20.110  23.528  19.180  1.00 15.42 LIG 0.04  C 
BRANCH 27 28
ATOM     28  CG  LYS D   5     -18.839  24.337  19.371  1.00 18.22 LIG 0.00  C 
BRANCH 28 29
ATOM     29  CD  LYS D   5     -17.746  23.537  20.061  1.00 24.34 LIG 0.03  C 
BRANCH 29 30
ATOM     30  CE  LYS D   5     -16.948  24.367  21.044  1.00 24.78 LIG 0.23  C 
BRANCH 30 31
ATOM     31  NZ  LYS D   5     -17.759  24.646  22.262  1.00 27.37 LIG-0.08  N 
ATOM     32 HZ1  LYS D   5     -17.545  25.448  22.583  1.00 27.37 LIG 0.27  HD
ATOM     33 HZ2  LYS D   5     -18.625  24.633  22.052  1.00 27.37 LIG 0.27  HD
ATOM     34 HZ3  LYS D   5     -17.594  24.026  22.878  1.00 27.37 LIG 0.27  HD
ENDBRANCH 30 31
ENDBRANCH 29 30
ENDBRANCH 28 29
ENDBRANCH 27 28
ENDBRANCH 23 27
ENDBRANCH 20 23
ENDBRANCH 14 19
ENDBRANCH 12 14
ENDBRANCH 1 10
BRANCH 1 35
ATOM     35  N   LYS D   3     -26.398  19.765  15.659  1.00 13.26 LIG-0.35  N 
ATOM     36  C   SER D   2     -27.215  19.558  16.687  1.00 15.91 LIG 0.24  C 
ATOM     37 O    SER D   2     -26.817  19.480  17.849  1.00 16.67 LIG-0.27  OA
ATOM     38 H    LYS D   3     -26.656  19.820  14.840  1.00 13.26 LIG 0.16  HD
BRANCH 36 39
ATOM     39  CA  SER D   2     -28.699  19.413  16.359  1.00 18.03 LIG 0.20  C 
BRANCH 39 40
ATOM     40  N   SER D   2     -28.876  18.514  15.224  1.00 20.90 LIG-0.34  N 
ATOM     41  C   ALA D   1     -29.697  18.804  14.221  0.60 22.25 LIG 0.25  C 
ATOM     42 O    ALA D   1     -30.368  19.835  14.180  0.60 23.13 LIG-0.27  OA
ATOM     43 H    SER D   2     -28.408  17.793  15.267  1.00 20.90 LIG 0.16  HD
BRANCH 41 44
ATOM     44  CA  ALA D   1     -29.777  17.776  13.097  0.60 22.82 LIG 0.27  C 
ATOM     45  CB  ALA D   1     -28.385  17.249  12.773  0.60 23.19 LIG 0.05  C 
BRANCH 44 46
ATOM     46  N   ALA D   1     -30.389  18.370  11.875  0.60 23.87 LIG-0.07  N 
ATOM     47 H2   ALA D   1     -30.239  19.247  11.864  0.60 23.87 LIG 0.28  HD
ATOM     48 H1   ALA D   1     -31.266  18.219  11.879  0.60 23.87 LIG 0.28  HD
ATOM     49 H3   ALA D   1     -30.028  18.000  11.151  0.60 23.87 LIG 0.28  HD
ENDBRANCH 44 46
ENDBRANCH 41 44
ENDBRANCH 39 40
BRANCH 39 50
ATOM     50  CB  SER D   2     -29.444  18.868  17.579  1.00 19.56 LIG 0.20  C 
BRANCH 50 51
ATOM     51 OG   SER D   2     -29.592  17.460  17.496  1.00 25.44 LIG-0.40  OA
ATOM     52 HG   SER D   2     -29.135  17.094  18.098  1.00 25.44 LIG 0.21  HD
ENDBRANCH 50 51
ENDBRANCH 39 50
ENDBRANCH 36 39
ENDBRANCH 1 35
TORSDOF 24
ENDMDL
MODEL 4
USER: ADFR SOLUTION from run 108
USER: SCORE 20.160991 LL:  -2.730 LR: -19.211 RR:   0.000 FEB: -12.051
USER: RMSD 6.471710
USER: SEED 107
USER: STATUS 1 or 2 clusters left
USER: GENES 26
USER: genes 0 Translation |==|  0.39158 0.45101 0.38430
USER: genes 1 Rotation |==|  0.85761 0.75156 0.71575 0.61085
USER: genes 2 Torsion [C]-CA--CB-[CG] |==|  0.41275
USER: genes 3 Torsion [CA]-CB--CG-[CD] |==|  0.31072
USER: genes 4 Torsion [CB]-CG--CD-[CE] |==|  0.55441
USER: genes 5 Torsion [CG]-CD--CE-[NZ] |==|  0.84765
USER: genes 6 Torsion [CD]-CE--NZ-[HZ3] |==|  0.35393
USER: genes 7 Torsion [N]-CA--C-[N] |==|  0.36185
USER: genes 8 Torsion [C]-N--CA-[CB] |==|  0.42778
USER: genes 9 Torsion [N]-CA--CB-[CG2] |==|  0.75489
USER: genes 10 Torsion [CA]-CB--OG1-[HG1] |==|  0.07983
USER: genes 11 Torsion [N]-CA--C-[N] |==|  0.42289
USER: genes 12 Torsion [C]-N--CA-[CB] |==|  0.42654
USER: genes 13 Torsion [N]-CA--C-[O] |==|  0.17744
USER: genes 14 Torsion [N]-CA--CB-[CG] |==|  0.68550
USER: genes 15 Torsion [CA]-CB--CG-[CD] |==|  0.25057
USER: genes 16 Torsion [CB]-CG--CD-[CE] |==|  0.16771
USER: genes 17 Torsion [CG]-CD--CE-[NZ] |==|  0.15266
USER: genes 18 Torsion [CD]-CE--NZ-[HZ1] |==|  0.89027
USER: genes 19 Torsion [CB]-CA--N-[C] |==|  0.52942
USER: genes 20 Torsion [N]-C--CA-[N] |==|  0.39695
USER: genes 21 Torsion [C]-CA--N-[C] |==|  0.78212
USER: genes 22 Torsion [N]-C--CA-[N] |==|  0.83519
USER: genes 23 Torsion [C]-CA--N-[H2] |==|  0.11571
USER: genes 24 Torsion [C]-CA--CB-[OG] |==|  0.34621
USER: genes 25 Torsion [CA]-CB--OG-[HG] |==|  0.87459
ROOT
ATOM      1  CA  LYS D   3     -25.343  19.530  15.899  1.00 12.74 LIG 0.18  C 
ENDROOT
BRANCH 1 2
ATOM      2  CB  LYS D   3     -24.645  20.013  14.635  1.00 13.63 LIG 0.04  C 
BRANCH 2 3
ATOM      3  CG  LYS D   3     -24.266  18.903  13.667  1.00 18.86 LIG 0.00  C 
BRANCH 3 4
ATOM      4  CD  LYS D   3     -25.105  19.018  12.415  1.00 22.56 LIG 0.03  C 
BRANCH 4 5
ATOM      5  CE  LYS D   3     -25.113  17.703  11.657  1.00 24.97 LIG 0.23  C 
BRANCH 5 6
ATOM      6  NZ  LYS D   3     -23.733  17.246  11.363  1.00 28.16 LIG-0.08  N 
ATOM      7 HZ3  LYS D   3     -23.631  16.408  11.648  1.00 28.16 LIG 0.27  HD
ATOM      8 HZ2  LYS D   3     -23.151  17.774  11.781  1.00 28.16 LIG 0.27  HD
ATOM      9 HZ1  LYS D   3     -23.589  17.281  10.486  1.00 28.16 LIG 0.27  HD
ENDBRANCH 5 6
ENDBRANCH 4 5
ENDBRANCH 3 4
ENDBRANCH 2 3
ENDBRANCH 1 2
BRANCH 1 10
ATOM     10  C   LYS D   3     -25.004  20.446  17.065  1.00 12.20 LIG 0.24  C 
ATOM     11 O    LYS D   3     -25.461  21.580  17.128  1.00 13.71 LIG-0.27  OA
ATOM     12  N   THR D   4     -24.183  19.950  17.980  1.00 12.61 LIG-0.34  N 
ATOM     13 H    THR D   4     -23.826  19.169  17.930  1.00 12.61 LIG 0.16  HD
BRANCH 12 14
ATOM     14  CA  THR D   4     -23.811  20.704  19.167  1.00 12.32 LIG 0.20  C 
BRANCH 14 15
ATOM     15  CB  THR D   4     -23.432  19.741  20.301  1.00 14.29 LIG 0.15  C 
ATOM     16  CG2 THR D   4     -24.653  19.354  21.102  1.00 19.77 LIG 0.04  C 
BRANCH 15 17
ATOM     17 OG1  THR D   4     -22.845  18.560  19.738  1.00 20.60 LIG-0.39  OA
ATOM     18 HG1  THR D   4     -22.468  18.753  19.012  1.00 20.60 LIG 0.21  HD
ENDBRANCH 15 17
ENDBRANCH 14 15
BRANCH 14 19
ATOM     19  C   THR D   4     -22.658  21.684  18.986  1.00 10.70 LIG 0.24  C 
ATOM     20  N   LYS D   5     -22.671  22.737  19.797  1.00 11.43 LIG-0.34  N 
ATOM     21 H    LYS D   5     -23.296  22.887  20.368  1.00 11.43 LIG 0.16  HD
ATOM     22 O    THR D   4     -21.781  21.485  18.148  1.00 10.42 LIG-0.27  OA
BRANCH 20 23
ATOM     23  CA  LYS D   5     -21.616  23.746  19.795  1.00 11.71 LIG 0.18  C 
BRANCH 23 24
ATOM     24  C   LYS D   5     -20.485  23.271  20.704  1.00 11.58 LIG 0.20  C 
ATOM     25 OXT  LYS D   5     -20.219  23.949  21.723  1.00 10.04 LIG-0.65  OA
ATOM     26 O    LYS D   5     -19.868  22.234  20.386  1.00 12.40 LIG-0.65  OA
ENDBRANCH 23 24
BRANCH 23 27
ATOM     27  CB  LYS D   5     -22.143  25.098  20.284  1.00 15.42 LIG 0.04  C 
BRANCH 27 28
ATOM     28  CG  LYS D   5     -22.163  26.178  19.217  1.00 18.22 LIG 0.00  C 
BRANCH 28 29
ATOM     29  CD  LYS D   5     -23.479  26.212  18.457  1.00 24.34 LIG 0.03  C 
BRANCH 29 30
ATOM     30  CE  LYS D   5     -24.665  26.490  19.355  1.00 24.78 LIG 0.23  C 
BRANCH 30 31
ATOM     31  NZ  LYS D   5     -24.450  27.749  20.120  1.00 27.37 LIG-0.08  N 
ATOM     32 HZ1  LYS D   5     -23.599  27.798  20.378  1.00 27.37 LIG 0.27  HD
ATOM     33 HZ2  LYS D   5     -24.644  28.448  19.603  1.00 27.37 LIG 0.27  HD
ATOM     34 HZ3  LYS D   5     -24.978  27.755  20.837  1.00 27.37 LIG 0.27  HD
ENDBRANCH 30 31
ENDBRANCH 29 30
ENDBRANCH 28 29
ENDBRANCH 27 28
ENDBRANCH 23 27
ENDBRANCH 20 23
ENDBRANCH 14 19
ENDBRANCH 12 14
ENDBRANCH 1 10
BRANCH 1 35
ATOM     35  N   LYS D   3     -26.784  19.484  15.697  1.00 13.26 LIG-0.35  N 
ATOM     36  C   SER D   2     -27.617  19.295  16.716  1.00 15.91 LIG 0.24  C 
ATOM     37 O    SER D   2     -27.229  19.148  17.875  1.00 16.67 LIG-0.27  OA
ATOM     38 H    LYS D   3     -27.035  19.588  14.881  1.00 13.26 LIG 0.16  HD
BRANCH 36 39
ATOM     39  CA  SER D   2     -29.106  19.266  16.382  1.00 18.03 LIG 0.20  C 
BRANCH 39 40
ATOM     40  N   SER D   2     -29.786  18.276  17.211  1.00 20.90 LIG-0.34  N 
ATOM     41  C   ALA D   1     -29.728  16.976  16.940  0.60 22.25 LIG 0.25  C 
ATOM     42 O    ALA D   1     -29.113  16.518  15.977  0.60 23.13 LIG-0.27  OA
ATOM     43 H    SER D   2     -30.218  18.608  17.876  1.00 20.90 LIG 0.16  HD
BRANCH 41 44
ATOM     44  CA  ALA D   1     -30.479  16.055  17.895  0.60 22.82 LIG 0.27  C 
ATOM     45  CB  ALA D   1     -31.968  16.369  17.860  0.60 23.19 LIG 0.05  C 
BRANCH 44 46
ATOM     46  N   ALA D   1     -29.965  16.198  19.287  0.60 23.87 LIG-0.07  N 
ATOM     47 H2   ALA D   1     -29.822  17.058  19.463  0.60 23.87 LIG 0.28  HD
ATOM     48 H1   ALA D   1     -29.202  15.748  19.369  0.60 23.87 LIG 0.28  HD
ATOM     49 H3   ALA D   1     -30.563  15.873  19.860  0.60 23.87 LIG 0.28  HD
ENDBRANCH 44 46
ENDBRANCH 41 44
ENDBRANCH 39 40
BRANCH 39 50
ATOM     50  CB  SER D   2     -29.714  20.651  16.619  1.00 19.56 LIG 0.20  C 
BRANCH 50 51
ATOM     51 OG   SER D   2     -30.362  21.127  15.452  1.00 25.44 LIG-0.40  OA
ATOM     52 HG   SER D   2     -29.872  20.991  14.783  1.00 25.44 LIG 0.21  HD
ENDBRANCH 50 51
ENDBRANCH 39 50
ENDBRANCH 36 39
ENDBRANCH 1 35
TORSDOF 24
ENDMDL
MODEL 5
USER: ADFR SOLUTION from run 26
USER: SCORE 19.932192 LL:  -3.092 LR: -19.212 RR:   0.000 FEB: -12.052
USER: RMSD 11.125338
USER: SEED 25
USER: STATUS no improvement in best 3 clusters for 5 generations
USER: GENES 26
USER: genes 0 Translation |==|  0.39229 0.47509 0.40741
USER: genes 1 Rotation |==|  0.75213 0.06909 0.50042 0.52725
USER: genes 2 Torsion [C]-CA--CB-[CG] |==|  0.93222
USER: genes 3 Torsion [CA]-CB--CG-[CD] |==|  0.41136
USER: genes 4 Torsion [CB]-CG--CD-[CE] |==|  0.45043
USER: genes 5 Torsion [CG]-CD--CE-[NZ] |==|  0.63784
USER: genes 6 Torsion [CD]-CE--NZ-[HZ3] |==|  0.12809
USER: genes 7 Torsion [N]-CA--C-[N] |==|  0.32943
USER: genes 8 Torsion [C]-N--CA-[CB] |==|  0.37296
USER: genes 9 Torsion [N]-CA--CB-[CG2] |==|  0.46791
USER: genes 10 Torsion [CA]-CB--OG1-[HG1] |==|  0.20241
USER: genes 11 Torsion [N]-CA--C-[N] |==|  0.37030
USER: genes 12 Torsion [C]-N--CA-[CB] |==|  0.32293
USER: genes 13 Torsion [N]-CA--C-[O] |==|  0.94210
USER: genes 14 Torsion [N]-CA--CB-[CG] |==|  0.03394
USER: genes 15 Torsion [CA]-CB--CG-[CD] |==|  0.70479
USER: genes 16 Torsion [CB]-CG--CD-[CE] |==|  0.04606
USER: genes 17 Torsion [CG]-CD--CE-[NZ] |==|  0.72694
USER: genes 18 Torsion [CD]-CE--NZ-[HZ1] |==|  0.60197
USER: genes 19 Torsion [CB]-CA--N-[C] |==|  0.55044
USER: genes 20 Torsion [N]-C--CA-[N] |==|  0.22201
USER: genes 21 Torsion [C]-CA--N-[C] |==|  0.76664
USER: genes 22 Torsion [N]-C--CA-[N] |==|  0.50094
USER: genes 23 Torsion [C]-CA--N-[H2] |==|  0.01005
USER: genes 24 Torsion [C]-CA--CB-[OG] |==|  0.71834
USER: genes 25 Torsion [CA]-CB--OG-[HG] |==|  0.15313
ROOT
ATOM      1  CA  LYS D   3     -25.321  20.253  16.592  1.00 12.74 LIG 0.18  C 
ENDROOT
BRANCH 1 2
ATOM      2  CB  LYS D   3     -24.785  19.777  15.249  1.00 13.63 LIG 0.04  C 
BRANCH 2 3
ATOM      3  CG  LYS D   3     -25.155  18.343  14.900  1.00 18.86 LIG 0.00  C 
BRANCH 3 4
ATOM      4  CD  LYS D   3     -25.304  18.213  13.402  1.00 22.56 LIG 0.03  C 
BRANCH 4 5
ATOM      5  CE  LYS D   3     -25.236  16.754  12.985  1.00 24.97 LIG 0.23  C 
BRANCH 5 6
ATOM      6  NZ  LYS D   3     -24.277  16.561  11.870  1.00 28.16 LIG-0.08  N 
ATOM      7 HZ3  LYS D   3     -23.523  16.999  12.048  1.00 28.16 LIG 0.27  HD
ATOM      8 HZ2  LYS D   3     -24.631  16.875  11.116  1.00 28.16 LIG 0.27  HD
ATOM      9 HZ1  LYS D   3     -24.101  15.693  11.776  1.00 28.16 LIG 0.27  HD
ENDBRANCH 5 6
ENDBRANCH 4 5
ENDBRANCH 3 4
ENDBRANCH 2 3
ENDBRANCH 1 2
BRANCH 1 10
ATOM     10  C   LYS D   3     -26.551  19.446  16.980  1.00 12.20 LIG 0.24  C 
ATOM     11 O    LYS D   3     -26.488  18.230  17.117  1.00 13.71 LIG-0.27  OA
ATOM     12  N   THR D   4     -27.675  20.130  17.137  1.00 12.61 LIG-0.34  N 
ATOM     13 H    THR D   4     -27.741  20.978  17.009  1.00 12.61 LIG 0.16  HD
BRANCH 12 14
ATOM     14  CA  THR D   4     -28.913  19.487  17.548  1.00 12.32 LIG 0.20  C 
BRANCH 14 15
ATOM     15  CB  THR D   4     -29.590  20.313  18.651  1.00 14.29 LIG 0.15  C 
ATOM     16  CG2 THR D   4     -31.000  19.826  18.893  1.00 19.77 LIG 0.04  C 
BRANCH 15 17
ATOM     17 OG1  THR D   4     -28.835  20.188  19.863  1.00 20.60 LIG-0.39  OA
ATOM     18 HG1  THR D   4     -28.121  20.625  19.795  1.00 20.60 LIG 0.21  HD
ENDBRANCH 15 17
ENDBRANCH 14 15
BRANCH 14 19
ATOM     19  C   THR D   4     -29.937  19.268  16.441  1.00 10.70 LIG 0.24  C 
ATOM     20  N   LYS D   5     -30.484  18.056  16.399  1.00 11.43 LIG-0.34  N 
ATOM     21 H    LYS D   5     -30.263  17.419  16.933  1.00 11.43 LIG 0.16  HD
ATOM     22 O    THR D   4     -30.228  20.169  15.657  1.00 10.42 LIG-0.27  OA
BRANCH 20 23
ATOM     23  CA  LYS D   5     -31.518  17.691  15.437  1.00 11.71 LIG 0.18  C 
BRANCH 23 24
ATOM     24  C   LYS D   5     -32.747  17.207  16.202  1.00 11.58 LIG 0.20  C 
ATOM     25 OXT  LYS D   5     -33.856  17.236  15.620  1.00 10.04 LIG-0.65  OA
ATOM     26 O    LYS D   5     -32.595  16.816  17.377  1.00 12.40 LIG-0.65  OA
ENDBRANCH 23 24
BRANCH 23 27
ATOM     27  CB  LYS D   5     -31.028  16.591  14.491  1.00 15.42 LIG 0.04  C 
BRANCH 27 28
ATOM     28  CG  LYS D   5     -29.734  15.929  14.927  1.00 18.22 LIG 0.00  C 
BRANCH 28 29
ATOM     29  CD  LYS D   5     -28.550  16.359  14.075  1.00 24.34 LIG 0.03  C 
BRANCH 29 30
ATOM     30  CE  LYS D   5     -28.833  17.613  13.276  1.00 24.78 LIG 0.23  C 
BRANCH 30 31
ATOM     31  NZ  LYS D   5     -29.214  17.261  11.880  1.00 27.37 LIG-0.08  N 
ATOM     32 HZ1  LYS D   5     -28.879  17.865  11.319  1.00 27.37 LIG 0.27  HD
ATOM     33 HZ2  LYS D   5     -28.891  16.456  11.678  1.00 27.37 LIG 0.27  HD
ATOM     34 HZ3  LYS D   5     -30.102  17.250  11.808  1.00 27.37 LIG 0.27  HD
ENDBRANCH 30 31
ENDBRANCH 29 30
ENDBRANCH 28 29
ENDBRANCH 27 28
ENDBRANCH 23 27
ENDBRANCH 20 23
ENDBRANCH 14 19
ENDBRANCH 12 14
ENDBRANCH 1 10
BRANCH 1 35
ATOM     35  N   LYS D   3     -24.296  20.133  17.620  1.00 13.26 LIG-0.35  N 
ATOM     36  C   SER D   2     -24.611  20.141  18.911  1.00 15.91 LIG 0.24  C 
ATOM     37 O    SER D   2     -25.768  20.250  19.314  1.00 16.67 LIG-0.27  OA
ATOM     38 H    LYS D   3     -23.494  20.059  17.318  1.00 13.26 LIG 0.16  HD
BRANCH 36 39
ATOM     39  CA  SER D   2     -23.451  20.009  19.895  1.00 18.03 LIG 0.20  C 
BRANCH 39 40
ATOM     40  N   SER D   2     -22.784  21.296  20.059  1.00 20.90 LIG-0.34  N 
ATOM     41  C   ALA D   1     -21.848  21.713  19.213  0.60 22.25 LIG 0.25  C 
ATOM     42 O    ALA D   1     -21.472  21.048  18.248  0.60 23.13 LIG-0.27  OA
ATOM     43 H    SER D   2     -23.050  21.748  20.741  1.00 20.90 LIG 0.16  HD
BRANCH 41 44
ATOM     44  CA  ALA D   1     -21.242  23.082  19.500  0.60 22.82 LIG 0.27  C 
ATOM     45  CB  ALA D   1     -22.335  24.142  19.520  0.60 23.19 LIG 0.05  C 
BRANCH 44 46
ATOM     46  N   ALA D   1     -20.215  23.435  18.479  0.60 23.87 LIG-0.07  N 
ATOM     47 H2   ALA D   1     -20.184  22.799  17.858  0.60 23.87 LIG 0.28  HD
ATOM     48 H1   ALA D   1     -19.419  23.506  18.871  0.60 23.87 LIG 0.28  HD
ATOM     49 H3   ALA D   1     -20.428  24.210  18.099  0.60 23.87 LIG 0.28  HD
ENDBRANCH 44 46
ENDBRANCH 41 44
ENDBRANCH 39 40
BRANCH 39 50
ATOM     50  CB  SER D   2     -23.977  19.518  21.246  1.00 19.56 LIG 0.20  C 
BRANCH 50 51
ATOM     51 OG   SER D   2     -24.088  20.589  22.168  1.00 25.44 LIG-0.40  OA
ATOM     52 HG   SER D   2     -24.567  21.196  21.836  1.00 25.44 LIG 0.21  HD
ENDBRANCH 50 51
ENDBRANCH 39 50
ENDBRANCH 36 39
ENDBRANCH 1 35
TORSDOF 24
ENDMDL
MODEL 6
USER: ADFR SOLUTION from run 67
USER: SCORE 19.223485 LL:  -3.366 LR: -19.203 RR:   0.000 FEB: -12.044
USER: RMSD 10.167351
USER: SEED 66
USER: STATUS 1 or 2 clusters left
USER: GENES 26
USER: genes 0 Translation |==|  0.54291 0.58202 0.50339
USER: genes 1 Rotation |==|  0.15769 0.78312 0.72917 0.51212
USER: genes 2 Torsion [C]-CA--CB-[CG] |==|  0.38121
USER: genes 3 Torsion [CA]-CB--CG-[CD] |==|  0.92014
USER: genes 4 Torsion [CB]-CG--CD-[CE] |==|  0.65938
USER: genes 5 Torsion [CG]-CD--CE-[NZ] |==|  0.68000
USER: genes 6 Torsion [CD]-CE--NZ-[HZ3] |==|  0.54136
USER: genes 7 Torsion [N]-CA--C-[N] |==|  0.48559
USER: genes 8 Torsion [C]-N--CA-[CB] |==|  0.25456
USER: genes 9 Torsion [N]-CA--CB-[CG2] |==|  0.72055
USER: genes 10 Torsion [CA]-CB--OG1-[HG1] |==|  0.12387
USER: genes 11 Torsion [N]-CA--C-[N] |==|  0.41841
USER: genes 12 Torsion [C]-N--CA-[CB] |==|  0.45033
USER: genes 13 Torsion [N]-CA--C-[O] |==|  0.93779
USER: genes 14 Torsion [N]-CA--CB-[CG] |==|  0.29014
USER: genes 15 Torsion [CA]-CB--CG-[CD] |==|  0.36838
USER: genes 16 Torsion [CB]-CG--CD-[CE] |==|  0.85795
USER: genes 17 Torsion [CG]-CD--CE-[NZ] |==|  0.56329
USER: genes 18 Torsion [CD]-CE--NZ-[HZ1] |==|  0.35433
USER: genes 19 Torsion [CB]-CA--N-[C] |==|  0.35037
USER: genes 20 Torsion [N]-C--CA-[N] |==|  0.80373
USER: genes 21 Torsion [C]-CA--N-[C] |==|  0.60744
USER: genes 22 Torsion [N]-C--CA-[N] |==|  0.46422
USER: genes 23 Torsion [C]-CA--N-[H2] |==|  0.15855
USER: genes 24 Torsion [C]-CA--CB-[OG] |==|  0.39206
USER: genes 25 Torsion [CA]-CB--OG-[HG] |==|  0.92989
ROOT
ATOM      1  CA  LYS D   3     -20.803  23.461  19.472  1.00 12.74 LIG 0.18  C 
ENDROOT
BRANCH 1 2
ATOM      2  CB  LYS D   3     -20.976  24.442  18.320  1.00 13.63 LIG 0.04  C 
BRANCH 2 3
ATOM      3  CG  LYS D   3     -21.508  25.805  18.734  1.00 18.86 LIG 0.00  C 
BRANCH 3 4
ATOM      4  CD  LYS D   3     -22.368  25.656  19.968  1.00 22.56 LIG 0.03  C 
BRANCH 4 5
ATOM      5  CE  LYS D   3     -23.765  26.193  19.712  1.00 24.97 LIG 0.23  C 
BRANCH 5 6
ATOM      6  NZ  LYS D   3     -24.048  27.375  20.562  1.00 28.16 LIG-0.08  N 
ATOM      7 HZ3  LYS D   3     -24.923  27.540  20.559  1.00 28.16 LIG 0.27  HD
ATOM      8 HZ2  LYS D   3     -23.613  28.082  20.241  1.00 28.16 LIG 0.27  HD
ATOM      9 HZ1  LYS D   3     -23.779  27.214  21.394  1.00 28.16 LIG 0.27  HD
ENDBRANCH 5 6
ENDBRANCH 4 5
ENDBRANCH 3 4
ENDBRANCH 2 3
ENDBRANCH 1 2
BRANCH 1 10
ATOM     10  C   LYS D   3     -21.302  22.083  19.064  1.00 12.20 LIG 0.24  C 
ATOM     11 O    LYS D   3     -20.536  21.131  18.995  1.00 13.71 LIG-0.27  OA
ATOM     12  N   THR D   4     -22.593  21.990  18.778  1.00 12.61 LIG-0.34  N 
ATOM     13 H    THR D   4     -23.135  22.657  18.787  1.00 12.61 LIG 0.16  HD
BRANCH 12 14
ATOM     14  CA  THR D   4     -23.208  20.722  18.416  1.00 12.32 LIG 0.20  C 
BRANCH 14 15
ATOM     15  CB  THR D   4     -23.756  20.029  19.671  1.00 14.29 LIG 0.15  C 
ATOM     16  CG2 THR D   4     -22.810  18.947  20.139  1.00 19.77 LIG 0.04  C 
BRANCH 15 17
ATOM     17 OG1  THR D   4     -23.911  21.000  20.715  1.00 20.60 LIG-0.39  OA
ATOM     18 HG1  THR D   4     -24.269  21.693  20.402  1.00 20.60 LIG 0.21  HD
ENDBRANCH 15 17
ENDBRANCH 14 15
BRANCH 14 19
ATOM     19  C   THR D   4     -24.344  20.811  17.404  1.00 10.70 LIG 0.24  C 
ATOM     20  N   LYS D   5     -24.502  19.743  16.627  1.00 11.43 LIG-0.34  N 
ATOM     21 H    LYS D   5     -23.988  19.055  16.659  1.00 11.43 LIG 0.16  HD
ATOM     22 O    THR D   4     -25.059  21.808  17.337  1.00 10.42 LIG-0.27  OA
BRANCH 20 23
ATOM     23  CA  LYS D   5     -25.572  19.638  15.640  1.00 11.71 LIG 0.18  C 
BRANCH 23 24
ATOM     24  C   LYS D   5     -26.876  19.318  16.367  1.00 11.58 LIG 0.20  C 
ATOM     25 OXT  LYS D   5     -27.955  19.611  15.803  1.00 10.04 LIG-0.65  OA
ATOM     26 O    LYS D   5     -26.808  18.790  17.495  1.00 12.40 LIG-0.65  OA
ENDBRANCH 23 24
BRANCH 23 27
ATOM     27  CB  LYS D   5     -25.269  18.546  14.610  1.00 15.42 LIG 0.04  C 
BRANCH 27 28
ATOM     28  CG  LYS D   5     -26.070  17.270  14.806  1.00 18.22 LIG 0.00  C 
BRANCH 28 29
ATOM     29  CD  LYS D   5     -26.687  16.773  13.509  1.00 24.34 LIG 0.03  C 
BRANCH 29 30
ATOM     30  CE  LYS D   5     -27.463  17.850  12.781  1.00 24.78 LIG 0.23  C 
BRANCH 30 31
ATOM     31  NZ  LYS D   5     -28.467  17.237  11.868  1.00 27.37 LIG-0.08  N 
ATOM     32 HZ1  LYS D   5     -29.269  17.588  12.030  1.00 27.37 LIG 0.27  HD
ATOM     33 HZ2  LYS D   5     -28.238  17.398  11.023  1.00 27.37 LIG 0.27  HD
ATOM     34 HZ3  LYS D   5     -28.495  16.358  12.005  1.00 27.37 LIG 0.27  HD
ENDBRANCH 30 31
ENDBRANCH 29 30
ENDBRANCH 28 29
ENDBRANCH 27 28
ENDBRANCH 23 27
ENDBRANCH 20 23
ENDBRANCH 14 19
ENDBRANCH 12 14
ENDBRANCH 1 10
BRANCH 1 35
ATOM     35  N   LYS D   3     -19.405  23.391  19.873  1.00 13.26 LIG-0.35  N 
ATOM     36  C   SER D   2     -19.039  23.589  21.136  1.00 15.91 LIG 0.24  C 
ATOM     37 O    SER D   2     -19.845  23.842  22.030  1.00 16.67 LIG-0.27  OA
ATOM     38 H    LYS D   3     -18.857  23.214  19.233  1.00 13.26 LIG 0.16  HD
BRANCH 36 39
ATOM     39  CA  SER D   2     -17.546  23.491  21.436  1.00 18.03 LIG 0.20  C 
BRANCH 39 40
ATOM     40  N   SER D   2     -17.105  22.103  21.334  1.00 20.90 LIG-0.34  N 
ATOM     41  C   ALA D   1     -16.216  21.587  22.176  0.60 22.25 LIG 0.25  C 
ATOM     42 O    ALA D   1     -15.699  22.234  23.086  0.60 23.13 LIG-0.27  OA
ATOM     43 H    SER D   2     -17.468  21.663  20.690  1.00 20.90 LIG 0.16  HD
BRANCH 41 44
ATOM     44  CA  ALA D   1     -15.854  20.121  21.957  0.60 22.82 LIG 0.27  C 
ATOM     45  CB  ALA D   1     -17.024  19.231  22.355  0.60 23.19 LIG 0.05  C 
BRANCH 44 46
ATOM     46  N   ALA D   1     -14.645  19.749  22.745  0.60 23.87 LIG-0.07  N 
ATOM     47 H2   ALA D   1     -14.788  19.918  23.607  0.60 23.87 LIG 0.28  HD
ATOM     48 H1   ALA D   1     -13.948  20.225  22.462  0.60 23.87 LIG 0.28  HD
ATOM     49 H3   ALA D   1     -14.475  18.882  22.638  0.60 23.87 LIG 0.28  HD
ENDBRANCH 44 46
ENDBRANCH 41 44
ENDBRANCH 39 40
BRANCH 39 50
ATOM     50  CB  SER D   2     -16.765  24.361  20.448  1.00 19.56 LIG 0.20  C 
BRANCH 50 51
ATOM     51 OG   SER D   2     -15.684  25.015  21.092  1.00 25.44 LIG-0.40  OA
ATOM     52 HG   SER D   2     -15.854  25.097  21.911  1.00 25.44 LIG 0.21  HD
ENDBRANCH 50 51
ENDBRANCH 39 50
ENDBRANCH 36 39
ENDBRANCH 1 35
TORSDOF 24
ENDMDL
MODEL 7
USER: ADFR SOLUTION from run 76
USER: SCORE 20.353315 LL:  -3.243 LR: -19.149 RR:   0.000 FEB: -11.989
USER: RMSD 6.707295
USER: SEED 75
USER: STATUS searching
USER: GENES 26
USER: genes 0 Translation |==|  0.39146 0.39694 0.38737
USER: genes 1 Rotation |==|  0.79707 0.75609 0.76485 0.66131
USER: genes 2 Torsion [C]-CA--CB-[CG] |==|  0.77638
USER: genes 3 Torsion [CA]-CB--CG-[CD] |==|  0.59110
USER: genes 4 Torsion [CB]-CG--CD-[CE] |==|  0.24157
USER: genes 5 Torsion [CG]-CD--CE-[NZ] |==|  0.66176
USER: genes 6 Torsion [CD]-CE--NZ-[HZ3] |==|  0.05715
USER: genes 7 Torsion [N]-CA--C-[N] |==|  0.54567
USER: genes 8 Torsion [C]-N--CA-[CB] |==|  0.23185
USER: genes 9 Torsion [N]-CA--CB-[CG2] |==|  0.24382
USER: genes 10 Torsion [CA]-CB--OG1-[HG1] |==|  0.86169
USER: genes 11 Torsion [N]-CA--C-[N] |==|  0.45000
USER: genes 12 Torsion [C]-N--CA-[CB] |==|  0.45256
USER: genes 13 Torsion [N]-CA--C-[O] |==|  0.10832
USER: genes 14 Torsion [N]-CA--CB-[CG] |==|  0.66718
USER: genes 15 Torsion [CA]-CB--CG-[CD] |==|  0.31852
USER: genes 16 Torsion [CB]-CG--CD-[CE] |==|  0.10757
USER: genes 17 Torsion [CG]-CD--CE-[NZ] |==|  0.15478
USER: genes 18 Torsion [CD]-CE--NZ-[HZ1] |==|  0.37340
USER: genes 19 Torsion [CB]-CA--N-[C] |==|  0.18775
USER: genes 20 Torsion [N]-C--CA-[N] |==|  0.91127
USER: genes 21 Torsion [C]-CA--N-[C] |==|  0.74200
USER: genes 22 Torsion [N]-C--CA-[N] |==|  0.43959
USER: genes 23 Torsion [C]-CA--N-[H2] |==|  0.83855
USER: genes 24 Torsion [C]-CA--CB-[OG] |==|  0.22025
USER: genes 25 Torsion [CA]-CB--OG-[HG] |==|  0.21602
ROOT
ATOM      1  CA  LYS D   3     -25.346  17.908  15.991  1.00 12.74 LIG 0.18  C 
ENDROOT
BRANCH 1 2
ATOM      2  CB  LYS D   3     -24.295  18.348  14.981  1.00 13.63 LIG 0.04  C 
BRANCH 2 3
ATOM      3  CG  LYS D   3     -24.795  19.350  13.953  1.00 18.86 LIG 0.00  C 
BRANCH 3 4
ATOM      4  CD  LYS D   3     -24.080  19.125  12.641  1.00 22.56 LIG 0.03  C 
BRANCH 4 5
ATOM      5  CE  LYS D   3     -24.803  18.077  11.814  1.00 24.97 LIG 0.23  C 
BRANCH 5 6
ATOM      6  NZ  LYS D   3     -23.910  16.937  11.495  1.00 28.16 LIG-0.08  N 
ATOM      7 HZ3  LYS D   3     -23.232  16.920  12.072  1.00 28.16 LIG 0.27  HD
ATOM      8 HZ2  LYS D   3     -23.592  17.030  10.668  1.00 28.16 LIG 0.27  HD
ATOM      9 HZ1  LYS D   3     -24.367  16.175  11.552  1.00 28.16 LIG 0.27  HD
ENDBRANCH 5 6
ENDBRANCH 4 5
ENDBRANCH 3 4
ENDBRANCH 2 3
ENDBRANCH 1 2
BRANCH 1 10
ATOM     10  C   LYS D   3     -25.492  18.956  17.084  1.00 12.20 LIG 0.24  C 
ATOM     11 O    LYS D   3     -26.597  19.282  17.500  1.00 13.71 LIG-0.27  OA
ATOM     12  N   THR D   4     -24.367  19.495  17.532  1.00 12.61 LIG-0.34  N 
ATOM     13 H    THR D   4     -23.587  19.302  17.224  1.00 12.61 LIG 0.16  HD
BRANCH 12 14
ATOM     14  CA  THR D   4     -24.361  20.477  18.605  1.00 12.32 LIG 0.20  C 
BRANCH 14 15
ATOM     15  CB  THR D   4     -24.403  19.766  19.965  1.00 14.29 LIG 0.15  C 
ATOM     16  CG2 THR D   4     -23.006  19.436  20.437  1.00 19.77 LIG 0.04  C 
BRANCH 15 17
ATOM     17 OG1  THR D   4     -25.032  20.625  20.926  1.00 20.60 LIG-0.39  OA
ATOM     18 HG1  THR D   4     -24.680  21.387  20.893  1.00 20.60 LIG 0.21  HD
ENDBRANCH 15 17
ENDBRANCH 14 15
BRANCH 14 19
ATOM     19  C   THR D   4     -23.171  21.428  18.617  1.00 10.70 LIG 0.24  C 
ATOM     20  N   LYS D   5     -23.332  22.536  19.334  1.00 11.43 LIG-0.34  N 
ATOM     21 H    LYS D   5     -24.062  22.734  19.743  1.00 11.43 LIG 0.16  HD
ATOM     22 O    THR D   4     -22.139  21.161  18.005  1.00 10.42 LIG-0.27  OA
BRANCH 20 23
ATOM     23  CA  LYS D   5     -22.275  23.530  19.495  1.00 11.71 LIG 0.18  C 
BRANCH 23 24
ATOM     24  C   LYS D   5     -21.252  22.996  20.495  1.00 11.58 LIG 0.20  C 
ATOM     25 OXT  LYS D   5     -20.741  23.802  21.306  1.00 10.04 LIG-0.65  OA
ATOM     26 O    LYS D   5     -20.963  21.784  20.452  1.00 12.40 LIG-0.65  OA
ENDBRANCH 23 24
BRANCH 23 27
ATOM     27  CB  LYS D   5     -22.842  24.863  19.993  1.00 15.42 LIG 0.04  C 
BRANCH 27 28
ATOM     28  CG  LYS D   5     -22.598  26.030  19.052  1.00 18.22 LIG 0.00  C 
BRANCH 28 29
ATOM     29  CD  LYS D   5     -23.891  26.583  18.472  1.00 24.34 LIG 0.03  C 
BRANCH 29 30
ATOM     30  CE  LYS D   5     -25.018  26.607  19.482  1.00 24.78 LIG 0.23  C 
BRANCH 30 31
ATOM     31  NZ  LYS D   5     -24.613  27.375  20.692  1.00 27.37 LIG-0.08  N 
ATOM     32 HZ1  LYS D   5     -25.269  27.929  20.926  1.00 27.37 LIG 0.27  HD
ATOM     33 HZ2  LYS D   5     -24.449  26.811  21.360  1.00 27.37 LIG 0.27  HD
ATOM     34 HZ3  LYS D   5     -23.878  27.845  20.513  1.00 27.37 LIG 0.27  HD
ENDBRANCH 30 31
ENDBRANCH 29 30
ENDBRANCH 28 29
ENDBRANCH 27 28
ENDBRANCH 23 27
ENDBRANCH 20 23
ENDBRANCH 14 19
ENDBRANCH 12 14
ENDBRANCH 1 10
BRANCH 1 35
ATOM     35  N   LYS D   3     -26.625  17.689  15.330  1.00 13.26 LIG-0.35  N 
ATOM     36  C   SER D   2     -26.794  16.690  14.469  1.00 15.91 LIG 0.24  C 
ATOM     37 O    SER D   2     -25.895  15.902  14.179  1.00 16.67 LIG-0.27  OA
ATOM     38 H    LYS D   3     -27.240  18.252  15.544  1.00 13.26 LIG 0.16  HD
BRANCH 36 39
ATOM     39  CA  SER D   2     -28.178  16.561  13.839  1.00 18.03 LIG 0.20  C 
BRANCH 39 40
ATOM     40  N   SER D   2     -29.200  17.013  14.777  1.00 20.90 LIG-0.34  N 
ATOM     41  C   ALA D   1     -29.819  16.171  15.598  0.60 22.25 LIG 0.25  C 
ATOM     42 O    ALA D   1     -29.587  14.962  15.620  0.60 23.13 LIG-0.27  OA
ATOM     43 H    SER D   2     -29.359  17.858  14.748  1.00 20.90 LIG 0.16  HD
BRANCH 41 44
ATOM     44  CA  ALA D   1     -30.859  16.782  16.532  0.60 22.82 LIG 0.27  C 
ATOM     45  CB  ALA D   1     -30.170  17.427  17.727  0.60 23.19 LIG 0.05  C 
BRANCH 44 46
ATOM     46  N   ALA D   1     -31.824  15.749  17.002  0.60 23.87 LIG-0.07  N 
ATOM     47 H2   ALA D   1     -32.223  15.374  16.301  0.60 23.87 LIG 0.28  HD
ATOM     48 H1   ALA D   1     -32.436  16.131  17.523  0.60 23.87 LIG 0.28  HD
ATOM     49 H3   ALA D   1     -31.390  15.125  17.464  0.60 23.87 LIG 0.28  HD
ENDBRANCH 44 46
ENDBRANCH 41 44
ENDBRANCH 39 40
BRANCH 39 50
ATOM     50  CB  SER D   2     -28.240  17.397  12.558  1.00 19.56 LIG 0.20  C 
BRANCH 50 51
ATOM     51 OG   SER D   2     -27.618  16.720  11.479  1.00 25.44 LIG-0.40  OA
ATOM     52 HG   SER D   2     -28.136  16.127  11.185  1.00 25.44 LIG 0.21  HD
ENDBRANCH 50 51
ENDBRANCH 39 50
ENDBRANCH 36 39
ENDBRANCH 1 35
TORSDOF 24
ENDMDL
MODEL 8
USER: ADFR SOLUTION from run 38
USER: SCORE 21.151544 LL:  -3.367 LR: -19.011 RR:   0.000 FEB: -11.851
USER: RMSD 10.440343
USER: SEED 37
USER: STATUS 1 or 2 clusters left
USER: GENES 26
USER: genes 0 Translation |==|  0.21702 0.35079 0.36810
USER: genes 1 Rotation |==|  0.07307 0.39538 0.48563 0.73787
USER: genes 2 Torsion [C]-CA--CB-[CG] |==|  0.97195
USER: genes 3 Torsion [CA]-CB--CG-[CD] |==|  0.22852
USER: genes 4 Torsion [CB]-CG--CD-[CE] |==|  0.14693
USER: genes 5 Torsion [CG]-CD--CE-[NZ] |==|  0.67237
USER: genes 6 Torsion [CD]-CE--NZ-[HZ3] |==|  0.48221
USER: genes 7 Torsion [N]-CA--C-[N] |==|  0.39972
USER: genes 8 Torsion [C]-N--CA-[CB] |==|  0.58950
USER: genes 9 Torsion [N]-CA--CB-[CG2] |==|  0.62637
USER: genes 10 Torsion [CA]-CB--OG1-[HG1] |==|  0.74346
USER: genes 11 Torsion [N]-CA--C-[N] |==|  0.82773
USER: genes 12 Torsion [C]-N--CA-[CB] |==|  0.32561
USER: genes 13 Torsion [N]-CA--C-[O] |==|  0.17102
USER: genes 14 Torsion [N]-CA--CB-[CG] |==|  0.01558
USER: genes 15 Torsion [CA]-CB--CG-[CD] |==|  0.72499
USER: genes 16 Torsion [CB]-CG--CD-[CE] |==|  0.40924
USER: genes 17 Torsion [CG]-CD--CE-[NZ] |==|  0.55660
USER: genes 18 Torsion [CD]-CE--NZ-[HZ1] |==|  0.53949
USER: genes 19 Torsion [CB]-CA--N-[C] |==|  0.85000
USER: genes 20 Torsion [N]-C--CA-[N] |==|  0.16278
USER: genes 21 Torsion [C]-CA--N-[C] |==|  0.63608
USER: genes 22 Torsion [N]-C--CA-[N] |==|  0.57144
USER: genes 23 Torsion [C]-CA--N-[H2] |==|  0.87858
USER: genes 24 Torsion [C]-CA--CB-[OG] |==|  0.74943
USER: genes 25 Torsion [CA]-CB--OG-[HG] |==|  0.21127
ROOT
ATOM      1  CA  LYS D   3     -30.579  16.524  15.413  1.00 12.74 LIG 0.18  C 
ENDROOT
BRANCH 1 2
ATOM      2  CB  LYS D   3     -31.050  17.969  15.322  1.00 13.63 LIG 0.04  C 
BRANCH 2 3
ATOM      3  CG  LYS D   3     -29.932  18.997  15.399  1.00 18.86 LIG 0.00  C 
BRANCH 3 4
ATOM      4  CD  LYS D   3     -29.295  19.152  14.037  1.00 22.56 LIG 0.03  C 
BRANCH 4 5
ATOM      5  CE  LYS D   3     -30.351  19.445  12.986  1.00 24.97 LIG 0.23  C 
BRANCH 5 6
ATOM      6  NZ  LYS D   3     -30.397  18.375  11.961  1.00 28.16 LIG-0.08  N 
ATOM      7 HZ3  LYS D   3     -31.081  18.519  11.411  1.00 28.16 LIG 0.27  HD
ATOM      8 HZ2  LYS D   3     -30.499  17.586  12.360  1.00 28.16 LIG 0.27  HD
ATOM      9 HZ1  LYS D   3     -29.637  18.375  11.497  1.00 28.16 LIG 0.27  HD
ENDBRANCH 5 6
ENDBRANCH 4 5
ENDBRANCH 3 4
ENDBRANCH 2 3
ENDBRANCH 1 2
BRANCH 1 10
ATOM     10  C   LYS D   3     -29.063  16.460  15.313  1.00 12.20 LIG 0.24  C 
ATOM     11 O    LYS D   3     -28.360  16.613  16.303  1.00 13.71 LIG-0.27  OA
ATOM     12  N   THR D   4     -28.565  16.250  14.102  1.00 12.61 LIG-0.34  N 
ATOM     13 H    THR D   4     -29.046  16.177  13.393  1.00 12.61 LIG 0.16  HD
BRANCH 12 14
ATOM     14  CA  THR D   4     -27.134  16.125  13.873  1.00 12.32 LIG 0.20  C 
BRANCH 14 15
ATOM     15  CB  THR D   4     -26.776  16.677  12.486  1.00 14.29 LIG 0.15  C 
ATOM     16  CG2 THR D   4     -25.842  15.736  11.762  1.00 19.77 LIG 0.04  C 
BRANCH 15 17
ATOM     17 OG1  THR D   4     -27.977  16.832  11.718  1.00 20.60 LIG-0.39  OA
ATOM     18 HG1  THR D   4     -28.114  16.136  11.269  1.00 20.60 LIG 0.21  HD
ENDBRANCH 15 17
ENDBRANCH 14 15
BRANCH 14 19
ATOM     19  C   THR D   4     -26.243  16.824  14.893  1.00 10.70 LIG 0.24  C 
ATOM     20  N   LYS D   5     -26.383  18.145  14.965  1.00 11.43 LIG-0.34  N 
ATOM     21 H    LYS D   5     -26.912  18.592  14.456  1.00 11.43 LIG 0.16  HD
ATOM     22 O    THR D   4     -25.464  16.187  15.598  1.00 10.42 LIG-0.27  OA
BRANCH 20 23
ATOM     23  CA  LYS D   5     -25.647  18.964  15.922  1.00 11.71 LIG 0.18  C 
BRANCH 23 24
ATOM     24  C   LYS D   5     -26.650  19.722  16.788  1.00 11.58 LIG 0.20  C 
ATOM     25 OXT  LYS D   5     -26.627  20.974  16.761  1.00 10.04 LIG-0.65  OA
ATOM     26 O    LYS D   5     -27.439  19.061  17.492  1.00 12.40 LIG-0.65  OA
ENDBRANCH 23 24
BRANCH 23 27
ATOM     27  CB  LYS D   5     -24.725  19.955  15.206  1.00 15.42 LIG 0.04  C 
BRANCH 27 28
ATOM     28  CG  LYS D   5     -24.876  19.962  13.695  1.00 18.22 LIG 0.00  C 
BRANCH 28 29
ATOM     29  CD  LYS D   5     -23.802  19.137  13.004  1.00 24.34 LIG 0.03  C 
BRANCH 29 30
ATOM     30  CE  LYS D   5     -24.298  18.479  11.735  1.00 24.78 LIG 0.23  C 
BRANCH 30 31
ATOM     31  NZ  LYS D   5     -23.422  17.331  11.371  1.00 27.37 LIG-0.08  N 
ATOM     32 HZ1  LYS D   5     -23.590  17.083  10.533  1.00 27.37 LIG 0.27  HD
ATOM     33 HZ2  LYS D   5     -22.569  17.575  11.442  1.00 27.37 LIG 0.27  HD
ATOM     34 HZ3  LYS D   5     -23.582  16.649  11.920  1.00 27.37 LIG 0.27  HD
ENDBRANCH 30 31
ENDBRANCH 29 30
ENDBRANCH 28 29
ENDBRANCH 27 28
ENDBRANCH 23 27
ENDBRANCH 20 23
ENDBRANCH 14 19
ENDBRANCH 12 14
ENDBRANCH 1 10
BRANCH 1 35
ATOM     35  N   LYS D   3     -31.027  15.922  16.662  1.00 13.26 LIG-0.35  N 
ATOM     36  C   SER D   2     -30.761  16.490  17.834  1.00 15.91 LIG 0.24  C 
ATOM     37 O    SER D   2     -30.129  17.540  17.937  1.00 16.67 LIG-0.27  OA
ATOM     38 H    LYS D   3     -31.466  15.188  16.569  1.00 13.26 LIG 0.16  HD
BRANCH 36 39
ATOM     39  CA  SER D   2     -31.281  15.767  19.074  1.00 18.03 LIG 0.20  C 
BRANCH 39 40
ATOM     40  N   SER D   2     -30.733  14.416  19.132  1.00 20.90 LIG-0.34  N 
ATOM     41  C   ALA D   1     -31.505  13.355  19.343  0.60 22.25 LIG 0.25  C 
ATOM     42 O    ALA D   1     -32.722  13.433  19.512  0.60 23.13 LIG-0.27  OA
ATOM     43 H    SER D   2     -29.881  14.373  19.020  1.00 20.90 LIG 0.16  HD
BRANCH 41 44
ATOM     44  CA  ALA D   1     -30.800  12.003  19.371  0.60 22.82 LIG 0.27  C 
ATOM     45  CB  ALA D   1     -29.612  12.016  18.418  0.60 23.19 LIG 0.05  C 
BRANCH 44 46
ATOM     46  N   ALA D   1     -31.736  10.906  18.995  0.60 23.87 LIG-0.07  N 
ATOM     47 H2   ALA D   1     -32.516  11.027  19.407  0.60 23.87 LIG 0.28  HD
ATOM     48 H1   ALA D   1     -31.390  10.124  19.240  0.60 23.87 LIG 0.28  HD
ATOM     49 H3   ALA D   1     -31.863  10.912  18.115  0.60 23.87 LIG 0.28  HD
ENDBRANCH 44 46
ENDBRANCH 41 44
ENDBRANCH 39 40
BRANCH 39 50
ATOM     50  CB  SER D   2     -30.881  16.547  20.329  1.00 19.56 LIG 0.20  C 
BRANCH 50 51
ATOM     51 OG   SER D   2     -29.624  16.112  20.818  1.00 25.44 LIG-0.40  OA
ATOM     52 HG   SER D   2     -29.012  16.424  20.334  1.00 25.44 LIG 0.21  HD
ENDBRANCH 50 51
ENDBRANCH 39 50
ENDBRANCH 36 39
ENDBRANCH 1 35
TORSDOF 24
ENDMDL
MODEL 9
USER: ADFR SOLUTION from run 2
USER: SCORE 20.210383 LL:  -3.524 LR: -18.893 RR:   0.000 FEB: -11.734
USER: RMSD 6.485496
USER: SEED 470113
USER: STATUS no improvement in best 2 clusters for 5 generations
USER: GENES 26
USER: genes 0 Translation |==|  0.43939 0.49032 0.49698
USER: genes 1 Rotation |==|  0.55274 0.56151 0.66633 0.96451
USER: genes 2 Torsion [C]-CA--CB-[CG] |==|  0.41532
USER: genes 3 Torsion [CA]-CB--CG-[CD] |==|  0.75469
USER: genes 4 Torsion [CB]-CG--CD-[CE] |==|  0.32578
USER: genes 5 Torsion [CG]-CD--CE-[NZ] |==|  0.87408
USER: genes 6 Torsion [CD]-CE--NZ-[HZ3] |==|  0.87232
USER: genes 7 Torsion [N]-CA--C-[N] |==|  0.58374
USER: genes 8 Torsion [C]-N--CA-[CB] |==|  0.86369
USER: genes 9 Torsion [N]-CA--CB-[CG2] |==|  0.53347
USER: genes 10 Torsion [CA]-CB--OG1-[HG1] |==|  0.46319
USER: genes 11 Torsion [N]-CA--C-[N] |==|  0.84451
USER: genes 12 Torsion [C]-N--CA-[CB] |==|  0.15735
USER: genes 13 Torsion [N]-CA--C-[O] |==|  0.79813
USER: genes 14 Torsion [N]-CA--CB-[CG] |==|  0.55353
USER: genes 15 Torsion [CA]-CB--CG-[CD] |==|  0.10467
USER: genes 16 Torsion [CB]-CG--CD-[CE] |==|  0.59148
USER: genes 17 Torsion [CG]-CD--CE-[NZ] |==|  0.33161
USER: genes 18 Torsion [CD]-CE--NZ-[HZ1] |==|  0.11045
USER: genes 19 Torsion [CB]-CA--N-[C] |==|  0.37446
USER: genes 20 Torsion [N]-C--CA-[N] |==|  0.46098
USER: genes 21 Torsion [C]-CA--N-[C] |==|  0.62673
USER: genes 22 Torsion [N]-C--CA-[N] |==|  0.46828
USER: genes 23 Torsion [C]-CA--N-[H2] |==|  0.64069
USER: genes 24 Torsion [C]-CA--CB-[OG] |==|  0.37421
USER: genes 25 Torsion [CA]-CB--OG-[HG] |==|  0.10379
ROOT
ATOM      1  CA  LYS D   3     -23.908  20.710  19.279  1.00 12.74 LIG 0.18  C 
ENDROOT
BRANCH 1 2
ATOM      2  CB  LYS D   3     -23.040  19.993  20.304  1.00 13.63 LIG 0.04  C 
BRANCH 2 3
ATOM      3  CG  LYS D   3     -23.781  18.963  21.142  1.00 18.86 LIG 0.00  C 
BRANCH 3 4
ATOM      4  CD  LYS D   3     -24.369  19.635  22.362  1.00 22.56 LIG 0.03  C 
BRANCH 4 5
ATOM      5  CE  LYS D   3     -25.884  19.541  22.343  1.00 24.97 LIG 0.23  C 
BRANCH 5 6
ATOM      6  NZ  LYS D   3     -26.424  19.875  21.002  1.00 28.16 LIG-0.08  N 
ATOM      7 HZ3  LYS D   3     -26.028  20.611  20.698  1.00 28.16 LIG 0.27  HD
ATOM      8 HZ2  LYS D   3     -27.302  20.013  21.062  1.00 28.16 LIG 0.27  HD
ATOM      9 HZ1  LYS D   3     -26.268  19.200  20.443  1.00 28.16 LIG 0.27  HD
ENDBRANCH 5 6
ENDBRANCH 4 5
ENDBRANCH 3 4
ENDBRANCH 2 3
ENDBRANCH 1 2
BRANCH 1 10
ATOM     10  C   LYS D   3     -23.387  22.119  19.047  1.00 12.20 LIG 0.24  C 
ATOM     11 O    LYS D   3     -23.550  22.682  17.972  1.00 13.71 LIG-0.27  OA
ATOM     12  N   THR D   4     -22.741  22.679  20.061  1.00 12.61 LIG-0.34  N 
ATOM     13 H    THR D   4     -22.588  22.283  20.808  1.00 12.61 LIG 0.16  HD
BRANCH 12 14
ATOM     14  CA  THR D   4     -22.229  24.039  19.986  1.00 12.32 LIG 0.20  C 
BRANCH 14 15
ATOM     15  CB  THR D   4     -21.435  24.228  18.686  1.00 14.29 LIG 0.15  C 
ATOM     16  CG2 THR D   4     -20.654  25.521  18.721  1.00 19.77 LIG 0.04  C 
BRANCH 15 17
ATOM     17 OG1  THR D   4     -20.524  23.133  18.527  1.00 20.60 LIG-0.39  OA
ATOM     18 HG1  THR D   4     -20.221  23.131  17.744  1.00 20.60 LIG 0.21  HD
ENDBRANCH 15 17
ENDBRANCH 14 15
BRANCH 14 19
ATOM     19  C   THR D   4     -23.280  25.140  20.051  1.00 10.70 LIG 0.24  C 
ATOM     20  N   LYS D   5     -24.242  25.067  19.136  1.00 11.43 LIG-0.34  N 
ATOM     21 H    LYS D   5     -24.267  24.464  18.523  1.00 11.43 LIG 0.16  HD
ATOM     22 O    THR D   4     -23.227  26.019  20.908  1.00 10.42 LIG-0.27  OA
BRANCH 20 23
ATOM     23  CA  LYS D   5     -25.355  26.009  19.086  1.00 11.71 LIG 0.18  C 
BRANCH 23 24
ATOM     24  C   LYS D   5     -26.230  25.666  17.882  1.00 11.58 LIG 0.20  C 
ATOM     25 OXT  LYS D   5     -27.340  25.125  18.093  1.00 10.04 LIG-0.65  OA
ATOM     26 O    LYS D   5     -25.796  25.930  16.743  1.00 12.40 LIG-0.65  OA
ENDBRANCH 23 24
BRANCH 23 27
ATOM     27  CB  LYS D   5     -24.854  27.451  18.970  1.00 15.42 LIG 0.04  C 
BRANCH 27 28
ATOM     28  CG  LYS D   5     -25.879  28.498  19.370  1.00 18.22 LIG 0.00  C 
BRANCH 28 29
ATOM     29  CD  LYS D   5     -26.721  28.056  20.556  1.00 24.34 LIG 0.03  C 
BRANCH 29 30
ATOM     30  CE  LYS D   5     -28.137  28.587  20.496  1.00 24.78 LIG 0.23  C 
BRANCH 30 31
ATOM     31  NZ  LYS D   5     -29.110  27.460  20.451  1.00 27.37 LIG-0.08  N 
ATOM     32 HZ1  LYS D   5     -28.840  26.813  20.999  1.00 27.37 LIG 0.27  HD
ATOM     33 HZ2  LYS D   5     -29.912  27.750  20.707  1.00 27.37 LIG 0.27  HD
ATOM     34 HZ3  LYS D   5     -29.161  27.144  19.620  1.00 27.37 LIG 0.27  HD
ENDBRANCH 30 31
ENDBRANCH 29 30
ENDBRANCH 28 29
ENDBRANCH 27 28
ENDBRANCH 23 27
ENDBRANCH 20 23
ENDBRANCH 14 19
ENDBRANCH 12 14
ENDBRANCH 1 10
BRANCH 1 35
ATOM     35  N   LYS D   3     -23.931  19.969  18.026  1.00 13.26 LIG-0.35  N 
ATOM     36  C   SER D   2     -25.069  19.759  17.370  1.00 15.91 LIG 0.24  C 
ATOM     37 O    SER D   2     -26.156  20.169  17.775  1.00 16.67 LIG-0.27  OA
ATOM     38 H    LYS D   3     -23.162  19.690  17.761  1.00 13.26 LIG 0.16  HD
BRANCH 36 39
ATOM     39  CA  SER D   2     -24.968  18.969  16.068  1.00 18.03 LIG 0.20  C 
BRANCH 39 40
ATOM     40  N   SER D   2     -26.294  18.535  15.642  1.00 20.90 LIG-0.34  N 
ATOM     41  C   ALA D   1     -26.526  17.294  15.225  0.60 22.25 LIG 0.25  C 
ATOM     42 O    ALA D   1     -25.648  16.434  15.159  0.60 23.13 LIG-0.27  OA
ATOM     43 H    SER D   2     -26.898  19.146  15.685  1.00 20.90 LIG 0.16  HD
BRANCH 41 44
ATOM     44  CA  ALA D   1     -27.961  16.977  14.818  0.60 22.82 LIG 0.27  C 
ATOM     45  CB  ALA D   1     -28.859  16.962  16.048  0.60 23.19 LIG 0.05  C 
BRANCH 44 46
ATOM     46  N   ALA D   1     -28.037  15.663  14.120  0.60 23.87 LIG-0.07  N 
ATOM     47 H2   ALA D   1     -28.482  15.758  13.356  0.60 23.87 LIG 0.28  HD
ATOM     48 H1   ALA D   1     -28.461  15.076  14.638  0.60 23.87 LIG 0.28  HD
ATOM     49 H3   ALA D   1     -27.216  15.368  13.949  0.60 23.87 LIG 0.28  HD
ENDBRANCH 44 46
ENDBRANCH 41 44
ENDBRANCH 39 40
BRANCH 39 50
ATOM     50  CB  SER D   2     -24.332  19.843  14.985  1.00 19.56 LIG 0.20  C 
BRANCH 50 51
ATOM     51 OG   SER D   2     -23.341  19.124  14.269  1.00 25.44 LIG-0.40  OA
ATOM     52 HG   SER D   2     -23.590  18.327  14.169  1.00 25.44 LIG 0.21  HD
ENDBRANCH 50 51
ENDBRANCH 39 50
ENDBRANCH 36 39
ENDBRANCH 1 35
TORSDOF 24
ENDMDL
MODEL 10
USER: ADFR SOLUTION from run 144
USER: SCORE 20.320290 LL:  -3.193 LR: -18.884 RR:   0.000 FEB: -11.725
USER: RMSD 10.948991
USER: SEED 143
USER: STATUS no improvement in best 7 clusters for 5 generations
USER: GENES 26
USER: genes 0 Translation |==|  0.40521 0.45314 0.37834
USER: genes 1 Rotation |==|  0.27918 0.94040 0.41462 0.50043
USER: genes 2 Torsion [C]-CA--CB-[CG] |==|  0.28217
USER: genes 3 Torsion [CA]-CB--CG-[CD] |==|  0.73257
USER: genes 4 Torsion [CB]-CG--CD-[CE] |==|  0.61964
USER: genes 5 Torsion [CG]-CD--CE-[NZ] |==|  0.19497
USER: genes 6 Torsion [CD]-CE--NZ-[HZ3] |==|  0.88653
USER: genes 7 Torsion [N]-CA--C-[N] |==|  0.47876
USER: genes 8 Torsion [C]-N--CA-[CB] |==|  0.76978
USER: genes 9 Torsion [N]-CA--CB-[CG2] |==|  0.63330
USER: genes 10 Torsion [CA]-CB--OG1-[HG1] |==|  0.44054
USER: genes 11 Torsion [N]-CA--C-[N] |==|  0.15000
USER: genes 12 Torsion [C]-N--CA-[CB] |==|  0.86732
USER: genes 13 Torsion [N]-CA--C-[O] |==|  0.04547
USER: genes 14 Torsion [N]-CA--CB-[CG] |==|  0.52694
USER: genes 15 Torsion [CA]-CB--CG-[CD] |==|  0.42116
USER: genes 16 Torsion [CB]-CG--CD-[CE] |==|  0.65591
USER: genes 17 Torsion [CG]-CD--CE-[NZ] |==|  0.86147
USER: genes 18 Torsion [CD]-CE--NZ-[HZ1] |==|  0.82160
USER: genes 19 Torsion [CB]-CA--N-[C] |==|  0.42999
USER: genes 20 Torsion [N]-C--CA-[N] |==|  0.37297
USER: genes 21 Torsion [C]-CA--N-[C] |==|  0.77061
USER: genes 22 Torsion [N]-C--CA-[N] |==|  0.52833
USER: genes 23 Torsion [C]-CA--N-[H2] |==|  0.38467
USER: genes 24 Torsion [C]-CA--CB-[OG] |==|  0.54864
USER: genes 25 Torsion [CA]-CB--OG-[HG] |==|  0.16829
ROOT
ATOM      1  CA  LYS D   3     -24.934  19.594  15.720  1.00 12.74 LIG 0.18  C 
ENDROOT
BRANCH 1 2
ATOM      2  CB  LYS D   3     -24.149  18.754  14.721  1.00 13.63 LIG 0.04  C 
BRANCH 2 3
ATOM      3  CG  LYS D   3     -24.082  19.346  13.322  1.00 18.86 LIG 0.00  C 
BRANCH 3 4
ATOM      4  CD  LYS D   3     -25.161  18.728  12.462  1.00 22.56 LIG 0.03  C 
BRANCH 4 5
ATOM      5  CE  LYS D   3     -24.615  18.387  11.087  1.00 24.97 LIG 0.23  C 
BRANCH 5 6
ATOM      6  NZ  LYS D   3     -23.665  17.250  11.155  1.00 28.16 LIG-0.08  N 
ATOM      7 HZ3  LYS D   3     -23.148  17.338  11.874  1.00 28.16 LIG 0.27  HD
ATOM      8 HZ2  LYS D   3     -23.157  17.243  10.424  1.00 28.16 LIG 0.27  HD
ATOM      9 HZ1  LYS D   3     -24.120  16.486  11.207  1.00 28.16 LIG 0.27  HD
ENDBRANCH 5 6
ENDBRANCH 4 5
ENDBRANCH 3 4
ENDBRANCH 2 3
ENDBRANCH 1 2
BRANCH 1 10
ATOM     10  C   LYS D   3     -26.321  19.005  15.923  1.00 12.20 LIG 0.24  C 
ATOM     11 O    LYS D   3     -26.650  18.523  17.000  1.00 13.71 LIG-0.27  OA
ATOM     12  N   THR D   4     -27.127  19.031  14.871  1.00 12.61 LIG-0.34  N 
ATOM     13 H    THR D   4     -26.898  19.333  14.099  1.00 12.61 LIG 0.16  HD
BRANCH 12 14
ATOM     14  CA  THR D   4     -28.495  18.539  14.940  1.00 12.32 LIG 0.20  C 
BRANCH 14 15
ATOM     15  CB  THR D   4     -28.512  17.015  14.759  1.00 14.29 LIG 0.15  C 
ATOM     16  CG2 THR D   4     -29.557  16.610  13.746  1.00 19.77 LIG 0.04  C 
BRANCH 15 17
ATOM     17 OG1  THR D   4     -27.223  16.581  14.304  1.00 20.60 LIG-0.39  OA
ATOM     18 HG1  THR D   4     -27.125  15.765  14.478  1.00 20.60 LIG 0.21  HD
ENDBRANCH 15 17
ENDBRANCH 14 15
BRANCH 14 19
ATOM     19  C   THR D   4     -29.242  18.861  16.229  1.00 10.70 LIG 0.24  C 
ATOM     20  N   LYS D   5     -29.271  20.146  16.568  1.00 11.43 LIG-0.34  N 
ATOM     21 H    LYS D   5     -28.874  20.763  16.119  1.00 11.43 LIG 0.16  HD
ATOM     22 O    THR D   4     -29.783  17.974  16.887  1.00 10.42 LIG-0.27  OA
BRANCH 20 23
ATOM     23  CA  LYS D   5     -29.986  20.635  17.742  1.00 11.71 LIG 0.18  C 
BRANCH 23 24
ATOM     24  C   LYS D   5     -29.206  20.232  18.991  1.00 11.58 LIG 0.20  C 
ATOM     25 OXT  LYS D   5     -29.790  20.290  20.097  1.00 10.04 LIG-0.65  OA
ATOM     26 O    LYS D   5     -28.019  19.875  18.855  1.00 12.40 LIG-0.65  OA
ENDBRANCH 23 24
BRANCH 23 27
ATOM     27  CB  LYS D   5     -31.404  20.059  17.806  1.00 15.42 LIG 0.04  C 
BRANCH 27 28
ATOM     28  CG  LYS D   5     -32.286  20.697  18.864  1.00 18.22 LIG 0.00  C 
BRANCH 28 29
ATOM     29  CD  LYS D   5     -33.759  20.652  18.492  1.00 24.34 LIG 0.03  C 
BRANCH 29 30
ATOM     30  CE  LYS D   5     -34.400  22.022  18.481  1.00 24.78 LIG 0.23  C 
BRANCH 30 31
ATOM     31  NZ  LYS D   5     -34.091  22.748  19.745  1.00 27.37 LIG-0.08  N 
ATOM     32 HZ1  LYS D   5     -34.458  22.317  20.432  1.00 27.37 LIG 0.27  HD
ATOM     33 HZ2  LYS D   5     -33.208  22.786  19.856  1.00 27.37 LIG 0.27  HD
ATOM     34 HZ3  LYS D   5     -34.420  23.573  19.702  1.00 27.37 LIG 0.27  HD
ENDBRANCH 30 31
ENDBRANCH 29 30
ENDBRANCH 28 29
ENDBRANCH 27 28
ENDBRANCH 23 27
ENDBRANCH 20 23
ENDBRANCH 14 19
ENDBRANCH 12 14
ENDBRANCH 1 10
BRANCH 1 35
ATOM     35  N   LYS D   3     -24.226  19.664  16.991  1.00 13.26 LIG-0.35  N 
ATOM     36  C   SER D   2     -24.410  20.681  17.828  1.00 15.91 LIG 0.24  C 
ATOM     37 O    SER D   2     -25.176  21.613  17.584  1.00 16.67 LIG-0.27  OA
ATOM     38 H    LYS D   3     -23.695  19.004  17.142  1.00 13.26 LIG 0.16  HD
BRANCH 36 39
ATOM     39  CA  SER D   2     -23.613  20.645  19.129  1.00 18.03 LIG 0.20  C 
BRANCH 39 40
ATOM     40  N   SER D   2     -23.018  21.951  19.388  1.00 20.90 LIG-0.34  N 
ATOM     41  C   ALA D   1     -21.876  22.326  18.821  0.60 22.25 LIG 0.25  C 
ATOM     42 O    ALA D   1     -21.240  21.604  18.053  0.60 23.13 LIG-0.27  OA
ATOM     43 H    SER D   2     -23.467  22.444  19.931  1.00 20.90 LIG 0.16  HD
BRANCH 41 44
ATOM     44  CA  ALA D   1     -21.374  23.721  19.174  0.60 22.82 LIG 0.27  C 
ATOM     45  CB  ALA D   1     -22.504  24.732  19.035  0.60 23.19 LIG 0.05  C 
BRANCH 44 46
ATOM     46  N   ALA D   1     -20.234  24.115  18.299  0.60 23.87 LIG-0.07  N 
ATOM     47 H2   ALA D   1     -20.325  24.966  18.057  0.60 23.87 LIG 0.28  HD
ATOM     48 H1   ALA D   1     -20.225  23.599  17.574  0.60 23.87 LIG 0.28  HD
ATOM     49 H3   ALA D   1     -19.469  24.014  18.743  0.60 23.87 LIG 0.28  HD
ENDBRANCH 44 46
ENDBRANCH 41 44
ENDBRANCH 39 40
BRANCH 39 50
ATOM     50  CB  SER D   2     -24.536  20.253  20.286  1.00 19.56 LIG 0.20  C 
BRANCH 50 51
ATOM     51 OG   SER D   2     -23.956  20.591  21.535  1.00 25.44 LIG-0.40  OA
ATOM     52 HG   SER D   2     -23.828  21.421  21.569  1.00 25.44 LIG 0.21  HD
ENDBRANCH 50 51
ENDBRANCH 39 50
ENDBRANCH 36 39
ENDBRANCH 1 35
TORSDOF 24
ENDMDL
