MODEL 1
USER: ADFR SOLUTION from run 57
USER: SCORE 13.939665 LL:  -2.971 LR: -12.818 RR:   0.000 FEB:  -8.344
USER: RMSD 5.425567
USER: SEED 56
USER: STATUS no improvement in best 14 clusters for 5 generations
USER: GENES 17
USER: genes 0 Translation |==|  0.55920 0.51533 0.53708
USER: genes 1 Rotation |==|  0.12789 0.64738 0.77506 0.61897
USER: genes 2 Torsion [C]-N--CA-[CB] |==|  0.46691
USER: genes 3 Torsion [N]-CA--CB-[CG] |==|  0.49876
USER: genes 4 Torsion [CA]-CB--CG-[CD1] |==|  0.35848
USER: genes 5 Torsion [N]-CA--C-[N] |==|  0.90740
USER: genes 6 Torsion [C]-N--CA-[CB] |==|  0.38768
USER: genes 7 Torsion [N]-CA--CB-[CG] |==|  0.85026
USER: genes 8 Torsion [CA]-CB--CG-[ND1] |==|  0.52081
USER: genes 9 Torsion [N]-CA--C-[O] |==|  0.09836
USER: genes 10 Torsion [N]-C--CA-[N] |==|  0.13180
USER: genes 11 Torsion [C]-CA--N-[C] |==|  0.70556
USER: genes 12 Torsion [N]-C--CA-[N] |==|  0.14833
USER: genes 13 Torsion [C]-CA--CB-[CG2] |==|  0.20609
USER: genes 14 Torsion [C]-CA--N-[H3] |==|  0.43251
USER: genes 15 Torsion [C]-CA--CB-[CG] |==|  0.37096
USER: genes 16 Torsion [CA]-CB--CG-[CD1] |==|  0.99444
ROOT
ATOM      1  C   LEU P   2     -18.254  22.780 -13.648  0.50 57.15 LIG 0.24  C 
ATOM      2 O    LEU P   2     -17.379  21.924 -13.476  0.50 57.16 LIG-0.27  OA
ATOM      3  N   LEU P   3     -18.101  24.045 -13.997  0.50 57.16 LIG-0.35  N 
ATOM      4 H    LEU P   3     -18.736  24.611 -13.864  0.50 57.16 LIG 0.16  HD
ENDROOT
BRANCH 3 5
ATOM      5  CA  LEU P   3     -16.976  24.678 -14.602  0.50 57.19 LIG 0.18  C 
BRANCH 5 6
ATOM      6  CB  LEU P   3     -17.241  26.075 -15.123  0.50 57.26 LIG 0.04  C 
BRANCH 6 7
ATOM      7  CG  LEU P   3     -15.881  26.494 -15.693  0.50 57.44 LIG-0.02  C 
ATOM      8  CD1 LEU P   3     -15.997  27.017 -17.113  0.50 57.60 LIG 0.01  C 
ATOM      9  CD2 LEU P   3     -15.152  27.476 -14.780  0.50 57.51 LIG 0.01  C 
ENDBRANCH 6 7
ENDBRANCH 5 6
BRANCH 5 10
ATOM     10  C   LEU P   3     -16.048  24.669 -13.394  0.50 57.14 LIG 0.24  C 
ATOM     11  N   HIS P   4     -16.652  24.806 -12.214  0.50 57.08 LIG-0.35  N 
ATOM     12 H    HIS P   4     -17.504  24.883 -12.129  0.50 57.08 LIG 0.16  HD
ATOM     13 O    LEU P   3     -14.828  24.610 -13.528  0.50 57.14 LIG-0.27  OA
BRANCH 11 14
ATOM     14  CA  HIS P   4     -15.932  24.839 -10.942  0.50 57.02 LIG 0.17  C 
BRANCH 14 15
ATOM     15  CB  HIS P   4     -16.546  25.902 -10.009  0.50 56.94 LIG 0.09  C 
BRANCH 15 16
ATOM     16  CG  HIS P   4     -16.645  27.276 -10.608  0.50 56.80 LIG 0.05  A 
ATOM     17 ND1  HIS P   4     -17.024  28.387  -9.886  0.50 56.77 LIG-0.25  NA
ATOM     18  CE1 HIS P   4     -17.031  29.445 -10.676  0.50 56.50 LIG 0.21  A 
ATOM     19  NE2 HIS P   4     -16.676  29.061 -11.888  0.50 56.43 LIG-0.36  N 
ATOM     20 HE2  HIS P   4     -16.607  29.575 -12.575  0.50 56.43 LIG 0.17  HD
ATOM     21  CD2 HIS P   4     -16.433  27.709 -11.874  0.50 56.57 LIG 0.12  A 
ENDBRANCH 15 16
ENDBRANCH 14 15
BRANCH 14 22
ATOM     22  C   HIS P   4     -15.957  23.458 -10.294  0.50 57.04 LIG 0.22  C 
ATOM     23 O    HIS P   4     -15.905  22.437 -10.979  0.50 57.12 LIG-0.29  OA
ENDBRANCH 14 22
ENDBRANCH 11 14
ENDBRANCH 5 10
ENDBRANCH 3 5
BRANCH 1 24
ATOM     24  CA  LEU P   2     -19.721  22.575 -13.488  0.50 57.16 LIG 0.18  C 
BRANCH 24 25
ATOM     25  N   LEU P   2     -20.675  23.024 -14.469  0.50 57.19 LIG-0.35  N 
ATOM     26  C   VAL P   1     -21.414  24.087 -14.194  0.50 57.27 LIG 0.25  C 
ATOM     27 O    VAL P   1     -21.157  24.855 -13.261  0.50 57.24 LIG-0.27  OA
ATOM     28 H    LEU P   2     -20.712  22.565 -15.195  0.50 57.19 LIG 0.16  HD
BRANCH 26 29
ATOM     29  CA  VAL P   1     -22.576  24.329 -15.135  0.50 57.27 LIG 0.28  C 
BRANCH 29 30
ATOM     30  CB  VAL P   1     -23.435  25.501 -14.628  0.50 57.30 LIG 0.02  C 
ATOM     31  CG2 VAL P   1     -22.732  26.829 -14.869  0.50 57.34 LIG 0.01  C 
ATOM     32  CG1 VAL P   1     -23.780  25.320 -13.156  0.50 57.33 LIG 0.01  C 
ENDBRANCH 29 30
BRANCH 29 33
ATOM     33  N   VAL P   1     -23.371  23.070 -15.187  0.50 57.23 LIG-0.07  N 
ATOM     34 H3   VAL P   1     -24.209  23.257 -15.422  0.50 57.23 LIG 0.28  HD
ATOM     35 H2   VAL P   1     -23.367  22.683 -14.386  0.50 57.23 LIG 0.28  HD
ATOM     36 H1   VAL P   1     -23.012  22.517 -15.786  0.50 57.23 LIG 0.28  HD
ENDBRANCH 29 33
ENDBRANCH 26 29
ENDBRANCH 24 25
BRANCH 24 37
ATOM     37  CB  LEU P   2     -19.792  21.051 -13.334  0.50 57.14 LIG 0.04  C 
BRANCH 37 38
ATOM     38  CG  LEU P   2     -20.579  20.276 -12.300  0.50 56.96 LIG-0.02  C 
ATOM     39  CD1 LEU P   2     -21.266  21.286 -11.386  0.50 57.03 LIG 0.01  C 
ATOM     40  CD2 LEU P   2     -21.574  19.379 -12.989  0.50 56.70 LIG 0.01  C 
ENDBRANCH 37 38
ENDBRANCH 24 37
ENDBRANCH 1 24
TORSDOF 15
ENDMDL
MODEL 2
USER: ADFR SOLUTION from run 95
USER: SCORE 14.006425 LL:  -3.376 LR: -12.812 RR:   0.000 FEB:  -8.337
USER: RMSD 5.551381
USER: SEED 94
USER: STATUS no improvement in best 13 clusters for 5 generations
USER: GENES 17
USER: genes 0 Translation |==|  0.49442 0.52271 0.56051
USER: genes 1 Rotation |==|  0.05912 0.65661 0.51528 0.67567
USER: genes 2 Torsion [C]-N--CA-[CB] |==|  0.07463
USER: genes 3 Torsion [N]-CA--CB-[CG] |==|  0.62291
USER: genes 4 Torsion [CA]-CB--CG-[CD1] |==|  0.60932
USER: genes 5 Torsion [N]-CA--C-[N] |==|  0.39222
USER: genes 6 Torsion [C]-N--CA-[CB] |==|  0.47014
USER: genes 7 Torsion [N]-CA--CB-[CG] |==|  0.93794
USER: genes 8 Torsion [CA]-CB--CG-[ND1] |==|  0.72414
USER: genes 9 Torsion [N]-CA--C-[O] |==|  0.97265
USER: genes 10 Torsion [N]-C--CA-[N] |==|  0.90758
USER: genes 11 Torsion [C]-CA--N-[C] |==|  0.62801
USER: genes 12 Torsion [N]-C--CA-[N] |==|  0.51585
USER: genes 13 Torsion [C]-CA--CB-[CG2] |==|  0.83768
USER: genes 14 Torsion [C]-CA--N-[H3] |==|  0.44682
USER: genes 15 Torsion [C]-CA--CB-[CG] |==|  0.55791
USER: genes 16 Torsion [CA]-CB--CG-[CD1] |==|  0.85013
ROOT
ATOM      1  C   LEU P   2     -20.197  23.001 -12.945  0.50 57.15 LIG 0.24  C 
ATOM      2 O    LEU P   2     -20.252  22.129 -12.070  0.50 57.16 LIG-0.27  OA
ATOM      3  N   LEU P   3     -19.366  24.025 -13.025  0.50 57.16 LIG-0.35  N 
ATOM      4 H    LEU P   3     -19.554  24.696 -13.531  0.50 57.16 LIG 0.16  HD
ENDROOT
BRANCH 3 5
ATOM      5  CA  LEU P   3     -18.118  24.220 -12.365  0.50 57.19 LIG 0.18  C 
BRANCH 5 6
ATOM      6  CB  LEU P   3     -17.395  22.942 -11.991  0.50 57.26 LIG 0.04  C 
BRANCH 6 7
ATOM      7  CG  LEU P   3     -16.920  23.222 -10.560  0.50 57.44 LIG-0.02  C 
ATOM      8  CD1 LEU P   3     -15.527  22.675 -10.307  0.50 57.60 LIG 0.01  C 
ATOM      9  CD2 LEU P   3     -17.030  24.699 -10.196  0.50 57.51 LIG 0.01  C 
ENDBRANCH 6 7
ENDBRANCH 5 6
BRANCH 5 10
ATOM     10  C   LEU P   3     -17.408  24.993 -13.469  0.50 57.14 LIG 0.24  C 
ATOM     11  N   HIS P   4     -16.630  25.991 -13.052  0.50 57.08 LIG-0.35  N 
ATOM     12 H    HIS P   4     -16.521  26.187 -12.222  0.50 57.08 LIG 0.16  HD
ATOM     13 O    LEU P   3     -17.610  24.740 -14.655  0.50 57.14 LIG-0.27  OA
BRANCH 11 14
ATOM     14  CA  HIS P   4     -15.881  26.859 -13.960  0.50 57.02 LIG 0.17  C 
BRANCH 14 15
ATOM     15  CB  HIS P   4     -15.304  28.064 -13.191  0.50 56.94 LIG 0.09  C 
BRANCH 15 16
ATOM     16  CG  HIS P   4     -16.018  28.387 -11.909  0.50 56.80 LIG 0.05  A 
ATOM     17 ND1  HIS P   4     -16.959  29.389 -11.803  0.50 56.77 LIG-0.25  NA
ATOM     18  CE1 HIS P   4     -17.403  29.445 -10.561  0.50 56.50 LIG 0.21  A 
ATOM     19  NE2 HIS P   4     -16.781  28.521  -9.853  0.50 56.43 LIG-0.36  N 
ATOM     20 HE2  HIS P   4     -16.903  28.366  -9.016  0.50 56.43 LIG 0.17  HD
ATOM     21  CD2 HIS P   4     -15.906  27.848 -10.671  0.50 56.57 LIG 0.12  A 
ENDBRANCH 15 16
ENDBRANCH 14 15
BRANCH 14 22
ATOM     22  C   HIS P   4     -14.774  26.063 -14.646  0.50 57.04 LIG 0.22  C 
ATOM     23 O    HIS P   4     -14.496  24.921 -14.279  0.50 57.12 LIG-0.29  OA
ENDBRANCH 14 22
ENDBRANCH 11 14
ENDBRANCH 5 10
ENDBRANCH 3 5
BRANCH 1 24
ATOM     24  CA  LEU P   2     -21.087  23.102 -14.135  0.50 57.16 LIG 0.18  C 
BRANCH 24 25
ATOM     25  N   LEU P   2     -21.484  24.368 -14.698  0.50 57.19 LIG-0.35  N 
ATOM     26  C   VAL P   1     -22.757  24.552 -15.007  0.50 57.27 LIG 0.25  C 
ATOM     27 O    VAL P   1     -23.656  23.802 -14.611  0.50 57.24 LIG-0.27  OA
ATOM     28 H    LEU P   2     -20.856  24.945 -14.804  0.50 57.19 LIG 0.16  HD
BRANCH 26 29
ATOM     29  CA  VAL P   1     -23.049  25.780 -15.844  0.50 57.27 LIG 0.28  C 
BRANCH 29 30
ATOM     30  CB  VAL P   1     -22.458  27.033 -15.174  0.50 57.30 LIG 0.02  C 
ATOM     31  CG2 VAL P   1     -23.030  27.218 -13.776  0.50 57.34 LIG 0.01  C 
ATOM     32  CG1 VAL P   1     -22.695  28.268 -16.034  0.50 57.33 LIG 0.01  C 
ENDBRANCH 29 30
BRANCH 29 33
ATOM     33  N   VAL P   1     -24.530  25.890 -15.966  0.50 57.23 LIG-0.07  N 
ATOM     34 H3   VAL P   1     -24.748  26.720 -16.201  0.50 57.23 LIG 0.28  HD
ATOM     35 H2   VAL P   1     -24.908  25.695 -15.184  0.50 57.23 LIG 0.28  HD
ATOM     36 H1   VAL P   1     -24.820  25.321 -16.586  0.50 57.23 LIG 0.28  HD
ENDBRANCH 29 33
ENDBRANCH 26 29
ENDBRANCH 24 25
BRANCH 24 37
ATOM     37  CB  LEU P   2     -20.298  22.285 -15.165  0.50 57.14 LIG 0.04  C 
BRANCH 37 38
ATOM     38  CG  LEU P   2     -20.426  22.353 -16.671  0.50 56.96 LIG-0.02  C 
ATOM     39  CD1 LEU P   2     -21.894  22.137 -17.024  0.50 57.03 LIG 0.01  C 
ATOM     40  CD2 LEU P   2     -19.923  23.684 -17.162  0.50 56.70 LIG 0.01  C 
ENDBRANCH 37 38
ENDBRANCH 24 37
ENDBRANCH 1 24
TORSDOF 15
ENDMDL
MODEL 3
USER: ADFR SOLUTION from run 129
USER: SCORE 14.133696 LL:  -3.133 LR: -12.705 RR:   0.000 FEB:  -8.230
USER: RMSD 6.041452
USER: SEED 128
USER: STATUS no improvement in best 16 clusters for 5 generations
USER: GENES 17
USER: genes 0 Translation |==|  0.49506 0.51979 0.55696
USER: genes 1 Rotation |==|  0.06222 0.64565 0.52856 0.69058
USER: genes 2 Torsion [C]-N--CA-[CB] |==|  0.06113
USER: genes 3 Torsion [N]-CA--CB-[CG] |==|  0.62066
USER: genes 4 Torsion [CA]-CB--CG-[CD1] |==|  0.60756
USER: genes 5 Torsion [N]-CA--C-[N] |==|  0.40046
USER: genes 6 Torsion [C]-N--CA-[CB] |==|  0.46805
USER: genes 7 Torsion [N]-CA--CB-[CG] |==|  0.93094
USER: genes 8 Torsion [CA]-CB--CG-[ND1] |==|  0.72930
USER: genes 9 Torsion [N]-CA--C-[O] |==|  0.94154
USER: genes 10 Torsion [N]-C--CA-[N] |==|  0.38760
USER: genes 11 Torsion [C]-CA--N-[C] |==|  0.82566
USER: genes 12 Torsion [N]-C--CA-[N] |==|  0.80096
USER: genes 13 Torsion [C]-CA--CB-[CG2] |==|  0.49713
USER: genes 14 Torsion [C]-CA--N-[H3] |==|  0.42861
USER: genes 15 Torsion [C]-CA--CB-[CG] |==|  0.39690
USER: genes 16 Torsion [CA]-CB--CG-[CD1] |==|  0.70500
ROOT
ATOM      1  C   LEU P   2     -20.178  22.914 -13.051  0.50 57.15 LIG 0.24  C 
ATOM      2 O    LEU P   2     -20.175  21.977 -12.245  0.50 57.16 LIG-0.27  OA
ATOM      3  N   LEU P   3     -19.402  23.983 -13.064  0.50 57.16 LIG-0.35  N 
ATOM      4 H    LEU P   3     -19.631  24.679 -13.516  0.50 57.16 LIG 0.16  HD
ENDROOT
BRANCH 3 5
ATOM      5  CA  LEU P   3     -18.155  24.192 -12.405  0.50 57.19 LIG 0.18  C 
BRANCH 5 6
ATOM      6  CB  LEU P   3     -17.416  22.923 -12.033  0.50 57.26 LIG 0.04  C 
BRANCH 6 7
ATOM      7  CG  LEU P   3     -16.925  23.216 -10.610  0.50 57.44 LIG-0.02  C 
ATOM      8  CD1 LEU P   3     -15.530  22.670 -10.367  0.50 57.60 LIG 0.01  C 
ATOM      9  CD2 LEU P   3     -17.029  24.697 -10.259  0.50 57.51 LIG 0.01  C 
ENDBRANCH 6 7
ENDBRANCH 5 6
BRANCH 5 10
ATOM     10  C   LEU P   3     -17.457  24.975 -13.509  0.50 57.14 LIG 0.24  C 
ATOM     11  N   HIS P   4     -16.642  25.943 -13.090  0.50 57.08 LIG-0.35  N 
ATOM     12 H    HIS P   4     -16.506  26.115 -12.259  0.50 57.08 LIG 0.16  HD
ATOM     13 O    LEU P   3     -17.696  24.757 -14.695  0.50 57.14 LIG-0.27  OA
BRANCH 11 14
ATOM     14  CA  HIS P   4     -15.896  26.814 -13.997  0.50 57.02 LIG 0.17  C 
BRANCH 14 15
ATOM     15  CB  HIS P   4     -15.283  27.995 -13.218  0.50 56.94 LIG 0.09  C 
BRANCH 15 16
ATOM     16  CG  HIS P   4     -16.002  28.345 -11.947  0.50 56.80 LIG 0.05  A 
ATOM     17 ND1  HIS P   4     -16.932  29.359 -11.862  0.50 56.77 LIG-0.25  NA
ATOM     18  CE1 HIS P   4     -17.385  29.439 -10.623  0.50 56.50 LIG 0.21  A 
ATOM     19  NE2 HIS P   4     -16.778  28.518  -9.898  0.50 56.43 LIG-0.36  N 
ATOM     20 HE2  HIS P   4     -16.908  28.376  -9.060  0.50 56.43 LIG 0.17  HD
ATOM     21  CD2 HIS P   4     -15.905  27.823 -10.700  0.50 56.57 LIG 0.12  A 
ENDBRANCH 15 16
ENDBRANCH 14 15
BRANCH 14 22
ATOM     22  C   HIS P   4     -14.817  26.012 -14.719  0.50 57.04 LIG 0.22  C 
ATOM     23 O    HIS P   4     -14.407  24.947 -14.259  0.50 57.12 LIG-0.29  OA
ENDBRANCH 14 22
ENDBRANCH 11 14
ENDBRANCH 5 10
ENDBRANCH 3 5
BRANCH 1 24
ATOM     24  CA  LEU P   2     -21.090  23.057 -14.221  0.50 57.16 LIG 0.18  C 
BRANCH 24 25
ATOM     25  N   LEU P   2     -21.446  21.944 -15.064  0.50 57.19 LIG-0.35  N 
ATOM     26  C   VAL P   1     -20.490  21.334 -15.745  0.50 57.27 LIG 0.25  C 
ATOM     27 O    VAL P   1     -19.289  21.502 -15.507  0.50 57.24 LIG-0.27  OA
ATOM     28 H    LEU P   2     -22.280  21.735 -15.076  0.50 57.19 LIG 0.16  HD
BRANCH 26 29
ATOM     29  CA  VAL P   1     -20.969  20.371 -16.812  0.50 57.27 LIG 0.28  C 
BRANCH 29 30
ATOM     30  CB  VAL P   1     -22.036  21.043 -17.694  0.50 57.30 LIG 0.02  C 
ATOM     31  CG2 VAL P   1     -22.508  20.095 -18.787  0.50 57.34 LIG 0.01  C 
ATOM     32  CG1 VAL P   1     -21.506  22.343 -18.285  0.50 57.33 LIG 0.01  C 
ENDBRANCH 29 30
BRANCH 29 33
ATOM     33  N   VAL P   1     -21.529  19.181 -16.113  0.50 57.23 LIG-0.07  N 
ATOM     34 H3   VAL P   1     -22.131  18.785 -16.635  0.50 57.23 LIG 0.28  HD
ATOM     35 H2   VAL P   1     -21.919  19.437 -15.355  0.50 57.23 LIG 0.28  HD
ATOM     36 H1   VAL P   1     -20.873  18.608 -15.929  0.50 57.23 LIG 0.28  HD
ENDBRANCH 29 33
ENDBRANCH 26 29
ENDBRANCH 24 25
BRANCH 24 37
ATOM     37  CB  LEU P   2     -22.340  23.640 -13.552  0.50 57.14 LIG 0.04  C 
BRANCH 37 38
ATOM     38  CG  LEU P   2     -23.276  24.683 -14.124  0.50 56.96 LIG-0.02  C 
ATOM     39  CD1 LEU P   2     -23.012  25.996 -13.392  0.50 57.03 LIG 0.01  C 
ATOM     40  CD2 LEU P   2     -23.043  24.814 -15.606  0.50 56.70 LIG 0.01  C 
ENDBRANCH 37 38
ENDBRANCH 24 37
ENDBRANCH 1 24
TORSDOF 15
ENDMDL
MODEL 4
USER: ADFR SOLUTION from run 58
USER: SCORE 14.180079 LL:  -3.173 LR: -12.377 RR:   0.000 FEB:  -7.902
USER: RMSD 6.531686
USER: SEED 57
USER: STATUS no improvement in best 20 clusters for 5 generations
USER: GENES 17
USER: genes 0 Translation |==|  0.56418 0.54835 0.58538
USER: genes 1 Rotation |==|  0.04280 0.58391 0.67310 0.56298
USER: genes 2 Torsion [C]-N--CA-[CB] |==|  0.84579
USER: genes 3 Torsion [N]-CA--CB-[CG] |==|  0.64524
USER: genes 4 Torsion [CA]-CB--CG-[CD1] |==|  0.41693
USER: genes 5 Torsion [N]-CA--C-[N] |==|  0.12602
USER: genes 6 Torsion [C]-N--CA-[CB] |==|  0.82030
USER: genes 7 Torsion [N]-CA--CB-[CG] |==|  0.89196
USER: genes 8 Torsion [CA]-CB--CG-[ND1] |==|  0.23523
USER: genes 9 Torsion [N]-CA--C-[O] |==|  0.67577
USER: genes 10 Torsion [N]-C--CA-[N] |==|  0.07657
USER: genes 11 Torsion [C]-CA--N-[C] |==|  0.69309
USER: genes 12 Torsion [N]-C--CA-[N] |==|  0.22985
USER: genes 13 Torsion [C]-CA--CB-[CG2] |==|  0.79175
USER: genes 14 Torsion [C]-CA--N-[H3] |==|  0.59467
USER: genes 15 Torsion [C]-CA--CB-[CG] |==|  0.40983
USER: genes 16 Torsion [CA]-CB--CG-[CD1] |==|  0.98153
ROOT
ATOM      1  C   LEU P   2     -18.105  23.770 -12.199  0.50 57.15 LIG 0.24  C 
ATOM      2 O    LEU P   2     -17.252  23.314 -11.428  0.50 57.16 LIG-0.27  OA
ATOM      3  N   LEU P   3     -18.113  24.945 -12.804  0.50 57.16 LIG-0.35  N 
ATOM      4 H    LEU P   3     -18.846  25.261 -13.126  0.50 57.16 LIG 0.16  HD
ENDROOT
BRANCH 3 5
ATOM      5  CA  LEU P   3     -17.030  25.844 -13.029  0.50 57.19 LIG 0.18  C 
BRANCH 5 6
ATOM      6  CB  LEU P   3     -16.282  26.258 -11.779  0.50 57.26 LIG 0.04  C 
BRANCH 6 7
ATOM      7  CG  LEU P   3     -16.289  27.789 -11.865  0.50 57.44 LIG-0.02  C 
ATOM      8  CD1 LEU P   3     -16.276  28.435 -10.491  0.50 57.60 LIG 0.01  C 
ATOM      9  CD2 LEU P   3     -15.170  28.320 -12.757  0.50 57.51 LIG 0.01  C 
ENDBRANCH 6 7
ENDBRANCH 5 6
BRANCH 5 10
ATOM     10  C   LEU P   3     -16.197  24.955 -13.943  0.50 57.14 LIG 0.24  C 
ATOM     11  N   HIS P   4     -16.879  24.333 -14.904  0.50 57.08 LIG-0.35  N 
ATOM     12 H    HIS P   4     -17.727  24.428 -15.016  0.50 57.08 LIG 0.16  HD
ATOM     13 O    LEU P   3     -14.997  24.784 -13.745  0.50 57.14 LIG-0.27  OA
BRANCH 11 14
ATOM     14  CA  HIS P   4     -16.261  23.424 -15.869  0.50 57.02 LIG 0.17  C 
BRANCH 14 15
ATOM     15  CB  HIS P   4     -15.266  24.190 -16.761  0.50 56.94 LIG 0.09  C 
BRANCH 15 16
ATOM     16  CG  HIS P   4     -15.716  25.566 -17.162  0.50 56.80 LIG 0.05  A 
ATOM     17 ND1  HIS P   4     -15.530  26.680 -16.371  0.50 56.77 LIG-0.25  NA
ATOM     18  CE1 HIS P   4     -16.036  27.739 -16.977  0.50 56.50 LIG 0.21  A 
ATOM     19  NE2 HIS P   4     -16.551  27.354 -18.130  0.50 56.43 LIG-0.36  N 
ATOM     20 HE2  HIS P   4     -16.937  27.867 -18.701  0.50 56.43 LIG 0.17  HD
ATOM     21  CD2 HIS P   4     -16.368  25.999 -18.268  0.50 56.57 LIG 0.12  A 
ENDBRANCH 15 16
ENDBRANCH 14 15
BRANCH 14 22
ATOM     22  C   HIS P   4     -15.573  22.276 -15.135  0.50 57.04 LIG 0.22  C 
ATOM     23 O    HIS P   4     -14.354  22.119 -15.210  0.50 57.12 LIG-0.29  OA
ENDBRANCH 14 22
ENDBRANCH 11 14
ENDBRANCH 5 10
ENDBRANCH 3 5
BRANCH 1 24
ATOM     24  CA  LEU P   2     -19.355  23.082 -12.625  0.50 57.16 LIG 0.18  C 
BRANCH 24 25
ATOM     25  N   LEU P   2     -19.996  23.356 -13.886  0.50 57.19 LIG-0.35  N 
ATOM     26  C   VAL P   1     -21.159  23.987 -13.881  0.50 57.27 LIG 0.25  C 
ATOM     27 O    VAL P   1     -21.598  24.571 -12.885  0.50 57.24 LIG-0.27  OA
ATOM     28 H    LEU P   2     -19.576  23.087 -14.587  0.50 57.19 LIG 0.16  HD
BRANCH 26 29
ATOM     29  CA  VAL P   1     -21.900  23.989 -15.203  0.50 57.27 LIG 0.28  C 
BRANCH 29 30
ATOM     30  CB  VAL P   1     -22.874  25.179 -15.265  0.50 57.30 LIG 0.02  C 
ATOM     31  CG2 VAL P   1     -24.097  24.921 -14.396  0.50 57.34 LIG 0.01  C 
ATOM     32  CG1 VAL P   1     -23.274  25.474 -16.704  0.50 57.33 LIG 0.01  C 
ENDBRANCH 29 30
BRANCH 29 33
ATOM     33  N   VAL P   1     -22.633  22.695 -15.300  0.50 57.23 LIG-0.07  N 
ATOM     34 H3   VAL P   1     -22.656  22.429 -16.148  0.50 57.23 LIG 0.28  HD
ATOM     35 H2   VAL P   1     -23.464  22.801 -15.000  0.50 57.23 LIG 0.28  HD
ATOM     36 H1   VAL P   1     -22.216  22.080 -14.808  0.50 57.23 LIG 0.28  HD
ENDBRANCH 29 33
ENDBRANCH 26 29
ENDBRANCH 24 25
BRANCH 24 37
ATOM     37  CB  LEU P   2     -18.923  21.613 -12.555  0.50 57.14 LIG 0.04  C 
BRANCH 37 38
ATOM     38  CG  LEU P   2     -19.792  20.425 -12.202  0.50 56.96 LIG-0.02  C 
ATOM     39  CD1 LEU P   2     -21.152  20.958 -11.760  0.50 57.03 LIG 0.01  C 
ATOM     40  CD2 LEU P   2     -19.910  19.512 -13.393  0.50 56.70 LIG 0.01  C 
ENDBRANCH 37 38
ENDBRANCH 24 37
ENDBRANCH 1 24
TORSDOF 15
ENDMDL
MODEL 5
USER: ADFR SOLUTION from run 80
USER: SCORE 14.172406 LL:  -2.948 LR: -12.266 RR:   0.000 FEB:  -7.792
USER: RMSD 6.795989
USER: SEED 79
USER: STATUS no improvement in best 12 clusters for 5 generations
USER: GENES 17
USER: genes 0 Translation |==|  0.50461 0.51598 0.55666
USER: genes 1 Rotation |==|  0.03917 0.65206 0.39736 0.56303
USER: genes 2 Torsion [C]-N--CA-[CB] |==|  0.20556
USER: genes 3 Torsion [N]-CA--CB-[CG] |==|  0.65198
USER: genes 4 Torsion [CA]-CB--CG-[CD1] |==|  0.56240
USER: genes 5 Torsion [N]-CA--C-[N] |==|  0.44024
USER: genes 6 Torsion [C]-N--CA-[CB] |==|  0.48136
USER: genes 7 Torsion [N]-CA--CB-[CG] |==|  0.90086
USER: genes 8 Torsion [CA]-CB--CG-[ND1] |==|  0.69726
USER: genes 9 Torsion [N]-CA--C-[O] |==|  0.92841
USER: genes 10 Torsion [N]-C--CA-[N] |==|  0.43069
USER: genes 11 Torsion [C]-CA--N-[C] |==|  0.70001
USER: genes 12 Torsion [N]-C--CA-[N] |==|  0.37473
USER: genes 13 Torsion [C]-CA--CB-[CG2] |==|  0.57822
USER: genes 14 Torsion [C]-CA--N-[H3] |==|  0.28134
USER: genes 15 Torsion [C]-CA--CB-[CG] |==|  0.76439
USER: genes 16 Torsion [CA]-CB--CG-[CD1] |==|  0.26547
ROOT
ATOM      1  C   LEU P   2     -19.892  22.799 -13.060  0.50 57.15 LIG 0.24  C 
ATOM      2 O    LEU P   2     -20.313  22.564 -11.922  0.50 57.16 LIG-0.27  OA
ATOM      3  N   LEU P   3     -18.889  23.585 -13.413  0.50 57.16 LIG-0.35  N 
ATOM      4 H    LEU P   3     -18.824  23.864 -14.225  0.50 57.16 LIG 0.16  HD
ENDROOT
BRANCH 3 5
ATOM      5  CA  LEU P   3     -17.819  24.084 -12.616  0.50 57.19 LIG 0.18  C 
BRANCH 5 6
ATOM      6  CB  LEU P   3     -16.759  23.060 -12.268  0.50 57.26 LIG 0.04  C 
BRANCH 6 7
ATOM      7  CG  LEU P   3     -16.698  23.134 -10.737  0.50 57.44 LIG-0.02  C 
ATOM      8  CD1 LEU P   3     -15.375  22.624 -10.196  0.50 57.60 LIG 0.01  C 
ATOM      9  CD2 LEU P   3     -17.030  24.529 -10.216  0.50 57.51 LIG 0.01  C 
ENDBRANCH 6 7
ENDBRANCH 5 6
BRANCH 5 10
ATOM     10  C   LEU P   3     -17.311  25.149 -13.579  0.50 57.14 LIG 0.24  C 
ATOM     11  N   HIS P   4     -16.597  26.126 -13.020  0.50 57.08 LIG-0.35  N 
ATOM     12 H    HIS P   4     -16.422  26.157 -12.179  0.50 57.08 LIG 0.16  HD
ATOM     13 O    LEU P   3     -17.609  25.124 -14.771  0.50 57.14 LIG-0.27  OA
BRANCH 11 14
ATOM     14  CA  HIS P   4     -16.039  27.247 -13.775  0.50 57.02 LIG 0.17  C 
BRANCH 14 15
ATOM     15  CB  HIS P   4     -15.418  28.280 -12.815  0.50 56.94 LIG 0.09  C 
BRANCH 15 16
ATOM     16  CG  HIS P   4     -16.152  28.446 -11.515  0.50 56.80 LIG 0.05  A 
ATOM     17 ND1  HIS P   4     -16.884  29.571 -11.201  0.50 56.77 LIG-0.25  NA
ATOM     18  CE1 HIS P   4     -17.405  29.436  -9.995  0.50 56.50 LIG 0.21  A 
ATOM     19  NE2 HIS P   4     -17.033  28.266  -9.510  0.50 56.43 LIG-0.36  N 
ATOM     20 HE2  HIS P   4     -17.249  27.953  -8.738  0.50 56.43 LIG 0.17  HD
ATOM     21  CD2 HIS P   4     -16.246  27.629 -10.438  0.50 56.57 LIG 0.12  A 
ENDBRANCH 15 16
ENDBRANCH 14 15
BRANCH 14 22
ATOM     22  C   HIS P   4     -15.007  26.736 -14.777  0.50 57.04 LIG 0.22  C 
ATOM     23 O    HIS P   4     -14.402  25.682 -14.580  0.50 57.12 LIG-0.29  OA
ENDBRANCH 14 22
ENDBRANCH 11 14
ENDBRANCH 5 10
ENDBRANCH 3 5
BRANCH 1 24
ATOM     24  CA  LEU P   2     -20.440  22.241 -14.328  0.50 57.16 LIG 0.18  C 
BRANCH 24 25
ATOM     25  N   LEU P   2     -21.155  20.991 -14.376  0.50 57.19 LIG-0.35  N 
ATOM     26  C   VAL P   1     -20.562  19.944 -14.926  0.50 57.27 LIG 0.25  C 
ATOM     27 O    VAL P   1     -19.351  19.913 -15.170  0.50 57.24 LIG-0.27  OA
ATOM     28 H    LEU P   2     -21.945  20.997 -14.037  0.50 57.19 LIG 0.16  HD
BRANCH 26 29
ATOM     29  CA  VAL P   1     -21.464  18.757 -15.195  0.50 57.27 LIG 0.28  C 
BRANCH 29 30
ATOM     30  CB  VAL P   1     -21.218  17.654 -14.150  0.50 57.30 LIG 0.02  C 
ATOM     31  CG2 VAL P   1     -21.530  16.283 -14.729  0.50 57.34 LIG 0.01  C 
ATOM     32  CG1 VAL P   1     -22.029  17.917 -12.888  0.50 57.33 LIG 0.01  C 
ENDBRANCH 29 30
BRANCH 29 33
ATOM     33  N   VAL P   1     -21.154  18.268 -16.568  0.50 57.23 LIG-0.07  N 
ATOM     34 H3   VAL P   1     -20.633  17.548 -16.516  0.50 57.23 LIG 0.28  HD
ATOM     35 H2   VAL P   1     -20.732  18.906 -17.022  0.50 57.23 LIG 0.28  HD
ATOM     36 H1   VAL P   1     -21.911  18.057 -16.986  0.50 57.23 LIG 0.28  HD
ENDBRANCH 29 33
ENDBRANCH 26 29
ENDBRANCH 24 25
BRANCH 24 37
ATOM     37  CB  LEU P   2     -21.343  23.390 -14.791  0.50 57.14 LIG 0.04  C 
BRANCH 37 38
ATOM     38  CG  LEU P   2     -22.773  23.651 -14.369  0.50 56.96 LIG-0.02  C 
ATOM     39  CD1 LEU P   2     -22.743  24.660 -13.225  0.50 57.03 LIG 0.01  C 
ATOM     40  CD2 LEU P   2     -23.562  24.163 -15.544  0.50 56.70 LIG 0.01  C 
ENDBRANCH 37 38
ENDBRANCH 24 37
ENDBRANCH 1 24
TORSDOF 15
ENDMDL
MODEL 6
USER: ADFR SOLUTION from run 76
USER: SCORE 14.524956 LL:  -3.274 LR: -12.230 RR:   0.000 FEB:  -7.755
USER: RMSD 6.862286
USER: SEED 75
USER: STATUS no improvement in best 21 clusters for 5 generations
USER: GENES 17
USER: genes 0 Translation |==|  0.58308 0.55693 0.57756
USER: genes 1 Rotation |==|  0.07345 0.52994 0.72998 0.61946
USER: genes 2 Torsion [C]-N--CA-[CB] |==|  0.79444
USER: genes 3 Torsion [N]-CA--CB-[CG] |==|  0.61406
USER: genes 4 Torsion [CA]-CB--CG-[CD1] |==|  0.98008
USER: genes 5 Torsion [N]-CA--C-[N] |==|  0.20120
USER: genes 6 Torsion [C]-N--CA-[CB] |==|  0.23974
USER: genes 7 Torsion [N]-CA--CB-[CG] |==|  0.63761
USER: genes 8 Torsion [CA]-CB--CG-[ND1] |==|  0.42225
USER: genes 9 Torsion [N]-CA--C-[O] |==|  0.19267
USER: genes 10 Torsion [N]-C--CA-[N] |==|  0.04462
USER: genes 11 Torsion [C]-CA--N-[C] |==|  0.57620
USER: genes 12 Torsion [N]-C--CA-[N] |==|  0.42908
USER: genes 13 Torsion [C]-CA--CB-[CG2] |==|  0.81940
USER: genes 14 Torsion [C]-CA--N-[H3] |==|  0.68543
USER: genes 15 Torsion [C]-CA--CB-[CG] |==|  0.29520
USER: genes 16 Torsion [CA]-CB--CG-[CD1] |==|  0.72664
ROOT
ATOM      1  C   LEU P   2     -17.538  24.028 -12.433  0.50 57.15 LIG 0.24  C 
ATOM      2 O    LEU P   2     -16.508  23.490 -12.011  0.50 57.16 LIG-0.27  OA
ATOM      3  N   LEU P   3     -17.778  25.317 -12.594  0.50 57.16 LIG-0.35  N 
ATOM      4 H    LEU P   3     -18.588  25.600 -12.667  0.50 57.16 LIG 0.16  HD
ENDROOT
BRANCH 3 5
ATOM      5  CA  LEU P   3     -16.853  26.399 -12.670  0.50 57.19 LIG 0.18  C 
BRANCH 5 6
ATOM      6  CB  LEU P   3     -16.222  26.785 -11.349  0.50 57.26 LIG 0.04  C 
BRANCH 6 7
ATOM      7  CG  LEU P   3     -16.219  28.318 -11.404  0.50 57.44 LIG-0.02  C 
ATOM      8  CD1 LEU P   3     -16.655  28.838 -12.762  0.50 57.60 LIG 0.01  C 
ATOM      9  CD2 LEU P   3     -17.028  28.936 -10.268  0.50 57.51 LIG 0.01  C 
ENDBRANCH 6 7
ENDBRANCH 5 6
BRANCH 5 10
ATOM     10  C   LEU P   3     -15.857  25.763 -13.631  0.50 57.14 LIG 0.24  C 
ATOM     11  N   HIS P   4     -16.273  25.660 -14.893  0.50 57.08 LIG-0.35  N 
ATOM     12 H    HIS P   4     -17.042  25.939 -15.158  0.50 57.08 LIG 0.16  HD
ATOM     13 O    LEU P   3     -14.782  25.320 -13.234  0.50 57.14 LIG-0.27  OA
BRANCH 11 14
ATOM     14  CA  HIS P   4     -15.469  25.063 -15.959  0.50 57.02 LIG 0.17  C 
BRANCH 14 15
ATOM     15  CB  HIS P   4     -15.678  23.536 -15.993  0.50 56.94 LIG 0.09  C 
BRANCH 15 16
ATOM     16  CG  HIS P   4     -14.410  22.733 -16.023  0.50 56.80 LIG 0.05  A 
ATOM     17 ND1  HIS P   4     -14.314  21.456 -15.512  0.50 56.77 LIG-0.25  NA
ATOM     18  CE1 HIS P   4     -13.081  21.009 -15.670  0.50 56.50 LIG 0.21  A 
ATOM     19  NE2 HIS P   4     -12.370  21.951 -16.260  0.50 56.43 LIG-0.36  N 
ATOM     20 HE2  HIS P   4     -11.537  21.892 -16.468  0.50 56.43 LIG 0.17  HD
ATOM     21  CD2 HIS P   4     -13.175  23.041 -16.487  0.50 56.57 LIG 0.12  A 
ENDBRANCH 15 16
ENDBRANCH 14 15
BRANCH 14 22
ATOM     22  C   HIS P   4     -15.828  25.698 -17.299  0.50 57.04 LIG 0.22  C 
ATOM     23 O    HIS P   4     -15.530  26.867 -17.545  0.50 57.12 LIG-0.29  OA
ENDBRANCH 14 22
ENDBRANCH 11 14
ENDBRANCH 5 10
ENDBRANCH 3 5
BRANCH 1 24
ATOM     24  CA  LEU P   2     -18.779  23.324 -12.862  0.50 57.16 LIG 0.18  C 
BRANCH 24 25
ATOM     25  N   LEU P   2     -19.803  23.970 -13.642  0.50 57.19 LIG-0.35  N 
ATOM     26  C   VAL P   1     -21.049  23.539 -13.532  0.50 57.27 LIG 0.25  C 
ATOM     27 O    VAL P   1     -21.419  22.790 -12.621  0.50 57.24 LIG-0.27  OA
ATOM     28 H    LEU P   2     -19.540  24.614 -14.147  0.50 57.19 LIG 0.16  HD
BRANCH 26 29
ATOM     29  CA  VAL P   1     -22.011  24.066 -14.576  0.50 57.27 LIG 0.28  C 
BRANCH 29 30
ATOM     30  CB  VAL P   1     -22.561  25.439 -14.147  0.50 57.30 LIG 0.02  C 
ATOM     31  CG2 VAL P   1     -23.404  25.313 -12.887  0.50 57.34 LIG 0.01  C 
ATOM     32  CG1 VAL P   1     -23.355  26.079 -15.278  0.50 57.33 LIG 0.01  C 
ENDBRANCH 29 30
BRANCH 29 33
ATOM     33  N   VAL P   1     -23.112  23.070 -14.706  0.50 57.23 LIG-0.07  N 
ATOM     34 H3   VAL P   1     -23.079  22.695 -15.513  0.50 57.23 LIG 0.28  HD
ATOM     35 H2   VAL P   1     -23.896  23.478 -14.601  0.50 57.23 LIG 0.28  HD
ATOM     36 H1   VAL P   1     -23.018  22.441 -14.083  0.50 57.23 LIG 0.28  HD
ENDBRANCH 29 33
ENDBRANCH 26 29
ENDBRANCH 24 25
BRANCH 24 37
ATOM     37  CB  LEU P   2     -18.194  22.134 -13.632  0.50 57.14 LIG 0.04  C 
BRANCH 37 38
ATOM     38  CG  LEU P   2     -18.143  20.692 -13.177  0.50 56.96 LIG-0.02  C 
ATOM     39  CD1 LEU P   2     -16.750  20.431 -12.611  0.50 57.03 LIG 0.01  C 
ATOM     40  CD2 LEU P   2     -19.217  20.446 -12.151  0.50 56.70 LIG 0.01  C 
ENDBRANCH 37 38
ENDBRANCH 24 37
ENDBRANCH 1 24
TORSDOF 15
ENDMDL
MODEL 7
USER: ADFR SOLUTION from run 40
USER: SCORE 13.183945 LL:  -3.272 LR: -12.181 RR:   0.000 FEB:  -7.707
USER: RMSD 4.707417
USER: SEED 39
USER: STATUS no improvement in best 11 clusters for 5 generations
USER: GENES 17
USER: genes 0 Translation |==|  0.47702 0.53282 0.53811
USER: genes 1 Rotation |==|  0.68375 0.10904 0.75126 0.51600
USER: genes 2 Torsion [C]-N--CA-[CB] |==|  0.33180
USER: genes 3 Torsion [N]-CA--CB-[CG] |==|  0.00066
USER: genes 4 Torsion [CA]-CB--CG-[CD1] |==|  0.27704
USER: genes 5 Torsion [N]-CA--C-[N] |==|  0.18493
USER: genes 6 Torsion [C]-N--CA-[CB] |==|  0.48660
USER: genes 7 Torsion [N]-CA--CB-[CG] |==|  0.68285
USER: genes 8 Torsion [CA]-CB--CG-[ND1] |==|  0.97985
USER: genes 9 Torsion [N]-CA--C-[O] |==|  0.27232
USER: genes 10 Torsion [N]-C--CA-[N] |==|  0.15495
USER: genes 11 Torsion [C]-CA--N-[C] |==|  0.68638
USER: genes 12 Torsion [N]-C--CA-[N] |==|  0.80696
USER: genes 13 Torsion [C]-CA--CB-[CG2] |==|  0.46680
USER: genes 14 Torsion [C]-CA--N-[H3] |==|  0.43079
USER: genes 15 Torsion [C]-CA--CB-[CG] |==|  0.75224
USER: genes 16 Torsion [CA]-CB--CG-[CD1] |==|  0.31085
ROOT
ATOM      1  C   LEU P   2     -20.719  23.305 -13.617  0.50 57.15 LIG 0.24  C 
ATOM      2 O    LEU P   2     -21.236  24.195 -12.932  0.50 57.16 LIG-0.27  OA
ATOM      3  N   LEU P   3     -19.946  22.311 -13.215  0.50 57.16 LIG-0.35  N 
ATOM      4 H    LEU P   3     -19.453  21.890 -13.781  0.50 57.16 LIG 0.16  HD
ENDROOT
BRANCH 3 5
ATOM      5  CA  LEU P   3     -19.779  21.780 -11.902  0.50 57.19 LIG 0.18  C 
BRANCH 5 6
ATOM      6  CB  LEU P   3     -20.153  20.319 -11.760  0.50 57.26 LIG 0.04  C 
BRANCH 6 7
ATOM      7  CG  LEU P   3     -20.593  19.937 -13.179  0.50 57.44 LIG-0.02  C 
ATOM      8  CD1 LEU P   3     -19.497  19.210 -13.937  0.50 57.60 LIG 0.01  C 
ATOM      9  CD2 LEU P   3     -21.905  19.157 -13.183  0.50 57.51 LIG 0.01  C 
ENDBRANCH 6 7
ENDBRANCH 5 6
BRANCH 5 10
ATOM     10  C   LEU P   3     -18.282  22.019 -11.762  0.50 57.14 LIG 0.24  C 
ATOM     11  N   HIS P   4     -17.913  23.299 -11.719  0.50 57.08 LIG-0.35  N 
ATOM     12 H    HIS P   4     -18.473  23.950 -11.757  0.50 57.08 LIG 0.16  HD
ATOM     13 O    LEU P   3     -17.485  21.083 -11.760  0.50 57.14 LIG-0.27  OA
BRANCH 11 14
ATOM     14  CA  HIS P   4     -16.521  23.731 -11.604  0.50 57.02 LIG 0.17  C 
BRANCH 14 15
ATOM     15  CB  HIS P   4     -16.429  25.266 -11.703  0.50 56.94 LIG 0.09  C 
BRANCH 15 16
ATOM     16  CG  HIS P   4     -15.707  25.772 -12.919  0.50 56.80 LIG 0.05  A 
ATOM     17 ND1  HIS P   4     -15.043  24.945 -13.800  0.50 56.77 LIG-0.25  NA
ATOM     18  CE1 HIS P   4     -14.499  25.671 -14.760  0.50 56.50 LIG 0.21  A 
ATOM     19  NE2 HIS P   4     -14.780  26.940 -14.533  0.50 56.43 LIG-0.36  N 
ATOM     20 HE2  HIS P   4     -14.533  27.602 -15.023  0.50 56.43 LIG 0.17  HD
ATOM     21  CD2 HIS P   4     -15.531  27.031 -13.386  0.50 56.57 LIG 0.12  A 
ENDBRANCH 15 16
ENDBRANCH 14 15
BRANCH 14 22
ATOM     22  C   HIS P   4     -15.926  23.227 -10.292  0.50 57.04 LIG 0.22  C 
ATOM     23 O    HIS P   4     -15.240  22.205 -10.260  0.50 57.12 LIG-0.29  OA
ENDBRANCH 14 22
ENDBRANCH 11 14
ENDBRANCH 5 10
ENDBRANCH 3 5
BRANCH 1 24
ATOM     24  CA  LEU P   2     -20.849  23.150 -15.093  0.50 57.16 LIG 0.18  C 
BRANCH 24 25
ATOM     25  N   LEU P   2     -21.329  21.937 -15.704  0.50 57.19 LIG-0.35  N 
ATOM     26  C   VAL P   1     -20.488  21.219 -16.431  0.50 57.27 LIG 0.25  C 
ATOM     27 O    VAL P   1     -19.266  21.395 -16.407  0.50 57.24 LIG-0.27  OA
ATOM     28 H    LEU P   2     -22.154  21.744 -15.558  0.50 57.19 LIG 0.16  HD
BRANCH 26 29
ATOM     29  CA  VAL P   1     -21.124  20.125 -17.263  0.50 57.27 LIG 0.28  C 
BRANCH 29 30
ATOM     30  CB  VAL P   1     -22.283  20.698 -18.098  0.50 57.30 LIG 0.02  C 
ATOM     31  CG2 VAL P   1     -22.739  19.695 -19.148  0.50 57.34 LIG 0.01  C 
ATOM     32  CG1 VAL P   1     -21.884  22.021 -18.738  0.50 57.33 LIG 0.01  C 
ENDBRANCH 29 30
BRANCH 29 33
ATOM     33  N   VAL P   1     -21.614  19.080 -16.320  0.50 57.23 LIG-0.07  N 
ATOM     34 H3   VAL P   1     -22.280  18.627 -16.697  0.50 57.23 LIG 0.28  HD
ATOM     35 H2   VAL P   1     -21.905  19.467 -15.573  0.50 57.23 LIG 0.28  HD
ATOM     36 H1   VAL P   1     -20.949  18.521 -16.124  0.50 57.23 LIG 0.28  HD
ENDBRANCH 29 33
ENDBRANCH 26 29
ENDBRANCH 24 25
BRANCH 24 37
ATOM     37  CB  LEU P   2     -21.778  24.322 -15.433  0.50 57.14 LIG 0.04  C 
BRANCH 37 38
ATOM     38  CG  LEU P   2     -23.291  24.305 -15.459  0.50 56.96 LIG-0.02  C 
ATOM     39  CD1 LEU P   2     -23.786  25.180 -14.311  0.50 57.03 LIG 0.01  C 
ATOM     40  CD2 LEU P   2     -23.779  24.806 -16.792  0.50 56.70 LIG 0.01  C 
ENDBRANCH 37 38
ENDBRANCH 24 37
ENDBRANCH 1 24
TORSDOF 15
ENDMDL
MODEL 8
USER: ADFR SOLUTION from run 56
USER: SCORE 14.391226 LL:  -2.968 LR: -12.111 RR:   0.000 FEB:  -7.636
USER: RMSD 5.402972
USER: SEED 55
USER: STATUS no improvement in best 7 clusters for 5 generations
USER: GENES 17
USER: genes 0 Translation |==|  0.51488 0.47540 0.60207
USER: genes 1 Rotation |==|  0.10151 0.65061 0.68509 0.68512
USER: genes 2 Torsion [C]-N--CA-[CB] |==|  0.73981
USER: genes 3 Torsion [N]-CA--CB-[CG] |==|  0.60939
USER: genes 4 Torsion [CA]-CB--CG-[CD1] |==|  0.97225
USER: genes 5 Torsion [N]-CA--C-[N] |==|  0.16732
USER: genes 6 Torsion [C]-N--CA-[CB] |==|  0.17209
USER: genes 7 Torsion [N]-CA--CB-[CG] |==|  0.73725
USER: genes 8 Torsion [CA]-CB--CG-[ND1] |==|  0.37034
USER: genes 9 Torsion [N]-CA--C-[O] |==|  0.93476
USER: genes 10 Torsion [N]-C--CA-[N] |==|  0.17382
USER: genes 11 Torsion [C]-CA--N-[C] |==|  0.77920
USER: genes 12 Torsion [N]-C--CA-[N] |==|  0.94481
USER: genes 13 Torsion [C]-CA--CB-[CG2] |==|  0.42176
USER: genes 14 Torsion [C]-CA--N-[H3] |==|  0.03368
USER: genes 15 Torsion [C]-CA--CB-[CG] |==|  0.79782
USER: genes 16 Torsion [CA]-CB--CG-[CD1] |==|  0.59923
ROOT
ATOM      1  C   LEU P   2     -19.584  21.582 -11.698  0.50 57.15 LIG 0.24  C 
ATOM      2 O    LEU P   2     -19.031  20.555 -11.289  0.50 57.16 LIG-0.27  OA
ATOM      3  N   LEU P   3     -19.064  22.790 -11.834  0.50 57.16 LIG-0.35  N 
ATOM      4 H    LEU P   3     -19.578  23.477 -11.900  0.50 57.16 LIG 0.16  HD
ENDROOT
BRANCH 3 5
ATOM      5  CA  LEU P   3     -17.693  23.173 -11.895  0.50 57.19 LIG 0.18  C 
BRANCH 5 6
ATOM      6  CB  LEU P   3     -17.090  23.574 -10.564  0.50 57.26 LIG 0.04  C 
BRANCH 6 7
ATOM      7  CG  LEU P   3     -16.199  24.766 -10.935  0.50 57.44 LIG-0.02  C 
ATOM      8  CD1 LEU P   3     -16.063  24.927 -12.438  0.50 57.60 LIG 0.01  C 
ATOM      9  CD2 LEU P   3     -16.655  26.056 -10.260  0.50 57.51 LIG 0.01  C 
ENDBRANCH 6 7
ENDBRANCH 5 6
BRANCH 5 10
ATOM     10  C   LEU P   3     -17.126  21.863 -12.425  0.50 57.14 LIG 0.24  C 
ATOM     11  N   HIS P   4     -17.602  21.477 -13.608  0.50 57.08 LIG-0.35  N 
ATOM     12 H    HIS P   4     -18.180  21.932 -14.053  0.50 57.08 LIG 0.16  HD
ATOM     13 O    LEU P   3     -16.338  21.194 -11.760  0.50 57.14 LIG-0.27  OA
BRANCH 11 14
ATOM     14  CA  HIS P   4     -17.194  20.240 -14.274  0.50 57.02 LIG 0.17  C 
BRANCH 14 15
ATOM     15  CB  HIS P   4     -17.574  19.020 -13.412  0.50 56.94 LIG 0.09  C 
BRANCH 15 16
ATOM     16  CG  HIS P   4     -16.477  18.523 -12.515  0.50 56.80 LIG 0.05  A 
ATOM     17 ND1  HIS P   4     -16.671  18.217 -11.185  0.50 56.77 LIG-0.25  NA
ATOM     18  CE1 HIS P   4     -15.529  17.817 -10.654  0.50 56.50 LIG 0.21  A 
ATOM     19  NE2 HIS P   4     -14.598  17.858 -11.589  0.50 56.43 LIG-0.36  N 
ATOM     20 HE2  HIS P   4     -13.772  17.643 -11.481  0.50 56.43 LIG 0.17  HD
ATOM     21  CD2 HIS P   4     -15.163  18.300 -12.761  0.50 56.57 LIG 0.12  A 
ENDBRANCH 15 16
ENDBRANCH 14 15
BRANCH 14 22
ATOM     22  C   HIS P   4     -17.834  20.158 -15.657  0.50 57.04 LIG 0.22  C 
ATOM     23 O    HIS P   4     -18.866  20.778 -15.914  0.50 57.12 LIG-0.29  OA
ENDBRANCH 14 22
ENDBRANCH 11 14
ENDBRANCH 5 10
ENDBRANCH 3 5
BRANCH 1 24
ATOM     24  CA  LEU P   2     -21.003  21.696 -12.135  0.50 57.16 LIG 0.18  C 
BRANCH 24 25
ATOM     25  N   LEU P   2     -21.371  22.060 -13.480  0.50 57.19 LIG-0.35  N 
ATOM     26  C   VAL P   1     -21.331  23.337 -13.823  0.50 57.27 LIG 0.25  C 
ATOM     27 O    VAL P   1     -20.763  24.195 -13.140  0.50 57.24 LIG-0.27  OA
ATOM     28 H    LEU P   2     -21.601  21.410 -13.994  0.50 57.19 LIG 0.16  HD
BRANCH 26 29
ATOM     29  CA  VAL P   1     -21.993  23.672 -15.144  0.50 57.27 LIG 0.28  C 
BRANCH 29 30
ATOM     30  CB  VAL P   1     -23.389  24.273 -14.902  0.50 57.30 LIG 0.02  C 
ATOM     31  CG2 VAL P   1     -23.774  25.214 -16.034  0.50 57.34 LIG 0.01  C 
ATOM     32  CG1 VAL P   1     -23.445  24.981 -13.555  0.50 57.33 LIG 0.01  C 
ENDBRANCH 29 30
BRANCH 29 33
ATOM     33  N   VAL P   1     -22.086  22.406 -15.925  0.50 57.23 LIG-0.07  N 
ATOM     34 H3   VAL P   1     -21.904  21.716 -15.395  0.50 57.23 LIG 0.28  HD
ATOM     35 H2   VAL P   1     -21.502  22.427 -16.595  0.50 57.23 LIG 0.28  HD
ATOM     36 H1   VAL P   1     -22.910  22.320 -16.252  0.50 57.23 LIG 0.28  HD
ENDBRANCH 29 33
ENDBRANCH 26 29
ENDBRANCH 24 25
BRANCH 24 37
ATOM     37  CB  LEU P   2     -21.530  20.296 -11.799  0.50 57.14 LIG 0.04  C 
BRANCH 37 38
ATOM     38  CG  LEU P   2     -21.224  19.008 -12.532  0.50 56.96 LIG-0.02  C 
ATOM     39  CD1 LEU P   2     -22.485  18.149 -12.510  0.50 57.03 LIG 0.01  C 
ATOM     40  CD2 LEU P   2     -20.784  19.318 -13.938  0.50 56.70 LIG 0.01  C 
ENDBRANCH 37 38
ENDBRANCH 24 37
ENDBRANCH 1 24
TORSDOF 15
ENDMDL
MODEL 9
USER: ADFR SOLUTION from run 16
USER: SCORE 13.733505 LL:  -3.052 LR: -12.021 RR:   0.000 FEB:  -7.546
USER: RMSD 4.266245
USER: SEED 178594
USER: STATUS no improvement in best 9 clusters for 5 generations
USER: GENES 17
USER: genes 0 Translation |==|  0.50851 0.45611 0.58743
USER: genes 1 Rotation |==|  0.88954 0.19538 0.44044 0.54378
USER: genes 2 Torsion [C]-N--CA-[CB] |==|  0.48480
USER: genes 3 Torsion [N]-CA--CB-[CG] |==|  0.64030
USER: genes 4 Torsion [CA]-CB--CG-[CD1] |==|  0.83968
USER: genes 5 Torsion [N]-CA--C-[N] |==|  0.83341
USER: genes 6 Torsion [C]-N--CA-[CB] |==|  0.51381
USER: genes 7 Torsion [N]-CA--CB-[CG] |==|  0.49812
USER: genes 8 Torsion [CA]-CB--CG-[ND1] |==|  0.35209
USER: genes 9 Torsion [N]-CA--C-[O] |==|  0.26261
USER: genes 10 Torsion [N]-C--CA-[N] |==|  0.92682
USER: genes 11 Torsion [C]-CA--N-[C] |==|  0.80801
USER: genes 12 Torsion [N]-C--CA-[N] |==|  0.07318
USER: genes 13 Torsion [C]-CA--CB-[CG2] |==|  0.85803
USER: genes 14 Torsion [C]-CA--N-[H3] |==|  0.09748
USER: genes 15 Torsion [C]-CA--CB-[CG] |==|  0.84062
USER: genes 16 Torsion [CA]-CB--CG-[CD1] |==|  0.48921
ROOT
ATOM      1  C   LEU P   2     -19.775  21.003 -12.137  0.50 57.15 LIG 0.24  C 
ATOM      2 O    LEU P   2     -19.369  20.820 -10.984  0.50 57.16 LIG-0.27  OA
ATOM      3  N   LEU P   3     -19.063  21.112 -13.246  0.50 57.16 LIG-0.35  N 
ATOM      4 H    LEU P   3     -19.410  21.467 -13.949  0.50 57.16 LIG 0.16  HD
ENDROOT
BRANCH 3 5
ATOM      5  CA  LEU P   3     -17.717  20.711 -13.489  0.50 57.19 LIG 0.18  C 
BRANCH 5 6
ATOM      6  CB  LEU P   3     -17.260  20.872 -14.925  0.50 57.26 LIG 0.04  C 
BRANCH 6 7
ATOM      7  CG  LEU P   3     -16.662  19.498 -15.251  0.50 57.44 LIG-0.02  C 
ATOM      8  CD1 LEU P   3     -15.542  19.125 -14.297  0.50 57.60 LIG 0.01  C 
ATOM      9  CD2 LEU P   3     -17.729  18.411 -15.332  0.50 57.51 LIG 0.01  C 
ENDBRANCH 6 7
ENDBRANCH 5 6
BRANCH 5 10
ATOM     10  C   LEU P   3     -17.028  21.683 -12.542  0.50 57.14 LIG 0.24  C 
ATOM     11  N   HIS P   4     -17.238  22.974 -12.802  0.50 57.08 LIG-0.35  N 
ATOM     12 H    HIS P   4     -17.734  23.248 -13.449  0.50 57.08 LIG 0.16  HD
ATOM     13 O    LEU P   3     -16.280  21.284 -11.652  0.50 57.14 LIG-0.27  OA
BRANCH 11 14
ATOM     14  CA  HIS P   4     -16.649  24.058 -12.017  0.50 57.02 LIG 0.17  C 
BRANCH 14 15
ATOM     15  CB  HIS P   4     -17.187  25.419 -12.500  0.50 56.94 LIG 0.09  C 
BRANCH 15 16
ATOM     16  CG  HIS P   4     -16.655  26.604 -11.746  0.50 56.80 LIG 0.05  A 
ATOM     17 ND1  HIS P   4     -16.063  27.686 -12.363  0.50 56.77 LIG-0.25  NA
ATOM     18  CE1 HIS P   4     -15.687  28.562 -11.449  0.50 56.50 LIG 0.21  A 
ATOM     19  NE2 HIS P   4     -16.006  28.087 -10.260  0.50 56.43 LIG-0.36  N 
ATOM     20 HE2  HIS P   4     -15.861  28.481  -9.509  0.50 56.43 LIG 0.17  HD
ATOM     21  CD2 HIS P   4     -16.609  26.862 -10.417  0.50 56.57 LIG 0.12  A 
ENDBRANCH 15 16
ENDBRANCH 14 15
BRANCH 14 22
ATOM     22  C   HIS P   4     -16.940  23.845 -10.534  0.50 57.04 LIG 0.22  C 
ATOM     23 O    HIS P   4     -16.129  23.274  -9.806  0.50 57.12 LIG-0.29  OA
ENDBRANCH 14 22
ENDBRANCH 11 14
ENDBRANCH 5 10
ENDBRANCH 3 5
BRANCH 1 24
ATOM     24  CA  LEU P   2     -21.198  21.155 -12.549  0.50 57.16 LIG 0.18  C 
BRANCH 24 25
ATOM     25  N   LEU P   2     -21.589  21.892 -13.724  0.50 57.19 LIG-0.35  N 
ATOM     26  C   VAL P   1     -21.438  23.207 -13.726  0.50 57.27 LIG 0.25  C 
ATOM     27 O    VAL P   1     -20.756  23.802 -12.885  0.50 57.24 LIG-0.27  OA
ATOM     28 H    LEU P   2     -21.905  21.424 -14.372  0.50 57.19 LIG 0.16  HD
BRANCH 26 29
ATOM     29  CA  VAL P   1     -22.122  23.934 -14.864  0.50 57.27 LIG 0.28  C 
BRANCH 29 30
ATOM     30  CB  VAL P   1     -22.596  25.323 -14.400  0.50 57.30 LIG 0.02  C 
ATOM     31  CG2 VAL P   1     -23.405  25.215 -13.116  0.50 57.34 LIG 0.01  C 
ATOM     32  CG1 VAL P   1     -23.394  26.016 -15.497  0.50 57.33 LIG 0.01  C 
ENDBRANCH 29 30
BRANCH 29 33
ATOM     33  N   VAL P   1     -23.276  23.095 -15.296  0.50 57.23 LIG-0.07  N 
ATOM     34 H3   VAL P   1     -23.630  22.691 -14.587  0.50 57.23 LIG 0.28  HD
ATOM     35 H2   VAL P   1     -22.996  22.483 -15.877  0.50 57.23 LIG 0.28  HD
ATOM     36 H1   VAL P   1     -23.890  23.612 -15.681  0.50 57.23 LIG 0.28  HD
ENDBRANCH 29 33
ENDBRANCH 26 29
ENDBRANCH 24 25
BRANCH 24 37
ATOM     37  CB  LEU P   2     -21.629  19.689 -12.672  0.50 57.14 LIG 0.04  C 
BRANCH 37 38
ATOM     38  CG  LEU P   2     -21.003  18.627 -13.551  0.50 56.96 LIG-0.02  C 
ATOM     39  CD1 LEU P   2     -21.711  17.307 -13.260  0.50 57.03 LIG 0.01  C 
ATOM     40  CD2 LEU P   2     -21.135  19.024 -14.997  0.50 56.70 LIG 0.01  C 
ENDBRANCH 37 38
ENDBRANCH 24 37
ENDBRANCH 1 24
TORSDOF 15
ENDMDL
MODEL 10
USER: ADFR SOLUTION from run 50
USER: SCORE 14.373696 LL:  -3.247 LR: -12.011 RR:   0.000 FEB:  -7.537
USER: RMSD 4.509332
USER: SEED 49
USER: STATUS no improvement in best 5 clusters for 5 generations
USER: GENES 17
USER: genes 0 Translation |==|  0.51855 0.47502 0.58892
USER: genes 1 Rotation |==|  0.89240 0.21162 0.42043 0.58079
USER: genes 2 Torsion [C]-N--CA-[CB] |==|  0.55556
USER: genes 3 Torsion [N]-CA--CB-[CG] |==|  0.02844
USER: genes 4 Torsion [CA]-CB--CG-[CD1] |==|  0.32493
USER: genes 5 Torsion [N]-CA--C-[N] |==|  0.80104
USER: genes 6 Torsion [C]-N--CA-[CB] |==|  0.50967
USER: genes 7 Torsion [N]-CA--CB-[CG] |==|  0.83836
USER: genes 8 Torsion [CA]-CB--CG-[ND1] |==|  0.94171
USER: genes 9 Torsion [N]-CA--C-[O] |==|  0.29004
USER: genes 10 Torsion [N]-C--CA-[N] |==|  0.94103
USER: genes 11 Torsion [C]-CA--N-[C] |==|  0.81513
USER: genes 12 Torsion [N]-C--CA-[N] |==|  0.07060
USER: genes 13 Torsion [C]-CA--CB-[CG2] |==|  0.85280
USER: genes 14 Torsion [C]-CA--N-[H3] |==|  0.01475
USER: genes 15 Torsion [C]-CA--CB-[CG] |==|  0.67636
USER: genes 16 Torsion [CA]-CB--CG-[CD1] |==|  0.23267
ROOT
ATOM      1  C   LEU P   2     -19.474  21.571 -12.092  0.50 57.15 LIG 0.24  C 
ATOM      2 O    LEU P   2     -18.882  21.486 -11.010  0.50 57.16 LIG-0.27  OA
ATOM      3  N   LEU P   3     -18.951  21.654 -13.304  0.50 57.16 LIG-0.35  N 
ATOM      4 H    LEU P   3     -19.427  21.941 -13.961  0.50 57.16 LIG 0.16  HD
ENDROOT
BRANCH 3 5
ATOM      5  CA  LEU P   3     -17.634  21.325 -13.736  0.50 57.19 LIG 0.18  C 
BRANCH 5 6
ATOM      6  CB  LEU P   3     -17.219  21.966 -15.044  0.50 57.26 LIG 0.04  C 
BRANCH 6 7
ATOM      7  CG  LEU P   3     -18.340  22.981 -15.300  0.50 57.44 LIG-0.02  C 
ATOM      8  CD1 LEU P   3     -17.824  24.408 -15.304  0.50 57.60 LIG 0.01  C 
ATOM      9  CD2 LEU P   3     -19.133  22.655 -16.562  0.50 57.51 LIG 0.01  C 
ENDBRANCH 6 7
ENDBRANCH 5 6
BRANCH 5 10
ATOM     10  C   LEU P   3     -16.870  21.881 -12.542  0.50 57.14 LIG 0.24  C 
ATOM     11  N   HIS P   4     -16.831  23.211 -12.463  0.50 57.08 LIG-0.35  N 
ATOM     12 H    HIS P   4     -17.216  23.727 -13.034  0.50 57.08 LIG 0.16  HD
ATOM     13 O    LEU P   3     -16.280  21.139 -11.760  0.50 57.14 LIG-0.27  OA
BRANCH 11 14
ATOM     14  CA  HIS P   4     -16.133  23.934 -11.401  0.50 57.02 LIG 0.17  C 
BRANCH 14 15
ATOM     15  CB  HIS P   4     -16.355  25.451 -11.552  0.50 56.94 LIG 0.09  C 
BRANCH 15 16
ATOM     16  CG  HIS P   4     -15.905  26.020 -12.868  0.50 56.80 LIG 0.05  A 
ATOM     17 ND1  HIS P   4     -14.985  25.397 -13.683  0.50 56.77 LIG-0.25  NA
ATOM     18  CE1 HIS P   4     -14.780  26.134 -14.760  0.50 56.50 LIG 0.21  A 
ATOM     19  NE2 HIS P   4     -15.528  27.218 -14.671  0.50 56.43 LIG-0.36  N 
ATOM     20 HE2  HIS P   4     -15.565  27.849 -15.254  0.50 56.43 LIG 0.17  HD
ATOM     21  CD2 HIS P   4     -16.238  27.174 -13.495  0.50 56.57 LIG 0.12  A 
ENDBRANCH 15 16
ENDBRANCH 14 15
BRANCH 14 22
ATOM     22  C   HIS P   4     -16.609  23.441 -10.037  0.50 57.04 LIG 0.22  C 
ATOM     23 O    HIS P   4     -15.907  22.695  -9.354  0.50 57.12 LIG-0.29  OA
ENDBRANCH 14 22
ENDBRANCH 11 14
ENDBRANCH 5 10
ENDBRANCH 3 5
BRANCH 1 24
ATOM     24  CA  LEU P   2     -20.951  21.605 -12.281  0.50 57.16 LIG 0.18  C 
BRANCH 24 25
ATOM     25  N   LEU P   2     -21.566  22.145 -13.467  0.50 57.19 LIG-0.35  N 
ATOM     26  C   VAL P   1     -21.454  23.442 -13.704  0.50 57.27 LIG 0.25  C 
ATOM     27 O    VAL P   1     -20.649  24.163 -13.106  0.50 57.24 LIG-0.27  OA
ATOM     28 H    LEU P   2     -21.981  21.580 -13.965  0.50 57.19 LIG 0.16  HD
BRANCH 26 29
ATOM     29  CA  VAL P   1     -22.351  23.978 -14.800  0.50 57.27 LIG 0.28  C 
BRANCH 29 30
ATOM     30  CB  VAL P   1     -22.791  25.417 -14.471  0.50 57.30 LIG 0.02  C 
ATOM     31  CG2 VAL P   1     -23.405  25.489 -13.081  0.50 57.34 LIG 0.01  C 
ATOM     32  CG1 VAL P   1     -23.756  25.940 -15.527  0.50 57.33 LIG 0.01  C 
ENDBRANCH 29 30
BRANCH 29 33
ATOM     33  N   VAL P   1     -23.529  23.070 -14.892  0.50 57.23 LIG-0.07  N 
ATOM     34 H3   VAL P   1     -23.488  22.464 -14.241  0.50 57.23 LIG 0.28  HD
ATOM     35 H2   VAL P   1     -23.525  22.658 -15.681  0.50 57.23 LIG 0.28  HD
ATOM     36 H1   VAL P   1     -24.277  23.545 -14.809  0.50 57.23 LIG 0.28  HD
ENDBRANCH 29 33
ENDBRANCH 26 29
ENDBRANCH 24 25
BRANCH 24 37
ATOM     37  CB  LEU P   2     -21.304  20.122 -12.125  0.50 57.14 LIG 0.04  C 
BRANCH 37 38
ATOM     38  CG  LEU P   2     -21.903  19.213 -13.177  0.50 56.96 LIG-0.02  C 
ATOM     39  CD1 LEU P   2     -20.761  18.691 -14.045  0.50 57.03 LIG 0.01  C 
ATOM     40  CD2 LEU P   2     -22.654  18.092 -12.510  0.50 56.70 LIG 0.01  C 
ENDBRANCH 37 38
ENDBRANCH 24 37
ENDBRANCH 1 24
TORSDOF 15
ENDMDL
MODEL 11
USER: ADFR SOLUTION from run 12
USER: SCORE 13.776094 LL:  -3.518 LR: -11.978 RR:   0.000 FEB:  -7.504
USER: RMSD 5.177823
USER: SEED 467013
USER: STATUS no improvement in best 5 clusters for 5 generations
USER: GENES 17
USER: genes 0 Translation |==|  0.57107 0.53621 0.57933
USER: genes 1 Rotation |==|  0.91363 0.24052 0.42021 0.57225
USER: genes 2 Torsion [C]-N--CA-[CB] |==|  0.36952
USER: genes 3 Torsion [N]-CA--CB-[CG] |==|  0.97245
USER: genes 4 Torsion [CA]-CB--CG-[CD1] |==|  0.33599
USER: genes 5 Torsion [N]-CA--C-[N] |==|  0.93771
USER: genes 6 Torsion [C]-N--CA-[CB] |==|  0.87637
USER: genes 7 Torsion [N]-CA--CB-[CG] |==|  0.81741
USER: genes 8 Torsion [CA]-CB--CG-[ND1] |==|  0.17644
USER: genes 9 Torsion [N]-CA--C-[O] |==|  0.91879
USER: genes 10 Torsion [N]-C--CA-[N] |==|  0.98899
USER: genes 11 Torsion [C]-CA--N-[C] |==|  0.61667
USER: genes 12 Torsion [N]-C--CA-[N] |==|  0.21946
USER: genes 13 Torsion [C]-CA--CB-[CG2] |==|  0.80015
USER: genes 14 Torsion [C]-CA--N-[H3] |==|  0.52669
USER: genes 15 Torsion [C]-CA--CB-[CG] |==|  0.66013
USER: genes 16 Torsion [CA]-CB--CG-[CD1] |==|  0.33634
ROOT
ATOM      1  C   LEU P   2     -17.898  23.406 -12.380  0.50 57.15 LIG 0.24  C 
ATOM      2 O    LEU P   2     -17.311  23.337 -11.294  0.50 57.16 LIG-0.27  OA
ATOM      3  N   LEU P   3     -17.380  23.632 -13.575  0.50 57.16 LIG-0.35  N 
ATOM      4 H    LEU P   3     -17.883  23.892 -14.223  0.50 57.16 LIG 0.16  HD
ENDROOT
BRANCH 3 5
ATOM      5  CA  LEU P   3     -16.026  23.507 -14.002  0.50 57.19 LIG 0.18  C 
BRANCH 5 6
ATOM      6  CB  LEU P   3     -15.841  22.765 -15.310  0.50 57.26 LIG 0.04  C 
BRANCH 6 7
ATOM      7  CG  LEU P   3     -17.236  22.185 -15.575  0.50 57.44 LIG-0.02  C 
ATOM      8  CD1 LEU P   3     -17.810  22.667 -16.895  0.50 57.60 LIG 0.01  C 
ATOM      9  CD2 LEU P   3     -17.256  20.663 -15.465  0.50 57.51 LIG 0.01  C 
ENDBRANCH 6 7
ENDBRANCH 5 6
BRANCH 5 10
ATOM     10  C   LEU P   3     -15.699  24.990 -14.119  0.50 57.14 LIG 0.24  C 
ATOM     11  N   HIS P   4     -16.752  25.792 -14.276  0.50 57.08 LIG-0.35  N 
ATOM     12 H    HIS P   4     -17.562  25.504 -14.300  0.50 57.08 LIG 0.16  HD
ATOM     13 O    LEU P   3     -14.536  25.387 -14.135  0.50 57.14 LIG-0.27  OA
BRANCH 11 14
ATOM     14  CA  HIS P   4     -16.643  27.243 -14.424  0.50 57.02 LIG 0.17  C 
BRANCH 14 15
ATOM     15  CB  HIS P   4     -15.645  27.810 -13.395  0.50 56.94 LIG 0.09  C 
BRANCH 15 16
ATOM     16  CG  HIS P   4     -16.079  27.675 -11.963  0.50 56.80 LIG 0.05  A 
ATOM     17 ND1  HIS P   4     -16.265  26.458 -11.343  0.50 56.77 LIG-0.25  NA
ATOM     18  CE1 HIS P   4     -16.655  26.654 -10.097  0.50 56.50 LIG 0.21  A 
ATOM     19  NE2 HIS P   4     -16.735  27.954  -9.885  0.50 56.43 LIG-0.36  N 
ATOM     20 HE2  HIS P   4     -16.969  28.327  -9.146  0.50 56.43 LIG 0.17  HD
ATOM     21  CD2 HIS P   4     -16.385  28.615 -11.037  0.50 56.57 LIG 0.12  A 
ENDBRANCH 15 16
ENDBRANCH 14 15
BRANCH 14 22
ATOM     22  C   HIS P   4     -16.221  27.590 -15.849  0.50 57.04 LIG 0.22  C 
ATOM     23 O    HIS P   4     -15.532  26.815 -16.511  0.50 57.12 LIG-0.29  OA
ENDBRANCH 14 22
ENDBRANCH 11 14
ENDBRANCH 5 10
ENDBRANCH 3 5
BRANCH 1 24
ATOM     24  CA  LEU P   2     -19.364  23.255 -12.593  0.50 57.16 LIG 0.18  C 
BRANCH 24 25
ATOM     25  N   LEU P   2     -19.982  23.439 -13.881  0.50 57.19 LIG-0.35  N 
ATOM     26  C   VAL P   1     -21.126  24.101 -13.946  0.50 57.27 LIG 0.25  C 
ATOM     27 O    VAL P   1     -21.560  24.779 -13.009  0.50 57.24 LIG-0.27  OA
ATOM     28 H    LEU P   2     -19.562  23.101 -14.551  0.50 57.19 LIG 0.16  HD
BRANCH 26 29
ATOM     29  CA  VAL P   1     -21.850  24.013 -15.274  0.50 57.27 LIG 0.28  C 
BRANCH 29 30
ATOM     30  CB  VAL P   1     -22.857  25.169 -15.409  0.50 57.30 LIG 0.02  C 
ATOM     31  CG2 VAL P   1     -24.048  24.958 -14.486  0.50 57.34 LIG 0.01  C 
ATOM     32  CG1 VAL P   1     -23.304  25.329 -16.856  0.50 57.33 LIG 0.01  C 
ENDBRANCH 29 30
BRANCH 29 33
ATOM     33  N   VAL P   1     -22.545  22.695 -15.311  0.50 57.23 LIG-0.07  N 
ATOM     34 H3   VAL P   1     -22.864  22.550 -16.128  0.50 57.23 LIG 0.28  HD
ATOM     35 H2   VAL P   1     -23.216  22.697 -14.727  0.50 57.23 LIG 0.28  HD
ATOM     36 H1   VAL P   1     -21.969  22.050 -15.099  0.50 57.23 LIG 0.28  HD
ENDBRANCH 29 33
ENDBRANCH 26 29
ENDBRANCH 24 25
BRANCH 24 37
ATOM     37  CB  LEU P   2     -19.590  21.823 -12.094  0.50 57.14 LIG 0.04  C 
BRANCH 37 38
ATOM     38  CG  LEU P   2     -20.181  20.670 -12.875  0.50 56.96 LIG-0.02  C 
ATOM     39  CD1 LEU P   2     -19.143  19.552 -12.912  0.50 57.03 LIG 0.01  C 
ATOM     40  CD2 LEU P   2     -21.462  20.220 -12.223  0.50 56.70 LIG 0.01  C 
ENDBRANCH 37 38
ENDBRANCH 24 37
ENDBRANCH 1 24
TORSDOF 15
ENDMDL
MODEL 12
USER: ADFR SOLUTION from run 28
USER: SCORE 14.283485 LL:  -3.384 LR: -11.937 RR:   0.000 FEB:  -7.462
USER: RMSD 7.146818
USER: SEED 27
USER: STATUS no improvement in best 9 clusters for 5 generations
USER: GENES 17
USER: genes 0 Translation |==|  0.63690 0.59129 0.52651
USER: genes 1 Rotation |==|  0.41725 0.15858 0.45042 0.85232
USER: genes 2 Torsion [C]-N--CA-[CB] |==|  0.23889
USER: genes 3 Torsion [N]-CA--CB-[CG] |==|  0.79452
USER: genes 4 Torsion [CA]-CB--CG-[CD1] |==|  0.34925
USER: genes 5 Torsion [N]-CA--C-[N] |==|  0.85040
USER: genes 6 Torsion [C]-N--CA-[CB] |==|  0.36125
USER: genes 7 Torsion [N]-CA--CB-[CG] |==|  0.31653
USER: genes 8 Torsion [CA]-CB--CG-[ND1] |==|  0.75545
USER: genes 9 Torsion [N]-CA--C-[O] |==|  0.08157
USER: genes 10 Torsion [N]-C--CA-[N] |==|  0.87373
USER: genes 11 Torsion [C]-CA--N-[C] |==|  0.73800
USER: genes 12 Torsion [N]-C--CA-[N] |==|  0.92315
USER: genes 13 Torsion [C]-CA--CB-[CG2] |==|  0.48508
USER: genes 14 Torsion [C]-CA--N-[H3] |==|  0.75672
USER: genes 15 Torsion [C]-CA--CB-[CG] |==|  0.33348
USER: genes 16 Torsion [CA]-CB--CG-[CD1] |==|  0.55358
ROOT
ATOM      1  C   LEU P   2     -15.923  25.059 -13.965  0.50 57.15 LIG 0.24  C 
ATOM      2 O    LEU P   2     -14.781  24.616 -13.800  0.50 57.16 LIG-0.27  OA
ATOM      3  N   LEU P   3     -17.074  24.461 -13.712  0.50 57.16 LIG-0.35  N 
ATOM      4 H    LEU P   3     -17.800  24.751 -14.072  0.50 57.16 LIG 0.16  HD
ENDROOT
BRANCH 3 5
ATOM      5  CA  LEU P   3     -17.334  23.332 -12.881  0.50 57.19 LIG 0.18  C 
BRANCH 5 6
ATOM      6  CB  LEU P   3     -17.554  23.662 -11.419  0.50 57.26 LIG 0.04  C 
BRANCH 6 7
ATOM      7  CG  LEU P   3     -16.140  23.993 -10.925  0.50 57.44 LIG-0.02  C 
ATOM      8  CD1 LEU P   3     -16.076  25.356 -10.260  0.50 57.60 LIG 0.01  C 
ATOM      9  CD2 LEU P   3     -15.571  22.894 -10.032  0.50 57.51 LIG 0.01  C 
ENDBRANCH 6 7
ENDBRANCH 5 6
BRANCH 5 10
ATOM     10  C   LEU P   3     -18.602  22.845 -13.569  0.50 57.14 LIG 0.24  C 
ATOM     11  N   HIS P   4     -19.564  23.759 -13.699  0.50 57.08 LIG-0.35  N 
ATOM     12 H    HIS P   4     -19.480  24.571 -13.427  0.50 57.08 LIG 0.16  HD
ATOM     13 O    LEU P   3     -18.733  21.672 -13.909  0.50 57.14 LIG-0.27  OA
BRANCH 11 14
ATOM     14  CA  HIS P   4     -20.860  23.480 -14.316  0.50 57.02 LIG 0.17  C 
BRANCH 14 15
ATOM     15  CB  HIS P   4     -22.001  23.970 -13.403  0.50 56.94 LIG 0.09  C 
BRANCH 15 16
ATOM     16  CG  HIS P   4     -22.809  25.104 -13.967  0.50 56.80 LIG 0.05  A 
ATOM     17 ND1  HIS P   4     -22.472  26.429 -13.788  0.50 56.77 LIG-0.25  NA
ATOM     18  CE1 HIS P   4     -23.369  27.195 -14.385  0.50 56.50 LIG 0.21  A 
ATOM     19  NE2 HIS P   4     -24.279  26.416 -14.939  0.50 56.43 LIG-0.36  N 
ATOM     20 HE2  HIS P   4     -24.963  26.686 -15.385  0.50 56.43 LIG 0.17  HD
ATOM     21  CD2 HIS P   4     -23.955  25.105 -14.689  0.50 56.57 LIG 0.12  A 
ENDBRANCH 15 16
ENDBRANCH 14 15
BRANCH 14 22
ATOM     22  C   HIS P   4     -20.934  24.138 -15.691  0.50 57.04 LIG 0.22  C 
ATOM     23 O    HIS P   4     -19.918  24.312 -16.364  0.50 57.12 LIG-0.29  OA
ENDBRANCH 14 22
ENDBRANCH 11 14
ENDBRANCH 5 10
ENDBRANCH 3 5
BRANCH 1 24
ATOM     24  CA  LEU P   2     -16.270  26.402 -14.508  0.50 57.16 LIG 0.18  C 
BRANCH 24 25
ATOM     25  N   LEU P   2     -17.287  26.591 -15.511  0.50 57.19 LIG-0.35  N 
ATOM     26  C   VAL P   1     -16.922  26.630 -16.783  0.50 57.27 LIG 0.25  C 
ATOM     27 O    VAL P   1     -15.806  26.266 -17.168  0.50 57.24 LIG-0.27  OA
ATOM     28 H    LEU P   2     -18.092  26.669 -15.220  0.50 57.19 LIG 0.16  HD
BRANCH 26 29
ATOM     29  CA  VAL P   1     -17.987  27.107 -17.747  0.50 57.27 LIG 0.28  C 
BRANCH 29 30
ATOM     30  CB  VAL P   1     -17.857  28.624 -17.975  0.50 57.30 LIG 0.02  C 
ATOM     31  CG2 VAL P   1     -18.835  29.096 -19.041  0.50 57.34 LIG 0.01  C 
ATOM     32  CG1 VAL P   1     -16.425  28.994 -18.339  0.50 57.33 LIG 0.01  C 
ENDBRANCH 29 30
BRANCH 29 33
ATOM     33  N   VAL P   1     -19.309  26.771 -17.147  0.50 57.23 LIG-0.07  N 
ATOM     34 H3   VAL P   1     -19.542  25.946 -17.384  0.50 57.23 LIG 0.28  HD
ATOM     35 H2   VAL P   1     -19.922  27.347 -17.438  0.50 57.23 LIG 0.28  HD
ATOM     36 H1   VAL P   1     -19.253  26.820 -16.260  0.50 57.23 LIG 0.28  HD
ENDBRANCH 29 33
ENDBRANCH 26 29
ENDBRANCH 24 25
BRANCH 24 37
ATOM     37  CB  LEU P   2     -16.643  27.153 -13.224  0.50 57.14 LIG 0.04  C 
BRANCH 37 38
ATOM     38  CG  LEU P   2     -15.984  28.399 -12.675  0.50 56.96 LIG-0.02  C 
ATOM     39  CD1 LEU P   2     -16.342  28.501 -11.195  0.50 57.03 LIG 0.01  C 
ATOM     40  CD2 LEU P   2     -14.496  28.320 -12.885  0.50 56.70 LIG 0.01  C 
ENDBRANCH 37 38
ENDBRANCH 24 37
ENDBRANCH 1 24
TORSDOF 15
ENDMDL
MODEL 13
USER: ADFR SOLUTION from run 77
USER: SCORE 14.306054 LL:  -2.903 LR: -11.929 RR:   0.000 FEB:  -7.454
USER: RMSD 5.676696
USER: SEED 76
USER: STATUS no improvement in best 19 clusters for 5 generations
USER: GENES 17
USER: genes 0 Translation |==|  0.52411 0.46836 0.58137
USER: genes 1 Rotation |==|  0.13065 0.52610 0.73856 0.73662
USER: genes 2 Torsion [C]-N--CA-[CB] |==|  0.86009
USER: genes 3 Torsion [N]-CA--CB-[CG] |==|  0.54288
USER: genes 4 Torsion [CA]-CB--CG-[CD1] |==|  0.72443
USER: genes 5 Torsion [N]-CA--C-[N] |==|  0.38333
USER: genes 6 Torsion [C]-N--CA-[CB] |==|  0.46365
USER: genes 7 Torsion [N]-CA--CB-[CG] |==|  0.12539
USER: genes 8 Torsion [CA]-CB--CG-[ND1] |==|  0.76964
USER: genes 9 Torsion [N]-CA--C-[O] |==|  0.81128
USER: genes 10 Torsion [N]-C--CA-[N] |==|  0.18505
USER: genes 11 Torsion [C]-CA--N-[C] |==|  0.79859
USER: genes 12 Torsion [N]-C--CA-[N] |==|  0.17156
USER: genes 13 Torsion [C]-CA--CB-[CG2] |==|  0.81310
USER: genes 14 Torsion [C]-CA--N-[H3] |==|  0.32293
USER: genes 15 Torsion [C]-CA--CB-[CG] |==|  0.47017
USER: genes 16 Torsion [CA]-CB--CG-[CD1] |==|  0.44260
ROOT
ATOM      1  C   LEU P   2     -19.307  21.371 -12.319  0.50 57.15 LIG 0.24  C 
ATOM      2 O    LEU P   2     -18.404  20.527 -12.331  0.50 57.16 LIG-0.27  OA
ATOM      3  N   LEU P   3     -19.259  22.610 -11.862  0.50 57.16 LIG-0.35  N 
ATOM      4 H    LEU P   3     -19.987  23.033 -11.685  0.50 57.16 LIG 0.16  HD
ENDROOT
BRANCH 3 5
ATOM      5  CA  LEU P   3     -18.120  23.423 -11.594  0.50 57.19 LIG 0.18  C 
BRANCH 5 6
ATOM      6  CB  LEU P   3     -17.059  22.762 -10.738  0.50 57.26 LIG 0.04  C 
BRANCH 6 7
ATOM      7  CG  LEU P   3     -16.191  23.945 -10.292  0.50 57.44 LIG-0.02  C 
ATOM      8  CD1 LEU P   3     -14.934  24.075 -11.133  0.50 57.60 LIG 0.01  C 
ATOM      9  CD2 LEU P   3     -16.980  25.249 -10.236  0.50 57.51 LIG 0.01  C 
ENDBRANCH 6 7
ENDBRANCH 5 6
BRANCH 5 10
ATOM     10  C   LEU P   3     -17.664  23.636 -13.031  0.50 57.14 LIG 0.24  C 
ATOM     11  N   HIS P   4     -17.269  24.875 -13.324  0.50 57.08 LIG-0.35  N 
ATOM     12 H    HIS P   4     -17.258  25.513 -12.747  0.50 57.08 LIG 0.16  HD
ATOM     13 O    LEU P   3     -17.731  22.732 -13.862  0.50 57.14 LIG-0.27  OA
BRANCH 11 14
ATOM     14  CA  HIS P   4     -16.813  25.281 -14.653  0.50 57.02 LIG 0.17  C 
BRANCH 14 15
ATOM     15  CB  HIS P   4     -16.743  26.818 -14.746  0.50 56.94 LIG 0.09  C 
BRANCH 15 16
ATOM     16  CG  HIS P   4     -16.101  27.487 -13.564  0.50 56.80 LIG 0.05  A 
ATOM     17 ND1  HIS P   4     -16.781  27.773 -12.399  0.50 56.77 LIG-0.25  NA
ATOM     18  CE1 HIS P   4     -15.964  28.368 -11.548  0.50 56.50 LIG 0.21  A 
ATOM     19  NE2 HIS P   4     -14.780  28.485 -12.120  0.50 56.43 LIG-0.36  N 
ATOM     20 HE2  HIS P   4     -14.084  28.841 -11.760  0.50 56.43 LIG 0.17  HD
ATOM     21  CD2 HIS P   4     -14.840  27.946 -13.382  0.50 56.57 LIG 0.12  A 
ENDBRANCH 15 16
ENDBRANCH 14 15
BRANCH 14 22
ATOM     22  C   HIS P   4     -15.457  24.649 -14.953  0.50 57.04 LIG 0.22  C 
ATOM     23 O    HIS P   4     -14.450  24.987 -14.331  0.50 57.12 LIG-0.29  OA
ENDBRANCH 14 22
ENDBRANCH 11 14
ENDBRANCH 5 10
ENDBRANCH 3 5
BRANCH 1 24
ATOM     24  CA  LEU P   2     -20.694  21.174 -12.824  0.50 57.16 LIG 0.18  C 
BRANCH 24 25
ATOM     25  N   LEU P   2     -21.209  21.884 -13.967  0.50 57.19 LIG-0.35  N 
ATOM     26  C   VAL P   1     -21.485  23.172 -13.841  0.50 57.27 LIG 0.25  C 
ATOM     27 O    VAL P   1     -21.095  23.848 -12.884  0.50 57.24 LIG-0.27  OA
ATOM     28 H    LEU P   2     -21.308  21.419 -14.684  0.50 57.19 LIG 0.16  HD
BRANCH 26 29
ATOM     29  CA  VAL P   1     -22.277  23.778 -14.981  0.50 57.27 LIG 0.28  C 
BRANCH 29 30
ATOM     30  CB  VAL P   1     -22.476  25.286 -14.747  0.50 57.30 LIG 0.02  C 
ATOM     31  CG2 VAL P   1     -23.383  25.531 -13.551  0.50 57.34 LIG 0.01  C 
ATOM     32  CG1 VAL P   1     -23.024  25.958 -16.000  0.50 57.33 LIG 0.01  C 
ENDBRANCH 29 30
BRANCH 29 33
ATOM     33  N   VAL P   1     -23.587  23.070 -15.036  0.50 57.23 LIG-0.07  N 
ATOM     34 H3   VAL P   1     -24.243  23.645 -14.862  0.50 57.23 LIG 0.28  HD
ATOM     35 H2   VAL P   1     -23.597  22.418 -14.430  0.50 57.23 LIG 0.28  HD
ATOM     36 H1   VAL P   1     -23.703  22.723 -15.847  0.50 57.23 LIG 0.28  HD
ENDBRANCH 29 33
ENDBRANCH 26 29
ENDBRANCH 24 25
BRANCH 24 37
ATOM     37  CB  LEU P   2     -20.702  19.664 -13.087  0.50 57.14 LIG 0.04  C 
BRANCH 37 38
ATOM     38  CG  LEU P   2     -21.905  18.801 -13.403  0.50 56.96 LIG-0.02  C 
ATOM     39  CD1 LEU P   2     -21.401  17.529 -14.079  0.50 57.03 LIG 0.01  C 
ATOM     40  CD2 LEU P   2     -22.658  18.498 -12.135  0.50 56.70 LIG 0.01  C 
ENDBRANCH 37 38
ENDBRANCH 24 37
ENDBRANCH 1 24
TORSDOF 15
ENDMDL
MODEL 14
USER: ADFR SOLUTION from run 9
USER: SCORE 13.291749 LL:  -3.453 LR: -11.849 RR:   0.000 FEB:  -7.375
USER: RMSD 4.031375
USER: SEED 181568
USER: STATUS no improvement in best 8 clusters for 5 generations
USER: GENES 17
USER: genes 0 Translation |==|  0.49398 0.52872 0.54331
USER: genes 1 Rotation |==|  0.68360 0.07339 0.68454 0.51542
USER: genes 2 Torsion [C]-N--CA-[CB] |==|  0.38955
USER: genes 3 Torsion [N]-CA--CB-[CG] |==|  0.74918
USER: genes 4 Torsion [CA]-CB--CG-[CD1] |==|  0.96319
USER: genes 5 Torsion [N]-CA--C-[N] |==|  0.12948
USER: genes 6 Torsion [C]-N--CA-[CB] |==|  0.51695
USER: genes 7 Torsion [N]-CA--CB-[CG] |==|  0.67942
USER: genes 8 Torsion [CA]-CB--CG-[ND1] |==|  0.51260
USER: genes 9 Torsion [N]-CA--C-[O] |==|  0.24861
USER: genes 10 Torsion [N]-C--CA-[N] |==|  0.51601
USER: genes 11 Torsion [C]-CA--N-[C] |==|  0.74690
USER: genes 12 Torsion [N]-C--CA-[N] |==|  0.50915
USER: genes 13 Torsion [C]-CA--CB-[CG2] |==|  0.84529
USER: genes 14 Torsion [C]-CA--N-[H3] |==|  0.24155
USER: genes 15 Torsion [C]-CA--CB-[CG] |==|  0.85035
USER: genes 16 Torsion [CA]-CB--CG-[CD1] |==|  0.39025
ROOT
ATOM      1  C   LEU P   2     -20.211  23.182 -13.461  0.50 57.15 LIG 0.24  C 
ATOM      2 O    LEU P   2     -20.604  23.867 -12.510  0.50 57.16 LIG-0.27  OA
ATOM      3  N   LEU P   3     -19.481  22.080 -13.426  0.50 57.16 LIG-0.35  N 
ATOM      4 H    LEU P   3     -19.068  21.813 -14.132  0.50 57.16 LIG 0.16  HD
ENDROOT
BRANCH 3 5
ATOM      5  CA  LEU P   3     -19.246  21.195 -12.334  0.50 57.19 LIG 0.18  C 
BRANCH 5 6
ATOM      6  CB  LEU P   3     -19.237  19.726 -12.702  0.50 57.26 LIG 0.04  C 
BRANCH 6 7
ATOM      7  CG  LEU P   3     -20.704  19.317 -12.522  0.50 57.44 LIG-0.02  C 
ATOM      8  CD1 LEU P   3     -21.498  20.368 -11.768  0.50 57.60 LIG 0.01  C 
ATOM      9  CD2 LEU P   3     -21.364  18.942 -13.846  0.50 57.51 LIG 0.01  C 
ENDBRANCH 6 7
ENDBRANCH 5 6
BRANCH 5 10
ATOM     10  C   LEU P   3     -17.870  21.707 -11.933  0.50 57.14 LIG 0.24  C 
ATOM     11  N   HIS P   4     -17.761  23.033 -11.848  0.50 57.08 LIG-0.35  N 
ATOM     12 H    HIS P   4     -18.417  23.569 -11.996  0.50 57.08 LIG 0.16  HD
ATOM     13 O    LEU P   3     -16.925  20.938 -11.773  0.50 57.14 LIG-0.27  OA
BRANCH 11 14
ATOM     14  CA  HIS P   4     -16.517  23.716 -11.494  0.50 57.02 LIG 0.17  C 
BRANCH 14 15
ATOM     15  CB  HIS P   4     -16.766  25.229 -11.335  0.50 56.94 LIG 0.09  C 
BRANCH 15 16
ATOM     16  CG  HIS P   4     -16.052  26.088 -12.339  0.50 56.80 LIG 0.05  A 
ATOM     17 ND1  HIS P   4     -16.077  27.466 -12.304  0.50 56.77 LIG-0.25  NA
ATOM     18  CE1 HIS P   4     -15.372  27.945 -13.314  0.50 56.50 LIG 0.21  A 
ATOM     19  NE2 HIS P   4     -14.896  26.928 -14.008  0.50 56.43 LIG-0.36  N 
ATOM     20 HE2  HIS P   4     -14.405  26.990 -14.712  0.50 56.43 LIG 0.17  HD
ATOM     21  CD2 HIS P   4     -15.309  25.756 -13.422  0.50 56.57 LIG 0.12  A 
ENDBRANCH 15 16
ENDBRANCH 14 15
BRANCH 14 22
ATOM     22  C   HIS P   4     -15.939  23.116 -10.216  0.50 57.04 LIG 0.22  C 
ATOM     23 O    HIS P   4     -15.160  22.164 -10.260  0.50 57.12 LIG-0.29  OA
ENDBRANCH 14 22
ENDBRANCH 11 14
ENDBRANCH 5 10
ENDBRANCH 3 5
BRANCH 1 24
ATOM     24  CA  LEU P   2     -20.471  23.454 -14.902  0.50 57.16 LIG 0.18  C 
BRANCH 24 25
ATOM     25  N   LEU P   2     -21.139  24.648 -15.354  0.50 57.19 LIG-0.35  N 
ATOM     26  C   VAL P   1     -22.455  24.624 -15.491  0.50 57.27 LIG 0.25  C 
ATOM     27 O    VAL P   1     -23.159  23.726 -15.019  0.50 57.24 LIG-0.27  OA
ATOM     28 H    LEU P   2     -20.632  25.324 -15.513  0.50 57.19 LIG 0.16  HD
BRANCH 26 29
ATOM     29  CA  VAL P   1     -23.049  25.805 -16.230  0.50 57.27 LIG 0.28  C 
BRANCH 29 30
ATOM     30  CB  VAL P   1     -22.635  27.122 -15.549  0.50 57.30 LIG 0.02  C 
ATOM     31  CG2 VAL P   1     -23.030  27.117 -14.080  0.50 57.34 LIG 0.01  C 
ATOM     32  CG1 VAL P   1     -23.237  28.318 -16.276  0.50 57.33 LIG 0.01  C 
ENDBRANCH 29 30
BRANCH 29 33
ATOM     33  N   VAL P   1     -24.530  25.639 -16.211  0.50 57.23 LIG-0.07  N 
ATOM     34 H3   VAL P   1     -24.860  25.997 -15.466  0.50 57.23 LIG 0.28  HD
ATOM     35 H2   VAL P   1     -24.732  24.772 -16.237  0.50 57.23 LIG 0.28  HD
ATOM     36 H1   VAL P   1     -24.884  26.047 -16.918  0.50 57.23 LIG 0.28  HD
ENDBRANCH 29 33
ENDBRANCH 26 29
ENDBRANCH 24 25
BRANCH 24 37
ATOM     37  CB  LEU P   2     -19.052  23.387 -15.478  0.50 57.14 LIG 0.04  C 
BRANCH 37 38
ATOM     38  CG  LEU P   2     -17.842  24.164 -15.009  0.50 56.96 LIG-0.02  C 
ATOM     39  CD1 LEU P   2     -16.638  23.228 -15.062  0.50 57.03 LIG 0.01  C 
ATOM     40  CD2 LEU P   2     -17.647  25.374 -15.884  0.50 56.70 LIG 0.01  C 
ENDBRANCH 37 38
ENDBRANCH 24 37
ENDBRANCH 1 24
TORSDOF 15
ENDMDL
MODEL 15
USER: ADFR SOLUTION from run 129
USER: SCORE 13.972063 LL:  -3.323 LR: -11.821 RR:   0.000 FEB:  -7.347
USER: RMSD 5.658013
USER: SEED 128
USER: STATUS no improvement in best 16 clusters for 5 generations
USER: GENES 17
USER: genes 0 Translation |==|  0.49537 0.50876 0.57357
USER: genes 1 Rotation |==|  0.03940 0.66339 0.48841 0.60496
USER: genes 2 Torsion [C]-N--CA-[CB] |==|  0.15560
USER: genes 3 Torsion [N]-CA--CB-[CG] |==|  0.61027
USER: genes 4 Torsion [CA]-CB--CG-[CD1] |==|  0.74645
USER: genes 5 Torsion [N]-CA--C-[N] |==|  0.42318
USER: genes 6 Torsion [C]-N--CA-[CB] |==|  0.47395
USER: genes 7 Torsion [N]-CA--CB-[CG] |==|  0.88906
USER: genes 8 Torsion [CA]-CB--CG-[ND1] |==|  0.70588
USER: genes 9 Torsion [N]-CA--C-[O] |==|  0.36628
USER: genes 10 Torsion [N]-C--CA-[N] |==|  0.94444
USER: genes 11 Torsion [C]-CA--N-[C] |==|  0.82981
USER: genes 12 Torsion [N]-C--CA-[N] |==|  0.77475
USER: genes 13 Torsion [C]-CA--CB-[CG2] |==|  0.74056
USER: genes 14 Torsion [C]-CA--N-[H3] |==|  0.37747
USER: genes 15 Torsion [C]-CA--CB-[CG] |==|  0.20460
USER: genes 16 Torsion [CA]-CB--CG-[CD1] |==|  0.71925
ROOT
ATOM      1  C   LEU P   2     -20.169  22.583 -12.553  0.50 57.15 LIG 0.24  C 
ATOM      2 O    LEU P   2     -20.243  22.024 -11.453  0.50 57.16 LIG-0.27  OA
ATOM      3  N   LEU P   3     -19.310  23.509 -12.942  0.50 57.16 LIG-0.35  N 
ATOM      4 H    LEU P   3     -19.482  23.996 -13.630  0.50 57.16 LIG 0.16  HD
ENDROOT
BRANCH 3 5
ATOM      5  CA  LEU P   3     -18.053  23.862 -12.370  0.50 57.19 LIG 0.18  C 
BRANCH 5 6
ATOM      6  CB  LEU P   3     -17.071  22.715 -12.245  0.50 57.26 LIG 0.04  C 
BRANCH 6 7
ATOM      7  CG  LEU P   3     -16.415  22.970 -10.883  0.50 57.44 LIG-0.02  C 
ATOM      8  CD1 LEU P   3     -15.163  23.819 -11.005  0.50 57.60 LIG 0.01  C 
ATOM      9  CD2 LEU P   3     -17.400  23.545  -9.869  0.50 57.51 LIG 0.01  C 
ENDBRANCH 6 7
ENDBRANCH 5 6
BRANCH 5 10
ATOM     10  C   LEU P   3     -17.625  24.890 -13.407  0.50 57.14 LIG 0.24  C 
ATOM     11  N   HIS P   4     -16.805  25.841 -12.959  0.50 57.08 LIG-0.35  N 
ATOM     12 H    HIS P   4     -16.525  25.874 -12.147  0.50 57.08 LIG 0.16  HD
ATOM     13 O    LEU P   3     -18.071  24.865 -14.552  0.50 57.14 LIG-0.27  OA
BRANCH 11 14
ATOM     14  CA  HIS P   4     -16.298  26.926 -13.798  0.50 57.02 LIG 0.17  C 
BRANCH 14 15
ATOM     15  CB  HIS P   4     -15.575  27.976 -12.932  0.50 56.94 LIG 0.09  C 
BRANCH 15 16
ATOM     16  CG  HIS P   4     -16.242  28.270 -11.619  0.50 56.80 LIG 0.05  A 
ATOM     17 ND1  HIS P   4     -16.943  29.432 -11.373  0.50 56.77 LIG-0.25  NA
ATOM     18  CE1 HIS P   4     -17.405  29.414 -10.136  0.50 56.50 LIG 0.21  A 
ATOM     19  NE2 HIS P   4     -17.025  28.285  -9.566  0.50 56.43 LIG-0.36  N 
ATOM     20 HE2  HIS P   4     -17.207  28.047  -8.760  0.50 56.43 LIG 0.17  HD
ATOM     21  CD2 HIS P   4     -16.293  27.554 -10.470  0.50 56.57 LIG 0.12  A 
ENDBRANCH 15 16
ENDBRANCH 14 15
BRANCH 14 22
ATOM     22  C   HIS P   4     -15.370  26.364 -14.871  0.50 57.04 LIG 0.22  C 
ATOM     23 O    HIS P   4     -15.495  26.694 -16.051  0.50 57.12 LIG-0.29  OA
ENDBRANCH 14 22
ENDBRANCH 11 14
ENDBRANCH 5 10
ENDBRANCH 3 5
BRANCH 1 24
ATOM     24  CA  LEU P   2     -21.062  22.338 -13.720  0.50 57.16 LIG 0.18  C 
BRANCH 24 25
ATOM     25  N   LEU P   2     -21.207  23.286 -14.795  0.50 57.19 LIG-0.35  N 
ATOM     26  C   VAL P   1     -21.680  24.490 -14.518  0.50 57.27 LIG 0.25  C 
ATOM     27 O    VAL P   1     -21.766  24.925 -13.365  0.50 57.24 LIG-0.27  OA
ATOM     28 H    LEU P   2     -20.971  23.008 -15.574  0.50 57.19 LIG 0.16  HD
BRANCH 26 29
ATOM     29  CA  VAL P   1     -22.066  25.326 -15.720  0.50 57.27 LIG 0.28  C 
BRANCH 29 30
ATOM     30  CB  VAL P   1     -22.753  24.446 -16.781  0.50 57.30 LIG 0.02  C 
ATOM     31  CG2 VAL P   1     -21.742  23.935 -17.795  0.50 57.34 LIG 0.01  C 
ATOM     32  CG1 VAL P   1     -23.882  25.207 -17.464  0.50 57.33 LIG 0.01  C 
ENDBRANCH 29 30
BRANCH 29 33
ATOM     33  N   VAL P   1     -20.815  25.930 -16.260  0.50 57.23 LIG-0.07  N 
ATOM     34 H3   VAL P   1     -20.809  25.858 -17.146  0.50 57.23 LIG 0.28  HD
ATOM     35 H2   VAL P   1     -20.111  25.503 -15.923  0.50 57.23 LIG 0.28  HD
ATOM     36 H1   VAL P   1     -20.778  26.789 -16.031  0.50 57.23 LIG 0.28  HD
ENDBRANCH 29 33
ENDBRANCH 26 29
ENDBRANCH 24 25
BRANCH 24 37
ATOM     37  CB  LEU P   2     -20.500  21.013 -14.250  0.50 57.14 LIG 0.04  C 
BRANCH 37 38
ATOM     38  CG  LEU P   2     -20.667  19.642 -13.633  0.50 56.96 LIG-0.02  C 
ATOM     39  CD1 LEU P   2     -19.379  19.307 -12.887  0.50 57.03 LIG 0.01  C 
ATOM     40  CD2 LEU P   2     -21.860  19.641 -12.714  0.50 56.70 LIG 0.01  C 
ENDBRANCH 37 38
ENDBRANCH 24 37
ENDBRANCH 1 24
TORSDOF 15
ENDMDL
MODEL 16
USER: ADFR SOLUTION from run 77
USER: SCORE 13.903361 LL:  -2.648 LR: -11.787 RR:   0.000 FEB:  -7.313
USER: RMSD 5.339730
USER: SEED 76
USER: STATUS no improvement in best 19 clusters for 5 generations
USER: GENES 17
USER: genes 0 Translation |==|  0.52481 0.49242 0.58512
USER: genes 1 Rotation |==|  0.94764 0.28593 0.48645 0.56006
USER: genes 2 Torsion [C]-N--CA-[CB] |==|  0.75815
USER: genes 3 Torsion [N]-CA--CB-[CG] |==|  0.59606
USER: genes 4 Torsion [CA]-CB--CG-[CD1] |==|  0.05822
USER: genes 5 Torsion [N]-CA--C-[N] |==|  0.18966
USER: genes 6 Torsion [C]-N--CA-[CB] |==|  0.48401
USER: genes 7 Torsion [N]-CA--CB-[CG] |==|  0.39103
USER: genes 8 Torsion [CA]-CB--CG-[ND1] |==|  0.66215
USER: genes 9 Torsion [N]-CA--C-[O] |==|  0.22568
USER: genes 10 Torsion [N]-C--CA-[N] |==|  0.88729
USER: genes 11 Torsion [C]-CA--N-[C] |==|  0.87383
USER: genes 12 Torsion [N]-C--CA-[N] |==|  0.09876
USER: genes 13 Torsion [C]-CA--CB-[CG2] |==|  0.81995
USER: genes 14 Torsion [C]-CA--N-[H3] |==|  0.02930
USER: genes 15 Torsion [C]-CA--CB-[CG] |==|  0.48379
USER: genes 16 Torsion [CA]-CB--CG-[CD1] |==|  0.49790
ROOT
ATOM      1  C   LEU P   2     -19.286  22.093 -12.206  0.50 57.15 LIG 0.24  C 
ATOM      2 O    LEU P   2     -18.981  22.193 -11.013  0.50 57.16 LIG-0.27  OA
ATOM      3  N   LEU P   3     -18.564  22.421 -13.264  0.50 57.16 LIG-0.35  N 
ATOM      4 H    LEU P   3     -18.943  22.533 -14.028  0.50 57.16 LIG 0.16  HD
ENDROOT
BRANCH 3 5
ATOM      5  CA  LEU P   3     -17.158  22.636 -13.357  0.50 57.19 LIG 0.18  C 
BRANCH 5 6
ATOM      6  CB  LEU P   3     -16.713  24.049 -13.042  0.50 57.26 LIG 0.04  C 
BRANCH 6 7
ATOM      7  CG  LEU P   3     -15.529  24.257 -13.994  0.50 57.44 LIG-0.02  C 
ATOM      8  CD1 LEU P   3     -15.566  23.294 -15.166  0.50 57.60 LIG 0.01  C 
ATOM      9  CD2 LEU P   3     -15.405  25.708 -14.450  0.50 57.51 LIG 0.01  C 
ENDBRANCH 6 7
ENDBRANCH 5 6
BRANCH 5 10
ATOM     10  C   LEU P   3     -16.716  21.633 -12.300  0.50 57.14 LIG 0.24  C 
ATOM     11  N   HIS P   4     -16.907  20.353 -12.617  0.50 57.08 LIG-0.35  N 
ATOM     12 H    HIS P   4     -17.245  20.100 -13.366  0.50 57.08 LIG 0.16  HD
ATOM     13 O    LEU P   3     -16.281  22.004 -11.212  0.50 57.14 LIG-0.27  OA
BRANCH 11 14
ATOM     14  CA  HIS P   4     -16.564  19.244 -11.727  0.50 57.02 LIG 0.17  C 
BRANCH 14 15
ATOM     15  CB  HIS P   4     -17.041  17.909 -12.330  0.50 56.94 LIG 0.09  C 
BRANCH 15 16
ATOM     16  CG  HIS P   4     -16.090  16.762 -12.139  0.50 56.80 LIG 0.05  A 
ATOM     17 ND1  HIS P   4     -15.553  16.046 -13.188  0.50 56.77 LIG-0.25  NA
ATOM     18  CE1 HIS P   4     -14.765  15.097 -12.715  0.50 56.50 LIG 0.21  A 
ATOM     19  NE2 HIS P   4     -14.776  15.165 -11.397  0.50 56.43 LIG-0.36  N 
ATOM     20 HE2  HIS P   4     -14.338  14.649 -10.866  0.50 56.43 LIG 0.17  HD
ATOM     21  CD2 HIS P   4     -15.600  16.194 -11.011  0.50 56.57 LIG 0.12  A 
ENDBRANCH 15 16
ENDBRANCH 14 15
BRANCH 14 22
ATOM     22  C   HIS P   4     -15.059  19.228 -11.473  0.50 57.04 LIG 0.22  C 
ATOM     23 O    HIS P   4     -14.550  19.973 -10.636  0.50 57.12 LIG-0.29  OA
ENDBRANCH 14 22
ENDBRANCH 11 14
ENDBRANCH 5 10
ENDBRANCH 3 5
BRANCH 1 24
ATOM     24  CA  LEU P   2     -20.576  21.571 -12.738  0.50 57.16 LIG 0.18  C 
BRANCH 24 25
ATOM     25  N   LEU P   2     -21.252  22.177 -13.857  0.50 57.19 LIG-0.35  N 
ATOM     26  C   VAL P   1     -21.369  23.495 -13.888  0.50 57.27 LIG 0.25  C 
ATOM     27 O    VAL P   1     -20.720  24.240 -13.147  0.50 57.24 LIG-0.27  OA
ATOM     28 H    LEU P   2     -21.547  21.635 -14.455  0.50 57.19 LIG 0.16  HD
BRANCH 26 29
ATOM     29  CA  VAL P   1     -22.324  24.035 -14.932  0.50 57.27 LIG 0.28  C 
BRANCH 29 30
ATOM     30  CB  VAL P   1     -22.829  25.430 -14.521  0.50 57.30 LIG 0.02  C 
ATOM     31  CG2 VAL P   1     -23.660  25.349 -13.249  0.50 57.34 LIG 0.01  C 
ATOM     32  CG1 VAL P   1     -23.617  26.074 -15.654  0.50 57.33 LIG 0.01  C 
ENDBRANCH 29 30
BRANCH 29 33
ATOM     33  N   VAL P   1     -23.454  23.070 -15.039  0.50 57.23 LIG-0.07  N 
ATOM     34 H3   VAL P   1     -23.406  22.481 -14.374  0.50 57.23 LIG 0.28  HD
ATOM     35 H2   VAL P   1     -23.407  22.642 -15.817  0.50 57.23 LIG 0.28  HD
ATOM     36 H1   VAL P   1     -24.227  23.511 -14.988  0.50 57.23 LIG 0.28  HD
ENDBRANCH 29 33
ENDBRANCH 26 29
ENDBRANCH 24 25
BRANCH 24 37
ATOM     37  CB  LEU P   2     -20.197  20.122 -13.066  0.50 57.14 LIG 0.04  C 
BRANCH 37 38
ATOM     38  CG  LEU P   2     -21.125  19.022 -13.535  0.50 56.96 LIG-0.02  C 
ATOM     39  CD1 LEU P   2     -20.287  17.765 -13.747  0.50 57.03 LIG 0.01  C 
ATOM     40  CD2 LEU P   2     -22.208  18.804 -12.512  0.50 56.70 LIG 0.01  C 
ENDBRANCH 37 38
ENDBRANCH 24 37
ENDBRANCH 1 24
TORSDOF 15
ENDMDL
MODEL 17
USER: ADFR SOLUTION from run 144
USER: SCORE 14.351701 LL:  -2.824 LR: -11.745 RR:   0.000 FEB:  -7.271
USER: RMSD 5.701254
USER: SEED 143
USER: STATUS no improvement in best 11 clusters for 5 generations
USER: GENES 17
USER: genes 0 Translation |==|  0.52015 0.47255 0.58872
USER: genes 1 Rotation |==|  0.90857 0.23126 0.41542 0.56077
USER: genes 2 Torsion [C]-N--CA-[CB] |==|  0.75561
USER: genes 3 Torsion [N]-CA--CB-[CG] |==|  0.04999
USER: genes 4 Torsion [CA]-CB--CG-[CD1] |==|  0.31338
USER: genes 5 Torsion [N]-CA--C-[N] |==|  0.22333
USER: genes 6 Torsion [C]-N--CA-[CB] |==|  0.56225
USER: genes 7 Torsion [N]-CA--CB-[CG] |==|  0.66811
USER: genes 8 Torsion [CA]-CB--CG-[ND1] |==|  0.74474
USER: genes 9 Torsion [N]-CA--C-[O] |==|  0.34301
USER: genes 10 Torsion [N]-C--CA-[N] |==|  0.93961
USER: genes 11 Torsion [C]-CA--N-[C] |==|  0.82115
USER: genes 12 Torsion [N]-C--CA-[N] |==|  0.08914
USER: genes 13 Torsion [C]-CA--CB-[CG2] |==|  0.84772
USER: genes 14 Torsion [C]-CA--N-[H3] |==|  0.68047
USER: genes 15 Torsion [C]-CA--CB-[CG] |==|  0.65635
USER: genes 16 Torsion [CA]-CB--CG-[CD1] |==|  0.22280
ROOT
ATOM      1  C   LEU P   2     -19.426  21.496 -12.098  0.50 57.15 LIG 0.24  C 
ATOM      2 O    LEU P   2     -18.855  21.355 -11.011  0.50 57.16 LIG-0.27  OA
ATOM      3  N   LEU P   3     -18.883  21.741 -13.279  0.50 57.16 LIG-0.35  N 
ATOM      4 H    LEU P   3     -19.366  22.052 -13.920  0.50 57.16 LIG 0.16  HD
ENDROOT
BRANCH 3 5
ATOM      5  CA  LEU P   3     -17.533  21.564 -13.698  0.50 57.19 LIG 0.18  C 
BRANCH 5 6
ATOM      6  CB  LEU P   3     -16.630  22.753 -13.439  0.50 57.26 LIG 0.04  C 
BRANCH 6 7
ATOM      7  CG  LEU P   3     -17.412  23.557 -12.393  0.50 57.44 LIG-0.02  C 
ATOM      8  CD1 LEU P   3     -16.711  23.572 -11.047  0.50 57.60 LIG 0.01  C 
ATOM      9  CD2 LEU P   3     -17.744  24.965 -12.881  0.50 57.51 LIG 0.01  C 
ENDBRANCH 6 7
ENDBRANCH 5 6
BRANCH 5 10
ATOM     10  C   LEU P   3     -17.190  20.366 -12.822  0.50 57.14 LIG 0.24  C 
ATOM     11  N   HIS P   4     -17.612  19.189 -13.282  0.50 57.08 LIG-0.35  N 
ATOM     12 H    HIS P   4     -18.039  19.099 -14.023  0.50 57.08 LIG 0.16  HD
ATOM     13 O    LEU P   3     -16.625  20.509 -11.740  0.50 57.14 LIG-0.27  OA
BRANCH 11 14
ATOM     14  CA  HIS P   4     -17.396  17.926 -12.576  0.50 57.02 LIG 0.17  C 
BRANCH 14 15
ATOM     15  CB  HIS P   4     -17.477  16.744 -13.561  0.50 56.94 LIG 0.09  C 
BRANCH 15 16
ATOM     16  CG  HIS P   4     -18.559  15.748 -13.256  0.50 56.80 LIG 0.05  A 
ATOM     17 ND1  HIS P   4     -18.356  14.630 -12.475  0.50 56.77 LIG-0.25  NA
ATOM     18  CE1 HIS P   4     -19.480  13.941 -12.393  0.50 56.50 LIG 0.21  A 
ATOM     19  NE2 HIS P   4     -20.405  14.567 -13.096  0.50 56.43 LIG-0.36  N 
ATOM     20 HE2  HIS P   4     -21.220  14.309 -13.192  0.50 56.43 LIG 0.17  HD
ATOM     21  CD2 HIS P   4     -19.854  15.697 -13.650  0.50 56.57 LIG 0.12  A 
ENDBRANCH 15 16
ENDBRANCH 14 15
BRANCH 14 22
ATOM     22  C   HIS P   4     -16.049  17.955 -11.859  0.50 57.04 LIG 0.22  C 
ATOM     23 O    HIS P   4     -15.974  17.762 -10.646  0.50 57.12 LIG-0.29  OA
ENDBRANCH 14 22
ENDBRANCH 11 14
ENDBRANCH 5 10
ENDBRANCH 3 5
BRANCH 1 24
ATOM     24  CA  LEU P   2     -20.895  21.429 -12.330  0.50 57.16 LIG 0.18  C 
BRANCH 24 25
ATOM     25  N   LEU P   2     -21.527  22.040 -13.472  0.50 57.19 LIG-0.35  N 
ATOM     26  C   VAL P   1     -21.483  23.357 -13.591  0.50 57.27 LIG 0.25  C 
ATOM     27 O    VAL P   1     -20.725  24.063 -12.918  0.50 57.24 LIG-0.27  OA
ATOM     28 H    LEU P   2     -21.905  21.501 -14.025  0.50 57.19 LIG 0.16  HD
BRANCH 26 29
ATOM     29  CA  VAL P   1     -22.396  23.942 -14.648  0.50 57.27 LIG 0.28  C 
BRANCH 29 30
ATOM     30  CB  VAL P   1     -22.783  25.385 -14.277  0.50 57.30 LIG 0.02  C 
ATOM     31  CG2 VAL P   1     -23.394  25.439 -12.885  0.50 57.34 LIG 0.01  C 
ATOM     32  CG1 VAL P   1     -23.729  25.974 -15.316  0.50 57.33 LIG 0.01  C 
ENDBRANCH 29 30
BRANCH 29 33
ATOM     33  N   VAL P   1     -23.602  23.070 -14.722  0.50 57.23 LIG-0.07  N 
ATOM     34 H3   VAL P   1     -23.638  22.678 -15.520  0.50 57.23 LIG 0.28  HD
ATOM     35 H2   VAL P   1     -24.333  23.563 -14.601  0.50 57.23 LIG 0.28  HD
ATOM     36 H1   VAL P   1     -23.557  22.447 -14.087  0.50 57.23 LIG 0.28  HD
ENDBRANCH 29 33
ENDBRANCH 26 29
ENDBRANCH 24 25
BRANCH 24 37
ATOM     37  CB  LEU P   2     -21.125  19.913 -12.342  0.50 57.14 LIG 0.04  C 
BRANCH 37 38
ATOM     38  CG  LEU P   2     -21.759  19.097 -13.448  0.50 56.96 LIG-0.02  C 
ATOM     39  CD1 LEU P   2     -20.698  18.862 -14.519  0.50 57.03 LIG 0.01  C 
ATOM     40  CD2 LEU P   2     -22.281  17.802 -12.885  0.50 56.70 LIG 0.01  C 
ENDBRANCH 37 38
ENDBRANCH 24 37
ENDBRANCH 1 24
TORSDOF 15
ENDMDL
MODEL 18
USER: ADFR SOLUTION from run 107
USER: SCORE 13.707100 LL:  -2.813 LR: -11.751 RR:   0.000 FEB:  -7.277
USER: RMSD 5.350252
USER: SEED 106
USER: STATUS no improvement in best 8 clusters for 5 generations
USER: GENES 17
USER: genes 0 Translation |==|  0.51811 0.48124 0.60038
USER: genes 1 Rotation |==|  0.07541 0.67959 0.63699 0.63676
USER: genes 2 Torsion [C]-N--CA-[CB] |==|  0.74168
USER: genes 3 Torsion [N]-CA--CB-[CG] |==|  0.65525
USER: genes 4 Torsion [CA]-CB--CG-[CD1] |==|  0.02319
USER: genes 5 Torsion [N]-CA--C-[N] |==|  0.16678
USER: genes 6 Torsion [C]-N--CA-[CB] |==|  0.83166
USER: genes 7 Torsion [N]-CA--CB-[CG] |==|  0.82153
USER: genes 8 Torsion [CA]-CB--CG-[ND1] |==|  0.15727
USER: genes 9 Torsion [N]-CA--C-[O] |==|  0.79750
USER: genes 10 Torsion [N]-C--CA-[N] |==|  0.11040
USER: genes 11 Torsion [C]-CA--N-[C] |==|  0.74690
USER: genes 12 Torsion [N]-C--CA-[N] |==|  0.08611
USER: genes 13 Torsion [C]-CA--CB-[CG2] |==|  0.86342
USER: genes 14 Torsion [C]-CA--N-[H3] |==|  0.54094
USER: genes 15 Torsion [C]-CA--CB-[CG] |==|  0.65725
USER: genes 16 Torsion [CA]-CB--CG-[CD1] |==|  0.19777
ROOT
ATOM      1  C   LEU P   2     -19.487  21.757 -11.749  0.50 57.15 LIG 0.24  C 
ATOM      2 O    LEU P   2     -19.045  20.870 -11.009  0.50 57.16 LIG-0.27  OA
ATOM      3  N   LEU P   3     -18.871  22.847 -12.174  0.50 57.16 LIG-0.35  N 
ATOM      4 H    LEU P   3     -19.327  23.507 -12.485  0.50 57.16 LIG 0.16  HD
ENDROOT
BRANCH 3 5
ATOM      5  CA  LEU P   3     -17.475  23.131 -12.207  0.50 57.19 LIG 0.18  C 
BRANCH 5 6
ATOM      6  CB  LEU P   3     -16.950  23.861 -10.988  0.50 57.26 LIG 0.04  C 
BRANCH 6 7
ATOM      7  CG  LEU P   3     -16.295  25.110 -11.590  0.50 57.44 LIG-0.02  C 
ATOM      8  CD1 LEU P   3     -16.588  25.246 -13.073  0.50 57.60 LIG 0.01  C 
ATOM      9  CD2 LEU P   3     -16.654  26.377 -10.818  0.50 57.51 LIG 0.01  C 
ENDBRANCH 6 7
ENDBRANCH 5 6
BRANCH 5 10
ATOM     10  C   LEU P   3     -16.965  21.700 -12.298  0.50 57.14 LIG 0.24  C 
ATOM     11  N   HIS P   4     -17.377  21.017 -13.366  0.50 57.08 LIG-0.35  N 
ATOM     12 H    HIS P   4     -17.886  21.355 -13.971  0.50 57.08 LIG 0.16  HD
ATOM     13 O    LEU P   3     -16.280  21.209 -11.403  0.50 57.14 LIG-0.27  OA
BRANCH 11 14
ATOM     14  CA  HIS P   4     -17.009  19.625 -13.621  0.50 57.02 LIG 0.17  C 
BRANCH 14 15
ATOM     15  CB  HIS P   4     -15.479  19.493 -13.753  0.50 56.94 LIG 0.09  C 
BRANCH 15 16
ATOM     16  CG  HIS P   4     -14.888  20.222 -14.926  0.50 56.80 LIG 0.05  A 
ATOM     17 ND1  HIS P   4     -15.056  21.574 -15.135  0.50 56.77 LIG-0.25  NA
ATOM     18  CE1 HIS P   4     -14.435  21.928 -16.246  0.50 56.50 LIG 0.21  A 
ATOM     19  NE2 HIS P   4     -13.874  20.854 -16.770  0.50 56.43 LIG-0.36  N 
ATOM     20 HE2  HIS P   4     -13.414  20.835 -17.496  0.50 56.43 LIG 0.17  HD
ATOM     21  CD2 HIS P   4     -14.147  19.773 -15.967  0.50 56.57 LIG 0.12  A 
ENDBRANCH 15 16
ENDBRANCH 14 15
BRANCH 14 22
ATOM     22  C   HIS P   4     -17.544  18.732 -12.504  0.50 57.04 LIG 0.22  C 
ATOM     23 O    HIS P   4     -17.031  18.743 -11.386  0.50 57.12 LIG-0.29  OA
ENDBRANCH 14 22
ENDBRANCH 11 14
ENDBRANCH 5 10
ENDBRANCH 3 5
BRANCH 1 24
ATOM     24  CA  LEU P   2     -20.854  21.804 -12.338  0.50 57.16 LIG 0.18  C 
BRANCH 24 25
ATOM     25  N   LEU P   2     -21.100  22.250 -13.685  0.50 57.19 LIG-0.35  N 
ATOM     26  C   VAL P   1     -21.359  23.532 -13.891  0.50 57.27 LIG 0.25  C 
ATOM     27 O    VAL P   1     -21.155  24.399 -13.036  0.50 57.24 LIG-0.27  OA
ATOM     28 H    LEU P   2     -21.064  21.644 -14.294  0.50 57.19 LIG 0.16  HD
BRANCH 26 29
ATOM     29  CA  VAL P   1     -21.880  23.873 -15.272  0.50 57.27 LIG 0.28  C 
BRANCH 29 30
ATOM     30  CB  VAL P   1     -22.770  25.127 -15.209  0.50 57.30 LIG 0.02  C 
ATOM     31  CG2 VAL P   1     -23.801  25.002 -14.098  0.50 57.34 LIG 0.01  C 
ATOM     32  CG1 VAL P   1     -23.438  25.382 -16.554  0.50 57.33 LIG 0.01  C 
ENDBRANCH 29 30
BRANCH 29 33
ATOM     33  N   VAL P   1     -22.653  22.695 -15.756  0.50 57.23 LIG-0.07  N 
ATOM     34 H3   VAL P   1     -22.792  22.770 -16.631  0.50 57.23 LIG 0.28  HD
ATOM     35 H2   VAL P   1     -23.436  22.660 -15.334  0.50 57.23 LIG 0.28  HD
ATOM     36 H1   VAL P   1     -22.194  21.950 -15.590  0.50 57.23 LIG 0.28  HD
ENDBRANCH 29 33
ENDBRANCH 26 29
ENDBRANCH 24 25
BRANCH 24 37
ATOM     37  CB  LEU P   2     -21.299  20.347 -12.169  0.50 57.14 LIG 0.04  C 
BRANCH 37 38
ATOM     38  CG  LEU P   2     -21.765  19.405 -13.259  0.50 56.96 LIG-0.02  C 
ATOM     39  CD1 LEU P   2     -20.550  19.036 -14.105  0.50 57.03 LIG 0.01  C 
ATOM     40  CD2 LEU P   2     -22.404  18.191 -12.640  0.50 56.70 LIG 0.01  C 
ENDBRANCH 37 38
ENDBRANCH 24 37
ENDBRANCH 1 24
TORSDOF 15
ENDMDL
MODEL 19
USER: ADFR SOLUTION from run 69
USER: SCORE 14.293994 LL:  -3.595 LR: -11.696 RR:   0.000 FEB:  -7.222
USER: RMSD 6.177693
USER: SEED 68
USER: STATUS no improvement in best 13 clusters for 5 generations
USER: GENES 17
USER: genes 0 Translation |==|  0.58056 0.54577 0.49023
USER: genes 1 Rotation |==|  0.24370 0.33680 0.66528 0.86105
USER: genes 2 Torsion [C]-N--CA-[CB] |==|  0.82082
USER: genes 3 Torsion [N]-CA--CB-[CG] |==|  0.50228
USER: genes 4 Torsion [CA]-CB--CG-[CD1] |==|  0.15079
USER: genes 5 Torsion [N]-CA--C-[N] |==|  0.17403
USER: genes 6 Torsion [C]-N--CA-[CB] |==|  0.79950
USER: genes 7 Torsion [N]-CA--CB-[CG] |==|  0.89462
USER: genes 8 Torsion [CA]-CB--CG-[ND1] |==|  0.73613
USER: genes 9 Torsion [N]-CA--C-[O] |==|  0.30884
USER: genes 10 Torsion [N]-C--CA-[N] |==|  0.97252
USER: genes 11 Torsion [C]-CA--N-[C] |==|  0.69273
USER: genes 12 Torsion [N]-C--CA-[N] |==|  0.58999
USER: genes 13 Torsion [C]-CA--CB-[CG2] |==|  0.77621
USER: genes 14 Torsion [C]-CA--N-[H3] |==|  0.08014
USER: genes 15 Torsion [C]-CA--CB-[CG] |==|  0.44094
USER: genes 16 Torsion [CA]-CB--CG-[CD1] |==|  0.21258
ROOT
ATOM      1  C   LEU P   2     -17.613  23.693 -15.053  0.50 57.15 LIG 0.24  C 
ATOM      2 O    LEU P   2     -16.519  23.196 -15.341  0.50 57.16 LIG-0.27  OA
ATOM      3  N   LEU P   3     -18.079  24.002 -13.856  0.50 57.16 LIG-0.35  N 
ATOM      4 H    LEU P   3     -18.923  24.121 -13.738  0.50 57.16 LIG 0.16  HD
ENDROOT
BRANCH 3 5
ATOM      5  CA  LEU P   3     -17.365  24.186 -12.636  0.50 57.19 LIG 0.18  C 
BRANCH 5 6
ATOM      6  CB  LEU P   3     -16.673  22.943 -12.116  0.50 57.26 LIG 0.04  C 
BRANCH 6 7
ATOM      7  CG  LEU P   3     -16.022  23.430 -10.816  0.50 57.44 LIG-0.02  C 
ATOM      8  CD1 LEU P   3     -17.030  24.079  -9.885  0.50 57.60 LIG 0.01  C 
ATOM      9  CD2 LEU P   3     -15.229  22.327 -10.121  0.50 57.51 LIG 0.01  C 
ENDBRANCH 6 7
ENDBRANCH 5 6
BRANCH 5 10
ATOM     10  C   LEU P   3     -16.383  25.245 -13.119  0.50 57.14 LIG 0.24  C 
ATOM     11  N   HIS P   4     -16.934  26.392 -13.516  0.50 57.08 LIG-0.35  N 
ATOM     12 H    HIS P   4     -17.781  26.537 -13.495  0.50 57.08 LIG 0.16  HD
ATOM     13 O    LEU P   3     -15.178  25.011 -13.194  0.50 57.14 LIG-0.27  OA
BRANCH 11 14
ATOM     14  CA  HIS P   4     -16.160  27.521 -14.028  0.50 57.02 LIG 0.17  C 
BRANCH 14 15
ATOM     15  CB  HIS P   4     -15.386  28.201 -12.881  0.50 56.94 LIG 0.09  C 
BRANCH 15 16
ATOM     16  CG  HIS P   4     -16.134  28.275 -11.581  0.50 56.80 LIG 0.05  A 
ATOM     17 ND1  HIS P   4     -16.867  29.376 -11.195  0.50 56.77 LIG-0.25  NA
ATOM     18  CE1 HIS P   4     -17.400  29.156 -10.006  0.50 56.50 LIG 0.21  A 
ATOM     19  NE2 HIS P   4     -17.035  27.954  -9.603  0.50 56.43 LIG-0.36  N 
ATOM     20 HE2  HIS P   4     -17.259  27.587  -8.857  0.50 56.43 LIG 0.17  HD
ATOM     21  CD2 HIS P   4     -16.239  27.383 -10.566  0.50 56.57 LIG 0.12  A 
ENDBRANCH 15 16
ENDBRANCH 14 15
BRANCH 14 22
ATOM     22  C   HIS P   4     -15.212  27.047 -15.126  0.50 57.04 LIG 0.22  C 
ATOM     23 O    HIS P   4     -15.387  27.379 -16.299  0.50 57.12 LIG-0.29  OA
ENDBRANCH 14 22
ENDBRANCH 11 14
ENDBRANCH 5 10
ENDBRANCH 3 5
BRANCH 1 24
ATOM     24  CA  LEU P   2     -18.688  24.059 -16.017  0.50 57.16 LIG 0.18  C 
BRANCH 24 25
ATOM     25  N   LEU P   2     -20.013  24.434 -15.592  0.50 57.19 LIG-0.35  N 
ATOM     26  C   VAL P   1     -21.016  23.609 -15.846  0.50 57.27 LIG 0.25  C 
ATOM     27 O    VAL P   1     -20.844  22.437 -16.198  0.50 57.24 LIG-0.27  OA
ATOM     28 H    LEU P   2     -20.078  25.190 -15.188  0.50 57.19 LIG 0.16  HD
BRANCH 26 29
ATOM     29  CA  VAL P   1     -22.399  24.186 -15.628  0.50 57.27 LIG 0.28  C 
BRANCH 29 30
ATOM     30  CB  VAL P   1     -22.348  25.306 -14.573  0.50 57.30 LIG 0.02  C 
ATOM     31  CG2 VAL P   1     -22.334  24.723 -13.168  0.50 57.34 LIG 0.01  C 
ATOM     32  CG1 VAL P   1     -23.510  26.273 -14.757  0.50 57.33 LIG 0.01  C 
ENDBRANCH 29 30
BRANCH 29 33
ATOM     33  N   VAL P   1     -23.277  23.070 -15.178  0.50 57.23 LIG-0.07  N 
ATOM     34 H3   VAL P   1     -22.790  22.464 -14.744  0.50 57.23 LIG 0.28  HD
ATOM     35 H2   VAL P   1     -23.661  22.690 -15.885  0.50 57.23 LIG 0.28  HD
ATOM     36 H1   VAL P   1     -23.907  23.389 -14.634  0.50 57.23 LIG 0.28  HD
ENDBRANCH 29 33
ENDBRANCH 26 29
ENDBRANCH 24 25
BRANCH 24 37
ATOM     37  CB  LEU P   2     -18.025  25.216 -16.774  0.50 57.14 LIG 0.04  C 
BRANCH 37 38
ATOM     38  CG  LEU P   2     -18.392  25.734 -18.148  0.50 56.96 LIG-0.02  C 
ATOM     39  CD1 LEU P   2     -19.663  26.567 -18.008  0.50 57.03 LIG 0.01  C 
ATOM     40  CD2 LEU P   2     -17.252  26.544 -18.705  0.50 56.70 LIG 0.01  C 
ENDBRANCH 37 38
ENDBRANCH 24 37
ENDBRANCH 1 24
TORSDOF 15
ENDMDL
MODEL 20
USER: ADFR SOLUTION from run 111
USER: SCORE 13.613310 LL:  -3.417 LR: -11.695 RR:   0.000 FEB:  -7.220
USER: RMSD 6.538959
USER: SEED 110
USER: STATUS no improvement in best 9 clusters for 5 generations
USER: GENES 17
USER: genes 0 Translation |==|  0.57819 0.54161 0.51207
USER: genes 1 Rotation |==|  0.79204 0.31152 0.14172 0.52869
USER: genes 2 Torsion [C]-N--CA-[CB] |==|  0.41067
USER: genes 3 Torsion [N]-CA--CB-[CG] |==|  0.91812
USER: genes 4 Torsion [CA]-CB--CG-[CD1] |==|  0.41472
USER: genes 5 Torsion [N]-CA--C-[N] |==|  0.89329
USER: genes 6 Torsion [C]-N--CA-[CB] |==|  0.43998
USER: genes 7 Torsion [N]-CA--CB-[CG] |==|  0.25564
USER: genes 8 Torsion [CA]-CB--CG-[ND1] |==|  0.41169
USER: genes 9 Torsion [N]-CA--C-[O] |==|  0.08987
USER: genes 10 Torsion [N]-C--CA-[N] |==|  0.37465
USER: genes 11 Torsion [C]-CA--N-[C] |==|  0.58333
USER: genes 12 Torsion [N]-C--CA-[N] |==|  0.38460
USER: genes 13 Torsion [C]-CA--CB-[CG2] |==|  0.55073
USER: genes 14 Torsion [C]-CA--N-[H3] |==|  0.32339
USER: genes 15 Torsion [C]-CA--CB-[CG] |==|  0.79573
USER: genes 16 Torsion [CA]-CB--CG-[CD1] |==|  0.29617
ROOT
ATOM      1  C   LEU P   2     -17.684  23.568 -14.398  0.50 57.15 LIG 0.24  C 
ATOM      2 O    LEU P   2     -16.661  22.901 -14.587  0.50 57.16 LIG-0.27  OA
ATOM      3  N   LEU P   3     -18.122  24.605 -15.091  0.50 57.16 LIG-0.35  N 
ATOM      4 H    LEU P   3     -18.706  25.138 -14.750  0.50 57.16 LIG 0.16  HD
ENDROOT
BRANCH 3 5
ATOM      5  CA  LEU P   3     -17.764  25.018 -16.407  0.50 57.19 LIG 0.18  C 
BRANCH 5 6
ATOM      6  CB  LEU P   3     -18.878  25.691 -17.183  0.50 57.26 LIG 0.04  C 
BRANCH 6 7
ATOM      7  CG  LEU P   3     -20.141  25.039 -16.606  0.50 57.44 LIG-0.02  C 
ATOM      8  CD1 LEU P   3     -21.329  25.983 -16.634  0.50 57.60 LIG 0.01  C 
ATOM      9  CD2 LEU P   3     -20.455  23.704 -17.274  0.50 57.51 LIG 0.01  C 
ENDBRANCH 6 7
ENDBRANCH 5 6
BRANCH 5 10
ATOM     10  C   LEU P   3     -16.646  25.982 -16.033  0.50 57.14 LIG 0.24  C 
ATOM     11  N   HIS P   4     -16.866  26.710 -14.939  0.50 57.08 LIG-0.35  N 
ATOM     12 H    HIS P   4     -17.580  26.640 -14.465  0.50 57.08 LIG 0.16  HD
ATOM     13 O    LEU P   3     -15.652  26.112 -16.745  0.50 57.14 LIG-0.27  OA
BRANCH 11 14
ATOM     14  CA  HIS P   4     -15.920  27.701 -14.429  0.50 57.02 LIG 0.17  C 
BRANCH 14 15
ATOM     15  CB  HIS P   4     -16.647  28.717 -13.526  0.50 56.94 LIG 0.09  C 
BRANCH 15 16
ATOM     16  CG  HIS P   4     -16.657  28.361 -12.067  0.50 56.80 LIG 0.05  A 
ATOM     17 ND1  HIS P   4     -16.647  29.304 -11.061  0.50 56.77 LIG-0.25  NA
ATOM     18  CE1 HIS P   4     -16.648  28.697  -9.888  0.50 56.50 LIG 0.21  A 
ATOM     19  NE2 HIS P   4     -16.652  27.393 -10.094  0.50 56.43 LIG-0.36  N 
ATOM     20 HE2  HIS P   4     -16.654  26.790  -9.480  0.50 56.43 LIG 0.17  HD
ATOM     21  CD2 HIS P   4     -16.653  27.156 -11.447  0.50 56.57 LIG 0.12  A 
ENDBRANCH 15 16
ENDBRANCH 14 15
BRANCH 14 22
ATOM     22  C   HIS P   4     -14.791  27.004 -13.674  0.50 57.04 LIG 0.22  C 
ATOM     23 O    HIS P   4     -14.401  25.886 -14.013  0.50 57.12 LIG-0.29  OA
ENDBRANCH 14 22
ENDBRANCH 11 14
ENDBRANCH 5 10
ENDBRANCH 3 5
BRANCH 1 24
ATOM     24  CA  LEU P   2     -18.680  23.354 -13.311  0.50 57.16 LIG 0.18  C 
BRANCH 24 25
ATOM     25  N   LEU P   2     -19.182  22.047 -12.970  0.50 57.19 LIG-0.35  N 
ATOM     26  C   VAL P   1     -20.409  21.947 -12.484  0.50 57.27 LIG 0.25  C 
ATOM     27 O    VAL P   1     -21.227  22.871 -12.541  0.50 57.24 LIG-0.27  OA
ATOM     28 H    LEU P   2     -18.643  21.391 -13.105  0.50 57.19 LIG 0.16  HD
BRANCH 26 29
ATOM     29  CA  VAL P   1     -20.762  20.599 -11.891  0.50 57.27 LIG 0.28  C 
BRANCH 29 30
ATOM     30  CB  VAL P   1     -21.598  19.781 -12.891  0.50 57.30 LIG 0.02  C 
ATOM     31  CG2 VAL P   1     -22.331  18.650 -12.184  0.50 57.34 LIG 0.01  C 
ATOM     32  CG1 VAL P   1     -20.723  19.250 -14.018  0.50 57.33 LIG 0.01  C 
ENDBRANCH 29 30
BRANCH 29 33
ATOM     33  N   VAL P   1     -21.529  20.854 -10.639  0.50 57.23 LIG-0.07  N 
ATOM     34 H3   VAL P   1     -22.354  20.533 -10.725  0.50 57.23 LIG 0.28  HD
ATOM     35 H2   VAL P   1     -21.567  21.730 -10.487  0.50 57.23 LIG 0.28  HD
ATOM     36 H1   VAL P   1     -21.124  20.452  -9.956  0.50 57.23 LIG 0.28  HD
ENDBRANCH 29 33
ENDBRANCH 26 29
ENDBRANCH 24 25
BRANCH 24 37
ATOM     37  CB  LEU P   2     -17.949  23.972 -12.113  0.50 57.14 LIG 0.04  C 
BRANCH 37 38
ATOM     38  CG  LEU P   2     -16.768  23.390 -11.367  0.50 56.96 LIG-0.02  C 
ATOM     39  CD1 LEU P   2     -15.530  24.194 -11.754  0.50 57.03 LIG 0.01  C 
ATOM     40  CD2 LEU P   2     -17.029  23.445  -9.885  0.50 56.70 LIG 0.01  C 
ENDBRANCH 37 38
ENDBRANCH 24 37
ENDBRANCH 1 24
TORSDOF 15
ENDMDL
MODEL 21
USER: ADFR SOLUTION from run 39
USER: SCORE 13.824957 LL:  -2.831 LR: -11.673 RR:   0.000 FEB:  -7.198
USER: RMSD 6.883385
USER: SEED 38
USER: STATUS no improvement in best 19 clusters for 5 generations
USER: GENES 17
USER: genes 0 Translation |==|  0.59298 0.56025 0.55288
USER: genes 1 Rotation |==|  0.07633 0.60702 0.73516 0.56121
USER: genes 2 Torsion [C]-N--CA-[CB] |==|  0.77674
USER: genes 3 Torsion [N]-CA--CB-[CG] |==|  0.89381
USER: genes 4 Torsion [CA]-CB--CG-[CD1] |==|  0.28860
USER: genes 5 Torsion [N]-CA--C-[N] |==|  0.20322
USER: genes 6 Torsion [C]-N--CA-[CB] |==|  0.85714
USER: genes 7 Torsion [N]-CA--CB-[CG] |==|  0.70336
USER: genes 8 Torsion [CA]-CB--CG-[ND1] |==|  0.49728
USER: genes 9 Torsion [N]-CA--C-[O] |==|  0.71988
USER: genes 10 Torsion [N]-C--CA-[N] |==|  0.09043
USER: genes 11 Torsion [C]-CA--N-[C] |==|  0.61111
USER: genes 12 Torsion [N]-C--CA-[N] |==|  0.28968
USER: genes 13 Torsion [C]-CA--CB-[CG2] |==|  0.80205
USER: genes 14 Torsion [C]-CA--N-[H3] |==|  0.57323
USER: genes 15 Torsion [C]-CA--CB-[CG] |==|  0.32056
USER: genes 16 Torsion [CA]-CB--CG-[CD1] |==|  0.18433
ROOT
ATOM      1  C   LEU P   2     -17.241  24.128 -13.174  0.50 57.15 LIG 0.24  C 
ATOM      2 O    LEU P   2     -16.242  23.590 -12.681  0.50 57.16 LIG-0.27  OA
ATOM      3  N   LEU P   3     -17.331  25.318 -13.741  0.50 57.16 LIG-0.35  N 
ATOM      4 H    LEU P   3     -18.099  25.693 -13.838  0.50 57.16 LIG 0.16  HD
ENDROOT
BRANCH 3 5
ATOM      5  CA  LEU P   3     -16.291  26.146 -14.256  0.50 57.19 LIG 0.18  C 
BRANCH 5 6
ATOM      6  CB  LEU P   3     -15.542  26.943 -13.208  0.50 57.26 LIG 0.04  C 
BRANCH 6 7
ATOM      7  CG  LEU P   3     -16.650  27.353 -12.230  0.50 57.44 LIG-0.02  C 
ATOM      8  CD1 LEU P   3     -16.619  26.523 -10.959  0.50 57.60 LIG 0.01  C 
ATOM      9  CD2 LEU P   3     -16.633  28.850 -11.936  0.50 57.51 LIG 0.01  C 
ENDBRANCH 6 7
ENDBRANCH 5 6
BRANCH 5 10
ATOM     10  C   LEU P   3     -15.436  25.053 -14.883  0.50 57.14 LIG 0.24  C 
ATOM     11  N   HIS P   4     -15.929  24.519 -16.001  0.50 57.08 LIG-0.35  N 
ATOM     12 H    HIS P   4     -16.669  24.773 -16.356  0.50 57.08 LIG 0.16  HD
ATOM     13 O    LEU P   3     -14.405  24.661 -14.342  0.50 57.14 LIG-0.27  OA
BRANCH 11 14
ATOM     14  CA  HIS P   4     -15.264  23.447 -16.740  0.50 57.02 LIG 0.17  C 
BRANCH 14 15
ATOM     15  CB  HIS P   4     -13.795  23.822 -17.018  0.50 56.94 LIG 0.09  C 
BRANCH 15 16
ATOM     16  CG  HIS P   4     -13.502  24.188 -18.445  0.50 56.80 LIG 0.05  A 
ATOM     17 ND1  HIS P   4     -12.253  24.571 -18.884  0.50 56.77 LIG-0.25  NA
ATOM     18  CE1 HIS P   4     -12.303  24.840 -20.176  0.50 56.50 LIG 0.21  A 
ATOM     19  NE2 HIS P   4     -13.542  24.652 -20.592  0.50 56.43 LIG-0.36  N 
ATOM     20 HE2  HIS P   4     -13.820  24.764 -21.398  0.50 56.43 LIG 0.17  HD
ATOM     21  CD2 HIS P   4     -14.312  24.249 -19.529  0.50 56.57 LIG 0.12  A 
ENDBRANCH 15 16
ENDBRANCH 14 15
BRANCH 14 22
ATOM     22  C   HIS P   4     -15.360  22.139 -15.959  0.50 57.04 LIG 0.22  C 
ATOM     23 O    HIS P   4     -14.407  21.726 -15.298  0.50 57.12 LIG-0.29  OA
ENDBRANCH 14 22
ENDBRANCH 11 14
ENDBRANCH 5 10
ENDBRANCH 3 5
BRANCH 1 24
ATOM     24  CA  LEU P   2     -18.609  23.541 -13.234  0.50 57.16 LIG 0.18  C 
BRANCH 24 25
ATOM     25  N   LEU P   2     -19.520  23.816 -14.316  0.50 57.19 LIG-0.35  N 
ATOM     26  C   VAL P   1     -20.800  24.001 -14.034  0.50 57.27 LIG 0.25  C 
ATOM     27 O    VAL P   1     -21.209  24.199 -12.885  0.50 57.24 LIG-0.27  OA
ATOM     28 H    LEU P   2     -19.172  23.845 -15.101  0.50 57.19 LIG 0.16  HD
BRANCH 26 29
ATOM     29  CA  VAL P   1     -21.732  24.003 -15.228  0.50 57.27 LIG 0.28  C 
BRANCH 29 30
ATOM     30  CB  VAL P   1     -22.727  25.172 -15.124  0.50 57.30 LIG 0.02  C 
ATOM     31  CG2 VAL P   1     -23.745  24.918 -14.022  0.50 57.34 LIG 0.01  C 
ATOM     32  CG1 VAL P   1     -23.413  25.417 -16.462  0.50 57.33 LIG 0.01  C 
ENDBRANCH 29 30
BRANCH 29 33
ATOM     33  N   VAL P   1     -22.446  22.695 -15.233  0.50 57.23 LIG-0.07  N 
ATOM     34 H3   VAL P   1     -22.690  22.493 -16.064  0.50 57.23 LIG 0.28  HD
ATOM     35 H2   VAL P   1     -23.168  22.749 -14.717  0.50 57.23 LIG 0.28  HD
ATOM     36 H1   VAL P   1     -21.905  22.060 -14.921  0.50 57.23 LIG 0.28  HD
ENDBRANCH 29 33
ENDBRANCH 26 29
ENDBRANCH 24 25
BRANCH 24 37
ATOM     37  CB  LEU P   2     -18.292  22.042 -13.172  0.50 57.14 LIG 0.04  C 
BRANCH 37 38
ATOM     38  CG  LEU P   2     -18.672  21.076 -12.071  0.50 56.96 LIG-0.02  C 
ATOM     39  CD1 LEU P   2     -20.193  20.945 -12.072  0.50 57.03 LIG 0.01  C 
ATOM     40  CD2 LEU P   2     -17.998  19.751 -12.305  0.50 56.70 LIG 0.01  C 
ENDBRANCH 37 38
ENDBRANCH 24 37
ENDBRANCH 1 24
TORSDOF 15
ENDMDL
MODEL 22
USER: ADFR SOLUTION from run 44
USER: SCORE 12.832669 LL:  -2.945 LR: -11.616 RR:   0.000 FEB:  -7.142
USER: RMSD 6.480833
USER: SEED 43
USER: STATUS no improvement in best 13 clusters for 5 generations
USER: GENES 17
USER: genes 0 Translation |==|  0.61760 0.56770 0.62276
USER: genes 1 Rotation |==|  0.48218 0.01038 0.46758 0.59434
USER: genes 2 Torsion [C]-N--CA-[CB] |==|  0.37634
USER: genes 3 Torsion [N]-CA--CB-[CG] |==|  0.52834
USER: genes 4 Torsion [CA]-CB--CG-[CD1] |==|  0.35864
USER: genes 5 Torsion [N]-CA--C-[N] |==|  0.75034
USER: genes 6 Torsion [C]-N--CA-[CB] |==|  0.28333
USER: genes 7 Torsion [N]-CA--CB-[CG] |==|  0.71708
USER: genes 8 Torsion [CA]-CB--CG-[ND1] |==|  0.60490
USER: genes 9 Torsion [N]-CA--C-[O] |==|  0.13080
USER: genes 10 Torsion [N]-C--CA-[N] |==|  0.01954
USER: genes 11 Torsion [C]-CA--N-[C] |==|  0.73180
USER: genes 12 Torsion [N]-C--CA-[N] |==|  0.89550
USER: genes 13 Torsion [C]-CA--CB-[CG2] |==|  0.85248
USER: genes 14 Torsion [C]-CA--N-[H3] |==|  0.99572
USER: genes 15 Torsion [C]-CA--CB-[CG] |==|  0.35591
USER: genes 16 Torsion [CA]-CB--CG-[CD1] |==|  0.11685
ROOT
ATOM      1  C   LEU P   2     -16.502  24.351 -11.077  0.50 57.15 LIG 0.24  C 
ATOM      2 O    LEU P   2     -16.223  24.180  -9.885  0.50 57.16 LIG-0.27  OA
ATOM      3  N   LEU P   3     -17.042  23.489 -11.921  0.50 57.16 LIG-0.35  N 
ATOM      4 H    LEU P   3     -16.981  23.619 -12.770  0.50 57.16 LIG 0.16  HD
ENDROOT
BRANCH 3 5
ATOM      5  CA  LEU P   3     -17.761  22.291 -11.641  0.50 57.19 LIG 0.18  C 
BRANCH 5 6
ATOM      6  CB  LEU P   3     -19.021  22.104 -12.461  0.50 57.26 LIG 0.04  C 
BRANCH 6 7
ATOM      7  CG  LEU P   3     -19.702  20.912 -11.778  0.50 57.44 LIG-0.02  C 
ATOM      8  CD1 LEU P   3     -21.155  21.202 -11.447  0.50 57.60 LIG 0.01  C 
ATOM      9  CD2 LEU P   3     -19.544  19.623 -12.579  0.50 57.51 LIG 0.01  C 
ENDBRANCH 6 7
ENDBRANCH 5 6
BRANCH 5 10
ATOM     10  C   LEU P   3     -16.670  21.294 -12.006  0.50 57.14 LIG 0.24  C 
ATOM     11  N   HIS P   4     -16.665  20.900 -13.279  0.50 57.08 LIG-0.35  N 
ATOM     12 H    HIS P   4     -17.226  21.190 -13.863  0.50 57.08 LIG 0.16  HD
ATOM     13 O    LEU P   3     -15.905  20.846 -11.155  0.50 57.14 LIG-0.27  OA
BRANCH 11 14
ATOM     14  CA  HIS P   4     -15.707  19.935 -13.818  0.50 57.02 LIG 0.17  C 
BRANCH 14 15
ATOM     15  CB  HIS P   4     -16.369  18.551 -13.962  0.50 56.94 LIG 0.09  C 
BRANCH 15 16
ATOM     16  CG  HIS P   4     -16.014  17.572 -12.880  0.50 56.80 LIG 0.05  A 
ATOM     17 ND1  HIS P   4     -15.814  16.228 -13.114  0.50 56.77 LIG-0.25  NA
ATOM     18  CE1 HIS P   4     -15.527  15.621 -11.977  0.50 56.50 LIG 0.21  A 
ATOM     19  NE2 HIS P   4     -15.538  16.520 -11.010  0.50 56.43 LIG-0.36  N 
ATOM     20 HE2  HIS P   4     -15.379  16.363 -10.179  0.50 56.43 LIG 0.17  HD
ATOM     21  CD2 HIS P   4     -15.844  17.747 -11.547  0.50 56.57 LIG 0.12  A 
ENDBRANCH 15 16
ENDBRANCH 14 15
BRANCH 14 22
ATOM     22  C   HIS P   4     -15.168  20.430 -15.158  0.50 57.04 LIG 0.22  C 
ATOM     23 O    HIS P   4     -14.779  21.589 -15.293  0.50 57.12 LIG-0.29  OA
ENDBRANCH 14 22
ENDBRANCH 11 14
ENDBRANCH 5 10
ENDBRANCH 3 5
BRANCH 1 24
ATOM     24  CA  LEU P   2     -16.279  25.601 -11.856  0.50 57.16 LIG 0.18  C 
BRANCH 24 25
ATOM     25  N   LEU P   2     -16.760  25.769 -13.204  0.50 57.19 LIG-0.35  N 
ATOM     26  C   VAL P   1     -15.929  25.534 -14.206  0.50 57.27 LIG 0.25  C 
ATOM     27 O    VAL P   1     -14.854  24.944 -14.058  0.50 57.24 LIG-0.27  OA
ATOM     28 H    LEU P   2     -17.580  26.017 -13.281  0.50 57.19 LIG 0.16  HD
BRANCH 26 29
ATOM     29  CA  VAL P   1     -16.410  25.997 -15.566  0.50 57.27 LIG 0.28  C 
BRANCH 29 30
ATOM     30  CB  VAL P   1     -16.102  27.493 -15.758  0.50 57.30 LIG 0.02  C 
ATOM     31  CG2 VAL P   1     -16.655  28.310 -14.600  0.50 57.34 LIG 0.01  C 
ATOM     32  CG1 VAL P   1     -16.647  27.988 -17.091  0.50 57.33 LIG 0.01  C 
ENDBRANCH 29 30
BRANCH 29 33
ATOM     33  N   VAL P   1     -17.877  25.743 -15.627  0.50 57.23 LIG-0.07  N 
ATOM     34 H3   VAL P   1     -18.143  25.359 -14.869  0.50 57.23 LIG 0.28  HD
ATOM     35 H2   VAL P   1     -18.057  25.203 -16.311  0.50 57.23 LIG 0.28  HD
ATOM     36 H1   VAL P   1     -18.307  26.514 -15.736  0.50 57.23 LIG 0.28  HD
ENDBRANCH 29 33
ENDBRANCH 26 29
ENDBRANCH 24 25
BRANCH 24 37
ATOM     37  CB  LEU P   2     -16.916  26.645 -10.930  0.50 57.14 LIG 0.04  C 
BRANCH 37 38
ATOM     38  CG  LEU P   2     -16.283  27.925 -10.430  0.50 56.96 LIG-0.02  C 
ATOM     39  CD1 LEU P   2     -15.537  28.562 -11.599  0.50 57.03 LIG 0.01  C 
ATOM     40  CD2 LEU P   2     -17.349  28.838  -9.885  0.50 56.70 LIG 0.01  C 
ENDBRANCH 37 38
ENDBRANCH 24 37
ENDBRANCH 1 24
TORSDOF 15
ENDMDL
MODEL 23
USER: ADFR SOLUTION from run 73
USER: SCORE 12.420093 LL:  -2.717 LR: -11.568 RR:   0.000 FEB:  -7.094
USER: RMSD 6.356037
USER: SEED 72
USER: STATUS no improvement in best 17 clusters for 5 generations
USER: GENES 17
USER: genes 0 Translation |==|  0.61378 0.55144 0.62018
USER: genes 1 Rotation |==|  0.49235 0.00617 0.47639 0.57430
USER: genes 2 Torsion [C]-N--CA-[CB] |==|  0.39751
USER: genes 3 Torsion [N]-CA--CB-[CG] |==|  0.73744
USER: genes 4 Torsion [CA]-CB--CG-[CD1] |==|  0.33196
USER: genes 5 Torsion [N]-CA--C-[N] |==|  0.65442
USER: genes 6 Torsion [C]-N--CA-[CB] |==|  0.77881
USER: genes 7 Torsion [N]-CA--CB-[CG] |==|  0.43079
USER: genes 8 Torsion [CA]-CB--CG-[ND1] |==|  0.69502
USER: genes 9 Torsion [N]-CA--C-[O] |==|  0.16153
USER: genes 10 Torsion [N]-C--CA-[N] |==|  0.06111
USER: genes 11 Torsion [C]-CA--N-[C] |==|  0.73324
USER: genes 12 Torsion [N]-C--CA-[N] |==|  0.86189
USER: genes 13 Torsion [C]-CA--CB-[CG2] |==|  0.45467
USER: genes 14 Torsion [C]-CA--N-[H3] |==|  0.38197
USER: genes 15 Torsion [C]-CA--CB-[CG] |==|  0.40984
USER: genes 16 Torsion [CA]-CB--CG-[CD1] |==|  0.13268
ROOT
ATOM      1  C   LEU P   2     -16.616  23.863 -11.155  0.50 57.15 LIG 0.24  C 
ATOM      2 O    LEU P   2     -16.432  23.738  -9.939  0.50 57.16 LIG-0.27  OA
ATOM      3  N   LEU P   3     -17.048  22.955 -12.012  0.50 57.16 LIG-0.35  N 
ATOM      4 H    LEU P   3     -16.922  23.063 -12.856  0.50 57.16 LIG 0.16  HD
ENDROOT
BRANCH 3 5
ATOM      5  CA  LEU P   3     -17.740  21.735 -11.753  0.50 57.19 LIG 0.18  C 
BRANCH 5 6
ATOM      6  CB  LEU P   3     -18.800  21.381 -12.775  0.50 57.26 LIG 0.04  C 
BRANCH 6 7
ATOM      7  CG  LEU P   3     -20.082  21.947 -12.152  0.50 57.44 LIG-0.02  C 
ATOM      8  CD1 LEU P   3     -20.727  22.998 -13.037  0.50 57.60 LIG 0.01  C 
ATOM      9  CD2 LEU P   3     -21.064  20.848 -11.759  0.50 57.51 LIG 0.01  C 
ENDBRANCH 6 7
ENDBRANCH 5 6
BRANCH 5 10
ATOM     10  C   LEU P   3     -16.543  20.795 -11.799  0.50 57.14 LIG 0.24  C 
ATOM     11  N   HIS P   4     -16.647  19.787 -12.665  0.50 57.08 LIG-0.35  N 
ATOM     12 H    HIS P   4     -17.331  19.673 -13.173  0.50 57.08 LIG 0.16  HD
ATOM     13 O    LEU P   3     -15.592  20.936 -11.034  0.50 57.14 LIG-0.27  OA
BRANCH 11 14
ATOM     14  CA  HIS P   4     -15.611  18.770 -12.843  0.50 57.02 LIG 0.17  C 
BRANCH 14 15
ATOM     15  CB  HIS P   4     -14.475  19.316 -13.730  0.50 56.94 LIG 0.09  C 
BRANCH 15 16
ATOM     16  CG  HIS P   4     -13.144  18.653 -13.519  0.50 56.80 LIG 0.05  A 
ATOM     17 ND1  HIS P   4     -12.073  19.284 -12.923  0.50 56.77 LIG-0.25  NA
ATOM     18  CE1 HIS P   4     -11.041  18.460 -12.885  0.50 56.50 LIG 0.21  A 
ATOM     19  NE2 HIS P   4     -11.400  17.318 -13.441  0.50 56.43 LIG-0.36  N 
ATOM     20 HE2  HIS P   4     -10.896  16.627 -13.532  0.50 56.43 LIG 0.17  HD
ATOM     21  CD2 HIS P   4     -12.708  17.413 -13.850  0.50 56.57 LIG 0.12  A 
ENDBRANCH 15 16
ENDBRANCH 14 15
BRANCH 14 22
ATOM     22  C   HIS P   4     -15.081  18.324 -11.483  0.50 57.04 LIG 0.22  C 
ATOM     23 O    HIS P   4     -15.837  17.850 -10.635  0.50 57.12 LIG-0.29  OA
ENDBRANCH 14 22
ENDBRANCH 11 14
ENDBRANCH 5 10
ENDBRANCH 3 5
BRANCH 1 24
ATOM     24  CA  LEU P   2     -16.380  25.099 -11.953  0.50 57.16 LIG 0.18  C 
BRANCH 24 25
ATOM     25  N   LEU P   2     -17.019  25.332 -13.223  0.50 57.19 LIG-0.35  N 
ATOM     26  C   VAL P   1     -16.360  25.026 -14.329  0.50 57.27 LIG 0.25  C 
ATOM     27 O    VAL P   1     -15.342  24.326 -14.327  0.50 57.24 LIG-0.27  OA
ATOM     28 H    LEU P   2     -17.811  25.665 -13.189  0.50 57.19 LIG 0.16  HD
BRANCH 26 29
ATOM     29  CA  VAL P   1     -16.969  25.554 -15.611  0.50 57.27 LIG 0.28  C 
BRANCH 29 30
ATOM     30  CB  VAL P   1     -16.792  27.080 -15.695  0.50 57.30 LIG 0.02  C 
ATOM     31  CG2 VAL P   1     -17.023  27.573 -17.116  0.50 57.34 LIG 0.01  C 
ATOM     32  CG1 VAL P   1     -15.417  27.493 -15.186  0.50 57.33 LIG 0.01  C 
ENDBRANCH 29 30
BRANCH 29 33
ATOM     33  N   VAL P   1     -18.412  25.185 -15.600  0.50 57.23 LIG-0.07  N 
ATOM     34 H3   VAL P   1     -18.897  25.873 -15.888  0.50 57.23 LIG 0.28  HD
ATOM     35 H2   VAL P   1     -18.659  24.976 -14.771  0.50 57.23 LIG 0.28  HD
ATOM     36 H1   VAL P   1     -18.544  24.485 -16.134  0.50 57.23 LIG 0.28  HD
ENDBRANCH 29 33
ENDBRANCH 26 29
ENDBRANCH 24 25
BRANCH 24 37
ATOM     37  CB  LEU P   2     -16.783  26.183 -10.946  0.50 57.14 LIG 0.04  C 
BRANCH 37 38
ATOM     38  CG  LEU P   2     -16.195  27.571 -10.819  0.50 56.96 LIG-0.02  C 
ATOM     39  CD1 LEU P   2     -16.137  28.182 -12.217  0.50 57.03 LIG 0.01  C 
ATOM     40  CD2 LEU P   2     -17.039  28.396  -9.885  0.50 56.70 LIG 0.01  C 
ENDBRANCH 37 38
ENDBRANCH 24 37
ENDBRANCH 1 24
TORSDOF 15
ENDMDL
MODEL 24
USER: ADFR SOLUTION from run 2
USER: SCORE 13.553037 LL:  -3.244 LR: -11.553 RR:   0.000 FEB:  -7.079
USER: RMSD 5.681599
USER: SEED 30485
USER: STATUS no improvement in best 14 clusters for 5 generations
USER: GENES 17
USER: genes 0 Translation |==|  0.55771 0.54983 0.58529
USER: genes 1 Rotation |==|  0.97038 0.37215 0.38866 0.49973
USER: genes 2 Torsion [C]-N--CA-[CB] |==|  0.84444
USER: genes 3 Torsion [N]-CA--CB-[CG] |==|  0.62660
USER: genes 4 Torsion [CA]-CB--CG-[CD1] |==|  0.00236
USER: genes 5 Torsion [N]-CA--C-[N] |==|  0.07763
USER: genes 6 Torsion [C]-N--CA-[CB] |==|  0.36050
USER: genes 7 Torsion [N]-CA--CB-[CG] |==|  0.68168
USER: genes 8 Torsion [CA]-CB--CG-[ND1] |==|  0.26679
USER: genes 9 Torsion [N]-CA--C-[O] |==|  0.92589
USER: genes 10 Torsion [N]-C--CA-[N] |==|  0.02331
USER: genes 11 Torsion [C]-CA--N-[C] |==|  0.71732
USER: genes 12 Torsion [N]-C--CA-[N] |==|  0.19804
USER: genes 13 Torsion [C]-CA--CB-[CG2] |==|  0.16493
USER: genes 14 Torsion [C]-CA--N-[H3] |==|  0.95012
USER: genes 15 Torsion [C]-CA--CB-[CG] |==|  0.42149
USER: genes 16 Torsion [CA]-CB--CG-[CD1] |==|  0.98680
ROOT
ATOM      1  C   LEU P   2     -18.299  23.815 -12.201  0.50 57.15 LIG 0.24  C 
ATOM      2 O    LEU P   2     -17.644  23.595 -11.176  0.50 57.16 LIG-0.27  OA
ATOM      3  N   LEU P   3     -18.063  24.712 -13.143  0.50 57.16 LIG-0.35  N 
ATOM      4 H    LEU P   3     -18.690  24.945 -13.685  0.50 57.16 LIG 0.16  HD
ENDROOT
BRANCH 3 5
ATOM      5  CA  LEU P   3     -16.855  25.409 -13.434  0.50 57.19 LIG 0.18  C 
BRANCH 5 6
ATOM      6  CB  LEU P   3     -16.277  26.185 -12.268  0.50 57.26 LIG 0.04  C 
BRANCH 6 7
ATOM      7  CG  LEU P   3     -15.918  27.536 -12.898  0.50 57.44 LIG-0.02  C 
ATOM      8  CD1 LEU P   3     -16.279  27.590 -14.371  0.50 57.60 LIG 0.01  C 
ATOM      9  CD2 LEU P   3     -16.511  28.708 -12.121  0.50 57.51 LIG 0.01  C 
ENDBRANCH 6 7
ENDBRANCH 5 6
BRANCH 5 10
ATOM     10  C   LEU P   3     -16.001  24.210 -13.820  0.50 57.14 LIG 0.24  C 
ATOM     11  N   HIS P   4     -16.672  23.173 -14.322  0.50 57.08 LIG-0.35  N 
ATOM     12 H    HIS P   4     -17.525  23.176 -14.433  0.50 57.08 LIG 0.16  HD
ATOM     13 O    LEU P   3     -14.790  24.195 -13.611  0.50 57.14 LIG-0.27  OA
BRANCH 11 14
ATOM     14  CA  HIS P   4     -16.032  21.925 -14.735  0.50 57.02 LIG 0.17  C 
BRANCH 14 15
ATOM     15  CB  HIS P   4     -16.758  20.720 -14.106  0.50 56.94 LIG 0.09  C 
BRANCH 15 16
ATOM     16  CG  HIS P   4     -15.935  19.938 -13.122  0.50 56.80 LIG 0.05  A 
ATOM     17 ND1  HIS P   4     -15.994  20.142 -11.760  0.50 56.77 LIG-0.25  NA
ATOM     18  CE1 HIS P   4     -15.155  19.321 -11.155  0.50 56.50 LIG 0.21  A 
ATOM     19  NE2 HIS P   4     -14.548  18.594 -12.075  0.50 56.43 LIG-0.36  N 
ATOM     20 HE2  HIS P   4     -13.957  17.988 -11.923  0.50 56.43 LIG 0.17  HD
ATOM     21  CD2 HIS P   4     -15.014  18.963 -13.313  0.50 56.57 LIG 0.12  A 
ENDBRANCH 15 16
ENDBRANCH 14 15
BRANCH 14 22
ATOM     22  C   HIS P   4     -16.019  21.826 -16.258  0.50 57.04 LIG 0.22  C 
ATOM     23 O    HIS P   4     -16.871  22.401 -16.936  0.50 57.12 LIG-0.29  OA
ENDBRANCH 14 22
ENDBRANCH 11 14
ENDBRANCH 5 10
ENDBRANCH 3 5
BRANCH 1 24
ATOM     24  CA  LEU P   2     -19.540  23.104 -12.615  0.50 57.16 LIG 0.18  C 
BRANCH 24 25
ATOM     25  N   LEU P   2     -20.151  23.301 -13.905  0.50 57.19 LIG-0.35  N 
ATOM     26  C   VAL P   1     -21.217  24.081 -13.989  0.50 57.27 LIG 0.25  C 
ATOM     27 O    VAL P   1     -21.562  24.840 -13.077  0.50 57.24 LIG-0.27  OA
ATOM     28 H    LEU P   2     -19.778  22.891 -14.563  0.50 57.19 LIG 0.16  HD
BRANCH 26 29
ATOM     29  CA  VAL P   1     -21.963  24.017 -15.305  0.50 57.27 LIG 0.28  C 
BRANCH 29 30
ATOM     30  CB  VAL P   1     -22.981  25.168 -15.396  0.50 57.30 LIG 0.02  C 
ATOM     31  CG2 VAL P   1     -22.284  26.516 -15.289  0.50 57.34 LIG 0.01  C 
ATOM     32  CG1 VAL P   1     -24.059  25.020 -14.329  0.50 57.33 LIG 0.01  C 
ENDBRANCH 29 30
BRANCH 29 33
ATOM     33  N   VAL P   1     -22.648  22.695 -15.361  0.50 57.23 LIG-0.07  N 
ATOM     34 H3   VAL P   1     -22.278  22.143 -14.769  0.50 57.23 LIG 0.28  HD
ATOM     35 H2   VAL P   1     -22.564  22.351 -16.178  0.50 57.23 LIG 0.28  HD
ATOM     36 H1   VAL P   1     -23.511  22.800 -15.170  0.50 57.23 LIG 0.28  HD
ENDBRANCH 29 33
ENDBRANCH 26 29
ENDBRANCH 24 25
BRANCH 24 37
ATOM     37  CB  LEU P   2     -19.115  21.641 -12.445  0.50 57.14 LIG 0.04  C 
BRANCH 37 38
ATOM     38  CG  LEU P   2     -20.011  20.463 -12.128  0.50 56.96 LIG-0.02  C 
ATOM     39  CD1 LEU P   2     -21.418  21.001 -11.884  0.50 57.03 LIG 0.01  C 
ATOM     40  CD2 LEU P   2     -19.978  19.481 -13.268  0.50 56.70 LIG 0.01  C 
ENDBRANCH 37 38
ENDBRANCH 24 37
ENDBRANCH 1 24
TORSDOF 15
ENDMDL
MODEL 25
USER: ADFR SOLUTION from run 60
USER: SCORE 13.293219 LL:  -2.719 LR: -11.482 RR:   0.000 FEB:  -7.008
USER: RMSD 6.025625
USER: SEED 59
USER: STATUS no improvement in best 15 clusters for 5 generations
USER: GENES 17
USER: genes 0 Translation |==|  0.49938 0.52455 0.54673
USER: genes 1 Rotation |==|  0.78795 0.22932 0.71974 0.71338
USER: genes 2 Torsion [C]-N--CA-[CB] |==|  0.56667
USER: genes 3 Torsion [N]-CA--CB-[CG] |==|  0.81411
USER: genes 4 Torsion [CA]-CB--CG-[CD1] |==|  0.54511
USER: genes 5 Torsion [N]-CA--C-[N] |==|  0.78911
USER: genes 6 Torsion [C]-N--CA-[CB] |==|  0.17402
USER: genes 7 Torsion [N]-CA--CB-[CG] |==|  0.68254
USER: genes 8 Torsion [CA]-CB--CG-[ND1] |==|  0.79236
USER: genes 9 Torsion [N]-CA--C-[O] |==|  0.71340
USER: genes 10 Torsion [N]-C--CA-[N] |==|  0.12533
USER: genes 11 Torsion [C]-CA--N-[C] |==|  0.13399
USER: genes 12 Torsion [N]-C--CA-[N] |==|  0.65898
USER: genes 13 Torsion [C]-CA--CB-[CG2] |==|  0.58034
USER: genes 14 Torsion [C]-CA--N-[H3] |==|  0.16721
USER: genes 15 Torsion [C]-CA--CB-[CG] |==|  0.20318
USER: genes 16 Torsion [CA]-CB--CG-[CD1] |==|  0.26395
ROOT
ATOM      1  C   LEU P   2     -20.049  23.057 -13.358  0.50 57.15 LIG 0.24  C 
ATOM      2 O    LEU P   2     -20.090  24.195 -12.879  0.50 57.16 LIG-0.27  OA
ATOM      3  N   LEU P   3     -19.009  22.245 -13.446  0.50 57.16 LIG-0.35  N 
ATOM      4 H    LEU P   3     -19.023  21.583 -13.996  0.50 57.16 LIG 0.16  HD
ENDROOT
BRANCH 3 5
ATOM      5  CA  LEU P   3     -17.778  22.286 -12.730  0.50 57.19 LIG 0.18  C 
BRANCH 5 6
ATOM      6  CB  LEU P   3     -16.618  21.608 -13.430  0.50 57.26 LIG 0.04  C 
BRANCH 6 7
ATOM      7  CG  LEU P   3     -17.026  20.129 -13.418  0.50 57.44 LIG-0.02  C 
ATOM      8  CD1 LEU P   3     -15.851  19.214 -13.710  0.50 57.60 LIG 0.01  C 
ATOM      9  CD2 LEU P   3     -17.746  19.742 -12.129  0.50 57.51 LIG 0.01  C 
ENDBRANCH 6 7
ENDBRANCH 5 6
BRANCH 5 10
ATOM     10  C   LEU P   3     -17.618  23.799 -12.663  0.50 57.14 LIG 0.24  C 
ATOM     11  N   HIS P   4     -17.221  24.378 -13.796  0.50 57.08 LIG-0.35  N 
ATOM     12 H    HIS P   4     -17.074  23.940 -14.521  0.50 57.08 LIG 0.16  HD
ATOM     13 O    LEU P   3     -17.780  24.410 -11.609  0.50 57.14 LIG-0.27  OA
BRANCH 11 14
ATOM     14  CA  HIS P   4     -16.995  25.817 -13.926  0.50 57.02 LIG 0.17  C 
BRANCH 14 15
ATOM     15  CB  HIS P   4     -15.855  26.264 -12.990  0.50 56.94 LIG 0.09  C 
BRANCH 15 16
ATOM     16  CG  HIS P   4     -16.280  27.187 -11.884  0.50 56.80 LIG 0.05  A 
ATOM     17 ND1  HIS P   4     -16.585  28.516 -12.086  0.50 56.77 LIG-0.25  NA
ATOM     18  CE1 HIS P   4     -16.913  29.073 -10.934  0.50 56.50 LIG 0.21  A 
ATOM     19  NE2 HIS P   4     -16.826  28.156  -9.989  0.50 56.43 LIG-0.36  N 
ATOM     20 HE2  HIS P   4     -16.992  28.281  -9.154  0.50 56.43 LIG 0.17  HD
ATOM     21  CD2 HIS P   4     -16.428  26.969 -10.555  0.50 56.57 LIG 0.12  A 
ENDBRANCH 15 16
ENDBRANCH 14 15
BRANCH 14 22
ATOM     22  C   HIS P   4     -16.684  26.166 -15.379  0.50 57.04 LIG 0.22  C 
ATOM     23 O    HIS P   4     -15.530  26.400 -15.739  0.50 57.12 LIG-0.29  OA
ENDBRANCH 14 22
ENDBRANCH 11 14
ENDBRANCH 5 10
ENDBRANCH 3 5
BRANCH 1 24
ATOM     24  CA  LEU P   2     -21.192  22.324 -13.969  0.50 57.16 LIG 0.18  C 
BRANCH 24 25
ATOM     25  N   LEU P   2     -21.469  20.940 -13.677  0.50 57.19 LIG-0.35  N 
ATOM     26  C   VAL P   1     -21.487  20.552 -12.412  0.50 57.27 LIG 0.25  C 
ATOM     27 O    VAL P   1     -21.530  21.349 -11.469  0.50 57.24 LIG-0.27  OA
ATOM     28 H    LEU P   2     -21.610  20.434 -14.357  0.50 57.19 LIG 0.16  HD
BRANCH 26 29
ATOM     29  CA  VAL P   1     -21.502  19.053 -12.196  0.50 57.27 LIG 0.28  C 
BRANCH 29 30
ATOM     30  CB  VAL P   1     -21.540  18.320 -13.549  0.50 57.30 LIG 0.02  C 
ATOM     31  CG2 VAL P   1     -22.243  16.978 -13.417  0.50 57.34 LIG 0.01  C 
ATOM     32  CG1 VAL P   1     -20.135  18.153 -14.112  0.50 57.33 LIG 0.01  C 
ENDBRANCH 29 30
BRANCH 29 33
ATOM     33  N   VAL P   1     -22.711  18.735 -11.385  0.50 57.23 LIG-0.07  N 
ATOM     34 H3   VAL P   1     -23.440  18.992 -11.825  0.50 57.23 LIG 0.28  HD
ATOM     35 H2   VAL P   1     -22.668  19.165 -10.607  0.50 57.23 LIG 0.28  HD
ATOM     36 H1   VAL P   1     -22.748  17.858 -11.237  0.50 57.23 LIG 0.28  HD
ENDBRANCH 29 33
ENDBRANCH 26 29
ENDBRANCH 24 25
BRANCH 24 37
ATOM     37  CB  LEU P   2     -22.372  23.204 -13.540  0.50 57.14 LIG 0.04  C 
BRANCH 37 38
ATOM     38  CG  LEU P   2     -22.736  24.568 -14.085  0.50 56.96 LIG-0.02  C 
ATOM     39  CD1 LEU P   2     -23.780  24.367 -15.180  0.50 57.03 LIG 0.01  C 
ATOM     40  CD2 LEU P   2     -23.256  25.437 -12.971  0.50 56.70 LIG 0.01  C 
ENDBRANCH 37 38
ENDBRANCH 24 37
ENDBRANCH 1 24
TORSDOF 15
ENDMDL
MODEL 26
USER: ADFR SOLUTION from run 43
USER: SCORE 13.959859 LL:  -3.213 LR: -11.407 RR:   0.000 FEB:  -6.933
USER: RMSD 8.198728
USER: SEED 42
USER: STATUS no improvement in best 4 clusters for 5 generations
USER: GENES 17
USER: genes 0 Translation |==|  0.61651 0.59515 0.55012
USER: genes 1 Rotation |==|  0.18112 0.50275 0.86830 0.61254
USER: genes 2 Torsion [C]-N--CA-[CB] |==|  0.78737
USER: genes 3 Torsion [N]-CA--CB-[CG] |==|  0.77523
USER: genes 4 Torsion [CA]-CB--CG-[CD1] |==|  0.86175
USER: genes 5 Torsion [N]-CA--C-[N] |==|  0.18334
USER: genes 6 Torsion [C]-N--CA-[CB] |==|  0.83947
USER: genes 7 Torsion [N]-CA--CB-[CG] |==|  0.72274
USER: genes 8 Torsion [CA]-CB--CG-[ND1] |==|  0.98756
USER: genes 9 Torsion [N]-CA--C-[O] |==|  0.79848
USER: genes 10 Torsion [N]-C--CA-[N] |==|  0.29642
USER: genes 11 Torsion [C]-CA--N-[C] |==|  0.62245
USER: genes 12 Torsion [N]-C--CA-[N] |==|  0.39797
USER: genes 13 Torsion [C]-CA--CB-[CG2] |==|  0.13859
USER: genes 14 Torsion [C]-CA--N-[H3] |==|  0.29821
USER: genes 15 Torsion [C]-CA--CB-[CG] |==|  0.25462
USER: genes 16 Torsion [CA]-CB--CG-[CD1] |==|  0.59316
ROOT
ATOM      1  C   LEU P   2     -16.535  25.175 -13.256  0.50 57.15 LIG 0.24  C 
ATOM      2 O    LEU P   2     -15.401  24.879 -13.652  0.50 57.16 LIG-0.27  OA
ATOM      3  N   LEU P   3     -17.008  26.371 -12.955  0.50 57.16 LIG-0.35  N 
ATOM      4 H    LEU P   3     -17.718  26.447 -12.474  0.50 57.16 LIG 0.16  HD
ENDROOT
BRANCH 3 5
ATOM      5  CA  LEU P   3     -16.502  27.653 -13.321  0.50 57.19 LIG 0.18  C 
BRANCH 5 6
ATOM      6  CB  LEU P   3     -15.286  28.099 -12.535  0.50 57.26 LIG 0.04  C 
BRANCH 6 7
ATOM      7  CG  LEU P   3     -15.895  28.632 -11.232  0.50 57.44 LIG-0.02  C 
ATOM      8  CD1 LEU P   3     -17.030  29.606 -11.493  0.50 57.60 LIG 0.01  C 
ATOM      9  CD2 LEU P   3     -16.313  27.507 -10.290  0.50 57.51 LIG 0.01  C 
ENDBRANCH 6 7
ENDBRANCH 5 6
BRANCH 5 10
ATOM     10  C   LEU P   3     -16.180  27.350 -14.778  0.50 57.14 LIG 0.24  C 
ATOM     11  N   HIS P   4     -17.235  27.095 -15.551  0.50 57.08 LIG-0.35  N 
ATOM     12 H    HIS P   4     -18.044  27.109 -15.261  0.50 57.08 LIG 0.16  HD
ATOM     13 O    LEU P   3     -15.018  27.282 -15.173  0.50 57.14 LIG-0.27  OA
BRANCH 11 14
ATOM     14  CA  HIS P   4     -17.129  26.767 -16.972  0.50 57.02 LIG 0.17  C 
BRANCH 14 15
ATOM     15  CB  HIS P   4     -16.404  27.897 -17.728  0.50 56.94 LIG 0.09  C 
BRANCH 15 16
ATOM     16  CG  HIS P   4     -17.313  28.841 -18.462  0.50 56.80 LIG 0.05  A 
ATOM     17 ND1  HIS P   4     -18.678  28.665 -18.539  0.50 56.77 LIG-0.25  NA
ATOM     18  CE1 HIS P   4     -19.208  29.642 -19.254  0.50 56.50 LIG 0.21  A 
ATOM     19  NE2 HIS P   4     -18.237  30.443 -19.649  0.50 56.43 LIG-0.36  N 
ATOM     20 HE2  HIS P   4     -18.336  31.151 -20.128  0.50 56.43 LIG 0.17  HD
ATOM     21  CD2 HIS P   4     -17.041  29.962 -19.172  0.50 56.57 LIG 0.12  A 
ENDBRANCH 15 16
ENDBRANCH 14 15
BRANCH 14 22
ATOM     22  C   HIS P   4     -16.404  25.435 -17.145  0.50 57.04 LIG 0.22  C 
ATOM     23 O    HIS P   4     -15.192  25.345 -16.950  0.50 57.12 LIG-0.29  OA
ENDBRANCH 14 22
ENDBRANCH 11 14
ENDBRANCH 5 10
ENDBRANCH 3 5
BRANCH 1 24
ATOM     24  CA  LEU P   2     -17.653  24.220 -13.016  0.50 57.16 LIG 0.18  C 
BRANCH 24 25
ATOM     25  N   LEU P   2     -18.382  23.597 -14.091  0.50 57.19 LIG-0.35  N 
ATOM     26  C   VAL P   1     -19.701  23.534 -14.008  0.50 57.27 LIG 0.25  C 
ATOM     27 O    VAL P   1     -20.351  24.195 -13.192  0.50 57.24 LIG-0.27  OA
ATOM     28 H    LEU P   2     -17.907  23.295 -14.741  0.50 57.19 LIG 0.16  HD
BRANCH 26 29
ATOM     29  CA  VAL P   1     -20.370  22.628 -15.021  0.50 57.27 LIG 0.28  C 
BRANCH 29 30
ATOM     30  CB  VAL P   1     -20.848  23.447 -16.234  0.50 57.30 LIG 0.02  C 
ATOM     31  CG2 VAL P   1     -19.730  24.335 -16.759  0.50 57.34 LIG 0.01  C 
ATOM     32  CG1 VAL P   1     -22.081  24.267 -15.879  0.50 57.33 LIG 0.01  C 
ENDBRANCH 29 30
BRANCH 29 33
ATOM     33  N   VAL P   1     -21.519  21.972 -14.336  0.50 57.23 LIG-0.07  N 
ATOM     34 H3   VAL P   1     -22.282  22.321 -14.634  0.50 57.23 LIG 0.28  HD
ATOM     35 H2   VAL P   1     -21.457  22.104 -13.458  0.50 57.23 LIG 0.28  HD
ATOM     36 H1   VAL P   1     -21.507  21.098 -14.506  0.50 57.23 LIG 0.28  HD
ENDBRANCH 29 33
ENDBRANCH 26 29
ENDBRANCH 24 25
BRANCH 24 37
ATOM     37  CB  LEU P   2     -16.956  23.157 -12.159  0.50 57.14 LIG 0.04  C 
BRANCH 37 38
ATOM     38  CG  LEU P   2     -16.876  23.115 -10.648  0.50 56.96 LIG-0.02  C 
ATOM     39  CD1 LEU P   2     -15.530  22.502 -10.271  0.50 57.03 LIG 0.01  C 
ATOM     40  CD2 LEU P   2     -17.030  24.506 -10.094  0.50 56.70 LIG 0.01  C 
ENDBRANCH 37 38
ENDBRANCH 24 37
ENDBRANCH 1 24
TORSDOF 15
ENDMDL
MODEL 27
USER: ADFR SOLUTION from run 35
USER: SCORE 13.134930 LL:  -2.916 LR: -11.407 RR:   0.000 FEB:  -6.933
USER: RMSD 9.235706
USER: SEED 34
USER: STATUS no improvement in best 14 clusters for 5 generations
USER: GENES 17
USER: genes 0 Translation |==|  0.64790 0.41994 0.61043
USER: genes 1 Rotation |==|  0.90867 0.72688 0.32248 0.50142
USER: genes 2 Torsion [C]-N--CA-[CB] |==|  0.17447
USER: genes 3 Torsion [N]-CA--CB-[CG] |==|  0.60564
USER: genes 4 Torsion [CA]-CB--CG-[CD1] |==|  0.18050
USER: genes 5 Torsion [N]-CA--C-[N] |==|  0.37839
USER: genes 6 Torsion [C]-N--CA-[CB] |==|  0.84383
USER: genes 7 Torsion [N]-CA--CB-[CG] |==|  0.69719
USER: genes 8 Torsion [CA]-CB--CG-[ND1] |==|  0.17184
USER: genes 9 Torsion [N]-CA--C-[O] |==|  0.65561
USER: genes 10 Torsion [N]-C--CA-[N] |==|  0.39346
USER: genes 11 Torsion [C]-CA--N-[C] |==|  0.76149
USER: genes 12 Torsion [N]-C--CA-[N] |==|  0.45203
USER: genes 13 Torsion [C]-CA--CB-[CG2] |==|  0.68928
USER: genes 14 Torsion [C]-CA--N-[H3] |==|  0.82128
USER: genes 15 Torsion [C]-CA--CB-[CG] |==|  0.42988
USER: genes 16 Torsion [CA]-CB--CG-[CD1] |==|  0.86687
ROOT
ATOM      1  C   LEU P   2     -15.593  19.918 -11.447  0.50 57.15 LIG 0.24  C 
ATOM      2 O    LEU P   2     -14.832  20.456 -10.635  0.50 57.16 LIG-0.27  OA
ATOM      3  N   LEU P   3     -16.780  20.334 -11.852  0.50 57.16 LIG-0.35  N 
ATOM      4 H    LEU P   3     -17.325  19.786 -12.231  0.50 57.16 LIG 0.16  HD
ENDROOT
BRANCH 3 5
ATOM      5  CA  LEU P   3     -17.353  21.636 -11.760  0.50 57.19 LIG 0.18  C 
BRANCH 5 6
ATOM      6  CB  LEU P   3     -16.611  22.709 -12.531  0.50 57.26 LIG 0.04  C 
BRANCH 6 7
ATOM      7  CG  LEU P   3     -16.709  23.928 -11.606  0.50 57.44 LIG-0.02  C 
ATOM      8  CD1 LEU P   3     -15.965  23.712 -10.301  0.50 57.60 LIG 0.01  C 
ATOM      9  CD2 LEU P   3     -16.279  25.215 -12.303  0.50 57.51 LIG 0.01  C 
ENDBRANCH 6 7
ENDBRANCH 5 6
BRANCH 5 10
ATOM     10  C   LEU P   3     -18.714  21.317 -12.363  0.50 57.14 LIG 0.24  C 
ATOM     11  N   HIS P   4     -19.756  21.845 -11.721  0.50 57.08 LIG-0.35  N 
ATOM     12 H    HIS P   4     -19.676  22.340 -11.023  0.50 57.08 LIG 0.16  HD
ATOM     13 O    LEU P   3     -18.823  20.567 -13.330  0.50 57.14 LIG-0.27  OA
BRANCH 11 14
ATOM     14  CA  HIS P   4     -21.144  21.638 -12.136  0.50 57.02 LIG 0.17  C 
BRANCH 14 15
ATOM     15  CB  HIS P   4     -21.335  22.083 -13.599  0.50 56.94 LIG 0.09  C 
BRANCH 15 16
ATOM     16  CG  HIS P   4     -22.139  23.340 -13.770  0.50 56.80 LIG 0.05  A 
ATOM     17 ND1  HIS P   4     -21.748  24.559 -13.260  0.50 56.77 LIG-0.25  NA
ATOM     18  CE1 HIS P   4     -22.655  25.472 -13.558  0.50 56.50 LIG 0.21  A 
ATOM     19  NE2 HIS P   4     -23.624  24.889 -14.239  0.50 56.43 LIG-0.36  N 
ATOM     20 HE2  HIS P   4     -24.327  25.281 -14.543  0.50 56.43 LIG 0.17  HD
ATOM     21  CD2 HIS P   4     -23.328  23.555 -14.381  0.50 56.57 LIG 0.12  A 
ENDBRANCH 15 16
ENDBRANCH 14 15
BRANCH 14 22
ATOM     22  C   HIS P   4     -21.529  20.173 -11.950  0.50 57.04 LIG 0.22  C 
ATOM     23 O    HIS P   4     -21.962  19.509 -12.892  0.50 57.12 LIG-0.29  OA
ENDBRANCH 14 22
ENDBRANCH 11 14
ENDBRANCH 5 10
ENDBRANCH 3 5
BRANCH 1 24
ATOM     24  CA  LEU P   2     -15.340  18.639 -12.168  0.50 57.16 LIG 0.18  C 
BRANCH 24 25
ATOM     25  N   LEU P   2     -14.039  18.279 -12.669  0.50 57.19 LIG-0.35  N 
ATOM     26  C   VAL P   1     -13.680  18.711 -13.867  0.50 57.27 LIG 0.25  C 
ATOM     27 O    VAL P   1     -14.290  19.604 -14.465  0.50 57.24 LIG-0.27  OA
ATOM     28 H    LEU P   2     -13.558  17.792 -12.149  0.50 57.19 LIG 0.16  HD
BRANCH 26 29
ATOM     29  CA  VAL P   1     -12.433  18.069 -14.440  0.50 57.27 LIG 0.28  C 
BRANCH 29 30
ATOM     30  CB  VAL P   1     -11.178  18.651 -13.766  0.50 57.30 LIG 0.02  C 
ATOM     31  CG2 VAL P   1     -10.372  19.483 -14.752  0.50 57.34 LIG 0.01  C 
ATOM     32  CG1 VAL P   1     -10.329  17.541 -13.159  0.50 57.33 LIG 0.01  C 
ENDBRANCH 29 30
BRANCH 29 33
ATOM     33  N   VAL P   1     -12.427  18.345 -15.904  0.50 57.23 LIG-0.07  N 
ATOM     34 H3   VAL P   1     -13.124  17.944 -16.286  0.50 57.23 LIG 0.28  HD
ATOM     35 H2   VAL P   1     -11.674  18.034 -16.262  0.50 57.23 LIG 0.28  HD
ATOM     36 H1   VAL P   1     -12.480  19.224 -16.041  0.50 57.23 LIG 0.28  HD
ENDBRANCH 29 33
ENDBRANCH 26 29
ENDBRANCH 24 25
BRANCH 24 37
ATOM     37  CB  LEU P   2     -15.813  17.615 -11.129  0.50 57.14 LIG 0.04  C 
BRANCH 37 38
ATOM     38  CG  LEU P   2     -16.314  16.212 -11.396  0.50 56.96 LIG-0.02  C 
ATOM     39  CD1 LEU P   2     -17.342  16.291 -12.521  0.50 57.03 LIG 0.01  C 
ATOM     40  CD2 LEU P   2     -15.155  15.322 -11.760  0.50 56.70 LIG 0.01  C 
ENDBRANCH 37 38
ENDBRANCH 24 37
ENDBRANCH 1 24
TORSDOF 15
ENDMDL
MODEL 28
USER: ADFR SOLUTION from run 24
USER: SCORE 14.146010 LL:  -3.449 LR: -11.386 RR:   0.000 FEB:  -6.911
USER: RMSD 5.753349
USER: SEED 23
USER: STATUS no improvement in best 8 clusters for 5 generations
USER: GENES 17
USER: genes 0 Translation |==|  0.51180 0.47273 0.59781
USER: genes 1 Rotation |==|  0.09602 0.65207 0.68446 0.67219
USER: genes 2 Torsion [C]-N--CA-[CB] |==|  0.75743
USER: genes 3 Torsion [N]-CA--CB-[CG] |==|  0.60938
USER: genes 4 Torsion [CA]-CB--CG-[CD1] |==|  0.99011
USER: genes 5 Torsion [N]-CA--C-[N] |==|  0.21638
USER: genes 6 Torsion [C]-N--CA-[CB] |==|  0.47787
USER: genes 7 Torsion [N]-CA--CB-[CG] |==|  0.83475
USER: genes 8 Torsion [CA]-CB--CG-[ND1] |==|  0.72788
USER: genes 9 Torsion [N]-CA--C-[O] |==|  0.86582
USER: genes 10 Torsion [N]-C--CA-[N] |==|  0.13946
USER: genes 11 Torsion [C]-CA--N-[C] |==|  0.78322
USER: genes 12 Torsion [N]-C--CA-[N] |==|  0.11721
USER: genes 13 Torsion [C]-CA--CB-[CG2] |==|  0.84886
USER: genes 14 Torsion [C]-CA--N-[H3] |==|  0.34127
USER: genes 15 Torsion [C]-CA--CB-[CG] |==|  0.74574
USER: genes 16 Torsion [CA]-CB--CG-[CD1] |==|  0.21455
ROOT
ATOM      1  C   LEU P   2     -19.676  21.502 -11.826  0.50 57.15 LIG 0.24  C 
ATOM      2 O    LEU P   2     -19.100  20.509 -11.368  0.50 57.16 LIG-0.27  OA
ATOM      3  N   LEU P   3     -19.182  22.711 -12.029  0.50 57.16 LIG-0.35  N 
ATOM      4 H    LEU P   3     -19.711  23.383 -12.127  0.50 57.16 LIG 0.16  HD
ENDROOT
BRANCH 3 5
ATOM      5  CA  LEU P   3     -17.819  23.118 -12.121  0.50 57.19 LIG 0.18  C 
BRANCH 5 6
ATOM      6  CB  LEU P   3     -17.171  23.456 -10.794  0.50 57.26 LIG 0.04  C 
BRANCH 6 7
ATOM      7  CG  LEU P   3     -16.311  24.680 -11.134  0.50 57.44 LIG-0.02  C 
ATOM      8  CD1 LEU P   3     -16.362  25.017 -12.613  0.50 57.60 LIG 0.01  C 
ATOM      9  CD2 LEU P   3     -16.654  25.883 -10.261  0.50 57.51 LIG 0.01  C 
ENDBRANCH 6 7
ENDBRANCH 5 6
BRANCH 5 10
ATOM     10  C   LEU P   3     -17.256  21.847 -12.742  0.50 57.14 LIG 0.24  C 
ATOM     11  N   HIS P   4     -17.480  21.707 -14.049  0.50 57.08 LIG-0.35  N 
ATOM     12 H    HIS P   4     -17.902  22.291 -14.518  0.50 57.08 LIG 0.16  HD
ATOM     13 O    LEU P   3     -16.699  20.994 -12.055  0.50 57.14 LIG-0.27  OA
BRANCH 11 14
ATOM     14  CA  HIS P   4     -17.033  20.548 -14.821  0.50 57.02 LIG 0.17  C 
BRANCH 14 15
ATOM     15  CB  HIS P   4     -17.619  20.600 -16.246  0.50 56.94 LIG 0.09  C 
BRANCH 15 16
ATOM     16  CG  HIS P   4     -19.120  20.609 -16.305  0.50 56.80 LIG 0.05  A 
ATOM     17 ND1  HIS P   4     -19.872  19.476 -16.532  0.50 56.77 LIG-0.25  NA
ATOM     18  CE1 HIS P   4     -21.154  19.794 -16.540  0.50 56.50 LIG 0.21  A 
ATOM     19  NE2 HIS P   4     -21.263  21.092 -16.331  0.50 56.43 LIG-0.36  N 
ATOM     20 HE2  HIS P   4     -22.001  21.532 -16.293  0.50 56.43 LIG 0.17  HD
ATOM     21  CD2 HIS P   4     -20.006  21.627 -16.185  0.50 56.57 LIG 0.12  A 
ENDBRANCH 15 16
ENDBRANCH 14 15
BRANCH 14 22
ATOM     22  C   HIS P   4     -15.508  20.501 -14.854  0.50 57.04 LIG 0.22  C 
ATOM     23 O    HIS P   4     -14.851  21.503 -15.135  0.50 57.12 LIG-0.29  OA
ENDBRANCH 14 22
ENDBRANCH 11 14
ENDBRANCH 5 10
ENDBRANCH 3 5
BRANCH 1 24
ATOM     24  CA  LEU P   2     -21.101  21.564 -12.257  0.50 57.16 LIG 0.18  C 
BRANCH 24 25
ATOM     25  N   LEU P   2     -21.499  22.098 -13.534  0.50 57.19 LIG-0.35  N 
ATOM     26  C   VAL P   1     -21.538  23.412 -13.687  0.50 57.27 LIG 0.25  C 
ATOM     27 O    VAL P   1     -21.016  24.193 -12.884  0.50 57.24 LIG-0.27  OA
ATOM     28 H    LEU P   2     -21.693  21.519 -14.139  0.50 57.19 LIG 0.16  HD
BRANCH 26 29
ATOM     29  CA  VAL P   1     -22.227  23.897 -14.945  0.50 57.27 LIG 0.28  C 
BRANCH 29 30
ATOM     30  CB  VAL P   1     -22.585  25.389 -14.815  0.50 57.30 LIG 0.02  C 
ATOM     31  CG2 VAL P   1     -23.405  25.640 -13.559  0.50 57.34 LIG 0.01  C 
ATOM     32  CG1 VAL P   1     -23.317  25.878 -16.058  0.50 57.33 LIG 0.01  C 
ENDBRANCH 29 30
BRANCH 29 33
ATOM     33  N   VAL P   1     -23.454  23.070 -15.124  0.50 57.23 LIG-0.07  N 
ATOM     34 H3   VAL P   1     -24.168  23.600 -15.157  0.50 57.23 LIG 0.28  HD
ATOM     35 H2   VAL P   1     -23.535  22.508 -14.439  0.50 57.23 LIG 0.28  HD
ATOM     36 H1   VAL P   1     -23.392  22.607 -15.882  0.50 57.23 LIG 0.28  HD
ENDBRANCH 29 33
ENDBRANCH 26 29
ENDBRANCH 24 25
BRANCH 24 37
ATOM     37  CB  LEU P   2     -21.509  20.091 -12.145  0.50 57.14 LIG 0.04  C 
BRANCH 37 38
ATOM     38  CG  LEU P   2     -21.443  19.043 -13.234  0.50 56.96 LIG-0.02  C 
ATOM     39  CD1 LEU P   2     -19.988  18.604 -13.370  0.50 57.03 LIG 0.01  C 
ATOM     40  CD2 LEU P   2     -22.343  17.888 -12.881  0.50 56.70 LIG 0.01  C 
ENDBRANCH 37 38
ENDBRANCH 24 37
ENDBRANCH 1 24
TORSDOF 15
ENDMDL
MODEL 29
USER: ADFR SOLUTION from run 88
USER: SCORE 14.295062 LL:  -3.542 LR: -11.371 RR:   0.000 FEB:  -6.896
USER: RMSD 6.454505
USER: SEED 87
USER: STATUS no improvement in best 4 clusters for 5 generations
USER: GENES 17
USER: genes 0 Translation |==|  0.56507 0.54628 0.58518
USER: genes 1 Rotation |==|  0.05555 0.57984 0.69583 0.58800
USER: genes 2 Torsion [C]-N--CA-[CB] |==|  0.78096
USER: genes 3 Torsion [N]-CA--CB-[CG] |==|  0.63392
USER: genes 4 Torsion [CA]-CB--CG-[CD1] |==|  0.43024
USER: genes 5 Torsion [N]-CA--C-[N] |==|  0.18334
USER: genes 6 Torsion [C]-N--CA-[CB] |==|  0.50817
USER: genes 7 Torsion [N]-CA--CB-[CG] |==|  0.83698
USER: genes 8 Torsion [CA]-CB--CG-[ND1] |==|  0.34496
USER: genes 9 Torsion [N]-CA--C-[O] |==|  0.98574
USER: genes 10 Torsion [N]-C--CA-[N] |==|  0.10485
USER: genes 11 Torsion [C]-CA--N-[C] |==|  0.68017
USER: genes 12 Torsion [N]-C--CA-[N] |==|  0.22977
USER: genes 13 Torsion [C]-CA--CB-[CG2] |==|  0.79656
USER: genes 14 Torsion [C]-CA--N-[H3] |==|  0.19789
USER: genes 15 Torsion [C]-CA--CB-[CG] |==|  0.42577
USER: genes 16 Torsion [CA]-CB--CG-[CD1] |==|  0.92285
ROOT
ATOM      1  C   LEU P   2     -18.078  23.709 -12.204  0.50 57.15 LIG 0.24  C 
ATOM      2 O    LEU P   2     -17.176  23.154 -11.566  0.50 57.16 LIG-0.27  OA
ATOM      3  N   LEU P   3     -18.109  24.947 -12.664  0.50 57.16 LIG-0.35  N 
ATOM      4 H    LEU P   3     -18.859  25.307 -12.885  0.50 57.16 LIG 0.16  HD
ENDROOT
BRANCH 3 5
ATOM      5  CA  LEU P   3     -17.029  25.854 -12.871  0.50 57.19 LIG 0.18  C 
BRANCH 5 6
ATOM      6  CB  LEU P   3     -16.528  26.536 -11.615  0.50 57.26 LIG 0.04  C 
BRANCH 6 7
ATOM      7  CG  LEU P   3     -16.461  28.011 -12.027  0.50 57.44 LIG-0.02  C 
ATOM      8  CD1 LEU P   3     -16.580  28.941 -10.833  0.50 57.60 LIG 0.01  C 
ATOM      9  CD2 LEU P   3     -15.227  28.318 -12.870  0.50 57.51 LIG 0.01  C 
ENDBRANCH 6 7
ENDBRANCH 5 6
BRANCH 5 10
ATOM     10  C   LEU P   3     -16.023  24.864 -13.442  0.50 57.14 LIG 0.24  C 
ATOM     11  N   HIS P   4     -16.347  24.344 -14.625  0.50 57.08 LIG-0.35  N 
ATOM     12 H    HIS P   4     -17.066  24.553 -15.049  0.50 57.08 LIG 0.16  HD
ATOM     13 O    LEU P   3     -15.025  24.531 -12.807  0.50 57.14 LIG-0.27  OA
BRANCH 11 14
ATOM     14  CA  HIS P   4     -15.519  23.364 -15.327  0.50 57.02 LIG 0.17  C 
BRANCH 14 15
ATOM     15  CB  HIS P   4     -16.140  23.024 -16.696  0.50 56.94 LIG 0.09  C 
BRANCH 15 16
ATOM     16  CG  HIS P   4     -17.535  22.469 -16.630  0.50 56.80 LIG 0.05  A 
ATOM     17 ND1  HIS P   4     -18.601  23.028 -17.302  0.50 56.77 LIG-0.25  NA
ATOM     18  CE1 HIS P   4     -19.695  22.335 -17.045  0.50 56.50 LIG 0.21  A 
ATOM     19  NE2 HIS P   4     -19.381  21.349 -16.226  0.50 56.43 LIG-0.36  N 
ATOM     20 HE2  HIS P   4     -19.929  20.761 -15.917  0.50 56.43 LIG 0.17  HD
ATOM     21  CD2 HIS P   4     -18.038  21.413 -15.947  0.50 56.57 LIG 0.12  A 
ENDBRANCH 15 16
ENDBRANCH 14 15
BRANCH 14 22
ATOM     22  C   HIS P   4     -14.099  23.900 -15.485  0.50 57.04 LIG 0.22  C 
ATOM     23 O    HIS P   4     -13.814  25.045 -15.135  0.50 57.12 LIG-0.29  OA
ENDBRANCH 14 22
ENDBRANCH 11 14
ENDBRANCH 5 10
ENDBRANCH 3 5
BRANCH 1 24
ATOM     24  CA  LEU P   2     -19.373  23.091 -12.604  0.50 57.16 LIG 0.18  C 
BRANCH 24 25
ATOM     25  N   LEU P   2     -20.002  23.365 -13.872  0.50 57.19 LIG-0.35  N 
ATOM     26  C   VAL P   1     -21.168  23.991 -13.878  0.50 57.27 LIG 0.25  C 
ATOM     27 O    VAL P   1     -21.620  24.569 -12.885  0.50 57.24 LIG-0.27  OA
ATOM     28 H    LEU P   2     -19.573  23.100 -14.568  0.50 57.19 LIG 0.16  HD
BRANCH 26 29
ATOM     29  CA  VAL P   1     -21.893  23.992 -15.207  0.50 57.27 LIG 0.28  C 
BRANCH 29 30
ATOM     30  CB  VAL P   1     -22.874  25.177 -15.277  0.50 57.30 LIG 0.02  C 
ATOM     31  CG2 VAL P   1     -24.084  24.928 -14.390  0.50 57.34 LIG 0.01  C 
ATOM     32  CG1 VAL P   1     -23.292  25.447 -16.716  0.50 57.33 LIG 0.01  C 
ENDBRANCH 29 30
BRANCH 29 33
ATOM     33  N   VAL P   1     -22.618  22.695 -15.317  0.50 57.23 LIG-0.07  N 
ATOM     34 H3   VAL P   1     -23.304  22.689 -14.749  0.50 57.23 LIG 0.28  HD
ATOM     35 H2   VAL P   1     -22.064  22.028 -15.118  0.50 57.23 LIG 0.28  HD
ATOM     36 H1   VAL P   1     -22.920  22.593 -16.148  0.50 57.23 LIG 0.28  HD
ENDBRANCH 29 33
ENDBRANCH 26 29
ENDBRANCH 24 25
BRANCH 24 37
ATOM     37  CB  LEU P   2     -19.039  21.599 -12.487  0.50 57.14 LIG 0.04  C 
BRANCH 37 38
ATOM     38  CG  LEU P   2     -20.007  20.469 -12.210  0.50 56.96 LIG-0.02  C 
ATOM     39  CD1 LEU P   2     -21.171  21.040 -11.405  0.50 57.03 LIG 0.01  C 
ATOM     40  CD2 LEU P   2     -20.468  19.868 -13.510  0.50 56.70 LIG 0.01  C 
ENDBRANCH 37 38
ENDBRANCH 24 37
ENDBRANCH 1 24
TORSDOF 15
ENDMDL
MODEL 30
USER: ADFR SOLUTION from run 2
USER: SCORE 12.980831 LL:  -3.600 LR: -11.353 RR:   0.000 FEB:  -6.879
USER: RMSD 6.783829
USER: SEED 30485
USER: STATUS no improvement in best 14 clusters for 5 generations
USER: GENES 17
USER: genes 0 Translation |==|  0.59971 0.56893 0.63446
USER: genes 1 Rotation |==|  0.54452 0.99603 0.54312 0.51072
USER: genes 2 Torsion [C]-N--CA-[CB] |==|  0.33524
USER: genes 3 Torsion [N]-CA--CB-[CG] |==|  0.62952
USER: genes 4 Torsion [CA]-CB--CG-[CD1] |==|  0.46088
USER: genes 5 Torsion [N]-CA--C-[N] |==|  0.64628
USER: genes 6 Torsion [C]-N--CA-[CB] |==|  0.44315
USER: genes 7 Torsion [N]-CA--CB-[CG] |==|  0.94059
USER: genes 8 Torsion [CA]-CB--CG-[ND1] |==|  0.72835
USER: genes 9 Torsion [N]-CA--C-[O] |==|  0.96044
USER: genes 10 Torsion [N]-C--CA-[N] |==|  0.09155
USER: genes 11 Torsion [C]-CA--N-[C] |==|  0.69243
USER: genes 12 Torsion [N]-C--CA-[N] |==|  0.36748
USER: genes 13 Torsion [C]-CA--CB-[CG2] |==|  0.14932
USER: genes 14 Torsion [C]-CA--N-[H3] |==|  0.83606
USER: genes 15 Torsion [C]-CA--CB-[CG] |==|  0.61286
USER: genes 16 Torsion [CA]-CB--CG-[CD1] |==|  0.47961
ROOT
ATOM      1  C   LEU P   2     -17.039  24.388 -10.726  0.50 57.15 LIG 0.24  C 
ATOM      2 O    LEU P   2     -17.288  24.208  -9.529  0.50 57.16 LIG-0.27  OA
ATOM      3  N   LEU P   3     -17.305  23.588 -11.744  0.50 57.16 LIG-0.35  N 
ATOM      4 H    LEU P   3     -16.891  23.689 -12.492  0.50 57.16 LIG 0.16  HD
ENDROOT
BRANCH 3 5
ATOM      5  CA  LEU P   3     -18.230  22.507 -11.816  0.50 57.19 LIG 0.18  C 
BRANCH 5 6
ATOM      6  CB  LEU P   3     -19.297  22.658 -12.881  0.50 57.26 LIG 0.04  C 
BRANCH 6 7
ATOM      7  CG  LEU P   3     -20.585  22.292 -12.132  0.50 57.44 LIG-0.02  C 
ATOM      8  CD1 LEU P   3     -21.826  22.700 -12.905  0.50 57.60 LIG 0.01  C 
ATOM      9  CD2 LEU P   3     -20.618  20.820 -11.731  0.50 57.51 LIG 0.01  C 
ENDBRANCH 6 7
ENDBRANCH 5 6
BRANCH 5 10
ATOM     10  C   LEU P   3     -17.239  21.395 -12.133  0.50 57.14 LIG 0.24  C 
ATOM     11  N   HIS P   4     -17.536  20.660 -13.204  0.50 57.08 LIG-0.35  N 
ATOM     12 H    HIS P   4     -18.228  20.801 -13.694  0.50 57.08 LIG 0.16  HD
ATOM     13 O    LEU P   3     -16.280  21.168 -11.399  0.50 57.14 LIG-0.27  OA
BRANCH 11 14
ATOM     14  CA  HIS P   4     -16.717  19.537 -13.660  0.50 57.02 LIG 0.17  C 
BRANCH 14 15
ATOM     15  CB  HIS P   4     -17.548  18.603 -14.561  0.50 56.94 LIG 0.09  C 
BRANCH 15 16
ATOM     16  CG  HIS P   4     -19.034  18.717 -14.379  0.50 56.80 LIG 0.05  A 
ATOM     17 ND1  HIS P   4     -19.765  17.855 -13.590  0.50 56.77 LIG-0.25  NA
ATOM     18  CE1 HIS P   4     -21.041  18.195 -13.632  0.50 56.50 LIG 0.21  A 
ATOM     19  NE2 HIS P   4     -21.167  19.244 -14.423  0.50 56.43 LIG-0.36  N 
ATOM     20 HE2  HIS P   4     -21.905  19.646 -14.606  0.50 56.43 LIG 0.17  HD
ATOM     21  CD2 HIS P   4     -19.928  19.588 -14.907  0.50 56.57 LIG 0.12  A 
ENDBRANCH 15 16
ENDBRANCH 14 15
BRANCH 14 22
ATOM     22  C   HIS P   4     -15.484  20.056 -14.394  0.50 57.04 LIG 0.22  C 
ATOM     23 O    HIS P   4     -15.414  21.229 -14.761  0.50 57.12 LIG-0.29  OA
ENDBRANCH 14 22
ENDBRANCH 11 14
ENDBRANCH 5 10
ENDBRANCH 3 5
BRANCH 1 24
ATOM     24  CA  LEU P   2     -16.356  25.577 -11.308  0.50 57.16 LIG 0.18  C 
BRANCH 24 25
ATOM     25  N   LEU P   2     -16.667  26.082 -12.621  0.50 57.19 LIG-0.35  N 
ATOM     26  C   VAL P   1     -15.763  25.954 -13.579  0.50 57.27 LIG 0.25  C 
ATOM     27 O    VAL P   1     -14.781  25.212 -13.476  0.50 57.24 LIG-0.27  OA
ATOM     28 H    LEU P   2     -17.441  26.445 -12.709  0.50 57.19 LIG 0.16  HD
BRANCH 26 29
ATOM     29  CA  VAL P   1     -16.040  26.748 -14.839  0.50 57.27 LIG 0.28  C 
BRANCH 29 30
ATOM     30  CB  VAL P   1     -16.487  25.807 -15.973  0.50 57.30 LIG 0.02  C 
ATOM     31  CG2 VAL P   1     -17.663  24.949 -15.530  0.50 57.34 LIG 0.01  C 
ATOM     32  CG1 VAL P   1     -15.324  24.945 -16.448  0.50 57.33 LIG 0.01  C 
ENDBRANCH 29 30
BRANCH 29 33
ATOM     33  N   VAL P   1     -14.780  27.456 -15.201  0.50 57.23 LIG-0.07  N 
ATOM     34 H3   VAL P   1     -14.534  27.987 -14.531  0.50 57.23 LIG 0.28  HD
ATOM     35 H2   VAL P   1     -14.914  27.945 -15.932  0.50 57.23 LIG 0.28  HD
ATOM     36 H1   VAL P   1     -14.138  26.859 -15.356  0.50 57.23 LIG 0.28  HD
ENDBRANCH 29 33
ENDBRANCH 26 29
ENDBRANCH 24 25
BRANCH 24 37
ATOM     37  CB  LEU P   2     -16.655  26.640 -10.244  0.50 57.14 LIG 0.04  C 
BRANCH 37 38
ATOM     38  CG  LEU P   2     -17.030  28.087 -10.483  0.50 56.96 LIG-0.02  C 
ATOM     39  CD1 LEU P   2     -17.408  28.698  -9.137  0.50 57.03 LIG 0.01  C 
ATOM     40  CD2 LEU P   2     -15.874  28.811 -11.120  0.50 56.70 LIG 0.01  C 
ENDBRANCH 37 38
ENDBRANCH 24 37
ENDBRANCH 1 24
TORSDOF 15
ENDMDL
MODEL 31
USER: ADFR SOLUTION from run 90
USER: SCORE 12.285384 LL:  -2.964 LR: -11.295 RR:   0.000 FEB:  -6.821
USER: RMSD 5.469455
USER: SEED 89
USER: STATUS no improvement in best 19 clusters for 5 generations
USER: GENES 17
USER: genes 0 Translation |==|  0.55220 0.51298 0.58505
USER: genes 1 Rotation |==|  0.58413 0.01644 0.55874 0.57511
USER: genes 2 Torsion [C]-N--CA-[CB] |==|  0.40922
USER: genes 3 Torsion [N]-CA--CB-[CG] |==|  0.79160
USER: genes 4 Torsion [CA]-CB--CG-[CD1] |==|  0.57985
USER: genes 5 Torsion [N]-CA--C-[N] |==|  0.56858
USER: genes 6 Torsion [C]-N--CA-[CB] |==|  0.43574
USER: genes 7 Torsion [N]-CA--CB-[CG] |==|  0.25501
USER: genes 8 Torsion [CA]-CB--CG-[ND1] |==|  0.28770
USER: genes 9 Torsion [N]-CA--C-[O] |==|  0.32519
USER: genes 10 Torsion [N]-C--CA-[N] |==|  0.26271
USER: genes 11 Torsion [C]-CA--N-[C] |==|  0.77778
USER: genes 12 Torsion [N]-C--CA-[N] |==|  0.60004
USER: genes 13 Torsion [C]-CA--CB-[CG2] |==|  0.73981
USER: genes 14 Torsion [C]-CA--N-[H3] |==|  0.76519
USER: genes 15 Torsion [C]-CA--CB-[CG] |==|  0.13057
USER: genes 16 Torsion [CA]-CB--CG-[CD1] |==|  0.34000
ROOT
ATOM      1  C   LEU P   2     -18.464  22.710 -12.209  0.50 57.15 LIG 0.24  C 
ATOM      2 O    LEU P   2     -18.316  22.990 -11.014  0.50 57.16 LIG-0.27  OA
ATOM      3  N   LEU P   3     -18.448  21.516 -12.775  0.50 57.16 LIG-0.35  N 
ATOM      4 H    LEU P   3     -18.326  21.441 -13.624  0.50 57.16 LIG 0.16  HD
ENDROOT
BRANCH 3 5
ATOM      5  CA  LEU P   3     -18.610  20.235 -12.171  0.50 57.19 LIG 0.18  C 
BRANCH 5 6
ATOM      6  CB  LEU P   3     -19.292  19.205 -13.047  0.50 57.26 LIG 0.04  C 
BRANCH 6 7
ATOM      7  CG  LEU P   3     -20.762  19.640 -13.010  0.50 57.44 LIG-0.02  C 
ATOM      8  CD1 LEU P   3     -21.707  18.466 -13.195  0.50 57.60 LIG 0.01  C 
ATOM      9  CD2 LEU P   3     -21.091  20.447 -11.758  0.50 57.51 LIG 0.01  C 
ENDBRANCH 6 7
ENDBRANCH 5 6
BRANCH 5 10
ATOM     10  C   LEU P   3     -17.140  19.921 -11.932  0.50 57.14 LIG 0.24  C 
ATOM     11  N   HIS P   4     -16.842  18.624 -11.852  0.50 57.08 LIG-0.35  N 
ATOM     12 H    HIS P   4     -17.429  18.002 -11.938  0.50 57.08 LIG 0.16  HD
ATOM     13 O    LEU P   3     -16.316  20.817 -11.760  0.50 57.14 LIG-0.27  OA
BRANCH 11 14
ATOM     14  CA  HIS P   4     -15.490  18.123 -11.610  0.50 57.02 LIG 0.17  C 
BRANCH 14 15
ATOM     15  CB  HIS P   4     -15.547  16.704 -11.011  0.50 56.94 LIG 0.09  C 
BRANCH 15 16
ATOM     16  CG  HIS P   4     -15.499  15.596 -12.024  0.50 56.80 LIG 0.05  A 
ATOM     17 ND1  HIS P   4     -14.369  14.842 -12.262  0.50 56.77 LIG-0.25  NA
ATOM     18  CE1 HIS P   4     -14.624  13.956 -13.208  0.50 56.50 LIG 0.21  A 
ATOM     19  NE2 HIS P   4     -15.876  14.110 -13.598  0.50 56.43 LIG-0.36  N 
ATOM     20 HE2  HIS P   4     -16.271  13.646 -14.205  0.50 56.43 LIG 0.17  HD
ATOM     21  CD2 HIS P   4     -16.444  15.132 -12.876  0.50 56.57 LIG 0.12  A 
ENDBRANCH 15 16
ENDBRANCH 14 15
BRANCH 14 22
ATOM     22  C   HIS P   4     -14.688  18.141 -12.908  0.50 57.04 LIG 0.22  C 
ATOM     23 O    HIS P   4     -13.685  18.845 -13.022  0.50 57.12 LIG-0.29  OA
ENDBRANCH 14 22
ENDBRANCH 11 14
ENDBRANCH 5 10
ENDBRANCH 3 5
BRANCH 1 24
ATOM     24  CA  LEU P   2     -18.693  23.683 -13.313  0.50 57.16 LIG 0.18  C 
BRANCH 24 25
ATOM     25  N   LEU P   2     -20.006  24.166 -13.657  0.50 57.19 LIG-0.35  N 
ATOM     26  C   VAL P   1     -20.789  23.400 -14.399  0.50 57.27 LIG 0.25  C 
ATOM     27 O    VAL P   1     -20.556  22.203 -14.599  0.50 57.24 LIG-0.27  OA
ATOM     28 H    LEU P   2     -20.211  24.944 -13.353  0.50 57.19 LIG 0.16  HD
BRANCH 26 29
ATOM     29  CA  VAL P   1     -22.025  24.079 -14.950  0.50 57.27 LIG 0.28  C 
BRANCH 29 30
ATOM     30  CB  VAL P   1     -22.392  25.298 -14.086  0.50 57.30 LIG 0.02  C 
ATOM     31  CG2 VAL P   1     -23.410  24.918 -13.021  0.50 57.34 LIG 0.01  C 
ATOM     32  CG1 VAL P   1     -22.905  26.441 -14.953  0.50 57.33 LIG 0.01  C 
ENDBRANCH 29 30
BRANCH 29 33
ATOM     33  N   VAL P   1     -23.123  23.072 -14.944  0.50 57.23 LIG-0.07  N 
ATOM     34 H3   VAL P   1     -23.079  22.579 -15.683  0.50 57.23 LIG 0.28  HD
ATOM     35 H2   VAL P   1     -23.908  23.489 -14.913  0.50 57.23 LIG 0.28  HD
ATOM     36 H1   VAL P   1     -23.039  22.546 -14.231  0.50 57.23 LIG 0.28  HD
ENDBRANCH 29 33
ENDBRANCH 26 29
ENDBRANCH 24 25
BRANCH 24 37
ATOM     37  CB  LEU P   2     -17.796  24.846 -12.874  0.50 57.14 LIG 0.04  C 
BRANCH 37 38
ATOM     38  CG  LEU P   2     -16.363  24.759 -12.394  0.50 56.96 LIG-0.02  C 
ATOM     39  CD1 LEU P   2     -15.512  25.637 -13.308  0.50 57.03 LIG 0.01  C 
ATOM     40  CD2 LEU P   2     -16.282  25.206 -10.959  0.50 56.70 LIG 0.01  C 
ENDBRANCH 37 38
ENDBRANCH 24 37
ENDBRANCH 1 24
TORSDOF 15
ENDMDL
MODEL 32
USER: ADFR SOLUTION from run 54
USER: SCORE 12.688579 LL:  -3.052 LR: -11.277 RR:   0.000 FEB:  -6.802
USER: RMSD 4.160779
USER: SEED 53
USER: STATUS no improvement in best 18 clusters for 5 generations
USER: GENES 17
USER: genes 0 Translation |==|  0.44003 0.52557 0.52992
USER: genes 1 Rotation |==|  0.16338 0.79356 0.34944 0.66685
USER: genes 2 Torsion [C]-N--CA-[CB] |==|  0.23331
USER: genes 3 Torsion [N]-CA--CB-[CG] |==|  0.73655
USER: genes 4 Torsion [CA]-CB--CG-[CD1] |==|  0.95977
USER: genes 5 Torsion [N]-CA--C-[N] |==|  0.47745
USER: genes 6 Torsion [C]-N--CA-[CB] |==|  0.25448
USER: genes 7 Torsion [N]-CA--CB-[CG] |==|  0.66487
USER: genes 8 Torsion [CA]-CB--CG-[ND1] |==|  0.02133
USER: genes 9 Torsion [N]-CA--C-[O] |==|  0.06005
USER: genes 10 Torsion [N]-C--CA-[N] |==|  0.75030
USER: genes 11 Torsion [C]-CA--N-[C] |==|  0.66896
USER: genes 12 Torsion [N]-C--CA-[N] |==|  0.55946
USER: genes 13 Torsion [C]-CA--CB-[CG2] |==|  0.85091
USER: genes 14 Torsion [C]-CA--N-[H3] |==|  0.58390
USER: genes 15 Torsion [C]-CA--CB-[CG] |==|  0.31311
USER: genes 16 Torsion [CA]-CB--CG-[CD1] |==|  0.72493
ROOT
ATOM      1  C   LEU P   2     -21.829  23.087 -13.862  0.50 57.15 LIG 0.24  C 
ATOM      2 O    LEU P   2     -22.776  22.792 -13.125  0.50 57.16 LIG-0.27  OA
ATOM      3  N   LEU P   3     -20.541  23.113 -13.567  0.50 57.16 LIG-0.35  N 
ATOM      4 H    LEU P   3     -19.992  23.549 -14.065  0.50 57.16 LIG 0.16  HD
ENDROOT
BRANCH 3 5
ATOM      5  CA  LEU P   3     -19.859  22.494 -12.479  0.50 57.19 LIG 0.18  C 
BRANCH 5 6
ATOM      6  CB  LEU P   3     -19.485  21.044 -12.711  0.50 57.26 LIG 0.04  C 
BRANCH 6 7
ATOM      7  CG  LEU P   3     -20.653  20.281 -12.075  0.50 57.44 LIG-0.02  C 
ATOM      8  CD1 LEU P   3     -21.500  21.175 -11.188  0.50 57.60 LIG 0.01  C 
ATOM      9  CD2 LEU P   3     -21.494  19.547 -13.115  0.50 57.51 LIG 0.01  C 
ENDBRANCH 6 7
ENDBRANCH 5 6
BRANCH 5 10
ATOM     10  C   LEU P   3     -18.646  23.412 -12.434  0.50 57.14 LIG 0.24  C 
ATOM     11  N   HIS P   4     -17.835  23.230 -11.392  0.50 57.08 LIG-0.35  N 
ATOM     12 H    HIS P   4     -17.972  22.632 -10.789  0.50 57.08 LIG 0.16  HD
ATOM     13 O    LEU P   3     -18.485  24.297 -13.271  0.50 57.14 LIG-0.27  OA
BRANCH 11 14
ATOM     14  CA  HIS P   4     -16.629  24.024 -11.163  0.50 57.02 LIG 0.17  C 
BRANCH 14 15
ATOM     15  CB  HIS P   4     -16.953  25.243 -10.278  0.50 56.94 LIG 0.09  C 
BRANCH 15 16
ATOM     16  CG  HIS P   4     -16.654  26.572 -10.911  0.50 56.80 LIG 0.05  A 
ATOM     17 ND1  HIS P   4     -16.279  26.711 -12.231  0.50 56.77 LIG-0.25  NA
ATOM     18  CE1 HIS P   4     -16.074  27.989 -12.498  0.50 56.50 LIG 0.21  A 
ATOM     19  NE2 HIS P   4     -16.297  28.685 -11.399  0.50 56.43 LIG-0.36  N 
ATOM     20 HE2  HIS P   4     -16.228  29.539 -11.326  0.50 56.43 LIG 0.17  HD
ATOM     21  CD2 HIS P   4     -16.657  27.823 -10.391  0.50 56.57 LIG 0.12  A 
ENDBRANCH 15 16
ENDBRANCH 14 15
BRANCH 14 22
ATOM     22  C   HIS P   4     -15.546  23.156 -10.529  0.50 57.04 LIG 0.22  C 
ATOM     23 O    HIS P   4     -15.576  21.930 -10.635  0.50 57.12 LIG-0.29  OA
ENDBRANCH 14 22
ENDBRANCH 11 14
ENDBRANCH 5 10
ENDBRANCH 3 5
BRANCH 1 24
ATOM     24  CA  LEU P   2     -21.929  23.499 -15.290  0.50 57.16 LIG 0.18  C 
BRANCH 24 25
ATOM     25  N   LEU P   2     -22.080  24.876 -15.689  0.50 57.19 LIG-0.35  N 
ATOM     26  C   VAL P   1     -23.162  25.223 -16.366  0.50 57.27 LIG 0.25  C 
ATOM     27 O    VAL P   1     -24.157  24.496 -16.456  0.50 57.24 LIG-0.27  OA
ATOM     28 H    LEU P   2     -21.443  25.405 -15.458  0.50 57.19 LIG 0.16  HD
BRANCH 26 29
ATOM     29  CA  VAL P   1     -23.121  26.604 -16.988  0.50 57.27 LIG 0.28  C 
BRANCH 29 30
ATOM     30  CB  VAL P   1     -22.408  27.591 -16.046  0.50 57.30 LIG 0.02  C 
ATOM     31  CG2 VAL P   1     -23.043  27.570 -14.663  0.50 57.34 LIG 0.01  C 
ATOM     32  CG1 VAL P   1     -22.413  28.996 -16.633  0.50 57.33 LIG 0.01  C 
ENDBRANCH 29 30
BRANCH 29 33
ATOM     33  N   VAL P   1     -24.530  27.022 -17.230  0.50 57.23 LIG-0.07  N 
ATOM     34 H3   VAL P   1     -24.563  27.560 -17.938  0.50 57.23 LIG 0.28  HD
ATOM     35 H2   VAL P   1     -24.838  27.454 -16.516  0.50 57.23 LIG 0.28  HD
ATOM     36 H1   VAL P   1     -25.032  26.302 -17.382  0.50 57.23 LIG 0.28  HD
ENDBRANCH 29 33
ENDBRANCH 26 29
ENDBRANCH 24 25
BRANCH 24 37
ATOM     37  CB  LEU P   2     -20.627  22.921 -15.857  0.50 57.14 LIG 0.04  C 
BRANCH 37 38
ATOM     38  CG  LEU P   2     -20.491  21.791 -16.855  0.50 56.96 LIG-0.02  C 
ATOM     39  CD1 LEU P   2     -20.173  20.518 -16.075  0.50 57.03 LIG 0.01  C 
ATOM     40  CD2 LEU P   2     -21.765  21.657 -17.645  0.50 56.70 LIG 0.01  C 
ENDBRANCH 37 38
ENDBRANCH 24 37
ENDBRANCH 1 24
TORSDOF 15
ENDMDL
MODEL 33
USER: ADFR SOLUTION from run 139
USER: SCORE 13.494483 LL:  -2.961 LR: -11.231 RR:   0.000 FEB:  -6.757
USER: RMSD 6.174420
USER: SEED 138
USER: STATUS no improvement in best 19 clusters for 5 generations
USER: GENES 17
USER: genes 0 Translation |==|  0.52637 0.50186 0.53420
USER: genes 1 Rotation |==|  0.04963 0.64801 0.61690 0.60770
USER: genes 2 Torsion [C]-N--CA-[CB] |==|  0.49041
USER: genes 3 Torsion [N]-CA--CB-[CG] |==|  0.58379
USER: genes 4 Torsion [CA]-CB--CG-[CD1] |==|  0.70083
USER: genes 5 Torsion [N]-CA--C-[N] |==|  0.44521
USER: genes 6 Torsion [C]-N--CA-[CB] |==|  0.87742
USER: genes 7 Torsion [N]-CA--CB-[CG] |==|  0.83432
USER: genes 8 Torsion [CA]-CB--CG-[ND1] |==|  0.09067
USER: genes 9 Torsion [N]-CA--C-[O] |==|  0.10099
USER: genes 10 Torsion [N]-C--CA-[N] |==|  0.44253
USER: genes 11 Torsion [C]-CA--N-[C] |==|  0.79694
USER: genes 12 Torsion [N]-C--CA-[N] |==|  0.36241
USER: genes 13 Torsion [C]-CA--CB-[CG2] |==|  0.37666
USER: genes 14 Torsion [C]-CA--N-[H3] |==|  0.07211
USER: genes 15 Torsion [C]-CA--CB-[CG] |==|  0.45364
USER: genes 16 Torsion [CA]-CB--CG-[CD1] |==|  0.55177
ROOT
ATOM      1  C   LEU P   2     -19.239  22.376 -13.734  0.50 57.15 LIG 0.24  C 
ATOM      2 O    LEU P   2     -18.746  21.660 -12.855  0.50 57.16 LIG-0.27  OA
ATOM      3  N   LEU P   3     -18.752  23.494 -14.245  0.50 57.16 LIG-0.35  N 
ATOM      4 H    LEU P   3     -19.268  24.034 -14.672  0.50 57.16 LIG 0.16  HD
ENDROOT
BRANCH 3 5
ATOM      5  CA  LEU P   3     -17.417  23.991 -14.203  0.50 57.19 LIG 0.18  C 
BRANCH 5 6
ATOM      6  CB  LEU P   3     -17.198  25.278 -14.970  0.50 57.26 LIG 0.04  C 
BRANCH 6 7
ATOM      7  CG  LEU P   3     -15.736  25.167 -15.418  0.50 57.44 LIG-0.02  C 
ATOM      8  CD1 LEU P   3     -14.832  26.113 -14.648  0.50 57.60 LIG 0.01  C 
ATOM      9  CD2 LEU P   3     -15.228  23.729 -15.373  0.50 57.51 LIG 0.01  C 
ENDBRANCH 6 7
ENDBRANCH 5 6
BRANCH 5 10
ATOM     10  C   LEU P   3     -17.305  24.181 -12.696  0.50 57.14 LIG 0.24  C 
ATOM     11  N   HIS P   4     -16.061  24.251 -12.224  0.50 57.08 LIG-0.35  N 
ATOM     12 H    HIS P   4     -15.365  24.204 -12.727  0.50 57.08 LIG 0.16  HD
ATOM     13 O    LEU P   3     -18.303  24.195 -11.979  0.50 57.14 LIG-0.27  OA
BRANCH 11 14
ATOM     14  CA  HIS P   4     -15.747  24.414 -10.805  0.50 57.02 LIG 0.17  C 
BRANCH 14 15
ATOM     15  CB  HIS P   4     -16.661  25.485 -10.177  0.50 56.94 LIG 0.09  C 
BRANCH 15 16
ATOM     16  CG  HIS P   4     -16.550  26.846 -10.803  0.50 56.80 LIG 0.05  A 
ATOM     17 ND1  HIS P   4     -16.279  27.041 -12.140  0.50 56.77 LIG-0.25  NA
ATOM     18  CE1 HIS P   4     -16.232  28.336 -12.396  0.50 56.50 LIG 0.21  A 
ATOM     19  NE2 HIS P   4     -16.456  28.991 -11.272  0.50 56.43 LIG-0.36  N 
ATOM     20 HE2  HIS P   4     -16.475  29.846 -11.188  0.50 56.43 LIG 0.17  HD
ATOM     21  CD2 HIS P   4     -16.653  28.083 -10.260  0.50 56.57 LIG 0.12  A 
ENDBRANCH 15 16
ENDBRANCH 14 15
BRANCH 14 22
ATOM     22  C   HIS P   4     -15.890  23.077 -10.084  0.50 57.04 LIG 0.22  C 
ATOM     23 O    HIS P   4     -15.570  22.024 -10.635  0.50 57.12 LIG-0.29  OA
ENDBRANCH 14 22
ENDBRANCH 11 14
ENDBRANCH 5 10
ENDBRANCH 3 5
BRANCH 1 24
ATOM     24  CA  LEU P   2     -20.534  22.138 -14.431  0.50 57.16 LIG 0.18  C 
BRANCH 24 25
ATOM     25  N   LEU P   2     -21.155  20.839 -14.486  0.50 57.19 LIG-0.35  N 
ATOM     26  C   VAL P   1     -20.625  19.916 -15.273  0.50 57.27 LIG 0.25  C 
ATOM     27 O    VAL P   1     -19.496  20.026 -15.763  0.50 57.24 LIG-0.27  OA
ATOM     28 H    LEU P   2     -21.851  20.735 -13.992  0.50 57.19 LIG 0.16  HD
BRANCH 26 29
ATOM     29  CA  VAL P   1     -21.480  18.686 -15.494  0.50 57.27 LIG 0.28  C 
BRANCH 29 30
ATOM     30  CB  VAL P   1     -20.876  17.478 -14.756  0.50 57.30 LIG 0.02  C 
ATOM     31  CG2 VAL P   1     -21.957  16.695 -14.027  0.50 57.34 LIG 0.01  C 
ATOM     32  CG1 VAL P   1     -19.779  17.925 -13.798  0.50 57.33 LIG 0.01  C 
ENDBRANCH 29 30
BRANCH 29 33
ATOM     33  N   VAL P   1     -21.530  18.442 -16.963  0.50 57.23 LIG-0.07  N 
ATOM     34 H3   VAL P   1     -20.803  18.784 -17.347  0.50 57.23 LIG 0.28  HD
ATOM     35 H2   VAL P   1     -22.255  18.829 -17.304  0.50 57.23 LIG 0.28  HD
ATOM     36 H1   VAL P   1     -21.562  17.565 -17.117  0.50 57.23 LIG 0.28  HD
ENDBRANCH 29 33
ENDBRANCH 26 29
ENDBRANCH 24 25
BRANCH 24 37
ATOM     37  CB  LEU P   2     -21.447  23.135 -13.708  0.50 57.14 LIG 0.04  C 
BRANCH 37 38
ATOM     38  CG  LEU P   2     -22.798  23.633 -14.172  0.50 56.96 LIG-0.02  C 
ATOM     39  CD1 LEU P   2     -23.109  24.917 -13.407  0.50 57.03 LIG 0.01  C 
ATOM     40  CD2 LEU P   2     -22.770  23.864 -15.659  0.50 56.70 LIG 0.01  C 
ENDBRANCH 37 38
ENDBRANCH 24 37
ENDBRANCH 1 24
TORSDOF 15
ENDMDL
MODEL 34
USER: ADFR SOLUTION from run 149
USER: SCORE 13.785677 LL:  -3.355 LR: -11.201 RR:   0.000 FEB:  -6.727
USER: RMSD 7.293901
USER: SEED 148
USER: STATUS no improvement in best 23 clusters for 5 generations
USER: GENES 17
USER: genes 0 Translation |==|  0.61253 0.58686 0.56480
USER: genes 1 Rotation |==|  0.10494 0.54025 0.79756 0.56136
USER: genes 2 Torsion [C]-N--CA-[CB] |==|  0.78111
USER: genes 3 Torsion [N]-CA--CB-[CG] |==|  0.86021
USER: genes 4 Torsion [CA]-CB--CG-[CD1] |==|  0.29283
USER: genes 5 Torsion [N]-CA--C-[N] |==|  0.20514
USER: genes 6 Torsion [C]-N--CA-[CB] |==|  0.26975
USER: genes 7 Torsion [N]-CA--CB-[CG] |==|  0.68206
USER: genes 8 Torsion [CA]-CB--CG-[ND1] |==|  0.42594
USER: genes 9 Torsion [N]-CA--C-[O] |==|  0.92817
USER: genes 10 Torsion [N]-C--CA-[N] |==|  0.22960
USER: genes 11 Torsion [C]-CA--N-[C] |==|  0.62520
USER: genes 12 Torsion [N]-C--CA-[N] |==|  0.37109
USER: genes 13 Torsion [C]-CA--CB-[CG2] |==|  0.13308
USER: genes 14 Torsion [C]-CA--N-[H3] |==|  0.61244
USER: genes 15 Torsion [C]-CA--CB-[CG] |==|  0.18146
USER: genes 16 Torsion [CA]-CB--CG-[CD1] |==|  0.67023
ROOT
ATOM      1  C   LEU P   2     -16.654  24.926 -12.816  0.50 57.15 LIG 0.24  C 
ATOM      2 O    LEU P   2     -15.476  24.583 -12.668  0.50 57.16 LIG-0.27  OA
ATOM      3  N   LEU P   3     -17.126  26.132 -13.080  0.50 57.16 LIG-0.35  N 
ATOM      4 H    LEU P   3     -17.954  26.314 -12.934  0.50 57.16 LIG 0.16  HD
ENDROOT
BRANCH 3 5
ATOM      5  CA  LEU P   3     -16.442  27.266 -13.606  0.50 57.19 LIG 0.18  C 
BRANCH 5 6
ATOM      6  CB  LEU P   3     -15.604  28.022 -12.596  0.50 57.26 LIG 0.04  C 
BRANCH 6 7
ATOM      7  CG  LEU P   3     -16.580  28.241 -11.433  0.50 57.44 LIG-0.02  C 
ATOM      8  CD1 LEU P   3     -16.280  27.326 -10.260  0.50 57.60 LIG 0.01  C 
ATOM      9  CD2 LEU P   3     -16.655  29.705 -11.012  0.50 57.51 LIG 0.01  C 
ENDBRANCH 6 7
ENDBRANCH 5 6
BRANCH 5 10
ATOM     10  C   LEU P   3     -15.595  26.545 -14.646  0.50 57.14 LIG 0.24  C 
ATOM     11  N   HIS P   4     -16.257  26.128 -15.725  0.50 57.08 LIG-0.35  N 
ATOM     12 H    HIS P   4     -17.099  26.260 -15.841  0.50 57.08 LIG 0.16  HD
ATOM     13 O    LEU P   3     -14.404  26.314 -14.451  0.50 57.14 LIG-0.27  OA
BRANCH 11 14
ATOM     14  CA  HIS P   4     -15.624  25.401 -16.826  0.50 57.02 LIG 0.17  C 
BRANCH 14 15
ATOM     15  CB  HIS P   4     -15.837  23.884 -16.655  0.50 56.94 LIG 0.09  C 
BRANCH 15 16
ATOM     16  CG  HIS P   4     -14.580  23.101 -16.407  0.50 56.80 LIG 0.05  A 
ATOM     17 ND1  HIS P   4     -14.561  21.903 -15.725  0.50 56.77 LIG-0.25  NA
ATOM     18  CE1 HIS P   4     -13.320  21.456 -15.654  0.50 56.50 LIG 0.21  A 
ATOM     19  NE2 HIS P   4     -12.530  22.323 -16.260  0.50 56.43 LIG-0.36  N 
ATOM     20 HE2  HIS P   4     -11.677  22.249 -16.343  0.50 56.43 LIG 0.17  HD
ATOM     21  CD2 HIS P   4     -13.292  23.363 -16.736  0.50 56.57 LIG 0.12  A 
ENDBRANCH 15 16
ENDBRANCH 14 15
BRANCH 14 22
ATOM     22  C   HIS P   4     -16.181  25.889 -18.160  0.50 57.04 LIG 0.22  C 
ATOM     23 O    HIS P   4     -17.306  26.383 -18.232  0.50 57.12 LIG-0.29  OA
ENDBRANCH 14 22
ENDBRANCH 11 14
ENDBRANCH 5 10
ENDBRANCH 3 5
BRANCH 1 24
ATOM     24  CA  LEU P   2     -17.843  24.034 -12.719  0.50 57.16 LIG 0.18  C 
BRANCH 24 25
ATOM     25  N   LEU P   2     -18.477  23.463 -13.880  0.50 57.19 LIG-0.35  N 
ATOM     26  C   VAL P   1     -19.798  23.491 -13.958  0.50 57.27 LIG 0.25  C 
ATOM     27 O    VAL P   1     -20.496  24.195 -13.221  0.50 57.24 LIG-0.27  OA
ATOM     28 H    LEU P   2     -17.949  23.128 -14.470  0.50 57.19 LIG 0.16  HD
BRANCH 26 29
ATOM     29  CA  VAL P   1     -20.400  22.634 -15.052  0.50 57.27 LIG 0.28  C 
BRANCH 29 30
ATOM     30  CB  VAL P   1     -20.891  23.519 -16.212  0.50 57.30 LIG 0.02  C 
ATOM     31  CG2 VAL P   1     -19.825  24.528 -16.609  0.50 57.34 LIG 0.01  C 
ATOM     32  CG1 VAL P   1     -22.197  24.212 -15.846  0.50 57.33 LIG 0.01  C 
ENDBRANCH 29 30
BRANCH 29 33
ATOM     33  N   VAL P   1     -21.530  21.874 -14.447  0.50 57.23 LIG-0.07  N 
ATOM     34 H3   VAL P   1     -21.530  21.041 -14.760  0.50 57.23 LIG 0.28  HD
ATOM     35 H2   VAL P   1     -22.299  22.269 -14.657  0.50 57.23 LIG 0.28  HD
ATOM     36 H1   VAL P   1     -21.437  21.858 -13.562  0.50 57.23 LIG 0.28  HD
ENDBRANCH 29 33
ENDBRANCH 26 29
ENDBRANCH 24 25
BRANCH 24 37
ATOM     37  CB  LEU P   2     -17.309  22.925 -11.805  0.50 57.14 LIG 0.04  C 
BRANCH 37 38
ATOM     38  CG  LEU P   2     -16.893  23.061 -10.356  0.50 56.96 LIG-0.02  C 
ATOM     39  CD1 LEU P   2     -15.415  22.695 -10.260  0.50 57.03 LIG 0.01  C 
ATOM     40  CD2 LEU P   2     -17.152  24.467  -9.885  0.50 56.70 LIG 0.01  C 
ENDBRANCH 37 38
ENDBRANCH 24 37
ENDBRANCH 1 24
TORSDOF 15
ENDMDL
MODEL 35
USER: ADFR SOLUTION from run 50
USER: SCORE 13.604868 LL:  -3.421 LR: -11.167 RR:   0.000 FEB:  -6.693
USER: RMSD 6.702770
USER: SEED 49
USER: STATUS no improvement in best 5 clusters for 5 generations
USER: GENES 17
USER: genes 0 Translation |==|  0.63716 0.60042 0.52285
USER: genes 1 Rotation |==|  0.43522 0.13327 0.44903 0.82972
USER: genes 2 Torsion [C]-N--CA-[CB] |==|  0.23829
USER: genes 3 Torsion [N]-CA--CB-[CG] |==|  0.79642
USER: genes 4 Torsion [CA]-CB--CG-[CD1] |==|  0.36517
USER: genes 5 Torsion [N]-CA--C-[N] |==|  0.84031
USER: genes 6 Torsion [C]-N--CA-[CB] |==|  0.25994
USER: genes 7 Torsion [N]-CA--CB-[CG] |==|  0.87704
USER: genes 8 Torsion [CA]-CB--CG-[ND1] |==|  0.76932
USER: genes 9 Torsion [N]-CA--C-[O] |==|  0.28938
USER: genes 10 Torsion [N]-C--CA-[N] |==|  0.89542
USER: genes 11 Torsion [C]-CA--N-[C] |==|  0.74573
USER: genes 12 Torsion [N]-C--CA-[N] |==|  0.91491
USER: genes 13 Torsion [C]-CA--CB-[CG2] |==|  0.49700
USER: genes 14 Torsion [C]-CA--N-[H3] |==|  0.77082
USER: genes 15 Torsion [C]-CA--CB-[CG] |==|  0.30219
USER: genes 16 Torsion [CA]-CB--CG-[CD1] |==|  0.57631
ROOT
ATOM      1  C   LEU P   2     -15.915  25.332 -14.074  0.50 57.15 LIG 0.24  C 
ATOM      2 O    LEU P   2     -14.784  24.943 -13.761  0.50 57.16 LIG-0.27  OA
ATOM      3  N   LEU P   3     -17.056  24.669 -14.002  0.50 57.16 LIG-0.35  N 
ATOM      4 H    LEU P   3     -17.739  24.934 -14.454  0.50 57.16 LIG 0.16  HD
ENDROOT
BRANCH 3 5
ATOM      5  CA  LEU P   3     -17.367  23.502 -13.246  0.50 57.19 LIG 0.18  C 
BRANCH 5 6
ATOM      6  CB  LEU P   3     -17.802  23.771 -11.820  0.50 57.26 LIG 0.04  C 
BRANCH 6 7
ATOM      7  CG  LEU P   3     -16.492  24.170 -11.130  0.50 57.44 LIG-0.02  C 
ATOM      8  CD1 LEU P   3     -16.644  25.443 -10.316  0.50 57.60 LIG 0.01  C 
ATOM      9  CD2 LEU P   3     -15.906  23.029 -10.304  0.50 57.51 LIG 0.01  C 
ENDBRANCH 6 7
ENDBRANCH 5 6
BRANCH 5 10
ATOM     10  C   LEU P   3     -18.502  22.977 -14.116  0.50 57.14 LIG 0.24  C 
ATOM     11  N   HIS P   4     -19.519  23.821 -14.291  0.50 57.08 LIG-0.35  N 
ATOM     12 H    HIS P   4     -19.538  24.610 -13.950  0.50 57.08 LIG 0.16  HD
ATOM     13 O    LEU P   3     -18.489  21.830 -14.556  0.50 57.14 LIG-0.27  OA
BRANCH 11 14
ATOM     14  CA  HIS P   4     -20.707  23.494 -15.078  0.50 57.02 LIG 0.17  C 
BRANCH 14 15
ATOM     15  CB  HIS P   4     -21.814  22.931 -14.164  0.50 56.94 LIG 0.09  C 
BRANCH 15 16
ATOM     16  CG  HIS P   4     -21.340  21.922 -13.158  0.50 56.80 LIG 0.05  A 
ATOM     17 ND1  HIS P   4     -21.165  20.587 -13.454  0.50 56.77 LIG-0.25  NA
ATOM     18  CE1 HIS P   4     -20.754  19.947 -12.374  0.50 56.50 LIG 0.21  A 
ATOM     19  NE2 HIS P   4     -20.660  20.816 -11.385  0.50 56.43 LIG-0.36  N 
ATOM     20 HE2  HIS P   4     -20.411  20.634 -10.582  0.50 56.43 LIG 0.17  HD
ATOM     21  CD2 HIS P   4     -21.026  22.057 -11.847  0.50 56.57 LIG 0.12  A 
ENDBRANCH 15 16
ENDBRANCH 14 15
BRANCH 14 22
ATOM     22  C   HIS P   4     -21.190  24.732 -15.829  0.50 57.04 LIG 0.22  C 
ATOM     23 O    HIS P   4     -20.989  24.857 -17.037  0.50 57.12 LIG-0.29  OA
ENDBRANCH 14 22
ENDBRANCH 11 14
ENDBRANCH 5 10
ENDBRANCH 3 5
BRANCH 1 24
ATOM     24  CA  LEU P   2     -16.256  26.673 -14.626  0.50 57.16 LIG 0.18  C 
BRANCH 24 25
ATOM     25  N   LEU P   2     -17.255  26.857 -15.649  0.50 57.19 LIG-0.35  N 
ATOM     26  C   VAL P   1     -16.874  26.839 -16.916  0.50 57.27 LIG 0.25  C 
ATOM     27 O    VAL P   1     -15.765  26.427 -17.274  0.50 57.24 LIG-0.27  OA
ATOM     28 H    LEU P   2     -18.060  26.971 -15.371  0.50 57.19 LIG 0.16  HD
BRANCH 26 29
ATOM     29  CA  VAL P   1     -17.912  27.314 -17.911  0.50 57.27 LIG 0.28  C 
BRANCH 29 30
ATOM     30  CB  VAL P   1     -17.779  28.831 -18.135  0.50 57.30 LIG 0.02  C 
ATOM     31  CG2 VAL P   1     -18.800  29.318 -19.152  0.50 57.34 LIG 0.01  C 
ATOM     32  CG1 VAL P   1     -16.362  29.191 -18.561  0.50 57.33 LIG 0.01  C 
ENDBRANCH 29 30
BRANCH 29 33
ATOM     33  N   VAL P   1     -19.250  26.975 -17.349  0.50 57.23 LIG-0.07  N 
ATOM     34 H3   VAL P   1     -19.442  26.125 -17.530  0.50 57.23 LIG 0.28  HD
ATOM     35 H2   VAL P   1     -19.868  27.502 -17.713  0.50 57.23 LIG 0.28  HD
ATOM     36 H1   VAL P   1     -19.240  27.095 -16.466  0.50 57.23 LIG 0.28  HD
ENDBRANCH 29 33
ENDBRANCH 26 29
ENDBRANCH 24 25
BRANCH 24 37
ATOM     37  CB  LEU P   2     -16.655  27.426 -13.352  0.50 57.14 LIG 0.04  C 
BRANCH 37 38
ATOM     38  CG  LEU P   2     -15.878  28.527 -12.664  0.50 56.96 LIG-0.02  C 
ATOM     39  CD1 LEU P   2     -16.237  28.494 -11.181  0.50 57.03 LIG 0.01  C 
ATOM     40  CD2 LEU P   2     -14.403  28.320 -12.885  0.50 56.70 LIG 0.01  C 
ENDBRANCH 37 38
ENDBRANCH 24 37
ENDBRANCH 1 24
TORSDOF 15
ENDMDL
MODEL 36
USER: ADFR SOLUTION from run 35
USER: SCORE 13.360752 LL:  -2.770 LR: -11.159 RR:   0.000 FEB:  -6.684
USER: RMSD 4.981183
USER: SEED 34
USER: STATUS no improvement in best 14 clusters for 5 generations
USER: GENES 17
USER: genes 0 Translation |==|  0.52938 0.47603 0.59663
USER: genes 1 Rotation |==|  0.10404 0.77156 0.59872 0.59862
USER: genes 2 Torsion [C]-N--CA-[CB] |==|  0.19846
USER: genes 3 Torsion [N]-CA--CB-[CG] |==|  0.76899
USER: genes 4 Torsion [CA]-CB--CG-[CD1] |==|  0.41006
USER: genes 5 Torsion [N]-CA--C-[N] |==|  0.08641
USER: genes 6 Torsion [C]-N--CA-[CB] |==|  0.77647
USER: genes 7 Torsion [N]-CA--CB-[CG] |==|  0.73676
USER: genes 8 Torsion [CA]-CB--CG-[ND1] |==|  0.75829
USER: genes 9 Torsion [N]-CA--C-[O] |==|  0.64438
USER: genes 10 Torsion [N]-C--CA-[N] |==|  0.08889
USER: genes 11 Torsion [C]-CA--N-[C] |==|  0.66153
USER: genes 12 Torsion [N]-C--CA-[N] |==|  0.08228
USER: genes 13 Torsion [C]-CA--CB-[CG2] |==|  0.85259
USER: genes 14 Torsion [C]-CA--N-[H3] |==|  0.68884
USER: genes 15 Torsion [C]-CA--CB-[CG] |==|  0.73348
USER: genes 16 Torsion [CA]-CB--CG-[CD1] |==|  0.18144
ROOT
ATOM      1  C   LEU P   2     -19.149  21.601 -11.861  0.50 57.15 LIG 0.24  C 
ATOM      2 O    LEU P   2     -18.961  20.818 -10.923  0.50 57.16 LIG-0.27  OA
ATOM      3  N   LEU P   3     -18.247  22.269 -12.560  0.50 57.16 LIG-0.35  N 
ATOM      4 H    LEU P   3     -18.482  22.953 -13.026  0.50 57.16 LIG 0.16  HD
ENDROOT
BRANCH 3 5
ATOM      5  CA  LEU P   3     -16.848  22.027 -12.680  0.50 57.19 LIG 0.18  C 
BRANCH 5 6
ATOM      6  CB  LEU P   3     -16.486  20.800 -13.491  0.50 57.26 LIG 0.04  C 
BRANCH 6 7
ATOM      7  CG  LEU P   3     -16.613  19.663 -12.471  0.50 57.44 LIG-0.02  C 
ATOM      8  CD1 LEU P   3     -17.071  18.368 -13.118  0.50 57.60 LIG 0.01  C 
ATOM      9  CD2 LEU P   3     -15.337  19.475 -11.656  0.50 57.51 LIG 0.01  C 
ENDBRANCH 6 7
ENDBRANCH 5 6
BRANCH 5 10
ATOM     10  C   LEU P   3     -16.463  23.325 -13.376  0.50 57.14 LIG 0.24  C 
ATOM     11  N   HIS P   4     -17.213  24.381 -13.062  0.50 57.08 LIG-0.35  N 
ATOM     12 H    HIS P   4     -17.863  24.345 -12.500  0.50 57.08 LIG 0.16  HD
ATOM     13 O    LEU P   3     -15.567  23.357 -14.217  0.50 57.14 LIG-0.27  OA
BRANCH 11 14
ATOM     14  CA  HIS P   4     -17.012  25.710 -13.639  0.50 57.02 LIG 0.17  C 
BRANCH 14 15
ATOM     15  CB  HIS P   4     -15.857  26.434 -12.920  0.50 56.94 LIG 0.09  C 
BRANCH 15 16
ATOM     16  CG  HIS P   4     -16.287  27.339 -11.801  0.50 56.80 LIG 0.05  A 
ATOM     17 ND1  HIS P   4     -16.647  28.656 -11.993  0.50 56.77 LIG-0.25  NA
ATOM     18  CE1 HIS P   4     -16.965  29.200 -10.832  0.50 56.50 LIG 0.21  A 
ATOM     19  NE2 HIS P   4     -16.818  28.286  -9.891  0.50 56.43 LIG-0.36  N 
ATOM     20 HE2  HIS P   4     -16.966  28.405  -9.052  0.50 56.43 LIG 0.17  HD
ATOM     21  CD2 HIS P   4     -16.391  27.116 -10.469  0.50 56.57 LIG 0.12  A 
ENDBRANCH 15 16
ENDBRANCH 14 15
BRANCH 14 22
ATOM     22  C   HIS P   4     -16.741  25.592 -15.136  0.50 57.04 LIG 0.22  C 
ATOM     23 O    HIS P   4     -15.760  26.133 -15.645  0.50 57.12 LIG-0.29  OA
ENDBRANCH 14 22
ENDBRANCH 11 14
ENDBRANCH 5 10
ENDBRANCH 3 5
BRANCH 1 24
ATOM     24  CA  LEU P   2     -20.471  21.985 -12.428  0.50 57.16 LIG 0.18  C 
BRANCH 24 25
ATOM     25  N   LEU P   2     -20.651  22.313 -13.819  0.50 57.19 LIG-0.35  N 
ATOM     26  C   VAL P   1     -21.136  23.504 -14.131  0.50 57.27 LIG 0.25  C 
ATOM     27 O    VAL P   1     -21.207  24.430 -13.317  0.50 57.24 LIG-0.27  OA
ATOM     28 H    LEU P   2     -20.426  21.702 -14.381  0.50 57.19 LIG 0.16  HD
BRANCH 26 29
ATOM     29  CA  VAL P   1     -21.558  23.672 -15.576  0.50 57.27 LIG 0.28  C 
BRANCH 29 30
ATOM     30  CB  VAL P   1     -22.706  24.692 -15.680  0.50 57.30 LIG 0.02  C 
ATOM     31  CG2 VAL P   1     -23.847  24.317 -14.746  0.50 57.34 LIG 0.01  C 
ATOM     32  CG1 VAL P   1     -23.191  24.814 -17.119  0.50 57.33 LIG 0.01  C 
ENDBRANCH 29 30
BRANCH 29 33
ATOM     33  N   VAL P   1     -21.989  22.334 -16.070  0.50 57.23 LIG-0.07  N 
ATOM     34 H3   VAL P   1     -21.410  22.041 -16.679  0.50 57.23 LIG 0.28  HD
ATOM     35 H2   VAL P   1     -22.797  22.398 -16.435  0.50 57.23 LIG 0.28  HD
ATOM     36 H1   VAL P   1     -22.016  21.761 -15.388  0.50 57.23 LIG 0.28  HD
ENDBRANCH 29 33
ENDBRANCH 26 29
ENDBRANCH 24 25
BRANCH 24 37
ATOM     37  CB  LEU P   2     -21.319  20.762 -12.056  0.50 57.14 LIG 0.04  C 
BRANCH 37 38
ATOM     38  CG  LEU P   2     -21.627  19.568 -12.932  0.50 56.96 LIG-0.02  C 
ATOM     39  CD1 LEU P   2     -20.315  18.834 -13.197  0.50 57.03 LIG 0.01  C 
ATOM     40  CD2 LEU P   2     -22.633  18.682 -12.246  0.50 56.70 LIG 0.01  C 
ENDBRANCH 37 38
ENDBRANCH 24 37
ENDBRANCH 1 24
TORSDOF 15
ENDMDL
MODEL 37
USER: ADFR SOLUTION from run 31
USER: SCORE 13.710198 LL:  -3.045 LR: -11.163 RR:   0.000 FEB:  -6.689
USER: RMSD 8.868003
USER: SEED 30
USER: STATUS no improvement in best 20 clusters for 5 generations
USER: GENES 17
USER: genes 0 Translation |==|  0.64929 0.58766 0.52879
USER: genes 1 Rotation |==|  0.19463 0.38331 0.87388 0.55780
USER: genes 2 Torsion [C]-N--CA-[CB] |==|  0.79812
USER: genes 3 Torsion [N]-CA--CB-[CG] |==|  0.74092
USER: genes 4 Torsion [CA]-CB--CG-[CD1] |==|  0.26212
USER: genes 5 Torsion [N]-CA--C-[N] |==|  0.23430
USER: genes 6 Torsion [C]-N--CA-[CB] |==|  0.83545
USER: genes 7 Torsion [N]-CA--CB-[CG] |==|  0.64256
USER: genes 8 Torsion [CA]-CB--CG-[ND1] |==|  0.12300
USER: genes 9 Torsion [N]-CA--C-[O] |==|  0.93935
USER: genes 10 Torsion [N]-C--CA-[N] |==|  0.04202
USER: genes 11 Torsion [C]-CA--N-[C] |==|  0.72301
USER: genes 12 Torsion [N]-C--CA-[N] |==|  0.49053
USER: genes 13 Torsion [C]-CA--CB-[CG2] |==|  0.54239
USER: genes 14 Torsion [C]-CA--N-[H3] |==|  0.96960
USER: genes 15 Torsion [C]-CA--CB-[CG] |==|  0.23673
USER: genes 16 Torsion [CA]-CB--CG-[CD1] |==|  0.33037
ROOT
ATOM      1  C   LEU P   2     -15.551  24.950 -13.896  0.50 57.15 LIG 0.24  C 
ATOM      2 O    LEU P   2     -14.410  25.293 -14.224  0.50 57.16 LIG-0.27  OA
ATOM      3  N   LEU P   3     -16.521  25.702 -13.407  0.50 57.16 LIG-0.35  N 
ATOM      4 H    LEU P   3     -17.185  25.339 -12.997  0.50 57.16 LIG 0.16  HD
ENDROOT
BRANCH 3 5
ATOM      5  CA  LEU P   3     -16.663  27.120 -13.449  0.50 57.19 LIG 0.18  C 
BRANCH 5 6
ATOM      6  CB  LEU P   3     -15.722  27.876 -12.533  0.50 57.26 LIG 0.04  C 
BRANCH 6 7
ATOM      7  CG  LEU P   3     -16.552  28.052 -11.256  0.50 57.44 LIG-0.02  C 
ATOM      8  CD1 LEU P   3     -16.280  26.953 -10.245  0.50 57.60 LIG 0.01  C 
ATOM      9  CD2 LEU P   3     -16.384  29.442 -10.649  0.50 57.51 LIG 0.01  C 
ENDBRANCH 6 7
ENDBRANCH 5 6
BRANCH 5 10
ATOM     10  C   LEU P   3     -16.338  27.326 -14.922  0.50 57.14 LIG 0.24  C 
ATOM     11  N   HIS P   4     -17.364  27.162 -15.757  0.50 57.08 LIG-0.35  N 
ATOM     12 H    HIS P   4     -18.158  26.965 -15.493  0.50 57.08 LIG 0.16  HD
ATOM     13 O    LEU P   3     -15.191  27.558 -15.296  0.50 57.14 LIG-0.27  OA
BRANCH 11 14
ATOM     14  CA  HIS P   4     -17.249  27.300 -17.209  0.50 57.02 LIG 0.17  C 
BRANCH 14 15
ATOM     15  CB  HIS P   4     -16.757  28.715 -17.572  0.50 56.94 LIG 0.09  C 
BRANCH 15 16
ATOM     16  CG  HIS P   4     -17.596  29.424 -18.596  0.50 56.80 LIG 0.05  A 
ATOM     17 ND1  HIS P   4     -18.974  29.434 -18.565  0.50 56.77 LIG-0.25  NA
ATOM     18  CE1 HIS P   4     -19.433  30.125 -19.594  0.50 56.50 LIG 0.21  A 
ATOM     19  NE2 HIS P   4     -18.403  30.559 -20.296  0.50 56.43 LIG-0.36  N 
ATOM     20 HE2  HIS P   4     -18.451  31.033 -21.012  0.50 56.43 LIG 0.17  HD
ATOM     21  CD2 HIS P   4     -17.243  30.131 -19.697  0.50 56.57 LIG 0.12  A 
ENDBRANCH 15 16
ENDBRANCH 14 15
BRANCH 14 22
ATOM     22  C   HIS P   4     -16.309  26.232 -17.760  0.50 57.04 LIG 0.22  C 
ATOM     23 O    HIS P   4     -15.478  25.685 -17.034  0.50 57.12 LIG-0.29  OA
ENDBRANCH 14 22
ENDBRANCH 11 14
ENDBRANCH 5 10
ENDBRANCH 3 5
BRANCH 1 24
ATOM     24  CA  LEU P   2     -16.104  23.569 -13.973  0.50 57.16 LIG 0.18  C 
BRANCH 24 25
ATOM     25  N   LEU P   2     -17.515  23.295 -13.872  0.50 57.19 LIG-0.35  N 
ATOM     26  C   VAL P   1     -17.999  22.879 -12.713  0.50 57.27 LIG 0.25  C 
ATOM     27 O    VAL P   1     -17.360  22.954 -11.658  0.50 57.24 LIG-0.27  OA
ATOM     28 H    LEU P   2     -17.974  23.420 -14.589  0.50 57.19 LIG 0.16  HD
BRANCH 26 29
ATOM     29  CA  VAL P   1     -19.416  22.347 -12.756  0.50 57.27 LIG 0.28  C 
BRANCH 29 30
ATOM     30  CB  VAL P   1     -20.388  23.458 -13.191  0.50 57.30 LIG 0.02  C 
ATOM     31  CG2 VAL P   1     -21.826  23.066 -12.884  0.50 57.34 LIG 0.01  C 
ATOM     32  CG1 VAL P   1     -20.209  23.783 -14.668  0.50 57.33 LIG 0.01  C 
ENDBRANCH 29 30
BRANCH 29 33
ATOM     33  N   VAL P   1     -19.746  21.856 -11.388  0.50 57.23 LIG-0.07  N 
ATOM     34 H3   VAL P   1     -19.006  21.833 -10.894  0.50 57.23 LIG 0.28  HD
ATOM     35 H2   VAL P   1     -20.092  21.038 -11.442  0.50 57.23 LIG 0.28  HD
ATOM     36 H1   VAL P   1     -20.337  22.404 -11.011  0.50 57.23 LIG 0.28  HD
ENDBRANCH 29 33
ENDBRANCH 26 29
ENDBRANCH 24 25
BRANCH 24 37
ATOM     37  CB  LEU P   2     -15.568  23.110 -15.334  0.50 57.14 LIG 0.04  C 
BRANCH 37 38
ATOM     38  CG  LEU P   2     -14.213  22.499 -15.620  0.50 56.96 LIG-0.02  C 
ATOM     39  CD1 LEU P   2     -14.443  21.101 -16.187  0.50 57.03 LIG 0.01  C 
ATOM     40  CD2 LEU P   2     -13.457  23.375 -16.583  0.50 56.70 LIG 0.01  C 
ENDBRANCH 37 38
ENDBRANCH 24 37
ENDBRANCH 1 24
TORSDOF 15
ENDMDL
MODEL 38
USER: ADFR SOLUTION from run 8
USER: SCORE 12.640459 LL:  -3.250 LR: -11.157 RR:   0.000 FEB:  -6.683
USER: RMSD 8.442172
USER: SEED 258700
USER: STATUS no improvement in best 24 clusters for 5 generations
USER: GENES 17
USER: genes 0 Translation |==|  0.61024 0.48891 0.59416
USER: genes 1 Rotation |==|  0.02307 0.45539 0.64302 0.50954
USER: genes 2 Torsion [C]-N--CA-[CB] |==|  0.91095
USER: genes 3 Torsion [N]-CA--CB-[CG] |==|  0.63011
USER: genes 4 Torsion [CA]-CB--CG-[CD1] |==|  0.45045
USER: genes 5 Torsion [N]-CA--C-[N] |==|  0.11898
USER: genes 6 Torsion [C]-N--CA-[CB] |==|  0.78838
USER: genes 7 Torsion [N]-CA--CB-[CG] |==|  0.99385
USER: genes 8 Torsion [CA]-CB--CG-[ND1] |==|  0.30565
USER: genes 9 Torsion [N]-CA--C-[O] |==|  0.25294
USER: genes 10 Torsion [N]-C--CA-[N] |==|  0.44731
USER: genes 11 Torsion [C]-CA--N-[C] |==|  0.76922
USER: genes 12 Torsion [N]-C--CA-[N] |==|  0.67089
USER: genes 13 Torsion [C]-CA--CB-[CG2] |==|  0.62710
USER: genes 14 Torsion [C]-CA--N-[H3] |==|  0.17969
USER: genes 15 Torsion [C]-CA--CB-[CG] |==|  0.33762
USER: genes 16 Torsion [CA]-CB--CG-[CD1] |==|  0.23652
ROOT
ATOM      1  C   LEU P   2     -16.723  21.987 -11.935  0.50 57.15 LIG 0.24  C 
ATOM      2 O    LEU P   2     -15.905  22.046 -11.010  0.50 57.16 LIG-0.27  OA
ATOM      3  N   LEU P   3     -17.231  22.984 -12.639  0.50 57.16 LIG-0.35  N 
ATOM      4 H    LEU P   3     -17.954  22.868 -13.092  0.50 57.16 LIG 0.16  HD
ENDROOT
BRANCH 3 5
ATOM      5  CA  LEU P   3     -16.748  24.316 -12.784  0.50 57.19 LIG 0.18  C 
BRANCH 5 6
ATOM      6  CB  LEU P   3     -16.032  24.864 -11.567  0.50 57.26 LIG 0.04  C 
BRANCH 6 7
ATOM      7  CG  LEU P   3     -16.655  26.256 -11.399  0.50 57.44 LIG-0.02  C 
ATOM      8  CD1 LEU P   3     -16.416  26.821 -10.011  0.50 57.60 LIG 0.01  C 
ATOM      9  CD2 LEU P   3     -16.210  27.221 -12.494  0.50 57.51 LIG 0.01  C 
ENDBRANCH 6 7
ENDBRANCH 5 6
BRANCH 5 10
ATOM     10  C   LEU P   3     -15.808  24.078 -13.958  0.50 57.14 LIG 0.24  C 
ATOM     11  N   HIS P   4     -16.294  23.299 -14.925  0.50 57.08 LIG-0.35  N 
ATOM     12 H    HIS P   4     -17.083  22.959 -14.901  0.50 57.08 LIG 0.16  HD
ATOM     13 O    LEU P   3     -14.664  24.526 -13.960  0.50 57.14 LIG-0.27  OA
BRANCH 11 14
ATOM     14  CA  HIS P   4     -15.538  22.940 -16.124  0.50 57.02 LIG 0.17  C 
BRANCH 14 15
ATOM     15  CB  HIS P   4     -15.501  24.127 -17.106  0.50 56.94 LIG 0.09  C 
BRANCH 15 16
ATOM     16  CG  HIS P   4     -16.270  25.336 -16.655  0.50 56.80 LIG 0.05  A 
ATOM     17 ND1  HIS P   4     -15.665  26.512 -16.266  0.50 56.77 LIG-0.25  NA
ATOM     18  CE1 HIS P   4     -16.590  27.388 -15.914  0.50 56.50 LIG 0.21  A 
ATOM     19  NE2 HIS P   4     -17.774  26.821 -16.053  0.50 56.43 LIG-0.36  N 
ATOM     20 HE2  HIS P   4     -18.530  27.195 -15.885  0.50 56.43 LIG 0.17  HD
ATOM     21  CD2 HIS P   4     -17.602  25.537 -16.511  0.50 56.57 LIG 0.12  A 
ENDBRANCH 15 16
ENDBRANCH 14 15
BRANCH 14 22
ATOM     22  C   HIS P   4     -14.128  22.501 -15.738  0.50 57.04 LIG 0.22  C 
ATOM     23 O    HIS P   4     -13.875  21.318 -15.510  0.50 57.12 LIG-0.29  OA
ENDBRANCH 14 22
ENDBRANCH 11 14
ENDBRANCH 5 10
ENDBRANCH 3 5
BRANCH 1 24
ATOM     24  CA  LEU P   2     -17.344  20.746 -12.476  0.50 57.16 LIG 0.18  C 
BRANCH 24 25
ATOM     25  N   LEU P   2     -16.774  19.440 -12.261  0.50 57.19 LIG-0.35  N 
ATOM     26  C   VAL P   1     -15.800  19.035 -13.060  0.50 57.27 LIG 0.25  C 
ATOM     27 O    VAL P   1     -15.189  19.803 -13.810  0.50 57.24 LIG-0.27  OA
ATOM     28 H    LEU P   2     -17.108  18.988 -11.611  0.50 57.19 LIG 0.16  HD
BRANCH 26 29
ATOM     29  CA  VAL P   1     -15.449  17.565 -12.959  0.50 57.27 LIG 0.28  C 
BRANCH 29 30
ATOM     30  CB  VAL P   1     -16.383  16.864 -11.956  0.50 57.30 LIG 0.02  C 
ATOM     31  CG2 VAL P   1     -15.591  15.966 -11.018  0.50 57.34 LIG 0.01  C 
ATOM     32  CG1 VAL P   1     -17.466  16.079 -12.686  0.50 57.33 LIG 0.01  C 
ENDBRANCH 29 30
BRANCH 29 33
ATOM     33  N   VAL P   1     -14.030  17.480 -12.514  0.50 57.23 LIG-0.07  N 
ATOM     34 H3   VAL P   1     -13.955  17.816 -11.694  0.50 57.23 LIG 0.28  HD
ATOM     35 H2   VAL P   1     -13.515  17.943 -13.072  0.50 57.23 LIG 0.28  HD
ATOM     36 H1   VAL P   1     -13.771  16.628 -12.510  0.50 57.23 LIG 0.28  HD
ENDBRANCH 29 33
ENDBRANCH 26 29
ENDBRANCH 24 25
BRANCH 24 37
ATOM     37  CB  LEU P   2     -18.746  20.823 -11.860  0.50 57.14 LIG 0.04  C 
BRANCH 37 38
ATOM     38  CG  LEU P   2     -20.065  20.850 -12.600  0.50 56.96 LIG-0.02  C 
ATOM     39  CD1 LEU P   2     -20.469  19.406 -12.885  0.50 57.03 LIG 0.01  C 
ATOM     40  CD2 LEU P   2     -21.098  21.564 -11.769  0.50 56.70 LIG 0.01  C 
ENDBRANCH 37 38
ENDBRANCH 24 37
ENDBRANCH 1 24
TORSDOF 15
ENDMDL
MODEL 39
USER: ADFR SOLUTION from run 5
USER: SCORE 12.503833 LL:  -3.073 LR: -11.137 RR:   0.000 FEB:  -6.662
USER: RMSD 7.498689
USER: SEED 944387
USER: STATUS no improvement in best 14 clusters for 5 generations
USER: GENES 17
USER: genes 0 Translation |==|  0.61019 0.48039 0.59788
USER: genes 1 Rotation |==|  0.02451 0.44824 0.64569 0.50110
USER: genes 2 Torsion [C]-N--CA-[CB] |==|  0.91759
USER: genes 3 Torsion [N]-CA--CB-[CG] |==|  0.61547
USER: genes 4 Torsion [CA]-CB--CG-[CD1] |==|  0.45653
USER: genes 5 Torsion [N]-CA--C-[N] |==|  0.13757
USER: genes 6 Torsion [C]-N--CA-[CB] |==|  0.83798
USER: genes 7 Torsion [N]-CA--CB-[CG] |==|  0.93337
USER: genes 8 Torsion [CA]-CB--CG-[ND1] |==|  0.37838
USER: genes 9 Torsion [N]-CA--C-[O] |==|  0.76876
USER: genes 10 Torsion [N]-C--CA-[N] |==|  0.94329
USER: genes 11 Torsion [C]-CA--N-[C] |==|  0.82112
USER: genes 12 Torsion [N]-C--CA-[N] |==|  0.86045
USER: genes 13 Torsion [C]-CA--CB-[CG2] |==|  0.67565
USER: genes 14 Torsion [C]-CA--N-[H3] |==|  0.86772
USER: genes 15 Torsion [C]-CA--CB-[CG] |==|  0.29963
USER: genes 16 Torsion [CA]-CB--CG-[CD1] |==|  0.56305
ROOT
ATOM      1  C   LEU P   2     -16.724  21.732 -11.824  0.50 57.15 LIG 0.24  C 
ATOM      2 O    LEU P   2     -15.902  21.844 -10.908  0.50 57.16 LIG-0.27  OA
ATOM      3  N   LEU P   3     -17.276  22.690 -12.548  0.50 57.16 LIG-0.35  N 
ATOM      4 H    LEU P   3     -17.997  22.536 -12.991  0.50 57.16 LIG 0.16  HD
ENDROOT
BRANCH 3 5
ATOM      5  CA  LEU P   3     -16.844  24.036 -12.730  0.50 57.19 LIG 0.18  C 
BRANCH 5 6
ATOM      6  CB  LEU P   3     -16.090  24.622 -11.554  0.50 57.26 LIG 0.04  C 
BRANCH 6 7
ATOM      7  CG  LEU P   3     -16.655  26.045 -11.457  0.50 57.44 LIG-0.02  C 
ATOM      8  CD1 LEU P   3     -16.328  26.696 -10.126  0.50 57.60 LIG 0.01  C 
ATOM      9  CD2 LEU P   3     -16.231  26.913 -12.638  0.50 57.51 LIG 0.01  C 
ENDBRANCH 6 7
ENDBRANCH 5 6
BRANCH 5 10
ATOM     10  C   LEU P   3     -15.953  23.815 -13.945  0.50 57.14 LIG 0.24  C 
ATOM     11  N   HIS P   4     -16.511  23.124 -14.939  0.50 57.08 LIG-0.35  N 
ATOM     12 H    HIS P   4     -17.319  22.829 -14.910  0.50 57.08 LIG 0.16  HD
ATOM     13 O    LEU P   3     -14.785  24.195 -13.957  0.50 57.14 LIG-0.27  OA
BRANCH 11 14
ATOM     14  CA  HIS P   4     -15.812  22.794 -16.180  0.50 57.02 LIG 0.17  C 
BRANCH 14 15
ATOM     15  CB  HIS P   4     -15.338  24.081 -16.883  0.50 56.94 LIG 0.09  C 
BRANCH 15 16
ATOM     16  CG  HIS P   4     -16.121  25.312 -16.527  0.50 56.80 LIG 0.05  A 
ATOM     17 ND1  HIS P   4     -15.530  26.527 -16.253  0.50 56.77 LIG-0.25  NA
ATOM     18  CE1 HIS P   4     -16.464  27.415 -15.963  0.50 56.50 LIG 0.21  A 
ATOM     19  NE2 HIS P   4     -17.640  26.821 -16.032  0.50 56.43 LIG-0.36  N 
ATOM     20 HE2  HIS P   4     -18.400  27.196 -15.885  0.50 56.43 LIG 0.17  HD
ATOM     21  CD2 HIS P   4     -17.454  25.504 -16.378  0.50 56.57 LIG 0.12  A 
ENDBRANCH 15 16
ENDBRANCH 14 15
BRANCH 14 22
ATOM     22  C   HIS P   4     -14.639  21.863 -15.885  0.50 57.04 LIG 0.22  C 
ATOM     23 O    HIS P   4     -13.556  22.312 -15.510  0.50 57.12 LIG-0.29  OA
ENDBRANCH 14 22
ENDBRANCH 11 14
ENDBRANCH 5 10
ENDBRANCH 3 5
BRANCH 1 24
ATOM     24  CA  LEU P   2     -17.302  20.455 -12.328  0.50 57.16 LIG 0.18  C 
BRANCH 24 25
ATOM     25  N   LEU P   2     -18.538  20.404 -13.068  0.50 57.19 LIG-0.35  N 
ATOM     26  C   VAL P   1     -19.655  20.767 -12.459  0.50 57.27 LIG 0.25  C 
ATOM     27 O    VAL P   1     -19.662  21.378 -11.385  0.50 57.24 LIG-0.27  OA
ATOM     28 H    LEU P   2     -18.477  20.135 -13.882  0.50 57.19 LIG 0.16  HD
BRANCH 26 29
ATOM     29  CA  VAL P   1     -20.934  20.424 -13.195  0.50 57.27 LIG 0.28  C 
BRANCH 29 30
ATOM     30  CB  VAL P   1     -21.170  18.903 -13.170  0.50 57.30 LIG 0.02  C 
ATOM     31  CG2 VAL P   1     -21.138  18.330 -14.578  0.50 57.34 LIG 0.01  C 
ATOM     32  CG1 VAL P   1     -22.482  18.573 -12.470  0.50 57.33 LIG 0.01  C 
ENDBRANCH 29 30
BRANCH 29 33
ATOM     33  N   VAL P   1     -20.785  20.917 -14.593  0.50 57.23 LIG-0.07  N 
ATOM     34 H3   VAL P   1     -20.480  21.753 -14.583  0.50 57.23 LIG 0.28  HD
ATOM     35 H2   VAL P   1     -21.575  20.895 -15.001  0.50 57.23 LIG 0.28  HD
ATOM     36 H1   VAL P   1     -20.210  20.397 -15.031  0.50 57.23 LIG 0.28  HD
ENDBRANCH 29 33
ENDBRANCH 26 29
ENDBRANCH 24 25
BRANCH 24 37
ATOM     37  CB  LEU P   2     -16.147  19.925 -13.186  0.50 57.14 LIG 0.04  C 
BRANCH 37 38
ATOM     38  CG  LEU P   2     -15.238  18.758 -12.867  0.50 56.96 LIG-0.02  C 
ATOM     39  CD1 LEU P   2     -13.946  18.945 -13.658  0.50 57.03 LIG 0.01  C 
ATOM     40  CD2 LEU P   2     -14.981  18.705 -11.385  0.50 56.70 LIG 0.01  C 
ENDBRANCH 37 38
ENDBRANCH 24 37
ENDBRANCH 1 24
TORSDOF 15
ENDMDL
MODEL 40
USER: ADFR SOLUTION from run 61
USER: SCORE 12.991184 LL:  -3.080 LR: -11.144 RR:   0.000 FEB:  -6.669
USER: RMSD 9.428117
USER: SEED 60
USER: STATUS no improvement in best 14 clusters for 5 generations
USER: GENES 17
USER: genes 0 Translation |==|  0.39866 0.58016 0.44964
USER: genes 1 Rotation |==|  0.27024 0.46573 0.05843 0.53250
USER: genes 2 Torsion [C]-N--CA-[CB] |==|  0.45742
USER: genes 3 Torsion [N]-CA--CB-[CG] |==|  0.78810
USER: genes 4 Torsion [CA]-CB--CG-[CD1] |==|  0.63756
USER: genes 5 Torsion [N]-CA--C-[N] |==|  0.41255
USER: genes 6 Torsion [C]-N--CA-[CB] |==|  0.27611
USER: genes 7 Torsion [N]-CA--CB-[CG] |==|  0.79727
USER: genes 8 Torsion [CA]-CB--CG-[ND1] |==|  0.32126
USER: genes 9 Torsion [N]-CA--C-[O] |==|  0.70780
USER: genes 10 Torsion [N]-C--CA-[N] |==|  0.26503
USER: genes 11 Torsion [C]-CA--N-[C] |==|  0.75000
USER: genes 12 Torsion [N]-C--CA-[N] |==|  0.95461
USER: genes 13 Torsion [C]-CA--CB-[CG2] |==|  0.62162
USER: genes 14 Torsion [C]-CA--N-[H3] |==|  0.83658
USER: genes 15 Torsion [C]-CA--CB-[CG] |==|  0.62460
USER: genes 16 Torsion [CA]-CB--CG-[CD1] |==|  0.47556
ROOT
ATOM      1  C   LEU P   2     -23.070  24.725 -16.271  0.50 57.15 LIG 0.24  C 
ATOM      2 O    LEU P   2     -24.156  24.502 -16.819  0.50 57.16 LIG-0.27  OA
ATOM      3  N   LEU P   3     -22.646  25.853 -15.728  0.50 57.16 LIG-0.35  N 
ATOM      4 H    LEU P   3     -21.806  25.975 -15.586  0.50 57.16 LIG 0.16  HD
ENDROOT
BRANCH 3 5
ATOM      5  CA  LEU P   3     -23.403  26.985 -15.308  0.50 57.19 LIG 0.18  C 
BRANCH 5 6
ATOM      6  CB  LEU P   3     -22.655  27.945 -14.406  0.50 57.26 LIG 0.04  C 
BRANCH 6 7
ATOM      7  CG  LEU P   3     -22.655  27.219 -13.055  0.50 57.44 LIG-0.02  C 
ATOM      8  CD1 LEU P   3     -23.115  28.122 -11.925  0.50 57.60 LIG 0.01  C 
ATOM      9  CD2 LEU P   3     -23.446  25.915 -13.104  0.50 57.51 LIG 0.01  C 
ENDBRANCH 6 7
ENDBRANCH 5 6
BRANCH 5 10
ATOM     10  C   LEU P   3     -23.689  27.575 -16.682  0.50 57.14 LIG 0.24  C 
ATOM     11  N   HIS P   4     -24.849  28.223 -16.790  0.50 57.08 LIG-0.35  N 
ATOM     12 H    HIS P   4     -25.398  28.316 -16.135  0.50 57.08 LIG 0.16  HD
ATOM     13 O    LEU P   3     -22.924  27.393 -17.626  0.50 57.14 LIG-0.27  OA
BRANCH 11 14
ATOM     14  CA  HIS P   4     -25.311  28.843 -18.032  0.50 57.02 LIG 0.17  C 
BRANCH 14 15
ATOM     15  CB  HIS P   4     -26.322  27.923 -18.743  0.50 56.94 LIG 0.09  C 
BRANCH 15 16
ATOM     16  CG  HIS P   4     -25.716  26.708 -19.388  0.50 56.80 LIG 0.05  A 
ATOM     17 ND1  HIS P   4     -25.999  25.421 -18.984  0.50 56.77 LIG-0.25  NA
ATOM     18  CE1 HIS P   4     -25.314  24.567 -19.724  0.50 56.50 LIG 0.21  A 
ATOM     19  NE2 HIS P   4     -24.592  25.253 -20.590  0.50 56.43 LIG-0.36  N 
ATOM     20 HE2  HIS P   4     -24.063  24.914 -21.178  0.50 56.43 LIG 0.17  HD
ATOM     21  CD2 HIS P   4     -24.821  26.594 -20.398  0.50 56.57 LIG 0.12  A 
ENDBRANCH 15 16
ENDBRANCH 14 15
BRANCH 14 22
ATOM     22  C   HIS P   4     -25.923  30.209 -17.735  0.50 57.04 LIG 0.22  C 
ATOM     23 O    HIS P   4     -27.143  30.373 -17.760  0.50 57.12 LIG-0.29  OA
ENDBRANCH 14 22
ENDBRANCH 11 14
ENDBRANCH 5 10
ENDBRANCH 3 5
BRANCH 1 24
ATOM     24  CA  LEU P   2     -21.960  23.746 -16.100  0.50 57.16 LIG 0.18  C 
BRANCH 24 25
ATOM     25  N   LEU P   2     -21.910  22.819 -14.998  0.50 57.19 LIG-0.35  N 
ATOM     26  C   VAL P   1     -21.297  23.191 -13.886  0.50 57.27 LIG 0.25  C 
ATOM     27 O    VAL P   1     -20.990  24.365 -13.653  0.50 57.24 LIG-0.27  OA
ATOM     28 H    LEU P   2     -22.290  22.059 -15.129  0.50 57.19 LIG 0.16  HD
BRANCH 26 29
ATOM     29  CA  VAL P   1     -21.038  22.082 -12.888  0.50 57.27 LIG 0.28  C 
BRANCH 29 30
ATOM     30  CB  VAL P   1     -19.553  21.680 -12.912  0.50 57.30 LIG 0.02  C 
ATOM     31  CG2 VAL P   1     -19.403  20.166 -12.889  0.50 57.34 LIG 0.01  C 
ATOM     32  CG1 VAL P   1     -18.800  22.326 -11.756  0.50 57.33 LIG 0.01  C 
ENDBRANCH 29 30
BRANCH 29 33
ATOM     33  N   VAL P   1     -21.907  20.933 -13.269  0.50 57.23 LIG-0.07  N 
ATOM     34 H3   VAL P   1     -22.759  21.188 -13.260  0.50 57.23 LIG 0.28  HD
ATOM     35 H2   VAL P   1     -21.791  20.267 -12.690  0.50 57.23 LIG 0.28  HD
ATOM     36 H1   VAL P   1     -21.689  20.655 -14.087  0.50 57.23 LIG 0.28  HD
ENDBRANCH 29 33
ENDBRANCH 26 29
ENDBRANCH 24 25
BRANCH 24 37
ATOM     37  CB  LEU P   2     -22.027  22.988 -17.431  0.50 57.14 LIG 0.04  C 
BRANCH 37 38
ATOM     38  CG  LEU P   2     -21.953  21.489 -17.629  0.50 56.96 LIG-0.02  C 
ATOM     39  CD1 LEU P   2     -22.282  21.197 -19.091  0.50 57.03 LIG 0.01  C 
ATOM     40  CD2 LEU P   2     -20.580  20.996 -17.257  0.50 56.70 LIG 0.01  C 
ENDBRANCH 37 38
ENDBRANCH 24 37
ENDBRANCH 1 24
TORSDOF 15
ENDMDL
MODEL 41
USER: ADFR SOLUTION from run 12
USER: SCORE 13.039191 LL:  -3.321 LR: -11.135 RR:   0.000 FEB:  -6.660
USER: RMSD 4.871384
USER: SEED 467013
USER: STATUS no improvement in best 5 clusters for 5 generations
USER: GENES 17
USER: genes 0 Translation |==|  0.56688 0.49871 0.56437
USER: genes 1 Rotation |==|  0.08804 0.72296 0.67245 0.52904
USER: genes 2 Torsion [C]-N--CA-[CB] |==|  0.37222
USER: genes 3 Torsion [N]-CA--CB-[CG] |==|  0.61244
USER: genes 4 Torsion [CA]-CB--CG-[CD1] |==|  0.78351
USER: genes 5 Torsion [N]-CA--C-[N] |==|  0.94049
USER: genes 6 Torsion [C]-N--CA-[CB] |==|  0.79986
USER: genes 7 Torsion [N]-CA--CB-[CG] |==|  0.96161
USER: genes 8 Torsion [CA]-CB--CG-[ND1] |==|  0.26602
USER: genes 9 Torsion [N]-CA--C-[O] |==|  0.13324
USER: genes 10 Torsion [N]-C--CA-[N] |==|  0.04346
USER: genes 11 Torsion [C]-CA--N-[C] |==|  0.66853
USER: genes 12 Torsion [N]-C--CA-[N] |==|  0.24920
USER: genes 13 Torsion [C]-CA--CB-[CG2] |==|  0.79711
USER: genes 14 Torsion [C]-CA--N-[H3] |==|  0.96051
USER: genes 15 Torsion [C]-CA--CB-[CG] |==|  0.60753
USER: genes 16 Torsion [CA]-CB--CG-[CD1] |==|  0.36192
ROOT
ATOM      1  C   LEU P   2     -18.024  22.281 -12.829  0.50 57.15 LIG 0.24  C 
ATOM      2 O    LEU P   2     -17.320  21.668 -12.018  0.50 57.16 LIG-0.27  OA
ATOM      3  N   LEU P   3     -17.637  23.120 -13.775  0.50 57.16 LIG-0.35  N 
ATOM      4 H    LEU P   3     -18.202  23.666 -14.125  0.50 57.16 LIG 0.16  HD
ENDROOT
BRANCH 3 5
ATOM      5  CA  LEU P   3     -16.345  23.283 -14.354  0.50 57.19 LIG 0.18  C 
BRANCH 5 6
ATOM      6  CB  LEU P   3     -16.338  23.372 -15.866  0.50 57.26 LIG 0.04  C 
BRANCH 6 7
ATOM      7  CG  LEU P   3     -15.109  22.540 -16.254  0.50 57.44 LIG-0.02  C 
ATOM      8  CD1 LEU P   3     -13.815  23.307 -16.043  0.50 57.60 LIG 0.01  C 
ATOM      9  CD2 LEU P   3     -15.089  21.183 -15.557  0.50 57.51 LIG 0.01  C 
ENDBRANCH 6 7
ENDBRANCH 5 6
BRANCH 5 10
ATOM     10  C   LEU P   3     -15.974  24.601 -13.688  0.50 57.14 LIG 0.24  C 
ATOM     11  N   HIS P   4     -17.004  25.322 -13.245  0.50 57.08 LIG-0.35  N 
ATOM     12 H    HIS P   4     -17.822  25.065 -13.316  0.50 57.08 LIG 0.16  HD
ATOM     13 O    LEU P   3     -14.808  24.983 -13.636  0.50 57.14 LIG-0.27  OA
BRANCH 11 14
ATOM     14  CA  HIS P   4     -16.854  26.622 -12.593  0.50 57.02 LIG 0.17  C 
BRANCH 14 15
ATOM     15  CB  HIS P   4     -16.267  26.445 -11.179  0.50 56.94 LIG 0.09  C 
BRANCH 15 16
ATOM     16  CG  HIS P   4     -16.290  25.034 -10.665  0.50 56.80 LIG 0.05  A 
ATOM     17 ND1  HIS P   4     -15.213  24.179 -10.763  0.50 56.77 LIG-0.25  NA
ATOM     18  CE1 HIS P   4     -15.530  23.009 -10.237  0.50 56.50 LIG 0.21  A 
ATOM     19  NE2 HIS P   4     -16.777  23.070  -9.808  0.50 56.43 LIG-0.36  N 
ATOM     20 HE2  HIS P   4     -17.206  22.429  -9.427  0.50 56.43 LIG 0.17  HD
ATOM     21  CD2 HIS P   4     -17.276  24.323 -10.067  0.50 56.57 LIG 0.12  A 
ENDBRANCH 15 16
ENDBRANCH 14 15
BRANCH 14 22
ATOM     22  C   HIS P   4     -15.973  27.532 -13.445  0.50 57.04 LIG 0.22  C 
ATOM     23 O    HIS P   4     -16.173  27.656 -14.653  0.50 57.12 LIG-0.29  OA
ENDBRANCH 14 22
ENDBRANCH 11 14
ENDBRANCH 5 10
ENDBRANCH 3 5
BRANCH 1 24
ATOM     24  CA  LEU P   2     -19.509  22.219 -12.920  0.50 57.16 LIG 0.18  C 
BRANCH 24 25
ATOM     25  N   LEU P   2     -20.233  22.695 -14.071  0.50 57.19 LIG-0.35  N 
ATOM     26  C   VAL P   1     -21.107  23.675 -13.908  0.50 57.27 LIG 0.25  C 
ATOM     27 O    VAL P   1     -21.152  24.366 -12.885  0.50 57.24 LIG-0.27  OA
ATOM     28 H    LEU P   2     -20.052  22.306 -14.816  0.50 57.19 LIG 0.16  HD
BRANCH 26 29
ATOM     29  CA  VAL P   1     -22.023  23.928 -15.088  0.50 57.27 LIG 0.28  C 
BRANCH 29 30
ATOM     30  CB  VAL P   1     -22.413  25.416 -15.149  0.50 57.30 LIG 0.02  C 
ATOM     31  CG2 VAL P   1     -23.402  25.761 -14.046  0.50 57.34 LIG 0.01  C 
ATOM     32  CG1 VAL P   1     -22.972  25.771 -16.521  0.50 57.33 LIG 0.01  C 
ENDBRANCH 29 30
BRANCH 29 33
ATOM     33  N   VAL P   1     -23.227  23.070 -14.903  0.50 57.23 LIG-0.07  N 
ATOM     34 H3   VAL P   1     -23.065  22.460 -14.277  0.50 57.23 LIG 0.28  HD
ATOM     35 H2   VAL P   1     -23.422  22.663 -15.670  0.50 57.23 LIG 0.28  HD
ATOM     36 H1   VAL P   1     -23.916  23.575 -14.653  0.50 57.23 LIG 0.28  HD
ENDBRANCH 29 33
ENDBRANCH 26 29
ENDBRANCH 24 25
BRANCH 24 37
ATOM     37  CB  LEU P   2     -19.755  20.719 -12.719  0.50 57.14 LIG 0.04  C 
BRANCH 37 38
ATOM     38  CG  LEU P   2     -20.780  19.861 -13.430  0.50 56.96 LIG-0.02  C 
ATOM     39  CD1 LEU P   2     -20.064  18.620 -13.955  0.50 57.03 LIG 0.01  C 
ATOM     40  CD2 LEU P   2     -21.890  19.504 -12.477  0.50 56.70 LIG 0.01  C 
ENDBRANCH 37 38
ENDBRANCH 24 37
ENDBRANCH 1 24
TORSDOF 15
ENDMDL
MODEL 42
USER: ADFR SOLUTION from run 123
USER: SCORE 12.650181 LL:  -3.551 LR: -11.116 RR:   0.000 FEB:  -6.642
USER: RMSD 4.724601
USER: SEED 122
USER: STATUS no improvement in best 13 clusters for 5 generations
USER: GENES 17
USER: genes 0 Translation |==|  0.55134 0.51762 0.56434
USER: genes 1 Rotation |==|  0.58425 0.02675 0.60806 0.58523
USER: genes 2 Torsion [C]-N--CA-[CB] |==|  0.39400
USER: genes 3 Torsion [N]-CA--CB-[CG] |==|  0.80143
USER: genes 4 Torsion [CA]-CB--CG-[CD1] |==|  0.56618
USER: genes 5 Torsion [N]-CA--C-[N] |==|  0.63837
USER: genes 6 Torsion [C]-N--CA-[CB] |==|  0.80662
USER: genes 7 Torsion [N]-CA--CB-[CG] |==|  0.96610
USER: genes 8 Torsion [CA]-CB--CG-[ND1] |==|  0.32017
USER: genes 9 Torsion [N]-CA--C-[O] |==|  0.78664
USER: genes 10 Torsion [N]-C--CA-[N] |==|  0.29035
USER: genes 11 Torsion [C]-CA--N-[C] |==|  0.79220
USER: genes 12 Torsion [N]-C--CA-[N] |==|  0.45109
USER: genes 13 Torsion [C]-CA--CB-[CG2] |==|  0.29372
USER: genes 14 Torsion [C]-CA--N-[H3] |==|  0.30028
USER: genes 15 Torsion [C]-CA--CB-[CG] |==|  0.08878
USER: genes 16 Torsion [CA]-CB--CG-[CD1] |==|  0.34414
ROOT
ATOM      1  C   LEU P   2     -18.490  22.848 -12.830  0.50 57.15 LIG 0.24  C 
ATOM      2 O    LEU P   2     -18.341  23.368 -11.718  0.50 57.16 LIG-0.27  OA
ATOM      3  N   LEU P   3     -18.439  21.566 -13.145  0.50 57.16 LIG-0.35  N 
ATOM      4 H    LEU P   3     -18.322  21.326 -13.963  0.50 57.16 LIG 0.16  HD
ENDROOT
BRANCH 3 5
ATOM      5  CA  LEU P   3     -18.553  20.429 -12.293  0.50 57.19 LIG 0.18  C 
BRANCH 5 6
ATOM      6  CB  LEU P   3     -19.323  19.268 -12.889  0.50 57.26 LIG 0.04  C 
BRANCH 6 7
ATOM      7  CG  LEU P   3     -20.770  19.777 -12.886  0.50 57.44 LIG-0.02  C 
ATOM      8  CD1 LEU P   3     -21.772  18.637 -12.885  0.50 57.60 LIG 0.01  C 
ATOM      9  CD2 LEU P   3     -21.029  20.767 -11.754  0.50 57.51 LIG 0.01  C 
ENDBRANCH 6 7
ENDBRANCH 5 6
BRANCH 5 10
ATOM     10  C   LEU P   3     -17.069  20.128 -12.134  0.50 57.14 LIG 0.24  C 
ATOM     11  N   HIS P   4     -16.720  18.861 -12.355  0.50 57.08 LIG-0.35  N 
ATOM     12 H    HIS P   4     -17.283  18.252 -12.581  0.50 57.08 LIG 0.16  HD
ATOM     13 O    LEU P   3     -16.280  20.993 -11.760  0.50 57.14 LIG-0.27  OA
BRANCH 11 14
ATOM     14  CA  HIS P   4     -15.347  18.373 -12.235  0.50 57.02 LIG 0.17  C 
BRANCH 14 15
ATOM     15  CB  HIS P   4     -14.477  18.945 -13.371  0.50 56.94 LIG 0.09  C 
BRANCH 15 16
ATOM     16  CG  HIS P   4     -15.249  19.607 -14.477  0.50 56.80 LIG 0.05  A 
ATOM     17 ND1  HIS P   4     -15.155  20.953 -14.760  0.50 56.77 LIG-0.25  NA
ATOM     18  CE1 HIS P   4     -15.953  21.247 -15.771  0.50 56.50 LIG 0.21  A 
ATOM     19  NE2 HIS P   4     -16.568  20.142 -16.151  0.50 56.43 LIG-0.36  N 
ATOM     20 HE2  HIS P   4     -17.137  20.083 -16.793  0.50 56.43 LIG 0.17  HD
ATOM     21  CD2 HIS P   4     -16.149  19.103 -15.355  0.50 56.57 LIG 0.12  A 
ENDBRANCH 15 16
ENDBRANCH 14 15
BRANCH 14 22
ATOM     22  C   HIS P   4     -14.780  18.744 -10.868  0.50 57.04 LIG 0.22  C 
ATOM     23 O    HIS P   4     -14.405  19.892 -10.629  0.50 57.12 LIG-0.29  OA
ENDBRANCH 14 22
ENDBRANCH 11 14
ENDBRANCH 5 10
ENDBRANCH 3 5
BRANCH 1 24
ATOM     24  CA  LEU P   2     -18.761  23.572 -14.103  0.50 57.16 LIG 0.18  C 
BRANCH 24 25
ATOM     25  N   LEU P   2     -20.056  24.119 -14.421  0.50 57.19 LIG-0.35  N 
ATOM     26  C   VAL P   1     -21.022  23.291 -14.782  0.50 57.27 LIG 0.25  C 
ATOM     27 O    VAL P   1     -20.948  22.068 -14.621  0.50 57.24 LIG-0.27  OA
ATOM     28 H    LEU P   2     -20.128  24.973 -14.356  0.50 57.19 LIG 0.16  HD
BRANCH 26 29
ATOM     29  CA  VAL P   1     -22.254  23.950 -15.366  0.50 57.27 LIG 0.28  C 
BRANCH 29 30
ATOM     30  CB  VAL P   1     -23.107  24.571 -14.246  0.50 57.30 LIG 0.02  C 
ATOM     31  CG2 VAL P   1     -22.973  26.086 -14.242  0.50 57.34 LIG 0.01  C 
ATOM     32  CG1 VAL P   1     -22.731  23.981 -12.892  0.50 57.33 LIG 0.01  C 
ENDBRANCH 29 30
BRANCH 29 33
ATOM     33  N   VAL P   1     -23.017  22.896 -16.093  0.50 57.23 LIG-0.07  N 
ATOM     34 H3   VAL P   1     -23.754  22.695 -15.638  0.50 57.23 LIG 0.28  HD
ATOM     35 H2   VAL P   1     -22.512  22.168 -16.175  0.50 57.23 LIG 0.28  HD
ATOM     36 H1   VAL P   1     -23.240  23.195 -16.902  0.50 57.23 LIG 0.28  HD
ENDBRANCH 29 33
ENDBRANCH 26 29
ENDBRANCH 24 25
BRANCH 24 37
ATOM     37  CB  LEU P   2     -17.712  24.688 -14.040  0.50 57.14 LIG 0.04  C 
BRANCH 37 38
ATOM     38  CG  LEU P   2     -16.341  24.614 -13.403  0.50 56.96 LIG-0.02  C 
ATOM     39  CD1 LEU P   2     -15.313  24.982 -14.468  0.50 57.03 LIG 0.01  C 
ATOM     40  CD2 LEU P   2     -16.280  25.547 -12.223  0.50 56.70 LIG 0.01  C 
ENDBRANCH 37 38
ENDBRANCH 24 37
ENDBRANCH 1 24
TORSDOF 15
ENDMDL
MODEL 43
USER: ADFR SOLUTION from run 74
USER: SCORE 13.510669 LL:  -4.102 LR: -11.090 RR:   0.000 FEB:  -6.616
USER: RMSD 6.185482
USER: SEED 73
USER: STATUS no improvement in best 12 clusters for 5 generations
USER: GENES 17
USER: genes 0 Translation |==|  0.59319 0.56447 0.49141
USER: genes 1 Rotation |==|  0.20695 0.40227 0.66442 0.85712
USER: genes 2 Torsion [C]-N--CA-[CB] |==|  0.42191
USER: genes 3 Torsion [N]-CA--CB-[CG] |==|  0.76763
USER: genes 4 Torsion [CA]-CB--CG-[CD1] |==|  0.57205
USER: genes 5 Torsion [N]-CA--C-[N] |==|  0.93142
USER: genes 6 Torsion [C]-N--CA-[CB] |==|  0.45956
USER: genes 7 Torsion [N]-CA--CB-[CG] |==|  0.22905
USER: genes 8 Torsion [CA]-CB--CG-[ND1] |==|  0.91009
USER: genes 9 Torsion [N]-CA--C-[O] |==|  0.22449
USER: genes 10 Torsion [N]-C--CA-[N] |==|  0.86834
USER: genes 11 Torsion [C]-CA--N-[C] |==|  0.65828
USER: genes 12 Torsion [N]-C--CA-[N] |==|  0.63363
USER: genes 13 Torsion [C]-CA--CB-[CG2] |==|  0.76545
USER: genes 14 Torsion [C]-CA--N-[H3] |==|  0.84464
USER: genes 15 Torsion [C]-CA--CB-[CG] |==|  0.09971
USER: genes 16 Torsion [CA]-CB--CG-[CD1] |==|  0.17877
ROOT
ATOM      1  C   LEU P   2     -17.234  24.254 -15.018  0.50 57.15 LIG 0.24  C 
ATOM      2 O    LEU P   2     -16.292  23.512 -15.318  0.50 57.16 LIG-0.27  OA
ATOM      3  N   LEU P   3     -17.458  24.863 -13.867  0.50 57.16 LIG-0.35  N 
ATOM      4 H    LEU P   3     -18.244  25.161 -13.680  0.50 57.16 LIG 0.16  HD
ENDROOT
BRANCH 3 5
ATOM      5  CA  LEU P   3     -16.548  25.130 -12.802  0.50 57.19 LIG 0.18  C 
BRANCH 5 6
ATOM      6  CB  LEU P   3     -16.885  26.354 -11.975  0.50 57.26 LIG 0.04  C 
BRANCH 6 7
ATOM      7  CG  LEU P   3     -16.276  27.500 -12.793  0.50 57.44 LIG-0.02  C 
ATOM      8  CD1 LEU P   3     -15.925  28.694 -11.923  0.50 57.60 LIG 0.01  C 
ATOM      9  CD2 LEU P   3     -15.091  27.038 -13.635  0.50 57.51 LIG 0.01  C 
ENDBRANCH 6 7
ENDBRANCH 5 6
BRANCH 5 10
ATOM     10  C   LEU P   3     -16.733  23.832 -12.029  0.50 57.14 LIG 0.24  C 
ATOM     11  N   HIS P   4     -17.901  23.218 -12.223  0.50 57.08 LIG-0.35  N 
ATOM     12 H    HIS P   4     -18.508  23.519 -12.752  0.50 57.08 LIG 0.16  HD
ATOM     13 O    LEU P   3     -15.882  23.435 -11.237  0.50 57.14 LIG-0.27  OA
BRANCH 11 14
ATOM     14  CA  HIS P   4     -18.272  21.970 -11.558  0.50 57.02 LIG 0.17  C 
BRANCH 14 15
ATOM     15  CB  HIS P   4     -19.786  21.718 -11.703  0.50 56.94 LIG 0.09  C 
BRANCH 15 16
ATOM     16  CG  HIS P   4     -20.193  21.090 -13.005  0.50 56.80 LIG 0.05  A 
ATOM     17 ND1  HIS P   4     -19.534  21.323 -14.193  0.50 56.77 LIG-0.25  NA
ATOM     18  CE1 HIS P   4     -20.122  20.646 -15.163  0.50 56.50 LIG 0.21  A 
ATOM     19  NE2 HIS P   4     -21.143  19.985 -14.650  0.50 56.43 LIG-0.36  N 
ATOM     20 HE2  HIS P   4     -21.678  19.473 -15.088  0.50 56.43 LIG 0.17  HD
ATOM     21  CD2 HIS P   4     -21.212  20.249 -13.303  0.50 56.57 LIG 0.12  A 
ENDBRANCH 15 16
ENDBRANCH 14 15
BRANCH 14 22
ATOM     22  C   HIS P   4     -17.464  20.811 -12.136  0.50 57.04 LIG 0.22  C 
ATOM     23 O    HIS P   4     -16.310  20.599 -11.764  0.50 57.12 LIG-0.29  OA
ENDBRANCH 14 22
ENDBRANCH 11 14
ENDBRANCH 5 10
ENDBRANCH 3 5
BRANCH 1 24
ATOM     24  CA  LEU P   2     -18.367  24.634 -15.908  0.50 57.16 LIG 0.18  C 
BRANCH 24 25
ATOM     25  N   LEU P   2     -19.741  24.575 -15.479  0.50 57.19 LIG-0.35  N 
ATOM     26  C   VAL P   1     -20.590  23.837 -16.175  0.50 57.27 LIG 0.25  C 
ATOM     27 O    VAL P   1     -20.223  23.007 -17.013  0.50 57.24 LIG-0.27  OA
ATOM     28 H    LEU P   2     -19.935  25.033 -14.778  0.50 57.19 LIG 0.16  HD
BRANCH 26 29
ATOM     29  CA  VAL P   1     -22.053  24.044 -15.840  0.50 57.27 LIG 0.28  C 
BRANCH 29 30
ATOM     30  CB  VAL P   1     -22.190  24.883 -14.557  0.50 57.30 LIG 0.02  C 
ATOM     31  CG2 VAL P   1     -22.091  24.001 -13.322  0.50 57.34 LIG 0.01  C 
ATOM     32  CG1 VAL P   1     -23.493  25.673 -14.566  0.50 57.33 LIG 0.01  C 
ENDBRANCH 29 30
BRANCH 29 33
ATOM     33  N   VAL P   1     -22.660  22.695 -15.661  0.50 57.23 LIG-0.07  N 
ATOM     34 H3   VAL P   1     -22.524  22.208 -16.393  0.50 57.23 LIG 0.28  HD
ATOM     35 H2   VAL P   1     -23.535  22.780 -15.521  0.50 57.23 LIG 0.28  HD
ATOM     36 H1   VAL P   1     -22.285  22.291 -14.962  0.50 57.23 LIG 0.28  HD
ENDBRANCH 29 33
ENDBRANCH 26 29
ENDBRANCH 24 25
BRANCH 24 37
ATOM     37  CB  LEU P   2     -17.985  26.073 -16.276  0.50 57.14 LIG 0.04  C 
BRANCH 37 38
ATOM     38  CG  LEU P   2     -16.591  26.615 -16.505  0.50 56.96 LIG-0.02  C 
ATOM     39  CD1 LEU P   2     -16.014  25.912 -17.730  0.50 57.03 LIG 0.01  C 
ATOM     40  CD2 LEU P   2     -16.653  28.107 -16.695  0.50 56.70 LIG 0.01  C 
ENDBRANCH 37 38
ENDBRANCH 24 37
ENDBRANCH 1 24
TORSDOF 15
ENDMDL
MODEL 44
USER: ADFR SOLUTION from run 56
USER: SCORE 12.537952 LL:  -2.610 LR: -11.055 RR:   0.000 FEB:  -6.581
USER: RMSD 7.275025
USER: SEED 55
USER: STATUS no improvement in best 7 clusters for 5 generations
USER: GENES 17
USER: genes 0 Translation |==|  0.53504 0.51227 0.57250
USER: genes 1 Rotation |==|  0.32912 0.04110 0.40039 0.51699
USER: genes 2 Torsion [C]-N--CA-[CB] |==|  0.92778
USER: genes 3 Torsion [N]-CA--CB-[CG] |==|  0.72877
USER: genes 4 Torsion [CA]-CB--CG-[CD1] |==|  0.22029
USER: genes 5 Torsion [N]-CA--C-[N] |==|  0.34465
USER: genes 6 Torsion [C]-N--CA-[CB] |==|  0.46825
USER: genes 7 Torsion [N]-CA--CB-[CG] |==|  0.53507
USER: genes 8 Torsion [CA]-CB--CG-[ND1] |==|  0.03022
USER: genes 9 Torsion [N]-CA--C-[O] |==|  0.21319
USER: genes 10 Torsion [N]-C--CA-[N] |==|  0.08511
USER: genes 11 Torsion [C]-CA--N-[C] |==|  0.63911
USER: genes 12 Torsion [N]-C--CA-[N] |==|  0.91573
USER: genes 13 Torsion [C]-CA--CB-[CG2] |==|  0.87742
USER: genes 14 Torsion [C]-CA--N-[H3] |==|  0.31709
USER: genes 15 Torsion [C]-CA--CB-[CG] |==|  0.37184
USER: genes 16 Torsion [CA]-CB--CG-[CD1] |==|  0.43023
ROOT
ATOM      1  C   LEU P   2     -18.979  22.688 -12.585  0.50 57.15 LIG 0.24  C 
ATOM      2 O    LEU P   2     -19.212  22.317 -11.429  0.50 57.16 LIG-0.27  OA
ATOM      3  N   LEU P   3     -19.667  22.422 -13.682  0.50 57.16 LIG-0.35  N 
ATOM      4 H    LEU P   3     -19.304  22.525 -14.455  0.50 57.16 LIG 0.16  HD
ENDROOT
BRANCH 3 5
ATOM      5  CA  LEU P   3     -21.009  21.960 -13.807  0.50 57.19 LIG 0.18  C 
BRANCH 5 6
ATOM      6  CB  LEU P   3     -21.522  21.179 -12.614  0.50 57.26 LIG 0.04  C 
BRANCH 6 7
ATOM      7  CG  LEU P   3     -21.324  19.721 -13.046  0.50 57.44 LIG-0.02  C 
ATOM      8  CD1 LEU P   3     -19.883  19.272 -12.883  0.50 57.60 LIG 0.01  C 
ATOM      9  CD2 LEU P   3     -22.300  18.777 -12.350  0.50 57.51 LIG 0.01  C 
ENDBRANCH 6 7
ENDBRANCH 5 6
BRANCH 5 10
ATOM     10  C   LEU P   3     -21.691  23.313 -13.958  0.50 57.14 LIG 0.24  C 
ATOM     11  N   HIS P   4     -22.433  23.455 -15.056  0.50 57.08 LIG-0.35  N 
ATOM     12 H    HIS P   4     -22.534  22.830 -15.638  0.50 57.08 LIG 0.16  HD
ATOM     13 O    LEU P   3     -21.499  24.218 -13.149  0.50 57.14 LIG-0.27  OA
BRANCH 11 14
ATOM     14  CA  HIS P   4     -23.151  24.685 -15.388  0.50 57.02 LIG 0.17  C 
BRANCH 14 15
ATOM     15  CB  HIS P   4     -23.670  24.625 -16.838  0.50 56.94 LIG 0.09  C 
BRANCH 15 16
ATOM     16  CG  HIS P   4     -24.157  25.937 -17.382  0.50 56.80 LIG 0.05  A 
ATOM     17 ND1  HIS P   4     -23.950  27.141 -16.744  0.50 56.77 LIG-0.25  NA
ATOM     18  CE1 HIS P   4     -24.499  28.114 -17.450  0.50 56.50 LIG 0.21  A 
ATOM     19  NE2 HIS P   4     -25.060  27.585 -18.521  0.50 56.43 LIG-0.36  N 
ATOM     20 HE2  HIS P   4     -25.480  28.022 -19.132  0.50 56.43 LIG 0.17  HD
ATOM     21  CD2 HIS P   4     -24.866  26.225 -18.501  0.50 56.57 LIG 0.12  A 
ENDBRANCH 15 16
ENDBRANCH 14 15
BRANCH 14 22
ATOM     22  C   HIS P   4     -24.295  24.901 -14.402  0.50 57.04 LIG 0.22  C 
ATOM     23 O    HIS P   4     -24.079  25.320 -13.265  0.50 57.12 LIG-0.29  OA
ENDBRANCH 14 22
ENDBRANCH 11 14
ENDBRANCH 5 10
ENDBRANCH 3 5
BRANCH 1 24
ATOM     24  CA  LEU P   2     -17.833  23.536 -13.017  0.50 57.16 LIG 0.18  C 
BRANCH 24 25
ATOM     25  N   LEU P   2     -17.917  24.436 -14.139  0.50 57.19 LIG-0.35  N 
ATOM     26  C   VAL P   1     -16.969  24.387 -15.062  0.50 57.27 LIG 0.25  C 
ATOM     27 O    VAL P   1     -16.164  23.455 -15.143  0.50 57.24 LIG-0.27  OA
ATOM     28 H    LEU P   2     -18.594  24.965 -14.146  0.50 57.19 LIG 0.16  HD
BRANCH 26 29
ATOM     29  CA  VAL P   1     -16.969  25.536 -16.049  0.50 57.27 LIG 0.28  C 
BRANCH 29 30
ATOM     30  CB  VAL P   1     -16.075  26.679 -15.534  0.50 57.30 LIG 0.02  C 
ATOM     31  CG2 VAL P   1     -16.323  26.933 -14.054  0.50 57.34 LIG 0.01  C 
ATOM     32  CG1 VAL P   1     -16.292  27.945 -16.353  0.50 57.33 LIG 0.01  C 
ENDBRANCH 29 30
BRANCH 29 33
ATOM     33  N   VAL P   1     -18.380  25.990 -16.199  0.50 57.23 LIG-0.07  N 
ATOM     34 H3   VAL P   1     -18.462  26.816 -15.877  0.50 57.23 LIG 0.28  HD
ATOM     35 H2   VAL P   1     -18.918  25.442 -15.750  0.50 57.23 LIG 0.28  HD
ATOM     36 H1   VAL P   1     -18.603  25.985 -17.061  0.50 57.23 LIG 0.28  HD
ENDBRANCH 29 33
ENDBRANCH 26 29
ENDBRANCH 24 25
BRANCH 24 37
ATOM     37  CB  LEU P   2     -17.539  24.316 -11.730  0.50 57.14 LIG 0.04  C 
BRANCH 37 38
ATOM     38  CG  LEU P   2     -16.185  24.558 -11.101  0.50 56.96 LIG-0.02  C 
ATOM     39  CD1 LEU P   2     -16.280  25.831 -10.265  0.50 57.03 LIG 0.01  C 
ATOM     40  CD2 LEU P   2     -15.795  23.368 -10.264  0.50 56.70 LIG 0.01  C 
ENDBRANCH 37 38
ENDBRANCH 24 37
ENDBRANCH 1 24
TORSDOF 15
ENDMDL
MODEL 45
USER: ADFR SOLUTION from run 92
USER: SCORE 12.769944 LL:  -2.092 LR: -11.060 RR:   0.000 FEB:  -6.586
USER: RMSD 8.537854
USER: SEED 91
USER: STATUS no improvement in best 9 clusters for 5 generations
USER: GENES 17
USER: genes 0 Translation |==|  0.60228 0.38079 0.58418
USER: genes 1 Rotation |==|  0.07453 0.24755 0.43983 0.54030
USER: genes 2 Torsion [C]-N--CA-[CB] |==|  0.85000
USER: genes 3 Torsion [N]-CA--CB-[CG] |==|  0.66001
USER: genes 4 Torsion [CA]-CB--CG-[CD1] |==|  0.90403
USER: genes 5 Torsion [N]-CA--C-[N] |==|  0.42395
USER: genes 6 Torsion [C]-N--CA-[CB] |==|  0.52140
USER: genes 7 Torsion [N]-CA--CB-[CG] |==|  0.62824
USER: genes 8 Torsion [CA]-CB--CG-[ND1] |==|  0.60922
USER: genes 9 Torsion [N]-CA--C-[O] |==|  0.21455
USER: genes 10 Torsion [N]-C--CA-[N] |==|  0.36375
USER: genes 11 Torsion [C]-CA--N-[C] |==|  0.71068
USER: genes 12 Torsion [N]-C--CA-[N] |==|  0.12869
USER: genes 13 Torsion [C]-CA--CB-[CG2] |==|  0.83914
USER: genes 14 Torsion [C]-CA--N-[H3] |==|  0.41616
USER: genes 15 Torsion [C]-CA--CB-[CG] |==|  0.78692
USER: genes 16 Torsion [CA]-CB--CG-[CD1] |==|  0.45531
ROOT
ATOM      1  C   LEU P   2     -16.962  18.744 -12.235  0.50 57.15 LIG 0.24  C 
ATOM      2 O    LEU P   2     -17.037  18.582 -11.011  0.50 57.16 LIG-0.27  OA
ATOM      3  N   LEU P   3     -17.667  19.563 -12.995  0.50 57.16 LIG-0.35  N 
ATOM      4 H    LEU P   3     -17.708  19.436 -13.845  0.50 57.16 LIG 0.16  HD
ENDROOT
BRANCH 3 5
ATOM      5  CA  LEU P   3     -18.430  20.705 -12.613  0.50 57.19 LIG 0.18  C 
BRANCH 5 6
ATOM      6  CB  LEU P   3     -19.459  20.445 -11.533  0.50 57.26 LIG 0.04  C 
BRANCH 6 7
ATOM      7  CG  LEU P   3     -20.772  20.878 -12.198  0.50 57.44 LIG-0.02  C 
ATOM      8  CD1 LEU P   3     -20.574  22.059 -13.130  0.50 57.60 LIG 0.01  C 
ATOM      9  CD2 LEU P   3     -21.477  19.715 -12.889  0.50 57.51 LIG 0.01  C 
ENDBRANCH 6 7
ENDBRANCH 5 6
BRANCH 5 10
ATOM     10  C   LEU P   3     -17.281  21.580 -12.130  0.50 57.14 LIG 0.24  C 
ATOM     11  N   HIS P   4     -17.491  22.893 -12.220  0.50 57.08 LIG-0.35  N 
ATOM     12 H    HIS P   4     -18.223  23.232 -12.518  0.50 57.08 LIG 0.16  HD
ATOM     13 O    LEU P   3     -16.220  21.087 -11.753  0.50 57.14 LIG-0.27  OA
BRANCH 11 14
ATOM     14  CA  HIS P   4     -16.502  23.894 -11.823  0.50 57.02 LIG 0.17  C 
BRANCH 14 15
ATOM     15  CB  HIS P   4     -17.122  25.304 -11.870  0.50 56.94 LIG 0.09  C 
BRANCH 15 16
ATOM     16  CG  HIS P   4     -16.268  26.340 -12.544  0.50 56.80 LIG 0.05  A 
ATOM     17 ND1  HIS P   4     -16.154  27.636 -12.087  0.50 56.77 LIG-0.25  NA
ATOM     18  CE1 HIS P   4     -15.348  28.314 -12.884  0.50 56.50 LIG 0.21  A 
ATOM     19  NE2 HIS P   4     -14.938  27.508 -13.846  0.50 56.43 LIG-0.36  N 
ATOM     20 HE2  HIS P   4     -14.405  27.724 -14.485  0.50 56.43 LIG 0.17  HD
ATOM     21  CD2 HIS P   4     -15.502  26.270 -13.659  0.50 56.57 LIG 0.12  A 
ENDBRANCH 15 16
ENDBRANCH 14 15
BRANCH 14 22
ATOM     22  C   HIS P   4     -15.968  23.574 -10.429  0.50 57.04 LIG 0.22  C 
ATOM     23 O    HIS P   4     -15.138  22.681 -10.260  0.50 57.12 LIG-0.29  OA
ENDBRANCH 14 22
ENDBRANCH 11 14
ENDBRANCH 5 10
ENDBRANCH 3 5
BRANCH 1 24
ATOM     24  CA  LEU P   2     -16.038  18.025 -13.156  0.50 57.16 LIG 0.18  C 
BRANCH 24 25
ATOM     25  N   LEU P   2     -14.626  17.904 -12.896  0.50 57.19 LIG-0.35  N 
ATOM     26  C   VAL P   1     -13.788  18.663 -13.584  0.50 57.27 LIG 0.25  C 
ATOM     27 O    VAL P   1     -14.160  19.636 -14.249  0.50 57.24 LIG-0.27  OA
ATOM     28 H    LEU P   2     -14.403  17.333 -12.294  0.50 57.19 LIG 0.16  HD
BRANCH 26 29
ATOM     29  CA  VAL P   1     -12.326  18.287 -13.463  0.50 57.27 LIG 0.28  C 
BRANCH 29 30
ATOM     30  CB  VAL P   1     -11.498  19.017 -14.536  0.50 57.30 LIG 0.02  C 
ATOM     31  CG2 VAL P   1     -12.010  18.686 -15.930  0.50 57.34 LIG 0.01  C 
ATOM     32  CG1 VAL P   1     -10.019  18.680 -14.398  0.50 57.33 LIG 0.01  C 
ENDBRANCH 29 30
BRANCH 29 33
ATOM     33  N   VAL P   1     -12.235  16.809 -13.635  0.50 57.23 LIG-0.07  N 
ATOM     34 H3   VAL P   1     -11.450  16.600 -13.999  0.50 57.23 LIG 0.28  HD
ATOM     35 H2   VAL P   1     -12.891  16.531 -14.167  0.50 57.23 LIG 0.28  HD
ATOM     36 H1   VAL P   1     -12.308  16.413 -12.841  0.50 57.23 LIG 0.28  HD
ENDBRANCH 29 33
ENDBRANCH 26 29
ENDBRANCH 24 25
BRANCH 24 37
ATOM     37  CB  LEU P   2     -16.690  16.639 -13.208  0.50 57.14 LIG 0.04  C 
BRANCH 37 38
ATOM     38  CG  LEU P   2     -16.625  15.562 -12.147  0.50 56.96 LIG-0.02  C 
ATOM     39  CD1 LEU P   2     -17.726  14.547 -12.446  0.50 57.03 LIG 0.01  C 
ATOM     40  CD2 LEU P   2     -15.261  14.924 -12.156  0.50 56.70 LIG 0.01  C 
ENDBRANCH 37 38
ENDBRANCH 24 37
ENDBRANCH 1 24
TORSDOF 15
ENDMDL
MODEL 46
USER: ADFR SOLUTION from run 86
USER: SCORE 13.110071 LL:  -3.132 LR: -11.053 RR:   0.000 FEB:  -6.579
USER: RMSD 5.231707
USER: SEED 85
USER: STATUS no improvement in best 9 clusters for 5 generations
USER: GENES 17
USER: genes 0 Translation |==|  0.52406 0.54207 0.57194
USER: genes 1 Rotation |==|  0.06674 0.71723 0.60746 0.55958
USER: genes 2 Torsion [C]-N--CA-[CB] |==|  0.75374
USER: genes 3 Torsion [N]-CA--CB-[CG] |==|  0.69425
USER: genes 4 Torsion [CA]-CB--CG-[CD1] |==|  0.46699
USER: genes 5 Torsion [N]-CA--C-[N] |==|  0.17283
USER: genes 6 Torsion [C]-N--CA-[CB] |==|  0.78579
USER: genes 7 Torsion [N]-CA--CB-[CG] |==|  0.92997
USER: genes 8 Torsion [CA]-CB--CG-[ND1] |==|  0.25011
USER: genes 9 Torsion [N]-CA--C-[O] |==|  0.75084
USER: genes 10 Torsion [N]-C--CA-[N] |==|  0.94858
USER: genes 11 Torsion [C]-CA--N-[C] |==|  0.57222
USER: genes 12 Torsion [N]-C--CA-[N] |==|  0.45522
USER: genes 13 Torsion [C]-CA--CB-[CG2] |==|  0.87969
USER: genes 14 Torsion [C]-CA--N-[H3] |==|  0.93541
USER: genes 15 Torsion [C]-CA--CB-[CG] |==|  0.27712
USER: genes 16 Torsion [CA]-CB--CG-[CD1] |==|  0.57943
ROOT
ATOM      1  C   LEU P   2     -19.308  23.582 -12.602  0.50 57.15 LIG 0.24  C 
ATOM      2 O    LEU P   2     -18.877  22.980 -11.612  0.50 57.16 LIG-0.27  OA
ATOM      3  N   LEU P   3     -18.657  24.409 -13.401  0.50 57.16 LIG-0.35  N 
ATOM      4 H    LEU P   3     -19.092  24.950 -13.910  0.50 57.16 LIG 0.16  HD
ENDROOT
BRANCH 3 5
ATOM      5  CA  LEU P   3     -17.251  24.567 -13.574  0.50 57.19 LIG 0.18  C 
BRANCH 5 6
ATOM      6  CB  LEU P   3     -16.607  25.564 -12.633  0.50 57.26 LIG 0.04  C 
BRANCH 6 7
ATOM      7  CG  LEU P   3     -16.234  26.724 -13.563  0.50 57.44 LIG-0.02  C 
ATOM      8  CD1 LEU P   3     -15.830  27.966 -12.789  0.50 57.60 LIG 0.01  C 
ATOM      9  CD2 LEU P   3     -15.179  26.322 -14.589  0.50 57.51 LIG 0.01  C 
ENDBRANCH 6 7
ENDBRANCH 5 6
BRANCH 5 10
ATOM     10  C   LEU P   3     -16.836  23.132 -13.282  0.50 57.14 LIG 0.24  C 
ATOM     11  N   HIS P   4     -17.319  22.218 -14.124  0.50 57.08 LIG-0.35  N 
ATOM     12 H    HIS P   4     -17.822  22.416 -14.792  0.50 57.08 LIG 0.16  HD
ATOM     13 O    LEU P   3     -16.159  22.852 -12.295  0.50 57.14 LIG-0.27  OA
BRANCH 11 14
ATOM     14  CA  HIS P   4     -17.048  20.787 -13.999  0.50 57.02 LIG 0.17  C 
BRANCH 14 15
ATOM     15  CB  HIS P   4     -15.628  20.467 -14.506  0.50 56.94 LIG 0.09  C 
BRANCH 15 16
ATOM     16  CG  HIS P   4     -15.088  21.447 -15.509  0.50 56.80 LIG 0.05  A 
ATOM     17 ND1  HIS P   4     -14.368  22.568 -15.155  0.50 56.77 LIG-0.25  NA
ATOM     18  CE1 HIS P   4     -14.037  23.240 -16.243  0.50 56.50 LIG 0.21  A 
ATOM     19  NE2 HIS P   4     -14.520  22.600 -17.291  0.50 56.43 LIG-0.36  N 
ATOM     20 HE2  HIS P   4     -14.433  22.845 -18.111  0.50 56.43 LIG 0.17  HD
ATOM     21  CD2 HIS P   4     -15.185  21.478 -16.860  0.50 56.57 LIG 0.12  A 
ENDBRANCH 15 16
ENDBRANCH 14 15
BRANCH 14 22
ATOM     22  C   HIS P   4     -17.226  20.347 -12.549  0.50 57.04 LIG 0.22  C 
ATOM     23 O    HIS P   4     -16.284  20.380 -11.758  0.50 57.12 LIG-0.29  OA
ENDBRANCH 14 22
ENDBRANCH 11 14
ENDBRANCH 5 10
ENDBRANCH 3 5
BRANCH 1 24
ATOM     24  CA  LEU P   2     -20.700  23.516 -13.128  0.50 57.16 LIG 0.18  C 
BRANCH 24 25
ATOM     25  N   LEU P   2     -21.239  24.514 -14.016  0.50 57.19 LIG-0.35  N 
ATOM     26  C   VAL P   1     -22.548  24.706 -14.034  0.50 57.27 LIG 0.25  C 
ATOM     27 O    VAL P   1     -23.300  24.260 -13.161  0.50 57.24 LIG-0.27  OA
ATOM     28 H    LEU P   2     -20.665  24.939 -14.496  0.50 57.19 LIG 0.16  HD
BRANCH 26 29
ATOM     29  CA  VAL P   1     -23.062  25.556 -15.177  0.50 57.27 LIG 0.28  C 
BRANCH 29 30
ATOM     30  CB  VAL P   1     -22.742  27.040 -14.922  0.50 57.30 LIG 0.02  C 
ATOM     31  CG2 VAL P   1     -23.030  27.413 -13.475  0.50 57.34 LIG 0.01  C 
ATOM     32  CG1 VAL P   1     -23.516  27.932 -15.884  0.50 57.33 LIG 0.01  C 
ENDBRANCH 29 30
BRANCH 29 33
ATOM     33  N   VAL P   1     -24.533  25.336 -15.264  0.50 57.23 LIG-0.07  N 
ATOM     34 H3   VAL P   1     -24.739  24.553 -14.896  0.50 57.23 LIG 0.28  HD
ATOM     35 H2   VAL P   1     -24.784  25.337 -16.118  0.50 57.23 LIG 0.28  HD
ATOM     36 H1   VAL P   1     -24.957  25.988 -14.830  0.50 57.23 LIG 0.28  HD
ENDBRANCH 29 33
ENDBRANCH 26 29
ENDBRANCH 24 25
BRANCH 24 37
ATOM     37  CB  LEU P   2     -20.694  22.143 -13.811  0.50 57.14 LIG 0.04  C 
BRANCH 37 38
ATOM     38  CG  LEU P   2     -21.246  20.848 -13.256  0.50 56.96 LIG-0.02  C 
ATOM     39  CD1 LEU P   2     -20.441  19.702 -13.862  0.50 57.03 LIG 0.01  C 
ATOM     40  CD2 LEU P   2     -21.154  20.861 -11.753  0.50 56.70 LIG 0.01  C 
ENDBRANCH 37 38
ENDBRANCH 24 37
ENDBRANCH 1 24
TORSDOF 15
ENDMDL
MODEL 47
USER: ADFR SOLUTION from run 25
USER: SCORE 12.842833 LL:  -2.923 LR: -11.054 RR:   0.000 FEB:  -6.580
USER: RMSD 4.266974
USER: SEED 24
USER: STATUS no improvement in best 16 clusters for 5 generations
USER: GENES 17
USER: genes 0 Translation |==|  0.43889 0.55007 0.54842
USER: genes 1 Rotation |==|  0.20535 0.82701 0.47447 0.73578
USER: genes 2 Torsion [C]-N--CA-[CB] |==|  0.21498
USER: genes 3 Torsion [N]-CA--CB-[CG] |==|  0.63669
USER: genes 4 Torsion [CA]-CB--CG-[CD1] |==|  0.74141
USER: genes 5 Torsion [N]-CA--C-[N] |==|  0.39353
USER: genes 6 Torsion [C]-N--CA-[CB] |==|  0.23950
USER: genes 7 Torsion [N]-CA--CB-[CG] |==|  0.70123
USER: genes 8 Torsion [CA]-CB--CG-[ND1] |==|  0.02572
USER: genes 9 Torsion [N]-CA--C-[O] |==|  0.08219
USER: genes 10 Torsion [N]-C--CA-[N] |==|  0.37245
USER: genes 11 Torsion [C]-CA--N-[C] |==|  0.70001
USER: genes 12 Torsion [N]-C--CA-[N] |==|  0.16411
USER: genes 13 Torsion [C]-CA--CB-[CG2] |==|  0.80491
USER: genes 14 Torsion [C]-CA--N-[H3] |==|  0.23782
USER: genes 15 Torsion [C]-CA--CB-[CG] |==|  0.51280
USER: genes 16 Torsion [CA]-CB--CG-[CD1] |==|  0.56996
ROOT
ATOM      1  C   LEU P   2     -21.863  23.822 -13.307  0.50 57.15 LIG 0.24  C 
ATOM      2 O    LEU P   2     -22.660  23.074 -12.730  0.50 57.16 LIG-0.27  OA
ATOM      3  N   LEU P   3     -20.544  23.821 -13.235  0.50 57.16 LIG-0.35  N 
ATOM      4 H    LEU P   3     -20.096  24.513 -13.481  0.50 57.16 LIG 0.16  HD
ENDROOT
BRANCH 3 5
ATOM      5  CA  LEU P   3     -19.672  22.787 -12.784  0.50 57.19 LIG 0.18  C 
BRANCH 5 6
ATOM      6  CB  LEU P   3     -19.456  21.664 -13.778  0.50 57.26 LIG 0.04  C 
BRANCH 6 7
ATOM      7  CG  LEU P   3     -19.699  20.406 -12.935  0.50 57.44 LIG-0.02  C 
ATOM      8  CD1 LEU P   3     -18.411  19.861 -12.346  0.50 57.60 LIG 0.01  C 
ATOM      9  CD2 LEU P   3     -20.768  20.626 -11.869  0.50 57.51 LIG 0.01  C 
ENDBRANCH 6 7
ENDBRANCH 5 6
BRANCH 5 10
ATOM     10  C   LEU P   3     -18.424  23.633 -12.575  0.50 57.14 LIG 0.24  C 
ATOM     11  N   HIS P   4     -17.694  23.312 -11.506  0.50 57.08 LIG-0.35  N 
ATOM     12 H    HIS P   4     -17.899  22.669 -10.974  0.50 57.08 LIG 0.16  HD
ATOM     13 O    LEU P   3     -18.166  24.582 -13.311  0.50 57.14 LIG-0.27  OA
BRANCH 11 14
ATOM     14  CA  HIS P   4     -16.470  24.018 -11.127  0.50 57.02 LIG 0.17  C 
BRANCH 14 15
ATOM     15  CB  HIS P   4     -16.810  25.245 -10.260  0.50 56.94 LIG 0.09  C 
BRANCH 15 16
ATOM     16  CG  HIS P   4     -16.638  26.567 -10.953  0.50 56.80 LIG 0.05  A 
ATOM     17 ND1  HIS P   4     -16.391  26.683 -12.304  0.50 56.77 LIG-0.25  NA
ATOM     18  CE1 HIS P   4     -16.276  27.960 -12.623  0.50 56.50 LIG 0.21  A 
ATOM     19  NE2 HIS P   4     -16.433  28.678 -11.526  0.50 56.43 LIG-0.36  N 
ATOM     20 HE2  HIS P   4     -16.400  29.537 -11.483  0.50 56.43 LIG 0.17  HD
ATOM     21  CD2 HIS P   4     -16.656  27.832 -10.467  0.50 56.57 LIG 0.12  A 
ENDBRANCH 15 16
ENDBRANCH 14 15
BRANCH 14 22
ATOM     22  C   HIS P   4     -15.528  23.068 -10.393  0.50 57.04 LIG 0.22  C 
ATOM     23 O    HIS P   4     -15.531  21.861 -10.635  0.50 57.12 LIG-0.29  OA
ENDBRANCH 14 22
ENDBRANCH 11 14
ENDBRANCH 5 10
ENDBRANCH 3 5
BRANCH 1 24
ATOM     24  CA  LEU P   2     -22.220  24.931 -14.236  0.50 57.16 LIG 0.18  C 
BRANCH 24 25
ATOM     25  N   LEU P   2     -23.190  24.774 -15.290  0.50 57.19 LIG-0.35  N 
ATOM     26  C   VAL P   1     -22.763  24.727 -16.541  0.50 57.27 LIG 0.25  C 
ATOM     27 O    VAL P   1     -21.575  24.559 -16.835  0.50 57.24 LIG-0.27  OA
ATOM     28 H    LEU P   2     -24.011  24.719 -15.040  0.50 57.19 LIG 0.16  HD
BRANCH 26 29
ATOM     29  CA  VAL P   1     -23.841  24.846 -17.598  0.50 57.27 LIG 0.28  C 
BRANCH 29 30
ATOM     30  CB  VAL P   1     -23.218  24.779 -19.004  0.50 57.30 LIG 0.02  C 
ATOM     31  CG2 VAL P   1     -22.418  26.039 -19.300  0.50 57.34 LIG 0.01  C 
ATOM     32  CG1 VAL P   1     -24.292  24.548 -20.059  0.50 57.33 LIG 0.01  C 
ENDBRANCH 29 30
BRANCH 29 33
ATOM     33  N   VAL P   1     -24.530  26.149 -17.382  0.50 57.23 LIG-0.07  N 
ATOM     34 H3   VAL P   1     -24.085  26.794 -17.804  0.50 57.23 LIG 0.28  HD
ATOM     35 H2   VAL P   1     -24.559  26.330 -16.511  0.50 57.23 LIG 0.28  HD
ATOM     36 H1   VAL P   1     -25.359  26.103 -17.703  0.50 57.23 LIG 0.28  HD
ENDBRANCH 29 33
ENDBRANCH 26 29
ENDBRANCH 24 25
BRANCH 24 37
ATOM     37  CB  LEU P   2     -22.678  26.009 -13.247  0.50 57.14 LIG 0.04  C 
BRANCH 37 38
ATOM     38  CG  LEU P   2     -23.265  27.363 -13.584  0.50 56.96 LIG-0.02  C 
ATOM     39  CD1 LEU P   2     -22.985  28.297 -12.409  0.50 57.03 LIG 0.01  C 
ATOM     40  CD2 LEU P   2     -22.655  27.876 -14.861  0.50 56.70 LIG 0.01  C 
ENDBRANCH 37 38
ENDBRANCH 24 37
ENDBRANCH 1 24
TORSDOF 15
ENDMDL
MODEL 48
USER: ADFR SOLUTION from run 101
USER: SCORE 12.334307 LL:  -3.517 LR: -11.007 RR:   0.000 FEB:  -6.533
USER: RMSD 5.724778
USER: SEED 100
USER: STATUS no improvement in best 29 clusters for 5 generations
USER: GENES 17
USER: genes 0 Translation |==|  0.50385 0.52741 0.56389
USER: genes 1 Rotation |==|  0.05423 0.66554 0.52819 0.65195
USER: genes 2 Torsion [C]-N--CA-[CB] |==|  0.05466
USER: genes 3 Torsion [N]-CA--CB-[CG] |==|  0.56484
USER: genes 4 Torsion [CA]-CB--CG-[CD1] |==|  0.10403
USER: genes 5 Torsion [N]-CA--C-[N] |==|  0.51884
USER: genes 6 Torsion [C]-N--CA-[CB] |==|  0.84276
USER: genes 7 Torsion [N]-CA--CB-[CG] |==|  0.75278
USER: genes 8 Torsion [CA]-CB--CG-[ND1] |==|  0.23997
USER: genes 9 Torsion [N]-CA--C-[O] |==|  0.61928
USER: genes 10 Torsion [N]-C--CA-[N] |==|  0.90516
USER: genes 11 Torsion [C]-CA--N-[C] |==|  0.63212
USER: genes 12 Torsion [N]-C--CA-[N] |==|  0.49762
USER: genes 13 Torsion [C]-CA--CB-[CG2] |==|  0.84455
USER: genes 14 Torsion [C]-CA--N-[H3] |==|  0.74799
USER: genes 15 Torsion [C]-CA--CB-[CG] |==|  0.04447
USER: genes 16 Torsion [CA]-CB--CG-[CD1] |==|  0.36068
ROOT
ATOM      1  C   LEU P   2     -19.915  23.142 -12.843  0.50 57.15 LIG 0.24  C 
ATOM      2 O    LEU P   2     -19.893  22.339 -11.904  0.50 57.16 LIG-0.27  OA
ATOM      3  N   LEU P   3     -19.092  24.151 -13.073  0.50 57.16 LIG-0.35  N 
ATOM      4 H    LEU P   3     -19.323  24.783 -13.610  0.50 57.16 LIG 0.16  HD
ENDROOT
BRANCH 3 5
ATOM      5  CA  LEU P   3     -17.791  24.385 -12.541  0.50 57.19 LIG 0.18  C 
BRANCH 5 6
ATOM      6  CB  LEU P   3     -17.108  23.155 -11.979  0.50 57.26 LIG 0.04  C 
BRANCH 6 7
ATOM      7  CG  LEU P   3     -16.096  23.746 -10.990  0.50 57.44 LIG-0.02  C 
ATOM      8  CD1 LEU P   3     -16.654  24.955 -10.260  0.50 57.60 LIG 0.01  C 
ATOM      9  CD2 LEU P   3     -15.554  22.696 -10.025  0.50 57.51 LIG 0.01  C 
ENDBRANCH 6 7
ENDBRANCH 5 6
BRANCH 5 10
ATOM     10  C   LEU P   3     -17.126  24.895 -13.812  0.50 57.14 LIG 0.24  C 
ATOM     11  N   HIS P   4     -15.811  25.093 -13.725  0.50 57.08 LIG-0.35  N 
ATOM     12 H    HIS P   4     -15.360  24.937 -13.010  0.50 57.08 LIG 0.16  HD
ATOM     13 O    LEU P   3     -17.787  25.163 -14.813  0.50 57.14 LIG-0.27  OA
BRANCH 11 14
ATOM     14  CA  HIS P   4     -14.998  25.595 -14.832  0.50 57.02 LIG 0.17  C 
BRANCH 14 15
ATOM     15  CB  HIS P   4     -15.156  24.684 -16.065  0.50 56.94 LIG 0.09  C 
BRANCH 15 16
ATOM     16  CG  HIS P   4     -14.183  23.541 -16.125  0.50 56.80 LIG 0.05  A 
ATOM     17 ND1  HIS P   4     -14.407  22.328 -15.510  0.50 56.77 LIG-0.25  NA
ATOM     18  CE1 HIS P   4     -13.379  21.528 -15.727  0.50 56.50 LIG 0.21  A 
ATOM     19  NE2 HIS P   4     -12.492  22.179 -16.456  0.50 56.43 LIG-0.36  N 
ATOM     20 HE2  HIS P   4     -11.738  21.863 -16.726  0.50 56.43 LIG 0.17  HD
ATOM     21  CD2 HIS P   4     -12.968  23.441 -16.715  0.50 56.57 LIG 0.12  A 
ENDBRANCH 15 16
ENDBRANCH 14 15
BRANCH 14 22
ATOM     22  C   HIS P   4     -15.393  27.034 -15.156  0.50 57.04 LIG 0.22  C 
ATOM     23 O    HIS P   4     -15.516  27.408 -16.322  0.50 57.12 LIG-0.29  OA
ENDBRANCH 14 22
ENDBRANCH 11 14
ENDBRANCH 5 10
ENDBRANCH 3 5
BRANCH 1 24
ATOM     24  CA  LEU P   2     -20.905  23.160 -13.956  0.50 57.16 LIG 0.18  C 
BRANCH 24 25
ATOM     25  N   LEU P   2     -21.361  24.384 -14.565  0.50 57.19 LIG-0.35  N 
ATOM     26  C   VAL P   1     -22.661  24.554 -14.746  0.50 57.27 LIG 0.25  C 
ATOM     27 O    VAL P   1     -23.510  23.841 -14.201  0.50 57.24 LIG-0.27  OA
ATOM     28 H    LEU P   2     -20.749  24.947 -14.780  0.50 57.19 LIG 0.16  HD
BRANCH 26 29
ATOM     29  CA  VAL P   1     -23.043  25.720 -15.634  0.50 57.27 LIG 0.28  C 
BRANCH 29 30
ATOM     30  CB  VAL P   1     -22.521  27.038 -15.036  0.50 57.30 LIG 0.02  C 
ATOM     31  CG2 VAL P   1     -23.031  27.226 -13.615  0.50 57.34 LIG 0.01  C 
ATOM     32  CG1 VAL P   1     -22.902  28.220 -15.918  0.50 57.33 LIG 0.01  C 
ENDBRANCH 29 30
BRANCH 29 33
ATOM     33  N   VAL P   1     -24.530  25.732 -15.732  0.50 57.23 LIG-0.07  N 
ATOM     34 H3   VAL P   1     -24.786  25.244 -16.430  0.50 57.23 LIG 0.28  HD
ATOM     35 H2   VAL P   1     -24.814  26.569 -15.836  0.50 57.23 LIG 0.28  HD
ATOM     36 H1   VAL P   1     -24.879  25.391 -14.987  0.50 57.23 LIG 0.28  HD
ENDBRANCH 29 33
ENDBRANCH 26 29
ENDBRANCH 24 25
BRANCH 24 37
ATOM     37  CB  LEU P   2     -20.199  22.280 -14.995  0.50 57.14 LIG 0.04  C 
BRANCH 37 38
ATOM     38  CG  LEU P   2     -19.037  21.342 -14.754  0.50 56.96 LIG-0.02  C 
ATOM     39  CD1 LEU P   2     -19.396  19.990 -15.364  0.50 57.03 LIG 0.01  C 
ATOM     40  CD2 LEU P   2     -17.787  21.916 -15.368  0.50 56.70 LIG 0.01  C 
ENDBRANCH 37 38
ENDBRANCH 24 37
ENDBRANCH 1 24
TORSDOF 15
ENDMDL
MODEL 49
USER: ADFR SOLUTION from run 84
USER: SCORE 13.326684 LL:  -3.134 LR: -11.002 RR:   0.000 FEB:  -6.528
USER: RMSD 5.603155
USER: SEED 83
USER: STATUS no improvement in best 14 clusters for 5 generations
USER: GENES 17
USER: genes 0 Translation |==|  0.50836 0.53765 0.48729
USER: genes 1 Rotation |==|  0.49334 0.24218 0.83682 0.76465
USER: genes 2 Torsion [C]-N--CA-[CB] |==|  0.53889
USER: genes 3 Torsion [N]-CA--CB-[CG] |==|  0.02401
USER: genes 4 Torsion [CA]-CB--CG-[CD1] |==|  0.37697
USER: genes 5 Torsion [N]-CA--C-[N] |==|  0.31824
USER: genes 6 Torsion [C]-N--CA-[CB] |==|  0.53938
USER: genes 7 Torsion [N]-CA--CB-[CG] |==|  0.14235
USER: genes 8 Torsion [CA]-CB--CG-[ND1] |==|  0.99028
USER: genes 9 Torsion [N]-CA--C-[O] |==|  0.34638
USER: genes 10 Torsion [N]-C--CA-[N] |==|  0.92527
USER: genes 11 Torsion [C]-CA--N-[C] |==|  0.70533
USER: genes 12 Torsion [N]-C--CA-[N] |==|  0.41119
USER: genes 13 Torsion [C]-CA--CB-[CG2] |==|  0.32139
USER: genes 14 Torsion [C]-CA--N-[H3] |==|  0.11290
USER: genes 15 Torsion [C]-CA--CB-[CG] |==|  0.89624
USER: genes 16 Torsion [CA]-CB--CG-[CD1] |==|  0.48022
ROOT
ATOM      1  C   LEU P   2     -19.779  23.449 -15.141  0.50 57.15 LIG 0.24  C 
ATOM      2 O    LEU P   2     -19.163  24.412 -15.613  0.50 57.16 LIG-0.27  OA
ATOM      3  N   LEU P   3     -19.625  22.882 -13.958  0.50 57.16 LIG-0.35  N 
ATOM      4 H    LEU P   3     -19.928  22.089 -13.815  0.50 57.16 LIG 0.16  HD
ENDROOT
BRANCH 3 5
ATOM      5  CA  LEU P   3     -18.994  23.403 -12.790  0.50 57.19 LIG 0.18  C 
BRANCH 5 6
ATOM      6  CB  LEU P   3     -18.701  22.373 -11.718  0.50 57.26 LIG 0.04  C 
BRANCH 6 7
ATOM      7  CG  LEU P   3     -19.023  21.047 -12.418  0.50 57.44 LIG-0.02  C 
ATOM      8  CD1 LEU P   3     -17.964  19.993 -12.152  0.50 57.60 LIG 0.01  C 
ATOM      9  CD2 LEU P   3     -20.425  20.546 -12.085  0.50 57.51 LIG 0.01  C 
ENDBRANCH 6 7
ENDBRANCH 5 6
BRANCH 5 10
ATOM     10  C   LEU P   3     -17.730  23.938 -13.449  0.50 57.14 LIG 0.24  C 
ATOM     11  N   HIS P   4     -17.588  25.263 -13.412  0.50 57.08 LIG-0.35  N 
ATOM     12 H    HIS P   4     -18.158  25.785 -13.037  0.50 57.08 LIG 0.16  HD
ATOM     13 O    LEU P   3     -16.946  23.188 -14.028  0.50 57.14 LIG-0.27  OA
BRANCH 11 14
ATOM     14  CA  HIS P   4     -16.451  25.966 -14.005  0.50 57.02 LIG 0.17  C 
BRANCH 14 15
ATOM     15  CB  HIS P   4     -16.399  27.420 -13.495  0.50 56.94 LIG 0.09  C 
BRANCH 15 16
ATOM     16  CG  HIS P   4     -16.460  27.560 -12.000  0.50 56.80 LIG 0.05  A 
ATOM     17 ND1  HIS P   4     -16.626  26.488 -11.149  0.50 56.77 LIG-0.25  NA
ATOM     18  CE1 HIS P   4     -16.653  26.918  -9.900  0.50 56.50 LIG 0.21  A 
ATOM     19  NE2 HIS P   4     -16.517  28.231  -9.909  0.50 56.43 LIG-0.36  N 
ATOM     20 HE2  HIS P   4     -16.505  28.736  -9.213  0.50 56.43 LIG 0.17  HD
ATOM     21  CD2 HIS P   4     -16.400  28.658 -11.209  0.50 56.57 LIG 0.12  A 
ENDBRANCH 15 16
ENDBRANCH 14 15
BRANCH 14 22
ATOM     22  C   HIS P   4     -15.156  25.224 -13.687  0.50 57.04 LIG 0.22  C 
ATOM     23 O    HIS P   4     -14.397  24.863 -14.586  0.50 57.12 LIG-0.29  OA
ENDBRANCH 14 22
ENDBRANCH 11 14
ENDBRANCH 5 10
ENDBRANCH 3 5
BRANCH 1 24
ATOM     24  CA  LEU P   2     -20.860  22.685 -15.823  0.50 57.16 LIG 0.18  C 
BRANCH 24 25
ATOM     25  N   LEU P   2     -21.139  21.303 -15.521  0.50 57.19 LIG-0.35  N 
ATOM     26  C   VAL P   1     -20.776  20.379 -16.395  0.50 57.27 LIG 0.25  C 
ATOM     27 O    VAL P   1     -19.996  20.609 -17.326  0.50 57.24 LIG-0.27  OA
ATOM     28 H    LEU P   2     -21.534  21.155 -14.772  0.50 57.19 LIG 0.16  HD
BRANCH 26 29
ATOM     29  CA  VAL P   1     -21.345  18.997 -16.149  0.50 57.27 LIG 0.28  C 
BRANCH 29 30
ATOM     30  CB  VAL P   1     -20.387  18.177 -15.266  0.50 57.30 LIG 0.02  C 
ATOM     31  CG2 VAL P   1     -21.036  17.844 -13.931  0.50 57.34 LIG 0.01  C 
ATOM     32  CG1 VAL P   1     -19.070  18.916 -15.068  0.50 57.33 LIG 0.01  C 
ENDBRANCH 29 30
BRANCH 29 33
ATOM     33  N   VAL P   1     -21.527  18.350 -17.479  0.50 57.23 LIG-0.07  N 
ATOM     34 H3   VAL P   1     -20.831  18.540 -17.999  0.50 57.23 LIG 0.28  HD
ATOM     35 H2   VAL P   1     -22.272  18.655 -17.857  0.50 57.23 LIG 0.28  HD
ATOM     36 H1   VAL P   1     -21.587  17.468 -17.374  0.50 57.23 LIG 0.28  HD
ENDBRANCH 29 33
ENDBRANCH 26 29
ENDBRANCH 24 25
BRANCH 24 37
ATOM     37  CB  LEU P   2     -22.083  23.555 -15.509  0.50 57.14 LIG 0.04  C 
BRANCH 37 38
ATOM     38  CG  LEU P   2     -22.365  24.299 -14.222  0.50 56.96 LIG-0.02  C 
ATOM     39  CD1 LEU P   2     -23.602  25.163 -14.445  0.50 57.03 LIG 0.01  C 
ATOM     40  CD2 LEU P   2     -22.567  23.313 -13.102  0.50 56.70 LIG 0.01  C 
ENDBRANCH 37 38
ENDBRANCH 24 37
ENDBRANCH 1 24
TORSDOF 15
ENDMDL
MODEL 50
USER: ADFR SOLUTION from run 1
USER: SCORE 12.961370 LL:  -3.133 LR: -10.991 RR:   0.000 FEB:  -6.516
USER: RMSD 7.613682
USER: SEED 963143
USER: STATUS no improvement in best 21 clusters for 5 generations
USER: GENES 17
USER: genes 0 Translation |==|  0.59881 0.47359 0.59999
USER: genes 1 Rotation |==|  0.06702 0.42504 0.73751 0.52230
USER: genes 2 Torsion [C]-N--CA-[CB] |==|  0.94876
USER: genes 3 Torsion [N]-CA--CB-[CG] |==|  0.56072
USER: genes 4 Torsion [CA]-CB--CG-[CD1] |==|  0.37219
USER: genes 5 Torsion [N]-CA--C-[N] |==|  0.32332
USER: genes 6 Torsion [C]-N--CA-[CB] |==|  0.43160
USER: genes 7 Torsion [N]-CA--CB-[CG] |==|  0.90501
USER: genes 8 Torsion [CA]-CB--CG-[ND1] |==|  0.16140
USER: genes 9 Torsion [N]-CA--C-[O] |==|  0.07134
USER: genes 10 Torsion [N]-C--CA-[N] |==|  0.02662
USER: genes 11 Torsion [C]-CA--N-[C] |==|  0.77222
USER: genes 12 Torsion [N]-C--CA-[N] |==|  0.86392
USER: genes 13 Torsion [C]-CA--CB-[CG2] |==|  0.66402
USER: genes 14 Torsion [C]-CA--N-[H3] |==|  0.07440
USER: genes 15 Torsion [C]-CA--CB-[CG] |==|  0.29797
USER: genes 16 Torsion [CA]-CB--CG-[CD1] |==|  0.76995
ROOT
ATOM      1  C   LEU P   2     -17.066  21.528 -11.760  0.50 57.15 LIG 0.24  C 
ATOM      2 O    LEU P   2     -15.954  21.670 -11.238  0.50 57.16 LIG-0.27  OA
ATOM      3  N   LEU P   3     -17.923  22.466 -12.123  0.50 57.16 LIG-0.35  N 
ATOM      4 H    LEU P   3     -18.750  22.268 -12.257  0.50 57.16 LIG 0.16  HD
ENDROOT
BRANCH 3 5
ATOM      5  CA  LEU P   3     -17.690  23.855 -12.346  0.50 57.19 LIG 0.18  C 
BRANCH 5 6
ATOM      6  CB  LEU P   3     -16.413  24.387 -11.730  0.50 57.26 LIG 0.04  C 
BRANCH 6 7
ATOM      7  CG  LEU P   3     -16.686  25.893 -11.619  0.50 57.44 LIG-0.02  C 
ATOM      8  CD1 LEU P   3     -16.289  26.443 -10.261  0.50 57.60 LIG 0.01  C 
ATOM      9  CD2 LEU P   3     -16.050  26.678 -12.763  0.50 57.51 LIG 0.01  C 
ENDBRANCH 6 7
ENDBRANCH 5 6
BRANCH 5 10
ATOM     10  C   LEU P   3     -17.638  23.823 -13.867  0.50 57.14 LIG 0.24  C 
ATOM     11  N   HIS P   4     -18.599  24.513 -14.481  0.50 57.08 LIG-0.35  N 
ATOM     12 H    HIS P   4     -19.203  24.956 -14.059  0.50 57.08 LIG 0.16  HD
ATOM     13 O    LEU P   3     -16.803  23.147 -14.463  0.50 57.14 LIG-0.27  OA
BRANCH 11 14
ATOM     14  CA  HIS P   4     -18.728  24.590 -15.936  0.50 57.02 LIG 0.17  C 
BRANCH 14 15
ATOM     15  CB  HIS P   4     -20.187  24.900 -16.326  0.50 56.94 LIG 0.09  C 
BRANCH 15 16
ATOM     16  CG  HIS P   4     -21.219  24.294 -15.418  0.50 56.80 LIG 0.05  A 
ATOM     17 ND1  HIS P   4     -21.272  24.546 -14.063  0.50 56.77 LIG-0.25  NA
ATOM     18  CE1 HIS P   4     -22.272  23.869 -13.528  0.50 56.50 LIG 0.21  A 
ATOM     19  NE2 HIS P   4     -22.867  23.181 -14.484  0.50 56.43 LIG-0.36  N 
ATOM     20 HE2  HIS P   4     -23.547  22.664 -14.379  0.50 56.43 LIG 0.17  HD
ATOM     21  CD2 HIS P   4     -22.226  23.425 -15.674  0.50 56.57 LIG 0.12  A 
ENDBRANCH 15 16
ENDBRANCH 14 15
BRANCH 14 22
ATOM     22  C   HIS P   4     -17.775  25.647 -16.488  0.50 57.04 LIG 0.22  C 
ATOM     23 O    HIS P   4     -16.749  25.951 -15.880  0.50 57.12 LIG-0.29  OA
ENDBRANCH 14 22
ENDBRANCH 11 14
ENDBRANCH 5 10
ENDBRANCH 3 5
BRANCH 1 24
ATOM     24  CA  LEU P   2     -17.712  20.230 -12.102  0.50 57.16 LIG 0.18  C 
BRANCH 24 25
ATOM     25  N   LEU P   2     -18.920  20.150 -12.884  0.50 57.19 LIG-0.35  N 
ATOM     26  C   VAL P   1     -20.081  20.335 -12.276  0.50 57.27 LIG 0.25  C 
ATOM     27 O    VAL P   1     -20.171  20.815 -11.141  0.50 57.24 LIG-0.27  OA
ATOM     28 H    LEU P   2     -18.815  19.983 -13.720  0.50 57.19 LIG 0.16  HD
BRANCH 26 29
ATOM     29  CA  VAL P   1     -21.303  19.961 -13.088  0.50 57.27 LIG 0.28  C 
BRANCH 29 30
ATOM     30  CB  VAL P   1     -21.409  18.430 -13.216  0.50 57.30 LIG 0.02  C 
ATOM     31  CG2 VAL P   1     -21.390  18.009 -14.678  0.50 57.34 LIG 0.01  C 
ATOM     32  CG1 VAL P   1     -22.656  17.915 -12.511  0.50 57.33 LIG 0.01  C 
ENDBRANCH 29 30
BRANCH 29 33
ATOM     33  N   VAL P   1     -21.155  20.598 -14.427  0.50 57.23 LIG-0.07  N 
ATOM     34 H3   VAL P   1     -20.291  20.710 -14.609  0.50 57.23 LIG 0.28  HD
ATOM     35 H2   VAL P   1     -21.562  21.389 -14.426  0.50 57.23 LIG 0.28  HD
ATOM     36 H1   VAL P   1     -21.524  20.075 -15.047  0.50 57.23 LIG 0.28  HD
ENDBRANCH 29 33
ENDBRANCH 26 29
ENDBRANCH 24 25
BRANCH 24 37
ATOM     37  CB  LEU P   2     -16.565  19.507 -12.819  0.50 57.14 LIG 0.04  C 
BRANCH 37 38
ATOM     38  CG  LEU P   2     -15.744  18.353 -12.288  0.50 56.96 LIG-0.02  C 
ATOM     39  CD1 LEU P   2     -14.645  18.932 -11.402  0.50 57.03 LIG 0.01  C 
ATOM     40  CD2 LEU P   2     -16.633  17.406 -11.527  0.50 56.70 LIG 0.01  C 
ENDBRANCH 37 38
ENDBRANCH 24 37
ENDBRANCH 1 24
TORSDOF 15
ENDMDL
MODEL 51
USER: ADFR SOLUTION from run 74
USER: SCORE 12.315355 LL:  -3.257 LR: -10.980 RR:   0.000 FEB:  -6.506
USER: RMSD 5.245944
USER: SEED 73
USER: STATUS no improvement in best 12 clusters for 5 generations
USER: GENES 17
USER: genes 0 Translation |==|  0.56861 0.51955 0.58196
USER: genes 1 Rotation |==|  0.56013 0.02196 0.56063 0.61909
USER: genes 2 Torsion [C]-N--CA-[CB] |==|  0.41023
USER: genes 3 Torsion [N]-CA--CB-[CG] |==|  0.81478
USER: genes 4 Torsion [CA]-CB--CG-[CD1] |==|  0.52986
USER: genes 5 Torsion [N]-CA--C-[N] |==|  0.65573
USER: genes 6 Torsion [C]-N--CA-[CB] |==|  0.81824
USER: genes 7 Torsion [N]-CA--CB-[CG] |==|  0.48341
USER: genes 8 Torsion [CA]-CB--CG-[ND1] |==|  0.22404
USER: genes 9 Torsion [N]-CA--C-[O] |==|  0.10542
USER: genes 10 Torsion [N]-C--CA-[N] |==|  0.21322
USER: genes 11 Torsion [C]-CA--N-[C] |==|  0.77199
USER: genes 12 Torsion [N]-C--CA-[N] |==|  0.55279
USER: genes 13 Torsion [C]-CA--CB-[CG2] |==|  0.83636
USER: genes 14 Torsion [C]-CA--N-[H3] |==|  0.34008
USER: genes 15 Torsion [C]-CA--CB-[CG] |==|  0.21522
USER: genes 16 Torsion [CA]-CB--CG-[CD1] |==|  0.06534
ROOT
ATOM      1  C   LEU P   2     -17.972  22.907 -12.301  0.50 57.15 LIG 0.24  C 
ATOM      2 O    LEU P   2     -17.602  23.222 -11.164  0.50 57.16 LIG-0.27  OA
ATOM      3  N   LEU P   3     -18.172  21.694 -12.788  0.50 57.16 LIG-0.35  N 
ATOM      4 H    LEU P   3     -18.199  21.569 -13.639  0.50 57.16 LIG 0.16  HD
ENDROOT
BRANCH 3 5
ATOM      5  CA  LEU P   3     -18.366  20.468 -12.087  0.50 57.19 LIG 0.18  C 
BRANCH 5 6
ATOM      6  CB  LEU P   3     -19.278  19.479 -12.783  0.50 57.26 LIG 0.04  C 
BRANCH 6 7
ATOM      7  CG  LEU P   3     -20.642  20.179 -12.739  0.50 57.44 LIG-0.02  C 
ATOM      8  CD1 LEU P   3     -21.769  19.251 -13.155  0.50 57.60 LIG 0.01  C 
ATOM      9  CD2 LEU P   3     -20.909  20.834 -11.387  0.50 57.51 LIG 0.01  C 
ENDBRANCH 6 7
ENDBRANCH 5 6
BRANCH 5 10
ATOM     10  C   LEU P   3     -16.915  20.006 -12.055  0.50 57.14 LIG 0.24  C 
ATOM     11  N   HIS P   4     -16.692  18.802 -12.580  0.50 57.08 LIG-0.35  N 
ATOM     12 H    HIS P   4     -17.313  18.317 -12.924  0.50 57.08 LIG 0.16  HD
ATOM     13 O    LEU P   3     -16.043  20.683 -11.515  0.50 57.14 LIG-0.27  OA
BRANCH 11 14
ATOM     14  CA  HIS P   4     -15.370  18.178 -12.627  0.50 57.02 LIG 0.17  C 
BRANCH 14 15
ATOM     15  CB  HIS P   4     -14.432  18.985 -13.546  0.50 56.94 LIG 0.09  C 
BRANCH 15 16
ATOM     16  CG  HIS P   4     -13.007  18.510 -13.555  0.50 56.80 LIG 0.05  A 
ATOM     17 ND1  HIS P   4     -12.576  17.433 -14.300  0.50 56.77 LIG-0.25  NA
ATOM     18  CE1 HIS P   4     -11.283  17.248 -14.099  0.50 56.50 LIG 0.21  A 
ATOM     19  NE2 HIS P   4     -10.859  18.162 -13.246  0.50 56.43 LIG-0.36  N 
ATOM     20 HE2  HIS P   4     -10.052  18.244 -12.962  0.50 56.43 LIG 0.17  HD
ATOM     21  CD2 HIS P   4     -11.918  18.961 -12.887  0.50 56.57 LIG 0.12  A 
ENDBRANCH 15 16
ENDBRANCH 14 15
BRANCH 14 22
ATOM     22  C   HIS P   4     -14.797  18.067 -11.217  0.50 57.04 LIG 0.22  C 
ATOM     23 O    HIS P   4     -15.521  17.791 -10.260  0.50 57.12 LIG-0.29  OA
ENDBRANCH 14 22
ENDBRANCH 11 14
ENDBRANCH 5 10
ENDBRANCH 3 5
BRANCH 1 24
ATOM     24  CA  LEU P   2     -18.276  23.849 -13.414  0.50 57.16 LIG 0.18  C 
BRANCH 24 25
ATOM     25  N   LEU P   2     -19.624  24.169 -13.809  0.50 57.19 LIG-0.35  N 
ATOM     26  C   VAL P   1     -20.263  23.336 -14.614  0.50 57.27 LIG 0.25  C 
ATOM     27 O    VAL P   1     -19.864  22.189 -14.841  0.50 57.24 LIG-0.27  OA
ATOM     28 H    LEU P   2     -19.944  24.901 -13.492  0.50 57.19 LIG 0.16  HD
BRANCH 26 29
ATOM     29  CA  VAL P   1     -21.551  23.869 -15.207  0.50 57.27 LIG 0.28  C 
BRANCH 29 30
ATOM     30  CB  VAL P   1     -22.331  24.670 -14.149  0.50 57.30 LIG 0.02  C 
ATOM     31  CG2 VAL P   1     -22.654  23.800 -12.943  0.50 57.34 LIG 0.01  C 
ATOM     32  CG1 VAL P   1     -23.596  25.268 -14.750  0.50 57.33 LIG 0.01  C 
ENDBRANCH 29 30
BRANCH 29 33
ATOM     33  N   VAL P   1     -22.340  22.695 -15.675  0.50 57.23 LIG-0.07  N 
ATOM     34 H3   VAL P   1     -23.135  22.692 -15.274  0.50 57.23 LIG 0.28  HD
ATOM     35 H2   VAL P   1     -21.905  21.945 -15.474  0.50 57.23 LIG 0.28  HD
ATOM     36 H1   VAL P   1     -22.454  22.746 -16.556  0.50 57.23 LIG 0.28  HD
ENDBRANCH 29 33
ENDBRANCH 26 29
ENDBRANCH 24 25
BRANCH 24 37
ATOM     37  CB  LEU P   2     -17.545  25.111 -12.942  0.50 57.14 LIG 0.04  C 
BRANCH 37 38
ATOM     38  CG  LEU P   2     -16.057  25.381 -13.010  0.50 56.96 LIG-0.02  C 
ATOM     39  CD1 LEU P   2     -15.476  24.506 -14.117  0.50 57.03 LIG 0.01  C 
ATOM     40  CD2 LEU P   2     -15.820  26.845 -13.274  0.50 56.70 LIG 0.01  C 
ENDBRANCH 37 38
ENDBRANCH 24 37
ENDBRANCH 1 24
TORSDOF 15
ENDMDL
MODEL 52
USER: ADFR SOLUTION from run 135
USER: SCORE 13.273115 LL:  -2.852 LR: -10.978 RR:   0.000 FEB:  -6.504
USER: RMSD 6.323005
USER: SEED 134
USER: STATUS no improvement in best 9 clusters for 5 generations
USER: GENES 17
USER: genes 0 Translation |==|  0.66177 0.62929 0.50502
USER: genes 1 Rotation |==|  0.59726 0.09796 0.44721 0.77590
USER: genes 2 Torsion [C]-N--CA-[CB] |==|  0.83329
USER: genes 3 Torsion [N]-CA--CB-[CG] |==|  0.85725
USER: genes 4 Torsion [CA]-CB--CG-[CD1] |==|  0.49817
USER: genes 5 Torsion [N]-CA--C-[N] |==|  0.29039
USER: genes 6 Torsion [C]-N--CA-[CB] |==|  0.54791
USER: genes 7 Torsion [N]-CA--CB-[CG] |==|  0.84666
USER: genes 8 Torsion [CA]-CB--CG-[ND1] |==|  0.88375
USER: genes 9 Torsion [N]-CA--C-[O] |==|  0.83078
USER: genes 10 Torsion [N]-C--CA-[N] |==|  0.94708
USER: genes 11 Torsion [C]-CA--N-[C] |==|  0.82634
USER: genes 12 Torsion [N]-C--CA-[N] |==|  0.89108
USER: genes 13 Torsion [C]-CA--CB-[CG2] |==|  0.47639
USER: genes 14 Torsion [C]-CA--N-[H3] |==|  0.08831
USER: genes 15 Torsion [C]-CA--CB-[CG] |==|  0.15291
USER: genes 16 Torsion [CA]-CB--CG-[CD1] |==|  0.33436
ROOT
ATOM      1  C   LEU P   2     -15.177  26.199 -14.610  0.50 57.15 LIG 0.24  C 
ATOM      2 O    LEU P   2     -14.097  26.169 -14.009  0.50 57.16 LIG-0.27  OA
ATOM      3  N   LEU P   3     -15.819  25.197 -15.185  0.50 57.16 LIG-0.35  N 
ATOM      4 H    LEU P   3     -16.431  25.355 -15.769  0.50 57.16 LIG 0.16  HD
ENDROOT
BRANCH 3 5
ATOM      5  CA  LEU P   3     -15.653  23.795 -14.988  0.50 57.19 LIG 0.18  C 
BRANCH 5 6
ATOM      6  CB  LEU P   3     -14.267  23.272 -15.304  0.50 57.26 LIG 0.04  C 
BRANCH 6 7
ATOM      7  CG  LEU P   3     -14.006  23.821 -16.713  0.50 57.44 LIG-0.02  C 
ATOM      8  CD1 LEU P   3     -12.636  23.422 -17.232  0.50 57.60 LIG 0.01  C 
ATOM      9  CD2 LEU P   3     -15.118  23.450 -17.689  0.50 57.51 LIG 0.01  C 
ENDBRANCH 6 7
ENDBRANCH 5 6
BRANCH 5 10
ATOM     10  C   LEU P   3     -15.971  23.748 -13.499  0.50 57.14 LIG 0.24  C 
ATOM     11  N   HIS P   4     -17.173  23.263 -13.191  0.50 57.08 LIG-0.35  N 
ATOM     12 H    HIS P   4     -17.732  22.984 -13.782  0.50 57.08 LIG 0.16  HD
ATOM     13 O    LEU P   3     -15.187  24.196 -12.666  0.50 57.14 LIG-0.27  OA
BRANCH 11 14
ATOM     14  CA  HIS P   4     -17.669  23.154 -11.819  0.50 57.02 LIG 0.17  C 
BRANCH 14 15
ATOM     15  CB  HIS P   4     -18.866  22.186 -11.761  0.50 56.94 LIG 0.09  C 
BRANCH 15 16
ATOM     16  CG  HIS P   4     -19.995  22.531 -12.690  0.50 56.80 LIG 0.05  A 
ATOM     17 ND1  HIS P   4     -20.443  23.820 -12.885  0.50 56.77 LIG-0.25  NA
ATOM     18  CE1 HIS P   4     -21.446  23.812 -13.744  0.50 56.50 LIG 0.21  A 
ATOM     19  NE2 HIS P   4     -21.671  22.564 -14.111  0.50 56.43 LIG-0.36  N 
ATOM     20 HE2  HIS P   4     -22.276  22.307 -14.665  0.50 56.43 LIG 0.17  HD
ATOM     21  CD2 HIS P   4     -20.780  21.743 -13.463  0.50 56.57 LIG 0.12  A 
ENDBRANCH 15 16
ENDBRANCH 14 15
BRANCH 14 22
ATOM     22  C   HIS P   4     -16.544  22.695 -10.895  0.50 57.04 LIG 0.22  C 
ATOM     23 O    HIS P   4     -15.989  21.610 -11.066  0.50 57.12 LIG-0.29  OA
ENDBRANCH 14 22
ENDBRANCH 11 14
ENDBRANCH 5 10
ENDBRANCH 3 5
BRANCH 1 24
ATOM     24  CA  LEU P   2     -16.020  27.406 -14.832  0.50 57.16 LIG 0.18  C 
BRANCH 24 25
ATOM     25  N   LEU P   2     -17.031  27.465 -15.857  0.50 57.19 LIG-0.35  N 
ATOM     26  C   VAL P   1     -16.658  27.353 -17.122  0.50 57.27 LIG 0.25  C 
ATOM     27 O    VAL P   1     -15.537  26.954 -17.454  0.50 57.24 LIG-0.27  OA
ATOM     28 H    LEU P   2     -17.839  27.571 -15.582  0.50 57.19 LIG 0.16  HD
BRANCH 26 29
ATOM     29  CA  VAL P   1     -17.720  27.702 -18.143  0.50 57.27 LIG 0.28  C 
BRANCH 29 30
ATOM     30  CB  VAL P   1     -17.790  29.228 -18.338  0.50 57.30 LIG 0.02  C 
ATOM     31  CG2 VAL P   1     -18.699  29.582 -19.505  0.50 57.34 LIG 0.01  C 
ATOM     32  CG1 VAL P   1     -16.396  29.811 -18.529  0.50 57.33 LIG 0.01  C 
ENDBRANCH 29 30
BRANCH 29 33
ATOM     33  N   VAL P   1     -19.015  27.171 -17.633  0.50 57.23 LIG-0.07  N 
ATOM     34 H3   VAL P   1     -19.017  27.196 -16.744  0.50 57.23 LIG 0.28  HD
ATOM     35 H2   VAL P   1     -19.120  26.331 -17.906  0.50 57.23 LIG 0.28  HD
ATOM     36 H1   VAL P   1     -19.684  27.669 -17.945  0.50 57.23 LIG 0.28  HD
ENDBRANCH 29 33
ENDBRANCH 26 29
ENDBRANCH 24 25
BRANCH 24 37
ATOM     37  CB  LEU P   2     -16.655  27.584 -13.448  0.50 57.14 LIG 0.04  C 
BRANCH 37 38
ATOM     38  CG  LEU P   2     -15.932  27.712 -12.125  0.50 56.96 LIG-0.02  C 
ATOM     39  CD1 LEU P   2     -16.316  29.057 -11.513  0.50 57.03 LIG 0.01  C 
ATOM     40  CD2 LEU P   2     -16.310  26.563 -11.228  0.50 56.70 LIG 0.01  C 
ENDBRANCH 37 38
ENDBRANCH 24 37
ENDBRANCH 1 24
TORSDOF 15
ENDMDL
MODEL 53
USER: ADFR SOLUTION from run 24
USER: SCORE 12.493375 LL:  -3.273 LR: -10.970 RR:   0.000 FEB:  -6.495
USER: RMSD 5.681159
USER: SEED 23
USER: STATUS no improvement in best 8 clusters for 5 generations
USER: GENES 17
USER: genes 0 Translation |==|  0.56861 0.56243 0.47545
USER: genes 1 Rotation |==|  0.15146 0.63824 0.82966 0.52712
USER: genes 2 Torsion [C]-N--CA-[CB] |==|  0.46569
USER: genes 3 Torsion [N]-CA--CB-[CG] |==|  0.45488
USER: genes 4 Torsion [CA]-CB--CG-[CD1] |==|  0.17163
USER: genes 5 Torsion [N]-CA--C-[N] |==|  0.88982
USER: genes 6 Torsion [C]-N--CA-[CB] |==|  0.52444
USER: genes 7 Torsion [N]-CA--CB-[CG] |==|  0.19718
USER: genes 8 Torsion [CA]-CB--CG-[ND1] |==|  0.37629
USER: genes 9 Torsion [N]-CA--C-[O] |==|  0.90129
USER: genes 10 Torsion [N]-C--CA-[N] |==|  0.08408
USER: genes 11 Torsion [C]-CA--N-[C] |==|  0.61113
USER: genes 12 Torsion [N]-C--CA-[N] |==|  0.27315
USER: genes 13 Torsion [C]-CA--CB-[CG2] |==|  0.17547
USER: genes 14 Torsion [C]-CA--N-[H3] |==|  0.65868
USER: genes 15 Torsion [C]-CA--CB-[CG] |==|  0.35645
USER: genes 16 Torsion [CA]-CB--CG-[CD1] |==|  0.99485
ROOT
ATOM      1  C   LEU P   2     -17.972  24.193 -15.497  0.50 57.15 LIG 0.24  C 
ATOM      2 O    LEU P   2     -16.885  23.605 -15.517  0.50 57.16 LIG-0.27  OA
ATOM      3  N   LEU P   3     -18.277  25.363 -16.029  0.50 57.16 LIG-0.35  N 
ATOM      4 H    LEU P   3     -18.977  25.789 -15.766  0.50 57.16 LIG 0.16  HD
ENDROOT
BRANCH 3 5
ATOM      5  CA  LEU P   3     -17.589  26.093 -17.042  0.50 57.19 LIG 0.18  C 
BRANCH 5 6
ATOM      6  CB  LEU P   3     -18.368  27.256 -17.622  0.50 57.26 LIG 0.04  C 
BRANCH 6 7
ATOM      7  CG  LEU P   3     -17.284  28.076 -18.332  0.50 57.44 LIG-0.02  C 
ATOM      8  CD1 LEU P   3     -16.615  27.290 -19.445  0.50 57.60 LIG 0.01  C 
ATOM      9  CD2 LEU P   3     -17.809  29.423 -18.820  0.50 57.51 LIG 0.01  C 
ENDBRANCH 6 7
ENDBRANCH 5 6
BRANCH 5 10
ATOM     10  C   LEU P   3     -16.396  26.544 -16.211  0.50 57.14 LIG 0.24  C 
ATOM     11  N   HIS P   4     -16.681  26.909 -14.961  0.50 57.08 LIG-0.35  N 
ATOM     12 H    HIS P   4     -17.476  26.886 -14.635  0.50 57.08 LIG 0.16  HD
ATOM     13 O    LEU P   3     -15.272  26.624 -16.700  0.50 57.14 LIG-0.27  OA
BRANCH 11 14
ATOM     14  CA  HIS P   4     -15.675  27.388 -14.014  0.50 57.02 LIG 0.17  C 
BRANCH 14 15
ATOM     15  CB  HIS P   4     -16.286  27.516 -12.605  0.50 56.94 LIG 0.09  C 
BRANCH 15 16
ATOM     16  CG  HIS P   4     -16.588  26.207 -11.934  0.50 56.80 LIG 0.05  A 
ATOM     17 ND1  HIS P   4     -16.280  25.948 -10.615  0.50 56.77 LIG-0.25  NA
ATOM     18  CE1 HIS P   4     -16.652  24.717 -10.310  0.50 56.50 LIG 0.21  A 
ATOM     19  NE2 HIS P   4     -17.184  24.165 -11.384  0.50 56.43 LIG-0.36  N 
ATOM     20 HE2  HIS P   4     -17.500  23.366 -11.430  0.50 56.43 LIG 0.17  HD
ATOM     21  CD2 HIS P   4     -17.152  25.073 -12.414  0.50 56.57 LIG 0.12  A 
ENDBRANCH 15 16
ENDBRANCH 14 15
BRANCH 14 22
ATOM     22  C   HIS P   4     -14.474  26.446 -14.010  0.50 57.04 LIG 0.22  C 
ATOM     23 O    HIS P   4     -14.623  25.232 -14.153  0.50 57.12 LIG-0.29  OA
ENDBRANCH 14 22
ENDBRANCH 11 14
ENDBRANCH 5 10
ENDBRANCH 3 5
BRANCH 1 24
ATOM     24  CA  LEU P   2     -19.217  23.705 -14.841  0.50 57.16 LIG 0.18  C 
BRANCH 24 25
ATOM     25  N   LEU P   2     -20.531  24.041 -15.330  0.50 57.19 LIG-0.35  N 
ATOM     26  C   VAL P   1     -21.481  24.317 -14.452  0.50 57.27 LIG 0.25  C 
ATOM     27 O    VAL P   1     -21.244  24.546 -13.261  0.50 57.24 LIG-0.27  OA
ATOM     28 H    LEU P   2     -20.624  24.044 -16.184  0.50 57.19 LIG 0.16  HD
BRANCH 26 29
ATOM     29  CA  VAL P   1     -22.885  24.383 -15.017  0.50 57.27 LIG 0.28  C 
BRANCH 29 30
ATOM     30  CB  VAL P   1     -23.670  25.532 -14.360  0.50 57.30 LIG 0.02  C 
ATOM     31  CG2 VAL P   1     -23.029  26.875 -14.680  0.50 57.34 LIG 0.01  C 
ATOM     32  CG1 VAL P   1     -23.780  25.320 -12.856  0.50 57.33 LIG 0.01  C 
ENDBRANCH 29 30
BRANCH 29 33
ATOM     33  N   VAL P   1     -23.534  23.070 -14.741  0.50 57.23 LIG-0.07  N 
ATOM     34 H3   VAL P   1     -23.807  22.707 -15.506  0.50 57.23 LIG 0.28  HD
ATOM     35 H2   VAL P   1     -24.233  23.191 -14.205  0.50 57.23 LIG 0.28  HD
ATOM     36 H1   VAL P   1     -22.949  22.527 -14.347  0.50 57.23 LIG 0.28  HD
ENDBRANCH 29 33
ENDBRANCH 26 29
ENDBRANCH 24 25
BRANCH 24 37
ATOM     37  CB  LEU P   2     -19.003  22.188 -14.891  0.50 57.14 LIG 0.04  C 
BRANCH 37 38
ATOM     38  CG  LEU P   2     -19.105  21.216 -13.735  0.50 56.96 LIG-0.02  C 
ATOM     39  CD1 LEU P   2     -19.417  22.020 -12.477  0.50 57.03 LIG 0.01  C 
ATOM     40  CD2 LEU P   2     -20.173  20.195 -14.024  0.50 56.70 LIG 0.01  C 
ENDBRANCH 37 38
ENDBRANCH 24 37
ENDBRANCH 1 24
TORSDOF 15
ENDMDL
MODEL 54
USER: ADFR SOLUTION from run 41
USER: SCORE 12.379933 LL:  -3.277 LR: -10.960 RR:   0.000 FEB:  -6.485
USER: RMSD 4.803698
USER: SEED 40
USER: STATUS no improvement in best 8 clusters for 5 generations
USER: GENES 17
USER: genes 0 Translation |==|  0.57457 0.54068 0.46955
USER: genes 1 Rotation |==|  0.53293 0.48166 0.78605 0.90836
USER: genes 2 Torsion [C]-N--CA-[CB] |==|  0.00716
USER: genes 3 Torsion [N]-CA--CB-[CG] |==|  0.69610
USER: genes 4 Torsion [CA]-CB--CG-[CD1] |==|  0.65204
USER: genes 5 Torsion [N]-CA--C-[N] |==|  0.12260
USER: genes 6 Torsion [C]-N--CA-[CB] |==|  0.25683
USER: genes 7 Torsion [N]-CA--CB-[CG] |==|  0.72698
USER: genes 8 Torsion [CA]-CB--CG-[ND1] |==|  0.68752
USER: genes 9 Torsion [N]-CA--C-[O] |==|  0.01394
USER: genes 10 Torsion [N]-C--CA-[N] |==|  0.46753
USER: genes 11 Torsion [C]-CA--N-[C] |==|  0.56023
USER: genes 12 Torsion [N]-C--CA-[N] |==|  0.22544
USER: genes 13 Torsion [C]-CA--CB-[CG2] |==|  0.51584
USER: genes 14 Torsion [C]-CA--N-[H3] |==|  0.88885
USER: genes 15 Torsion [C]-CA--CB-[CG] |==|  0.35743
USER: genes 16 Torsion [CA]-CB--CG-[CD1] |==|  0.91865
ROOT
ATOM      1  C   LEU P   2     -17.793  23.540 -15.674  0.50 57.15 LIG 0.24  C 
ATOM      2 O    LEU P   2     -17.743  23.888 -16.859  0.50 57.16 LIG-0.27  OA
ATOM      3  N   LEU P   3     -16.792  23.211 -14.876  0.50 57.16 LIG-0.35  N 
ATOM      4 H    LEU P   3     -16.941  22.766 -14.155  0.50 57.16 LIG 0.16  HD
ENDROOT
BRANCH 3 5
ATOM      5  CA  LEU P   3     -15.402  23.491 -15.021  0.50 57.19 LIG 0.18  C 
BRANCH 5 6
ATOM      6  CB  LEU P   3     -15.049  24.327 -16.235  0.50 57.26 LIG 0.04  C 
BRANCH 6 7
ATOM      7  CG  LEU P   3     -14.332  23.323 -17.147  0.50 57.44 LIG-0.02  C 
ATOM      8  CD1 LEU P   3     -12.955  23.813 -17.558  0.50 57.60 LIG 0.01  C 
ATOM      9  CD2 LEU P   3     -14.284  21.925 -16.538  0.50 57.51 LIG 0.01  C 
ENDBRANCH 6 7
ENDBRANCH 5 6
BRANCH 5 10
ATOM     10  C   LEU P   3     -15.195  24.242 -13.713  0.50 57.14 LIG 0.24  C 
ATOM     11  N   HIS P   4     -15.768  23.688 -12.645  0.50 57.08 LIG-0.35  N 
ATOM     12 H    HIS P   4     -16.215  22.954 -12.679  0.50 57.08 LIG 0.16  HD
ATOM     13 O    LEU P   3     -14.598  25.315 -13.681  0.50 57.14 LIG-0.27  OA
BRANCH 11 14
ATOM     14  CA  HIS P   4     -15.697  24.267 -11.304  0.50 57.02 LIG 0.17  C 
BRANCH 14 15
ATOM     15  CB  HIS P   4     -16.913  25.179 -11.052  0.50 56.94 LIG 0.09  C 
BRANCH 15 16
ATOM     16  CG  HIS P   4     -16.650  26.643 -11.261  0.50 56.80 LIG 0.05  A 
ATOM     17 ND1  HIS P   4     -16.653  27.564 -10.235  0.50 56.77 LIG-0.25  NA
ATOM     18  CE1 HIS P   4     -16.402  28.766 -10.721  0.50 56.50 LIG 0.21  A 
ATOM     19  NE2 HIS P   4     -16.242  28.662 -12.027  0.50 56.43 LIG-0.36  N 
ATOM     20 HE2  HIS P   4     -16.068  29.313 -12.562  0.50 56.43 LIG 0.17  HD
ATOM     21  CD2 HIS P   4     -16.396  27.346 -12.391  0.50 56.57 LIG 0.12  A 
ENDBRANCH 15 16
ENDBRANCH 14 15
BRANCH 14 22
ATOM     22  C   HIS P   4     -15.618  23.155 -10.260  0.50 57.04 LIG 0.22  C 
ATOM     23 O    HIS P   4     -15.527  21.976 -10.599  0.50 57.12 LIG-0.29  OA
ENDBRANCH 14 22
ENDBRANCH 11 14
ENDBRANCH 5 10
ENDBRANCH 3 5
BRANCH 1 24
ATOM     24  CA  LEU P   2     -19.030  23.403 -14.855  0.50 57.16 LIG 0.18  C 
BRANCH 24 25
ATOM     25  N   LEU P   2     -20.307  23.906 -15.293  0.50 57.19 LIG-0.35  N 
ATOM     26  C   VAL P   1     -21.238  24.145 -14.384  0.50 57.27 LIG 0.25  C 
ATOM     27 O    VAL P   1     -20.993  24.200 -13.174  0.50 57.24 LIG-0.27  OA
ATOM     28 H    LEU P   2     -20.393  24.026 -16.140  0.50 57.19 LIG 0.16  HD
BRANCH 26 29
ATOM     29  CA  VAL P   1     -22.627  24.399 -14.932  0.50 57.27 LIG 0.28  C 
BRANCH 29 30
ATOM     30  CB  VAL P   1     -23.470  25.179 -13.907  0.50 57.30 LIG 0.02  C 
ATOM     31  CG2 VAL P   1     -24.907  25.319 -14.385  0.50 57.34 LIG 0.01  C 
ATOM     32  CG1 VAL P   1     -22.849  26.541 -13.624  0.50 57.33 LIG 0.01  C 
ENDBRANCH 29 30
BRANCH 29 33
ATOM     33  N   VAL P   1     -23.237  23.070 -15.221  0.50 57.23 LIG-0.07  N 
ATOM     34 H3   VAL P   1     -22.623  22.531 -15.574  0.50 57.23 LIG 0.28  HD
ATOM     35 H2   VAL P   1     -23.909  23.170 -15.796  0.50 57.23 LIG 0.28  HD
ATOM     36 H1   VAL P   1     -23.545  22.714 -14.465  0.50 57.23 LIG 0.28  HD
ENDBRANCH 29 33
ENDBRANCH 26 29
ENDBRANCH 24 25
BRANCH 24 37
ATOM     37  CB  LEU P   2     -19.093  21.882 -14.666  0.50 57.14 LIG 0.04  C 
BRANCH 37 38
ATOM     38  CG  LEU P   2     -19.250  21.133 -13.362  0.50 56.96 LIG-0.02  C 
ATOM     39  CD1 LEU P   2     -18.625  21.982 -12.258  0.50 57.03 LIG 0.01  C 
ATOM     40  CD2 LEU P   2     -20.709  20.867 -13.103  0.50 56.70 LIG 0.01  C 
ENDBRANCH 37 38
ENDBRANCH 24 37
ENDBRANCH 1 24
TORSDOF 15
ENDMDL
MODEL 55
USER: ADFR SOLUTION from run 35
USER: SCORE 12.709435 LL:  -3.011 LR: -10.961 RR:   0.000 FEB:  -6.487
USER: RMSD 9.462977
USER: SEED 34
USER: STATUS no improvement in best 14 clusters for 5 generations
USER: GENES 17
USER: genes 0 Translation |==|  0.65009 0.42146 0.60845
USER: genes 1 Rotation |==|  0.90959 0.74047 0.34427 0.51258
USER: genes 2 Torsion [C]-N--CA-[CB] |==|  0.16667
USER: genes 3 Torsion [N]-CA--CB-[CG] |==|  0.62971
USER: genes 4 Torsion [CA]-CB--CG-[CD1] |==|  0.19526
USER: genes 5 Torsion [N]-CA--C-[N] |==|  0.37392
USER: genes 6 Torsion [C]-N--CA-[CB] |==|  0.29221
USER: genes 7 Torsion [N]-CA--CB-[CG] |==|  0.72489
USER: genes 8 Torsion [CA]-CB--CG-[ND1] |==|  0.06111
USER: genes 9 Torsion [N]-CA--C-[O] |==|  0.06923
USER: genes 10 Torsion [N]-C--CA-[N] |==|  0.43808
USER: genes 11 Torsion [C]-CA--N-[C] |==|  0.72774
USER: genes 12 Torsion [N]-C--CA-[N] |==|  0.16679
USER: genes 13 Torsion [C]-CA--CB-[CG2] |==|  0.53869
USER: genes 14 Torsion [C]-CA--N-[H3] |==|  0.95325
USER: genes 15 Torsion [C]-CA--CB-[CG] |==|  0.43415
USER: genes 16 Torsion [CA]-CB--CG-[CD1] |==|  0.84686
ROOT
ATOM      1  C   LEU P   2     -15.527  19.964 -11.507  0.50 57.15 LIG 0.24  C 
ATOM      2 O    LEU P   2     -14.878  20.524 -10.616  0.50 57.16 LIG-0.27  OA
ATOM      3  N   LEU P   3     -16.695  20.321 -12.012  0.50 57.16 LIG-0.35  N 
ATOM      4 H    LEU P   3     -17.169  19.751 -12.451  0.50 57.16 LIG 0.16  HD
ENDROOT
BRANCH 3 5
ATOM      5  CA  LEU P   3     -17.350  21.585 -11.948  0.50 57.19 LIG 0.18  C 
BRANCH 5 6
ATOM      6  CB  LEU P   3     -16.575  22.730 -12.567  0.50 57.26 LIG 0.04  C 
BRANCH 6 7
ATOM      7  CG  LEU P   3     -16.684  23.832 -11.506  0.50 57.44 LIG-0.02  C 
ATOM      8  CD1 LEU P   3     -15.871  23.508 -10.265  0.50 57.60 LIG 0.01  C 
ATOM      9  CD2 LEU P   3     -16.344  25.209 -12.069  0.50 57.51 LIG 0.01  C 
ENDBRANCH 6 7
ENDBRANCH 5 6
BRANCH 5 10
ATOM     10  C   LEU P   3     -18.596  21.223 -12.744  0.50 57.14 LIG 0.24  C 
ATOM     11  N   HIS P   4     -19.748  21.635 -12.215  0.50 57.08 LIG-0.35  N 
ATOM     12 H    HIS P   4     -19.794  22.083 -11.482  0.50 57.08 LIG 0.16  HD
ATOM     13 O    LEU P   3     -18.526  20.539 -13.763  0.50 57.14 LIG-0.27  OA
BRANCH 11 14
ATOM     14  CA  HIS P   4     -21.052  21.370 -12.821  0.50 57.02 LIG 0.17  C 
BRANCH 14 15
ATOM     15  CB  HIS P   4     -21.791  20.269 -12.036  0.50 56.94 LIG 0.09  C 
BRANCH 15 16
ATOM     16  CG  HIS P   4     -21.698  18.898 -12.644  0.50 56.80 LIG 0.05  A 
ATOM     17 ND1  HIS P   4     -20.698  18.528 -13.518  0.50 56.77 LIG-0.25  NA
ATOM     18  CE1 HIS P   4     -20.883  17.275 -13.892  0.50 56.50 LIG 0.21  A 
ATOM     19  NE2 HIS P   4     -21.970  16.819 -13.299  0.50 56.43 LIG-0.36  N 
ATOM     20 HE2  HIS P   4     -22.293  16.026 -13.387  0.50 56.43 LIG 0.17  HD
ATOM     21  CD2 HIS P   4     -22.501  17.815 -12.516  0.50 56.57 LIG 0.12  A 
ENDBRANCH 15 16
ENDBRANCH 14 15
BRANCH 14 22
ATOM     22  C   HIS P   4     -21.873  22.656 -12.871  0.50 57.04 LIG 0.22  C 
ATOM     23 O    HIS P   4     -21.324  23.757 -12.883  0.50 57.12 LIG-0.29  OA
ENDBRANCH 14 22
ENDBRANCH 11 14
ENDBRANCH 5 10
ENDBRANCH 3 5
BRANCH 1 24
ATOM     24  CA  LEU P   2     -15.134  18.720 -12.225  0.50 57.16 LIG 0.18  C 
BRANCH 24 25
ATOM     25  N   LEU P   2     -13.765  18.280 -12.316  0.50 57.19 LIG-0.35  N 
ATOM     26  C   VAL P   1     -13.080  18.560 -13.413  0.50 57.27 LIG 0.25  C 
ATOM     27 O    VAL P   1     -13.466  19.385 -14.248  0.50 57.24 LIG-0.27  OA
ATOM     28 H    LEU P   2     -13.463  17.850 -11.635  0.50 57.19 LIG 0.16  HD
BRANCH 26 29
ATOM     29  CA  VAL P   1     -11.759  17.833 -13.555  0.50 57.27 LIG 0.28  C 
BRANCH 29 30
ATOM     30  CB  VAL P   1     -11.054  18.260 -14.855  0.50 57.30 LIG 0.02  C 
ATOM     31  CG2 VAL P   1      -9.914  17.309 -15.188  0.50 57.34 LIG 0.01  C 
ATOM     32  CG1 VAL P   1     -10.560  19.697 -14.753  0.50 57.33 LIG 0.01  C 
ENDBRANCH 29 30
BRANCH 29 33
ATOM     33  N   VAL P   1     -12.058  16.373 -13.567  0.50 57.23 LIG-0.07  N 
ATOM     34 H3   VAL P   1     -12.878  16.234 -13.251  0.50 57.23 LIG 0.28  HD
ATOM     35 H2   VAL P   1     -11.468  15.945 -13.057  0.50 57.23 LIG 0.28  HD
ATOM     36 H1   VAL P   1     -12.006  16.066 -14.401  0.50 57.23 LIG 0.28  HD
ENDBRANCH 29 33
ENDBRANCH 26 29
ENDBRANCH 24 25
BRANCH 24 37
ATOM     37  CB  LEU P   2     -15.983  17.673 -11.494  0.50 57.14 LIG 0.04  C 
BRANCH 37 38
ATOM     38  CG  LEU P   2     -16.428  16.329 -12.027  0.50 56.96 LIG-0.02  C 
ATOM     39  CD1 LEU P   2     -17.165  16.570 -13.341  0.50 57.03 LIG 0.01  C 
ATOM     40  CD2 LEU P   2     -15.230  15.436 -12.214  0.50 56.70 LIG 0.01  C 
ENDBRANCH 37 38
ENDBRANCH 24 37
ENDBRANCH 1 24
TORSDOF 15
ENDMDL
MODEL 56
USER: ADFR SOLUTION from run 8
USER: SCORE 13.241307 LL:  -3.626 LR: -10.954 RR:   0.000 FEB:  -6.480
USER: RMSD 7.233576
USER: SEED 258700
USER: STATUS no improvement in best 24 clusters for 5 generations
USER: GENES 17
USER: genes 0 Translation |==|  0.60628 0.52841 0.59449
USER: genes 1 Rotation |==|  0.95499 0.52275 0.29393 0.50105
USER: genes 2 Torsion [C]-N--CA-[CB] |==|  0.85556
USER: genes 3 Torsion [N]-CA--CB-[CG] |==|  0.55137
USER: genes 4 Torsion [CA]-CB--CG-[CD1] |==|  0.40614
USER: genes 5 Torsion [N]-CA--C-[N] |==|  0.15901
USER: genes 6 Torsion [C]-N--CA-[CB] |==|  0.80094
USER: genes 7 Torsion [N]-CA--CB-[CG] |==|  0.94240
USER: genes 8 Torsion [CA]-CB--CG-[ND1] |==|  0.29592
USER: genes 9 Torsion [N]-CA--C-[O] |==|  0.25320
USER: genes 10 Torsion [N]-C--CA-[N] |==|  0.04204
USER: genes 11 Torsion [C]-CA--N-[C] |==|  0.70491
USER: genes 12 Torsion [N]-C--CA-[N] |==|  0.37584
USER: genes 13 Torsion [C]-CA--CB-[CG2] |==|  0.17900
USER: genes 14 Torsion [C]-CA--N-[H3] |==|  0.30277
USER: genes 15 Torsion [C]-CA--CB-[CG] |==|  0.36149
USER: genes 16 Torsion [CA]-CB--CG-[CD1] |==|  0.27853
ROOT
ATOM      1  C   LEU P   2     -16.842  23.172 -11.925  0.50 57.15 LIG 0.24  C 
ATOM      2 O    LEU P   2     -15.807  23.245 -11.253  0.50 57.16 LIG-0.27  OA
ATOM      3  N   LEU P   3     -17.471  24.144 -12.564  0.50 57.16 LIG-0.35  N 
ATOM      4 H    LEU P   3     -18.292  24.044 -12.802  0.50 57.16 LIG 0.16  HD
ENDROOT
BRANCH 3 5
ATOM      5  CA  LEU P   3     -16.980  25.424 -12.952  0.50 57.19 LIG 0.18  C 
BRANCH 5 6
ATOM      6  CB  LEU P   3     -16.335  26.219 -11.835  0.50 57.26 LIG 0.04  C 
BRANCH 6 7
ATOM      7  CG  LEU P   3     -16.349  27.652 -12.381  0.50 57.44 LIG-0.02  C 
ATOM      8  CD1 LEU P   3     -16.544  28.677 -11.278  0.50 57.60 LIG 0.01  C 
ATOM      9  CD2 LEU P   3     -15.121  27.956 -13.233  0.50 57.51 LIG 0.01  C 
ENDBRANCH 6 7
ENDBRANCH 5 6
BRANCH 5 10
ATOM     10  C   LEU P   3     -15.976  24.963 -13.999  0.50 57.14 LIG 0.24  C 
ATOM     11  N   HIS P   4     -16.485  24.228 -14.988  0.50 57.08 LIG-0.35  N 
ATOM     12 H    HIS P   4     -17.320  24.032 -15.046  0.50 57.08 LIG 0.16  HD
ATOM     13 O    LEU P   3     -14.777  25.204 -13.882  0.50 57.14 LIG-0.27  OA
BRANCH 11 14
ATOM     14  CA  HIS P   4     -15.679  23.678 -16.077  0.50 57.02 LIG 0.17  C 
BRANCH 14 15
ATOM     15  CB  HIS P   4     -15.228  24.804 -17.028  0.50 56.94 LIG 0.09  C 
BRANCH 15 16
ATOM     16  CG  HIS P   4     -16.058  26.053 -16.955  0.50 56.80 LIG 0.05  A 
ATOM     17 ND1  HIS P   4     -15.617  27.217 -16.361  0.50 56.77 LIG-0.25  NA
ATOM     18  CE1 HIS P   4     -16.562  28.136 -16.439  0.50 56.50 LIG 0.21  A 
ATOM     19  NE2 HIS P   4     -17.604  27.611 -17.056  0.50 56.43 LIG-0.36  N 
ATOM     20 HE2  HIS P   4     -18.342  28.019 -17.225  0.50 56.43 LIG 0.17  HD
ATOM     21  CD2 HIS P   4     -17.316  26.309 -17.386  0.50 56.57 LIG 0.12  A 
ENDBRANCH 15 16
ENDBRANCH 14 15
BRANCH 14 22
ATOM     22  C   HIS P   4     -14.479  22.925 -15.508  0.50 57.04 LIG 0.22  C 
ATOM     23 O    HIS P   4     -14.547  21.720 -15.265  0.50 57.12 LIG-0.29  OA
ENDBRANCH 14 22
ENDBRANCH 11 14
ENDBRANCH 5 10
ENDBRANCH 3 5
BRANCH 1 24
ATOM     24  CA  LEU P   2     -17.640  21.939 -12.169  0.50 57.16 LIG 0.18  C 
BRANCH 24 25
ATOM     25  N   LEU P   2     -18.644  21.859 -13.201  0.50 57.19 LIG-0.35  N 
ATOM     26  C   VAL P   1     -19.918  21.873 -12.846  0.50 57.27 LIG 0.25  C 
ATOM     27 O    VAL P   1     -20.293  22.200 -11.715  0.50 57.24 LIG-0.27  OA
ATOM     28 H    LEU P   2     -18.350  21.805 -14.007  0.50 57.19 LIG 0.16  HD
BRANCH 26 29
ATOM     29  CA  VAL P   1     -20.898  21.505 -13.941  0.50 57.27 LIG 0.28  C 
BRANCH 29 30
ATOM     30  CB  VAL P   1     -21.594  22.769 -14.478  0.50 57.30 LIG 0.02  C 
ATOM     31  CG2 VAL P   1     -20.590  23.694 -15.149  0.50 57.34 LIG 0.01  C 
ATOM     32  CG1 VAL P   1     -22.345  23.486 -13.364  0.50 57.33 LIG 0.01  C 
ENDBRANCH 29 30
BRANCH 29 33
ATOM     33  N   VAL P   1     -21.889  20.563 -13.349  0.50 57.23 LIG-0.07  N 
ATOM     34 H3   VAL P   1     -22.675  20.972 -13.265  0.50 57.23 LIG 0.28  HD
ATOM     35 H2   VAL P   1     -21.606  20.299 -12.547  0.50 57.23 LIG 0.28  HD
ATOM     36 H1   VAL P   1     -21.979  19.854 -13.880  0.50 57.23 LIG 0.28  HD
ENDBRANCH 29 33
ENDBRANCH 26 29
ENDBRANCH 24 25
BRANCH 24 37
ATOM     37  CB  LEU P   2     -16.530  20.913 -12.426  0.50 57.14 LIG 0.04  C 
BRANCH 37 38
ATOM     38  CG  LEU P   2     -16.381  19.552 -11.780  0.50 56.96 LIG-0.02  C 
ATOM     39  CD1 LEU P   2     -16.900  18.510 -12.766  0.50 57.03 LIG 0.01  C 
ATOM     40  CD2 LEU P   2     -14.937  19.316 -11.426  0.50 56.70 LIG 0.01  C 
ENDBRANCH 37 38
ENDBRANCH 24 37
ENDBRANCH 1 24
TORSDOF 15
ENDMDL
MODEL 57
USER: ADFR SOLUTION from run 1
USER: SCORE 13.749899 LL:  -3.064 LR: -10.940 RR:   0.000 FEB:  -6.465
USER: RMSD 7.691890
USER: SEED 963143
USER: STATUS no improvement in best 21 clusters for 5 generations
USER: GENES 17
USER: genes 0 Translation |==|  0.58889 0.46595 0.59352
USER: genes 1 Rotation |==|  0.93666 0.58487 0.27217 0.51475
USER: genes 2 Torsion [C]-N--CA-[CB] |==|  0.14509
USER: genes 3 Torsion [N]-CA--CB-[CG] |==|  0.61377
USER: genes 4 Torsion [CA]-CB--CG-[CD1] |==|  0.13563
USER: genes 5 Torsion [N]-CA--C-[N] |==|  0.11794
USER: genes 6 Torsion [C]-N--CA-[CB] |==|  0.75367
USER: genes 7 Torsion [N]-CA--CB-[CG] |==|  0.33052
USER: genes 8 Torsion [CA]-CB--CG-[ND1] |==|  0.69986
USER: genes 9 Torsion [N]-CA--C-[O] |==|  0.12040
USER: genes 10 Torsion [N]-C--CA-[N] |==|  0.01898
USER: genes 11 Torsion [C]-CA--N-[C] |==|  0.78333
USER: genes 12 Torsion [N]-C--CA-[N] |==|  0.84929
USER: genes 13 Torsion [C]-CA--CB-[CG2] |==|  0.71259
USER: genes 14 Torsion [C]-CA--N-[H3] |==|  0.13323
USER: genes 15 Torsion [C]-CA--CB-[CG] |==|  0.30182
USER: genes 16 Torsion [CA]-CB--CG-[CD1] |==|  0.76258
ROOT
ATOM      1  C   LEU P   2     -17.363  21.299 -11.954  0.50 57.15 LIG 0.24  C 
ATOM      2 O    LEU P   2     -16.310  21.607 -11.386  0.50 57.16 LIG-0.27  OA
ATOM      3  N   LEU P   3     -18.280  22.101 -12.465  0.50 57.16 LIG-0.35  N 
ATOM      4 H    LEU P   3     -19.072  21.806 -12.626  0.50 57.16 LIG 0.16  HD
ENDROOT
BRANCH 3 5
ATOM      5  CA  LEU P   3     -18.168  23.477 -12.822  0.50 57.19 LIG 0.18  C 
BRANCH 5 6
ATOM      6  CB  LEU P   3     -17.003  23.800 -13.734  0.50 57.26 LIG 0.04  C 
BRANCH 6 7
ATOM      7  CG  LEU P   3     -16.470  25.118 -13.158  0.50 57.44 LIG-0.02  C 
ATOM      8  CD1 LEU P   3     -16.280  25.044 -11.654  0.50 57.60 LIG 0.01  C 
ATOM      9  CD2 LEU P   3     -15.206  25.588 -13.872  0.50 57.51 LIG 0.01  C 
ENDBRANCH 6 7
ENDBRANCH 5 6
BRANCH 5 10
ATOM     10  C   LEU P   3     -19.515  23.631 -13.514  0.50 57.14 LIG 0.24  C 
ATOM     11  N   HIS P   4     -20.541  23.045 -12.897  0.50 57.08 LIG-0.35  N 
ATOM     12 H    HIS P   4     -20.460  22.617 -12.155  0.50 57.08 LIG 0.16  HD
ATOM     13 O    LEU P   3     -19.613  24.199 -14.600  0.50 57.14 LIG-0.27  OA
BRANCH 11 14
ATOM     14  CA  HIS P   4     -21.909  23.066 -13.414  0.50 57.02 LIG 0.17  C 
BRANCH 14 15
ATOM     15  CB  HIS P   4     -22.655  24.312 -12.897  0.50 56.94 LIG 0.09  C 
BRANCH 15 16
ATOM     16  CG  HIS P   4     -23.129  25.247 -13.973  0.50 56.80 LIG 0.05  A 
ATOM     17 ND1  HIS P   4     -22.555  26.478 -14.209  0.50 56.77 LIG-0.25  NA
ATOM     18  CE1 HIS P   4     -23.186  27.076 -15.203  0.50 56.50 LIG 0.21  A 
ATOM     19  NE2 HIS P   4     -24.154  26.281 -15.619  0.50 56.43 LIG-0.36  N 
ATOM     20 HE2  HIS P   4     -24.703  26.453 -16.259  0.50 56.43 LIG 0.17  HD
ATOM     21  CD2 HIS P   4     -24.143  25.133 -14.864  0.50 56.57 LIG 0.12  A 
ENDBRANCH 15 16
ENDBRANCH 14 15
BRANCH 14 22
ATOM     22  C   HIS P   4     -21.889  23.029 -14.939  0.50 57.04 LIG 0.22  C 
ATOM     23 O    HIS P   4     -21.131  22.271 -15.544  0.50 57.12 LIG-0.29  OA
ENDBRANCH 14 22
ENDBRANCH 11 14
ENDBRANCH 5 10
ENDBRANCH 3 5
BRANCH 1 24
ATOM     24  CA  LEU P   2     -17.855  19.913 -12.192  0.50 57.16 LIG 0.18  C 
BRANCH 24 25
ATOM     25  N   LEU P   2     -19.026  19.633 -12.984  0.50 57.19 LIG-0.35  N 
ATOM     26  C   VAL P   1     -20.218  19.817 -12.438  0.50 57.27 LIG 0.25  C 
ATOM     27 O    VAL P   1     -20.381  20.445 -11.387  0.50 57.24 LIG-0.27  OA
ATOM     28 H    LEU P   2     -18.881  19.358 -13.785  0.50 57.19 LIG 0.16  HD
BRANCH 26 29
ATOM     29  CA  VAL P   1     -21.382  19.242 -13.218  0.50 57.27 LIG 0.28  C 
BRANCH 29 30
ATOM     30  CB  VAL P   1     -21.303  17.705 -13.236  0.50 57.30 LIG 0.02  C 
ATOM     31  CG2 VAL P   1     -20.801  17.207 -14.583  0.50 57.34 LIG 0.01  C 
ATOM     32  CG1 VAL P   1     -22.653  17.091 -12.890  0.50 57.33 LIG 0.01  C 
ENDBRANCH 29 30
BRANCH 29 33
ATOM     33  N   VAL P   1     -21.305  19.795 -14.599  0.50 57.23 LIG-0.07  N 
ATOM     34 H3   VAL P   1     -20.474  19.712 -14.907  0.50 57.23 LIG 0.28  HD
ATOM     35 H2   VAL P   1     -21.530  20.656 -14.587  0.50 57.23 LIG 0.28  HD
ATOM     36 H1   VAL P   1     -21.864  19.349 -15.129  0.50 57.23 LIG 0.28  HD
ENDBRANCH 29 33
ENDBRANCH 26 29
ENDBRANCH 24 25
BRANCH 24 37
ATOM     37  CB  LEU P   2     -16.618  19.264 -12.825  0.50 57.14 LIG 0.04  C 
BRANCH 37 38
ATOM     38  CG  LEU P   2     -15.707  18.235 -12.193  0.50 56.96 LIG-0.02  C 
ATOM     39  CD1 LEU P   2     -14.661  18.982 -11.370  0.50 57.03 LIG 0.01  C 
ATOM     40  CD2 LEU P   2     -16.518  17.294 -11.342  0.50 56.70 LIG 0.01  C 
ENDBRANCH 37 38
ENDBRANCH 24 37
ENDBRANCH 1 24
TORSDOF 15
ENDMDL
MODEL 58
USER: ADFR SOLUTION from run 108
USER: SCORE 13.806223 LL:  -3.343 LR: -10.923 RR:   0.000 FEB:  -6.449
USER: RMSD 4.652397
USER: SEED 107
USER: STATUS no improvement in best 13 clusters for 5 generations
USER: GENES 17
USER: genes 0 Translation |==|  0.47174 0.50030 0.57594
USER: genes 1 Rotation |==|  0.25995 0.83998 0.49234 0.77700
USER: genes 2 Torsion [C]-N--CA-[CB] |==|  0.20553
USER: genes 3 Torsion [N]-CA--CB-[CG] |==|  0.68261
USER: genes 4 Torsion [CA]-CB--CG-[CD1] |==|  0.23489
USER: genes 5 Torsion [N]-CA--C-[N] |==|  0.06238
USER: genes 6 Torsion [C]-N--CA-[CB] |==|  0.50948
USER: genes 7 Torsion [N]-CA--CB-[CG] |==|  0.71498
USER: genes 8 Torsion [CA]-CB--CG-[ND1] |==|  0.53301
USER: genes 9 Torsion [N]-CA--C-[O] |==|  0.21366
USER: genes 10 Torsion [N]-C--CA-[N] |==|  0.09188
USER: genes 11 Torsion [C]-CA--N-[C] |==|  0.14517
USER: genes 12 Torsion [N]-C--CA-[N] |==|  0.85514
USER: genes 13 Torsion [C]-CA--CB-[CG2] |==|  0.53679
USER: genes 14 Torsion [C]-CA--N-[H3] |==|  0.40163
USER: genes 15 Torsion [C]-CA--CB-[CG] |==|  0.42892
USER: genes 16 Torsion [CA]-CB--CG-[CD1] |==|  0.97742
ROOT
ATOM      1  C   LEU P   2     -20.878  22.329 -12.482  0.50 57.15 LIG 0.24  C 
ATOM      2 O    LEU P   2     -21.799  21.579 -12.139  0.50 57.16 LIG-0.27  OA
ATOM      3  N   LEU P   3     -19.576  22.130 -12.366  0.50 57.16 LIG-0.35  N 
ATOM      4 H    LEU P   3     -19.031  22.794 -12.415  0.50 57.16 LIG 0.16  HD
ENDROOT
BRANCH 3 5
ATOM      5  CA  LEU P   3     -18.872  20.908 -12.157  0.50 57.19 LIG 0.18  C 
BRANCH 5 6
ATOM      6  CB  LEU P   3     -18.799  20.006 -13.372  0.50 57.26 LIG 0.04  C 
BRANCH 6 7
ATOM      7  CG  LEU P   3     -19.623  18.786 -12.944  0.50 57.44 LIG-0.02  C 
ATOM      8  CD1 LEU P   3     -21.108  18.991 -13.183  0.50 57.60 LIG 0.01  C 
ATOM      9  CD2 LEU P   3     -19.114  17.496 -13.582  0.50 57.51 LIG 0.01  C 
ENDBRANCH 6 7
ENDBRANCH 5 6
BRANCH 5 10
ATOM     10  C   LEU P   3     -17.520  21.500 -11.784  0.50 57.14 LIG 0.24  C 
ATOM     11  N   HIS P   4     -17.555  22.751 -11.327  0.50 57.08 LIG-0.35  N 
ATOM     12 H    HIS P   4     -18.284  23.198 -11.235  0.50 57.08 LIG 0.16  HD
ATOM     13 O    LEU P   3     -16.478  20.874 -11.966  0.50 57.14 LIG-0.27  OA
BRANCH 11 14
ATOM     14  CA  HIS P   4     -16.360  23.497 -10.933  0.50 57.02 LIG 0.17  C 
BRANCH 14 15
ATOM     15  CB  HIS P   4     -16.754  24.877 -10.372  0.50 56.94 LIG 0.09  C 
BRANCH 15 16
ATOM     16  CG  HIS P   4     -16.547  26.021 -11.324  0.50 56.80 LIG 0.05  A 
ATOM     17 ND1  HIS P   4     -16.611  27.343 -10.939  0.50 56.77 LIG-0.25  NA
ATOM     18  CE1 HIS P   4     -16.399  28.118 -11.988  0.50 56.50 LIG 0.21  A 
ATOM     19  NE2 HIS P   4     -16.206  27.348 -13.042  0.50 56.43 LIG-0.36  N 
ATOM     20 HE2  HIS P   4     -16.049  27.625 -13.841  0.50 56.43 LIG 0.17  HD
ATOM     21  CD2 HIS P   4     -16.298  26.032 -12.656  0.50 56.57 LIG 0.12  A 
ENDBRANCH 15 16
ENDBRANCH 14 15
BRANCH 14 22
ATOM     22  C   HIS P   4     -15.559  22.695  -9.911  0.50 57.04 LIG 0.22  C 
ATOM     23 O    HIS P   4     -14.862  21.743 -10.260  0.50 57.12 LIG-0.29  OA
ENDBRANCH 14 22
ENDBRANCH 11 14
ENDBRANCH 5 10
ENDBRANCH 3 5
BRANCH 1 24
ATOM     24  CA  LEU P   2     -21.031  23.669 -13.115  0.50 57.16 LIG 0.18  C 
BRANCH 24 25
ATOM     25  N   LEU P   2     -20.087  24.183 -14.075  0.50 57.19 LIG-0.35  N 
ATOM     26  C   VAL P   1     -19.776  23.434 -15.121  0.50 57.27 LIG 0.25  C 
ATOM     27 O    VAL P   1     -20.431  22.439 -15.448  0.50 57.24 LIG-0.27  OA
ATOM     28 H    LEU P   2     -19.773  24.966 -13.909  0.50 57.19 LIG 0.16  HD
BRANCH 26 29
ATOM     29  CA  VAL P   1     -18.584  23.910 -15.924  0.50 57.27 LIG 0.28  C 
BRANCH 29 30
ATOM     30  CB  VAL P   1     -17.290  23.742 -15.107  0.50 57.30 LIG 0.02  C 
ATOM     31  CG2 VAL P   1     -16.142  24.502 -15.753  0.50 57.34 LIG 0.01  C 
ATOM     32  CG1 VAL P   1     -16.948  22.268 -14.935  0.50 57.33 LIG 0.01  C 
ENDBRANCH 29 30
BRANCH 29 33
ATOM     33  N   VAL P   1     -18.820  25.342 -16.260  0.50 57.23 LIG-0.07  N 
ATOM     34 H3   VAL P   1     -18.046  25.782 -16.248  0.50 57.23 LIG 0.28  HD
ATOM     35 H2   VAL P   1     -19.372  25.700 -15.661  0.50 57.23 LIG 0.28  HD
ATOM     36 H1   VAL P   1     -19.182  25.401 -17.071  0.50 57.23 LIG 0.28  HD
ENDBRANCH 29 33
ENDBRANCH 26 29
ENDBRANCH 24 25
BRANCH 24 37
ATOM     37  CB  LEU P   2     -22.420  23.538 -13.752  0.50 57.14 LIG 0.04  C 
BRANCH 37 38
ATOM     38  CG  LEU P   2     -23.382  24.660 -14.075  0.50 56.96 LIG-0.02  C 
ATOM     39  CD1 LEU P   2     -22.820  25.944 -13.471  0.50 57.03 LIG 0.01  C 
ATOM     40  CD2 LEU P   2     -23.548  24.771 -15.567  0.50 56.70 LIG 0.01  C 
ENDBRANCH 37 38
ENDBRANCH 24 37
ENDBRANCH 1 24
TORSDOF 15
ENDMDL
MODEL 59
USER: ADFR SOLUTION from run 73
USER: SCORE 12.148831 LL:  -3.023 LR: -10.902 RR:   0.000 FEB:  -6.427
USER: RMSD 6.243720
USER: SEED 72
USER: STATUS no improvement in best 17 clusters for 5 generations
USER: GENES 17
USER: genes 0 Translation |==|  0.60729 0.55380 0.61809
USER: genes 1 Rotation |==|  0.47226 0.00376 0.47666 0.54932
USER: genes 2 Torsion [C]-N--CA-[CB] |==|  0.37677
USER: genes 3 Torsion [N]-CA--CB-[CG] |==|  0.70193
USER: genes 4 Torsion [CA]-CB--CG-[CD1] |==|  0.36606
USER: genes 5 Torsion [N]-CA--C-[N] |==|  0.62644
USER: genes 6 Torsion [C]-N--CA-[CB] |==|  0.81092
USER: genes 7 Torsion [N]-CA--CB-[CG] |==|  0.89876
USER: genes 8 Torsion [CA]-CB--CG-[ND1] |==|  0.93084
USER: genes 9 Torsion [N]-CA--C-[O] |==|  0.08096
USER: genes 10 Torsion [N]-C--CA-[N] |==|  0.05000
USER: genes 11 Torsion [C]-CA--N-[C] |==|  0.69548
USER: genes 12 Torsion [N]-C--CA-[N] |==|  0.93066
USER: genes 13 Torsion [C]-CA--CB-[CG2] |==|  0.80184
USER: genes 14 Torsion [C]-CA--N-[H3] |==|  0.33039
USER: genes 15 Torsion [C]-CA--CB-[CG] |==|  0.38068
USER: genes 16 Torsion [CA]-CB--CG-[CD1] |==|  0.15420
ROOT
ATOM      1  C   LEU P   2     -16.811  23.934 -11.217  0.50 57.15 LIG 0.24  C 
ATOM      2 O    LEU P   2     -16.755  23.818  -9.988  0.50 57.16 LIG-0.27  OA
ATOM      3  N   LEU P   3     -17.234  23.049 -12.102  0.50 57.16 LIG-0.35  N 
ATOM      4 H    LEU P   3     -17.019  23.130 -12.932  0.50 57.16 LIG 0.16  HD
ENDROOT
BRANCH 3 5
ATOM      5  CA  LEU P   3     -18.047  21.896 -11.898  0.50 57.19 LIG 0.18  C 
BRANCH 5 6
ATOM      6  CB  LEU P   3     -19.149  21.710 -12.922  0.50 57.26 LIG 0.04  C 
BRANCH 6 7
ATOM      7  CG  LEU P   3     -20.415  22.066 -12.133  0.50 57.44 LIG-0.02  C 
ATOM      8  CD1 LEU P   3     -21.304  23.033 -12.894  0.50 57.60 LIG 0.01  C 
ATOM      9  CD2 LEU P   3     -21.177  20.825 -11.679  0.50 57.51 LIG 0.01  C 
ENDBRANCH 6 7
ENDBRANCH 5 6
BRANCH 5 10
ATOM     10  C   LEU P   3     -16.957  20.839 -12.012  0.50 57.14 LIG 0.24  C 
ATOM     11  N   HIS P   4     -17.263  19.787 -12.771  0.50 57.08 LIG-0.35  N 
ATOM     12 H    HIS P   4     -18.016  19.706 -13.179  0.50 57.08 LIG 0.16  HD
ATOM     13 O    LEU P   3     -15.905  20.939 -11.385  0.50 57.14 LIG-0.27  OA
BRANCH 11 14
ATOM     14  CA  HIS P   4     -16.356  18.662 -12.989  0.50 57.02 LIG 0.17  C 
BRANCH 14 15
ATOM     15  CB  HIS P   4     -15.141  19.111 -13.824  0.50 56.94 LIG 0.09  C 
BRANCH 15 16
ATOM     16  CG  HIS P   4     -15.454  20.122 -14.889  0.50 56.80 LIG 0.05  A 
ATOM     17 ND1  HIS P   4     -16.704  20.258 -15.455  0.50 56.77 LIG-0.25  NA
ATOM     18  CE1 HIS P   4     -16.674  21.216 -16.364  0.50 56.50 LIG 0.21  A 
ATOM     19  NE2 HIS P   4     -15.448  21.704 -16.415  0.50 56.43 LIG-0.36  N 
ATOM     20 HE2  HIS P   4     -15.183  22.338 -16.932  0.50 56.43 LIG 0.17  HD
ATOM     21  CD2 HIS P   4     -14.665  21.035 -15.506  0.50 56.57 LIG 0.12  A 
ENDBRANCH 15 16
ENDBRANCH 14 15
BRANCH 14 22
ATOM     22  C   HIS P   4     -15.917  18.080 -11.648  0.50 57.04 LIG 0.22  C 
ATOM     23 O    HIS P   4     -16.649  18.145 -10.661  0.50 57.12 LIG-0.29  OA
ENDBRANCH 14 22
ENDBRANCH 11 14
ENDBRANCH 5 10
ENDBRANCH 3 5
BRANCH 1 24
ATOM     24  CA  LEU P   2     -16.397  25.130 -12.002  0.50 57.16 LIG 0.18  C 
BRANCH 24 25
ATOM     25  N   LEU P   2     -16.823  25.349 -13.361  0.50 57.19 LIG-0.35  N 
ATOM     26  C   VAL P   1     -15.929  25.236 -14.331  0.50 57.27 LIG 0.25  C 
ATOM     27 O    VAL P   1     -14.823  24.714 -14.161  0.50 57.24 LIG-0.27  OA
ATOM     28 H    LEU P   2     -17.653  25.545 -13.467  0.50 57.19 LIG 0.16  HD
BRANCH 26 29
ATOM     29  CA  VAL P   1     -16.375  25.750 -15.684  0.50 57.27 LIG 0.28  C 
BRANCH 29 30
ATOM     30  CB  VAL P   1     -15.885  27.194 -15.892  0.50 57.30 LIG 0.02  C 
ATOM     31  CG2 VAL P   1     -16.654  28.159 -15.003  0.50 57.34 LIG 0.01  C 
ATOM     32  CG1 VAL P   1     -15.990  27.593 -17.359  0.50 57.33 LIG 0.01  C 
ENDBRANCH 29 30
BRANCH 29 33
ATOM     33  N   VAL P   1     -17.863  25.684 -15.713  0.50 57.23 LIG-0.07  N 
ATOM     34 H3   VAL P   1     -18.195  26.502 -15.826  0.50 57.23 LIG 0.28  HD
ATOM     35 H2   VAL P   1     -18.161  25.347 -14.945  0.50 57.23 LIG 0.28  HD
ATOM     36 H1   VAL P   1     -18.124  25.163 -16.386  0.50 57.23 LIG 0.28  HD
ENDBRANCH 29 33
ENDBRANCH 26 29
ENDBRANCH 24 25
BRANCH 24 37
ATOM     37  CB  LEU P   2     -16.895  26.265 -11.099  0.50 57.14 LIG 0.04  C 
BRANCH 37 38
ATOM     38  CG  LEU P   2     -16.159  27.539 -10.748  0.50 56.96 LIG-0.02  C 
ATOM     39  CD1 LEU P   2     -15.783  28.234 -12.054  0.50 57.03 LIG 0.01  C 
ATOM     40  CD2 LEU P   2     -17.034  28.409  -9.885  0.50 56.70 LIG 0.01  C 
ENDBRANCH 37 38
ENDBRANCH 24 37
ENDBRANCH 1 24
TORSDOF 15
ENDMDL
MODEL 60
USER: ADFR SOLUTION from run 29
USER: SCORE 12.670019 LL:  -2.980 LR: -10.902 RR:   0.000 FEB:  -6.428
USER: RMSD 6.397413
USER: SEED 28
USER: STATUS no improvement in best 15 clusters for 5 generations
USER: GENES 17
USER: genes 0 Translation |==|  0.60477 0.47685 0.57655
USER: genes 1 Rotation |==|  0.56531 0.03046 0.46647 0.65537
USER: genes 2 Torsion [C]-N--CA-[CB] |==|  0.97100
USER: genes 3 Torsion [N]-CA--CB-[CG] |==|  0.71451
USER: genes 4 Torsion [CA]-CB--CG-[CD1] |==|  0.28559
USER: genes 5 Torsion [N]-CA--C-[N] |==|  0.32603
USER: genes 6 Torsion [C]-N--CA-[CB] |==|  0.52166
USER: genes 7 Torsion [N]-CA--CB-[CG] |==|  0.17846
USER: genes 8 Torsion [CA]-CB--CG-[ND1] |==|  0.47131
USER: genes 9 Torsion [N]-CA--C-[O] |==|  0.58115
USER: genes 10 Torsion [N]-C--CA-[N] |==|  0.09460
USER: genes 11 Torsion [C]-CA--N-[C] |==|  0.15763
USER: genes 12 Torsion [N]-C--CA-[N] |==|  0.36498
USER: genes 13 Torsion [C]-CA--CB-[CG2] |==|  0.77685
USER: genes 14 Torsion [C]-CA--N-[H3] |==|  0.00391
USER: genes 15 Torsion [C]-CA--CB-[CG] |==|  0.29526
USER: genes 16 Torsion [CA]-CB--CG-[CD1] |==|  0.17225
ROOT
ATOM      1  C   LEU P   2     -16.887  21.626 -12.463  0.50 57.15 LIG 0.24  C 
ATOM      2 O    LEU P   2     -16.289  21.512 -11.387  0.50 57.16 LIG-0.27  OA
ATOM      3  N   LEU P   3     -17.308  20.666 -13.269  0.50 57.16 LIG-0.35  N 
ATOM      4 H    LEU P   3     -17.499  20.843 -14.089  0.50 57.16 LIG 0.16  HD
ENDROOT
BRANCH 3 5
ATOM      5  CA  LEU P   3     -17.515  19.285 -12.985  0.50 57.19 LIG 0.18  C 
BRANCH 5 6
ATOM      6  CB  LEU P   3     -16.974  18.827 -11.646  0.50 57.26 LIG 0.04  C 
BRANCH 6 7
ATOM      7  CG  LEU P   3     -15.681  18.097 -12.028  0.50 57.44 LIG-0.02  C 
ATOM      8  CD1 LEU P   3     -14.450  18.940 -11.749  0.50 57.60 LIG 0.01  C 
ATOM      9  CD2 LEU P   3     -15.588  16.717 -11.384  0.50 57.51 LIG 0.01  C 
ENDBRANCH 6 7
ENDBRANCH 5 6
BRANCH 5 10
ATOM     10  C   LEU P   3     -19.037  19.280 -13.035  0.50 57.14 LIG 0.24  C 
ATOM     11  N   HIS P   4     -19.570  18.514 -13.988  0.50 57.08 LIG-0.35  N 
ATOM     12 H    HIS P   4     -19.098  18.046 -14.532  0.50 57.08 LIG 0.16  HD
ATOM     13 O    LEU P   3     -19.702  19.992 -12.287  0.50 57.14 LIG-0.27  OA
BRANCH 11 14
ATOM     14  CA  HIS P   4     -21.011  18.392 -14.207  0.50 57.02 LIG 0.17  C 
BRANCH 14 15
ATOM     15  CB  HIS P   4     -21.300  17.290 -15.246  0.50 56.94 LIG 0.09  C 
BRANCH 15 16
ATOM     16  CG  HIS P   4     -20.901  15.907 -14.817  0.50 56.80 LIG 0.05  A 
ATOM     17 ND1  HIS P   4     -21.261  14.771 -15.510  0.50 56.77 LIG-0.25  NA
ATOM     18  CE1 HIS P   4     -20.778  13.707 -14.892  0.50 56.50 LIG 0.21  A 
ATOM     19  NE2 HIS P   4     -20.123  14.110 -13.820  0.50 56.43 LIG-0.36  N 
ATOM     20 HE2  HIS P   4     -19.720  13.598 -13.258  0.50 56.43 LIG 0.17  HD
ATOM     21  CD2 HIS P   4     -20.188  15.481 -13.747  0.50 56.57 LIG 0.12  A 
ENDBRANCH 15 16
ENDBRANCH 14 15
BRANCH 14 22
ATOM     22  C   HIS P   4     -21.715  18.100 -12.885  0.50 57.04 LIG 0.22  C 
ATOM     23 O    HIS P   4     -22.763  17.455 -12.856  0.50 57.12 LIG-0.29  OA
ENDBRANCH 14 22
ENDBRANCH 11 14
ENDBRANCH 5 10
ENDBRANCH 3 5
BRANCH 1 24
ATOM     24  CA  LEU P   2     -17.272  22.907 -13.118  0.50 57.16 LIG 0.18  C 
BRANCH 24 25
ATOM     25  N   LEU P   2     -18.477  23.047 -13.895  0.50 57.19 LIG-0.35  N 
ATOM     26  C   VAL P   1     -19.635  22.760 -13.324  0.50 57.27 LIG 0.25  C 
ATOM     27 O    VAL P   1     -19.762  22.624 -12.103  0.50 57.24 LIG-0.27  OA
ATOM     28 H    LEU P   2     -18.372  23.315 -14.705  0.50 57.19 LIG 0.16  HD
BRANCH 26 29
ATOM     29  CA  VAL P   1     -20.815  22.658 -14.269  0.50 57.27 LIG 0.28  C 
BRANCH 29 30
ATOM     30  CB  VAL P   1     -21.743  23.873 -14.094  0.50 57.30 LIG 0.02  C 
ATOM     31  CG2 VAL P   1     -22.648  23.691 -12.885  0.50 57.34 LIG 0.01  C 
ATOM     32  CG1 VAL P   1     -22.557  24.116 -15.359  0.50 57.33 LIG 0.01  C 
ENDBRANCH 29 30
BRANCH 29 33
ATOM     33  N   VAL P   1     -21.530  21.391 -13.947  0.50 57.23 LIG-0.07  N 
ATOM     34 H3   VAL P   1     -21.126  20.986 -13.265  0.50 57.23 LIG 0.28  HD
ATOM     35 H2   VAL P   1     -21.520  20.855 -14.657  0.50 57.23 LIG 0.28  HD
ATOM     36 H1   VAL P   1     -22.373  21.574 -13.726  0.50 57.23 LIG 0.28  HD
ENDBRANCH 29 33
ENDBRANCH 26 29
ENDBRANCH 24 25
BRANCH 24 37
ATOM     37  CB  LEU P   2     -17.301  23.857 -11.915  0.50 57.14 LIG 0.04  C 
BRANCH 37 38
ATOM     38  CG  LEU P   2     -16.286  24.927 -11.575  0.50 56.96 LIG-0.02  C 
ATOM     39  CD1 LEU P   2     -16.281  25.942 -12.714  0.50 57.03 LIG 0.01  C 
ATOM     40  CD2 LEU P   2     -16.646  25.566 -10.260  0.50 56.70 LIG 0.01  C 
ENDBRANCH 37 38
ENDBRANCH 24 37
ENDBRANCH 1 24
TORSDOF 15
ENDMDL
MODEL 61
USER: ADFR SOLUTION from run 1
USER: SCORE 13.171127 LL:  -3.103 LR: -10.895 RR:   0.000 FEB:  -6.421
USER: RMSD 8.583258
USER: SEED 963143
USER: STATUS no improvement in best 21 clusters for 5 generations
USER: GENES 17
USER: genes 0 Translation |==|  0.63479 0.59417 0.53252
USER: genes 1 Rotation |==|  0.16935 0.44938 0.85679 0.60395
USER: genes 2 Torsion [C]-N--CA-[CB] |==|  0.80442
USER: genes 3 Torsion [N]-CA--CB-[CG] |==|  0.76237
USER: genes 4 Torsion [CA]-CB--CG-[CD1] |==|  0.84859
USER: genes 5 Torsion [N]-CA--C-[N] |==|  0.20484
USER: genes 6 Torsion [C]-N--CA-[CB] |==|  0.81118
USER: genes 7 Torsion [N]-CA--CB-[CG] |==|  0.39828
USER: genes 8 Torsion [CA]-CB--CG-[ND1] |==|  0.72360
USER: genes 9 Torsion [N]-CA--C-[O] |==|  0.02054
USER: genes 10 Torsion [N]-C--CA-[N] |==|  0.02620
USER: genes 11 Torsion [C]-CA--N-[C] |==|  0.62778
USER: genes 12 Torsion [N]-C--CA-[N] |==|  0.98980
USER: genes 13 Torsion [C]-CA--CB-[CG2] |==|  0.22310
USER: genes 14 Torsion [C]-CA--N-[H3] |==|  0.06080
USER: genes 15 Torsion [C]-CA--CB-[CG] |==|  0.33405
USER: genes 16 Torsion [CA]-CB--CG-[CD1] |==|  0.70557
ROOT
ATOM      1  C   LEU P   2     -15.986  25.145 -13.784  0.50 57.15 LIG 0.24  C 
ATOM      2 O    LEU P   2     -14.786  25.070 -14.072  0.50 57.16 LIG-0.27  OA
ATOM      3  N   LEU P   3     -16.670  26.211 -13.407  0.50 57.16 LIG-0.35  N 
ATOM      4 H    LEU P   3     -17.428  26.120 -13.009  0.50 57.16 LIG 0.16  HD
ENDROOT
BRANCH 3 5
ATOM      5  CA  LEU P   3     -16.338  27.589 -13.558  0.50 57.19 LIG 0.18  C 
BRANCH 5 6
ATOM      6  CB  LEU P   3     -15.192  28.062 -12.687  0.50 57.26 LIG 0.04  C 
BRANCH 6 7
ATOM      7  CG  LEU P   3     -15.888  28.414 -11.366  0.50 57.44 LIG-0.02  C 
ATOM      8  CD1 LEU P   3     -17.026  29.399 -11.569  0.50 57.60 LIG 0.01  C 
ATOM      9  CD2 LEU P   3     -16.336  27.171 -10.603  0.50 57.51 LIG 0.01  C 
ENDBRANCH 6 7
ENDBRANCH 5 6
BRANCH 5 10
ATOM     10  C   LEU P   3     -15.977  27.562 -15.037  0.50 57.14 LIG 0.24  C 
ATOM     11  N   HIS P   4     -17.010  27.457 -15.872  0.50 57.08 LIG-0.35  N 
ATOM     12 H    HIS P   4     -17.827  27.417 -15.605  0.50 57.08 LIG 0.16  HD
ATOM     13 O    LEU P   3     -14.805  27.568 -15.407  0.50 57.14 LIG-0.27  OA
BRANCH 11 14
ATOM     14  CA  HIS P   4     -16.867  27.398 -17.326  0.50 57.02 LIG 0.17  C 
BRANCH 14 15
ATOM     15  CB  HIS P   4     -16.361  28.750 -17.867  0.50 56.94 LIG 0.09  C 
BRANCH 15 16
ATOM     16  CG  HIS P   4     -15.404  28.643 -19.020  0.50 56.80 LIG 0.05  A 
ATOM     17 ND1  HIS P   4     -14.037  28.744 -18.876  0.50 56.77 LIG-0.25  NA
ATOM     18  CE1 HIS P   4     -13.460  28.622 -20.058  0.50 56.50 LIG 0.21  A 
ATOM     19  NE2 HIS P   4     -14.403  28.452 -20.966  0.50 56.43 LIG-0.36  N 
ATOM     20 HE2  HIS P   4     -14.271  28.348 -21.810  0.50 56.43 LIG 0.17  HD
ATOM     21  CD2 HIS P   4     -15.628  28.465 -20.344  0.50 56.57 LIG 0.12  A 
ENDBRANCH 15 16
ENDBRANCH 14 15
BRANCH 14 22
ATOM     22  C   HIS P   4     -15.921  26.263 -17.710  0.50 57.04 LIG 0.22  C 
ATOM     23 O    HIS P   4     -15.510  25.470 -16.864  0.50 57.12 LIG-0.29  OA
ENDBRANCH 14 22
ENDBRANCH 11 14
ENDBRANCH 5 10
ENDBRANCH 3 5
BRANCH 1 24
ATOM     24  CA  LEU P   2     -16.959  24.017 -13.792  0.50 57.16 LIG 0.18  C 
BRANCH 24 25
ATOM     25  N   LEU P   2     -18.377  24.218 -13.632  0.50 57.19 LIG-0.35  N 
ATOM     26  C   VAL P   1     -19.037  23.433 -12.795  0.50 57.27 LIG 0.25  C 
ATOM     27 O    VAL P   1     -18.469  22.713 -11.967  0.50 57.24 LIG-0.27  OA
ATOM     28 H    LEU P   2     -18.722  24.851 -14.100  0.50 57.19 LIG 0.16  HD
BRANCH 26 29
ATOM     29  CA  VAL P   1     -20.546  23.512 -12.888  0.50 57.27 LIG 0.28  C 
BRANCH 29 30
ATOM     30  CB  VAL P   1     -21.125  22.152 -13.318  0.50 57.30 LIG 0.02  C 
ATOM     31  CG2 VAL P   1     -21.210  21.203 -12.132  0.50 57.34 LIG 0.01  C 
ATOM     32  CG1 VAL P   1     -20.302  21.548 -14.448  0.50 57.33 LIG 0.01  C 
ENDBRANCH 29 30
BRANCH 29 33
ATOM     33  N   VAL P   1     -20.872  24.569 -13.887  0.50 57.23 LIG-0.07  N 
ATOM     34 H3   VAL P   1     -20.176  24.694 -14.426  0.50 57.23 LIG 0.28  HD
ATOM     35 H2   VAL P   1     -21.060  25.329 -13.465  0.50 57.23 LIG 0.28  HD
ATOM     36 H1   VAL P   1     -21.577  24.315 -14.368  0.50 57.23 LIG 0.28  HD
ENDBRANCH 29 33
ENDBRANCH 26 29
ENDBRANCH 24 25
BRANCH 24 37
ATOM     37  CB  LEU P   2     -16.663  23.379 -15.154  0.50 57.14 LIG 0.04  C 
BRANCH 37 38
ATOM     38  CG  LEU P   2     -16.201  21.962 -15.415  0.50 56.96 LIG-0.02  C 
ATOM     39  CD1 LEU P   2     -14.724  22.015 -15.794  0.50 57.03 LIG 0.01  C 
ATOM     40  CD2 LEU P   2     -16.433  21.120 -14.188  0.50 56.70 LIG 0.01  C 
ENDBRANCH 37 38
ENDBRANCH 24 37
ENDBRANCH 1 24
TORSDOF 15
ENDMDL
MODEL 62
USER: ADFR SOLUTION from run 91
USER: SCORE 13.587047 LL:  -3.226 LR: -10.867 RR:   0.000 FEB:  -6.393
USER: RMSD 7.956519
USER: SEED 90
USER: STATUS no improvement in best 24 clusters for 5 generations
USER: GENES 17
USER: genes 0 Translation |==|  0.61695 0.55132 0.61280
USER: genes 1 Rotation |==|  0.14365 0.44652 0.84029 0.56599
USER: genes 2 Torsion [C]-N--CA-[CB] |==|  0.78333
USER: genes 3 Torsion [N]-CA--CB-[CG] |==|  0.56674
USER: genes 4 Torsion [CA]-CB--CG-[CD1] |==|  0.32164
USER: genes 5 Torsion [N]-CA--C-[N] |==|  0.18897
USER: genes 6 Torsion [C]-N--CA-[CB] |==|  0.84694
USER: genes 7 Torsion [N]-CA--CB-[CG] |==|  0.63502
USER: genes 8 Torsion [CA]-CB--CG-[ND1] |==|  0.72710
USER: genes 9 Torsion [N]-CA--C-[O] |==|  0.76593
USER: genes 10 Torsion [N]-C--CA-[N] |==|  0.06005
USER: genes 11 Torsion [C]-CA--N-[C] |==|  0.16304
USER: genes 12 Torsion [N]-C--CA-[N] |==|  0.42286
USER: genes 13 Torsion [C]-CA--CB-[CG2] |==|  0.19364
USER: genes 14 Torsion [C]-CA--N-[H3] |==|  0.32491
USER: genes 15 Torsion [C]-CA--CB-[CG] |==|  0.44772
USER: genes 16 Torsion [CA]-CB--CG-[CD1] |==|  0.73936
ROOT
ATOM      1  C   LEU P   2     -16.521  23.860 -11.376  0.50 57.15 LIG 0.24  C 
ATOM      2 O    LEU P   2     -15.291  23.875 -11.496  0.50 57.16 LIG-0.27  OA
ATOM      3  N   LEU P   3     -17.338  24.885 -11.212  0.50 57.16 LIG-0.35  N 
ATOM      4 H    LEU P   3     -18.134  24.760 -10.909  0.50 57.16 LIG 0.16  HD
ENDROOT
BRANCH 3 5
ATOM      5  CA  LEU P   3     -17.105  26.267 -11.474  0.50 57.19 LIG 0.18  C 
BRANCH 5 6
ATOM      6  CB  LEU P   3     -16.282  26.979 -10.420  0.50 57.26 LIG 0.04  C 
BRANCH 6 7
ATOM      7  CG  LEU P   3     -16.699  28.445 -10.591  0.50 57.44 LIG-0.02  C 
ATOM      8  CD1 LEU P   3     -17.406  28.981  -9.359  0.50 57.60 LIG 0.01  C 
ATOM      9  CD2 LEU P   3     -15.529  29.330 -11.009  0.50 57.51 LIG 0.01  C 
ENDBRANCH 6 7
ENDBRANCH 5 6
BRANCH 5 10
ATOM     10  C   LEU P   3     -16.362  26.114 -12.794  0.50 57.14 LIG 0.24  C 
ATOM     11  N   HIS P   4     -17.098  25.668 -13.811  0.50 57.08 LIG-0.35  N 
ATOM     12 H    HIS P   4     -17.936  25.487 -13.741  0.50 57.08 LIG 0.16  HD
ATOM     13 O    LEU P   3     -15.154  26.327 -12.874  0.50 57.14 LIG-0.27  OA
BRANCH 11 14
ATOM     14  CA  HIS P   4     -16.562  25.440 -15.153  0.50 57.02 LIG 0.17  C 
BRANCH 14 15
ATOM     15  CB  HIS P   4     -15.886  26.720 -15.682  0.50 56.94 LIG 0.09  C 
BRANCH 15 16
ATOM     16  CG  HIS P   4     -16.295  27.114 -17.072  0.50 56.80 LIG 0.05  A 
ATOM     17 ND1  HIS P   4     -15.548  26.815 -18.191  0.50 56.77 LIG-0.25  NA
ATOM     18  CE1 HIS P   4     -16.150  27.295 -19.264  0.50 56.50 LIG 0.21  A 
ATOM     19  NE2 HIS P   4     -17.259  27.901 -18.883  0.50 56.43 LIG-0.36  N 
ATOM     20 HE2  HIS P   4     -17.820  28.291 -19.406  0.50 56.43 LIG 0.17  HD
ATOM     21  CD2 HIS P   4     -17.372  27.806 -17.517  0.50 56.57 LIG 0.12  A 
ENDBRANCH 15 16
ENDBRANCH 14 15
BRANCH 14 22
ATOM     22  C   HIS P   4     -15.583  24.270 -15.129  0.50 57.04 LIG 0.22  C 
ATOM     23 O    HIS P   4     -14.405  24.437 -14.813  0.50 57.12 LIG-0.29  OA
ENDBRANCH 14 22
ENDBRANCH 11 14
ENDBRANCH 5 10
ENDBRANCH 3 5
BRANCH 1 24
ATOM     24  CA  LEU P   2     -17.385  22.646 -11.382  0.50 57.16 LIG 0.18  C 
BRANCH 24 25
ATOM     25  N   LEU P   2     -18.793  22.701 -11.686  0.50 57.19 LIG-0.35  N 
ATOM     26  C   VAL P   1     -19.169  23.183 -12.859  0.50 57.27 LIG 0.25  C 
ATOM     27 O    VAL P   1     -18.381  23.353 -13.795  0.50 57.24 LIG-0.27  OA
ATOM     28 H    LEU P   2     -19.320  22.409 -11.072  0.50 57.19 LIG 0.16  HD
BRANCH 26 29
ATOM     29  CA  VAL P   1     -20.650  23.470 -12.995  0.50 57.27 LIG 0.28  C 
BRANCH 29 30
ATOM     30  CB  VAL P   1     -21.397  22.205 -13.453  0.50 57.30 LIG 0.02  C 
ATOM     31  CG2 VAL P   1     -21.419  21.161 -12.346  0.50 57.34 LIG 0.01  C 
ATOM     32  CG1 VAL P   1     -20.779  21.644 -14.727  0.50 57.33 LIG 0.01  C 
ENDBRANCH 29 30
BRANCH 29 33
ATOM     33  N   VAL P   1     -20.798  24.566 -13.994  0.50 57.23 LIG-0.07  N 
ATOM     34 H3   VAL P   1     -21.253  24.267 -14.698  0.50 57.23 LIG 0.28  HD
ATOM     35 H2   VAL P   1     -19.993  24.839 -14.256  0.50 57.23 LIG 0.28  HD
ATOM     36 H1   VAL P   1     -21.237  25.247 -13.624  0.50 57.23 LIG 0.28  HD
ENDBRANCH 29 33
ENDBRANCH 26 29
ENDBRANCH 24 25
BRANCH 24 37
ATOM     37  CB  LEU P   2     -16.654  21.767 -12.404  0.50 57.14 LIG 0.04  C 
BRANCH 37 38
ATOM     38  CG  LEU P   2     -16.789  20.270 -12.579  0.50 56.96 LIG-0.02  C 
ATOM     39  CD1 LEU P   2     -15.690  19.605 -11.756  0.50 57.03 LIG 0.01  C 
ATOM     40  CD2 LEU P   2     -18.160  19.830 -12.138  0.50 56.70 LIG 0.01  C 
ENDBRANCH 37 38
ENDBRANCH 24 37
ENDBRANCH 1 24
TORSDOF 15
ENDMDL
MODEL 63
USER: ADFR SOLUTION from run 98
USER: SCORE 12.420436 LL:  -2.397 LR: -10.865 RR:   0.000 FEB:  -6.390
USER: RMSD 5.589639
USER: SEED 97
USER: STATUS no improvement in best 18 clusters for 5 generations
USER: GENES 17
USER: genes 0 Translation |==|  0.49025 0.45674 0.47608
USER: genes 1 Rotation |==|  0.25005 0.33609 0.86430 0.66716
USER: genes 2 Torsion [C]-N--CA-[CB] |==|  0.48333
USER: genes 3 Torsion [N]-CA--CB-[CG] |==|  0.72370
USER: genes 4 Torsion [CA]-CB--CG-[CD1] |==|  0.69466
USER: genes 5 Torsion [N]-CA--C-[N] |==|  0.43786
USER: genes 6 Torsion [C]-N--CA-[CB] |==|  0.56053
USER: genes 7 Torsion [N]-CA--CB-[CG] |==|  0.71722
USER: genes 8 Torsion [CA]-CB--CG-[ND1] |==|  0.46003
USER: genes 9 Torsion [N]-CA--C-[O] |==|  0.37515
USER: genes 10 Torsion [N]-C--CA-[N] |==|  0.41157
USER: genes 11 Torsion [C]-CA--N-[C] |==|  0.75044
USER: genes 12 Torsion [N]-C--CA-[N] |==|  0.13108
USER: genes 13 Torsion [C]-CA--CB-[CG2] |==|  0.59413
USER: genes 14 Torsion [C]-CA--N-[H3] |==|  0.93092
USER: genes 15 Torsion [C]-CA--CB-[CG] |==|  0.31881
USER: genes 16 Torsion [CA]-CB--CG-[CD1] |==|  0.46408
ROOT
ATOM      1  C   LEU P   2     -20.322  21.022 -15.478  0.50 57.15 LIG 0.24  C 
ATOM      2 O    LEU P   2     -19.212  21.349 -15.912  0.50 57.16 LIG-0.27  OA
ATOM      3  N   LEU P   3     -21.012  21.579 -14.497  0.50 57.16 LIG-0.35  N 
ATOM      4 H    LEU P   3     -21.652  21.146 -14.119  0.50 57.16 LIG 0.16  HD
ENDROOT
BRANCH 3 5
ATOM      5  CA  LEU P   3     -20.860  22.873 -13.918  0.50 57.19 LIG 0.18  C 
BRANCH 5 6
ATOM      6  CB  LEU P   3     -21.921  23.237 -12.900  0.50 57.26 LIG 0.04  C 
BRANCH 6 7
ATOM      7  CG  LEU P   3     -22.884  24.116 -13.708  0.50 57.44 LIG-0.02  C 
ATOM      8  CD1 LEU P   3     -22.821  25.571 -13.278  0.50 57.60 LIG 0.01  C 
ATOM      9  CD2 LEU P   3     -22.685  23.955 -15.212  0.50 57.51 LIG 0.01  C 
ENDBRANCH 6 7
ENDBRANCH 5 6
BRANCH 5 10
ATOM     10  C   LEU P   3     -19.490  22.667 -13.287  0.50 57.14 LIG 0.24  C 
ATOM     11  N   HIS P   4     -18.803  23.784 -13.045  0.50 57.08 LIG-0.35  N 
ATOM     12 H    HIS P   4     -19.107  24.569 -13.219  0.50 57.08 LIG 0.16  HD
ATOM     13 O    LEU P   3     -19.042  21.540 -13.088  0.50 57.14 LIG-0.27  OA
BRANCH 11 14
ATOM     14  CA  HIS P   4     -17.463  23.793 -12.460  0.50 57.02 LIG 0.17  C 
BRANCH 14 15
ATOM     15  CB  HIS P   4     -17.171  25.163 -11.818  0.50 56.94 LIG 0.09  C 
BRANCH 15 16
ATOM     16  CG  HIS P   4     -16.295  26.065 -12.640  0.50 56.80 LIG 0.05  A 
ATOM     17 ND1  HIS P   4     -16.154  27.412 -12.388  0.50 56.77 LIG-0.25  NA
ATOM     18  CE1 HIS P   4     -15.334  27.943 -13.277  0.50 56.50 LIG 0.21  A 
ATOM     19  NE2 HIS P   4     -14.942  26.991 -14.103  0.50 56.43 LIG-0.36  N 
ATOM     20 HE2  HIS P   4     -14.405  27.095 -14.766  0.50 56.43 LIG 0.17  HD
ATOM     21  CD2 HIS P   4     -15.532  25.808 -13.730  0.50 56.57 LIG 0.12  A 
ENDBRANCH 15 16
ENDBRANCH 14 15
BRANCH 14 22
ATOM     22  C   HIS P   4     -17.334  22.666 -11.438  0.50 57.04 LIG 0.22  C 
ATOM     23 O    HIS P   4     -16.337  21.945 -11.415  0.50 57.12 LIG-0.29  OA
ENDBRANCH 14 22
ENDBRANCH 11 14
ENDBRANCH 5 10
ENDBRANCH 3 5
BRANCH 1 24
ATOM     24  CA  LEU P   2     -21.155  19.890 -15.971  0.50 57.16 LIG 0.18  C 
BRANCH 24 25
ATOM     25  N   LEU P   2     -21.146  19.466 -17.348  0.50 57.19 LIG-0.35  N 
ATOM     26  C   VAL P   1     -22.005  20.021 -18.187  0.50 57.27 LIG 0.25  C 
ATOM     27 O    VAL P   1     -22.636  21.048 -17.916  0.50 57.24 LIG-0.27  OA
ATOM     28 H    LEU P   2     -20.568  18.862 -17.550  0.50 57.19 LIG 0.16  HD
BRANCH 26 29
ATOM     29  CA  VAL P   1     -22.130  19.335 -19.532  0.50 57.27 LIG 0.28  C 
BRANCH 29 30
ATOM     30  CB  VAL P   1     -23.353  19.878 -20.294  0.50 57.30 LIG 0.02  C 
ATOM     31  CG2 VAL P   1     -23.993  18.784 -21.135  0.50 57.34 LIG 0.01  C 
ATOM     32  CG1 VAL P   1     -22.965  21.076 -21.152  0.50 57.33 LIG 0.01  C 
ENDBRANCH 29 30
BRANCH 29 33
ATOM     33  N   VAL P   1     -22.271  17.875 -19.272  0.50 57.23 LIG-0.07  N 
ATOM     34 H3   VAL P   1     -21.905  17.676 -18.486  0.50 57.23 LIG 0.28  HD
ATOM     35 H2   VAL P   1     -21.858  17.418 -19.914  0.50 57.23 LIG 0.28  HD
ATOM     36 H1   VAL P   1     -23.134  17.657 -19.261  0.50 57.23 LIG 0.28  HD
ENDBRANCH 29 33
ENDBRANCH 26 29
ENDBRANCH 24 25
BRANCH 24 37
ATOM     37  CB  LEU P   2     -20.679  18.753 -15.060  0.50 57.14 LIG 0.04  C 
BRANCH 37 38
ATOM     38  CG  LEU P   2     -21.495  18.015 -14.021  0.50 56.96 LIG-0.02  C 
ATOM     39  CD1 LEU P   2     -20.709  16.775 -13.605  0.50 57.03 LIG 0.01  C 
ATOM     40  CD2 LEU P   2     -21.765  18.923 -12.851  0.50 56.70 LIG 0.01  C 
ENDBRANCH 37 38
ENDBRANCH 24 37
ENDBRANCH 1 24
TORSDOF 15
ENDMDL
MODEL 64
USER: ADFR SOLUTION from run 109
USER: SCORE 13.822782 LL:  -3.137 LR: -10.859 RR:   0.000 FEB:  -6.384
USER: RMSD 4.853825
USER: SEED 108
USER: STATUS no improvement in best 24 clusters for 5 generations
USER: GENES 17
USER: genes 0 Translation |==|  0.53204 0.54251 0.47915
USER: genes 1 Rotation |==|  0.23095 0.38756 0.45343 0.90349
USER: genes 2 Torsion [C]-N--CA-[CB] |==|  0.86655
USER: genes 3 Torsion [N]-CA--CB-[CG] |==|  0.72088
USER: genes 4 Torsion [CA]-CB--CG-[CD1] |==|  0.14423
USER: genes 5 Torsion [N]-CA--C-[N] |==|  0.37361
USER: genes 6 Torsion [C]-N--CA-[CB] |==|  0.39808
USER: genes 7 Torsion [N]-CA--CB-[CG] |==|  0.76741
USER: genes 8 Torsion [CA]-CB--CG-[ND1] |==|  0.46030
USER: genes 9 Torsion [N]-CA--C-[O] |==|  0.07698
USER: genes 10 Torsion [N]-C--CA-[N] |==|  0.89483
USER: genes 11 Torsion [C]-CA--N-[C] |==|  0.85556
USER: genes 12 Torsion [N]-C--CA-[N] |==|  0.47662
USER: genes 13 Torsion [C]-CA--CB-[CG2] |==|  0.85397
USER: genes 14 Torsion [C]-CA--N-[H3] |==|  0.76956
USER: genes 15 Torsion [C]-CA--CB-[CG] |==|  0.40866
USER: genes 16 Torsion [CA]-CB--CG-[CD1] |==|  0.13046
ROOT
ATOM      1  C   LEU P   2     -19.069  23.595 -15.386  0.50 57.15 LIG 0.24  C 
ATOM      2 O    LEU P   2     -18.592  22.495 -15.687  0.50 57.16 LIG-0.27  OA
ATOM      3  N   LEU P   3     -19.557  23.982 -14.220  0.50 57.16 LIG-0.35  N 
ATOM      4 H    LEU P   3     -20.071  24.671 -14.173  0.50 57.16 LIG 0.16  HD
ENDROOT
BRANCH 3 5
ATOM      5  CA  LEU P   3     -19.361  23.406 -12.931  0.50 57.19 LIG 0.18  C 
BRANCH 5 6
ATOM      6  CB  LEU P   3     -19.552  21.904 -12.875  0.50 57.26 LIG 0.04  C 
BRANCH 6 7
ATOM      7  CG  LEU P   3     -20.964  21.759 -12.293  0.50 57.44 LIG-0.02  C 
ATOM      8  CD1 LEU P   3     -21.981  22.585 -13.059  0.50 57.60 LIG 0.01  C 
ATOM      9  CD2 LEU P   3     -21.388  20.298 -12.172  0.50 57.51 LIG 0.01  C 
ENDBRANCH 6 7
ENDBRANCH 5 6
BRANCH 5 10
ATOM     10  C   LEU P   3     -17.910  23.820 -12.728  0.50 57.14 LIG 0.24  C 
ATOM     11  N   HIS P   4     -17.627  24.329 -11.529  0.50 57.08 LIG-0.35  N 
ATOM     12 H    HIS P   4     -18.213  24.412 -10.905  0.50 57.08 LIG 0.16  HD
ATOM     13 O    LEU P   3     -17.092  23.745 -13.642  0.50 57.14 LIG-0.27  OA
BRANCH 11 14
ATOM     14  CA  HIS P   4     -16.296  24.799 -11.149  0.50 57.02 LIG 0.17  C 
BRANCH 14 15
ATOM     15  CB  HIS P   4     -16.408  26.045 -10.249  0.50 56.94 LIG 0.09  C 
BRANCH 15 16
ATOM     16  CG  HIS P   4     -16.569  27.340 -10.993  0.50 56.80 LIG 0.05  A 
ATOM     17 ND1  HIS P   4     -16.967  28.513 -10.387  0.50 56.77 LIG-0.25  NA
ATOM     18  CE1 HIS P   4     -17.030  29.476 -11.289  0.50 56.50 LIG 0.21  A 
ATOM     19  NE2 HIS P   4     -16.693  28.970 -12.461  0.50 56.43 LIG-0.36  N 
ATOM     20 HE2  HIS P   4     -16.659  29.406 -13.202  0.50 56.43 LIG 0.17  HD
ATOM     21  CD2 HIS P   4     -16.404  27.636 -12.304  0.50 56.57 LIG 0.12  A 
ENDBRANCH 15 16
ENDBRANCH 14 15
BRANCH 14 22
ATOM     22  C   HIS P   4     -15.530  23.681 -10.448  0.50 57.04 LIG 0.22  C 
ATOM     23 O    HIS P   4     -15.771  22.499 -10.693  0.50 57.12 LIG-0.29  OA
ENDBRANCH 14 22
ENDBRANCH 11 14
ENDBRANCH 5 10
ENDBRANCH 3 5
BRANCH 1 24
ATOM     24  CA  LEU P   2     -19.212  24.765 -16.297  0.50 57.16 LIG 0.18  C 
BRANCH 24 25
ATOM     25  N   LEU P   2     -20.358  25.638 -16.260  0.50 57.19 LIG-0.35  N 
ATOM     26  C   VAL P   1     -21.565  25.101 -16.328  0.50 57.27 LIG 0.25  C 
ATOM     27 O    VAL P   1     -21.769  23.893 -16.169  0.50 57.24 LIG-0.27  OA
ATOM     28 H    LEU P   2     -20.187  26.478 -16.194  0.50 57.19 LIG 0.16  HD
BRANCH 26 29
ATOM     29  CA  VAL P   1     -22.696  26.080 -16.567  0.50 57.27 LIG 0.28  C 
BRANCH 29 30
ATOM     30  CB  VAL P   1     -22.874  26.995 -15.342  0.50 57.30 LIG 0.02  C 
ATOM     31  CG2 VAL P   1     -23.018  26.173 -14.070  0.50 57.34 LIG 0.01  C 
ATOM     32  CG1 VAL P   1     -24.065  27.926 -15.533  0.50 57.33 LIG 0.01  C 
ENDBRANCH 29 30
BRANCH 29 33
ATOM     33  N   VAL P   1     -23.928  25.280 -16.817  0.50 57.23 LIG-0.07  N 
ATOM     34 H3   VAL P   1     -23.951  25.029 -17.670  0.50 57.23 LIG 0.28  HD
ATOM     35 H2   VAL P   1     -24.645  25.773 -16.634  0.50 57.23 LIG 0.28  HD
ATOM     36 H1   VAL P   1     -23.924  24.558 -16.296  0.50 57.23 LIG 0.28  HD
ENDBRANCH 29 33
ENDBRANCH 26 29
ENDBRANCH 24 25
BRANCH 24 37
ATOM     37  CB  LEU P   2     -17.934  25.549 -15.975  0.50 57.14 LIG 0.04  C 
BRANCH 37 38
ATOM     38  CG  LEU P   2     -17.122  26.398 -16.930  0.50 56.96 LIG-0.02  C 
ATOM     39  CD1 LEU P   2     -18.092  27.291 -17.698  0.50 57.03 LIG 0.01  C 
ATOM     40  CD2 LEU P   2     -16.114  27.205 -16.157  0.50 56.70 LIG 0.01  C 
ENDBRANCH 37 38
ENDBRANCH 24 37
ENDBRANCH 1 24
TORSDOF 15
ENDMDL
MODEL 65
USER: ADFR SOLUTION from run 77
USER: SCORE 13.096346 LL:  -3.371 LR: -10.861 RR:   0.000 FEB:  -6.387
USER: RMSD 6.749737
USER: SEED 76
USER: STATUS no improvement in best 19 clusters for 5 generations
USER: GENES 17
USER: genes 0 Translation |==|  0.47715 0.45651 0.57813
USER: genes 1 Rotation |==|  0.95511 0.64595 0.58842 0.61729
USER: genes 2 Torsion [C]-N--CA-[CB] |==|  0.91111
USER: genes 3 Torsion [N]-CA--CB-[CG] |==|  0.62066
USER: genes 4 Torsion [CA]-CB--CG-[CD1] |==|  0.19531
USER: genes 5 Torsion [N]-CA--C-[N] |==|  0.80895
USER: genes 6 Torsion [C]-N--CA-[CB] |==|  0.26142
USER: genes 7 Torsion [N]-CA--CB-[CG] |==|  0.66082
USER: genes 8 Torsion [CA]-CB--CG-[ND1] |==|  0.44632
USER: genes 9 Torsion [N]-CA--C-[O] |==|  0.26685
USER: genes 10 Torsion [N]-C--CA-[N] |==|  0.88423
USER: genes 11 Torsion [C]-CA--N-[C] |==|  0.76398
USER: genes 12 Torsion [N]-C--CA-[N] |==|  0.80826
USER: genes 13 Torsion [C]-CA--CB-[CG2] |==|  0.49853
USER: genes 14 Torsion [C]-CA--N-[H3] |==|  0.15662
USER: genes 15 Torsion [C]-CA--CB-[CG] |==|  0.54590
USER: genes 16 Torsion [CA]-CB--CG-[CD1] |==|  0.33321
ROOT
ATOM      1  C   LEU P   2     -20.715  21.015 -12.416  0.50 57.15 LIG 0.24  C 
ATOM      2 O    LEU P   2     -21.142  21.528 -11.375  0.50 57.16 LIG-0.27  OA
ATOM      3  N   LEU P   3     -20.661  21.547 -13.625  0.50 57.16 LIG-0.35  N 
ATOM      4 H    LEU P   3     -20.569  21.042 -14.315  0.50 57.16 LIG 0.16  HD
ENDROOT
BRANCH 3 5
ATOM      5  CA  LEU P   3     -20.733  22.919 -14.004  0.50 57.19 LIG 0.18  C 
BRANCH 5 6
ATOM      6  CB  LEU P   3     -21.601  23.777 -13.107  0.50 57.26 LIG 0.04  C 
BRANCH 6 7
ATOM      7  CG  LEU P   3     -22.389  24.633 -14.106  0.50 57.44 LIG-0.02  C 
ATOM      8  CD1 LEU P   3     -23.410  23.813 -14.875  0.50 57.60 LIG 0.01  C 
ATOM      9  CD2 LEU P   3     -23.019  25.856 -13.446  0.50 57.51 LIG 0.01  C 
ENDBRANCH 6 7
ENDBRANCH 5 6
BRANCH 5 10
ATOM     10  C   LEU P   3     -19.253  23.255 -13.883  0.50 57.14 LIG 0.24  C 
ATOM     11  N   HIS P   4     -18.772  23.259 -12.640  0.50 57.08 LIG-0.35  N 
ATOM     12 H    HIS P   4     -19.252  23.076 -11.950  0.50 57.08 LIG 0.16  HD
ATOM     13 O    LEU P   3     -18.588  23.566 -14.868  0.50 57.14 LIG-0.27  OA
BRANCH 11 14
ATOM     14  CA  HIS P   4     -17.381  23.574 -12.317  0.50 57.02 LIG 0.17  C 
BRANCH 14 15
ATOM     15  CB  HIS P   4     -17.240  25.069 -11.969  0.50 56.94 LIG 0.09  C 
BRANCH 15 16
ATOM     16  CG  HIS P   4     -16.268  25.822 -12.831  0.50 56.80 LIG 0.05  A 
ATOM     17 ND1  HIS P   4     -16.275  27.196 -12.951  0.50 56.77 LIG-0.25  NA
ATOM     18  CE1 HIS P   4     -15.317  27.570 -13.780  0.50 56.50 LIG 0.21  A 
ATOM     19  NE2 HIS P   4     -14.692  26.489 -14.209  0.50 56.43 LIG-0.36  N 
ATOM     20 HE2  HIS P   4     -14.030  26.479 -14.759  0.50 56.43 LIG 0.17  HD
ATOM     21  CD2 HIS P   4     -15.269  25.383 -13.634  0.50 56.57 LIG 0.12  A 
ENDBRANCH 15 16
ENDBRANCH 14 15
BRANCH 14 22
ATOM     22  C   HIS P   4     -16.901  22.693 -11.167  0.50 57.04 LIG 0.22  C 
ATOM     23 O    HIS P   4     -16.278  21.654 -11.384  0.50 57.12 LIG-0.29  OA
ENDBRANCH 14 22
ENDBRANCH 11 14
ENDBRANCH 5 10
ENDBRANCH 3 5
BRANCH 1 24
ATOM     24  CA  LEU P   2     -20.157  19.641 -12.549  0.50 57.16 LIG 0.18  C 
BRANCH 24 25
ATOM     25  N   LEU P   2     -20.471  18.783 -13.663  0.50 57.19 LIG-0.35  N 
ATOM     26  C   VAL P   1     -21.575  18.055 -13.611  0.50 57.27 LIG 0.25  C 
ATOM     27 O    VAL P   1     -22.469  18.256 -12.781  0.50 57.24 LIG-0.27  OA
ATOM     28 H    LEU P   2     -19.910  18.794 -14.315  0.50 57.19 LIG 0.16  HD
BRANCH 26 29
ATOM     29  CA  VAL P   1     -21.693  16.982 -14.673  0.50 57.27 LIG 0.28  C 
BRANCH 29 30
ATOM     30  CB  VAL P   1     -20.424  16.111 -14.693  0.50 57.30 LIG 0.02  C 
ATOM     31  CG2 VAL P   1     -20.535  15.020 -15.747  0.50 57.34 LIG 0.01  C 
ATOM     32  CG1 VAL P   1     -20.154  15.520 -13.316  0.50 57.33 LIG 0.01  C 
ENDBRANCH 29 30
BRANCH 29 33
ATOM     33  N   VAL P   1     -21.885  17.673 -15.979  0.50 57.23 LIG-0.07  N 
ATOM     34 H3   VAL P   1     -21.212  18.238 -16.118  0.50 57.23 LIG 0.28  HD
ATOM     35 H2   VAL P   1     -22.653  18.124 -15.967  0.50 57.23 LIG 0.28  HD
ATOM     36 H1   VAL P   1     -21.906  17.070 -16.634  0.50 57.23 LIG 0.28  HD
ENDBRANCH 29 33
ENDBRANCH 26 29
ENDBRANCH 24 25
BRANCH 24 37
ATOM     37  CB  LEU P   2     -18.652  19.926 -12.505  0.50 57.14 LIG 0.04  C 
BRANCH 37 38
ATOM     38  CG  LEU P   2     -17.536  18.998 -12.932  0.50 56.96 LIG-0.02  C 
ATOM     39  CD1 LEU P   2     -16.759  19.688 -14.050  0.50 57.03 LIG 0.01  C 
ATOM     40  CD2 LEU P   2     -16.656  18.686 -11.751  0.50 56.70 LIG 0.01  C 
ENDBRANCH 37 38
ENDBRANCH 24 37
ENDBRANCH 1 24
TORSDOF 15
ENDMDL
MODEL 66
USER: ADFR SOLUTION from run 27
USER: SCORE 12.232152 LL:  -3.233 LR: -10.859 RR:   0.000 FEB:  -6.384
USER: RMSD 4.130976
USER: SEED 26
USER: STATUS no improvement in best 14 clusters for 5 generations
USER: GENES 17
USER: genes 0 Translation |==|  0.40290 0.57952 0.47392
USER: genes 1 Rotation |==|  0.27435 0.81886 0.53071 0.81059
USER: genes 2 Torsion [C]-N--CA-[CB] |==|  0.34532
USER: genes 3 Torsion [N]-CA--CB-[CG] |==|  0.61736
USER: genes 4 Torsion [CA]-CB--CG-[CD1] |==|  0.70518
USER: genes 5 Torsion [N]-CA--C-[N] |==|  0.54228
USER: genes 6 Torsion [C]-N--CA-[CB] |==|  0.25667
USER: genes 7 Torsion [N]-CA--CB-[CG] |==|  0.02903
USER: genes 8 Torsion [CA]-CB--CG-[ND1] |==|  0.24595
USER: genes 9 Torsion [N]-CA--C-[O] |==|  0.64067
USER: genes 10 Torsion [N]-C--CA-[N] |==|  0.38760
USER: genes 11 Torsion [C]-CA--N-[C] |==|  0.65859
USER: genes 12 Torsion [N]-C--CA-[N] |==|  0.95240
USER: genes 13 Torsion [C]-CA--CB-[CG2] |==|  0.99053
USER: genes 14 Torsion [C]-CA--N-[H3] |==|  0.56267
USER: genes 15 Torsion [C]-CA--CB-[CG] |==|  0.13144
USER: genes 16 Torsion [CA]-CB--CG-[CD1] |==|  0.40732
ROOT
ATOM      1  C   LEU P   2     -22.943  24.706 -15.542  0.50 57.15 LIG 0.24  C 
ATOM      2 O    LEU P   2     -23.807  23.830 -15.421  0.50 57.16 LIG-0.27  OA
ATOM      3  N   LEU P   3     -21.637  24.594 -15.372  0.50 57.16 LIG-0.35  N 
ATOM      4 H    LEU P   3     -21.155  25.296 -15.250  0.50 57.16 LIG 0.16  HD
ENDROOT
BRANCH 3 5
ATOM      5  CA  LEU P   3     -20.834  23.417 -15.354  0.50 57.19 LIG 0.18  C 
BRANCH 5 6
ATOM      6  CB  LEU P   3     -19.691  23.417 -16.349  0.50 57.26 LIG 0.04  C 
BRANCH 6 7
ATOM      7  CG  LEU P   3     -19.727  21.993 -16.916  0.50 57.44 LIG-0.02  C 
ATOM      8  CD1 LEU P   3     -18.589  21.141 -16.384  0.50 57.60 LIG 0.01  C 
ATOM      9  CD2 LEU P   3     -21.085  21.327 -16.711  0.50 57.51 LIG 0.01  C 
ENDBRANCH 6 7
ENDBRANCH 5 6
BRANCH 5 10
ATOM     10  C   LEU P   3     -20.355  23.503 -13.912  0.50 57.14 LIG 0.24  C 
ATOM     11  N   HIS P   4     -19.316  22.725 -13.611  0.50 57.08 LIG-0.35  N 
ATOM     12 H    HIS P   4     -18.930  22.215 -14.185  0.50 57.08 LIG 0.16  HD
ATOM     13 O    LEU P   3     -20.945  24.196 -13.085  0.50 57.14 LIG-0.27  OA
BRANCH 11 14
ATOM     14  CA  HIS P   4     -18.724  22.655 -12.276  0.50 57.02 LIG 0.17  C 
BRANCH 14 15
ATOM     15  CB  HIS P   4     -19.371  21.516 -11.464  0.50 56.94 LIG 0.09  C 
BRANCH 15 16
ATOM     16  CG  HIS P   4     -20.250  20.598 -12.266  0.50 56.80 LIG 0.05  A 
ATOM     17 ND1  HIS P   4     -19.776  19.479 -12.916  0.50 56.77 LIG-0.25  NA
ATOM     18  CE1 HIS P   4     -20.772  18.879 -13.543  0.50 56.50 LIG 0.21  A 
ATOM     19  NE2 HIS P   4     -21.875  19.572 -13.330  0.50 56.43 LIG-0.36  N 
ATOM     20 HE2  HIS P   4     -22.655  19.377 -13.637  0.50 56.43 LIG 0.17  HD
ATOM     21  CD2 HIS P   4     -21.576  20.654 -12.539  0.50 56.57 LIG 0.12  A 
ENDBRANCH 15 16
ENDBRANCH 14 15
BRANCH 14 22
ATOM     22  C   HIS P   4     -17.214  22.463 -12.386  0.50 57.04 LIG 0.22  C 
ATOM     23 O    HIS P   4     -16.642  21.570 -11.760  0.50 57.12 LIG-0.29  OA
ENDBRANCH 14 22
ENDBRANCH 11 14
ENDBRANCH 5 10
ENDBRANCH 3 5
BRANCH 1 24
ATOM     24  CA  LEU P   2     -23.186  26.128 -15.912  0.50 57.16 LIG 0.18  C 
BRANCH 24 25
ATOM     25  N   LEU P   2     -24.136  26.512 -16.925  0.50 57.19 LIG-0.35  N 
ATOM     26  C   VAL P   1     -23.711  27.233 -17.950  0.50 57.27 LIG 0.25  C 
ATOM     27 O    VAL P   1     -22.513  27.378 -18.213  0.50 57.24 LIG-0.27  OA
ATOM     28 H    LEU P   2     -24.944  26.245 -16.803  0.50 57.19 LIG 0.16  HD
BRANCH 26 29
ATOM     29  CA  VAL P   1     -24.800  27.831 -18.816  0.50 57.27 LIG 0.28  C 
BRANCH 29 30
ATOM     30  CB  VAL P   1     -24.952  29.334 -18.516  0.50 57.30 LIG 0.02  C 
ATOM     31  CG2 VAL P   1     -24.026  29.755 -17.385  0.50 57.34 LIG 0.01  C 
ATOM     32  CG1 VAL P   1     -26.402  29.676 -18.197  0.50 57.33 LIG 0.01  C 
ENDBRANCH 29 30
BRANCH 29 33
ATOM     33  N   VAL P   1     -26.061  27.098 -18.510  0.50 57.23 LIG-0.07  N 
ATOM     34 H3   VAL P   1     -26.625  27.178 -19.194  0.50 57.23 LIG 0.28  HD
ATOM     35 H2   VAL P   1     -26.433  27.440 -17.778  0.50 57.23 LIG 0.28  HD
ATOM     36 H1   VAL P   1     -25.878  26.237 -18.376  0.50 57.23 LIG 0.28  HD
ENDBRANCH 29 33
ENDBRANCH 26 29
ENDBRANCH 24 25
BRANCH 24 37
ATOM     37  CB  LEU P   2     -23.585  26.722 -14.555  0.50 57.14 LIG 0.04  C 
BRANCH 37 38
ATOM     38  CG  LEU P   2     -22.876  26.529 -13.233  0.50 56.96 LIG-0.02  C 
ATOM     39  CD1 LEU P   2     -23.030  27.818 -12.430  0.50 57.03 LIG 0.01  C 
ATOM     40  CD2 LEU P   2     -23.465  25.347 -12.510  0.50 56.70 LIG 0.01  C 
ENDBRANCH 37 38
ENDBRANCH 24 37
ENDBRANCH 1 24
TORSDOF 15
ENDMDL
MODEL 67
USER: ADFR SOLUTION from run 58
USER: SCORE 12.892169 LL:  -3.484 LR: -10.842 RR:   0.000 FEB:  -6.368
USER: RMSD 6.812461
USER: SEED 57
USER: STATUS no improvement in best 20 clusters for 5 generations
USER: GENES 17
USER: genes 0 Translation |==|  0.64881 0.60780 0.51404
USER: genes 1 Rotation |==|  0.44558 0.18272 0.44375 0.87843
USER: genes 2 Torsion [C]-N--CA-[CB] |==|  0.14028
USER: genes 3 Torsion [N]-CA--CB-[CG] |==|  0.22125
USER: genes 4 Torsion [CA]-CB--CG-[CD1] |==|  0.32951
USER: genes 5 Torsion [N]-CA--C-[N] |==|  0.47231
USER: genes 6 Torsion [C]-N--CA-[CB] |==|  0.17990
USER: genes 7 Torsion [N]-CA--CB-[CG] |==|  0.68214
USER: genes 8 Torsion [CA]-CB--CG-[ND1] |==|  0.08019
USER: genes 9 Torsion [N]-CA--C-[O] |==|  0.71045
USER: genes 10 Torsion [N]-C--CA-[N] |==|  0.85009
USER: genes 11 Torsion [C]-CA--N-[C] |==|  0.77028
USER: genes 12 Torsion [N]-C--CA-[N] |==|  0.53930
USER: genes 13 Torsion [C]-CA--CB-[CG2] |==|  0.86007
USER: genes 14 Torsion [C]-CA--N-[H3] |==|  0.68777
USER: genes 15 Torsion [C]-CA--CB-[CG] |==|  0.34642
USER: genes 16 Torsion [CA]-CB--CG-[CD1] |==|  0.51599
ROOT
ATOM      1  C   LEU P   2     -15.566  25.554 -14.339  0.50 57.15 LIG 0.24  C 
ATOM      2 O    LEU P   2     -14.393  25.165 -14.370  0.50 57.16 LIG-0.27  OA
ATOM      3  N   LEU P   3     -16.648  24.862 -14.028  0.50 57.16 LIG-0.35  N 
ATOM      4 H    LEU P   3     -17.426  25.149 -14.259  0.50 57.16 LIG 0.16  HD
ENDROOT
BRANCH 3 5
ATOM      5  CA  LEU P   3     -16.749  23.627 -13.323  0.50 57.19 LIG 0.18  C 
BRANCH 5 6
ATOM      6  CB  LEU P   3     -15.999  23.587 -12.008  0.50 57.26 LIG 0.04  C 
BRANCH 6 7
ATOM      7  CG  LEU P   3     -16.942  24.327 -11.051  0.50 57.44 LIG-0.02  C 
ATOM      8  CD1 LEU P   3     -17.405  23.440  -9.910  0.50 57.60 LIG 0.01  C 
ATOM      9  CD2 LEU P   3     -16.340  25.637 -10.549  0.50 57.51 LIG 0.01  C 
ENDBRANCH 6 7
ENDBRANCH 5 6
BRANCH 5 10
ATOM     10  C   LEU P   3     -18.260  23.609 -13.137  0.50 57.14 LIG 0.24  C 
ATOM     11  N   HIS P   4     -18.761  22.463 -12.675  0.50 57.08 LIG-0.35  N 
ATOM     12 H    HIS P   4     -18.274  21.781 -12.484  0.50 57.08 LIG 0.16  HD
ATOM     13 O    LEU P   3     -18.954  24.570 -13.461  0.50 57.14 LIG-0.27  OA
BRANCH 11 14
ATOM     14  CA  HIS P   4     -20.189  22.244 -12.447  0.50 57.02 LIG 0.17  C 
BRANCH 14 15
ATOM     15  CB  HIS P   4     -20.958  22.301 -13.781  0.50 56.94 LIG 0.09  C 
BRANCH 15 16
ATOM     16  CG  HIS P   4     -21.917  23.451 -13.901  0.50 56.80 LIG 0.05  A 
ATOM     17 ND1  HIS P   4     -21.736  24.655 -13.255  0.50 56.77 LIG-0.25  NA
ATOM     18  CE1 HIS P   4     -22.741  25.463 -13.540  0.50 56.50 LIG 0.21  A 
ATOM     19  NE2 HIS P   4     -23.573  24.827 -14.343  0.50 56.43 LIG-0.36  N 
ATOM     20 HE2  HIS P   4     -24.302  25.150 -14.664  0.50 56.43 LIG 0.17  HD
ATOM     21  CD2 HIS P   4     -23.084  23.565 -14.581  0.50 56.57 LIG 0.12  A 
ENDBRANCH 15 16
ENDBRANCH 14 15
BRANCH 14 22
ATOM     22  C   HIS P   4     -20.405  20.907 -11.744  0.50 57.04 LIG 0.22  C 
ATOM     23 O    HIS P   4     -20.824  19.928 -12.362  0.50 57.12 LIG-0.29  OA
ENDBRANCH 14 22
ENDBRANCH 11 14
ENDBRANCH 5 10
ENDBRANCH 3 5
BRANCH 1 24
ATOM     24  CA  LEU P   2     -16.039  26.929 -14.660  0.50 57.16 LIG 0.18  C 
BRANCH 24 25
ATOM     25  N   LEU P   2     -17.065  27.185 -15.639  0.50 57.19 LIG-0.35  N 
ATOM     26  C   VAL P   1     -16.722  27.237 -16.916  0.50 57.27 LIG 0.25  C 
ATOM     27 O    VAL P   1     -15.630  26.835 -17.332  0.50 57.24 LIG-0.27  OA
ATOM     28 H    LEU P   2     -17.860  27.291 -15.331  0.50 57.19 LIG 0.16  HD
BRANCH 26 29
ATOM     29  CA  VAL P   1     -17.783  27.783 -17.849  0.50 57.27 LIG 0.28  C 
BRANCH 29 30
ATOM     30  CB  VAL P   1     -19.152  27.159 -17.521  0.50 57.30 LIG 0.02  C 
ATOM     31  CG2 VAL P   1     -19.049  25.643 -17.444  0.50 57.34 LIG 0.01  C 
ATOM     32  CG1 VAL P   1     -20.199  27.589 -18.539  0.50 57.33 LIG 0.01  C 
ENDBRANCH 29 30
BRANCH 29 33
ATOM     33  N   VAL P   1     -17.365  27.446 -19.239  0.50 57.23 LIG-0.07  N 
ATOM     34 H3   VAL P   1     -17.159  28.193 -19.677  0.50 57.23 LIG 0.28  HD
ATOM     35 H2   VAL P   1     -18.033  27.033 -19.658  0.50 57.23 LIG 0.28  HD
ATOM     36 H1   VAL P   1     -16.654  26.911 -19.214  0.50 57.23 LIG 0.28  HD
ENDBRANCH 29 33
ENDBRANCH 26 29
ENDBRANCH 24 25
BRANCH 24 37
ATOM     37  CB  LEU P   2     -16.488  27.419 -13.278  0.50 57.14 LIG 0.04  C 
BRANCH 37 38
ATOM     38  CG  LEU P   2     -16.026  28.668 -12.560  0.50 56.96 LIG-0.02  C 
ATOM     39  CD1 LEU P   2     -16.639  28.655 -11.163  0.50 57.03 LIG 0.01  C 
ATOM     40  CD2 LEU P   2     -14.522  28.695 -12.509  0.50 56.70 LIG 0.01  C 
ENDBRANCH 37 38
ENDBRANCH 24 37
ENDBRANCH 1 24
TORSDOF 15
ENDMDL
MODEL 68
USER: ADFR SOLUTION from run 54
USER: SCORE 13.823839 LL:  -3.231 LR: -10.839 RR:   0.000 FEB:  -6.364
USER: RMSD 4.934892
USER: SEED 53
USER: STATUS no improvement in best 18 clusters for 5 generations
USER: GENES 17
USER: genes 0 Translation |==|  0.48020 0.52814 0.56371
USER: genes 1 Rotation |==|  0.10814 0.75558 0.47066 0.67397
USER: genes 2 Torsion [C]-N--CA-[CB] |==|  0.14444
USER: genes 3 Torsion [N]-CA--CB-[CG] |==|  0.11625
USER: genes 4 Torsion [CA]-CB--CG-[CD1] |==|  0.31096
USER: genes 5 Torsion [N]-CA--C-[N] |==|  0.10665
USER: genes 6 Torsion [C]-N--CA-[CB] |==|  0.79944
USER: genes 7 Torsion [N]-CA--CB-[CG] |==|  0.82132
USER: genes 8 Torsion [CA]-CB--CG-[ND1] |==|  0.77495
USER: genes 9 Torsion [N]-CA--C-[O] |==|  0.52585
USER: genes 10 Torsion [N]-C--CA-[N] |==|  0.28518
USER: genes 11 Torsion [C]-CA--N-[C] |==|  0.73747
USER: genes 12 Torsion [N]-C--CA-[N] |==|  0.94164
USER: genes 13 Torsion [C]-CA--CB-[CG2] |==|  0.15641
USER: genes 14 Torsion [C]-CA--N-[H3] |==|  0.20107
USER: genes 15 Torsion [C]-CA--CB-[CG] |==|  0.38770
USER: genes 16 Torsion [CA]-CB--CG-[CD1] |==|  0.75590
ROOT
ATOM      1  C   LEU P   2     -20.624  23.164 -12.849  0.50 57.15 LIG 0.24  C 
ATOM      2 O    LEU P   2     -21.081  22.421 -11.973  0.50 57.16 LIG-0.27  OA
ATOM      3  N   LEU P   3     -19.414  23.691 -12.923  0.50 57.16 LIG-0.35  N 
ATOM      4 H    LEU P   3     -19.269  24.369 -13.432  0.50 57.16 LIG 0.16  HD
ENDROOT
BRANCH 3 5
ATOM      5  CA  LEU P   3     -18.222  23.295 -12.250  0.50 57.19 LIG 0.18  C 
BRANCH 5 6
ATOM      6  CB  LEU P   3     -17.877  21.827 -12.387  0.50 57.26 LIG 0.04  C 
BRANCH 6 7
ATOM      7  CG  LEU P   3     -18.178  21.539 -13.863  0.50 57.44 LIG-0.02  C 
ATOM      8  CD1 LEU P   3     -16.914  21.249 -14.653  0.50 57.60 LIG 0.01  C 
ATOM      9  CD2 LEU P   3     -19.224  20.442 -14.034  0.50 57.51 LIG 0.01  C 
ENDBRANCH 6 7
ENDBRANCH 5 6
BRANCH 5 10
ATOM     10  C   LEU P   3     -17.246  24.198 -12.991  0.50 57.14 LIG 0.24  C 
ATOM     11  N   HIS P   4     -17.703  25.417 -13.274  0.50 57.08 LIG-0.35  N 
ATOM     12 H    HIS P   4     -18.488  25.688 -13.049  0.50 57.08 LIG 0.16  HD
ATOM     13 O    LEU P   3     -16.146  23.786 -13.353  0.50 57.14 LIG-0.27  OA
BRANCH 11 14
ATOM     14  CA  HIS P   4     -16.922  26.422 -13.995  0.50 57.02 LIG 0.17  C 
BRANCH 14 15
ATOM     15  CB  HIS P   4     -15.798  26.970 -13.095  0.50 56.94 LIG 0.09  C 
BRANCH 15 16
ATOM     16  CG  HIS P   4     -16.275  27.718 -11.883  0.50 56.80 LIG 0.05  A 
ATOM     17 ND1  HIS P   4     -16.681  29.034 -11.922  0.50 56.77 LIG-0.25  NA
ATOM     18  CE1 HIS P   4     -17.034  29.422 -10.709  0.50 56.50 LIG 0.21  A 
ATOM     19  NE2 HIS P   4     -16.867  28.407  -9.882  0.50 56.43 LIG-0.36  N 
ATOM     20 HE2  HIS P   4     -17.030  28.418  -9.038  0.50 56.43 LIG 0.17  HD
ATOM     21  CD2 HIS P   4     -16.389  27.330 -10.590  0.50 56.57 LIG 0.12  A 
ENDBRANCH 15 16
ENDBRANCH 14 15
BRANCH 14 22
ATOM     22  C   HIS P   4     -16.357  25.819 -15.278  0.50 57.04 LIG 0.22  C 
ATOM     23 O    HIS P   4     -15.530  26.431 -15.954  0.50 57.12 LIG-0.29  OA
ENDBRANCH 14 22
ENDBRANCH 11 14
ENDBRANCH 5 10
ENDBRANCH 3 5
BRANCH 1 24
ATOM     24  CA  LEU P   2     -21.357  23.654 -14.049  0.50 57.16 LIG 0.18  C 
BRANCH 24 25
ATOM     25  N   LEU P   2     -21.581  22.829 -15.209  0.50 57.19 LIG-0.35  N 
ATOM     26  C   VAL P   1     -20.726  22.908 -16.216  0.50 57.27 LIG 0.25  C 
ATOM     27 O    VAL P   1     -19.623  23.456 -16.115  0.50 57.24 LIG-0.27  OA
ATOM     28 H    LEU P   2     -22.273  22.320 -15.180  0.50 57.19 LIG 0.16  HD
BRANCH 26 29
ATOM     29  CA  VAL P   1     -21.172  22.234 -17.497  0.50 57.27 LIG 0.28  C 
BRANCH 29 30
ATOM     30  CB  VAL P   1     -21.730  23.278 -18.481  0.50 57.30 LIG 0.02  C 
ATOM     31  CG2 VAL P   1     -20.701  24.365 -18.755  0.50 57.34 LIG 0.01  C 
ATOM     32  CG1 VAL P   1     -23.031  23.872 -17.956  0.50 57.33 LIG 0.01  C 
ENDBRANCH 29 30
BRANCH 29 33
ATOM     33  N   VAL P   1     -22.216  21.236 -17.131  0.50 57.23 LIG-0.07  N 
ATOM     34 H3   VAL P   1     -22.967  21.659 -16.910  0.50 57.23 LIG 0.28  HD
ATOM     35 H2   VAL P   1     -21.935  20.752 -16.440  0.50 57.23 LIG 0.28  HD
ATOM     36 H1   VAL P   1     -22.371  20.701 -17.825  0.50 57.23 LIG 0.28  HD
ENDBRANCH 29 33
ENDBRANCH 26 29
ENDBRANCH 24 25
BRANCH 24 37
ATOM     37  CB  LEU P   2     -22.695  24.073 -13.429  0.50 57.14 LIG 0.04  C 
BRANCH 37 38
ATOM     38  CG  LEU P   2     -23.511  25.302 -13.767  0.50 56.96 LIG-0.02  C 
ATOM     39  CD1 LEU P   2     -23.016  26.446 -12.887  0.50 57.03 LIG 0.01  C 
ATOM     40  CD2 LEU P   2     -23.363  25.620 -15.232  0.50 56.70 LIG 0.01  C 
ENDBRANCH 37 38
ENDBRANCH 24 37
ENDBRANCH 1 24
TORSDOF 15
ENDMDL
MODEL 69
USER: ADFR SOLUTION from run 98
USER: SCORE 12.665844 LL:  -2.397 LR: -10.829 RR:   0.000 FEB:  -6.355
USER: RMSD 5.441676
USER: SEED 97
USER: STATUS no improvement in best 18 clusters for 5 generations
USER: GENES 17
USER: genes 0 Translation |==|  0.51857 0.47186 0.58407
USER: genes 1 Rotation |==|  0.95282 0.28820 0.50507 0.50844
USER: genes 2 Torsion [C]-N--CA-[CB] |==|  0.82778
USER: genes 3 Torsion [N]-CA--CB-[CG] |==|  0.69322
USER: genes 4 Torsion [CA]-CB--CG-[CD1] |==|  0.05929
USER: genes 5 Torsion [N]-CA--C-[N] |==|  0.33378
USER: genes 6 Torsion [C]-N--CA-[CB] |==|  0.50363
USER: genes 7 Torsion [N]-CA--CB-[CG] |==|  0.32143
USER: genes 8 Torsion [CA]-CB--CG-[ND1] |==|  0.80068
USER: genes 9 Torsion [N]-CA--C-[O] |==|  0.97518
USER: genes 10 Torsion [N]-C--CA-[N] |==|  0.87057
USER: genes 11 Torsion [C]-CA--N-[C] |==|  0.88739
USER: genes 12 Torsion [N]-C--CA-[N] |==|  0.12552
USER: genes 13 Torsion [C]-CA--CB-[CG2] |==|  0.82711
USER: genes 14 Torsion [C]-CA--N-[H3] |==|  0.03849
USER: genes 15 Torsion [C]-CA--CB-[CG] |==|  0.40895
USER: genes 16 Torsion [CA]-CB--CG-[CD1] |==|  0.55319
ROOT
ATOM      1  C   LEU P   2     -19.473  21.476 -12.238  0.50 57.15 LIG 0.24  C 
ATOM      2 O    LEU P   2     -19.356  21.391 -11.010  0.50 57.16 LIG-0.27  OA
ATOM      3  N   LEU P   3     -18.610  21.971 -13.107  0.50 57.16 LIG-0.35  N 
ATOM      4 H    LEU P   3     -18.872  22.199 -13.895  0.50 57.16 LIG 0.16  HD
ENDROOT
BRANCH 3 5
ATOM      5  CA  LEU P   3     -17.214  22.210 -12.947  0.50 57.19 LIG 0.18  C 
BRANCH 5 6
ATOM      6  CB  LEU P   3     -16.864  23.214 -11.867  0.50 57.26 LIG 0.04  C 
BRANCH 6 7
ATOM      7  CG  LEU P   3     -16.347  24.414 -12.669  0.50 57.44 LIG-0.02  C 
ATOM      8  CD1 LEU P   3     -16.839  24.393 -14.105  0.50 57.60 LIG 0.01  C 
ATOM      9  CD2 LEU P   3     -16.652  25.741 -11.979  0.50 57.51 LIG 0.01  C 
ENDBRANCH 6 7
ENDBRANCH 5 6
BRANCH 5 10
ATOM     10  C   LEU P   3     -16.792  20.792 -12.587  0.50 57.14 LIG 0.24  C 
ATOM     11  N   HIS P   4     -15.908  20.235 -13.414  0.50 57.08 LIG-0.35  N 
ATOM     12 H    HIS P   4     -15.584  20.643 -14.098  0.50 57.08 LIG 0.16  HD
ATOM     13 O    LEU P   3     -17.298  20.198 -11.637  0.50 57.14 LIG-0.27  OA
BRANCH 11 14
ATOM     14  CA  HIS P   4     -15.395  18.876 -13.247  0.50 57.02 LIG 0.17  C 
BRANCH 14 15
ATOM     15  CB  HIS P   4     -14.368  18.554 -14.350  0.50 56.94 LIG 0.09  C 
BRANCH 15 16
ATOM     16  CG  HIS P   4     -12.972  18.311 -13.852  0.50 56.80 LIG 0.05  A 
ATOM     17 ND1  HIS P   4     -12.159  19.314 -13.368  0.50 56.77 LIG-0.25  NA
ATOM     18  CE1 HIS P   4     -10.992  18.805 -13.017  0.50 56.50 LIG 0.21  A 
ATOM     19  NE2 HIS P   4     -11.014  17.508 -13.261  0.50 56.43 LIG-0.36  N 
ATOM     20 HE2  HIS P   4     -10.367  16.960 -13.114  0.50 56.43 LIG 0.17  HD
ATOM     21  CD2 HIS P   4     -12.238  17.174 -13.788  0.50 56.57 LIG 0.12  A 
ENDBRANCH 15 16
ENDBRANCH 14 15
BRANCH 14 22
ATOM     22  C   HIS P   4     -14.779  18.720 -11.859  0.50 57.04 LIG 0.22  C 
ATOM     23 O    HIS P   4     -14.615  19.695 -11.126  0.50 57.12 LIG-0.29  OA
ENDBRANCH 14 22
ENDBRANCH 11 14
ENDBRANCH 5 10
ENDBRANCH 3 5
BRANCH 1 24
ATOM     24  CA  LEU P   2     -20.650  21.033 -13.037  0.50 57.16 LIG 0.18  C 
BRANCH 24 25
ATOM     25  N   LEU P   2     -21.245  21.858 -14.057  0.50 57.19 LIG-0.35  N 
ATOM     26  C   VAL P   1     -21.375  23.155 -13.827  0.50 57.27 LIG 0.25  C 
ATOM     27 O    VAL P   1     -20.793  23.731 -12.902  0.50 57.24 LIG-0.27  OA
ATOM     28 H    LEU P   2     -21.488  21.451 -14.775  0.50 57.19 LIG 0.16  HD
BRANCH 26 29
ATOM     29  CA  VAL P   1     -22.254  23.901 -14.810  0.50 57.27 LIG 0.28  C 
BRANCH 29 30
ATOM     30  CB  VAL P   1     -22.609  25.292 -14.256  0.50 57.30 LIG 0.02  C 
ATOM     31  CG2 VAL P   1     -23.405  25.172 -12.965  0.50 57.34 LIG 0.01  C 
ATOM     32  CG1 VAL P   1     -23.365  26.110 -15.295  0.50 57.33 LIG 0.01  C 
ENDBRANCH 29 30
BRANCH 29 33
ATOM     33  N   VAL P   1     -23.481  23.081 -15.017  0.50 57.23 LIG-0.07  N 
ATOM     34 H3   VAL P   1     -23.529  22.454 -14.388  0.50 57.23 LIG 0.28  HD
ATOM     35 H2   VAL P   1     -23.448  22.695 -15.818  0.50 57.23 LIG 0.28  HD
ATOM     36 H1   VAL P   1     -24.199  23.605 -14.969  0.50 57.23 LIG 0.28  HD
ENDBRANCH 29 33
ENDBRANCH 26 29
ENDBRANCH 24 25
BRANCH 24 37
ATOM     37  CB  LEU P   2     -20.120  19.730 -13.647  0.50 57.14 LIG 0.04  C 
BRANCH 37 38
ATOM     38  CG  LEU P   2     -20.919  18.486 -13.969  0.50 56.96 LIG-0.02  C 
ATOM     39  CD1 LEU P   2     -19.938  17.323 -14.095  0.50 57.03 LIG 0.01  C 
ATOM     40  CD2 LEU P   2     -21.936  18.243 -12.887  0.50 56.70 LIG 0.01  C 
ENDBRANCH 37 38
ENDBRANCH 24 37
ENDBRANCH 1 24
TORSDOF 15
ENDMDL
