MODEL 1
USER: ADFR SOLUTION from run 11
USER: SCORE 16.754273 LL:  -3.811 LR: -15.312 RR:   0.000 FEB:  -9.346
USER: RMSD 10.186249
USER: SEED 834702
USER: STATUS searching
USER: GENES 22
USER: genes 0 Translation |==|  0.40266 0.60577 0.53116
USER: genes 1 Rotation |==|  0.21215 0.69467 0.15496 0.60096
USER: genes 2 Torsion [CB]-CA--N-[C] |==|  0.02551
USER: genes 3 Torsion [N]-C--CA-[N] |==|  0.83422
USER: genes 4 Torsion [C]-CA--CB-[CG] |==|  0.51993
USER: genes 5 Torsion [CA]-CB--CG-[CD1] |==|  0.51315
USER: genes 6 Torsion [C]-CA--N-[C] |==|  0.87222
USER: genes 7 Torsion [N]-C--CA-[N] |==|  0.17849
USER: genes 8 Torsion [C]-CA--N-[H3] |==|  0.32077
USER: genes 9 Torsion [C]-CA--CB-[CG] |==|  0.72097
USER: genes 10 Torsion [CA]-CB--CG-[CD1] |==|  0.16835
USER: genes 11 Torsion [N]-CA--CB-[CG] |==|  0.70770
USER: genes 12 Torsion [CA]-CB--CG-[CD1] |==|  0.39126
USER: genes 13 Torsion [N]-CA--C-[N] |==|  0.87669
USER: genes 14 Torsion [C]-N--CA-[C] |==|  0.71303
USER: genes 15 Torsion [N]-CA--CB-[CG] |==|  0.75295
USER: genes 16 Torsion [CA]-CB--CG-[OD1] |==|  0.32295
USER: genes 17 Torsion [N]-CA--C-[N] |==|  0.41944
USER: genes 18 Torsion [C]-N--CA-[C] |==|  0.73662
USER: genes 19 Torsion [N]-CA--C-[O] |==|  0.90203
USER: genes 20 Torsion [N]-CA--CB-[CG] |==|  0.28305
USER: genes 21 Torsion [CA]-CB--CG-[OD1] |==|  0.64643
ROOT
ATOM      1  CA  PHE P   3      17.320 -11.687 -13.355  1.00 45.52 LIG 0.18  C 
ENDROOT
BRANCH 1 2
ATOM      2  N   PHE P   3      15.967 -12.370 -13.297  1.00 45.79 LIG-0.35  N 
ATOM      3 H    PHE P   3      15.773 -12.727 -14.055  1.00 45.79 LIG 0.16  HD
ATOM      4  C   LEU P   2      15.109 -12.468 -12.275  1.00 46.01 LIG 0.24  C 
ATOM      5 O    LEU P   2      15.387 -12.042 -11.162  1.00 46.46 LIG-0.27  OA
BRANCH 4 6
ATOM      6  CA  LEU P   2      13.726 -13.213 -12.519  1.00 45.94 LIG 0.18  C 
BRANCH 6 7
ATOM      7  CB  LEU P   2      13.900 -14.711 -12.890  1.00 45.93 LIG 0.04  C 
BRANCH 7 8
ATOM      8  CG  LEU P   2      12.698 -15.594 -13.332  1.00 45.11 LIG-0.02  C 
ATOM      9  CD1 LEU P   2      13.059 -17.082 -13.546  1.00 44.79 LIG 0.01  C 
ATOM     10  CD2 LEU P   2      11.528 -15.485 -12.356  1.00 44.35 LIG 0.01  C 
ENDBRANCH 7 8
ENDBRANCH 6 7
BRANCH 6 11
ATOM     11  N   LEU P   2      12.977 -12.516 -13.589  1.00 46.17 LIG-0.35  N 
ATOM     12 H    LEU P   2      12.645 -13.053 -14.173  1.00 46.17 LIG 0.16  HD
ATOM     13  C   LEU P   1      12.822 -11.186 -13.658  1.00 46.12 LIG 0.25  C 
ATOM     14 O    LEU P   1      13.243 -10.406 -12.790  1.00 46.29 LIG-0.27  OA
BRANCH 13 15
ATOM     15  CA  LEU P   1      12.071 -10.650 -14.905  1.00 45.93 LIG 0.28  C 
BRANCH 15 16
ATOM     16  N   LEU P   1      10.640 -11.085 -14.998  1.00 46.34 LIG-0.07  N 
ATOM     17 H3   LEU P   1      10.108 -10.374 -14.934  1.00 46.34 LIG 0.28  HD
ATOM     18 H2   LEU P   1      10.459 -11.652 -14.337  1.00 46.34 LIG 0.28  HD
ATOM     19 H1   LEU P   1      10.503 -11.487 -15.780  1.00 46.34 LIG 0.28  HD
ENDBRANCH 15 16
BRANCH 15 20
ATOM     20  CB  LEU P   1      12.161  -9.116 -14.968  1.00 45.65 LIG 0.05  C 
BRANCH 20 21
ATOM     21  CG  LEU P   1      10.907  -8.386 -14.471  1.00 44.28 LIG-0.02  C 
ATOM     22  CD1 LEU P   1      10.616  -8.712 -13.018  1.00 42.49 LIG 0.01  C 
ATOM     23  CD2 LEU P   1      11.034  -6.887 -14.669  1.00 44.08 LIG 0.01  C 
ENDBRANCH 20 21
ENDBRANCH 15 20
ENDBRANCH 13 15
ENDBRANCH 6 11
ENDBRANCH 4 6
ENDBRANCH 1 2
BRANCH 1 24
ATOM     24  CB  PHE P   3      17.962 -11.163 -12.041  1.00 45.09 LIG 0.07  C 
BRANCH 24 25
ATOM     25  CG  PHE P   3      17.928  -9.591 -11.824  1.00 44.37 LIG-0.06  A 
ATOM     26  CD1 PHE P   3      17.687  -8.958 -10.579  1.00 43.10 LIG 0.01  A 
ATOM     27  CE1 PHE P   3      17.615  -7.497 -10.483  1.00 41.01 LIG 0.00  A 
ATOM     28  CZ  PHE P   3      17.757  -6.702 -11.636  1.00 41.66 LIG 0.00  A 
ATOM     29  CE2 PHE P   3      17.977  -7.328 -12.851  1.00 43.89 LIG 0.00  A 
ATOM     30  CD2 PHE P   3      18.045  -8.756 -12.940  1.00 44.25 LIG 0.01  A 
ENDBRANCH 24 25
ENDBRANCH 1 24
BRANCH 1 31
ATOM     31  C   PHE P   3      17.988 -12.886 -14.061  1.00 45.74 LIG 0.26  C 
ATOM     32 N    ASN P   4      17.524 -13.871 -13.385  1.00 46.65 LIG-0.24  NA
ATOM     33 O    PHE P   3      18.843 -12.883 -14.942  1.00 45.60 LIG-0.27  OA
BRANCH 32 34
ATOM     34  CA  ASN P   4      17.741 -15.269 -13.155  1.00 47.05 LIG 0.21  C 
BRANCH 34 35
ATOM     35  CB  ASN P   4      17.760 -15.295 -11.674  1.00 46.83 LIG 0.14  C 
BRANCH 35 36
ATOM     36  CG  ASN P   4      19.166 -15.062 -11.198  1.00 47.32 LIG 0.22  C 
ATOM     37  ND2 ASN P   4      20.060 -15.985 -11.554  1.00 46.99 LIG-0.37  N 
ATOM     38 22HD ASN P   4      19.813 -16.667 -12.017  1.00 46.99 LIG 0.16  HD
ATOM     39 21HD ASN P   4      20.883 -15.900 -11.319  1.00 46.99 LIG 0.16  HD
ATOM     40 OD1  ASN P   4      19.481 -14.081 -10.540  1.00 48.95 LIG-0.27  OA
ENDBRANCH 35 36
ENDBRANCH 34 35
BRANCH 34 41
ATOM     41  C   ASN P   4      17.143 -16.561 -13.544  1.00 47.23 LIG 0.24  C 
ATOM     42  N   ASP P   5      18.270 -17.325 -13.479  1.00 48.41 LIG-0.35  N 
ATOM     43 H    ASP P   5      18.991 -16.910 -13.264  1.00 48.41 LIG 0.16  HD
ATOM     44 O    ASN P   4      15.990 -16.849 -13.830  1.00 47.17 LIG-0.27  OA
BRANCH 42 45
ATOM     45  CA  ASP P   5      18.630 -18.719 -13.678  1.00 49.16 LIG 0.17  C 
BRANCH 45 46
ATOM     46  C   ASP P   5      18.630 -19.510 -12.369  1.00 49.66 LIG 0.22  C 
ATOM     47 O    ASP P   5      18.992 -18.974 -11.315  1.00 50.85 LIG-0.29  OA
ENDBRANCH 45 46
BRANCH 45 48
ATOM     48  CB  ASP P   5      20.042 -18.799 -14.361  1.00 49.44 LIG 0.15  C 
BRANCH 48 49
ATOM     49  CG  ASP P   5      21.296 -19.132 -13.540  1.00 49.12 LIG 0.17  C 
ATOM     50 OD1  ASP P   5      22.281 -18.365 -13.612  1.00 51.19 LIG-0.65  OA
ATOM     51 OD2  ASP P   5      21.293 -20.154 -12.832  1.00 49.06 LIG-0.65  OA
ENDBRANCH 48 49
ENDBRANCH 45 48
ENDBRANCH 42 45
ENDBRANCH 34 41
ENDBRANCH 32 34
ENDBRANCH 1 31
TORSDOF 20
ENDMDL
MODEL 2
USER: ADFR SOLUTION from run 78
USER: SCORE 18.097190 LL:  -4.101 LR: -15.231 RR:   0.000 FEB:  -9.265
USER: RMSD 10.433691
USER: SEED 77
USER: STATUS no improvement in best 5 clusters for 5 generations
USER: GENES 22
USER: genes 0 Translation |==|  0.41066 0.69629 0.47730
USER: genes 1 Rotation |==|  0.75709 0.54961 0.92596 0.50269
USER: genes 2 Torsion [CB]-CA--N-[C] |==|  0.25000
USER: genes 3 Torsion [N]-C--CA-[N] |==|  0.39961
USER: genes 4 Torsion [C]-CA--CB-[CG] |==|  0.36508
USER: genes 5 Torsion [CA]-CB--CG-[CD1] |==|  0.14514
USER: genes 6 Torsion [C]-CA--N-[C] |==|  0.69315
USER: genes 7 Torsion [N]-C--CA-[N] |==|  0.33475
USER: genes 8 Torsion [C]-CA--N-[H3] |==|  0.20530
USER: genes 9 Torsion [C]-CA--CB-[CG] |==|  0.33581
USER: genes 10 Torsion [CA]-CB--CG-[CD1] |==|  0.35660
USER: genes 11 Torsion [N]-CA--CB-[CG] |==|  0.18122
USER: genes 12 Torsion [CA]-CB--CG-[CD1] |==|  0.01746
USER: genes 13 Torsion [N]-CA--C-[N] |==|  0.98365
USER: genes 14 Torsion [C]-N--CA-[C] |==|  0.63644
USER: genes 15 Torsion [N]-CA--CB-[CG] |==|  0.63444
USER: genes 16 Torsion [CA]-CB--CG-[OD1] |==|  0.67103
USER: genes 17 Torsion [N]-CA--C-[N] |==|  0.24903
USER: genes 18 Torsion [C]-N--CA-[C] |==|  0.68274
USER: genes 19 Torsion [N]-CA--C-[O] |==|  0.02536
USER: genes 20 Torsion [N]-CA--CB-[CG] |==|  0.11406
USER: genes 21 Torsion [CA]-CB--CG-[OD1] |==|  0.34270
ROOT
ATOM      1  CA  PHE P   3      17.560  -8.971 -14.971  1.00 45.52 LIG 0.18  C 
ENDROOT
BRANCH 1 2
ATOM      2  N   PHE P   3      16.256  -9.643 -14.583  1.00 45.79 LIG-0.35  N 
ATOM      3 H    PHE P   3      16.287  -9.918 -13.769  1.00 45.79 LIG 0.16  HD
ATOM      4  C   LEU P   2      15.152  -9.837 -15.313  1.00 46.01 LIG 0.24  C 
ATOM      5 O    LEU P   2      15.046  -9.387 -16.447  1.00 46.46 LIG-0.27  OA
BRANCH 4 6
ATOM      6  CA  LEU P   2      13.938 -10.623 -14.651  1.00 45.94 LIG 0.18  C 
BRANCH 6 7
ATOM      7  CB  LEU P   2      13.963 -12.145 -14.954  1.00 45.93 LIG 0.04  C 
BRANCH 7 8
ATOM      8  CG  LEU P   2      13.788 -13.210 -13.832  1.00 45.11 LIG-0.02  C 
ATOM      9  CD1 LEU P   2      12.536 -12.993 -12.953  1.00 44.79 LIG 0.01  C 
ATOM     10  CD2 LEU P   2      13.780 -14.628 -14.396  1.00 44.35 LIG 0.01  C 
ENDBRANCH 7 8
ENDBRANCH 6 7
BRANCH 6 11
ATOM     11  N   LEU P   2      12.663 -10.038 -15.123  1.00 46.17 LIG-0.35  N 
ATOM     12 H    LEU P   2      12.507 -10.195 -15.954  1.00 46.17 LIG 0.16  HD
ATOM     13  C   LEU P   1      11.823  -9.334 -14.350  1.00 46.12 LIG 0.25  C 
ATOM     14 O    LEU P   1      12.006  -9.153 -13.136  1.00 46.29 LIG-0.27  OA
BRANCH 13 15
ATOM     15  CA  LEU P   1      10.578  -8.739 -15.059  1.00 45.93 LIG 0.28  C 
BRANCH 15 16
ATOM     16  N   LEU P   1       9.269  -9.208 -14.502  1.00 46.34 LIG-0.07  N 
ATOM     17 H3   LEU P   1       9.121  -8.815 -13.717  1.00 46.34 LIG 0.28  HD
ATOM     18 H2   LEU P   1       9.292 -10.091 -14.392  1.00 46.34 LIG 0.28  HD
ATOM     19 H1   LEU P   1       8.614  -8.997 -15.066  1.00 46.34 LIG 0.28  HD
ENDBRANCH 15 16
BRANCH 15 20
ATOM     20  CB  LEU P   1      10.636  -7.202 -15.046  1.00 45.65 LIG 0.05  C 
BRANCH 20 21
ATOM     21  CG  LEU P   1      10.623  -6.556 -16.436  1.00 44.28 LIG-0.02  C 
ATOM     22  CD1 LEU P   1       9.552  -5.486 -16.540  1.00 42.49 LIG 0.01  C 
ATOM     23  CD2 LEU P   1      11.986  -5.986 -16.785  1.00 44.08 LIG 0.01  C 
ENDBRANCH 20 21
ENDBRANCH 15 20
ENDBRANCH 13 15
ENDBRANCH 6 11
ENDBRANCH 4 6
ENDBRANCH 1 2
BRANCH 1 24
ATOM     24  CB  PHE P   3      17.723  -7.443 -14.743  1.00 45.09 LIG 0.07  C 
BRANCH 24 25
ATOM     25  CG  PHE P   3      17.714  -6.955 -13.233  1.00 44.37 LIG-0.06  A 
ATOM     26  CD1 PHE P   3      17.696  -7.820 -12.111  1.00 43.10 LIG 0.01  A 
ATOM     27  CE1 PHE P   3      17.628  -7.280 -10.749  1.00 41.01 LIG 0.00  A 
ATOM     28  CZ  PHE P   3      17.552  -5.890 -10.540  1.00 41.66 LIG 0.00  A 
ATOM     29  CE2 PHE P   3      17.554  -5.052 -11.643  1.00 43.89 LIG 0.00  A 
ATOM     30  CD2 PHE P   3      17.619  -5.585 -12.971  1.00 44.25 LIG 0.01  A 
ENDBRANCH 24 25
ENDBRANCH 1 24
BRANCH 1 31
ATOM     31  C   PHE P   3      18.407  -9.928 -14.106  1.00 45.74 LIG 0.26  C 
ATOM     32 N    ASN P   4      17.497 -10.602 -13.506  1.00 46.65 LIG-0.24  NA
ATOM     33 O    PHE P   3      19.623  -9.941 -13.936  1.00 45.60 LIG-0.27  OA
BRANCH 32 34
ATOM     34  CA  ASN P   4      17.316 -11.499 -12.401  1.00 47.05 LIG 0.21  C 
BRANCH 34 35
ATOM     35  CB  ASN P   4      16.721 -10.577 -11.407  1.00 46.83 LIG 0.14  C 
BRANCH 35 36
ATOM     36  CG  ASN P   4      17.443 -10.736 -10.098  1.00 47.32 LIG 0.22  C 
ATOM     37  ND2 ASN P   4      18.739 -10.426 -10.110  1.00 46.99 LIG-0.37  N 
ATOM     38 22HD ASN P   4      19.113 -10.166 -10.840  1.00 46.99 LIG 0.16  HD
ATOM     39 21HD ASN P   4      19.202 -10.488  -9.388  1.00 46.99 LIG 0.16  HD
ATOM     40 OD1  ASN P   4      16.878 -11.110  -9.080  1.00 48.95 LIG-0.27  OA
ENDBRANCH 35 36
ENDBRANCH 34 35
BRANCH 34 41
ATOM     41  C   ASN P   4      16.684 -12.805 -12.128  1.00 47.23 LIG 0.24  C 
ATOM     42  N   ASP P   5      17.752 -13.601 -12.418  1.00 48.41 LIG-0.35  N 
ATOM     43 H    ASP P   5      18.462 -13.194 -12.680  1.00 48.41 LIG 0.16  HD
ATOM     44 O    ASN P   4      15.554 -13.077 -11.753  1.00 47.17 LIG-0.27  OA
BRANCH 42 45
ATOM     45  CA  ASP P   5      18.058 -15.022 -12.412  1.00 49.16 LIG 0.17  C 
BRANCH 45 46
ATOM     46  C   ASP P   5      19.119 -15.382 -11.370  1.00 49.66 LIG 0.22  C 
ATOM     47 O    ASP P   5      19.490 -14.544 -10.540  1.00 50.85 LIG-0.29  OA
ENDBRANCH 45 46
BRANCH 45 48
ATOM     48  CB  ASP P   5      18.535 -15.456 -13.844  1.00 49.44 LIG 0.15  C 
BRANCH 48 49
ATOM     49  CG  ASP P   5      19.477 -14.564 -14.665  1.00 49.12 LIG 0.17  C 
ATOM     50 OD1  ASP P   5      20.560 -15.043 -15.064  1.00 51.19 LIG-0.65  OA
ATOM     51 OD2  ASP P   5      19.133 -13.393 -14.903  1.00 49.06 LIG-0.65  OA
ENDBRANCH 48 49
ENDBRANCH 45 48
ENDBRANCH 42 45
ENDBRANCH 34 41
ENDBRANCH 32 34
ENDBRANCH 1 31
TORSDOF 20
ENDMDL
MODEL 3
USER: ADFR SOLUTION from run 38
USER: SCORE 16.700272 LL:  -4.378 LR: -14.916 RR:   0.000 FEB:  -8.950
USER: RMSD 10.525365
USER: SEED 37
USER: STATUS no improvement in best 4 clusters for 5 generations
USER: GENES 22
USER: genes 0 Translation |==|  0.42848 0.73156 0.47368
USER: genes 1 Rotation |==|  0.17004 0.51929 0.12902 0.55595
USER: genes 2 Torsion [CB]-CA--N-[C] |==|  0.42284
USER: genes 3 Torsion [N]-C--CA-[N] |==|  0.34470
USER: genes 4 Torsion [C]-CA--CB-[CG] |==|  0.33998
USER: genes 5 Torsion [CA]-CB--CG-[CD1] |==|  0.88601
USER: genes 6 Torsion [C]-CA--N-[C] |==|  0.63220
USER: genes 7 Torsion [N]-C--CA-[N] |==|  0.24913
USER: genes 8 Torsion [C]-CA--N-[H3] |==|  0.14145
USER: genes 9 Torsion [C]-CA--CB-[CG] |==|  0.20096
USER: genes 10 Torsion [CA]-CB--CG-[CD1] |==|  0.30225
USER: genes 11 Torsion [N]-CA--CB-[CG] |==|  0.06072
USER: genes 12 Torsion [CA]-CB--CG-[CD1] |==|  0.57761
USER: genes 13 Torsion [N]-CA--C-[N] |==|  0.30856
USER: genes 14 Torsion [C]-N--CA-[C] |==|  0.55197
USER: genes 15 Torsion [N]-CA--CB-[CG] |==|  0.68124
USER: genes 16 Torsion [CA]-CB--CG-[OD1] |==|  0.33513
USER: genes 17 Torsion [N]-CA--C-[N] |==|  0.98959
USER: genes 18 Torsion [C]-N--CA-[C] |==|  0.81325
USER: genes 19 Torsion [N]-CA--C-[O] |==|  0.97084
USER: genes 20 Torsion [N]-CA--CB-[CG] |==|  0.13023
USER: genes 21 Torsion [CA]-CB--CG-[OD1] |==|  0.77275
ROOT
ATOM      1  CA  PHE P   3      18.095  -7.913 -15.080  1.00 45.52 LIG 0.18  C 
ENDROOT
BRANCH 1 2
ATOM      2  N   PHE P   3      17.008  -8.789 -14.486  1.00 45.79 LIG-0.35  N 
ATOM      3 H    PHE P   3      16.911  -8.628 -13.648  1.00 45.79 LIG 0.16  HD
ATOM      4  C   LEU P   2      16.244  -9.714 -15.081  1.00 46.01 LIG 0.24  C 
ATOM      5 O    LEU P   2      16.301  -9.912 -16.287  1.00 46.46 LIG-0.27  OA
BRANCH 4 6
ATOM      6  CA  LEU P   2      15.204 -10.521 -14.189  1.00 45.94 LIG 0.18  C 
BRANCH 6 7
ATOM      7  CB  LEU P   2      15.554 -12.028 -14.063  1.00 45.93 LIG 0.04  C 
BRANCH 7 8
ATOM      8  CG  LEU P   2      15.779 -12.708 -12.681  1.00 45.11 LIG-0.02  C 
ATOM      9  CD1 LEU P   2      16.586 -11.846 -11.684  1.00 44.79 LIG 0.01  C 
ATOM     10  CD2 LEU P   2      14.460 -13.134 -12.040  1.00 44.35 LIG 0.01  C 
ENDBRANCH 7 8
ENDBRANCH 6 7
BRANCH 6 11
ATOM     11  N   LEU P   2      13.848 -10.367 -14.760  1.00 46.17 LIG-0.35  N 
ATOM     12 H    LEU P   2      13.822 -10.500 -15.609  1.00 46.17 LIG 0.16  HD
ATOM     13  C   LEU P   1      12.758 -10.052 -14.045  1.00 46.12 LIG 0.25  C 
ATOM     14 O    LEU P   1      12.770  -9.918 -12.811  1.00 46.29 LIG-0.27  OA
BRANCH 13 15
ATOM     15  CA  LEU P   1      11.445  -9.858 -14.848  1.00 45.93 LIG 0.28  C 
BRANCH 15 16
ATOM     16  N   LEU P   1      10.641 -11.110 -15.026  1.00 46.34 LIG-0.07  N 
ATOM     17 H3   LEU P   1      10.525 -11.504 -14.236  1.00 46.34 LIG 0.28  HD
ATOM     18 H2   LEU P   1      11.072 -11.664 -15.574  1.00 46.34 LIG 0.28  HD
ATOM     19 H1   LEU P   1       9.848 -10.906 -15.375  1.00 46.34 LIG 0.28  HD
ENDBRANCH 15 16
BRANCH 15 20
ATOM     20  CB  LEU P   1      10.579  -8.762 -14.206  1.00 45.65 LIG 0.05  C 
BRANCH 20 21
ATOM     21  CG  LEU P   1      11.113  -7.338 -14.398  1.00 44.28 LIG-0.02  C 
ATOM     22  CD1 LEU P   1      10.252  -6.549 -15.366  1.00 42.49 LIG 0.01  C 
ATOM     23  CD2 LEU P   1      11.228  -6.614 -13.069  1.00 44.08 LIG 0.01  C 
ENDBRANCH 20 21
ENDBRANCH 15 20
ENDBRANCH 13 15
ENDBRANCH 6 11
ENDBRANCH 4 6
ENDBRANCH 1 2
BRANCH 1 24
ATOM     24  CB  PHE P   3      18.388  -6.529 -14.438  1.00 45.09 LIG 0.07  C 
BRANCH 24 25
ATOM     25  CG  PHE P   3      17.932  -6.346 -12.929  1.00 44.37 LIG-0.06  A 
ATOM     26  CD1 PHE P   3      17.576  -5.106 -12.343  1.00 43.10 LIG 0.01  A 
ATOM     27  CE1 PHE P   3      17.223  -5.022 -10.923  1.00 41.01 LIG 0.00  A 
ATOM     28  CZ  PHE P   3      17.258  -6.173 -10.113  1.00 41.66 LIG 0.00  A 
ATOM     29  CE2 PHE P   3      17.622  -7.378 -10.690  1.00 43.89 LIG 0.00  A 
ATOM     30  CD2 PHE P   3      17.968  -7.455 -12.078  1.00 44.25 LIG 0.01  A 
ENDBRANCH 24 25
ENDBRANCH 1 24
BRANCH 1 31
ATOM     31  C   PHE P   3      19.168  -9.014 -14.952  1.00 45.74 LIG 0.26  C 
ATOM     32 N    ASN P   4      19.381  -9.306 -16.182  1.00 46.65 LIG-0.24  NA
ATOM     33 O    PHE P   3      19.595  -9.561 -13.939  1.00 45.60 LIG-0.27  OA
BRANCH 32 34
ATOM     34  CA  ASN P   4      19.995 -10.309 -17.002  1.00 47.05 LIG 0.21  C 
BRANCH 34 35
ATOM     35  CB  ASN P   4      19.032 -11.421 -16.828  1.00 46.83 LIG 0.14  C 
BRANCH 35 36
ATOM     36  CG  ASN P   4      19.714 -12.552 -16.111  1.00 47.32 LIG 0.22  C 
ATOM     37  ND2 ASN P   4      20.798 -13.047 -16.707  1.00 46.99 LIG-0.37  N 
ATOM     38 22HD ASN P   4      21.059 -12.725 -17.461  1.00 46.99 LIG 0.16  HD
ATOM     39 21HD ASN P   4      21.236 -13.689 -16.339  1.00 46.99 LIG 0.16  HD
ATOM     40 OD1  ASN P   4      19.313 -12.984 -15.040  1.00 48.95 LIG-0.27  OA
ENDBRANCH 35 36
ENDBRANCH 34 35
BRANCH 34 41
ATOM     41  C   ASN P   4      20.493 -10.458 -18.384  1.00 47.23 LIG 0.24  C 
ATOM     42  N   ASP P   5      20.120  -9.234 -18.856  1.00 48.41 LIG-0.35  N 
ATOM     43 H    ASP P   5      19.711  -8.726 -18.297  1.00 48.41 LIG 0.16  HD
ATOM     44 O    ASN P   4      21.065 -11.390 -18.927  1.00 47.17 LIG-0.27  OA
BRANCH 42 45
ATOM     45  CA  ASP P   5      20.219  -8.494 -20.103  1.00 49.16 LIG 0.17  C 
BRANCH 45 46
ATOM     46  C   ASP P   5      21.664  -8.126 -20.445  1.00 49.66 LIG 0.22  C 
ATOM     47 O    ASP P   5      22.563  -8.281 -19.611  1.00 50.85 LIG-0.29  OA
ENDBRANCH 45 46
BRANCH 45 48
ATOM     48  CB  ASP P   5      19.336  -7.199 -20.010  1.00 49.44 LIG 0.15  C 
BRANCH 48 49
ATOM     49  CG  ASP P   5      19.403  -6.287 -18.777  1.00 49.12 LIG 0.17  C 
ATOM     50 OD1  ASP P   5      18.742  -6.600 -17.763  1.00 51.19 LIG-0.65  OA
ATOM     51 OD2  ASP P   5      20.110  -5.265 -18.827  1.00 49.06 LIG-0.65  OA
ENDBRANCH 48 49
ENDBRANCH 45 48
ENDBRANCH 42 45
ENDBRANCH 34 41
ENDBRANCH 32 34
ENDBRANCH 1 31
TORSDOF 20
ENDMDL
MODEL 4
USER: ADFR SOLUTION from run 90
USER: SCORE 17.878660 LL:  -4.147 LR: -14.867 RR:   0.000 FEB:  -8.901
USER: RMSD 10.012695
USER: SEED 89
USER: STATUS no improvement in best 3 clusters for 5 generations
USER: GENES 22
USER: genes 0 Translation |==|  0.37062 0.66024 0.55822
USER: genes 1 Rotation |==|  0.22137 0.68915 0.14165 0.59039
USER: genes 2 Torsion [CB]-CA--N-[C] |==|  0.79426
USER: genes 3 Torsion [N]-C--CA-[N] |==|  0.11111
USER: genes 4 Torsion [C]-CA--CB-[CG] |==|  0.71315
USER: genes 5 Torsion [CA]-CB--CG-[CD1] |==|  0.21814
USER: genes 6 Torsion [C]-CA--N-[C] |==|  0.79821
USER: genes 7 Torsion [N]-C--CA-[N] |==|  0.99857
USER: genes 8 Torsion [C]-CA--N-[H3] |==|  0.97002
USER: genes 9 Torsion [C]-CA--CB-[CG] |==|  0.26684
USER: genes 10 Torsion [CA]-CB--CG-[CD1] |==|  0.76513
USER: genes 11 Torsion [N]-CA--CB-[CG] |==|  0.65969
USER: genes 12 Torsion [CA]-CB--CG-[CD1] |==|  0.39780
USER: genes 13 Torsion [N]-CA--C-[N] |==|  0.19463
USER: genes 14 Torsion [C]-N--CA-[C] |==|  0.76820
USER: genes 15 Torsion [N]-CA--CB-[CG] |==|  0.17879
USER: genes 16 Torsion [CA]-CB--CG-[OD1] |==|  0.22286
USER: genes 17 Torsion [N]-CA--C-[N] |==|  0.00453
USER: genes 18 Torsion [C]-N--CA-[C] |==|  0.71756
USER: genes 19 Torsion [N]-CA--C-[O] |==|  0.01709
USER: genes 20 Torsion [N]-CA--CB-[CG] |==|  0.08267
USER: genes 21 Torsion [CA]-CB--CG-[OD1] |==|  0.17786
ROOT
ATOM      1  CA  PHE P   3      16.359 -10.053 -12.543  1.00 45.52 LIG 0.18  C 
ENDROOT
BRANCH 1 2
ATOM      2  N   PHE P   3      14.976 -10.676 -12.511  1.00 45.79 LIG-0.35  N 
ATOM      3 H    PHE P   3      14.398 -10.153 -12.874  1.00 45.79 LIG 0.16  HD
ATOM      4  C   LEU P   2      14.590 -11.859 -12.018  1.00 46.01 LIG 0.24  C 
ATOM      5 O    LEU P   2      15.398 -12.660 -11.568  1.00 46.46 LIG-0.27  OA
BRANCH 4 6
ATOM      6  CA  LEU P   2      13.046 -12.235 -12.083  1.00 45.94 LIG 0.18  C 
BRANCH 6 7
ATOM      7  CB  LEU P   2      12.783 -13.753 -11.891  1.00 45.93 LIG 0.04  C 
BRANCH 7 8
ATOM      8  CG  LEU P   2      12.443 -14.687 -13.089  1.00 45.11 LIG-0.02  C 
ATOM      9  CD1 LEU P   2      13.672 -15.100 -13.929  1.00 44.79 LIG 0.01  C 
ATOM     10  CD2 LEU P   2      11.688 -15.935 -12.635  1.00 44.35 LIG 0.01  C 
ENDBRANCH 7 8
ENDBRANCH 6 7
BRANCH 6 11
ATOM     11  N   LEU P   2      12.489 -11.790 -13.379  1.00 46.17 LIG-0.35  N 
ATOM     12 H    LEU P   2      12.325 -12.441 -13.918  1.00 46.17 LIG 0.16  HD
ATOM     13  C   LEU P   1      12.254 -10.510 -13.701  1.00 46.12 LIG 0.25  C 
ATOM     14 O    LEU P   1      12.427  -9.568 -12.913  1.00 46.29 LIG-0.27  OA
BRANCH 13 15
ATOM     15  CA  LEU P   1      11.743 -10.249 -15.143  1.00 45.93 LIG 0.28  C 
BRANCH 15 16
ATOM     16  N   LEU P   1      11.597 -11.485 -15.977  1.00 46.34 LIG-0.07  N 
ATOM     17 H3   LEU P   1      11.977 -12.173 -15.560  1.00 46.34 LIG 0.28  HD
ATOM     18 H2   LEU P   1      11.993 -11.360 -16.765  1.00 46.34 LIG 0.28  HD
ATOM     19 H1   LEU P   1      10.733 -11.657 -16.104  1.00 46.34 LIG 0.28  HD
ENDBRANCH 15 16
BRANCH 15 20
ATOM     20  CB  LEU P   1      10.416  -9.474 -15.111  1.00 45.65 LIG 0.05  C 
BRANCH 20 21
ATOM     21  CG  LEU P   1      10.563  -7.957 -15.276  1.00 44.28 LIG-0.02  C 
ATOM     22  CD1 LEU P   1      10.865  -7.282 -13.952  1.00 42.49 LIG 0.01  C 
ATOM     23  CD2 LEU P   1      11.628  -7.621 -16.305  1.00 44.08 LIG 0.01  C 
ENDBRANCH 20 21
ENDBRANCH 15 20
ENDBRANCH 13 15
ENDBRANCH 6 11
ENDBRANCH 4 6
ENDBRANCH 1 2
BRANCH 1 24
ATOM     24  CB  PHE P   3      16.966  -9.485 -11.231  1.00 45.09 LIG 0.07  C 
BRANCH 24 25
ATOM     25  CG  PHE P   3      17.383  -7.954 -11.258  1.00 44.37 LIG-0.06  A 
ATOM     26  CD1 PHE P   3      17.240  -7.064 -10.164  1.00 43.10 LIG 0.01  A 
ATOM     27  CE1 PHE P   3      17.598  -5.649 -10.297  1.00 41.01 LIG 0.00  A 
ATOM     28  CZ  PHE P   3      18.065  -5.148 -11.528  1.00 41.66 LIG 0.00  A 
ATOM     29  CE2 PHE P   3      18.187  -6.021 -12.596  1.00 43.89 LIG 0.00  A 
ATOM     30  CD2 PHE P   3      17.834  -7.403 -12.461  1.00 44.25 LIG 0.01  A 
ENDBRANCH 24 25
ENDBRANCH 1 24
BRANCH 1 31
ATOM     31  C   PHE P   3      17.004 -11.314 -13.155  1.00 45.74 LIG 0.26  C 
ATOM     32 N    ASN P   4      16.517 -11.301 -14.340  1.00 46.65 LIG-0.24  NA
ATOM     33 O    PHE P   3      17.687 -12.174 -12.606  1.00 45.60 LIG-0.27  OA
BRANCH 32 34
ATOM     34  CA  ASN P   4      16.357 -12.139 -15.493  1.00 47.05 LIG 0.21  C 
BRANCH 34 35
ATOM     35  CB  ASN P   4      15.097 -11.592 -16.046  1.00 46.83 LIG 0.14  C 
BRANCH 35 36
ATOM     36  CG  ASN P   4      15.325 -10.168 -16.470  1.00 47.32 LIG 0.22  C 
ATOM     37  ND2 ASN P   4      14.922  -9.235 -15.607  1.00 46.99 LIG-0.37  N 
ATOM     38 22HD ASN P   4      14.548  -9.465 -14.867  1.00 46.99 LIG 0.16  HD
ATOM     39 21HD ASN P   4      15.036  -8.403 -15.790  1.00 46.99 LIG 0.16  HD
ATOM     40 OD1  ASN P   4      15.860  -9.878 -17.530  1.00 48.95 LIG-0.27  OA
ENDBRANCH 35 36
ENDBRANCH 34 35
BRANCH 34 41
ATOM     41  C   ASN P   4      17.137 -12.554 -16.676  1.00 47.23 LIG 0.24  C 
ATOM     42  N   ASP P   5      18.287 -11.877 -16.398  1.00 48.41 LIG-0.35  N 
ATOM     43 H    ASP P   5      18.278 -11.404 -15.680  1.00 48.41 LIG 0.16  HD
ATOM     44 O    ASN P   4      16.837 -13.284 -17.609  1.00 47.17 LIG-0.27  OA
BRANCH 42 45
ATOM     45  CA  ASP P   5      19.601 -11.711 -16.996  1.00 49.16 LIG 0.17  C 
BRANCH 45 46
ATOM     46  C   ASP P   5      20.666 -12.559 -16.298  1.00 49.66 LIG 0.22  C 
ATOM     47 O    ASP P   5      20.346 -13.362 -15.414  1.00 50.85 LIG-0.29  OA
ENDBRANCH 45 46
BRANCH 45 48
ATOM     48  CB  ASP P   5      20.003 -10.194 -16.956  1.00 49.44 LIG 0.15  C 
BRANCH 48 49
ATOM     49  CG  ASP P   5      19.489  -9.272 -15.841  1.00 49.12 LIG 0.17  C 
ATOM     50 OD1  ASP P   5      19.837  -9.504 -14.663  1.00 51.19 LIG-0.65  OA
ATOM     51 OD2  ASP P   5      18.740  -8.327 -16.144  1.00 49.06 LIG-0.65  OA
ENDBRANCH 48 49
ENDBRANCH 45 48
ENDBRANCH 42 45
ENDBRANCH 34 41
ENDBRANCH 32 34
ENDBRANCH 1 31
TORSDOF 20
ENDMDL
MODEL 5
USER: ADFR SOLUTION from run 159
USER: SCORE 17.024156 LL:  -4.337 LR: -14.868 RR:   0.000 FEB:  -8.902
USER: RMSD 9.341071
USER: SEED 158
USER: STATUS no improvement in best 13 clusters for 5 generations
USER: GENES 22
USER: genes 0 Translation |==|  0.43194 0.67415 0.60199
USER: genes 1 Rotation |==|  0.56265 0.62246 0.02303 0.55981
USER: genes 2 Torsion [CB]-CA--N-[C] |==|  0.32834
USER: genes 3 Torsion [N]-C--CA-[N] |==|  0.10817
USER: genes 4 Torsion [C]-CA--CB-[CG] |==|  0.77811
USER: genes 5 Torsion [CA]-CB--CG-[CD1] |==|  0.78509
USER: genes 6 Torsion [C]-CA--N-[C] |==|  0.60678
USER: genes 7 Torsion [N]-C--CA-[N] |==|  0.22329
USER: genes 8 Torsion [C]-CA--N-[H3] |==|  0.54133
USER: genes 9 Torsion [C]-CA--CB-[CG] |==|  0.43055
USER: genes 10 Torsion [CA]-CB--CG-[CD1] |==|  0.89142
USER: genes 11 Torsion [N]-CA--CB-[CG] |==|  0.82967
USER: genes 12 Torsion [CA]-CB--CG-[CD1] |==|  0.53552
USER: genes 13 Torsion [N]-CA--C-[N] |==|  0.92540
USER: genes 14 Torsion [C]-N--CA-[C] |==|  0.77747
USER: genes 15 Torsion [N]-CA--CB-[CG] |==|  0.59621
USER: genes 16 Torsion [CA]-CB--CG-[OD1] |==|  0.69695
USER: genes 17 Torsion [N]-CA--C-[N] |==|  0.17266
USER: genes 18 Torsion [C]-N--CA-[C] |==|  0.46919
USER: genes 19 Torsion [N]-CA--C-[O] |==|  0.99098
USER: genes 20 Torsion [N]-CA--CB-[CG] |==|  0.15983
USER: genes 21 Torsion [CA]-CB--CG-[OD1] |==|  0.32223
ROOT
ATOM      1  CA  PHE P   3      18.198  -9.636 -11.230  1.00 45.52 LIG 0.18  C 
ENDROOT
BRANCH 1 2
ATOM      2  N   PHE P   3      17.742  -9.761 -12.671  1.00 45.79 LIG-0.35  N 
ATOM      3 H    PHE P   3      16.945 -10.083 -12.711  1.00 45.79 LIG 0.16  HD
ATOM      4  C   LEU P   2      18.393  -9.451 -13.798  1.00 46.01 LIG 0.24  C 
ATOM      5 O    LEU P   2      19.495  -8.917 -13.774  1.00 46.46 LIG-0.27  OA
BRANCH 4 6
ATOM      6  CA  LEU P   2      17.675  -9.735 -15.188  1.00 45.94 LIG 0.18  C 
BRANCH 6 7
ATOM      7  CB  LEU P   2      18.299  -8.941 -16.367  1.00 45.93 LIG 0.04  C 
BRANCH 7 8
ATOM      8  CG  LEU P   2      17.959  -7.443 -16.621  1.00 45.11 LIG-0.02  C 
ATOM      9  CD1 LEU P   2      16.583  -7.218 -17.287  1.00 44.79 LIG 0.01  C 
ATOM     10  CD2 LEU P   2      18.049  -6.619 -15.338  1.00 44.35 LIG 0.01  C 
ENDBRANCH 7 8
ENDBRANCH 6 7
BRANCH 6 11
ATOM     11  N   LEU P   2      16.237  -9.410 -15.070  1.00 46.17 LIG-0.35  N 
ATOM     12 H    LEU P   2      16.086  -8.709 -14.595  1.00 46.17 LIG 0.16  HD
ATOM     13  C   LEU P   1      15.253 -10.122 -15.638  1.00 46.12 LIG 0.25  C 
ATOM     14 O    LEU P   1      15.458 -11.098 -16.376  1.00 46.29 LIG-0.27  OA
BRANCH 13 15
ATOM     15  CA  LEU P   1      13.805  -9.660 -15.325  1.00 45.93 LIG 0.28  C 
BRANCH 15 16
ATOM     16  N   LEU P   1      13.340  -8.492 -16.141  1.00 46.34 LIG-0.07  N 
ATOM     17 H3   LEU P   1      12.607  -8.146 -15.773  1.00 46.34 LIG 0.28  HD
ATOM     18 H2   LEU P   1      13.158  -8.763 -16.969  1.00 46.34 LIG 0.28  HD
ATOM     19 H1   LEU P   1      13.980  -7.874 -16.165  1.00 46.34 LIG 0.28  HD
ENDBRANCH 15 16
BRANCH 15 20
ATOM     20  CB  LEU P   1      12.822 -10.832 -15.475  1.00 45.65 LIG 0.05  C 
BRANCH 20 21
ATOM     21  CG  LEU P   1      11.538 -10.692 -14.650  1.00 44.28 LIG-0.02  C 
ATOM     22  CD1 LEU P   1      11.818 -10.094 -13.284  1.00 42.49 LIG 0.01  C 
ATOM     23  CD2 LEU P   1      10.499  -9.871 -15.392  1.00 44.08 LIG 0.01  C 
ENDBRANCH 20 21
ENDBRANCH 15 20
ENDBRANCH 13 15
ENDBRANCH 6 11
ENDBRANCH 4 6
ENDBRANCH 1 2
BRANCH 1 24
ATOM     24  CB  PHE P   3      17.416  -8.702 -10.265  1.00 45.09 LIG 0.07  C 
BRANCH 24 25
ATOM     25  CG  PHE P   3      17.379  -7.165 -10.656  1.00 44.37 LIG-0.06  A 
ATOM     26  CD1 PHE P   3      16.951  -6.127  -9.791  1.00 43.10 LIG 0.01  A 
ATOM     27  CE1 PHE P   3      16.894  -4.738 -10.256  1.00 41.01 LIG 0.00  A 
ATOM     28  CZ  PHE P   3      17.240  -4.420 -11.583  1.00 41.66 LIG 0.00  A 
ATOM     29  CE2 PHE P   3      17.643  -5.442 -12.427  1.00 43.89 LIG 0.00  A 
ATOM     30  CD2 PHE P   3      17.695  -6.797 -11.968  1.00 44.25 LIG 0.01  A 
ENDBRANCH 24 25
ENDBRANCH 1 24
BRANCH 1 31
ATOM     31  C   PHE P   3      18.124 -11.158 -10.987  1.00 45.74 LIG 0.26  C 
ATOM     32 N    ASN P   4      17.232 -11.509 -11.836  1.00 46.65 LIG-0.24  NA
ATOM     33 O    PHE P   3      18.671 -11.826 -10.114  1.00 45.60 LIG-0.27  OA
BRANCH 32 34
ATOM     34  CA  ASN P   4      16.375 -12.611 -12.167  1.00 47.05 LIG 0.21  C 
BRANCH 34 35
ATOM     35  CB  ASN P   4      15.270 -11.893 -12.844  1.00 46.83 LIG 0.14  C 
BRANCH 35 36
ATOM     36  CG  ASN P   4      13.974 -12.589 -12.537  1.00 47.32 LIG 0.22  C 
ATOM     37  ND2 ASN P   4      13.523 -12.451 -11.290  1.00 46.99 LIG-0.37  N 
ATOM     38 22HD ASN P   4      13.974 -11.995 -10.717  1.00 46.99 LIG 0.16  HD
ATOM     39 21HD ASN P   4      12.781 -12.818 -11.058  1.00 46.99 LIG 0.16  HD
ATOM     40 OD1  ASN P   4      13.360 -13.230 -13.377  1.00 48.95 LIG-0.27  OA
ENDBRANCH 35 36
ENDBRANCH 34 35
BRANCH 34 41
ATOM     41  C   ASN P   4      16.461 -13.910 -12.863  1.00 47.23 LIG 0.24  C 
ATOM     42  N   ASP P   5      17.371 -14.509 -12.043  1.00 48.41 LIG-0.35  N 
ATOM     43 H    ASP P   5      17.660 -14.029 -11.391  1.00 48.41 LIG 0.16  HD
ATOM     44 O    ASN P   4      15.887 -14.315 -13.862  1.00 47.17 LIG-0.27  OA
BRANCH 42 45
ATOM     45  CA  ASP P   5      18.032 -15.799 -11.944  1.00 49.16 LIG 0.17  C 
BRANCH 45 46
ATOM     46  C   ASP P   5      19.180 -15.785 -10.932  1.00 49.66 LIG 0.22  C 
ATOM     47 O    ASP P   5      19.490 -14.738 -10.352  1.00 50.85 LIG-0.29  OA
ENDBRANCH 45 46
BRANCH 45 48
ATOM     48  CB  ASP P   5      18.564 -16.221 -13.360  1.00 49.44 LIG 0.15  C 
BRANCH 48 49
ATOM     49  CG  ASP P   5      19.537 -15.322 -14.136  1.00 49.12 LIG 0.17  C 
ATOM     50 OD1  ASP P   5      20.687 -15.750 -14.376  1.00 51.19 LIG-0.65  OA
ATOM     51 OD2  ASP P   5      19.153 -14.196 -14.497  1.00 49.06 LIG-0.65  OA
ENDBRANCH 48 49
ENDBRANCH 45 48
ENDBRANCH 42 45
ENDBRANCH 34 41
ENDBRANCH 32 34
ENDBRANCH 1 31
TORSDOF 20
ENDMDL
MODEL 6
USER: ADFR SOLUTION from run 4
USER: SCORE 16.540720 LL:  -3.340 LR: -14.616 RR:   0.000 FEB:  -8.650
USER: RMSD 9.288507
USER: SEED 905551
USER: STATUS no improvement in best 1 clusters for 5 generations
USER: GENES 22
USER: genes 0 Translation |==|  0.36106 0.57938 0.58990
USER: genes 1 Rotation |==|  0.80237 0.82006 0.28691 0.60359
USER: genes 2 Torsion [CB]-CA--N-[C] |==|  0.26414
USER: genes 3 Torsion [N]-C--CA-[N] |==|  0.07373
USER: genes 4 Torsion [C]-CA--CB-[CG] |==|  0.60124
USER: genes 5 Torsion [CA]-CB--CG-[CD1] |==|  0.48803
USER: genes 6 Torsion [C]-CA--N-[C] |==|  0.66982
USER: genes 7 Torsion [N]-C--CA-[N] |==|  0.97544
USER: genes 8 Torsion [C]-CA--N-[H3] |==|  0.96672
USER: genes 9 Torsion [C]-CA--CB-[CG] |==|  0.55413
USER: genes 10 Torsion [CA]-CB--CG-[CD1] |==|  0.47944
USER: genes 11 Torsion [N]-CA--CB-[CG] |==|  0.11059
USER: genes 12 Torsion [CA]-CB--CG-[CD1] |==|  0.02699
USER: genes 13 Torsion [N]-CA--C-[N] |==|  0.44492
USER: genes 14 Torsion [C]-N--CA-[C] |==|  0.66593
USER: genes 15 Torsion [N]-CA--CB-[CG] |==|  0.76731
USER: genes 16 Torsion [CA]-CB--CG-[OD1] |==|  0.28916
USER: genes 17 Torsion [N]-CA--C-[N] |==|  0.46753
USER: genes 18 Torsion [C]-N--CA-[C] |==|  0.97993
USER: genes 19 Torsion [N]-CA--C-[O] |==|  0.27453
USER: genes 20 Torsion [N]-CA--CB-[CG] |==|  0.57616
USER: genes 21 Torsion [CA]-CB--CG-[OD1] |==|  0.81833
ROOT
ATOM      1  CA  PHE P   3      16.072 -12.479 -11.593  1.00 45.52 LIG 0.18  C 
ENDROOT
BRANCH 1 2
ATOM      2  N   PHE P   3      16.756 -11.152 -11.864  1.00 45.79 LIG-0.35  N 
ATOM      3 H    PHE P   3      16.878 -11.040 -12.708  1.00 45.79 LIG 0.16  HD
ATOM      4  C   LEU P   2      17.159 -10.213 -11.000  1.00 46.01 LIG 0.24  C 
ATOM      5 O    LEU P   2      16.929 -10.305  -9.801  1.00 46.46 LIG-0.27  OA
BRANCH 4 6
ATOM      6  CA  LEU P   2      17.899  -8.928 -11.573  1.00 45.94 LIG 0.18  C 
BRANCH 6 7
ATOM      7  CB  LEU P   2      17.647  -7.653 -10.723  1.00 45.93 LIG 0.04  C 
BRANCH 7 8
ATOM      8  CG  LEU P   2      17.495  -6.248 -11.374  1.00 45.11 LIG-0.02  C 
ATOM      9  CD1 LEU P   2      17.146  -5.127 -10.368  1.00 44.79 LIG 0.01  C 
ATOM     10  CD2 LEU P   2      18.738  -5.855 -12.168  1.00 44.35 LIG 0.01  C 
ENDBRANCH 7 8
ENDBRANCH 6 7
BRANCH 6 11
ATOM     11  N   LEU P   2      17.463  -8.694 -12.968  1.00 46.17 LIG-0.35  N 
ATOM     12 H    LEU P   2      16.618  -8.547 -13.037  1.00 46.17 LIG 0.16  HD
ATOM     13  C   LEU P   1      18.283  -8.707 -14.028  1.00 46.12 LIG 0.25  C 
ATOM     14 O    LEU P   1      19.512  -8.857 -13.936  1.00 46.29 LIG-0.27  OA
BRANCH 13 15
ATOM     15  CA  LEU P   1      17.612  -8.520 -15.414  1.00 45.93 LIG 0.28  C 
BRANCH 15 16
ATOM     16  N   LEU P   1      16.115  -8.560 -15.385  1.00 46.34 LIG-0.07  N 
ATOM     17 H3   LEU P   1      15.841  -8.859 -14.592  1.00 46.34 LIG 0.28  HD
ATOM     18 H2   LEU P   1      15.820  -9.104 -16.025  1.00 46.34 LIG 0.28  HD
ATOM     19 H1   LEU P   1      15.794  -7.741 -15.520  1.00 46.34 LIG 0.28  HD
ENDBRANCH 15 16
BRANCH 15 20
ATOM     20  CB  LEU P   1      18.092  -7.216 -16.072  1.00 45.65 LIG 0.05  C 
BRANCH 20 21
ATOM     21  CG  LEU P   1      17.179  -6.695 -17.188  1.00 44.28 LIG-0.02  C 
ATOM     22  CD1 LEU P   1      17.613  -5.322 -17.664  1.00 42.49 LIG 0.01  C 
ATOM     23  CD2 LEU P   1      17.121  -7.672 -18.348  1.00 44.08 LIG 0.01  C 
ENDBRANCH 20 21
ENDBRANCH 15 20
ENDBRANCH 13 15
ENDBRANCH 6 11
ENDBRANCH 4 6
ENDBRANCH 1 2
BRANCH 1 24
ATOM     24  CB  PHE P   3      14.522 -12.562 -11.669  1.00 45.09 LIG 0.07  C 
BRANCH 24 25
ATOM     25  CG  PHE P   3      13.834 -11.746 -12.842  1.00 44.37 LIG-0.06  A 
ATOM     26  CD1 PHE P   3      14.533 -11.130 -13.910  1.00 43.10 LIG 0.01  A 
ATOM     27  CE1 PHE P   3      13.819 -10.344 -14.920  1.00 41.01 LIG 0.00  A 
ATOM     28  CZ  PHE P   3      12.425 -10.168 -14.827  1.00 41.66 LIG 0.00  A 
ATOM     29  CE2 PHE P   3      11.751 -10.760 -13.773  1.00 43.89 LIG 0.00  A 
ATOM     30  CD2 PHE P   3      12.453 -11.526 -12.787  1.00 44.25 LIG 0.01  A 
ENDBRANCH 24 25
ENDBRANCH 1 24
BRANCH 1 31
ATOM     31  C   PHE P   3      16.892 -13.217 -12.672  1.00 45.74 LIG 0.26  C 
ATOM     32 N    ASN P   4      16.757 -14.437 -12.304  1.00 46.65 LIG-0.24  NA
ATOM     33 O    PHE P   3      17.599 -12.747 -13.559  1.00 45.60 LIG-0.27  OA
BRANCH 32 34
ATOM     34  CA  ASN P   4      17.313 -15.740 -12.528  1.00 47.05 LIG 0.21  C 
BRANCH 34 35
ATOM     35  CB  ASN P   4      17.919 -16.001 -11.203  1.00 46.83 LIG 0.14  C 
BRANCH 35 36
ATOM     36  CG  ASN P   4      19.278 -15.360 -11.151  1.00 47.32 LIG 0.22  C 
ATOM     37  ND2 ASN P   4      20.240 -15.985 -11.831  1.00 46.99 LIG-0.37  N 
ATOM     38 22HD ASN P   4      20.065 -16.714 -12.253  1.00 46.99 LIG 0.16  HD
ATOM     39 21HD ASN P   4      21.036 -15.659 -11.847  1.00 46.99 LIG 0.16  HD
ATOM     40 OD1  ASN P   4      19.490 -14.323 -10.540  1.00 48.95 LIG-0.27  OA
ENDBRANCH 35 36
ENDBRANCH 34 35
BRANCH 34 41
ATOM     41  C   ASN P   4      16.870 -17.065 -13.006  1.00 47.23 LIG 0.24  C 
ATOM     42  N   ASP P   5      18.098 -17.638 -13.153  1.00 48.41 LIG-0.35  N 
ATOM     43 H    ASP P   5      18.770 -17.135 -12.967  1.00 48.41 LIG 0.16  HD
ATOM     44 O    ASN P   4      15.747 -17.505 -13.201  1.00 47.17 LIG-0.27  OA
BRANCH 42 45
ATOM     45  CA  ASP P   5      18.634 -18.927 -13.556  1.00 49.16 LIG 0.17  C 
BRANCH 45 46
ATOM     46  C   ASP P   5      17.538 -19.977 -13.747  1.00 49.66 LIG 0.22  C 
ATOM     47 O    ASP P   5      17.112 -20.238 -14.878  1.00 50.85 LIG-0.29  OA
ENDBRANCH 45 46
BRANCH 45 48
ATOM     48  CB  ASP P   5      19.673 -19.416 -12.484  1.00 49.44 LIG 0.15  C 
BRANCH 48 49
ATOM     49  CG  ASP P   5      20.825 -20.354 -12.874  1.00 49.12 LIG 0.17  C 
ATOM     50 OD1  ASP P   5      20.552 -21.511 -13.261  1.00 51.19 LIG-0.65  OA
ATOM     51 OD2  ASP P   5      21.992 -19.934 -12.790  1.00 49.06 LIG-0.65  OA
ENDBRANCH 48 49
ENDBRANCH 45 48
ENDBRANCH 42 45
ENDBRANCH 34 41
ENDBRANCH 32 34
ENDBRANCH 1 31
TORSDOF 20
ENDMDL
MODEL 7
USER: ADFR SOLUTION from run 91
USER: SCORE 17.277867 LL:  -3.322 LR: -14.600 RR:   0.000 FEB:  -8.634
USER: RMSD 10.464983
USER: SEED 90
USER: STATUS searching
USER: GENES 22
USER: genes 0 Translation |==|  0.39209 0.68200 0.52227
USER: genes 1 Rotation |==|  0.17901 0.72265 0.20498 0.60176
USER: genes 2 Torsion [CB]-CA--N-[C] |==|  0.88052
USER: genes 3 Torsion [N]-C--CA-[N] |==|  0.06448
USER: genes 4 Torsion [C]-CA--CB-[CG] |==|  0.65656
USER: genes 5 Torsion [CA]-CB--CG-[CD1] |==|  0.32347
USER: genes 6 Torsion [C]-CA--N-[C] |==|  0.72467
USER: genes 7 Torsion [N]-C--CA-[N] |==|  0.12325
USER: genes 8 Torsion [C]-CA--N-[H3] |==|  0.24764
USER: genes 9 Torsion [C]-CA--CB-[CG] |==|  0.23189
USER: genes 10 Torsion [CA]-CB--CG-[CD1] |==|  0.36022
USER: genes 11 Torsion [N]-CA--CB-[CG] |==|  0.72923
USER: genes 12 Torsion [CA]-CB--CG-[CD1] |==|  0.35127
USER: genes 13 Torsion [N]-CA--C-[N] |==|  0.33015
USER: genes 14 Torsion [C]-N--CA-[C] |==|  0.79571
USER: genes 15 Torsion [N]-CA--CB-[CG] |==|  0.07860
USER: genes 16 Torsion [CA]-CB--CG-[OD1] |==|  0.22674
USER: genes 17 Torsion [N]-CA--C-[N] |==|  0.96706
USER: genes 18 Torsion [C]-N--CA-[C] |==|  0.06906
USER: genes 19 Torsion [N]-CA--C-[O] |==|  0.22055
USER: genes 20 Torsion [N]-CA--CB-[CG] |==|  0.01317
USER: genes 21 Torsion [CA]-CB--CG-[OD1] |==|  0.24469
ROOT
ATOM      1  CA  PHE P   3      17.003  -9.400 -13.622  1.00 45.52 LIG 0.18  C 
ENDROOT
BRANCH 1 2
ATOM      2  N   PHE P   3      15.708 -10.144 -13.353  1.00 45.79 LIG-0.35  N 
ATOM      3 H    PHE P   3      15.067  -9.819 -13.826  1.00 45.79 LIG 0.16  HD
ATOM      4  C   LEU P   2      15.475 -11.169 -12.525  1.00 46.01 LIG 0.24  C 
ATOM      5 O    LEU P   2      16.380 -11.706 -11.900  1.00 46.46 LIG-0.27  OA
BRANCH 4 6
ATOM      6  CA  LEU P   2      13.989 -11.725 -12.413  1.00 45.94 LIG 0.18  C 
BRANCH 6 7
ATOM      7  CB  LEU P   2      13.932 -13.259 -12.182  1.00 45.93 LIG 0.04  C 
BRANCH 7 8
ATOM      8  CG  LEU P   2      13.149 -14.206 -13.138  1.00 45.11 LIG-0.02  C 
ATOM      9  CD1 LEU P   2      14.042 -15.226 -13.879  1.00 44.79 LIG 0.01  C 
ATOM     10  CD2 LEU P   2      12.026 -14.941 -12.410  1.00 44.35 LIG 0.01  C 
ENDBRANCH 7 8
ENDBRANCH 6 7
BRANCH 6 11
ATOM     11  N   LEU P   2      13.242 -11.375 -13.642  1.00 46.17 LIG-0.35  N 
ATOM     12 H    LEU P   2      13.400 -11.909 -14.297  1.00 46.17 LIG 0.16  HD
ATOM     13  C   LEU P   1      12.401 -10.336 -13.743  1.00 46.12 LIG 0.25  C 
ATOM     14 O    LEU P   1      12.118  -9.594 -12.790  1.00 46.29 LIG-0.27  OA
BRANCH 13 15
ATOM     15  CA  LEU P   1      11.780 -10.093 -15.144  1.00 45.93 LIG 0.28  C 
BRANCH 15 16
ATOM     16  N   LEU P   1      11.292 -11.335 -15.825  1.00 46.34 LIG-0.07  N 
ATOM     17 H3   LEU P   1      10.444 -11.485 -15.598  1.00 46.34 LIG 0.28  HD
ATOM     18 H2   LEU P   1      11.793 -12.028 -15.575  1.00 46.34 LIG 0.28  HD
ATOM     19 H1   LEU P   1      11.348 -11.232 -16.708  1.00 46.34 LIG 0.28  HD
ENDBRANCH 15 16
BRANCH 15 20
ATOM     20  CB  LEU P   1      10.646  -9.059 -15.058  1.00 45.65 LIG 0.05  C 
BRANCH 20 21
ATOM     21  CG  LEU P   1      11.115  -7.600 -15.095  1.00 44.28 LIG-0.02  C 
ATOM     22  CD1 LEU P   1      10.345  -6.796 -16.126  1.00 42.49 LIG 0.01  C 
ATOM     23  CD2 LEU P   1      11.006  -6.957 -13.724  1.00 44.08 LIG 0.01  C 
ENDBRANCH 20 21
ENDBRANCH 15 20
ENDBRANCH 13 15
ENDBRANCH 6 11
ENDBRANCH 4 6
ENDBRANCH 1 2
BRANCH 1 24
ATOM     24  CB  PHE P   3      17.920  -9.017 -12.428  1.00 45.09 LIG 0.07  C 
BRANCH 24 25
ATOM     25  CG  PHE P   3      17.772  -7.535 -11.879  1.00 44.37 LIG-0.06  A 
ATOM     26  CD1 PHE P   3      17.524  -7.201 -10.525  1.00 43.10 LIG 0.01  A 
ATOM     27  CE1 PHE P   3      17.343  -5.805 -10.117  1.00 41.01 LIG 0.00  A 
ATOM     28  CZ  PHE P   3      17.387  -4.775 -11.075  1.00 41.66 LIG 0.00  A 
ATOM     29  CE2 PHE P   3      17.615  -5.110 -12.399  1.00 43.89 LIG 0.00  A 
ATOM     30  CD2 PHE P   3      17.789  -6.476 -12.793  1.00 44.25 LIG 0.01  A 
ENDBRANCH 24 25
ENDBRANCH 1 24
BRANCH 1 31
ATOM     31  C   PHE P   3      17.509 -10.470 -14.612  1.00 45.74 LIG 0.26  C 
ATOM     32 N    ASN P   4      17.618  -9.787 -15.691  1.00 46.65 LIG-0.24  NA
ATOM     33 O    PHE P   3      17.635 -11.680 -14.442  1.00 45.60 LIG-0.27  OA
BRANCH 32 34
ATOM     34  CA  ASN P   4      17.780  -9.953 -17.106  1.00 47.05 LIG 0.21  C 
BRANCH 34 35
ATOM     35  CB  ASN P   4      17.305  -8.633 -17.583  1.00 46.83 LIG 0.14  C 
BRANCH 35 36
ATOM     36  CG  ASN P   4      17.560  -7.606 -16.516  1.00 47.32 LIG 0.22  C 
ATOM     37  ND2 ASN P   4      16.522  -7.317 -15.730  1.00 46.99 LIG-0.37  N 
ATOM     38 22HD ASN P   4      15.764  -7.702 -15.859  1.00 46.99 LIG 0.16  HD
ATOM     39 21HD ASN P   4      16.611  -6.744 -15.095  1.00 46.99 LIG 0.16  HD
ATOM     40 OD1  ASN P   4      18.652  -7.078 -16.362  1.00 48.95 LIG-0.27  OA
ENDBRANCH 35 36
ENDBRANCH 34 35
BRANCH 34 41
ATOM     41  C   ASN P   4      18.836 -10.339 -18.063  1.00 47.23 LIG 0.24  C 
ATOM     42  N   ASP P   5      19.898 -10.286 -17.210  1.00 48.41 LIG-0.35  N 
ATOM     43 H    ASP P   5      19.719 -10.048 -16.404  1.00 48.41 LIG 0.16  HD
ATOM     44 O    ASN P   4      18.769 -10.622 -19.249  1.00 47.17 LIG-0.27  OA
BRANCH 42 45
ATOM     45  CA  ASP P   5      21.330 -10.528 -17.270  1.00 49.16 LIG 0.17  C 
BRANCH 45 46
ATOM     46  C   ASP P   5      21.887 -10.362 -18.685  1.00 49.66 LIG 0.22  C 
ATOM     47 O    ASP P   5      22.115  -9.235 -19.139  1.00 50.85 LIG-0.29  OA
ENDBRANCH 45 46
BRANCH 45 48
ATOM     48  CB  ASP P   5      21.635 -11.973 -16.733  1.00 49.44 LIG 0.15  C 
BRANCH 48 49
ATOM     49  CG  ASP P   5      20.495 -12.927 -16.350  1.00 49.12 LIG 0.17  C 
ATOM     50 OD1  ASP P   5      20.003 -13.661 -17.235  1.00 51.19 LIG-0.65  OA
ATOM     51 OD2  ASP P   5      20.095 -12.939 -15.173  1.00 49.06 LIG-0.65  OA
ENDBRANCH 48 49
ENDBRANCH 45 48
ENDBRANCH 42 45
ENDBRANCH 34 41
ENDBRANCH 32 34
ENDBRANCH 1 31
TORSDOF 20
ENDMDL
MODEL 8
USER: ADFR SOLUTION from run 89
USER: SCORE 16.188265 LL:  -3.555 LR: -14.462 RR:   0.000 FEB:  -8.496
USER: RMSD 10.097034
USER: SEED 88
USER: STATUS no improvement in best 18 clusters for 5 generations
USER: GENES 22
USER: genes 0 Translation |==|  0.38522 0.63739 0.54494
USER: genes 1 Rotation |==|  0.22847 0.67408 0.12026 0.54199
USER: genes 2 Torsion [CB]-CA--N-[C] |==|  0.86108
USER: genes 3 Torsion [N]-C--CA-[N] |==|  0.02760
USER: genes 4 Torsion [C]-CA--CB-[CG] |==|  0.71118
USER: genes 5 Torsion [CA]-CB--CG-[CD1] |==|  0.23613
USER: genes 6 Torsion [C]-CA--N-[C] |==|  0.74834
USER: genes 7 Torsion [N]-C--CA-[N] |==|  0.04218
USER: genes 8 Torsion [C]-CA--N-[H3] |==|  0.97142
USER: genes 9 Torsion [C]-CA--CB-[CG] |==|  0.26575
USER: genes 10 Torsion [CA]-CB--CG-[CD1] |==|  0.74262
USER: genes 11 Torsion [N]-CA--CB-[CG] |==|  0.71626
USER: genes 12 Torsion [CA]-CB--CG-[CD1] |==|  0.41125
USER: genes 13 Torsion [N]-CA--C-[N] |==|  0.38008
USER: genes 14 Torsion [C]-N--CA-[C] |==|  0.89681
USER: genes 15 Torsion [N]-CA--CB-[CG] |==|  0.92400
USER: genes 16 Torsion [CA]-CB--CG-[OD1] |==|  0.35078
USER: genes 17 Torsion [N]-CA--C-[N] |==|  0.03839
USER: genes 18 Torsion [C]-N--CA-[C] |==|  0.67095
USER: genes 19 Torsion [N]-CA--C-[O] |==|  0.04349
USER: genes 20 Torsion [N]-CA--CB-[CG] |==|  0.20000
USER: genes 21 Torsion [CA]-CB--CG-[OD1] |==|  0.62504
ROOT
ATOM      1  CA  PHE P   3      16.796 -10.738 -12.942  1.00 45.52 LIG 0.18  C 
ENDROOT
BRANCH 1 2
ATOM      2  N   PHE P   3      15.344 -11.161 -12.824  1.00 45.79 LIG-0.35  N 
ATOM      3 H    PHE P   3      14.892 -10.888 -13.502  1.00 45.79 LIG 0.16  HD
ATOM      4  C   LEU P   2      14.739 -11.858 -11.855  1.00 46.01 LIG 0.24  C 
ATOM      5 O    LEU P   2      15.369 -12.329 -10.917  1.00 46.46 LIG-0.27  OA
BRANCH 4 6
ATOM      6  CA  LEU P   2      13.175 -12.117 -11.976  1.00 45.94 LIG 0.18  C 
BRANCH 6 7
ATOM      7  CB  LEU P   2      12.784 -13.596 -11.712  1.00 45.93 LIG 0.04  C 
BRANCH 7 8
ATOM      8  CG  LEU P   2      12.409 -14.567 -12.870  1.00 45.11 LIG-0.02  C 
ATOM      9  CD1 LEU P   2      13.627 -15.245 -13.537  1.00 44.79 LIG 0.01  C 
ATOM     10  CD2 LEU P   2      11.414 -15.631 -12.415  1.00 44.35 LIG 0.01  C 
ENDBRANCH 7 8
ENDBRANCH 6 7
BRANCH 6 11
ATOM     11  N   LEU P   2      12.715 -11.709 -13.322  1.00 46.17 LIG-0.35  N 
ATOM     12 H    LEU P   2      12.760 -12.344 -13.901  1.00 46.17 LIG 0.16  HD
ATOM     13  C   LEU P   1      12.271 -10.482 -13.628  1.00 46.12 LIG 0.25  C 
ATOM     14 O    LEU P   1      12.143  -9.576 -12.790  1.00 46.29 LIG-0.27  OA
BRANCH 13 15
ATOM     15  CA  LEU P   1      11.912 -10.236 -15.117  1.00 45.93 LIG 0.28  C 
BRANCH 15 16
ATOM     16  N   LEU P   1      11.771 -11.486 -15.932  1.00 46.34 LIG-0.07  N 
ATOM     17 H3   LEU P   1      12.063 -12.182 -15.461  1.00 46.34 LIG 0.28  HD
ATOM     18 H2   LEU P   1      12.251 -11.410 -16.678  1.00 46.34 LIG 0.28  HD
ATOM     19 H1   LEU P   1      10.915 -11.608 -16.142  1.00 46.34 LIG 0.28  HD
ENDBRANCH 15 16
BRANCH 15 20
ATOM     20  CB  LEU P   1      10.636  -9.386 -15.230  1.00 45.65 LIG 0.05  C 
BRANCH 20 21
ATOM     21  CG  LEU P   1      10.887  -7.885 -15.408  1.00 44.28 LIG-0.02  C 
ATOM     22  CD1 LEU P   1      10.901  -7.163 -14.074  1.00 42.49 LIG 0.01  C 
ATOM     23  CD2 LEU P   1      12.176  -7.633 -16.169  1.00 44.08 LIG 0.01  C 
ENDBRANCH 20 21
ENDBRANCH 15 20
ENDBRANCH 13 15
ENDBRANCH 6 11
ENDBRANCH 4 6
ENDBRANCH 1 2
BRANCH 1 24
ATOM     24  CB  PHE P   3      17.481 -10.030 -11.740  1.00 45.09 LIG 0.07  C 
BRANCH 24 25
ATOM     25  CG  PHE P   3      17.643  -8.456 -11.856  1.00 44.37 LIG-0.06  A 
ATOM     26  CD1 PHE P   3      17.611  -7.563 -10.756  1.00 43.10 LIG 0.01  A 
ATOM     27  CE1 PHE P   3      17.711  -6.115 -10.962  1.00 41.01 LIG 0.00  A 
ATOM     28  CZ  PHE P   3      17.814  -5.589 -12.265  1.00 41.66 LIG 0.00  A 
ATOM     29  CE2 PHE P   3      17.830  -6.468 -13.335  1.00 43.89 LIG 0.00  A 
ATOM     30  CD2 PHE P   3      17.730  -7.882 -13.128  1.00 44.25 LIG 0.01  A 
ENDBRANCH 24 25
ENDBRANCH 1 24
BRANCH 1 31
ATOM     31  C   PHE P   3      17.267 -12.161 -13.310  1.00 45.74 LIG 0.26  C 
ATOM     32 N    ASN P   4      18.089 -11.919 -14.263  1.00 46.65 LIG-0.24  NA
ATOM     33 O    PHE P   3      16.855 -13.241 -12.895  1.00 45.60 LIG-0.27  OA
BRANCH 32 34
ATOM     34  CA  ASN P   4      18.798 -12.577 -15.322  1.00 47.05 LIG 0.21  C 
BRANCH 34 35
ATOM     35  CB  ASN P   4      19.814 -11.548 -15.640  1.00 46.83 LIG 0.14  C 
BRANCH 35 36
ATOM     36  CG  ASN P   4      19.268 -10.194 -15.285  1.00 47.32 LIG 0.22  C 
ATOM     37  ND2 ASN P   4      18.078  -9.894 -15.805  1.00 46.99 LIG-0.37  N 
ATOM     38 22HD ASN P   4      17.678 -10.457 -16.318  1.00 46.99 LIG 0.16  HD
ATOM     39 21HD ASN P   4      17.710  -9.137 -15.629  1.00 46.99 LIG 0.16  HD
ATOM     40 OD1  ASN P   4      19.865  -9.419 -14.552  1.00 48.95 LIG-0.27  OA
ENDBRANCH 35 36
ENDBRANCH 34 35
BRANCH 34 41
ATOM     41  C   ASN P   4      19.479 -13.865 -15.565  1.00 47.23 LIG 0.24  C 
ATOM     42  N   ASP P   5      18.998 -14.546 -14.487  1.00 48.41 LIG-0.35  N 
ATOM     43 H    ASP P   5      18.478 -14.102 -13.965  1.00 48.41 LIG 0.16  HD
ATOM     44 O    ASN P   4      20.235 -14.206 -16.462  1.00 47.17 LIG-0.27  OA
BRANCH 42 45
ATOM     45  CA  ASP P   5      19.115 -15.882 -13.928  1.00 49.16 LIG 0.17  C 
BRANCH 45 46
ATOM     46  C   ASP P   5      17.768 -16.605 -13.869  1.00 49.66 LIG 0.22  C 
ATOM     47 O    ASP P   5      16.803 -16.185 -14.518  1.00 50.85 LIG-0.29  OA
ENDBRANCH 45 46
BRANCH 45 48
ATOM     48  CB  ASP P   5      19.746 -15.792 -12.493  1.00 49.44 LIG 0.15  C 
BRANCH 48 49
ATOM     49  CG  ASP P   5      18.939 -15.234 -11.312  1.00 49.12 LIG 0.17  C 
ATOM     50 OD1  ASP P   5      19.490 -14.419 -10.540  1.00 51.19 LIG-0.65  OA
ATOM     51 OD2  ASP P   5      17.764 -15.612 -11.158  1.00 49.06 LIG-0.65  OA
ENDBRANCH 48 49
ENDBRANCH 45 48
ENDBRANCH 42 45
ENDBRANCH 34 41
ENDBRANCH 32 34
ENDBRANCH 1 31
TORSDOF 20
ENDMDL
MODEL 9
USER: ADFR SOLUTION from run 150
USER: SCORE 16.381033 LL:  -4.683 LR: -14.308 RR:   0.000 FEB:  -8.342
USER: RMSD 9.689010
USER: SEED 149
USER: STATUS no improvement in best 14 clusters for 5 generations
USER: GENES 22
USER: genes 0 Translation |==|  0.40618 0.64457 0.58221
USER: genes 1 Rotation |==|  0.45082 0.35642 0.96994 0.57826
USER: genes 2 Torsion [CB]-CA--N-[C] |==|  0.36379
USER: genes 3 Torsion [N]-C--CA-[N] |==|  0.93397
USER: genes 4 Torsion [C]-CA--CB-[CG] |==|  0.15060
USER: genes 5 Torsion [CA]-CB--CG-[CD1] |==|  0.42389
USER: genes 6 Torsion [C]-CA--N-[C] |==|  0.79718
USER: genes 7 Torsion [N]-C--CA-[N] |==|  0.56190
USER: genes 8 Torsion [C]-CA--N-[H3] |==|  0.48787
USER: genes 9 Torsion [C]-CA--CB-[CG] |==|  0.33028
USER: genes 10 Torsion [CA]-CB--CG-[CD1] |==|  0.09546
USER: genes 11 Torsion [N]-CA--CB-[CG] |==|  0.90255
USER: genes 12 Torsion [CA]-CB--CG-[CD1] |==|  0.97142
USER: genes 13 Torsion [N]-CA--C-[N] |==|  0.24899
USER: genes 14 Torsion [C]-N--CA-[C] |==|  0.15000
USER: genes 15 Torsion [N]-CA--CB-[CG] |==|  0.74866
USER: genes 16 Torsion [CA]-CB--CG-[OD1] |==|  0.25073
USER: genes 17 Torsion [N]-CA--C-[N] |==|  0.84485
USER: genes 18 Torsion [C]-N--CA-[C] |==|  0.46527
USER: genes 19 Torsion [N]-CA--C-[O] |==|  0.13806
USER: genes 20 Torsion [N]-CA--CB-[CG] |==|  0.47291
USER: genes 21 Torsion [CA]-CB--CG-[OD1] |==|  0.41517
ROOT
ATOM      1  CA  PHE P   3      17.425 -10.523 -11.824  1.00 45.52 LIG 0.18  C 
ENDROOT
BRANCH 1 2
ATOM      2  N   PHE P   3      16.759 -10.141 -13.132  1.00 45.79 LIG-0.35  N 
ATOM      3 H    PHE P   3      15.955  -9.870 -12.995  1.00 45.79 LIG 0.16  HD
ATOM      4  C   LEU P   2      17.249 -10.180 -14.377  1.00 46.01 LIG 0.24  C 
ATOM      5 O    LEU P   2      18.413 -10.484 -14.597  1.00 46.46 LIG-0.27  OA
BRANCH 4 6
ATOM      6  CA  LEU P   2      16.294  -9.758 -15.577  1.00 45.94 LIG 0.18  C 
BRANCH 6 7
ATOM      7  CB  LEU P   2      16.523  -8.296 -16.048  1.00 45.93 LIG 0.04  C 
BRANCH 7 8
ATOM      8  CG  LEU P   2      17.929  -7.778 -16.467  1.00 45.11 LIG-0.02  C 
ATOM      9  CD1 LEU P   2      17.890  -6.618 -17.488  1.00 44.79 LIG 0.01  C 
ATOM     10  CD2 LEU P   2      18.764  -7.367 -15.256  1.00 44.35 LIG 0.01  C 
ENDBRANCH 7 8
ENDBRANCH 6 7
BRANCH 6 11
ATOM     11  N   LEU P   2      14.884  -9.937 -15.166  1.00 46.17 LIG-0.35  N 
ATOM     12 H    LEU P   2      14.478  -9.194 -15.018  1.00 46.17 LIG 0.16  HD
ATOM     13  C   LEU P   1      14.283 -11.128 -15.031  1.00 46.12 LIG 0.25  C 
ATOM     14 O    LEU P   1      14.838 -12.205 -15.300  1.00 46.29 LIG-0.27  OA
BRANCH 13 15
ATOM     15  CA  LEU P   1      12.821 -11.101 -14.511  1.00 45.93 LIG 0.28  C 
BRANCH 15 16
ATOM     16  N   LEU P   1      12.366 -12.384 -13.885  1.00 46.34 LIG-0.07  N 
ATOM     17 H3   LEU P   1      11.546 -12.278 -13.553  1.00 46.34 LIG 0.28  HD
ATOM     18 H2   LEU P   1      12.925 -12.608 -13.228  1.00 46.34 LIG 0.28  HD
ATOM     19 H1   LEU P   1      12.357 -13.027 -14.499  1.00 46.34 LIG 0.28  HD
ENDBRANCH 15 16
BRANCH 15 20
ATOM     20  CB  LEU P   1      12.621  -9.935 -13.529  1.00 45.65 LIG 0.05  C 
BRANCH 20 21
ATOM     21  CG  LEU P   1      11.576  -8.905 -13.973  1.00 44.28 LIG-0.02  C 
ATOM     22  CD1 LEU P   1      10.436  -9.562 -14.727  1.00 42.49 LIG 0.01  C 
ATOM     23  CD2 LEU P   1      11.050  -8.115 -12.787  1.00 44.08 LIG 0.01  C 
ENDBRANCH 20 21
ENDBRANCH 15 20
ENDBRANCH 13 15
ENDBRANCH 6 11
ENDBRANCH 4 6
ENDBRANCH 1 2
BRANCH 1 24
ATOM     24  CB  PHE P   3      17.360  -9.539 -10.624  1.00 45.09 LIG 0.07  C 
BRANCH 24 25
ATOM     25  CG  PHE P   3      17.411  -7.994 -10.982  1.00 44.37 LIG-0.06  A 
ATOM     26  CD1 PHE P   3      17.717  -7.477 -12.266  1.00 43.10 LIG 0.01  A 
ATOM     27  CE1 PHE P   3      17.799  -6.031 -12.492  1.00 41.01 LIG 0.00  A 
ATOM     28  CZ  PHE P   3      17.601  -5.133 -11.425  1.00 41.66 LIG 0.00  A 
ATOM     29  CE2 PHE P   3      17.318  -5.646 -10.171  1.00 43.89 LIG 0.00  A 
ATOM     30  CD2 PHE P   3      17.240  -7.060  -9.954  1.00 44.25 LIG 0.01  A 
ENDBRANCH 24 25
ENDBRANCH 1 24
BRANCH 1 31
ATOM     31  C   PHE P   3      16.645 -11.850 -11.717  1.00 45.74 LIG 0.26  C 
ATOM     32 N    ASN P   4      17.424 -12.654 -12.341  1.00 46.65 LIG-0.24  NA
ATOM     33 O    PHE P   3      15.516 -12.048 -11.276  1.00 45.60 LIG-0.27  OA
BRANCH 32 34
ATOM     34  CA  ASN P   4      17.441 -13.962 -12.929  1.00 47.05 LIG 0.21  C 
BRANCH 34 35
ATOM     35  CB  ASN P   4      17.444 -14.801 -11.709  1.00 46.83 LIG 0.14  C 
BRANCH 35 36
ATOM     36  CG  ASN P   4      18.866 -15.073 -11.305  1.00 47.32 LIG 0.22  C 
ATOM     37  ND2 ASN P   4      19.426 -16.154 -11.847  1.00 46.99 LIG-0.37  N 
ATOM     38 22HD ASN P   4      18.972 -16.652 -12.382  1.00 46.99 LIG 0.16  HD
ATOM     39 21HD ASN P   4      20.241 -16.355 -11.661  1.00 46.99 LIG 0.16  HD
ATOM     40 OD1  ASN P   4      19.480 -14.343 -10.540  1.00 48.95 LIG-0.27  OA
ENDBRANCH 35 36
ENDBRANCH 34 35
BRANCH 34 41
ATOM     41  C   ASN P   4      16.671 -14.742 -13.918  1.00 47.23 LIG 0.24  C 
ATOM     42  N   ASP P   5      15.442 -14.628 -13.340  1.00 48.41 LIG-0.35  N 
ATOM     43 H    ASP P   5      15.415 -14.188 -12.602  1.00 48.41 LIG 0.16  HD
ATOM     44 O    ASN P   4      17.031 -15.307 -14.940  1.00 47.17 LIG-0.27  OA
BRANCH 42 45
ATOM     45  CA  ASP P   5      14.083 -15.060 -13.623  1.00 49.16 LIG 0.17  C 
BRANCH 45 46
ATOM     46  C   ASP P   5      13.154 -14.876 -12.422  1.00 49.66 LIG 0.22  C 
ATOM     47 O    ASP P   5      13.115 -13.796 -11.822  1.00 50.85 LIG-0.29  OA
ENDBRANCH 45 46
BRANCH 45 48
ATOM     48  CB  ASP P   5      14.100 -16.566 -14.070  1.00 49.44 LIG 0.15  C 
BRANCH 48 49
ATOM     49  CG  ASP P   5      12.793 -17.357 -14.220  1.00 49.12 LIG 0.17  C 
ATOM     50 OD1  ASP P   5      12.740 -18.273 -15.070  1.00 51.19 LIG-0.65  OA
ATOM     51 OD2  ASP P   5      11.828 -17.061 -13.494  1.00 49.06 LIG-0.65  OA
ENDBRANCH 48 49
ENDBRANCH 45 48
ENDBRANCH 42 45
ENDBRANCH 34 41
ENDBRANCH 32 34
ENDBRANCH 1 31
TORSDOF 20
ENDMDL
MODEL 10
USER: ADFR SOLUTION from run 13
USER: SCORE 17.770206 LL:  -4.596 LR: -14.290 RR:   0.000 FEB:  -8.324
USER: RMSD 10.260322
USER: SEED 775530
USER: STATUS no improvement in best 8 clusters for 5 generations
USER: GENES 22
USER: genes 0 Translation |==|  0.40474 0.68921 0.48585
USER: genes 1 Rotation |==|  0.22586 0.43888 0.08634 0.50125
USER: genes 2 Torsion [CB]-CA--N-[C] |==|  0.23889
USER: genes 3 Torsion [N]-C--CA-[N] |==|  0.45258
USER: genes 4 Torsion [C]-CA--CB-[CG] |==|  0.42256
USER: genes 5 Torsion [CA]-CB--CG-[CD1] |==|  0.00609
USER: genes 6 Torsion [C]-CA--N-[C] |==|  0.76217
USER: genes 7 Torsion [N]-C--CA-[N] |==|  0.44221
USER: genes 8 Torsion [C]-CA--N-[H3] |==|  0.92322
USER: genes 9 Torsion [C]-CA--CB-[CG] |==|  0.27000
USER: genes 10 Torsion [CA]-CB--CG-[CD1] |==|  0.39131
USER: genes 11 Torsion [N]-CA--CB-[CG] |==|  0.18027
USER: genes 12 Torsion [CA]-CB--CG-[CD1] |==|  0.00029
USER: genes 13 Torsion [N]-CA--C-[N] |==|  0.01904
USER: genes 14 Torsion [C]-N--CA-[C] |==|  0.63878
USER: genes 15 Torsion [N]-CA--CB-[CG] |==|  0.69423
USER: genes 16 Torsion [CA]-CB--CG-[OD1] |==|  0.62059
USER: genes 17 Torsion [N]-CA--C-[N] |==|  0.18412
USER: genes 18 Torsion [C]-N--CA-[C] |==|  0.09405
USER: genes 19 Torsion [N]-CA--C-[O] |==|  0.06146
USER: genes 20 Torsion [N]-CA--CB-[CG] |==|  0.09236
USER: genes 21 Torsion [CA]-CB--CG-[OD1] |==|  0.27583
ROOT
ATOM      1  CA  PHE P   3      17.382  -9.184 -14.715  1.00 45.52 LIG 0.18  C 
ENDROOT
BRANCH 1 2
ATOM      2  N   PHE P   3      16.138  -9.878 -14.194  1.00 45.79 LIG-0.35  N 
ATOM      3 H    PHE P   3      16.265 -10.171 -13.396  1.00 45.79 LIG 0.16  HD
ATOM      4  C   LEU P   2      14.957 -10.067 -14.795  1.00 46.01 LIG 0.24  C 
ATOM      5 O    LEU P   2      14.717  -9.593 -15.897  1.00 46.46 LIG-0.27  OA
BRANCH 4 6
ATOM      6  CA  LEU P   2      13.835 -10.880 -14.015  1.00 45.94 LIG 0.18  C 
BRANCH 6 7
ATOM      7  CB  LEU P   2      14.112 -12.407 -13.970  1.00 45.93 LIG 0.04  C 
BRANCH 7 8
ATOM      8  CG  LEU P   2      13.589 -13.304 -12.810  1.00 45.11 LIG-0.02  C 
ATOM      9  CD1 LEU P   2      12.740 -12.544 -11.765  1.00 44.79 LIG 0.01  C 
ATOM     10  CD2 LEU P   2      12.803 -14.503 -13.335  1.00 44.35 LIG 0.01  C 
ENDBRANCH 7 8
ENDBRANCH 6 7
BRANCH 6 11
ATOM     11  N   LEU P   2      12.521 -10.627 -14.646  1.00 46.17 LIG-0.35  N 
ATOM     12 H    LEU P   2      12.307 -11.222 -15.230  1.00 46.17 LIG 0.16  HD
ATOM     13  C   LEU P   1      11.730  -9.585 -14.353  1.00 46.12 LIG 0.25  C 
ATOM     14 O    LEU P   1      11.998  -8.754 -13.471  1.00 46.29 LIG-0.27  OA
BRANCH 13 15
ATOM     15  CA  LEU P   1      10.429  -9.458 -15.188  1.00 45.93 LIG 0.28  C 
BRANCH 15 16
ATOM     16  N   LEU P   1       9.363  -8.624 -14.545  1.00 46.34 LIG-0.07  N 
ATOM     17 H3   LEU P   1       9.454  -8.655 -13.660  1.00 46.34 LIG 0.28  HD
ATOM     18 H2   LEU P   1       8.562  -8.939 -14.772  1.00 46.34 LIG 0.28  HD
ATOM     19 H1   LEU P   1       9.439  -7.781 -14.821  1.00 46.34 LIG 0.28  HD
ENDBRANCH 15 16
BRANCH 15 20
ATOM     20  CB  LEU P   1      10.742  -8.921 -16.594  1.00 45.65 LIG 0.05  C 
BRANCH 20 21
ATOM     21  CG  LEU P   1      10.868 -10.002 -17.673  1.00 44.28 LIG-0.02  C 
ATOM     22  CD1 LEU P   1      10.245  -9.555 -18.982  1.00 42.49 LIG 0.01  C 
ATOM     23  CD2 LEU P   1      12.318 -10.403 -17.877  1.00 44.08 LIG 0.01  C 
ENDBRANCH 20 21
ENDBRANCH 15 20
ENDBRANCH 13 15
ENDBRANCH 6 11
ENDBRANCH 4 6
ENDBRANCH 1 2
BRANCH 1 24
ATOM     24  CB  PHE P   3      17.516  -7.644 -14.554  1.00 45.09 LIG 0.07  C 
BRANCH 24 25
ATOM     25  CG  PHE P   3      17.610  -7.101 -13.067  1.00 44.37 LIG-0.06  A 
ATOM     26  CD1 PHE P   3      17.582  -7.919 -11.910  1.00 43.10 LIG 0.01  A 
ATOM     27  CE1 PHE P   3      17.615  -7.326 -10.570  1.00 41.01 LIG 0.00  A 
ATOM     28  CZ  PHE P   3      17.648  -5.927 -10.414  1.00 41.66 LIG 0.00  A 
ATOM     29  CE2 PHE P   3      17.660  -5.133 -11.549  1.00 43.89 LIG 0.00  A 
ATOM     30  CD2 PHE P   3      17.626  -5.718 -12.857  1.00 44.25 LIG 0.01  A 
ENDBRANCH 24 25
ENDBRANCH 1 24
BRANCH 1 31
ATOM     31  C   PHE P   3      18.329 -10.084 -13.893  1.00 45.74 LIG 0.26  C 
ATOM     32 N    ASN P   4      17.509 -10.940 -13.407  1.00 46.65 LIG-0.24  NA
ATOM     33 O    PHE P   3      19.525  -9.932 -13.657  1.00 45.60 LIG-0.27  OA
BRANCH 32 34
ATOM     34  CA  ASN P   4      17.422 -11.956 -12.399  1.00 47.05 LIG 0.21  C 
BRANCH 34 35
ATOM     35  CB  ASN P   4      16.633 -11.241 -11.369  1.00 46.83 LIG 0.14  C 
BRANCH 35 36
ATOM     36  CG  ASN P   4      17.518 -10.949 -10.190  1.00 47.32 LIG 0.22  C 
ATOM     37  ND2 ASN P   4      18.734 -10.485 -10.479  1.00 46.99 LIG-0.37  N 
ATOM     38 22HD ASN P   4      18.972 -10.381 -11.299  1.00 46.99 LIG 0.16  HD
ATOM     39 21HD ASN P   4      19.282 -10.290  -9.845  1.00 46.99 LIG 0.16  HD
ATOM     40 OD1  ASN P   4      17.147 -11.110  -9.037  1.00 48.95 LIG-0.27  OA
ENDBRANCH 35 36
ENDBRANCH 34 35
BRANCH 34 41
ATOM     41  C   ASN P   4      16.999 -13.366 -12.282  1.00 47.23 LIG 0.24  C 
ATOM     42  N   ASP P   5      17.967 -13.924 -13.065  1.00 48.41 LIG-0.35  N 
ATOM     43 H    ASP P   5      18.526 -13.374 -13.417  1.00 48.41 LIG 0.16  HD
ATOM     44 O    ASN P   4      16.071 -13.870 -11.668  1.00 47.17 LIG-0.27  OA
BRANCH 42 45
ATOM     45  CA  ASP P   5      18.351 -15.255 -13.502  1.00 49.16 LIG 0.17  C 
BRANCH 45 46
ATOM     46  C   ASP P   5      17.143 -16.173 -13.696  1.00 49.66 LIG 0.22  C 
ATOM     47 O    ASP P   5      16.019 -15.695 -13.888  1.00 50.85 LIG-0.29  OA
ENDBRANCH 45 46
BRANCH 45 48
ATOM     48  CB  ASP P   5      19.344 -15.879 -12.457  1.00 49.44 LIG 0.15  C 
BRANCH 48 49
ATOM     49  CG  ASP P   5      19.219 -15.555 -10.962  1.00 49.12 LIG 0.17  C 
ATOM     50 OD1  ASP P   5      18.644 -16.379 -10.216  1.00 51.19 LIG-0.65  OA
ATOM     51 OD2  ASP P   5      19.689 -14.485 -10.540  1.00 49.06 LIG-0.65  OA
ENDBRANCH 48 49
ENDBRANCH 45 48
ENDBRANCH 42 45
ENDBRANCH 34 41
ENDBRANCH 32 34
ENDBRANCH 1 31
TORSDOF 20
ENDMDL
MODEL 11
USER: ADFR SOLUTION from run 89
USER: SCORE 16.778550 LL:  -3.525 LR: -14.256 RR:   0.000 FEB:  -8.290
USER: RMSD 10.307933
USER: SEED 88
USER: STATUS no improvement in best 18 clusters for 5 generations
USER: GENES 22
USER: genes 0 Translation |==|  0.38233 0.67179 0.54180
USER: genes 1 Rotation |==|  0.19536 0.70151 0.17730 0.61158
USER: genes 2 Torsion [CB]-CA--N-[C] |==|  0.87222
USER: genes 3 Torsion [N]-C--CA-[N] |==|  0.05380
USER: genes 4 Torsion [C]-CA--CB-[CG] |==|  0.65155
USER: genes 5 Torsion [CA]-CB--CG-[CD1] |==|  0.34062
USER: genes 6 Torsion [C]-CA--N-[C] |==|  0.77563
USER: genes 7 Torsion [N]-C--CA-[N] |==|  0.05729
USER: genes 8 Torsion [C]-CA--N-[H3] |==|  0.61130
USER: genes 9 Torsion [C]-CA--CB-[CG] |==|  0.26385
USER: genes 10 Torsion [CA]-CB--CG-[CD1] |==|  0.74788
USER: genes 11 Torsion [N]-CA--CB-[CG] |==|  0.68910
USER: genes 12 Torsion [CA]-CB--CG-[CD1] |==|  0.38514
USER: genes 13 Torsion [N]-CA--C-[N] |==|  0.40795
USER: genes 14 Torsion [C]-N--CA-[C] |==|  0.71878
USER: genes 15 Torsion [N]-CA--CB-[CG] |==|  0.11492
USER: genes 16 Torsion [CA]-CB--CG-[OD1] |==|  0.66154
USER: genes 17 Torsion [N]-CA--C-[N] |==|  0.36741
USER: genes 18 Torsion [C]-N--CA-[C] |==|  0.14473
USER: genes 19 Torsion [N]-CA--C-[O] |==|  0.08447
USER: genes 20 Torsion [N]-CA--CB-[CG] |==|  0.04278
USER: genes 21 Torsion [CA]-CB--CG-[OD1] |==|  0.32514
ROOT
ATOM      1  CA  PHE P   3      16.710  -9.706 -13.036  1.00 45.52 LIG 0.18  C 
ENDROOT
BRANCH 1 2
ATOM      2  N   PHE P   3      15.406 -10.472 -12.909  1.00 45.79 LIG-0.35  N 
ATOM      3 H    PHE P   3      14.820 -10.167 -13.460  1.00 45.79 LIG 0.16  HD
ATOM      4  C   LEU P   2      15.095 -11.489 -12.098  1.00 46.01 LIG 0.24  C 
ATOM      5 O    LEU P   2      15.929 -11.998 -11.360  1.00 46.46 LIG-0.27  OA
BRANCH 4 6
ATOM      6  CA  LEU P   2      13.617 -12.073 -12.152  1.00 45.94 LIG 0.18  C 
BRANCH 6 7
ATOM      7  CB  LEU P   2      13.569 -13.617 -11.998  1.00 45.93 LIG 0.04  C 
BRANCH 7 8
ATOM      8  CG  LEU P   2      12.862 -14.526 -13.046  1.00 45.11 LIG-0.02  C 
ATOM      9  CD1 LEU P   2      13.784 -15.600 -13.666  1.00 44.79 LIG 0.01  C 
ATOM     10  CD2 LEU P   2      11.617 -15.193 -12.466  1.00 44.35 LIG 0.01  C 
ENDBRANCH 7 8
ENDBRANCH 6 7
BRANCH 6 11
ATOM     11  N   LEU P   2      12.982 -11.676 -13.429  1.00 46.17 LIG-0.35  N 
ATOM     12 H    LEU P   2      13.001 -12.298 -14.023  1.00 46.17 LIG 0.16  HD
ATOM     13  C   LEU P   1      12.428 -10.477 -13.656  1.00 46.12 LIG 0.25  C 
ATOM     14 O    LEU P   1      12.340  -9.593 -12.789  1.00 46.29 LIG-0.27  OA
BRANCH 13 15
ATOM     15  CA  LEU P   1      11.888 -10.233 -15.090  1.00 45.93 LIG 0.28  C 
BRANCH 15 16
ATOM     16  N   LEU P   1      11.614 -11.485 -15.866  1.00 46.34 LIG-0.07  N 
ATOM     17 H3   LEU P   1      11.873 -11.374 -16.710  1.00 46.34 LIG 0.28  HD
ATOM     18 H2   LEU P   1      10.741 -11.663 -15.844  1.00 46.34 LIG 0.28  HD
ATOM     19 H1   LEU P   1      12.063 -12.163 -15.505  1.00 46.34 LIG 0.28  HD
ENDBRANCH 15 16
BRANCH 15 20
ATOM     20  CB  LEU P   1      10.629  -9.352 -15.047  1.00 45.65 LIG 0.05  C 
BRANCH 20 21
ATOM     21  CG  LEU P   1      10.893  -7.857 -15.256  1.00 44.28 LIG-0.02  C 
ATOM     22  CD1 LEU P   1      11.133  -7.147 -13.937  1.00 42.49 LIG 0.01  C 
ATOM     23  CD2 LEU P   1      12.058  -7.636 -16.204  1.00 44.08 LIG 0.01  C 
ENDBRANCH 20 21
ENDBRANCH 15 20
ENDBRANCH 13 15
ENDBRANCH 6 11
ENDBRANCH 4 6
ENDBRANCH 1 2
BRANCH 1 24
ATOM     24  CB  PHE P   3      17.436  -9.226 -11.749  1.00 45.09 LIG 0.07  C 
BRANCH 24 25
ATOM     25  CG  PHE P   3      17.476  -7.658 -11.511  1.00 44.37 LIG-0.06  A 
ATOM     26  CD1 PHE P   3      17.278  -7.031 -10.256  1.00 43.10 LIG 0.01  A 
ATOM     27  CE1 PHE P   3      17.273  -5.570 -10.140  1.00 41.01 LIG 0.00  A 
ATOM     28  CZ  PHE P   3      17.440  -4.766 -11.284  1.00 41.66 LIG 0.00  A 
ATOM     29  CE2 PHE P   3      17.617  -5.386 -12.510  1.00 43.89 LIG 0.00  A 
ATOM     30  CD2 PHE P   3      17.619  -6.815 -12.618  1.00 44.25 LIG 0.01  A 
ENDBRANCH 24 25
ENDBRANCH 1 24
BRANCH 1 31
ATOM     31  C   PHE P   3      17.377 -10.817 -13.875  1.00 45.74 LIG 0.26  C 
ATOM     32 N    ASN P   4      18.138 -10.132 -14.645  1.00 46.65 LIG-0.24  NA
ATOM     33 O    PHE P   3      17.134 -12.020 -13.892  1.00 45.60 LIG-0.27  OA
BRANCH 32 34
ATOM     34  CA  ASN P   4      18.916 -10.254 -15.843  1.00 47.05 LIG 0.21  C 
BRANCH 34 35
ATOM     35  CB  ASN P   4      18.469  -9.046 -16.574  1.00 46.83 LIG 0.14  C 
BRANCH 35 36
ATOM     36  CG  ASN P   4      18.364  -7.899 -15.608  1.00 47.32 LIG 0.22  C 
ATOM     37  ND2 ASN P   4      19.487  -7.579 -14.965  1.00 46.99 LIG-0.37  N 
ATOM     38 22HD ASN P   4      20.208  -8.027 -15.107  1.00 46.99 LIG 0.16  HD
ATOM     39 21HD ASN P   4      19.491  -6.925 -14.407  1.00 46.99 LIG 0.16  HD
ATOM     40 OD1  ASN P   4      17.322  -7.285 -15.431  1.00 48.95 LIG-0.27  OA
ENDBRANCH 35 36
ENDBRANCH 34 35
BRANCH 34 41
ATOM     41  C   ASN P   4      20.330 -10.425 -16.233  1.00 47.23 LIG 0.24  C 
ATOM     42  N   ASP P   5      20.163 -11.437 -17.131  1.00 48.41 LIG-0.35  N 
ATOM     43 H    ASP P   5      19.356 -11.716 -17.234  1.00 48.41 LIG 0.16  HD
ATOM     44 O    ASN P   4      21.333  -9.834 -15.863  1.00 47.17 LIG-0.27  OA
BRANCH 42 45
ATOM     45  CA  ASP P   5      20.999 -12.227 -18.018  1.00 49.16 LIG 0.17  C 
BRANCH 45 46
ATOM     46  C   ASP P   5      22.190 -12.852 -17.288  1.00 49.66 LIG 0.22  C 
ATOM     47 O    ASP P   5      22.100 -13.158 -16.094  1.00 50.85 LIG-0.29  OA
ENDBRANCH 45 46
BRANCH 45 48
ATOM     48  CB  ASP P   5      21.502 -11.323 -19.201  1.00 49.44 LIG 0.15  C 
BRANCH 48 49
ATOM     49  CG  ASP P   5      21.403  -9.793 -19.119  1.00 49.12 LIG 0.17  C 
ATOM     50 OD1  ASP P   5      22.457  -9.122 -19.135  1.00 51.19 LIG-0.65  OA
ATOM     51 OD2  ASP P   5      20.278  -9.270 -19.036  1.00 49.06 LIG-0.65  OA
ENDBRANCH 48 49
ENDBRANCH 45 48
ENDBRANCH 42 45
ENDBRANCH 34 41
ENDBRANCH 32 34
ENDBRANCH 1 31
TORSDOF 20
ENDMDL
MODEL 12
USER: ADFR SOLUTION from run 26
USER: SCORE 17.262329 LL:  -4.009 LR: -14.218 RR:   0.000 FEB:  -8.252
USER: RMSD 10.356166
USER: SEED 25
USER: STATUS no improvement in best 11 clusters for 5 generations
USER: GENES 22
USER: genes 0 Translation |==|  0.42244 0.74098 0.48716
USER: genes 1 Rotation |==|  0.12901 0.62002 0.19829 0.58328
USER: genes 2 Torsion [CB]-CA--N-[C] |==|  0.80537
USER: genes 3 Torsion [N]-C--CA-[N] |==|  0.12778
USER: genes 4 Torsion [C]-CA--CB-[CG] |==|  0.58192
USER: genes 5 Torsion [CA]-CB--CG-[CD1] |==|  0.87687
USER: genes 6 Torsion [C]-CA--N-[C] |==|  0.64234
USER: genes 7 Torsion [N]-C--CA-[N] |==|  0.19834
USER: genes 8 Torsion [C]-CA--N-[H3] |==|  0.45304
USER: genes 9 Torsion [C]-CA--CB-[CG] |==|  0.17417
USER: genes 10 Torsion [CA]-CB--CG-[CD1] |==|  0.32813
USER: genes 11 Torsion [N]-CA--CB-[CG] |==|  0.93840
USER: genes 12 Torsion [CA]-CB--CG-[CD1] |==|  0.68286
USER: genes 13 Torsion [N]-CA--C-[N] |==|  0.21058
USER: genes 14 Torsion [C]-N--CA-[C] |==|  0.73494
USER: genes 15 Torsion [N]-CA--CB-[CG] |==|  0.12418
USER: genes 16 Torsion [CA]-CB--CG-[OD1] |==|  0.18348
USER: genes 17 Torsion [N]-CA--C-[N] |==|  0.96700
USER: genes 18 Torsion [C]-N--CA-[C] |==|  0.77855
USER: genes 19 Torsion [N]-CA--C-[O] |==|  0.78128
USER: genes 20 Torsion [N]-CA--CB-[CG] |==|  0.13056
USER: genes 21 Torsion [CA]-CB--CG-[OD1] |==|  0.83764
ROOT
ATOM      1  CA  PHE P   3      17.913  -7.630 -14.675  1.00 45.52 LIG 0.18  C 
ENDROOT
BRANCH 1 2
ATOM      2  N   PHE P   3      16.905  -8.576 -14.050  1.00 45.79 LIG-0.35  N 
ATOM      3 H    PHE P   3      16.105  -8.366 -14.284  1.00 45.79 LIG 0.16  HD
ATOM      4  C   LEU P   2      17.111  -9.619 -13.237  1.00 46.01 LIG 0.24  C 
ATOM      5 O    LEU P   2      18.240  -9.994 -12.949  1.00 46.46 LIG-0.27  OA
BRANCH 4 6
ATOM      6  CA  LEU P   2      15.845 -10.413 -12.693  1.00 45.94 LIG 0.18  C 
BRANCH 6 7
ATOM      7  CB  LEU P   2      16.220 -11.752 -12.001  1.00 45.93 LIG 0.04  C 
BRANCH 7 8
ATOM      8  CG  LEU P   2      15.254 -12.972 -11.995  1.00 45.11 LIG-0.02  C 
ATOM      9  CD1 LEU P   2      13.786 -12.607 -11.678  1.00 44.79 LIG 0.01  C 
ATOM     10  CD2 LEU P   2      15.317 -13.749 -13.308  1.00 44.35 LIG 0.01  C 
ENDBRANCH 7 8
ENDBRANCH 6 7
BRANCH 6 11
ATOM     11  N   LEU P   2      14.912 -10.670 -13.811  1.00 46.17 LIG-0.35  N 
ATOM     12 H    LEU P   2      15.293 -11.032 -14.493  1.00 46.17 LIG 0.16  HD
ATOM     13  C   LEU P   1      13.604 -10.378 -13.786  1.00 46.12 LIG 0.25  C 
ATOM     14 O    LEU P   1      13.030  -9.913 -12.789  1.00 46.29 LIG-0.27  OA
BRANCH 13 15
ATOM     15  CA  LEU P   1      12.816 -10.653 -15.094  1.00 45.93 LIG 0.28  C 
BRANCH 15 16
ATOM     16  N   LEU P   1      12.607 -12.106 -15.394  1.00 46.34 LIG-0.07  N 
ATOM     17 H3   LEU P   1      11.959 -12.195 -15.998  1.00 46.34 LIG 0.28  HD
ATOM     18 H2   LEU P   1      12.377 -12.533 -14.647  1.00 46.34 LIG 0.28  HD
ATOM     19 H1   LEU P   1      13.361 -12.454 -15.714  1.00 46.34 LIG 0.28  HD
ENDBRANCH 15 16
BRANCH 15 20
ATOM     20  CB  LEU P   1      11.464  -9.920 -15.072  1.00 45.65 LIG 0.05  C 
BRANCH 20 21
ATOM     21  CG  LEU P   1      11.573  -8.392 -15.011  1.00 44.28 LIG-0.02  C 
ATOM     22  CD1 LEU P   1      10.955  -7.743 -16.235  1.00 42.49 LIG 0.01  C 
ATOM     23  CD2 LEU P   1      10.943  -7.850 -13.740  1.00 44.08 LIG 0.01  C 
ENDBRANCH 20 21
ENDBRANCH 15 20
ENDBRANCH 13 15
ENDBRANCH 6 11
ENDBRANCH 4 6
ENDBRANCH 1 2
BRANCH 1 24
ATOM     24  CB  PHE P   3      18.667  -6.618 -13.770  1.00 45.09 LIG 0.07  C 
BRANCH 24 25
ATOM     25  CG  PHE P   3      17.971  -6.261 -12.389  1.00 44.37 LIG-0.06  A 
ATOM     26  CD1 PHE P   3      17.462  -4.981 -12.053  1.00 43.10 LIG 0.01  A 
ATOM     27  CE1 PHE P   3      16.887  -4.726 -10.730  1.00 41.01 LIG 0.00  A 
ATOM     28  CZ  PHE P   3      16.856  -5.747  -9.761  1.00 41.66 LIG 0.00  A 
ATOM     29  CE2 PHE P   3      17.369  -6.990 -10.091  1.00 43.89 LIG 0.00  A 
ATOM     30  CD2 PHE P   3      17.932  -7.234 -11.385  1.00 44.25 LIG 0.01  A 
ENDBRANCH 24 25
ENDBRANCH 1 24
BRANCH 1 31
ATOM     31  C   PHE P   3      18.724  -8.780 -15.309  1.00 45.74 LIG 0.26  C 
ATOM     32 N    ASN P   4      17.975  -9.106 -16.296  1.00 46.65 LIG-0.24  NA
ATOM     33 O    PHE P   3      19.742  -9.327 -14.892  1.00 45.60 LIG-0.27  OA
BRANCH 32 34
ATOM     34  CA  ASN P   4      17.786 -10.154 -17.257  1.00 47.05 LIG 0.21  C 
BRANCH 34 35
ATOM     35  CB  ASN P   4      16.308 -10.254 -17.252  1.00 46.83 LIG 0.14  C 
BRANCH 35 36
ATOM     36  CG  ASN P   4      15.724  -8.870 -17.293  1.00 47.32 LIG 0.22  C 
ATOM     37  ND2 ASN P   4      15.066  -8.485 -16.200  1.00 46.99 LIG-0.37  N 
ATOM     38 22HD ASN P   4      14.988  -9.023 -15.533  1.00 46.99 LIG 0.16  HD
ATOM     39 21HD ASN P   4      14.718  -7.700 -16.161  1.00 46.99 LIG 0.16  HD
ATOM     40 OD1  ASN P   4      15.854  -8.133 -18.260  1.00 48.95 LIG-0.27  OA
ENDBRANCH 35 36
ENDBRANCH 34 35
BRANCH 34 41
ATOM     41  C   ASN P   4      18.178 -10.468 -18.645  1.00 47.23 LIG 0.24  C 
ATOM     42  N   ASP P   5      18.662  -9.241 -18.991  1.00 48.41 LIG-0.35  N 
ATOM     43 H    ASP P   5      18.613  -8.635 -18.384  1.00 48.41 LIG 0.16  HD
ATOM     44 O    ASN P   4      18.095 -11.509 -19.278  1.00 47.17 LIG-0.27  OA
BRANCH 42 45
ATOM     45  CA  ASP P   5      19.273  -8.624 -20.156  1.00 49.16 LIG 0.17  C 
BRANCH 45 46
ATOM     46  C   ASP P   5      20.760  -8.963 -20.279  1.00 49.66 LIG 0.22  C 
ATOM     47 O    ASP P   5      21.595  -8.373 -19.583  1.00 50.85 LIG-0.29  OA
ENDBRANCH 45 46
BRANCH 45 48
ATOM     48  CB  ASP P   5      19.075  -7.068 -20.083  1.00 49.44 LIG 0.15  C 
BRANCH 48 49
ATOM     49  CG  ASP P   5      19.368  -6.297 -18.788  1.00 49.12 LIG 0.17  C 
ATOM     50 OD1  ASP P   5      18.747  -6.611 -17.750  1.00 51.19 LIG-0.65  OA
ATOM     51 OD2  ASP P   5      20.210  -5.383 -18.814  1.00 49.06 LIG-0.65  OA
ENDBRANCH 48 49
ENDBRANCH 45 48
ENDBRANCH 42 45
ENDBRANCH 34 41
ENDBRANCH 32 34
ENDBRANCH 1 31
TORSDOF 20
ENDMDL
MODEL 13
USER: ADFR SOLUTION from run 66
USER: SCORE 15.947626 LL:  -3.232 LR: -14.201 RR:   0.000 FEB:  -8.235
USER: RMSD 10.693796
USER: SEED 65
USER: STATUS no improvement in best 24 clusters for 5 generations
USER: GENES 22
USER: genes 0 Translation |==|  0.42452 0.74065 0.47578
USER: genes 1 Rotation |==|  0.15784 0.55059 0.14528 0.56734
USER: genes 2 Torsion [CB]-CA--N-[C] |==|  0.50561
USER: genes 3 Torsion [N]-C--CA-[N] |==|  0.31129
USER: genes 4 Torsion [C]-CA--CB-[CG] |==|  0.41852
USER: genes 5 Torsion [CA]-CB--CG-[CD1] |==|  0.11601
USER: genes 6 Torsion [C]-CA--N-[C] |==|  0.64990
USER: genes 7 Torsion [N]-C--CA-[N] |==|  0.16269
USER: genes 8 Torsion [C]-CA--N-[H3] |==|  0.69064
USER: genes 9 Torsion [C]-CA--CB-[CG] |==|  0.26231
USER: genes 10 Torsion [CA]-CB--CG-[CD1] |==|  0.73780
USER: genes 11 Torsion [N]-CA--CB-[CG] |==|  0.05489
USER: genes 12 Torsion [CA]-CB--CG-[CD1] |==|  0.08853
USER: genes 13 Torsion [N]-CA--C-[N] |==|  0.31173
USER: genes 14 Torsion [C]-N--CA-[C] |==|  0.79117
USER: genes 15 Torsion [N]-CA--CB-[CG] |==|  0.16786
USER: genes 16 Torsion [CA]-CB--CG-[OD1] |==|  0.80415
USER: genes 17 Torsion [N]-CA--C-[N] |==|  0.26767
USER: genes 18 Torsion [C]-N--CA-[C] |==|  0.90707
USER: genes 19 Torsion [N]-CA--C-[O] |==|  0.29386
USER: genes 20 Torsion [N]-CA--CB-[CG] |==|  0.91061
USER: genes 21 Torsion [CA]-CB--CG-[OD1] |==|  0.05737
ROOT
ATOM      1  CA  PHE P   3      17.976  -7.641 -15.017  1.00 45.52 LIG 0.18  C 
ENDROOT
BRANCH 1 2
ATOM      2  N   PHE P   3      16.907  -8.545 -14.432  1.00 45.79 LIG-0.35  N 
ATOM      3 H    PHE P   3      16.601  -8.218 -13.698  1.00 45.79 LIG 0.16  HD
ATOM      4  C   LEU P   2      16.429  -9.705 -14.897  1.00 46.01 LIG 0.24  C 
ATOM      5 O    LEU P   2      16.786 -10.157 -15.977  1.00 46.46 LIG-0.27  OA
BRANCH 4 6
ATOM      6  CA  LEU P   2      15.329 -10.467 -14.039  1.00 45.94 LIG 0.18  C 
BRANCH 6 7
ATOM      7  CB  LEU P   2      15.722 -11.932 -13.711  1.00 45.93 LIG 0.04  C 
BRANCH 7 8
ATOM      8  CG  LEU P   2      15.227 -12.647 -12.420  1.00 45.11 LIG-0.02  C 
ATOM      9  CD1 LEU P   2      13.745 -12.372 -12.081  1.00 44.79 LIG 0.01  C 
ATOM     10  CD2 LEU P   2      15.468 -14.154 -12.482  1.00 44.35 LIG 0.01  C 
ENDBRANCH 7 8
ENDBRANCH 6 7
BRANCH 6 11
ATOM     11  N   LEU P   2      14.040 -10.444 -14.767  1.00 46.17 LIG-0.35  N 
ATOM     12 H    LEU P   2      14.100 -10.749 -15.568  1.00 46.17 LIG 0.16  HD
ATOM     13  C   LEU P   1      12.888  -9.998 -14.247  1.00 46.12 LIG 0.25  C 
ATOM     14 O    LEU P   1      12.774  -9.612 -13.073  1.00 46.29 LIG-0.27  OA
BRANCH 13 15
ATOM     15  CA  LEU P   1      11.666  -9.984 -15.204  1.00 45.93 LIG 0.28  C 
BRANCH 15 16
ATOM     16  N   LEU P   1      11.317 -11.323 -15.777  1.00 46.34 LIG-0.07  N 
ATOM     17 H3   LEU P   1      11.491 -11.328 -16.650  1.00 46.34 LIG 0.28  HD
ATOM     18 H2   LEU P   1      10.451 -11.485 -15.647  1.00 46.34 LIG 0.28  HD
ATOM     19 H1   LEU P   1      11.800 -11.953 -15.375  1.00 46.34 LIG 0.28  HD
ENDBRANCH 15 16
BRANCH 15 20
ATOM     20  CB  LEU P   1      10.441  -9.374 -14.504  1.00 45.65 LIG 0.05  C 
BRANCH 20 21
ATOM     21  CG  LEU P   1      10.246  -7.875 -14.756  1.00 44.28 LIG-0.02  C 
ATOM     22  CD1 LEU P   1      10.878  -7.041 -13.658  1.00 42.49 LIG 0.01  C 
ATOM     23  CD2 LEU P   1      10.792  -7.475 -16.115  1.00 44.08 LIG 0.01  C 
ENDBRANCH 20 21
ENDBRANCH 15 20
ENDBRANCH 13 15
ENDBRANCH 6 11
ENDBRANCH 4 6
ENDBRANCH 1 2
BRANCH 1 24
ATOM     24  CB  PHE P   3      18.387  -6.356 -14.247  1.00 45.09 LIG 0.07  C 
BRANCH 24 25
ATOM     25  CG  PHE P   3      18.028  -6.321 -12.701  1.00 44.37 LIG-0.06  A 
ATOM     26  CD1 PHE P   3      17.990  -7.461 -11.860  1.00 43.10 LIG 0.01  A 
ATOM     27  CE1 PHE P   3      17.590  -7.343 -10.454  1.00 41.01 LIG 0.00  A 
ATOM     28  CZ  PHE P   3      17.211  -6.093  -9.927  1.00 41.66 LIG 0.00  A 
ATOM     29  CE2 PHE P   3      17.236  -4.987 -10.759  1.00 43.89 LIG 0.00  A 
ATOM     30  CD2 PHE P   3      17.626  -5.108 -12.133  1.00 44.25 LIG 0.01  A 
ENDBRANCH 24 25
ENDBRANCH 1 24
BRANCH 1 31
ATOM     31  C   PHE P   3      19.005  -8.785 -15.121  1.00 45.74 LIG 0.26  C 
ATOM     32 N    ASN P   4      19.114  -8.916 -16.391  1.00 46.65 LIG-0.24  NA
ATOM     33 O    PHE P   3      19.482  -9.477 -14.225  1.00 45.60 LIG-0.27  OA
BRANCH 32 34
ATOM     34  CA  ASN P   4      19.620  -9.820 -17.382  1.00 47.05 LIG 0.21  C 
BRANCH 34 35
ATOM     35  CB  ASN P   4      18.824  -9.398 -18.557  1.00 46.83 LIG 0.14  C 
BRANCH 35 36
ATOM     36  CG  ASN P   4      19.115  -7.954 -18.854  1.00 47.32 LIG 0.22  C 
ATOM     37  ND2 ASN P   4      19.803  -7.719 -19.971  1.00 46.99 LIG-0.37  N 
ATOM     38 22HD ASN P   4      20.060  -8.375 -20.465  1.00 46.99 LIG 0.16  HD
ATOM     39 21HD ASN P   4      19.991  -6.911 -20.199  1.00 46.99 LIG 0.16  HD
ATOM     40 OD1  ASN P   4      18.734  -7.047 -18.128  1.00 48.95 LIG-0.27  OA
ENDBRANCH 35 36
ENDBRANCH 34 35
BRANCH 34 41
ATOM     41  C   ASN P   4      20.923 -10.233 -17.941  1.00 47.23 LIG 0.24  C 
ATOM     42  N   ASP P   5      21.116 -11.348 -17.180  1.00 48.41 LIG-0.35  N 
ATOM     43 H    ASP P   5      20.502 -11.517 -16.602  1.00 48.41 LIG 0.16  HD
ATOM     44 O    ASN P   4      21.607  -9.729 -18.819  1.00 47.17 LIG-0.27  OA
BRANCH 42 45
ATOM     45  CA  ASP P   5      22.116 -12.394 -17.052  1.00 49.16 LIG 0.17  C 
BRANCH 45 46
ATOM     46  C   ASP P   5      22.768 -12.738 -18.392  1.00 49.66 LIG 0.22  C 
ATOM     47 O    ASP P   5      23.922 -12.368 -18.639  1.00 50.85 LIG-0.29  OA
ENDBRANCH 45 46
BRANCH 45 48
ATOM     48  CB  ASP P   5      21.452 -13.674 -16.428  1.00 49.44 LIG 0.15  C 
BRANCH 48 49
ATOM     49  CG  ASP P   5      20.300 -13.551 -15.420  1.00 49.12 LIG 0.17  C 
ATOM     50 OD1  ASP P   5      19.640 -12.489 -15.390  1.00 51.19 LIG-0.65  OA
ATOM     51 OD2  ASP P   5      20.062 -14.509 -14.665  1.00 49.06 LIG-0.65  OA
ENDBRANCH 48 49
ENDBRANCH 45 48
ENDBRANCH 42 45
ENDBRANCH 34 41
ENDBRANCH 32 34
ENDBRANCH 1 31
TORSDOF 20
ENDMDL
MODEL 14
USER: ADFR SOLUTION from run 61
USER: SCORE 16.490142 LL:  -3.832 LR: -14.186 RR:   0.000 FEB:  -8.220
USER: RMSD 10.673860
USER: SEED 60
USER: STATUS searching
USER: GENES 22
USER: genes 0 Translation |==|  0.44001 0.71282 0.46969
USER: genes 1 Rotation |==|  0.17890 0.50584 0.11933 0.54416
USER: genes 2 Torsion [CB]-CA--N-[C] |==|  0.27632
USER: genes 3 Torsion [N]-C--CA-[N] |==|  0.46765
USER: genes 4 Torsion [C]-CA--CB-[CG] |==|  0.30384
USER: genes 5 Torsion [CA]-CB--CG-[CD1] |==|  0.89302
USER: genes 6 Torsion [C]-CA--N-[C] |==|  0.65918
USER: genes 7 Torsion [N]-C--CA-[N] |==|  0.22486
USER: genes 8 Torsion [C]-CA--N-[H3] |==|  0.44998
USER: genes 9 Torsion [C]-CA--CB-[CG] |==|  0.23705
USER: genes 10 Torsion [CA]-CB--CG-[CD1] |==|  0.69087
USER: genes 11 Torsion [N]-CA--CB-[CG] |==|  0.07302
USER: genes 12 Torsion [CA]-CB--CG-[CD1] |==|  0.04814
USER: genes 13 Torsion [N]-CA--C-[N] |==|  0.36667
USER: genes 14 Torsion [C]-N--CA-[C] |==|  0.54671
USER: genes 15 Torsion [N]-CA--CB-[CG] |==|  0.73884
USER: genes 16 Torsion [CA]-CB--CG-[OD1] |==|  0.26539
USER: genes 17 Torsion [N]-CA--C-[N] |==|  0.42839
USER: genes 18 Torsion [C]-N--CA-[C] |==|  0.49414
USER: genes 19 Torsion [N]-CA--C-[O] |==|  0.04662
USER: genes 20 Torsion [N]-CA--CB-[CG] |==|  0.34757
USER: genes 21 Torsion [CA]-CB--CG-[OD1] |==|  0.79368
ROOT
ATOM      1  CA  PHE P   3      18.440  -8.476 -15.199  1.00 45.52 LIG 0.18  C 
ENDROOT
BRANCH 1 2
ATOM      2  N   PHE P   3      17.316  -9.305 -14.609  1.00 45.79 LIG-0.35  N 
ATOM      3 H    PHE P   3      17.566  -9.678 -13.876  1.00 45.79 LIG 0.16  HD
ATOM      4  C   LEU P   2      16.076  -9.505 -15.072  1.00 46.01 LIG 0.24  C 
ATOM      5 O    LEU P   2      15.664  -8.927 -16.069  1.00 46.46 LIG-0.27  OA
BRANCH 4 6
ATOM      6  CA  LEU P   2      15.114 -10.474 -14.257  1.00 45.94 LIG 0.18  C 
BRANCH 6 7
ATOM      7  CB  LEU P   2      15.552 -11.962 -14.323  1.00 45.93 LIG 0.04  C 
BRANCH 7 8
ATOM      8  CG  LEU P   2      16.144 -12.701 -13.088  1.00 45.11 LIG-0.02  C 
ATOM      9  CD1 LEU P   2      17.085 -11.827 -12.228  1.00 44.79 LIG 0.01  C 
ATOM     10  CD2 LEU P   2      15.048 -13.295 -12.207  1.00 44.35 LIG 0.01  C 
ENDBRANCH 7 8
ENDBRANCH 6 7
BRANCH 6 11
ATOM     11  N   LEU P   2      13.733 -10.335 -14.769  1.00 46.17 LIG-0.35  N 
ATOM     12 H    LEU P   2      13.667 -10.499 -15.611  1.00 46.17 LIG 0.16  HD
ATOM     13  C   LEU P   1      12.679  -9.990 -14.016  1.00 46.12 LIG 0.25  C 
ATOM     14 O    LEU P   1      12.748  -9.811 -12.790  1.00 46.29 LIG-0.27  OA
BRANCH 13 15
ATOM     15  CA  LEU P   1      11.330  -9.820 -14.764  1.00 45.93 LIG 0.28  C 
BRANCH 15 16
ATOM     16  N   LEU P   1      10.612 -11.106 -15.040  1.00 46.34 LIG-0.07  N 
ATOM     17 H3   LEU P   1       9.757 -10.936 -15.223  1.00 46.34 LIG 0.28  HD
ATOM     18 H2   LEU P   1      10.662 -11.634 -14.325  1.00 46.34 LIG 0.28  HD
ATOM     19 H1   LEU P   1      10.989 -11.513 -15.736  1.00 46.34 LIG 0.28  HD
ENDBRANCH 15 16
BRANCH 15 20
ATOM     20  CB  LEU P   1      10.409  -8.856 -13.999  1.00 45.65 LIG 0.05  C 
BRANCH 20 21
ATOM     21  CG  LEU P   1      10.638  -7.374 -14.316  1.00 44.28 LIG-0.02  C 
ATOM     22  CD1 LEU P   1      11.232  -6.639 -13.129  1.00 42.49 LIG 0.01  C 
ATOM     23  CD2 LEU P   1      11.516  -7.208 -15.544  1.00 44.08 LIG 0.01  C 
ENDBRANCH 20 21
ENDBRANCH 15 20
ENDBRANCH 13 15
ENDBRANCH 6 11
ENDBRANCH 4 6
ENDBRANCH 1 2
BRANCH 1 24
ATOM     24  CB  PHE P   3      18.707  -7.052 -14.638  1.00 45.09 LIG 0.07  C 
BRANCH 24 25
ATOM     25  CG  PHE P   3      18.266  -6.798 -13.135  1.00 44.37 LIG-0.06  A 
ATOM     26  CD1 PHE P   3      17.991  -7.822 -12.195  1.00 43.10 LIG 0.01  A 
ATOM     27  CE1 PHE P   3      17.532  -7.495 -10.842  1.00 41.01 LIG 0.00  A 
ATOM     28  CZ  PHE P   3      17.331  -6.153 -10.466  1.00 41.66 LIG 0.00  A 
ATOM     29  CE2 PHE P   3      17.587  -5.158 -11.395  1.00 43.89 LIG 0.00  A 
ATOM     30  CD2 PHE P   3      18.034  -5.483 -12.717  1.00 44.25 LIG 0.01  A 
ENDBRANCH 24 25
ENDBRANCH 1 24
BRANCH 1 31
ATOM     31  C   PHE P   3      19.497  -9.569 -14.937  1.00 45.74 LIG 0.26  C 
ATOM     32 N    ASN P   4      20.094  -9.624 -16.069  1.00 46.65 LIG-0.24  NA
ATOM     33 O    PHE P   3      19.632 -10.290 -13.952  1.00 45.60 LIG-0.27  OA
BRANCH 32 34
ATOM     34  CA  ASN P   4      20.997 -10.449 -16.818  1.00 47.05 LIG 0.21  C 
BRANCH 34 35
ATOM     35  CB  ASN P   4      20.119 -11.606 -17.109  1.00 46.83 LIG 0.14  C 
BRANCH 35 36
ATOM     36  CG  ASN P   4      20.328 -12.657 -16.055  1.00 47.32 LIG 0.22  C 
ATOM     37  ND2 ASN P   4      21.363 -13.474 -16.248  1.00 46.99 LIG-0.37  N 
ATOM     38 22HD ASN P   4      21.855 -13.387 -16.948  1.00 46.99 LIG 0.16  HD
ATOM     39 21HD ASN P   4      21.539 -14.088 -15.673  1.00 46.99 LIG 0.16  HD
ATOM     40 OD1  ASN P   4      19.607 -12.750 -15.072  1.00 48.95 LIG-0.27  OA
ENDBRANCH 35 36
ENDBRANCH 34 35
BRANCH 34 41
ATOM     41  C   ASN P   4      21.876 -10.340 -17.999  1.00 47.23 LIG 0.24  C 
ATOM     42  N   ASP P   5      22.770 -11.314 -17.666  1.00 48.41 LIG-0.35  N 
ATOM     43 H    ASP P   5      22.631 -11.708 -16.915  1.00 48.41 LIG 0.16  HD
ATOM     44 O    ASN P   4      21.812  -9.604 -18.972  1.00 47.17 LIG-0.27  OA
BRANCH 42 45
ATOM     45  CA  ASP P   5      23.959 -11.916 -18.245  1.00 49.16 LIG 0.17  C 
BRANCH 45 46
ATOM     46  C   ASP P   5      24.576 -12.976 -17.330  1.00 49.66 LIG 0.22  C 
ATOM     47 O    ASP P   5      23.919 -13.459 -16.401  1.00 50.85 LIG-0.29  OA
ENDBRANCH 45 46
BRANCH 45 48
ATOM     48  CB  ASP P   5      25.010 -10.791 -18.557  1.00 49.44 LIG 0.15  C 
BRANCH 48 49
ATOM     49  CG  ASP P   5      26.437 -10.869 -17.995  1.00 49.12 LIG 0.17  C 
ATOM     50 OD1  ASP P   5      26.618 -10.627 -16.782  1.00 51.19 LIG-0.65  OA
ATOM     51 OD2  ASP P   5      27.367 -11.167 -18.764  1.00 49.06 LIG-0.65  OA
ENDBRANCH 48 49
ENDBRANCH 45 48
ENDBRANCH 42 45
ENDBRANCH 34 41
ENDBRANCH 32 34
ENDBRANCH 1 31
TORSDOF 20
ENDMDL
MODEL 15
USER: ADFR SOLUTION from run 153
USER: SCORE 16.733326 LL:  -3.462 LR: -14.187 RR:   0.000 FEB:  -8.221
USER: RMSD 10.778558
USER: SEED 152
USER: STATUS searching
USER: GENES 22
USER: genes 0 Translation |==|  0.41706 0.74967 0.48185
USER: genes 1 Rotation |==|  0.11214 0.64800 0.25318 0.62937
USER: genes 2 Torsion [CB]-CA--N-[C] |==|  0.86097
USER: genes 3 Torsion [N]-C--CA-[N] |==|  0.07674
USER: genes 4 Torsion [C]-CA--CB-[CG] |==|  0.44001
USER: genes 5 Torsion [CA]-CB--CG-[CD1] |==|  0.06418
USER: genes 6 Torsion [C]-CA--N-[C] |==|  0.66680
USER: genes 7 Torsion [N]-C--CA-[N] |==|  0.30521
USER: genes 8 Torsion [C]-CA--N-[H3] |==|  0.74770
USER: genes 9 Torsion [C]-CA--CB-[CG] |==|  0.81398
USER: genes 10 Torsion [CA]-CB--CG-[CD1] |==|  0.37892
USER: genes 11 Torsion [N]-CA--CB-[CG] |==|  0.88869
USER: genes 12 Torsion [CA]-CB--CG-[CD1] |==|  0.70384
USER: genes 13 Torsion [N]-CA--C-[N] |==|  0.33506
USER: genes 14 Torsion [C]-N--CA-[C] |==|  0.63918
USER: genes 15 Torsion [N]-CA--CB-[CG] |==|  0.09058
USER: genes 16 Torsion [CA]-CB--CG-[OD1] |==|  0.18329
USER: genes 17 Torsion [N]-CA--C-[N] |==|  0.88342
USER: genes 18 Torsion [C]-N--CA-[C] |==|  0.77626
USER: genes 19 Torsion [N]-CA--C-[O] |==|  0.08251
USER: genes 20 Torsion [N]-CA--CB-[CG] |==|  0.75948
USER: genes 21 Torsion [CA]-CB--CG-[OD1] |==|  0.94768
ROOT
ATOM      1  CA  PHE P   3      17.752  -7.370 -14.835  1.00 45.52 LIG 0.18  C 
ENDROOT
BRANCH 1 2
ATOM      2  N   PHE P   3      16.934  -8.534 -14.307  1.00 45.79 LIG-0.35  N 
ATOM      3 H    PHE P   3      16.124  -8.489 -14.590  1.00 45.79 LIG 0.16  HD
ATOM      4  C   LEU P   2      17.309  -9.543 -13.512  1.00 46.01 LIG 0.24  C 
ATOM      5 O    LEU P   2      18.473  -9.681 -13.158  1.00 46.46 LIG-0.27  OA
BRANCH 4 6
ATOM      6  CA  LEU P   2      16.212 -10.610 -13.079  1.00 45.94 LIG 0.18  C 
BRANCH 6 7
ATOM      7  CB  LEU P   2      16.806 -12.023 -12.830  1.00 45.93 LIG 0.04  C 
BRANCH 7 8
ATOM      8  CG  LEU P   2      16.074 -13.078 -11.951  1.00 45.11 LIG-0.02  C 
ATOM      9  CD1 LEU P   2      14.550 -12.849 -11.835  1.00 44.79 LIG 0.01  C 
ATOM     10  CD2 LEU P   2      16.343 -14.501 -12.436  1.00 44.35 LIG 0.01  C 
ENDBRANCH 7 8
ENDBRANCH 6 7
BRANCH 6 11
ATOM     11  N   LEU P   2      15.164 -10.683 -14.120  1.00 46.17 LIG-0.35  N 
ATOM     12 H    LEU P   2      15.468 -10.918 -14.890  1.00 46.17 LIG 0.16  HD
ATOM     13  C   LEU P   1      13.868 -10.414 -13.907  1.00 46.12 LIG 0.25  C 
ATOM     14 O    LEU P   1      13.406 -10.132 -12.790  1.00 46.29 LIG-0.27  OA
BRANCH 13 15
ATOM     15  CA  LEU P   1      12.944 -10.470 -15.152  1.00 45.93 LIG 0.28  C 
BRANCH 15 16
ATOM     16  N   LEU P   1      11.990 -11.626 -15.160  1.00 46.34 LIG-0.07  N 
ATOM     17 H3   LEU P   1      12.366 -12.319 -15.574  1.00 46.34 LIG 0.28  HD
ATOM     18 H2   LEU P   1      11.245 -11.393 -15.588  1.00 46.34 LIG 0.28  HD
ATOM     19 H1   LEU P   1      11.792 -11.853 -14.323  1.00 46.34 LIG 0.28  HD
ENDBRANCH 15 16
BRANCH 15 20
ATOM     20  CB  LEU P   1      12.172  -9.149 -15.310  1.00 45.65 LIG 0.05  C 
BRANCH 20 21
ATOM     21  CG  LEU P   1      11.149  -8.876 -14.202  1.00 44.28 LIG-0.02  C 
ATOM     22  CD1 LEU P   1      11.210  -7.434 -13.735  1.00 42.49 LIG 0.01  C 
ATOM     23  CD2 LEU P   1       9.745  -9.235 -14.654  1.00 44.08 LIG 0.01  C 
ENDBRANCH 20 21
ENDBRANCH 15 20
ENDBRANCH 13 15
ENDBRANCH 6 11
ENDBRANCH 4 6
ENDBRANCH 1 2
BRANCH 1 24
ATOM     24  CB  PHE P   3      18.600  -6.527 -13.843  1.00 45.09 LIG 0.07  C 
BRANCH 24 25
ATOM     25  CG  PHE P   3      17.930  -6.215 -12.439  1.00 44.37 LIG-0.06  A 
ATOM     26  CD1 PHE P   3      17.422  -4.948 -12.056  1.00 43.10 LIG 0.01  A 
ATOM     27  CE1 PHE P   3      16.871  -4.735 -10.714  1.00 41.01 LIG 0.00  A 
ATOM     28  CZ  PHE P   3      16.865  -5.784  -9.775  1.00 41.66 LIG 0.00  A 
ATOM     29  CE2 PHE P   3      17.377  -7.014 -10.151  1.00 43.89 LIG 0.00  A 
ATOM     30  CD2 PHE P   3      17.915  -7.217 -11.463  1.00 44.25 LIG 0.01  A 
ENDBRANCH 24 25
ENDBRANCH 1 24
BRANCH 1 31
ATOM     31  C   PHE P   3      18.496  -8.249 -15.861  1.00 45.74 LIG 0.26  C 
ATOM     32 N    ASN P   4      18.181  -7.677 -16.963  1.00 46.65 LIG-0.24  NA
ATOM     33 O    PHE P   3      19.108  -9.299 -15.677  1.00 45.60 LIG-0.27  OA
BRANCH 32 34
ATOM     34  CA  ASN P   4      18.199  -7.895 -18.381  1.00 47.05 LIG 0.21  C 
BRANCH 34 35
ATOM     35  CB  ASN P   4      16.771  -8.202 -18.620  1.00 46.83 LIG 0.14  C 
BRANCH 35 36
ATOM     36  CG  ASN P   4      15.932  -7.421 -17.648  1.00 47.32 LIG 0.22  C 
ATOM     37  ND2 ASN P   4      15.276  -8.142 -16.738  1.00 46.99 LIG-0.37  N 
ATOM     38 22HD ASN P   4      15.340  -9.000 -16.741  1.00 46.99 LIG 0.16  HD
ATOM     39 21HD ASN P   4      14.788  -7.749 -16.149  1.00 46.99 LIG 0.16  HD
ATOM     40 OD1  ASN P   4      15.864  -6.201 -17.675  1.00 48.95 LIG-0.27  OA
ENDBRANCH 35 36
ENDBRANCH 34 35
BRANCH 34 41
ATOM     41  C   ASN P   4      18.642  -7.194 -19.603  1.00 47.23 LIG 0.24  C 
ATOM     42  N   ASP P   5      18.210  -5.943 -19.276  1.00 48.41 LIG-0.35  N 
ATOM     43 H    ASP P   5      17.809  -5.871 -18.519  1.00 48.41 LIG 0.16  HD
ATOM     44 O    ASN P   4      19.220  -7.614 -20.594  1.00 47.17 LIG-0.27  OA
BRANCH 42 45
ATOM     45  CA  ASP P   5      18.232  -4.617 -19.869  1.00 49.16 LIG 0.17  C 
BRANCH 45 46
ATOM     46  C   ASP P   5      19.575  -3.913 -19.667  1.00 49.66 LIG 0.22  C 
ATOM     47 O    ASP P   5      20.619  -4.572 -19.580  1.00 50.85 LIG-0.29  OA
ENDBRANCH 45 46
BRANCH 45 48
ATOM     48  CB  ASP P   5      17.071  -3.754 -19.256  1.00 49.44 LIG 0.15  C 
BRANCH 48 49
ATOM     49  CG  ASP P   5      15.658  -3.795 -19.856  1.00 49.12 LIG 0.17  C 
ATOM     50 OD1  ASP P   5      15.514  -4.225 -21.021  1.00 51.19 LIG-0.65  OA
ATOM     51 OD2  ASP P   5      14.704  -3.398 -19.165  1.00 49.06 LIG-0.65  OA
ENDBRANCH 48 49
ENDBRANCH 45 48
ENDBRANCH 42 45
ENDBRANCH 34 41
ENDBRANCH 32 34
ENDBRANCH 1 31
TORSDOF 20
ENDMDL
MODEL 16
USER: ADFR SOLUTION from run 66
USER: SCORE 15.913900 LL:  -3.549 LR: -14.134 RR:   0.000 FEB:  -8.168
USER: RMSD 10.099667
USER: SEED 65
USER: STATUS no improvement in best 24 clusters for 5 generations
USER: GENES 22
USER: genes 0 Translation |==|  0.41873 0.72172 0.47631
USER: genes 1 Rotation |==|  0.15622 0.52779 0.13920 0.52944
USER: genes 2 Torsion [CB]-CA--N-[C] |==|  0.76882
USER: genes 3 Torsion [N]-C--CA-[N] |==|  0.08817
USER: genes 4 Torsion [C]-CA--CB-[CG] |==|  0.62389
USER: genes 5 Torsion [CA]-CB--CG-[CD1] |==|  0.83002
USER: genes 6 Torsion [C]-CA--N-[C] |==|  0.63740
USER: genes 7 Torsion [N]-C--CA-[N] |==|  0.15957
USER: genes 8 Torsion [C]-CA--N-[H3] |==|  0.75839
USER: genes 9 Torsion [C]-CA--CB-[CG] |==|  0.23418
USER: genes 10 Torsion [CA]-CB--CG-[CD1] |==|  0.73403
USER: genes 11 Torsion [N]-CA--CB-[CG] |==|  0.06242
USER: genes 12 Torsion [CA]-CB--CG-[CD1] |==|  0.09702
USER: genes 13 Torsion [N]-CA--C-[N] |==|  0.15728
USER: genes 14 Torsion [C]-N--CA-[C] |==|  0.95949
USER: genes 15 Torsion [N]-CA--CB-[CG] |==|  0.76410
USER: genes 16 Torsion [CA]-CB--CG-[OD1] |==|  0.97640
USER: genes 17 Torsion [N]-CA--C-[N] |==|  0.33645
USER: genes 18 Torsion [C]-N--CA-[C] |==|  0.70028
USER: genes 19 Torsion [N]-CA--C-[O] |==|  0.13987
USER: genes 20 Torsion [N]-CA--CB-[CG] |==|  0.65528
USER: genes 21 Torsion [CA]-CB--CG-[OD1] |==|  0.81441
ROOT
ATOM      1  CA  PHE P   3      17.802  -8.208 -15.001  1.00 45.52 LIG 0.18  C 
ENDROOT
BRANCH 1 2
ATOM      2  N   PHE P   3      16.689  -8.948 -14.284  1.00 45.79 LIG-0.35  N 
ATOM      3 H    PHE P   3      15.932  -8.801 -14.664  1.00 45.79 LIG 0.16  HD
ATOM      4  C   LEU P   2      16.752  -9.742 -13.209  1.00 46.01 LIG 0.24  C 
ATOM      5 O    LEU P   2      17.823 -10.037 -12.693  1.00 46.46 LIG-0.27  OA
BRANCH 4 6
ATOM      6  CA  LEU P   2      15.399 -10.354 -12.641  1.00 45.94 LIG 0.18  C 
BRANCH 6 7
ATOM      7  CB  LEU P   2      15.612 -11.682 -11.865  1.00 45.93 LIG 0.04  C 
BRANCH 7 8
ATOM      8  CG  LEU P   2      14.686 -12.916 -12.076  1.00 45.11 LIG-0.02  C 
ATOM      9  CD1 LEU P   2      13.205 -12.655 -11.719  1.00 44.79 LIG 0.01  C 
ATOM     10  CD2 LEU P   2      14.783 -13.457 -13.501  1.00 44.35 LIG 0.01  C 
ENDBRANCH 7 8
ENDBRANCH 6 7
BRANCH 6 11
ATOM     11  N   LEU P   2      14.455 -10.573 -13.759  1.00 46.17 LIG-0.35  N 
ATOM     12 H    LEU P   2      14.808 -10.995 -14.421  1.00 46.17 LIG 0.16  HD
ATOM     13  C   LEU P   1      13.178 -10.165 -13.761  1.00 46.12 LIG 0.25  C 
ATOM     14 O    LEU P   1      12.640  -9.610 -12.790  1.00 46.29 LIG-0.27  OA
BRANCH 13 15
ATOM     15  CA  LEU P   1      12.379 -10.422 -15.066  1.00 45.93 LIG 0.28  C 
BRANCH 15 16
ATOM     16  N   LEU P   1      12.327 -11.860 -15.483  1.00 46.34 LIG-0.07  N 
ATOM     17 H3   LEU P   1      13.040 -12.052 -15.980  1.00 46.34 LIG 0.28  HD
ATOM     18 H2   LEU P   1      11.587 -12.005 -15.958  1.00 46.34 LIG 0.28  HD
ATOM     19 H1   LEU P   1      12.321 -12.379 -14.760  1.00 46.34 LIG 0.28  HD
ENDBRANCH 15 16
BRANCH 15 20
ATOM     20  CB  LEU P   1      10.955  -9.856 -14.945  1.00 45.65 LIG 0.05  C 
BRANCH 20 21
ATOM     21  CG  LEU P   1      10.835  -8.364 -15.275  1.00 44.28 LIG-0.02  C 
ATOM     22  CD1 LEU P   1      10.894  -7.512 -14.022  1.00 42.49 LIG 0.01  C 
ATOM     23  CD2 LEU P   1      11.904  -7.936 -16.265  1.00 44.08 LIG 0.01  C 
ENDBRANCH 20 21
ENDBRANCH 15 20
ENDBRANCH 13 15
ENDBRANCH 6 11
ENDBRANCH 4 6
ENDBRANCH 1 2
BRANCH 1 24
ATOM     24  CB  PHE P   3      18.271  -6.831 -14.456  1.00 45.09 LIG 0.07  C 
BRANCH 24 25
ATOM     25  CG  PHE P   3      17.966  -6.543 -12.926  1.00 44.37 LIG-0.06  A 
ATOM     26  CD1 PHE P   3      17.988  -7.524 -11.904  1.00 43.10 LIG 0.01  A 
ATOM     27  CE1 PHE P   3      17.635  -7.178 -10.524  1.00 41.01 LIG 0.00  A 
ATOM     28  CZ  PHE P   3      17.241  -5.866 -10.200  1.00 41.66 LIG 0.00  A 
ATOM     29  CE2 PHE P   3      17.206  -4.916 -11.207  1.00 43.89 LIG 0.00  A 
ATOM     30  CD2 PHE P   3      17.551  -5.259 -12.555  1.00 44.25 LIG 0.01  A 
ENDBRANCH 24 25
ENDBRANCH 1 24
BRANCH 1 31
ATOM     31  C   PHE P   3      18.776  -9.401 -14.894  1.00 45.74 LIG 0.26  C 
ATOM     32 N    ASN P   4      18.104 -10.330 -15.466  1.00 46.65 LIG-0.24  NA
ATOM     33 O    PHE P   3      19.846  -9.471 -14.295  1.00 45.60 LIG-0.27  OA
BRANCH 32 34
ATOM     34  CA  ASN P   4      18.082 -11.755 -15.628  1.00 47.05 LIG 0.21  C 
BRANCH 34 35
ATOM     35  CB  ASN P   4      17.676 -11.853 -17.050  1.00 46.83 LIG 0.14  C 
BRANCH 35 36
ATOM     36  CG  ASN P   4      16.178 -11.783 -17.137  1.00 47.32 LIG 0.22  C 
ATOM     37  ND2 ASN P   4      15.672 -11.700 -18.368  1.00 46.99 LIG-0.37  N 
ATOM     38 22HD ASN P   4      16.197 -11.678 -19.048  1.00 46.99 LIG 0.16  HD
ATOM     39 21HD ASN P   4      14.820 -11.668 -18.481  1.00 46.99 LIG 0.16  HD
ATOM     40 OD1  ASN P   4      15.462 -11.817 -16.147  1.00 48.95 LIG-0.27  OA
ENDBRANCH 35 36
ENDBRANCH 34 35
BRANCH 34 41
ATOM     41  C   ASN P   4      18.979 -12.908 -15.414  1.00 47.23 LIG 0.24  C 
ATOM     42  N   ASP P   5      18.193 -13.605 -14.545  1.00 48.41 LIG-0.35  N 
ATOM     43 H    ASP P   5      17.445 -13.236 -14.338  1.00 48.41 LIG 0.16  HD
ATOM     44 O    ASN P   4      20.081 -13.155 -15.880  1.00 47.17 LIG-0.27  OA
BRANCH 42 45
ATOM     45  CA  ASP P   5      18.255 -14.866 -13.824  1.00 49.16 LIG 0.17  C 
BRANCH 45 46
ATOM     46  C   ASP P   5      17.295 -15.910 -14.399  1.00 49.66 LIG 0.22  C 
ATOM     47 O    ASP P   5      17.285 -16.150 -15.612  1.00 50.85 LIG-0.29  OA
ENDBRANCH 45 46
BRANCH 45 48
ATOM     48  CB  ASP P   5      17.937 -14.613 -12.307  1.00 49.44 LIG 0.15  C 
BRANCH 48 49
ATOM     49  CG  ASP P   5      18.924 -15.044 -11.213  1.00 49.12 LIG 0.17  C 
ATOM     50 OD1  ASP P   5      19.125 -16.265 -11.033  1.00 51.19 LIG-0.65  OA
ATOM     51 OD2  ASP P   5      19.491 -14.165 -10.540  1.00 49.06 LIG-0.65  OA
ENDBRANCH 48 49
ENDBRANCH 45 48
ENDBRANCH 42 45
ENDBRANCH 34 41
ENDBRANCH 32 34
ENDBRANCH 1 31
TORSDOF 20
ENDMDL
MODEL 17
USER: ADFR SOLUTION from run 98
USER: SCORE 15.472980 LL:  -4.132 LR: -14.132 RR:   0.000 FEB:  -8.166
USER: RMSD 10.004645
USER: SEED 97
USER: STATUS no improvement in best 8 clusters for 5 generations
USER: GENES 22
USER: genes 0 Translation |==|  0.21246 0.72829 0.49868
USER: genes 1 Rotation |==|  0.65441 0.44411 0.07010 0.69551
USER: genes 2 Torsion [CB]-CA--N-[C] |==|  0.86667
USER: genes 3 Torsion [N]-C--CA-[N] |==|  0.35270
USER: genes 4 Torsion [C]-CA--CB-[CG] |==|  0.08180
USER: genes 5 Torsion [CA]-CB--CG-[CD1] |==|  0.43236
USER: genes 6 Torsion [C]-CA--N-[C] |==|  0.60383
USER: genes 7 Torsion [N]-C--CA-[N] |==|  0.24119
USER: genes 8 Torsion [C]-CA--N-[H3] |==|  0.14913
USER: genes 9 Torsion [C]-CA--CB-[CG] |==|  0.36918
USER: genes 10 Torsion [CA]-CB--CG-[CD1] |==|  0.12129
USER: genes 11 Torsion [N]-CA--CB-[CG] |==|  0.81035
USER: genes 12 Torsion [CA]-CB--CG-[CD1] |==|  0.46555
USER: genes 13 Torsion [N]-CA--C-[N] |==|  0.12292
USER: genes 14 Torsion [C]-N--CA-[C] |==|  0.52648
USER: genes 15 Torsion [N]-CA--CB-[CG] |==|  0.61325
USER: genes 16 Torsion [CA]-CB--CG-[OD1] |==|  0.54577
USER: genes 17 Torsion [N]-CA--C-[N] |==|  0.06884
USER: genes 18 Torsion [C]-N--CA-[C] |==|  0.63603
USER: genes 19 Torsion [N]-CA--C-[O] |==|  0.23073
USER: genes 20 Torsion [N]-CA--CB-[CG] |==|  0.52218
USER: genes 21 Torsion [CA]-CB--CG-[OD1] |==|  0.54291
ROOT
ATOM      1  CA  PHE P   3      11.614  -8.011 -14.330  1.00 45.52 LIG 0.18  C 
ENDROOT
BRANCH 1 2
ATOM      2  N   PHE P   3      12.203  -9.015 -15.303  1.00 45.79 LIG-0.35  N 
ATOM      3 H    PHE P   3      13.042  -8.867 -15.421  1.00 45.79 LIG 0.16  HD
ATOM      4  C   LEU P   2      11.605 -10.025 -15.946  1.00 46.01 LIG 0.24  C 
ATOM      5 O    LEU P   2      10.434 -10.312 -15.738  1.00 46.46 LIG-0.27  OA
BRANCH 4 6
ATOM      6  CA  LEU P   2      12.473 -10.897 -16.953  1.00 45.94 LIG 0.18  C 
BRANCH 6 7
ATOM      7  CB  LEU P   2      12.077 -10.681 -18.439  1.00 45.93 LIG 0.04  C 
BRANCH 7 8
ATOM      8  CG  LEU P   2      11.492  -9.330 -18.946  1.00 45.11 LIG-0.02  C 
ATOM      9  CD1 LEU P   2      11.709  -9.082 -20.455  1.00 44.79 LIG 0.01  C 
ATOM     10  CD2 LEU P   2      10.008  -9.197 -18.612  1.00 44.35 LIG 0.01  C 
ENDBRANCH 7 8
ENDBRANCH 6 7
BRANCH 6 11
ATOM     11  N   LEU P   2      12.339 -12.328 -16.601  1.00 46.17 LIG-0.35  N 
ATOM     12 H    LEU P   2      11.547 -12.539 -16.341  1.00 46.17 LIG 0.16  HD
ATOM     13  C   LEU P   1      13.337 -13.220 -16.675  1.00 46.12 LIG 0.25  C 
ATOM     14 O    LEU P   1      14.467 -12.944 -17.106  1.00 46.29 LIG-0.27  OA
BRANCH 13 15
ATOM     15  CA  LEU P   1      13.009 -14.655 -16.182  1.00 45.93 LIG 0.28  C 
BRANCH 15 16
ATOM     16  N   LEU P   1      12.411 -15.544 -17.229  1.00 46.34 LIG-0.07  N 
ATOM     17 H3   LEU P   1      12.937 -15.554 -17.947  1.00 46.34 LIG 0.28  HD
ATOM     18 H2   LEU P   1      11.606 -15.238 -17.454  1.00 46.34 LIG 0.28  HD
ATOM     19 H1   LEU P   1      12.334 -16.371 -16.907  1.00 46.34 LIG 0.28  HD
ENDBRANCH 15 16
BRANCH 15 20
ATOM     20  CB  LEU P   1      14.260 -15.316 -15.581  1.00 45.65 LIG 0.05  C 
BRANCH 20 21
ATOM     21  CG  LEU P   1      14.028 -16.002 -14.230  1.00 44.28 LIG-0.02  C 
ATOM     22  CD1 LEU P   1      12.742 -16.806 -14.230  1.00 42.49 LIG 0.01  C 
ATOM     23  CD2 LEU P   1      15.209 -16.877 -13.852  1.00 44.08 LIG 0.01  C 
ENDBRANCH 20 21
ENDBRANCH 15 20
ENDBRANCH 13 15
ENDBRANCH 6 11
ENDBRANCH 4 6
ENDBRANCH 1 2
BRANCH 1 24
ATOM     24  CB  PHE P   3      10.289  -7.287 -14.696  1.00 45.09 LIG 0.07  C 
BRANCH 24 25
ATOM     25  CG  PHE P   3      10.366  -6.254 -15.899  1.00 44.37 LIG-0.06  A 
ATOM     26  CD1 PHE P   3       9.239  -5.687 -16.543  1.00 43.10 LIG 0.01  A 
ATOM     27  CE1 PHE P   3       9.403  -4.785 -17.687  1.00 41.01 LIG 0.00  A 
ATOM     28  CZ  PHE P   3      10.689  -4.491 -18.179  1.00 41.66 LIG 0.00  A 
ATOM     29  CE2 PHE P   3      11.785  -5.060 -17.553  1.00 43.89 LIG 0.00  A 
ATOM     30  CD2 PHE P   3      11.619  -5.943 -16.437  1.00 44.25 LIG 0.01  A 
ENDBRANCH 24 25
ENDBRANCH 1 24
BRANCH 1 31
ATOM     31  C   PHE P   3      11.588  -9.027 -13.168  1.00 45.74 LIG 0.26  C 
ATOM     32 N    ASN P   4      12.740  -9.576 -13.284  1.00 46.65 LIG-0.24  NA
ATOM     33 O    PHE P   3      10.656  -9.326 -12.426  1.00 45.60 LIG-0.27  OA
BRANCH 32 34
ATOM     34  CA  ASN P   4      13.485 -10.717 -12.836  1.00 47.05 LIG 0.21  C 
BRANCH 34 35
ATOM     35  CB  ASN P   4      12.674 -11.809 -13.422  1.00 46.83 LIG 0.14  C 
BRANCH 35 36
ATOM     36  CG  ASN P   4      12.567 -12.929 -12.425  1.00 47.32 LIG 0.22  C 
ATOM     37  ND2 ASN P   4      12.864 -12.613 -11.164  1.00 46.99 LIG-0.37  N 
ATOM     38 22HD ASN P   4      13.110 -11.812 -10.968  1.00 46.99 LIG 0.16  HD
ATOM     39 21HD ASN P   4      12.811 -13.210 -10.548  1.00 46.99 LIG 0.16  HD
ATOM     40 OD1  ASN P   4      12.214 -14.055 -12.742  1.00 48.95 LIG-0.27  OA
ENDBRANCH 35 36
ENDBRANCH 34 35
BRANCH 34 41
ATOM     41  C   ASN P   4      14.873 -11.218 -12.875  1.00 47.23 LIG 0.24  C 
ATOM     42  N   ASP P   5      15.508 -10.019 -13.007  1.00 48.41 LIG-0.35  N 
ATOM     43 H    ASP P   5      14.998  -9.328 -13.048  1.00 48.41 LIG 0.16  HD
ATOM     44 O    ASN P   4      15.308 -12.357 -12.806  1.00 47.17 LIG-0.27  OA
BRANCH 42 45
ATOM     45  CA  ASP P   5      16.877  -9.540 -13.104  1.00 49.16 LIG 0.17  C 
BRANCH 45 46
ATOM     46  C   ASP P   5      17.154  -8.381 -12.144  1.00 49.66 LIG 0.22  C 
ATOM     47 O    ASP P   5      17.440  -8.603 -10.962  1.00 50.85 LIG-0.29  OA
ENDBRANCH 45 46
BRANCH 45 48
ATOM     48  CB  ASP P   5      17.170  -9.102 -14.583  1.00 49.44 LIG 0.15  C 
BRANCH 48 49
ATOM     49  CG  ASP P   5      18.591  -8.724 -15.025  1.00 49.12 LIG 0.17  C 
ATOM     50 OD1  ASP P   5      18.741  -8.109 -16.104  1.00 51.19 LIG-0.65  OA
ATOM     51 OD2  ASP P   5      19.548  -9.043 -14.298  1.00 49.06 LIG-0.65  OA
ENDBRANCH 48 49
ENDBRANCH 45 48
ENDBRANCH 42 45
ENDBRANCH 34 41
ENDBRANCH 32 34
ENDBRANCH 1 31
TORSDOF 20
ENDMDL
MODEL 18
USER: ADFR SOLUTION from run 6
USER: SCORE 16.252891 LL:  -3.308 LR: -14.121 RR:   0.000 FEB:  -8.155
USER: RMSD 10.552322
USER: SEED 152299
USER: STATUS no improvement in best 20 clusters for 5 generations
USER: GENES 22
USER: genes 0 Translation |==|  0.42958 0.74257 0.49205
USER: genes 1 Rotation |==|  0.13501 0.63818 0.20115 0.59154
USER: genes 2 Torsion [CB]-CA--N-[C] |==|  0.84226
USER: genes 3 Torsion [N]-C--CA-[N] |==|  0.09940
USER: genes 4 Torsion [C]-CA--CB-[CG] |==|  0.65567
USER: genes 5 Torsion [CA]-CB--CG-[CD1] |==|  0.41841
USER: genes 6 Torsion [C]-CA--N-[C] |==|  0.61908
USER: genes 7 Torsion [N]-C--CA-[N] |==|  0.32728
USER: genes 8 Torsion [C]-CA--N-[H3] |==|  0.22290
USER: genes 9 Torsion [C]-CA--CB-[CG] |==|  0.84773
USER: genes 10 Torsion [CA]-CB--CG-[CD1] |==|  0.42522
USER: genes 11 Torsion [N]-CA--CB-[CG] |==|  0.92728
USER: genes 12 Torsion [CA]-CB--CG-[CD1] |==|  0.19962
USER: genes 13 Torsion [N]-CA--C-[N] |==|  0.30562
USER: genes 14 Torsion [C]-N--CA-[C] |==|  0.78321
USER: genes 15 Torsion [N]-CA--CB-[CG] |==|  0.12916
USER: genes 16 Torsion [CA]-CB--CG-[OD1] |==|  0.69359
USER: genes 17 Torsion [N]-CA--C-[N] |==|  0.18600
USER: genes 18 Torsion [C]-N--CA-[C] |==|  0.56292
USER: genes 19 Torsion [N]-CA--C-[O] |==|  0.93139
USER: genes 20 Torsion [N]-CA--CB-[CG] |==|  0.79207
USER: genes 21 Torsion [CA]-CB--CG-[OD1] |==|  0.65431
ROOT
ATOM      1  CA  PHE P   3      18.127  -7.583 -14.529  1.00 45.52 LIG 0.18  C 
ENDROOT
BRANCH 1 2
ATOM      2  N   PHE P   3      17.083  -8.534 -13.976  1.00 45.79 LIG-0.35  N 
ATOM      3 H    PHE P   3      16.317  -8.389 -14.340  1.00 45.79 LIG 0.16  HD
ATOM      4  C   LEU P   2      17.213  -9.497 -13.057  1.00 46.01 LIG 0.24  C 
ATOM      5 O    LEU P   2      18.304  -9.782 -12.579  1.00 46.46 LIG-0.27  OA
BRANCH 4 6
ATOM      6  CA  LEU P   2      15.919 -10.318 -12.634  1.00 45.94 LIG 0.18  C 
BRANCH 6 7
ATOM      7  CB  LEU P   2      16.253 -11.699 -12.007  1.00 45.93 LIG 0.04  C 
BRANCH 7 8
ATOM      8  CG  LEU P   2      15.677 -13.025 -12.583  1.00 45.11 LIG-0.02  C 
ATOM      9  CD1 LEU P   2      16.591 -14.252 -12.365  1.00 44.79 LIG 0.01  C 
ATOM     10  CD2 LEU P   2      14.283 -13.319 -12.035  1.00 44.35 LIG 0.01  C 
ENDBRANCH 7 8
ENDBRANCH 6 7
BRANCH 6 11
ATOM     11  N   LEU P   2      15.050 -10.502 -13.817  1.00 46.17 LIG-0.35  N 
ATOM     12 H    LEU P   2      15.486 -10.713 -14.528  1.00 46.17 LIG 0.16  HD
ATOM     13  C   LEU P   1      13.716 -10.361 -13.805  1.00 46.12 LIG 0.25  C 
ATOM     14 O    LEU P   1      13.068 -10.117 -12.775  1.00 46.29 LIG-0.27  OA
BRANCH 13 15
ATOM     15  CA  LEU P   1      12.999 -10.518 -15.171  1.00 45.93 LIG 0.28  C 
BRANCH 15 16
ATOM     16  N   LEU P   1      12.028 -11.658 -15.230  1.00 46.34 LIG-0.07  N 
ATOM     17 H3   LEU P   1      11.262 -11.416 -14.847  1.00 46.34 LIG 0.28  HD
ATOM     18 H2   LEU P   1      12.367 -12.359 -14.799  1.00 46.34 LIG 0.28  HD
ATOM     19 H1   LEU P   1      11.879 -11.876 -16.080  1.00 46.34 LIG 0.28  HD
ENDBRANCH 15 16
BRANCH 15 20
ATOM     20  CB  LEU P   1      12.297  -9.207 -15.564  1.00 45.65 LIG 0.05  C 
BRANCH 20 21
ATOM     21  CG  LEU P   1      11.322  -8.669 -14.510  1.00 44.28 LIG-0.02  C 
ATOM     22  CD1 LEU P   1      11.177  -7.162 -14.608  1.00 42.49 LIG 0.01  C 
ATOM     23  CD2 LEU P   1       9.968  -9.347 -14.622  1.00 44.08 LIG 0.01  C 
ENDBRANCH 20 21
ENDBRANCH 15 20
ENDBRANCH 13 15
ENDBRANCH 6 11
ENDBRANCH 4 6
ENDBRANCH 1 2
BRANCH 1 24
ATOM     24  CB  PHE P   3      18.916  -6.670 -13.549  1.00 45.09 LIG 0.07  C 
BRANCH 24 25
ATOM     25  CG  PHE P   3      18.186  -6.311 -12.186  1.00 44.37 LIG-0.06  A 
ATOM     26  CD1 PHE P   3      17.977  -7.224 -11.123  1.00 43.10 LIG 0.01  A 
ATOM     27  CE1 PHE P   3      17.240  -6.821  -9.922  1.00 41.01 LIG 0.00  A 
ATOM     28  CZ  PHE P   3      16.704  -5.523  -9.821  1.00 41.66 LIG 0.00  A 
ATOM     29  CE2 PHE P   3      16.899  -4.642 -10.871  1.00 43.89 LIG 0.00  A 
ATOM     30  CD2 PHE P   3      17.619  -5.041 -12.043  1.00 44.25 LIG 0.01  A 
ENDBRANCH 24 25
ENDBRANCH 1 24
BRANCH 1 31
ATOM     31  C   PHE P   3      18.897  -8.712 -15.246  1.00 45.74 LIG 0.26  C 
ATOM     32 N    ASN P   4      18.649  -8.447 -16.475  1.00 46.65 LIG-0.24  NA
ATOM     33 O    PHE P   3      19.471  -9.683 -14.761  1.00 45.60 LIG-0.27  OA
BRANCH 32 34
ATOM     34  CA  ASN P   4      18.729  -9.032 -17.783  1.00 47.05 LIG 0.21  C 
BRANCH 34 35
ATOM     35  CB  ASN P   4      17.683  -8.254 -18.485  1.00 46.83 LIG 0.14  C 
BRANCH 35 36
ATOM     36  CG  ASN P   4      17.860  -6.796 -18.167  1.00 47.32 LIG 0.22  C 
ATOM     37  ND2 ASN P   4      18.928  -6.210 -18.709  1.00 46.99 LIG-0.37  N 
ATOM     38 22HD ASN P   4      19.469  -6.667 -19.196  1.00 46.99 LIG 0.16  HD
ATOM     39 21HD ASN P   4      19.075  -5.374 -18.570  1.00 46.99 LIG 0.16  HD
ATOM     40 OD1  ASN P   4      17.070  -6.178 -17.469  1.00 48.95 LIG-0.27  OA
ENDBRANCH 35 36
ENDBRANCH 34 35
BRANCH 34 41
ATOM     41  C   ASN P   4      19.751  -9.303 -18.814  1.00 47.23 LIG 0.24  C 
ATOM     42  N   ASP P   5      20.474 -10.234 -18.129  1.00 48.41 LIG-0.35  N 
ATOM     43 H    ASP P   5      20.200 -10.411 -17.334  1.00 48.41 LIG 0.16  HD
ATOM     44 O    ASN P   4      19.892  -8.837 -19.934  1.00 47.17 LIG-0.27  OA
BRANCH 42 45
ATOM     45  CA  ASP P   5      21.644 -11.063 -18.366  1.00 49.16 LIG 0.17  C 
BRANCH 45 46
ATOM     46  C   ASP P   5      21.674 -12.296 -17.460  1.00 49.66 LIG 0.22  C 
ATOM     47 O    ASP P   5      21.077 -12.290 -16.377  1.00 50.85 LIG-0.29  OA
ENDBRANCH 45 46
BRANCH 45 48
ATOM     48  CB  ASP P   5      22.942 -10.204 -18.156  1.00 49.44 LIG 0.15  C 
BRANCH 48 49
ATOM     49  CG  ASP P   5      23.381  -9.172 -19.204  1.00 49.12 LIG 0.17  C 
ATOM     50 OD1  ASP P   5      24.533  -9.257 -19.684  1.00 51.19 LIG-0.65  OA
ATOM     51 OD2  ASP P   5      22.580  -8.283 -19.540  1.00 49.06 LIG-0.65  OA
ENDBRANCH 48 49
ENDBRANCH 45 48
ENDBRANCH 42 45
ENDBRANCH 34 41
ENDBRANCH 32 34
ENDBRANCH 1 31
TORSDOF 20
ENDMDL
MODEL 19
USER: ADFR SOLUTION from run 42
USER: SCORE 17.286924 LL:  -4.630 LR: -14.102 RR:   0.000 FEB:  -8.136
USER: RMSD 9.239496
USER: SEED 41
USER: STATUS no improvement in best 1 clusters for 5 generations
USER: GENES 22
USER: genes 0 Translation |==|  0.29008 0.62645 0.52308
USER: genes 1 Rotation |==|  0.41550 0.23330 0.63629 0.89135
USER: genes 2 Torsion [CB]-CA--N-[C] |==|  0.10816
USER: genes 3 Torsion [N]-C--CA-[N] |==|  0.90791
USER: genes 4 Torsion [C]-CA--CB-[CG] |==|  0.56640
USER: genes 5 Torsion [CA]-CB--CG-[CD1] |==|  0.49195
USER: genes 6 Torsion [C]-CA--N-[C] |==|  0.65556
USER: genes 7 Torsion [N]-C--CA-[N] |==|  0.94627
USER: genes 8 Torsion [C]-CA--N-[H3] |==|  0.09231
USER: genes 9 Torsion [C]-CA--CB-[CG] |==|  0.34642
USER: genes 10 Torsion [CA]-CB--CG-[CD1] |==|  0.89575
USER: genes 11 Torsion [N]-CA--CB-[CG] |==|  0.61228
USER: genes 12 Torsion [CA]-CB--CG-[CD1] |==|  0.16663
USER: genes 13 Torsion [N]-CA--C-[N] |==|  0.23004
USER: genes 14 Torsion [C]-N--CA-[C] |==|  0.84986
USER: genes 15 Torsion [N]-CA--CB-[CG] |==|  0.21976
USER: genes 16 Torsion [CA]-CB--CG-[OD1] |==|  0.35163
USER: genes 17 Torsion [N]-CA--C-[N] |==|  0.37461
USER: genes 18 Torsion [C]-N--CA-[C] |==|  0.98103
USER: genes 19 Torsion [N]-CA--C-[O] |==|  0.38963
USER: genes 20 Torsion [N]-CA--CB-[CG] |==|  0.92949
USER: genes 21 Torsion [CA]-CB--CG-[OD1] |==|  0.17367
ROOT
ATOM      1  CA  PHE P   3      13.943 -11.067 -13.597  1.00 45.52 LIG 0.18  C 
ENDROOT
BRANCH 1 2
ATOM      2  N   PHE P   3      15.041 -10.024 -13.683  1.00 45.79 LIG-0.35  N 
ATOM      3 H    PHE P   3      14.730  -9.278 -13.977  1.00 45.79 LIG 0.16  HD
ATOM      4  C   LEU P   2      16.339 -10.132 -13.376  1.00 46.01 LIG 0.24  C 
ATOM      5 O    LEU P   2      16.797 -11.153 -12.881  1.00 46.46 LIG-0.27  OA
BRANCH 4 6
ATOM      6  CA  LEU P   2      17.278  -8.871 -13.613  1.00 45.94 LIG 0.18  C 
BRANCH 6 7
ATOM      7  CB  LEU P   2      17.349  -7.928 -12.382  1.00 45.93 LIG 0.04  C 
BRANCH 7 8
ATOM      8  CG  LEU P   2      17.719  -6.422 -12.520  1.00 45.11 LIG-0.02  C 
ATOM      9  CD1 LEU P   2      17.666  -5.640 -11.188  1.00 44.79 LIG 0.01  C 
ATOM     10  CD2 LEU P   2      19.088  -6.235 -13.170  1.00 44.35 LIG 0.01  C 
ENDBRANCH 7 8
ENDBRANCH 6 7
BRANCH 6 11
ATOM     11  N   LEU P   2      16.798  -8.119 -14.794  1.00 46.17 LIG-0.35  N 
ATOM     12 H    LEU P   2      15.974  -7.879 -14.729  1.00 46.17 LIG 0.16  HD
ATOM     13  C   LEU P   1      17.552  -7.830 -15.863  1.00 46.12 LIG 0.25  C 
ATOM     14 O    LEU P   1      18.757  -8.115 -15.943  1.00 46.29 LIG-0.27  OA
BRANCH 13 15
ATOM     15  CA  LEU P   1      16.834  -7.103 -17.031  1.00 45.93 LIG 0.28  C 
BRANCH 15 16
ATOM     16  N   LEU P   1      15.341  -7.226 -17.009  1.00 46.34 LIG-0.07  N 
ATOM     17 H3   LEU P   1      15.058  -7.256 -16.165  1.00 46.34 LIG 0.28  HD
ATOM     18 H2   LEU P   1      15.099  -7.972 -17.429  1.00 46.34 LIG 0.28  HD
ATOM     19 H1   LEU P   1      14.979  -6.524 -17.418  1.00 46.34 LIG 0.28  HD
ENDBRANCH 15 16
BRANCH 15 20
ATOM     20  CB  LEU P   1      17.240  -5.620 -17.072  1.00 45.65 LIG 0.05  C 
BRANCH 20 21
ATOM     21  CG  LEU P   1      17.809  -5.156 -18.417  1.00 44.28 LIG-0.02  C 
ATOM     22  CD1 LEU P   1      18.672  -6.229 -19.054  1.00 42.49 LIG 0.01  C 
ATOM     23  CD2 LEU P   1      16.700  -4.728 -19.361  1.00 44.08 LIG 0.01  C 
ENDBRANCH 20 21
ENDBRANCH 15 20
ENDBRANCH 13 15
ENDBRANCH 6 11
ENDBRANCH 4 6
ENDBRANCH 1 2
BRANCH 1 24
ATOM     24  CB  PHE P   3      13.921 -12.048 -12.394  1.00 45.09 LIG 0.07  C 
BRANCH 24 25
ATOM     25  CG  PHE P   3      13.545 -13.554 -12.726  1.00 44.37 LIG-0.06  A 
ATOM     26  CD1 PHE P   3      14.273 -14.387 -13.611  1.00 43.10 LIG 0.01  A 
ATOM     27  CE1 PHE P   3      13.819 -15.749 -13.904  1.00 41.01 LIG 0.00  A 
ATOM     28  CZ  PHE P   3      12.632 -16.241 -13.327  1.00 41.66 LIG 0.00  A 
ATOM     29  CE2 PHE P   3      11.918 -15.416 -12.475  1.00 43.89 LIG 0.00  A 
ATOM     30  CD2 PHE P   3      12.365 -14.084 -12.193  1.00 44.25 LIG 0.01  A 
ENDBRANCH 24 25
ENDBRANCH 1 24
BRANCH 1 31
ATOM     31  C   PHE P   3      12.820 -10.012 -13.694  1.00 45.74 LIG 0.26  C 
ATOM     32 N    ASN P   4      12.748  -9.832 -14.961  1.00 46.65 LIG-0.24  NA
ATOM     33 O    PHE P   3      12.251  -9.406 -12.790  1.00 45.60 LIG-0.27  OA
BRANCH 32 34
ATOM     34  CA  ASN P   4      12.200  -8.931 -15.932  1.00 47.05 LIG 0.21  C 
BRANCH 34 35
ATOM     35  CB  ASN P   4      12.674  -9.568 -17.183  1.00 46.83 LIG 0.14  C 
BRANCH 35 36
ATOM     36  CG  ASN P   4      11.784 -10.736 -17.504  1.00 47.32 LIG 0.22  C 
ATOM     37  ND2 ASN P   4      11.614 -11.623 -16.523  1.00 46.99 LIG-0.37  N 
ATOM     38 22HD ASN P   4      12.011 -11.511 -15.769  1.00 46.99 LIG 0.16  HD
ATOM     39 21HD ASN P   4      11.107 -12.306 -16.646  1.00 46.99 LIG 0.16  HD
ATOM     40 OD1  ASN P   4      11.236 -10.862 -18.590  1.00 48.95 LIG-0.27  OA
ENDBRANCH 35 36
ENDBRANCH 34 35
BRANCH 34 41
ATOM     41  C   ASN P   4      10.892  -8.343 -16.284  1.00 47.23 LIG 0.24  C 
ATOM     42  N   ASP P   5      11.301  -7.054 -16.462  1.00 48.41 LIG-0.35  N 
ATOM     43 H    ASP P   5      12.136  -6.904 -16.325  1.00 48.41 LIG 0.16  HD
ATOM     44 O    ASN P   4       9.790  -8.860 -16.386  1.00 47.17 LIG-0.27  OA
BRANCH 42 45
ATOM     45  CA  ASP P   5      10.700  -5.786 -16.839  1.00 49.16 LIG 0.17  C 
BRANCH 45 46
ATOM     46  C   ASP P   5       9.242  -5.942 -17.276  1.00 49.66 LIG 0.22  C 
ATOM     47 O    ASP P   5       8.397  -5.102 -16.944  1.00 50.85 LIG-0.29  OA
ENDBRANCH 45 46
BRANCH 45 48
ATOM     48  CB  ASP P   5      11.544  -5.134 -17.992  1.00 49.44 LIG 0.15  C 
BRANCH 48 49
ATOM     49  CG  ASP P   5      13.032  -5.470 -18.165  1.00 49.12 LIG 0.17  C 
ATOM     50 OD1  ASP P   5      13.355  -6.650 -18.424  1.00 51.19 LIG-0.65  OA
ATOM     51 OD2  ASP P   5      13.869  -4.559 -18.040  1.00 49.06 LIG-0.65  OA
ENDBRANCH 48 49
ENDBRANCH 45 48
ENDBRANCH 42 45
ENDBRANCH 34 41
ENDBRANCH 32 34
ENDBRANCH 1 31
TORSDOF 20
ENDMDL
MODEL 20
USER: ADFR SOLUTION from run 121
USER: SCORE 16.634317 LL:  -4.554 LR: -14.064 RR:   0.000 FEB:  -8.098
USER: RMSD 9.643909
USER: SEED 120
USER: STATUS no improvement in best 12 clusters for 5 generations
USER: GENES 22
USER: genes 0 Translation |==|  0.40211 0.74625 0.48521
USER: genes 1 Rotation |==|  0.06097 0.60230 0.48355 0.71567
USER: genes 2 Torsion [CB]-CA--N-[C] |==|  0.92466
USER: genes 3 Torsion [N]-C--CA-[N] |==|  0.92627
USER: genes 4 Torsion [C]-CA--CB-[CG] |==|  0.11258
USER: genes 5 Torsion [CA]-CB--CG-[CD1] |==|  0.39161
USER: genes 6 Torsion [C]-CA--N-[C] |==|  0.79706
USER: genes 7 Torsion [N]-C--CA-[N] |==|  0.41834
USER: genes 8 Torsion [C]-CA--N-[H3] |==|  0.44501
USER: genes 9 Torsion [C]-CA--CB-[CG] |==|  0.39740
USER: genes 10 Torsion [CA]-CB--CG-[CD1] |==|  0.10958
USER: genes 11 Torsion [N]-CA--CB-[CG] |==|  0.76449
USER: genes 12 Torsion [CA]-CB--CG-[CD1] |==|  0.15083
USER: genes 13 Torsion [N]-CA--C-[N] |==|  0.28109
USER: genes 14 Torsion [C]-N--CA-[C] |==|  0.55559
USER: genes 15 Torsion [N]-CA--CB-[CG] |==|  0.12374
USER: genes 16 Torsion [CA]-CB--CG-[OD1] |==|  0.58971
USER: genes 17 Torsion [N]-CA--C-[N] |==|  0.98408
USER: genes 18 Torsion [C]-N--CA-[C] |==|  0.18925
USER: genes 19 Torsion [N]-CA--C-[O] |==|  0.14242
USER: genes 20 Torsion [N]-CA--CB-[CG] |==|  0.85912
USER: genes 21 Torsion [CA]-CB--CG-[OD1] |==|  0.16374
ROOT
ATOM      1  CA  PHE P   3      17.303  -7.472 -14.734  1.00 45.52 LIG 0.18  C 
ENDROOT
BRANCH 1 2
ATOM      2  N   PHE P   3      17.654  -8.944 -14.630  1.00 45.79 LIG-0.35  N 
ATOM      3 H    PHE P   3      16.957  -9.432 -14.750  1.00 45.79 LIG 0.16  HD
ATOM      4  C   LEU P   2      18.838  -9.520 -14.390  1.00 46.01 LIG 0.24  C 
ATOM      5 O    LEU P   2      19.864  -8.858 -14.293  1.00 46.46 LIG-0.27  OA
BRANCH 4 6
ATOM      6  CA  LEU P   2      18.900 -11.106 -14.290  1.00 45.94 LIG 0.18  C 
BRANCH 6 7
ATOM      7  CB  LEU P   2      19.318 -11.781 -15.624  1.00 45.93 LIG 0.04  C 
BRANCH 7 8
ATOM      8  CG  LEU P   2      20.436 -11.189 -16.531  1.00 45.11 LIG-0.02  C 
ATOM      9  CD1 LEU P   2      21.350 -12.256 -17.175  1.00 44.79 LIG 0.01  C 
ATOM     10  CD2 LEU P   2      19.860 -10.284 -17.618  1.00 44.35 LIG 0.01  C 
ENDBRANCH 7 8
ENDBRANCH 6 7
BRANCH 6 11
ATOM     11  N   LEU P   2      17.582 -11.620 -13.859  1.00 46.17 LIG-0.35  N 
ATOM     12 H    LEU P   2      17.147 -12.007 -14.492  1.00 46.17 LIG 0.16  HD
ATOM     13  C   LEU P   1      17.097 -11.506 -12.614  1.00 46.12 LIG 0.25  C 
ATOM     14 O    LEU P   1      17.739 -11.005 -11.677  1.00 46.29 LIG-0.27  OA
BRANCH 13 15
ATOM     15  CA  LEU P   1      15.658 -12.041 -12.388  1.00 45.93 LIG 0.28  C 
BRANCH 15 16
ATOM     16  N   LEU P   1      15.398 -12.542 -11.001  1.00 46.34 LIG-0.07  N 
ATOM     17 H3   LEU P   1      14.520 -12.561 -10.851  1.00 46.34 LIG 0.28  HD
ATOM     18 H2   LEU P   1      15.787 -12.000 -10.411  1.00 46.34 LIG 0.28  HD
ATOM     19 H1   LEU P   1      15.731 -13.363 -10.914  1.00 46.34 LIG 0.28  HD
ENDBRANCH 15 16
BRANCH 15 20
ATOM     20  CB  LEU P   1      14.621 -10.970 -12.766  1.00 45.65 LIG 0.05  C 
BRANCH 20 21
ATOM     21  CG  LEU P   1      13.355 -11.521 -13.432  1.00 44.28 LIG-0.02  C 
ATOM     22  CD1 LEU P   1      12.911 -12.821 -12.789  1.00 42.49 LIG 0.01  C 
ATOM     23  CD2 LEU P   1      12.234 -10.498 -13.403  1.00 44.08 LIG 0.01  C 
ENDBRANCH 20 21
ENDBRANCH 15 20
ENDBRANCH 13 15
ENDBRANCH 6 11
ENDBRANCH 4 6
ENDBRANCH 1 2
BRANCH 1 24
ATOM     24  CB  PHE P   3      18.164  -6.431 -13.966  1.00 45.09 LIG 0.07  C 
BRANCH 24 25
ATOM     25  CG  PHE P   3      17.772  -6.182 -12.449  1.00 44.37 LIG-0.06  A 
ATOM     26  CD1 PHE P   3      17.666  -7.200 -11.469  1.00 43.10 LIG 0.01  A 
ATOM     27  CE1 PHE P   3      17.240  -6.885 -10.102  1.00 41.01 LIG 0.00  A 
ATOM     28  CZ  PHE P   3      16.904  -5.564  -9.751  1.00 41.66 LIG 0.00  A 
ATOM     29  CE2 PHE P   3      16.995  -4.577 -10.718  1.00 43.89 LIG 0.00  A 
ATOM     30  CD2 PHE P   3      17.410  -4.890 -12.053  1.00 44.25 LIG 0.01  A 
ENDBRANCH 24 25
ENDBRANCH 1 24
BRANCH 1 31
ATOM     31  C   PHE P   3      17.375  -7.478 -16.275  1.00 45.74 LIG 0.26  C 
ATOM     32 N    ASN P   4      16.134  -7.531 -16.588  1.00 46.65 LIG-0.24  NA
ATOM     33 O    PHE P   3      18.363  -7.556 -17.001  1.00 45.60 LIG-0.27  OA
BRANCH 32 34
ATOM     34  CA  ASN P   4      15.273  -7.796 -17.704  1.00 47.05 LIG 0.21  C 
BRANCH 34 35
ATOM     35  CB  ASN P   4      15.417  -9.267 -17.807  1.00 46.83 LIG 0.14  C 
BRANCH 35 36
ATOM     36  CG  ASN P   4      15.331  -9.865 -16.431  1.00 47.32 LIG 0.22  C 
ATOM     37  ND2 ASN P   4      14.524  -9.237 -15.575  1.00 46.99 LIG-0.37  N 
ATOM     38 22HD ASN P   4      14.102  -8.530 -15.822  1.00 46.99 LIG 0.16  HD
ATOM     39 21HD ASN P   4      14.427  -9.539 -14.776  1.00 46.99 LIG 0.16  HD
ATOM     40 OD1  ASN P   4      15.947 -10.872 -16.115  1.00 48.95 LIG-0.27  OA
ENDBRANCH 35 36
ENDBRANCH 34 35
BRANCH 34 41
ATOM     41  C   ASN P   4      13.881  -7.526 -18.117  1.00 47.23 LIG 0.24  C 
ATOM     42  N   ASP P   5      13.443  -6.953 -16.960  1.00 48.41 LIG-0.35  N 
ATOM     43 H    ASP P   5      14.020  -6.906 -16.324  1.00 48.41 LIG 0.16  HD
ATOM     44 O    ASN P   4      13.309  -7.747 -19.174  1.00 47.17 LIG-0.27  OA
BRANCH 42 45
ATOM     45  CA  ASP P   5      12.213  -6.364 -16.459  1.00 49.16 LIG 0.17  C 
BRANCH 45 46
ATOM     46  C   ASP P   5      11.103  -7.402 -16.284  1.00 49.66 LIG 0.22  C 
ATOM     47 O    ASP P   5      11.313  -8.442 -15.649  1.00 50.85 LIG-0.29  OA
ENDBRANCH 45 46
BRANCH 45 48
ATOM     48  CB  ASP P   5      11.744  -5.228 -17.437  1.00 49.44 LIG 0.15  C 
BRANCH 48 49
ATOM     49  CG  ASP P   5      12.714  -4.124 -17.883  1.00 49.12 LIG 0.17  C 
ATOM     50 OD1  ASP P   5      13.762  -4.452 -18.480  1.00 51.19 LIG-0.65  OA
ATOM     51 OD2  ASP P   5      12.426  -2.941 -17.635  1.00 49.06 LIG-0.65  OA
ENDBRANCH 48 49
ENDBRANCH 45 48
ENDBRANCH 42 45
ENDBRANCH 34 41
ENDBRANCH 32 34
ENDBRANCH 1 31
TORSDOF 20
ENDMDL
MODEL 21
USER: ADFR SOLUTION from run 61
USER: SCORE 16.120412 LL:  -3.873 LR: -14.059 RR:   0.000 FEB:  -8.093
USER: RMSD 10.511892
USER: SEED 60
USER: STATUS searching
USER: GENES 22
USER: genes 0 Translation |==|  0.43093 0.72544 0.48402
USER: genes 1 Rotation |==|  0.18521 0.50296 0.11330 0.53687
USER: genes 2 Torsion [CB]-CA--N-[C] |==|  0.41670
USER: genes 3 Torsion [N]-C--CA-[N] |==|  0.34715
USER: genes 4 Torsion [C]-CA--CB-[CG] |==|  0.32701
USER: genes 5 Torsion [CA]-CB--CG-[CD1] |==|  0.92474
USER: genes 6 Torsion [C]-CA--N-[C] |==|  0.63426
USER: genes 7 Torsion [N]-C--CA-[N] |==|  0.20234
USER: genes 8 Torsion [C]-CA--N-[H3] |==|  0.19979
USER: genes 9 Torsion [C]-CA--CB-[CG] |==|  0.22876
USER: genes 10 Torsion [CA]-CB--CG-[CD1] |==|  0.72193
USER: genes 11 Torsion [N]-CA--CB-[CG] |==|  0.08502
USER: genes 12 Torsion [CA]-CB--CG-[CD1] |==|  0.07285
USER: genes 13 Torsion [N]-CA--C-[N] |==|  0.31843
USER: genes 14 Torsion [C]-N--CA-[C] |==|  0.65222
USER: genes 15 Torsion [N]-CA--CB-[CG] |==|  0.73910
USER: genes 16 Torsion [CA]-CB--CG-[OD1] |==|  0.00727
USER: genes 17 Torsion [N]-CA--C-[N] |==|  0.42728
USER: genes 18 Torsion [C]-N--CA-[C] |==|  0.72314
USER: genes 19 Torsion [N]-CA--C-[O] |==|  0.10816
USER: genes 20 Torsion [N]-CA--CB-[CG] |==|  0.16177
USER: genes 21 Torsion [CA]-CB--CG-[OD1] |==|  0.95164
ROOT
ATOM      1  CA  PHE P   3      18.168  -8.097 -14.769  1.00 45.52 LIG 0.18  C 
ENDROOT
BRANCH 1 2
ATOM      2  N   PHE P   3      17.009  -8.892 -14.199  1.00 45.79 LIG-0.35  N 
ATOM      3 H    PHE P   3      16.862  -8.671 -13.381  1.00 45.79 LIG 0.16  HD
ATOM      4  C   LEU P   2      16.252  -9.827 -14.785  1.00 46.01 LIG 0.24  C 
ATOM      5 O    LEU P   2      16.382 -10.107 -15.969  1.00 46.46 LIG-0.27  OA
BRANCH 4 6
ATOM      6  CA  LEU P   2      15.121 -10.535 -13.919  1.00 45.94 LIG 0.18  C 
BRANCH 6 7
ATOM      7  CB  LEU P   2      15.412 -12.037 -13.653  1.00 45.93 LIG 0.04  C 
BRANCH 7 8
ATOM      8  CG  LEU P   2      15.615 -12.593 -12.214  1.00 45.11 LIG-0.02  C 
ATOM      9  CD1 LEU P   2      16.154 -11.549 -11.210  1.00 44.79 LIG 0.01  C 
ATOM     10  CD2 LEU P   2      14.336 -13.220 -11.665  1.00 44.35 LIG 0.01  C 
ENDBRANCH 7 8
ENDBRANCH 6 7
BRANCH 6 11
ATOM     11  N   LEU P   2      13.818 -10.390 -14.604  1.00 46.17 LIG-0.35  N 
ATOM     12 H    LEU P   2      13.850 -10.597 -15.438  1.00 46.17 LIG 0.16  HD
ATOM     13  C   LEU P   1      12.691  -9.979 -14.005  1.00 46.12 LIG 0.25  C 
ATOM     14 O    LEU P   1      12.616  -9.735 -12.790  1.00 46.29 LIG-0.27  OA
BRANCH 13 15
ATOM     15  CA  LEU P   1      11.450  -9.817 -14.921  1.00 45.93 LIG 0.28  C 
BRANCH 15 16
ATOM     16  N   LEU P   1      10.844 -11.110 -15.373  1.00 46.34 LIG-0.07  N 
ATOM     17 H3   LEU P   1      10.431 -11.501 -14.688  1.00 46.34 LIG 0.28  HD
ATOM     18 H2   LEU P   1      11.485 -11.647 -15.679  1.00 46.34 LIG 0.28  HD
ATOM     19 H1   LEU P   1      10.256 -10.951 -16.022  1.00 46.34 LIG 0.28  HD
ENDBRANCH 15 16
BRANCH 15 20
ATOM     20  CB  LEU P   1      10.384  -8.948 -14.232  1.00 45.65 LIG 0.05  C 
BRANCH 20 21
ATOM     21  CG  LEU P   1      10.616  -7.438 -14.361  1.00 44.28 LIG-0.02  C 
ATOM     22  CD1 LEU P   1      11.240  -6.864 -13.103  1.00 42.49 LIG 0.01  C 
ATOM     23  CD2 LEU P   1      11.468  -7.118 -15.576  1.00 44.08 LIG 0.01  C 
ENDBRANCH 20 21
ENDBRANCH 15 20
ENDBRANCH 13 15
ENDBRANCH 6 11
ENDBRANCH 4 6
ENDBRANCH 1 2
BRANCH 1 24
ATOM     24  CB  PHE P   3      18.440  -6.664 -14.235  1.00 45.09 LIG 0.07  C 
BRANCH 24 25
ATOM     25  CG  PHE P   3      18.048  -6.395 -12.721  1.00 44.37 LIG-0.06  A 
ATOM     26  CD1 PHE P   3      17.990  -7.393 -11.717  1.00 43.10 LIG 0.01  A 
ATOM     27  CE1 PHE P   3      17.560  -7.063 -10.355  1.00 41.01 LIG 0.00  A 
ATOM     28  CZ  PHE P   3      17.171  -5.749 -10.033  1.00 41.66 LIG 0.00  A 
ATOM     29  CE2 PHE P   3      17.215  -4.782 -11.023  1.00 43.89 LIG 0.00  A 
ATOM     30  CD2 PHE P   3      17.635  -5.110 -12.353  1.00 44.25 LIG 0.01  A 
ENDBRANCH 24 25
ENDBRANCH 1 24
BRANCH 1 31
ATOM     31  C   PHE P   3      19.195  -9.201 -14.442  1.00 45.74 LIG 0.26  C 
ATOM     32 N    ASN P   4      19.567  -9.560 -15.614  1.00 46.65 LIG-0.24  NA
ATOM     33 O    PHE P   3      19.473  -9.697 -13.353  1.00 45.60 LIG-0.27  OA
BRANCH 32 34
ATOM     34  CA  ASN P   4      20.268 -10.611 -16.292  1.00 47.05 LIG 0.21  C 
BRANCH 34 35
ATOM     35  CB  ASN P   4      19.141 -11.281 -16.981  1.00 46.83 LIG 0.14  C 
BRANCH 35 36
ATOM     36  CG  ASN P   4      18.647 -12.412 -16.125  1.00 47.32 LIG 0.22  C 
ATOM     37  ND2 ASN P   4      17.674 -13.156 -16.652  1.00 46.99 LIG-0.37  N 
ATOM     38 22HD ASN P   4      17.362 -12.967 -17.431  1.00 46.99 LIG 0.16  HD
ATOM     39 21HD ASN P   4      17.358 -13.824 -16.213  1.00 46.99 LIG 0.16  HD
ATOM     40 OD1  ASN P   4      19.114 -12.651 -15.021  1.00 48.95 LIG-0.27  OA
ENDBRANCH 35 36
ENDBRANCH 34 35
BRANCH 34 41
ATOM     41  C   ASN P   4      21.414 -10.765 -17.210  1.00 47.23 LIG 0.24  C 
ATOM     42  N   ASP P   5      21.761 -12.040 -16.875  1.00 48.41 LIG-0.35  N 
ATOM     43 H    ASP P   5      21.287 -12.407 -16.259  1.00 48.41 LIG 0.16  HD
ATOM     44 O    ASN P   4      21.893  -9.986 -18.021  1.00 47.17 LIG-0.27  OA
BRANCH 42 45
ATOM     45  CA  ASP P   5      22.757 -13.017 -17.280  1.00 49.16 LIG 0.17  C 
BRANCH 45 46
ATOM     46  C   ASP P   5      22.190 -14.055 -18.251  1.00 49.66 LIG 0.22  C 
ATOM     47 O    ASP P   5      21.390 -13.716 -19.131  1.00 50.85 LIG-0.29  OA
ENDBRANCH 45 46
BRANCH 45 48
ATOM     48  CB  ASP P   5      23.336 -13.728 -16.005  1.00 49.44 LIG 0.15  C 
BRANCH 48 49
ATOM     49  CG  ASP P   5      22.414 -14.483 -15.037  1.00 49.12 LIG 0.17  C 
ATOM     50 OD1  ASP P   5      21.184 -14.258 -15.082  1.00 51.19 LIG-0.65  OA
ATOM     51 OD2  ASP P   5      22.918 -15.291 -14.238  1.00 49.06 LIG-0.65  OA
ENDBRANCH 48 49
ENDBRANCH 45 48
ENDBRANCH 42 45
ENDBRANCH 34 41
ENDBRANCH 32 34
ENDBRANCH 1 31
TORSDOF 20
ENDMDL
MODEL 22
USER: ADFR SOLUTION from run 58
USER: SCORE 17.073057 LL:  -3.669 LR: -14.050 RR:   0.000 FEB:  -8.084
USER: RMSD 8.442533
USER: SEED 57
USER: STATUS searching
USER: GENES 22
USER: genes 0 Translation |==|  0.37514 0.67326 0.54068
USER: genes 1 Rotation |==|  0.09571 0.69721 0.50425 0.71827
USER: genes 2 Torsion [CB]-CA--N-[C] |==|  0.13370
USER: genes 3 Torsion [N]-C--CA-[N] |==|  0.38737
USER: genes 4 Torsion [C]-CA--CB-[CG] |==|  0.18563
USER: genes 5 Torsion [CA]-CB--CG-[CD1] |==|  0.35649
USER: genes 6 Torsion [C]-CA--N-[C] |==|  0.56673
USER: genes 7 Torsion [N]-C--CA-[N] |==|  0.46306
USER: genes 8 Torsion [C]-CA--N-[H3] |==|  0.38060
USER: genes 9 Torsion [C]-CA--CB-[CG] |==|  0.76944
USER: genes 10 Torsion [CA]-CB--CG-[CD1] |==|  0.22970
USER: genes 11 Torsion [N]-CA--CB-[CG] |==|  0.56244
USER: genes 12 Torsion [CA]-CB--CG-[CD1] |==|  0.25900
USER: genes 13 Torsion [N]-CA--C-[N] |==|  0.16661
USER: genes 14 Torsion [C]-N--CA-[C] |==|  0.78751
USER: genes 15 Torsion [N]-CA--CB-[CG] |==|  0.21264
USER: genes 16 Torsion [CA]-CB--CG-[OD1] |==|  0.85743
USER: genes 17 Torsion [N]-CA--C-[N] |==|  0.92472
USER: genes 18 Torsion [C]-N--CA-[C] |==|  0.13790
USER: genes 19 Torsion [N]-CA--C-[O] |==|  0.09094
USER: genes 20 Torsion [N]-CA--CB-[CG] |==|  0.56096
USER: genes 21 Torsion [CA]-CB--CG-[OD1] |==|  0.41300
ROOT
ATOM      1  CA  PHE P   3      16.494  -9.662 -13.070  1.00 45.52 LIG 0.18  C 
ENDROOT
BRANCH 1 2
ATOM      2  N   PHE P   3      16.353 -11.171 -13.140  1.00 45.79 LIG-0.35  N 
ATOM      3 H    PHE P   3      16.089 -11.415 -13.921  1.00 45.79 LIG 0.16  HD
ATOM      4  C   LEU P   2      16.576 -12.090 -12.193  1.00 46.01 LIG 0.24  C 
ATOM      5 O    LEU P   2      17.029 -11.783 -11.098  1.00 46.46 LIG-0.27  OA
BRANCH 4 6
ATOM      6  CA  LEU P   2      16.298 -13.616 -12.542  1.00 45.94 LIG 0.18  C 
BRANCH 6 7
ATOM      7  CB  LEU P   2      14.914 -14.109 -12.040  1.00 45.93 LIG 0.04  C 
BRANCH 7 8
ATOM      8  CG  LEU P   2      13.582 -13.566 -12.635  1.00 45.11 LIG-0.02  C 
ATOM      9  CD1 LEU P   2      12.604 -14.672 -13.094  1.00 44.79 LIG 0.01  C 
ATOM     10  CD2 LEU P   2      12.873 -12.624 -11.665  1.00 44.35 LIG 0.01  C 
ENDBRANCH 7 8
ENDBRANCH 6 7
BRANCH 6 11
ATOM     11  N   LEU P   2      17.370 -14.453 -11.959  1.00 46.17 LIG-0.35  N 
ATOM     12 H    LEU P   2      17.760 -14.084 -11.288  1.00 46.17 LIG 0.16  HD
ATOM     13  C   LEU P   1      17.712 -15.667 -12.416  1.00 46.12 LIG 0.25  C 
ATOM     14 O    LEU P   1      17.117 -16.238 -13.343  1.00 46.29 LIG-0.27  OA
BRANCH 13 15
ATOM     15  CA  LEU P   1      18.918 -16.346 -11.716  1.00 45.93 LIG 0.28  C 
BRANCH 15 16
ATOM     16  N   LEU P   1      19.073 -17.803 -12.029  1.00 46.34 LIG-0.07  N 
ATOM     17 H3   LEU P   1      19.932 -17.985 -12.175  1.00 46.34 LIG 0.28  HD
ATOM     18 H2   LEU P   1      18.599 -18.002 -12.756  1.00 46.34 LIG 0.28  HD
ATOM     19 H1   LEU P   1      18.780 -18.286 -11.342  1.00 46.34 LIG 0.28  HD
ENDBRANCH 15 16
BRANCH 15 20
ATOM     20  CB  LEU P   1      20.221 -15.595 -12.040  1.00 45.65 LIG 0.05  C 
BRANCH 20 21
ATOM     21  CG  LEU P   1      20.860 -15.983 -13.378  1.00 44.28 LIG-0.02  C 
ATOM     22  CD1 LEU P   1      20.220 -15.238 -14.535  1.00 42.49 LIG 0.01  C 
ATOM     23  CD2 LEU P   1      22.360 -15.751 -13.354  1.00 44.08 LIG 0.01  C 
ENDBRANCH 20 21
ENDBRANCH 15 20
ENDBRANCH 13 15
ENDBRANCH 6 11
ENDBRANCH 4 6
ENDBRANCH 1 2
BRANCH 1 24
ATOM     24  CB  PHE P   3      17.790  -9.049 -12.472  1.00 45.09 LIG 0.07  C 
BRANCH 24 25
ATOM     25  CG  PHE P   3      17.673  -7.565 -11.921  1.00 44.37 LIG-0.06  A 
ATOM     26  CD1 PHE P   3      17.388  -7.229 -10.574  1.00 43.10 LIG 0.01  A 
ATOM     27  CE1 PHE P   3      17.240  -5.830 -10.165  1.00 41.01 LIG 0.00  A 
ATOM     28  CZ  PHE P   3      17.352  -4.797 -11.116  1.00 41.66 LIG 0.00  A 
ATOM     29  CE2 PHE P   3      17.615  -5.134 -12.433  1.00 43.89 LIG 0.00  A 
ATOM     30  CD2 PHE P   3      17.758  -6.504 -12.828  1.00 44.25 LIG 0.01  A 
ENDBRANCH 24 25
ENDBRANCH 1 24
BRANCH 1 31
ATOM     31  C   PHE P   3      16.236  -9.484 -14.581  1.00 45.74 LIG 0.26  C 
ATOM     32 N    ASN P   4      15.063  -9.985 -14.700  1.00 46.65 LIG-0.24  NA
ATOM     33 O    PHE P   3      17.008  -9.096 -15.454  1.00 45.60 LIG-0.27  OA
BRANCH 32 34
ATOM     34  CA  ASN P   4      14.143 -10.451 -15.697  1.00 47.05 LIG 0.21  C 
BRANCH 34 35
ATOM     35  CB  ASN P   4      13.305 -11.358 -14.880  1.00 46.83 LIG 0.14  C 
BRANCH 35 36
ATOM     36  CG  ASN P   4      12.360 -10.537 -14.049  1.00 47.32 LIG 0.22  C 
ATOM     37  ND2 ASN P   4      11.076 -10.892 -14.109  1.00 46.99 LIG-0.37  N 
ATOM     38 22HD ASN P   4      10.834 -11.548 -14.610  1.00 46.99 LIG 0.16  HD
ATOM     39 21HD ASN P   4      10.490 -10.465 -13.647  1.00 46.99 LIG 0.16  HD
ATOM     40 OD1  ASN P   4      12.740  -9.610 -13.348  1.00 48.95 LIG-0.27  OA
ENDBRANCH 35 36
ENDBRANCH 34 35
BRANCH 34 41
ATOM     41  C   ASN P   4      13.218  -9.887 -16.699  1.00 47.23 LIG 0.24  C 
ATOM     42  N   ASP P   5      12.956  -8.702 -16.076  1.00 48.41 LIG-0.35  N 
ATOM     43 H    ASP P   5      13.341  -8.586 -15.317  1.00 48.41 LIG 0.16  HD
ATOM     44 O    ASN P   4      12.819 -10.345 -17.759  1.00 47.17 LIG-0.27  OA
BRANCH 42 45
ATOM     45  CA  ASP P   5      12.169  -7.509 -16.338  1.00 49.16 LIG 0.17  C 
BRANCH 45 46
ATOM     46  C   ASP P   5      10.731  -7.839 -16.741  1.00 49.66 LIG 0.22  C 
ATOM     47 O    ASP P   5      10.164  -8.834 -16.274  1.00 50.85 LIG-0.29  OA
ENDBRANCH 45 46
BRANCH 45 48
ATOM     48  CB  ASP P   5      12.867  -6.663 -17.462  1.00 49.44 LIG 0.15  C 
BRANCH 48 49
ATOM     49  CG  ASP P   5      12.582  -5.161 -17.610  1.00 49.12 LIG 0.17  C 
ATOM     50 OD1  ASP P   5      13.490  -4.417 -18.040  1.00 51.19 LIG-0.65  OA
ATOM     51 OD2  ASP P   5      11.458  -4.733 -17.294  1.00 49.06 LIG-0.65  OA
ENDBRANCH 48 49
ENDBRANCH 45 48
ENDBRANCH 42 45
ENDBRANCH 34 41
ENDBRANCH 32 34
ENDBRANCH 1 31
TORSDOF 20
ENDMDL
MODEL 23
USER: ADFR SOLUTION from run 153
USER: SCORE 16.100203 LL:  -3.898 LR: -13.993 RR:   0.000 FEB:  -8.027
USER: RMSD 10.747035
USER: SEED 152
USER: STATUS searching
USER: GENES 22
USER: genes 0 Translation |==|  0.39758 0.71891 0.48765
USER: genes 1 Rotation |==|  0.13226 0.73356 0.27835 0.60532
USER: genes 2 Torsion [CB]-CA--N-[C] |==|  0.91180
USER: genes 3 Torsion [N]-C--CA-[N] |==|  0.06733
USER: genes 4 Torsion [C]-CA--CB-[CG] |==|  0.53700
USER: genes 5 Torsion [CA]-CB--CG-[CD1] |==|  0.88127
USER: genes 6 Torsion [C]-CA--N-[C] |==|  0.69600
USER: genes 7 Torsion [N]-C--CA-[N] |==|  0.13469
USER: genes 8 Torsion [C]-CA--N-[H3] |==|  0.00948
USER: genes 9 Torsion [C]-CA--CB-[CG] |==|  0.26672
USER: genes 10 Torsion [CA]-CB--CG-[CD1] |==|  0.77629
USER: genes 11 Torsion [N]-CA--CB-[CG] |==|  0.82110
USER: genes 12 Torsion [CA]-CB--CG-[CD1] |==|  0.24026
USER: genes 13 Torsion [N]-CA--C-[N] |==|  0.31780
USER: genes 14 Torsion [C]-N--CA-[C] |==|  0.55030
USER: genes 15 Torsion [N]-CA--CB-[CG] |==|  0.22320
USER: genes 16 Torsion [CA]-CB--CG-[OD1] |==|  0.29255
USER: genes 17 Torsion [N]-CA--C-[N] |==|  0.98476
USER: genes 18 Torsion [C]-N--CA-[C] |==|  0.16998
USER: genes 19 Torsion [N]-CA--C-[O] |==|  0.24336
USER: genes 20 Torsion [N]-CA--CB-[CG] |==|  0.89904
USER: genes 21 Torsion [CA]-CB--CG-[OD1] |==|  0.23356
ROOT
ATOM      1  CA  PHE P   3      17.167  -8.293 -14.660  1.00 45.52 LIG 0.18  C 
ENDROOT
BRANCH 1 2
ATOM      2  N   PHE P   3      16.100  -9.236 -14.140  1.00 45.79 LIG-0.35  N 
ATOM      3 H    PHE P   3      15.334  -9.047 -14.482  1.00 45.79 LIG 0.16  HD
ATOM      4  C   LEU P   2      16.212 -10.249 -13.272  1.00 46.01 LIG 0.24  C 
ATOM      5 O    LEU P   2      17.299 -10.594 -12.828  1.00 46.46 LIG-0.27  OA
BRANCH 4 6
ATOM      6  CA  LEU P   2      14.897 -11.047 -12.870  1.00 45.94 LIG 0.18  C 
BRANCH 6 7
ATOM      7  CB  LEU P   2      15.161 -12.552 -12.593  1.00 45.93 LIG 0.04  C 
BRANCH 7 8
ATOM      8  CG  LEU P   2      14.001 -13.584 -12.483  1.00 45.11 LIG-0.02  C 
ATOM      9  CD1 LEU P   2      12.789 -13.079 -11.669  1.00 44.79 LIG 0.01  C 
ATOM     10  CD2 LEU P   2      13.534 -14.056 -13.858  1.00 44.35 LIG 0.01  C 
ENDBRANCH 7 8
ENDBRANCH 6 7
BRANCH 6 11
ATOM     11  N   LEU P   2      13.890 -10.904 -13.945  1.00 46.17 LIG-0.35  N 
ATOM     12 H    LEU P   2      14.098 -11.334 -14.661  1.00 46.17 LIG 0.16  HD
ATOM     13  C   LEU P   1      12.765 -10.184 -13.836  1.00 46.12 LIG 0.25  C 
ATOM     14 O    LEU P   1      12.424  -9.610 -12.790  1.00 46.29 LIG-0.27  OA
BRANCH 13 15
ATOM     15  CA  LEU P   1      11.882 -10.097 -15.109  1.00 45.93 LIG 0.28  C 
BRANCH 15 16
ATOM     16  N   LEU P   1      11.618 -11.417 -15.767  1.00 46.34 LIG-0.07  N 
ATOM     17 H3   LEU P   1      11.980 -12.069 -15.282  1.00 46.34 LIG 0.28  HD
ATOM     18 H2   LEU P   1      11.976 -11.419 -16.582  1.00 46.34 LIG 0.28  HD
ATOM     19 H1   LEU P   1      10.739 -11.547 -15.829  1.00 46.34 LIG 0.28  HD
ENDBRANCH 15 16
BRANCH 15 20
ATOM     20  CB  LEU P   1      10.554  -9.389 -14.794  1.00 45.65 LIG 0.05  C 
BRANCH 20 21
ATOM     21  CG  LEU P   1      10.541  -7.892 -15.120  1.00 44.28 LIG-0.02  C 
ATOM     22  CD1 LEU P   1      11.210  -7.081 -14.027  1.00 42.49 LIG 0.01  C 
ATOM     23  CD2 LEU P   1      11.190  -7.619 -16.465  1.00 44.08 LIG 0.01  C 
ENDBRANCH 20 21
ENDBRANCH 15 20
ENDBRANCH 13 15
ENDBRANCH 6 11
ENDBRANCH 4 6
ENDBRANCH 1 2
BRANCH 1 24
ATOM     24  CB  PHE P   3      18.360  -7.914 -13.740  1.00 45.09 LIG 0.07  C 
BRANCH 24 25
ATOM     25  CG  PHE P   3      18.000  -7.096 -12.429  1.00 44.37 LIG-0.06  A 
ATOM     26  CD1 PHE P   3      17.614  -7.682 -11.197  1.00 43.10 LIG 0.01  A 
ATOM     27  CE1 PHE P   3      17.241  -6.846 -10.053  1.00 41.01 LIG 0.00  A 
ATOM     28  CZ  PHE P   3      17.237  -5.443 -10.171  1.00 41.66 LIG 0.00  A 
ATOM     29  CE2 PHE P   3      17.601  -4.878 -11.381  1.00 43.89 LIG 0.00  A 
ATOM     30  CD2 PHE P   3      17.963  -5.700 -12.498  1.00 44.25 LIG 0.01  A 
ENDBRANCH 24 25
ENDBRANCH 1 24
BRANCH 1 31
ATOM     31  C   PHE P   3      17.455  -9.169 -15.898  1.00 45.74 LIG 0.26  C 
ATOM     32 N    ASN P   4      17.069  -8.401 -16.849  1.00 46.65 LIG-0.24  NA
ATOM     33 O    PHE P   3      17.822 -10.340 -15.945  1.00 45.60 LIG-0.27  OA
BRANCH 32 34
ATOM     34  CA  ASN P   4      16.747  -8.428 -18.246  1.00 47.05 LIG 0.21  C 
BRANCH 34 35
ATOM     35  CB  ASN P   4      15.462  -9.165 -18.207  1.00 46.83 LIG 0.14  C 
BRANCH 35 36
ATOM     36  CG  ASN P   4      14.364  -8.214 -17.821  1.00 47.32 LIG 0.22  C 
ATOM     37  ND2 ASN P   4      14.339  -7.847 -16.540  1.00 46.99 LIG-0.37  N 
ATOM     38 22HD ASN P   4      14.921  -8.161 -15.990  1.00 46.99 LIG 0.16  HD
ATOM     39 21HD ASN P   4      13.739  -7.296 -16.262  1.00 46.99 LIG 0.16  HD
ATOM     40 OD1  ASN P   4      13.552  -7.788 -18.630  1.00 48.95 LIG-0.27  OA
ENDBRANCH 35 36
ENDBRANCH 34 35
BRANCH 34 41
ATOM     41  C   ASN P   4      16.600  -7.479 -19.367  1.00 47.23 LIG 0.24  C 
ATOM     42  N   ASP P   5      16.762  -6.322 -18.663  1.00 48.41 LIG-0.35  N 
ATOM     43 H    ASP P   5      16.882  -6.412 -17.817  1.00 48.41 LIG 0.16  HD
ATOM     44 O    ASN P   4      16.401  -7.677 -20.556  1.00 47.17 LIG-0.27  OA
BRANCH 42 45
ATOM     45  CA  ASP P   5      16.793  -4.897 -18.944  1.00 49.16 LIG 0.17  C 
BRANCH 45 46
ATOM     46  C   ASP P   5      15.475  -4.394 -19.537  1.00 49.66 LIG 0.22  C 
ATOM     47 O    ASP P   5      14.555  -4.029 -18.797  1.00 50.85 LIG-0.29  OA
ENDBRANCH 45 46
BRANCH 45 48
ATOM     48  CB  ASP P   5      17.982  -4.585 -19.922  1.00 49.44 LIG 0.15  C 
BRANCH 48 49
ATOM     49  CG  ASP P   5      19.310  -5.349 -19.815  1.00 49.12 LIG 0.17  C 
ATOM     50 OD1  ASP P   5      19.411  -6.458 -20.384  1.00 51.19 LIG-0.65  OA
ATOM     51 OD2  ASP P   5      20.241  -4.842 -19.166  1.00 49.06 LIG-0.65  OA
ENDBRANCH 48 49
ENDBRANCH 45 48
ENDBRANCH 42 45
ENDBRANCH 34 41
ENDBRANCH 32 34
ENDBRANCH 1 31
TORSDOF 20
ENDMDL
MODEL 24
USER: ADFR SOLUTION from run 23
USER: SCORE 14.575145 LL:  -3.512 LR: -13.994 RR:   0.000 FEB:  -8.028
USER: RMSD 8.793679
USER: SEED 22
USER: STATUS no improvement in best 6 clusters for 5 generations
USER: GENES 22
USER: genes 0 Translation |==|  0.26050 0.61183 0.52636
USER: genes 1 Rotation |==|  0.39001 0.39451 0.09036 0.74283
USER: genes 2 Torsion [CB]-CA--N-[C] |==|  0.48622
USER: genes 3 Torsion [N]-C--CA-[N] |==|  0.31761
USER: genes 4 Torsion [C]-CA--CB-[CG] |==|  0.87633
USER: genes 5 Torsion [CA]-CB--CG-[CD1] |==|  0.24038
USER: genes 6 Torsion [C]-CA--N-[C] |==|  0.58041
USER: genes 7 Torsion [N]-C--CA-[N] |==|  0.53369
USER: genes 8 Torsion [C]-CA--N-[H3] |==|  0.62497
USER: genes 9 Torsion [C]-CA--CB-[CG] |==|  0.86198
USER: genes 10 Torsion [CA]-CB--CG-[CD1] |==|  0.33189
USER: genes 11 Torsion [N]-CA--CB-[CG] |==|  0.62204
USER: genes 12 Torsion [CA]-CB--CG-[CD1] |==|  0.66149
USER: genes 13 Torsion [N]-CA--C-[N] |==|  0.39147
USER: genes 14 Torsion [C]-N--CA-[C] |==|  0.39975
USER: genes 15 Torsion [N]-CA--CB-[CG] |==|  0.63682
USER: genes 16 Torsion [CA]-CB--CG-[OD1] |==|  0.24858
USER: genes 17 Torsion [N]-CA--C-[N] |==|  0.29602
USER: genes 18 Torsion [C]-N--CA-[C] |==|  0.98629
USER: genes 19 Torsion [N]-CA--C-[O] |==|  0.16821
USER: genes 20 Torsion [N]-CA--CB-[CG] |==|  0.67095
USER: genes 21 Torsion [CA]-CB--CG-[OD1] |==|  0.33255
ROOT
ATOM      1  CA  PHE P   3      13.055 -11.505 -13.499  1.00 45.52 LIG 0.18  C 
ENDROOT
BRANCH 1 2
ATOM      2  N   PHE P   3      13.046 -12.992 -13.800  1.00 45.79 LIG-0.35  N 
ATOM      3 H    PHE P   3      12.266 -13.326 -13.658  1.00 45.79 LIG 0.16  HD
ATOM      4  C   LEU P   2      14.041 -13.777 -14.228  1.00 46.01 LIG 0.24  C 
ATOM      5 O    LEU P   2      15.139 -13.320 -14.516  1.00 46.46 LIG-0.27  OA
BRANCH 4 6
ATOM      6  CA  LEU P   2      13.750 -15.329 -14.417  1.00 45.94 LIG 0.18  C 
BRANCH 6 7
ATOM      7  CB  LEU P   2      14.705 -16.231 -13.589  1.00 45.93 LIG 0.04  C 
BRANCH 7 8
ATOM      8  CG  LEU P   2      16.238 -15.966 -13.527  1.00 45.11 LIG-0.02  C 
ATOM      9  CD1 LEU P   2      16.656 -14.961 -12.430  1.00 44.79 LIG 0.01  C 
ATOM     10  CD2 LEU P   2      17.028 -17.262 -13.363  1.00 44.35 LIG 0.01  C 
ENDBRANCH 7 8
ENDBRANCH 6 7
BRANCH 6 11
ATOM     11  N   LEU P   2      13.853 -15.674 -15.852  1.00 46.17 LIG-0.35  N 
ATOM     12 H    LEU P   2      14.401 -15.170 -16.282  1.00 46.17 LIG 0.16  HD
ATOM     13  C   LEU P   1      13.173 -16.668 -16.441  1.00 46.12 LIG 0.25  C 
ATOM     14 O    LEU P   1      12.427 -17.442 -15.821  1.00 46.29 LIG-0.27  OA
BRANCH 13 15
ATOM     15  CA  LEU P   1      13.362 -16.813 -17.974  1.00 45.93 LIG 0.28  C 
BRANCH 15 16
ATOM     16  N   LEU P   1      12.381 -17.734 -18.632  1.00 46.34 LIG-0.07  N 
ATOM     17 H3   LEU P   1      12.810 -18.269 -19.200  1.00 46.34 LIG 0.28  HD
ATOM     18 H2   LEU P   1      11.776 -17.255 -19.076  1.00 46.34 LIG 0.28  HD
ATOM     19 H1   LEU P   1      11.974 -18.226 -18.012  1.00 46.34 LIG 0.28  HD
ENDBRANCH 15 16
BRANCH 15 20
ATOM     20  CB  LEU P   1      13.328 -15.434 -18.653  1.00 45.65 LIG 0.05  C 
BRANCH 20 21
ATOM     21  CG  LEU P   1      12.134 -14.559 -18.251  1.00 44.28 LIG-0.02  C 
ATOM     22  CD1 LEU P   1      12.589 -13.266 -17.601  1.00 42.49 LIG 0.01  C 
ATOM     23  CD2 LEU P   1      11.241 -14.274 -19.445  1.00 44.08 LIG 0.01  C 
ENDBRANCH 20 21
ENDBRANCH 15 20
ENDBRANCH 13 15
ENDBRANCH 6 11
ENDBRANCH 4 6
ENDBRANCH 1 2
BRANCH 1 24
ATOM     24  CB  PHE P   3      11.724 -10.799 -13.121  1.00 45.09 LIG 0.07  C 
BRANCH 24 25
ATOM     25  CG  PHE P   3      11.455  -9.396 -13.811  1.00 44.37 LIG-0.06  A 
ATOM     26  CD1 PHE P   3      11.239  -8.184 -13.109  1.00 43.10 LIG 0.01  A 
ATOM     27  CE1 PHE P   3      10.939  -6.943 -13.830  1.00 41.01 LIG 0.00  A 
ATOM     28  CZ  PHE P   3      10.835  -6.945 -15.234  1.00 41.66 LIG 0.00  A 
ATOM     29  CE2 PHE P   3      11.033  -8.136 -15.911  1.00 43.89 LIG 0.00  A 
ATOM     30  CD2 PHE P   3      11.324  -9.347 -15.203  1.00 44.25 LIG 0.01  A 
ENDBRANCH 24 25
ENDBRANCH 1 24
BRANCH 1 31
ATOM     31  C   PHE P   3      14.137 -11.648 -12.408  1.00 45.74 LIG 0.26  C 
ATOM     32 N    ASN P   4      14.849 -10.603 -12.616  1.00 46.65 LIG-0.24  NA
ATOM     33 O    PHE P   3      14.339 -12.586 -11.642  1.00 45.60 LIG-0.27  OA
BRANCH 32 34
ATOM     34  CA  ASN P   4      16.122 -10.034 -12.282  1.00 47.05 LIG 0.21  C 
BRANCH 34 35
ATOM     35  CB  ASN P   4      16.835 -11.240 -11.805  1.00 46.83 LIG 0.14  C 
BRANCH 35 36
ATOM     36  CG  ASN P   4      17.479 -10.938 -10.481  1.00 47.32 LIG 0.22  C 
ATOM     37  ND2 ASN P   4      18.719 -10.450 -10.537  1.00 46.99 LIG-0.37  N 
ATOM     38 22HD ASN P   4      19.103 -10.338 -11.299  1.00 46.99 LIG 0.16  HD
ATOM     39 21HD ASN P   4      19.134 -10.248  -9.812  1.00 46.99 LIG 0.16  HD
ATOM     40 OD1  ASN P   4      16.901 -11.110  -9.418  1.00 48.95 LIG-0.27  OA
ENDBRANCH 35 36
ENDBRANCH 34 35
BRANCH 34 41
ATOM     41  C   ASN P   4      17.166  -9.208 -12.919  1.00 47.23 LIG 0.24  C 
ATOM     42  N   ASP P   5      16.921  -8.041 -12.258  1.00 48.41 LIG-0.35  N 
ATOM     43 H    ASP P   5      16.271  -8.059 -11.696  1.00 48.41 LIG 0.16  HD
ATOM     44 O    ASN P   4      17.994  -9.492 -13.771  1.00 47.17 LIG-0.27  OA
BRANCH 42 45
ATOM     45  CA  ASP P   5      17.471  -6.696 -12.224  1.00 49.16 LIG 0.17  C 
BRANCH 45 46
ATOM     46  C   ASP P   5      18.721  -6.559 -13.096  1.00 49.66 LIG 0.22  C 
ATOM     47 O    ASP P   5      18.661  -6.772 -14.312  1.00 50.85 LIG-0.29  OA
ENDBRANCH 45 46
BRANCH 45 48
ATOM     48  CB  ASP P   5      17.801  -6.307 -10.738  1.00 49.44 LIG 0.15  C 
BRANCH 48 49
ATOM     49  CG  ASP P   5      17.104  -5.117 -10.063  1.00 49.12 LIG 0.17  C 
ATOM     50 OD1  ASP P   5      16.420  -5.326  -9.037  1.00 51.19 LIG-0.65  OA
ATOM     51 OD2  ASP P   5      17.240  -3.985 -10.558  1.00 49.06 LIG-0.65  OA
ENDBRANCH 48 49
ENDBRANCH 45 48
ENDBRANCH 42 45
ENDBRANCH 34 41
ENDBRANCH 32 34
ENDBRANCH 1 31
TORSDOF 20
ENDMDL
MODEL 25
USER: ADFR SOLUTION from run 153
USER: SCORE 16.553804 LL:  -3.349 LR: -13.945 RR:   0.000 FEB:  -7.979
USER: RMSD 10.719698
USER: SEED 152
USER: STATUS searching
USER: GENES 22
USER: genes 0 Translation |==|  0.41848 0.74884 0.48172
USER: genes 1 Rotation |==|  0.11394 0.64805 0.24962 0.62785
USER: genes 2 Torsion [CB]-CA--N-[C] |==|  0.86423
USER: genes 3 Torsion [N]-C--CA-[N] |==|  0.07181
USER: genes 4 Torsion [C]-CA--CB-[CG] |==|  0.43987
USER: genes 5 Torsion [CA]-CB--CG-[CD1] |==|  0.06414
USER: genes 6 Torsion [C]-CA--N-[C] |==|  0.66316
USER: genes 7 Torsion [N]-C--CA-[N] |==|  0.30636
USER: genes 8 Torsion [C]-CA--N-[H3] |==|  0.74522
USER: genes 9 Torsion [C]-CA--CB-[CG] |==|  0.81668
USER: genes 10 Torsion [CA]-CB--CG-[CD1] |==|  0.37645
USER: genes 11 Torsion [N]-CA--CB-[CG] |==|  0.88916
USER: genes 12 Torsion [CA]-CB--CG-[CD1] |==|  0.70656
USER: genes 13 Torsion [N]-CA--C-[N] |==|  0.32897
USER: genes 14 Torsion [C]-N--CA-[C] |==|  0.70058
USER: genes 15 Torsion [N]-CA--CB-[CG] |==|  0.05703
USER: genes 16 Torsion [CA]-CB--CG-[OD1] |==|  0.19267
USER: genes 17 Torsion [N]-CA--C-[N] |==|  0.94624
USER: genes 18 Torsion [C]-N--CA-[C] |==|  0.24554
USER: genes 19 Torsion [N]-CA--C-[O] |==|  0.98511
USER: genes 20 Torsion [N]-CA--CB-[CG] |==|  0.78321
USER: genes 21 Torsion [CA]-CB--CG-[OD1] |==|  0.23635
ROOT
ATOM      1  CA  PHE P   3      17.794  -7.395 -14.838  1.00 45.52 LIG 0.18  C 
ENDROOT
BRANCH 1 2
ATOM      2  N   PHE P   3      16.960  -8.548 -14.314  1.00 45.79 LIG-0.35  N 
ATOM      3 H    PHE P   3      16.158  -8.507 -14.620  1.00 45.79 LIG 0.16  HD
ATOM      4  C   LEU P   2      17.310  -9.543 -13.490  1.00 46.01 LIG 0.24  C 
ATOM      5 O    LEU P   2      18.462  -9.676 -13.100  1.00 46.46 LIG-0.27  OA
BRANCH 4 6
ATOM      6  CA  LEU P   2      16.199 -10.600 -13.069  1.00 45.94 LIG 0.18  C 
BRANCH 6 7
ATOM      7  CB  LEU P   2      16.776 -12.020 -12.820  1.00 45.93 LIG 0.04  C 
BRANCH 7 8
ATOM      8  CG  LEU P   2      16.027 -13.070 -11.949  1.00 45.11 LIG-0.02  C 
ATOM      9  CD1 LEU P   2      14.505 -12.825 -11.843  1.00 44.79 LIG 0.01  C 
ATOM     10  CD2 LEU P   2      16.285 -14.494 -12.437  1.00 44.35 LIG 0.01  C 
ENDBRANCH 7 8
ENDBRANCH 6 7
BRANCH 6 11
ATOM     11  N   LEU P   2      15.158 -10.659 -14.119  1.00 46.17 LIG-0.35  N 
ATOM     12 H    LEU P   2      15.468 -10.877 -14.890  1.00 46.17 LIG 0.16  HD
ATOM     13  C   LEU P   1      13.859 -10.401 -13.909  1.00 46.12 LIG 0.25  C 
ATOM     14 O    LEU P   1      13.388 -10.145 -12.790  1.00 46.29 LIG-0.27  OA
BRANCH 13 15
ATOM     15  CA  LEU P   1      12.943 -10.439 -15.161  1.00 45.93 LIG 0.28  C 
BRANCH 15 16
ATOM     16  N   LEU P   1      11.990 -11.595 -15.193  1.00 46.34 LIG-0.07  N 
ATOM     17 H3   LEU P   1      12.364 -12.277 -15.627  1.00 46.34 LIG 0.28  HD
ATOM     18 H2   LEU P   1      11.243 -11.351 -15.612  1.00 46.34 LIG 0.28  HD
ATOM     19 H1   LEU P   1      11.796 -11.843 -14.361  1.00 46.34 LIG 0.28  HD
ENDBRANCH 15 16
BRANCH 15 20
ATOM     20  CB  LEU P   1      12.173  -9.116 -15.304  1.00 45.65 LIG 0.05  C 
BRANCH 20 21
ATOM     21  CG  LEU P   1      11.159  -8.849 -14.187  1.00 44.28 LIG-0.02  C 
ATOM     22  CD1 LEU P   1      11.240  -7.416 -13.695  1.00 42.49 LIG 0.01  C 
ATOM     23  CD2 LEU P   1       9.748  -9.182 -14.638  1.00 44.08 LIG 0.01  C 
ENDBRANCH 20 21
ENDBRANCH 15 20
ENDBRANCH 13 15
ENDBRANCH 6 11
ENDBRANCH 4 6
ENDBRANCH 1 2
BRANCH 1 24
ATOM     24  CB  PHE P   3      18.638  -6.553 -13.842  1.00 45.09 LIG 0.07  C 
BRANCH 24 25
ATOM     25  CG  PHE P   3      17.954  -6.228 -12.447  1.00 44.37 LIG-0.06  A 
ATOM     26  CD1 PHE P   3      17.433  -4.961 -12.084  1.00 43.10 LIG 0.01  A 
ATOM     27  CE1 PHE P   3      16.871  -4.735 -10.750  1.00 41.01 LIG 0.00  A 
ATOM     28  CZ  PHE P   3      16.865  -5.772  -9.797  1.00 41.66 LIG 0.00  A 
ATOM     29  CE2 PHE P   3      17.390  -7.003 -10.154  1.00 43.89 LIG 0.00  A 
ATOM     30  CD2 PHE P   3      17.940  -7.218 -11.459  1.00 44.25 LIG 0.01  A 
ENDBRANCH 24 25
ENDBRANCH 1 24
BRANCH 1 31
ATOM     31  C   PHE P   3      18.544  -8.288 -15.849  1.00 45.74 LIG 0.26  C 
ATOM     32 N    ASN P   4      18.210  -7.750 -16.963  1.00 46.65 LIG-0.24  NA
ATOM     33 O    PHE P   3      19.174  -9.322 -15.645  1.00 45.60 LIG-0.27  OA
BRANCH 32 34
ATOM     34  CA  ASN P   4      18.219  -8.003 -18.374  1.00 47.05 LIG 0.21  C 
BRANCH 34 35
ATOM     35  CB  ASN P   4      16.788  -7.790 -18.691  1.00 46.83 LIG 0.14  C 
BRANCH 35 36
ATOM     36  CG  ASN P   4      16.163  -6.963 -17.602  1.00 47.32 LIG 0.22  C 
ATOM     37  ND2 ASN P   4      15.300  -7.602 -16.812  1.00 46.99 LIG-0.37  N 
ATOM     38 22HD ASN P   4      15.124  -8.432 -16.950  1.00 46.99 LIG 0.16  HD
ATOM     39 21HD ASN P   4      14.918  -7.183 -16.165  1.00 46.99 LIG 0.16  HD
ATOM     40 OD1  ASN P   4      16.437  -5.783 -17.437  1.00 48.95 LIG-0.27  OA
ENDBRANCH 35 36
ENDBRANCH 34 35
BRANCH 34 41
ATOM     41  C   ASN P   4      18.941  -7.544 -19.577  1.00 47.23 LIG 0.24  C 
ATOM     42  N   ASP P   5      19.426  -6.372 -19.076  1.00 48.41 LIG-0.35  N 
ATOM     43 H    ASP P   5      19.203  -6.191 -18.266  1.00 48.41 LIG 0.16  HD
ATOM     44 O    ASN P   4      19.065  -8.062 -20.676  1.00 47.17 LIG-0.27  OA
BRANCH 42 45
ATOM     45  CA  ASP P   5      20.258  -5.275 -19.540  1.00 49.16 LIG 0.17  C 
BRANCH 45 46
ATOM     46  C   ASP P   5      19.442  -4.179 -20.228  1.00 49.66 LIG 0.22  C 
ATOM     47 O    ASP P   5      18.231  -4.332 -20.425  1.00 50.85 LIG-0.29  OA
ENDBRANCH 45 46
BRANCH 45 48
ATOM     48  CB  ASP P   5      21.352  -5.831 -20.520  1.00 49.44 LIG 0.15  C 
BRANCH 48 49
ATOM     49  CG  ASP P   5      22.600  -6.547 -19.982  1.00 49.12 LIG 0.17  C 
ATOM     50 OD1  ASP P   5      22.529  -7.769 -19.730  1.00 51.19 LIG-0.65  OA
ATOM     51 OD2  ASP P   5      23.640  -5.887 -19.811  1.00 49.06 LIG-0.65  OA
ENDBRANCH 48 49
ENDBRANCH 45 48
ENDBRANCH 42 45
ENDBRANCH 34 41
ENDBRANCH 32 34
ENDBRANCH 1 31
TORSDOF 20
ENDMDL
MODEL 26
USER: ADFR SOLUTION from run 154
USER: SCORE 16.412382 LL:  -3.601 LR: -13.918 RR:   0.000 FEB:  -7.952
USER: RMSD 10.406138
USER: SEED 153
USER: STATUS no improvement in best 5 clusters for 5 generations
USER: GENES 22
USER: genes 0 Translation |==|  0.38529 0.64325 0.55886
USER: genes 1 Rotation |==|  0.37371 0.57093 0.02395 0.54893
USER: genes 2 Torsion [CB]-CA--N-[C] |==|  0.22690
USER: genes 3 Torsion [N]-C--CA-[N] |==|  0.38445
USER: genes 4 Torsion [C]-CA--CB-[CG] |==|  0.47327
USER: genes 5 Torsion [CA]-CB--CG-[CD1] |==|  0.36361
USER: genes 6 Torsion [C]-CA--N-[C] |==|  0.83587
USER: genes 7 Torsion [N]-C--CA-[N] |==|  0.29568
USER: genes 8 Torsion [C]-CA--N-[H3] |==|  0.50125
USER: genes 9 Torsion [C]-CA--CB-[CG] |==|  0.35618
USER: genes 10 Torsion [CA]-CB--CG-[CD1] |==|  0.85557
USER: genes 11 Torsion [N]-CA--CB-[CG] |==|  0.68069
USER: genes 12 Torsion [CA]-CB--CG-[CD1] |==|  0.02478
USER: genes 13 Torsion [N]-CA--C-[N] |==|  0.01123
USER: genes 14 Torsion [C]-N--CA-[C] |==|  0.81098
USER: genes 15 Torsion [N]-CA--CB-[CG] |==|  0.71324
USER: genes 16 Torsion [CA]-CB--CG-[OD1] |==|  0.63938
USER: genes 17 Torsion [N]-CA--C-[N] |==|  0.16962
USER: genes 18 Torsion [C]-N--CA-[C] |==|  0.43253
USER: genes 19 Torsion [N]-CA--C-[O] |==|  0.02430
USER: genes 20 Torsion [N]-CA--CB-[CG] |==|  0.61962
USER: genes 21 Torsion [CA]-CB--CG-[OD1] |==|  0.75500
ROOT
ATOM      1  CA  PHE P   3      16.799 -10.563 -12.524  1.00 45.52 LIG 0.18  C 
ENDROOT
BRANCH 1 2
ATOM      2  N   PHE P   3      15.570 -11.120 -13.216  1.00 45.79 LIG-0.35  N 
ATOM      3 H    PHE P   3      15.293 -11.831 -12.819  1.00 45.79 LIG 0.16  HD
ATOM      4  C   LEU P   2      14.921 -10.662 -14.293  1.00 46.01 LIG 0.24  C 
ATOM      5 O    LEU P   2      15.239  -9.611 -14.833  1.00 46.46 LIG-0.27  OA
BRANCH 4 6
ATOM      6  CA  LEU P   2      13.672 -11.488 -14.830  1.00 45.94 LIG 0.18  C 
BRANCH 6 7
ATOM      7  CB  LEU P   2      14.024 -12.403 -16.034  1.00 45.93 LIG 0.04  C 
BRANCH 7 8
ATOM      8  CG  LEU P   2      13.022 -13.462 -16.582  1.00 45.11 LIG-0.02  C 
ATOM      9  CD1 LEU P   2      12.834 -13.411 -18.115  1.00 44.79 LIG 0.01  C 
ATOM     10  CD2 LEU P   2      13.410 -14.877 -16.159  1.00 44.35 LIG 0.01  C 
ENDBRANCH 7 8
ENDBRANCH 6 7
BRANCH 6 11
ATOM     11  N   LEU P   2      12.593 -10.550 -15.212  1.00 46.17 LIG-0.35  N 
ATOM     12 H    LEU P   2      12.363 -10.618 -16.037  1.00 46.17 LIG 0.16  HD
ATOM     13  C   LEU P   1      12.021  -9.677 -14.371  1.00 46.12 LIG 0.25  C 
ATOM     14 O    LEU P   1      12.300  -9.610 -13.164  1.00 46.29 LIG-0.27  OA
BRANCH 13 15
ATOM     15  CA  LEU P   1      10.963  -8.725 -14.990  1.00 45.93 LIG 0.28  C 
BRANCH 15 16
ATOM     16  N   LEU P   1       9.548  -9.055 -14.625  1.00 46.34 LIG-0.07  N 
ATOM     17 H3   LEU P   1       8.997  -8.476 -15.018  1.00 46.34 LIG 0.28  HD
ATOM     18 H2   LEU P   1       9.450  -9.005 -13.742  1.00 46.34 LIG 0.28  HD
ATOM     19 H1   LEU P   1       9.355  -9.880 -14.899  1.00 46.34 LIG 0.28  HD
ENDBRANCH 15 16
BRANCH 15 20
ATOM     20  CB  LEU P   1      11.275  -7.264 -14.626  1.00 45.65 LIG 0.05  C 
BRANCH 20 21
ATOM     21  CG  LEU P   1      11.323  -6.308 -15.823  1.00 44.28 LIG-0.02  C 
ATOM     22  CD1 LEU P   1      12.248  -6.826 -16.908  1.00 42.49 LIG 0.01  C 
ATOM     23  CD2 LEU P   1       9.933  -6.056 -16.377  1.00 44.08 LIG 0.01  C 
ENDBRANCH 20 21
ENDBRANCH 15 20
ENDBRANCH 13 15
ENDBRANCH 6 11
ENDBRANCH 4 6
ENDBRANCH 1 2
BRANCH 1 24
ATOM     24  CB  PHE P   3      16.636  -9.390 -11.518  1.00 45.09 LIG 0.07  C 
BRANCH 24 25
ATOM     25  CG  PHE P   3      17.313  -8.015 -11.930  1.00 44.37 LIG-0.06  A 
ATOM     26  CD1 PHE P   3      17.879  -7.748 -13.202  1.00 43.10 LIG 0.01  A 
ATOM     27  CE1 PHE P   3      18.537  -6.468 -13.476  1.00 41.01 LIG 0.00  A 
ATOM     28  CZ  PHE P   3      18.640  -5.492 -12.466  1.00 41.66 LIG 0.00  A 
ATOM     29  CE2 PHE P   3      18.098  -5.766 -11.222  1.00 43.89 LIG 0.00  A 
ATOM     30  CD2 PHE P   3      17.457  -7.020 -10.958  1.00 44.25 LIG 0.01  A 
ENDBRANCH 24 25
ENDBRANCH 1 24
BRANCH 1 31
ATOM     31  C   PHE P   3      17.215 -11.941 -11.971  1.00 45.74 LIG 0.26  C 
ATOM     32 N    ASN P   4      16.334 -12.706 -12.500  1.00 46.65 LIG-0.24  NA
ATOM     33 O    PHE P   3      18.074 -12.209 -11.134  1.00 45.60 LIG-0.27  OA
BRANCH 32 34
ATOM     34  CA  ASN P   4      15.794 -14.030 -12.394  1.00 47.05 LIG 0.21  C 
BRANCH 34 35
ATOM     35  CB  ASN P   4      14.556 -13.876 -13.193  1.00 46.83 LIG 0.14  C 
BRANCH 35 36
ATOM     36  CG  ASN P   4      13.383 -13.765 -12.261  1.00 47.32 LIG 0.22  C 
ATOM     37  ND2 ASN P   4      13.497 -12.858 -11.290  1.00 46.99 LIG-0.37  N 
ATOM     38 22HD ASN P   4      14.216 -12.389 -11.221  1.00 46.99 LIG 0.16  HD
ATOM     39 21HD ASN P   4      12.853 -12.742 -10.732  1.00 46.99 LIG 0.16  HD
ATOM     40 OD1  ASN P   4      12.377 -14.448 -12.389  1.00 48.95 LIG-0.27  OA
ENDBRANCH 35 36
ENDBRANCH 34 35
BRANCH 34 41
ATOM     41  C   ASN P   4      16.222 -15.423 -12.632  1.00 47.23 LIG 0.24  C 
ATOM     42  N   ASP P   5      17.255 -15.462 -11.742  1.00 48.41 LIG-0.35  N 
ATOM     43 H    ASP P   5      17.405 -14.734 -11.311  1.00 48.41 LIG 0.16  HD
ATOM     44 O    ASN P   4      15.779 -16.272 -13.390  1.00 47.17 LIG-0.27  OA
BRANCH 42 45
ATOM     45  CA  ASP P   5      18.234 -16.434 -11.284  1.00 49.16 LIG 0.17  C 
BRANCH 45 46
ATOM     46  C   ASP P   5      19.490 -15.768 -10.719  1.00 49.66 LIG 0.22  C 
ATOM     47 O    ASP P   5      19.523 -14.545 -10.540  1.00 50.85 LIG-0.29  OA
ENDBRANCH 45 46
BRANCH 45 48
ATOM     48  CB  ASP P   5      18.613 -17.389 -12.471  1.00 49.44 LIG 0.15  C 
BRANCH 48 49
ATOM     49  CG  ASP P   5      18.744 -18.903 -12.253  1.00 49.12 LIG 0.17  C 
ATOM     50 OD1  ASP P   5      19.850 -19.364 -11.896  1.00 51.19 LIG-0.65  OA
ATOM     51 OD2  ASP P   5      17.747 -19.622 -12.441  1.00 49.06 LIG-0.65  OA
ENDBRANCH 48 49
ENDBRANCH 45 48
ENDBRANCH 42 45
ENDBRANCH 34 41
ENDBRANCH 32 34
ENDBRANCH 1 31
TORSDOF 20
ENDMDL
MODEL 27
USER: ADFR SOLUTION from run 35
USER: SCORE 18.310371 LL:  -6.406 LR: -13.924 RR:   0.000 FEB:  -7.958
USER: RMSD 9.973037
USER: SEED 34
USER: STATUS searching
USER: GENES 22
USER: genes 0 Translation |==|  0.39566 0.62659 0.53232
USER: genes 1 Rotation |==|  0.20755 0.68961 0.15911 0.61099
USER: genes 2 Torsion [CB]-CA--N-[C] |==|  0.99427
USER: genes 3 Torsion [N]-C--CA-[N] |==|  0.87160
USER: genes 4 Torsion [C]-CA--CB-[CG] |==|  0.51258
USER: genes 5 Torsion [CA]-CB--CG-[CD1] |==|  0.49358
USER: genes 6 Torsion [C]-CA--N-[C] |==|  0.87222
USER: genes 7 Torsion [N]-C--CA-[N] |==|  0.00342
USER: genes 8 Torsion [C]-CA--N-[H3] |==|  0.62491
USER: genes 9 Torsion [C]-CA--CB-[CG] |==|  0.23804
USER: genes 10 Torsion [CA]-CB--CG-[CD1] |==|  0.36733
USER: genes 11 Torsion [N]-CA--CB-[CG] |==|  0.69383
USER: genes 12 Torsion [CA]-CB--CG-[CD1] |==|  0.89418
USER: genes 13 Torsion [N]-CA--C-[N] |==|  0.89160
USER: genes 14 Torsion [C]-N--CA-[C] |==|  0.71086
USER: genes 15 Torsion [N]-CA--CB-[CG] |==|  0.67997
USER: genes 16 Torsion [CA]-CB--CG-[OD1] |==|  0.32754
USER: genes 17 Torsion [N]-CA--C-[N] |==|  0.02928
USER: genes 18 Torsion [C]-N--CA-[C] |==|  0.86534
USER: genes 19 Torsion [N]-CA--C-[O] |==|  0.87147
USER: genes 20 Torsion [N]-CA--CB-[CG] |==|  0.82868
USER: genes 21 Torsion [CA]-CB--CG-[OD1] |==|  0.75613
ROOT
ATOM      1  CA  PHE P   3      17.110 -11.062 -13.320  1.00 45.52 LIG 0.18  C 
ENDROOT
BRANCH 1 2
ATOM      2  N   PHE P   3      15.792 -11.812 -13.268  1.00 45.79 LIG-0.35  N 
ATOM      3 H    PHE P   3      15.538 -12.035 -14.058  1.00 45.79 LIG 0.16  HD
ATOM      4  C   LEU P   2      15.043 -12.138 -12.208  1.00 46.01 LIG 0.24  C 
ATOM      5 O    LEU P   2      15.416 -11.906 -11.065  1.00 46.46 LIG-0.27  OA
BRANCH 4 6
ATOM      6  CA  LEU P   2      13.668 -12.896 -12.460  1.00 45.94 LIG 0.18  C 
BRANCH 6 7
ATOM      7  CB  LEU P   2      13.858 -14.399 -12.799  1.00 45.93 LIG 0.04  C 
BRANCH 7 8
ATOM      8  CG  LEU P   2      12.658 -15.313 -13.184  1.00 45.11 LIG-0.02  C 
ATOM      9  CD1 LEU P   2      13.063 -16.761 -13.540  1.00 44.79 LIG 0.01  C 
ATOM     10  CD2 LEU P   2      11.589 -15.331 -12.094  1.00 44.35 LIG 0.01  C 
ENDBRANCH 7 8
ENDBRANCH 6 7
BRANCH 6 11
ATOM     11  N   LEU P   2      12.933 -12.224 -13.554  1.00 46.17 LIG-0.35  N 
ATOM     12 H    LEU P   2      12.613 -12.773 -14.133  1.00 46.17 LIG 0.16  HD
ATOM     13  C   LEU P   1      12.771 -10.896 -13.651  1.00 46.12 LIG 0.25  C 
ATOM     14 O    LEU P   1      13.174 -10.097 -12.791  1.00 46.29 LIG-0.27  OA
BRANCH 13 15
ATOM     15  CA  LEU P   1      12.037 -10.388 -14.920  1.00 45.93 LIG 0.28  C 
BRANCH 15 16
ATOM     16  N   LEU P   1      11.587 -11.474 -15.848  1.00 46.34 LIG-0.07  N 
ATOM     17 H3   LEU P   1      11.788 -11.251 -16.686  1.00 46.34 LIG 0.28  HD
ATOM     18 H2   LEU P   1      10.706 -11.583 -15.773  1.00 46.34 LIG 0.28  HD
ATOM     19 H1   LEU P   1      11.998 -12.234 -15.637  1.00 46.34 LIG 0.28  HD
ENDBRANCH 15 16
BRANCH 15 20
ATOM     20  CB  LEU P   1      10.844  -9.499 -14.531  1.00 45.65 LIG 0.05  C 
BRANCH 20 21
ATOM     21  CG  LEU P   1      11.201  -8.026 -14.298  1.00 44.28 LIG-0.02  C 
ATOM     22  CD1 LEU P   1      10.243  -7.102 -15.026  1.00 42.49 LIG 0.01  C 
ATOM     23  CD2 LEU P   1      11.237  -7.701 -12.816  1.00 44.08 LIG 0.01  C 
ENDBRANCH 20 21
ENDBRANCH 15 20
ENDBRANCH 13 15
ENDBRANCH 6 11
ENDBRANCH 4 6
ENDBRANCH 1 2
BRANCH 1 24
ATOM     24  CB  PHE P   3      17.729 -10.522 -12.002  1.00 45.09 LIG 0.07  C 
BRANCH 24 25
ATOM     25  CG  PHE P   3      17.727  -8.945 -11.822  1.00 44.37 LIG-0.06  A 
ATOM     26  CD1 PHE P   3      17.963  -8.018 -12.868  1.00 43.10 LIG 0.01  A 
ATOM     27  CE1 PHE P   3      18.000  -6.577 -12.598  1.00 41.01 LIG 0.00  A 
ATOM     28  CZ  PHE P   3      17.828  -6.096 -11.286  1.00 41.66 LIG 0.00  A 
ATOM     29  CE2 PHE P   3      17.614  -7.010 -10.268  1.00 43.89 LIG 0.00  A 
ATOM     30  CD2 PHE P   3      17.580  -8.417 -10.536  1.00 44.25 LIG 0.01  A 
ENDBRANCH 24 25
ENDBRANCH 1 24
BRANCH 1 31
ATOM     31  C   PHE P   3      17.834 -12.218 -14.042  1.00 45.74 LIG 0.26  C 
ATOM     32 N    ASN P   4      17.334 -13.240 -13.453  1.00 46.65 LIG-0.24  NA
ATOM     33 O    PHE P   3      18.749 -12.163 -14.860  1.00 45.60 LIG-0.27  OA
BRANCH 32 34
ATOM     34  CA  ASN P   4      17.546 -14.648 -13.285  1.00 47.05 LIG 0.21  C 
BRANCH 34 35
ATOM     35  CB  ASN P   4      17.483 -14.751 -11.808  1.00 46.83 LIG 0.14  C 
BRANCH 35 36
ATOM     36  CG  ASN P   4      18.826 -15.182 -11.290  1.00 47.32 LIG 0.22  C 
ATOM     37  ND2 ASN P   4      19.257 -16.370 -11.712  1.00 46.99 LIG-0.37  N 
ATOM     38 22HD ASN P   4      18.768 -16.843 -12.240  1.00 46.99 LIG 0.16  HD
ATOM     39 21HD ASN P   4      20.023 -16.665 -11.457  1.00 46.99 LIG 0.16  HD
ATOM     40 OD1  ASN P   4      19.493 -14.483 -10.540  1.00 48.95 LIG-0.27  OA
ENDBRANCH 35 36
ENDBRANCH 34 35
BRANCH 34 41
ATOM     41  C   ASN P   4      16.978 -15.920 -13.773  1.00 47.23 LIG 0.24  C 
ATOM     42  N   ASP P   5      16.186 -15.412 -14.760  1.00 48.41 LIG-0.35  N 
ATOM     43 H    ASP P   5      16.194 -14.556 -14.842  1.00 48.41 LIG 0.16  HD
ATOM     44 O    ASN P   4      17.168 -17.069 -13.405  1.00 47.17 LIG-0.27  OA
BRANCH 42 45
ATOM     45  CA  ASP P   5      15.279 -15.925 -15.773  1.00 49.16 LIG 0.17  C 
BRANCH 45 46
ATOM     46  C   ASP P   5      15.892 -17.079 -16.569  1.00 49.66 LIG 0.22  C 
ATOM     47 O    ASP P   5      17.046 -16.993 -17.005  1.00 50.85 LIG-0.29  OA
ENDBRANCH 45 46
BRANCH 45 48
ATOM     48  CB  ASP P   5      14.866 -14.758 -16.740  1.00 49.44 LIG 0.15  C 
BRANCH 48 49
ATOM     49  CG  ASP P   5      14.111 -13.529 -16.213  1.00 49.12 LIG 0.17  C 
ATOM     50 OD1  ASP P   5      12.862 -13.567 -16.166  1.00 51.19 LIG-0.65  OA
ATOM     51 OD2  ASP P   5      14.765 -12.535 -15.853  1.00 49.06 LIG-0.65  OA
ENDBRANCH 48 49
ENDBRANCH 45 48
ENDBRANCH 42 45
ENDBRANCH 34 41
ENDBRANCH 32 34
ENDBRANCH 1 31
TORSDOF 20
ENDMDL
MODEL 28
USER: ADFR SOLUTION from run 66
USER: SCORE 16.171206 LL:  -4.803 LR: -13.839 RR:   0.000 FEB:  -7.873
USER: RMSD 9.436298
USER: SEED 65
USER: STATUS no improvement in best 24 clusters for 5 generations
USER: GENES 22
USER: genes 0 Translation |==|  0.42224 0.74330 0.46296
USER: genes 1 Rotation |==|  0.21029 0.52284 0.10229 0.58587
USER: genes 2 Torsion [CB]-CA--N-[C] |==|  0.32435
USER: genes 3 Torsion [N]-C--CA-[N] |==|  0.00491
USER: genes 4 Torsion [C]-CA--CB-[CG] |==|  0.53835
USER: genes 5 Torsion [CA]-CB--CG-[CD1] |==|  0.21390
USER: genes 6 Torsion [C]-CA--N-[C] |==|  0.66112
USER: genes 7 Torsion [N]-C--CA-[N] |==|  0.34556
USER: genes 8 Torsion [C]-CA--N-[H3] |==|  0.43970
USER: genes 9 Torsion [C]-CA--CB-[CG] |==|  0.39461
USER: genes 10 Torsion [CA]-CB--CG-[CD1] |==|  0.69044
USER: genes 11 Torsion [N]-CA--CB-[CG] |==|  0.12517
USER: genes 12 Torsion [CA]-CB--CG-[CD1] |==|  0.01274
USER: genes 13 Torsion [N]-CA--C-[N] |==|  0.25598
USER: genes 14 Torsion [C]-N--CA-[C] |==|  0.60701
USER: genes 15 Torsion [N]-CA--CB-[CG] |==|  0.74231
USER: genes 16 Torsion [CA]-CB--CG-[OD1] |==|  0.02528
USER: genes 17 Torsion [N]-CA--C-[N] |==|  0.94614
USER: genes 18 Torsion [C]-N--CA-[C] |==|  0.84006
USER: genes 19 Torsion [N]-CA--C-[O] |==|  0.96897
USER: genes 20 Torsion [N]-CA--CB-[CG] |==|  0.11775
USER: genes 21 Torsion [CA]-CB--CG-[OD1] |==|  0.78980
ROOT
ATOM      1  CA  PHE P   3      17.907  -7.561 -15.401  1.00 45.52 LIG 0.18  C 
ENDROOT
BRANCH 1 2
ATOM      2  N   PHE P   3      16.793  -8.551 -15.119  1.00 45.79 LIG-0.35  N 
ATOM      3 H    PHE P   3      16.852  -8.854 -14.317  1.00 45.79 LIG 0.16  HD
ATOM      4  C   LEU P   2      15.807  -8.970 -15.921  1.00 46.01 LIG 0.24  C 
ATOM      5 O    LEU P   2      15.647  -8.499 -17.039  1.00 46.46 LIG-0.27  OA
BRANCH 4 6
ATOM      6  CA  LEU P   2      14.794 -10.062 -15.364  1.00 45.94 LIG 0.18  C 
BRANCH 6 7
ATOM      7  CB  LEU P   2      13.311  -9.610 -15.441  1.00 45.93 LIG 0.04  C 
BRANCH 7 8
ATOM      8  CG  LEU P   2      12.182 -10.362 -14.678  1.00 45.11 LIG-0.02  C 
ATOM      9  CD1 LEU P   2      12.134 -10.051 -13.165  1.00 44.79 LIG 0.01  C 
ATOM     10  CD2 LEU P   2      10.811 -10.101 -15.299  1.00 44.35 LIG 0.01  C 
ENDBRANCH 7 8
ENDBRANCH 6 7
BRANCH 6 11
ATOM     11  N   LEU P   2      15.147 -10.387 -13.964  1.00 46.17 LIG-0.35  N 
ATOM     12 H    LEU P   2      15.138  -9.701 -13.446  1.00 46.17 LIG 0.16  HD
ATOM     13  C   LEU P   1      15.453 -11.618 -13.528  1.00 46.12 LIG 0.25  C 
ATOM     14 O    LEU P   1      15.411 -12.625 -14.251  1.00 46.29 LIG-0.27  OA
BRANCH 13 15
ATOM     15  CA  LEU P   1      15.874 -11.731 -12.040  1.00 45.93 LIG 0.28  C 
BRANCH 15 16
ATOM     16  N   LEU P   1      15.059 -12.701 -11.240  1.00 46.34 LIG-0.07  N 
ATOM     17 H3   LEU P   1      15.519 -12.956 -10.522  1.00 46.34 LIG 0.28  HD
ATOM     18 H2   LEU P   1      14.872 -13.414 -11.740  1.00 46.34 LIG 0.28  HD
ATOM     19 H1   LEU P   1      14.301 -12.311 -10.984  1.00 46.34 LIG 0.28  HD
ENDBRANCH 15 16
BRANCH 15 20
ATOM     20  CB  LEU P   1      17.368 -12.080 -11.928  1.00 45.65 LIG 0.05  C 
BRANCH 20 21
ATOM     21  CG  LEU P   1      18.098 -11.381 -10.776  1.00 44.28 LIG-0.02  C 
ATOM     22  CD1 LEU P   1      19.095 -10.360 -11.290  1.00 42.49 LIG 0.01  C 
ATOM     23  CD2 LEU P   1      17.114 -10.735  -9.818  1.00 44.08 LIG 0.01  C 
ENDBRANCH 20 21
ENDBRANCH 15 20
ENDBRANCH 13 15
ENDBRANCH 6 11
ENDBRANCH 4 6
ENDBRANCH 1 2
BRANCH 1 24
ATOM     24  CB  PHE P   3      17.976  -6.242 -14.584  1.00 45.09 LIG 0.07  C 
BRANCH 24 25
ATOM     25  CG  PHE P   3      17.764  -6.377 -13.017  1.00 44.37 LIG-0.06  A 
ATOM     26  CD1 PHE P   3      17.615  -7.608 -12.331  1.00 43.10 LIG 0.01  A 
ATOM     27  CE1 PHE P   3      17.364  -7.636 -10.887  1.00 41.01 LIG 0.00  A 
ATOM     28  CZ  PHE P   3      17.240  -6.434 -10.165  1.00 41.66 LIG 0.00  A 
ATOM     29  CE2 PHE P   3      17.371  -5.235 -10.845  1.00 43.89 LIG 0.00  A 
ATOM     30  CD2 PHE P   3      17.615  -5.213 -12.256  1.00 44.25 LIG 0.01  A 
ENDBRANCH 24 25
ENDBRANCH 1 24
BRANCH 1 31
ATOM     31  C   PHE P   3      19.013  -8.614 -15.174  1.00 45.74 LIG 0.26  C 
ATOM     32 N    ASN P   4      19.189  -9.058 -16.363  1.00 46.65 LIG-0.24  NA
ATOM     33 O    PHE P   3      19.490  -9.014 -14.116  1.00 45.60 LIG-0.27  OA
BRANCH 32 34
ATOM     34  CA  ASN P   4      19.800 -10.146 -17.070  1.00 47.05 LIG 0.21  C 
BRANCH 34 35
ATOM     35  CB  ASN P   4      18.659 -11.088 -17.143  1.00 46.83 LIG 0.14  C 
BRANCH 35 36
ATOM     36  CG  ASN P   4      18.720 -12.023 -15.967  1.00 47.32 LIG 0.22  C 
ATOM     37  ND2 ASN P   4      17.880 -13.057 -16.004  1.00 46.99 LIG-0.37  N 
ATOM     38 22HD ASN P   4      17.341 -13.150 -16.668  1.00 46.99 LIG 0.16  HD
ATOM     39 21HD ASN P   4      17.877 -13.631 -15.364  1.00 46.99 LIG 0.16  HD
ATOM     40 OD1  ASN P   4      19.500 -11.859 -15.040  1.00 48.95 LIG-0.27  OA
ENDBRANCH 35 36
ENDBRANCH 34 35
BRANCH 34 41
ATOM     41  C   ASN P   4      20.552 -10.371 -18.320  1.00 47.23 LIG 0.24  C 
ATOM     42  N   ASP P   5      20.182  -9.234 -18.976  1.00 48.41 LIG-0.35  N 
ATOM     43 H    ASP P   5      19.640  -8.718 -18.553  1.00 48.41 LIG 0.16  HD
ATOM     44 O    ASN P   4      21.282 -11.292 -18.654  1.00 47.17 LIG-0.27  OA
BRANCH 42 45
ATOM     45  CA  ASP P   5      20.452  -8.604 -20.257  1.00 49.16 LIG 0.17  C 
BRANCH 45 46
ATOM     46  C   ASP P   5      21.945  -8.349 -20.474  1.00 49.66 LIG 0.22  C 
ATOM     47 O    ASP P   5      22.744  -8.478 -19.539  1.00 50.85 LIG-0.29  OA
ENDBRANCH 45 46
BRANCH 45 48
ATOM     48  CB  ASP P   5      19.653  -7.255 -20.351  1.00 49.44 LIG 0.15  C 
BRANCH 48 49
ATOM     49  CG  ASP P   5      19.575  -6.301 -19.151  1.00 49.12 LIG 0.17  C 
ATOM     50 OD1  ASP P   5      18.820  -6.595 -18.199  1.00 51.19 LIG-0.65  OA
ATOM     51 OD2  ASP P   5      20.262  -5.265 -19.165  1.00 49.06 LIG-0.65  OA
ENDBRANCH 48 49
ENDBRANCH 45 48
ENDBRANCH 42 45
ENDBRANCH 34 41
ENDBRANCH 32 34
ENDBRANCH 1 31
TORSDOF 20
ENDMDL
MODEL 29
USER: ADFR SOLUTION from run 53
USER: SCORE 15.796476 LL:  -3.990 LR: -13.813 RR:   0.000 FEB:  -7.847
USER: RMSD 9.402003
USER: SEED 52
USER: STATUS no improvement in best 7 clusters for 5 generations
USER: GENES 22
USER: genes 0 Translation |==|  0.37170 0.67254 0.50943
USER: genes 1 Rotation |==|  0.04265 0.67762 0.50873 0.59594
USER: genes 2 Torsion [CB]-CA--N-[C] |==|  0.87081
USER: genes 3 Torsion [N]-C--CA-[N] |==|  0.08884
USER: genes 4 Torsion [C]-CA--CB-[CG] |==|  0.38938
USER: genes 5 Torsion [CA]-CB--CG-[CD1] |==|  0.20813
USER: genes 6 Torsion [C]-CA--N-[C] |==|  0.79966
USER: genes 7 Torsion [N]-C--CA-[N] |==|  0.52995
USER: genes 8 Torsion [C]-CA--N-[H3] |==|  0.34311
USER: genes 9 Torsion [C]-CA--CB-[CG] |==|  0.37052
USER: genes 10 Torsion [CA]-CB--CG-[CD1] |==|  0.75895
USER: genes 11 Torsion [N]-CA--CB-[CG] |==|  0.73784
USER: genes 12 Torsion [CA]-CB--CG-[CD1] |==|  0.62182
USER: genes 13 Torsion [N]-CA--C-[N] |==|  0.30274
USER: genes 14 Torsion [C]-N--CA-[C] |==|  0.60556
USER: genes 15 Torsion [N]-CA--CB-[CG] |==|  0.22852
USER: genes 16 Torsion [CA]-CB--CG-[OD1] |==|  0.83123
USER: genes 17 Torsion [N]-CA--C-[N] |==|  0.95689
USER: genes 18 Torsion [C]-N--CA-[C] |==|  0.28114
USER: genes 19 Torsion [N]-CA--C-[O] |==|  0.08374
USER: genes 20 Torsion [N]-CA--CB-[CG] |==|  0.50885
USER: genes 21 Torsion [CA]-CB--CG-[OD1] |==|  0.24419
ROOT
ATOM      1  CA  PHE P   3      16.391  -9.684 -14.007  1.00 45.52 LIG 0.18  C 
ENDROOT
BRANCH 1 2
ATOM      2  N   PHE P   3      16.538 -11.049 -13.362  1.00 45.79 LIG-0.35  N 
ATOM      3 H    PHE P   3      15.871 -11.214 -12.845  1.00 45.79 LIG 0.16  HD
ATOM      4  C   LEU P   2      17.516 -11.952 -13.500  1.00 46.01 LIG 0.24  C 
ATOM      5 O    LEU P   2      18.436 -11.783 -14.289  1.00 46.46 LIG-0.27  OA
BRANCH 4 6
ATOM      6  CA  LEU P   2      17.427 -13.296 -12.654  1.00 45.94 LIG 0.18  C 
BRANCH 6 7
ATOM      7  CB  LEU P   2      18.192 -14.477 -13.310  1.00 45.93 LIG 0.04  C 
BRANCH 7 8
ATOM      8  CG  LEU P   2      19.024 -15.487 -12.467  1.00 45.11 LIG-0.02  C 
ATOM      9  CD1 LEU P   2      18.165 -16.503 -11.681  1.00 44.79 LIG 0.01  C 
ATOM     10  CD2 LEU P   2      20.045 -16.231 -13.324  1.00 44.35 LIG 0.01  C 
ENDBRANCH 7 8
ENDBRANCH 6 7
BRANCH 6 11
ATOM     11  N   LEU P   2      16.006 -13.661 -12.466  1.00 46.17 LIG-0.35  N 
ATOM     12 H    LEU P   2      15.768 -14.343 -12.933  1.00 46.17 LIG 0.16  HD
ATOM     13  C   LEU P   1      15.159 -13.010 -11.655  1.00 46.12 LIG 0.25  C 
ATOM     14 O    LEU P   1      15.504 -12.064 -10.930  1.00 46.29 LIG-0.27  OA
BRANCH 13 15
ATOM     15  CA  LEU P   1      13.689 -13.504 -11.663  1.00 45.93 LIG 0.28  C 
BRANCH 15 16
ATOM     16  N   LEU P   1      12.731 -12.601 -10.947  1.00 46.34 LIG-0.07  N 
ATOM     17 H3   LEU P   1      12.078 -12.360 -11.503  1.00 46.34 LIG 0.28  HD
ATOM     18 H2   LEU P   1      13.163 -11.876 -10.664  1.00 46.34 LIG 0.28  HD
ATOM     19 H1   LEU P   1      12.383 -13.030 -10.250  1.00 46.34 LIG 0.28  HD
ENDBRANCH 15 16
BRANCH 15 20
ATOM     20  CB  LEU P   1      13.210 -13.745 -13.104  1.00 45.65 LIG 0.05  C 
BRANCH 20 21
ATOM     21  CG  LEU P   1      12.476 -15.074 -13.315  1.00 44.28 LIG-0.02  C 
ATOM     22  CD1 LEU P   1      13.445 -16.201 -13.617  1.00 42.49 LIG 0.01  C 
ATOM     23  CD2 LEU P   1      11.611 -15.417 -12.115  1.00 44.08 LIG 0.01  C 
ENDBRANCH 20 21
ENDBRANCH 15 20
ENDBRANCH 13 15
ENDBRANCH 6 11
ENDBRANCH 4 6
ENDBRANCH 1 2
BRANCH 1 24
ATOM     24  CB  PHE P   3      17.608  -8.719 -14.027  1.00 45.09 LIG 0.07  C 
BRANCH 24 25
ATOM     25  CG  PHE P   3      17.685  -7.665 -12.843  1.00 44.37 LIG-0.06  A 
ATOM     26  CD1 PHE P   3      18.014  -6.297 -13.006  1.00 43.10 LIG 0.01  A 
ATOM     27  CE1 PHE P   3      18.120  -5.407 -11.846  1.00 41.01 LIG 0.00  A 
ATOM     28  CZ  PHE P   3      17.921  -5.910 -10.546  1.00 41.66 LIG 0.00  A 
ATOM     29  CE2 PHE P   3      17.616  -7.252 -10.393  1.00 43.89 LIG 0.00  A 
ATOM     30  CD2 PHE P   3      17.515  -8.118 -11.530  1.00 44.25 LIG 0.01  A 
ENDBRANCH 24 25
ENDBRANCH 1 24
BRANCH 1 31
ATOM     31  C   PHE P   3      15.914 -10.277 -15.349  1.00 45.74 LIG 0.26  C 
ATOM     32 N    ASN P   4      14.677  -9.943 -15.351  1.00 46.65 LIG-0.24  NA
ATOM     33 O    PHE P   3      16.524 -10.999 -16.134  1.00 45.60 LIG-0.27  OA
BRANCH 32 34
ATOM     34  CA  ASN P   4      13.442 -10.229 -16.021  1.00 47.05 LIG 0.21  C 
BRANCH 34 35
ATOM     35  CB  ASN P   4      12.912 -11.306 -15.153  1.00 46.83 LIG 0.14  C 
BRANCH 35 36
ATOM     36  CG  ASN P   4      12.238 -10.687 -13.962  1.00 47.32 LIG 0.22  C 
ATOM     37  ND2 ASN P   4      10.944 -10.973 -13.813  1.00 46.99 LIG-0.37  N 
ATOM     38 22HD ASN P   4      10.546 -11.475 -14.387  1.00 46.99 LIG 0.16  HD
ATOM     39 21HD ASN P   4      10.508 -10.656 -13.144  1.00 46.99 LIG 0.16  HD
ATOM     40 OD1  ASN P   4      12.836  -9.977 -13.166  1.00 48.95 LIG-0.27  OA
ENDBRANCH 35 36
ENDBRANCH 34 35
BRANCH 34 41
ATOM     41  C   ASN P   4      12.245  -9.506 -16.494  1.00 47.23 LIG 0.24  C 
ATOM     42  N   ASP P   5      12.425  -8.352 -15.789  1.00 48.41 LIG-0.35  N 
ATOM     43 H    ASP P   5      13.115  -8.331 -15.277  1.00 48.41 LIG 0.16  HD
ATOM     44 O    ASN P   4      11.371  -9.842 -17.278  1.00 47.17 LIG-0.27  OA
BRANCH 42 45
ATOM     45  CA  ASP P   5      11.751  -7.073 -15.643  1.00 49.16 LIG 0.17  C 
BRANCH 45 46
ATOM     46  C   ASP P   5      10.916  -7.001 -14.363  1.00 49.66 LIG 0.22  C 
ATOM     47 O    ASP P   5      11.255  -7.638 -13.359  1.00 50.85 LIG-0.29  OA
ENDBRANCH 45 46
BRANCH 45 48
ATOM     48  CB  ASP P   5      10.842  -6.819 -16.899  1.00 49.44 LIG 0.15  C 
BRANCH 48 49
ATOM     49  CG  ASP P   5      10.062  -5.506 -17.053  1.00 49.12 LIG 0.17  C 
ATOM     50 OD1  ASP P   5      10.624  -4.535 -17.606  1.00 51.19 LIG-0.65  OA
ATOM     51 OD2  ASP P   5       8.897  -5.448 -16.621  1.00 49.06 LIG-0.65  OA
ENDBRANCH 48 49
ENDBRANCH 45 48
ENDBRANCH 42 45
ENDBRANCH 34 41
ENDBRANCH 32 34
ENDBRANCH 1 31
TORSDOF 20
ENDMDL
MODEL 30
USER: ADFR SOLUTION from run 75
USER: SCORE 16.532504 LL:  -4.184 LR: -13.765 RR:   0.000 FEB:  -7.799
USER: RMSD 8.884266
USER: SEED 74
USER: STATUS no improvement in best 7 clusters for 5 generations
USER: GENES 22
USER: genes 0 Translation |==|  0.35678 0.58161 0.58758
USER: genes 1 Rotation |==|  0.80541 0.82624 0.29307 0.58643
USER: genes 2 Torsion [CB]-CA--N-[C] |==|  0.27196
USER: genes 3 Torsion [N]-C--CA-[N] |==|  0.06076
USER: genes 4 Torsion [C]-CA--CB-[CG] |==|  0.60665
USER: genes 5 Torsion [CA]-CB--CG-[CD1] |==|  0.48828
USER: genes 6 Torsion [C]-CA--N-[C] |==|  0.67971
USER: genes 7 Torsion [N]-C--CA-[N] |==|  0.91766
USER: genes 8 Torsion [C]-CA--N-[H3] |==|  0.69215
USER: genes 9 Torsion [C]-CA--CB-[CG] |==|  0.36598
USER: genes 10 Torsion [CA]-CB--CG-[CD1] |==|  0.04928
USER: genes 11 Torsion [N]-CA--CB-[CG] |==|  0.11838
USER: genes 12 Torsion [CA]-CB--CG-[CD1] |==|  0.56010
USER: genes 13 Torsion [N]-CA--C-[N] |==|  0.45796
USER: genes 14 Torsion [C]-N--CA-[C] |==|  0.67141
USER: genes 15 Torsion [N]-CA--CB-[CG] |==|  0.77935
USER: genes 16 Torsion [CA]-CB--CG-[OD1] |==|  0.23001
USER: genes 17 Torsion [N]-CA--C-[N] |==|  0.99538
USER: genes 18 Torsion [C]-N--CA-[C] |==|  0.02783
USER: genes 19 Torsion [N]-CA--C-[O] |==|  0.51306
USER: genes 20 Torsion [N]-CA--CB-[CG] |==|  0.90172
USER: genes 21 Torsion [CA]-CB--CG-[OD1] |==|  0.61172
ROOT
ATOM      1  CA  PHE P   3      15.943 -12.412 -11.663  1.00 45.52 LIG 0.18  C 
ENDROOT
BRANCH 1 2
ATOM      2  N   PHE P   3      16.644 -11.081 -11.860  1.00 45.79 LIG-0.35  N 
ATOM      3 H    PHE P   3      16.708 -10.892 -12.696  1.00 45.79 LIG 0.16  HD
ATOM      4  C   LEU P   2      17.133 -10.235 -10.945  1.00 46.01 LIG 0.24  C 
ATOM      5 O    LEU P   2      16.986 -10.434  -9.746  1.00 46.46 LIG-0.27  OA
BRANCH 4 6
ATOM      6  CA  LEU P   2      17.866  -8.918 -11.451  1.00 45.94 LIG 0.18  C 
BRANCH 6 7
ATOM      7  CB  LEU P   2      17.615  -7.693 -10.530  1.00 45.93 LIG 0.04  C 
BRANCH 7 8
ATOM      8  CG  LEU P   2      17.410  -6.261 -11.105  1.00 45.11 LIG-0.02  C 
ATOM      9  CD1 LEU P   2      17.073  -5.199 -10.034  1.00 44.79 LIG 0.01  C 
ATOM     10  CD2 LEU P   2      18.617  -5.802 -11.920  1.00 44.35 LIG 0.01  C 
ENDBRANCH 7 8
ENDBRANCH 6 7
BRANCH 6 11
ATOM     11  N   LEU P   2      17.421  -8.609 -12.828  1.00 46.17 LIG-0.35  N 
ATOM     12 H    LEU P   2      16.585  -8.413 -12.877  1.00 46.17 LIG 0.16  HD
ATOM     13  C   LEU P   1      18.223  -8.627 -13.902  1.00 46.12 LIG 0.25  C 
ATOM     14 O    LEU P   1      19.442  -8.848 -13.837  1.00 46.29 LIG-0.27  OA
BRANCH 13 15
ATOM     15  CA  LEU P   1      17.542  -8.353 -15.269  1.00 45.93 LIG 0.28  C 
BRANCH 15 16
ATOM     16  N   LEU P   1      16.109  -8.784 -15.341  1.00 46.34 LIG-0.07  N 
ATOM     17 H3   LEU P   1      16.035  -9.480 -15.892  1.00 46.34 LIG 0.28  HD
ATOM     18 H2   LEU P   1      15.611  -8.111 -15.645  1.00 46.34 LIG 0.28  HD
ATOM     19 H1   LEU P   1      15.828  -9.018 -14.530  1.00 46.34 LIG 0.28  HD
ENDBRANCH 15 16
BRANCH 15 20
ATOM     20  CB  LEU P   1      17.664  -6.866 -15.642  1.00 45.65 LIG 0.05  C 
BRANCH 20 21
ATOM     21  CG  LEU P   1      18.151  -6.610 -17.073  1.00 44.28 LIG-0.02  C 
ATOM     22  CD1 LEU P   1      17.995  -7.844 -17.941  1.00 42.49 LIG 0.01  C 
ATOM     23  CD2 LEU P   1      17.429  -5.425 -17.691  1.00 44.08 LIG 0.01  C 
ENDBRANCH 20 21
ENDBRANCH 15 20
ENDBRANCH 13 15
ENDBRANCH 6 11
ENDBRANCH 4 6
ENDBRANCH 1 2
BRANCH 1 24
ATOM     24  CB  PHE P   3      14.391 -12.465 -11.698  1.00 45.09 LIG 0.07  C 
BRANCH 24 25
ATOM     25  CG  PHE P   3      13.687 -11.611 -12.835  1.00 44.37 LIG-0.06  A 
ATOM     26  CD1 PHE P   3      12.341 -11.169 -12.790  1.00 43.10 LIG 0.01  A 
ATOM     27  CE1 PHE P   3      11.755 -10.433 -13.914  1.00 41.01 LIG 0.00  A 
ATOM     28  CZ  PHE P   3      12.518 -10.179 -15.070  1.00 41.66 LIG 0.00  A 
ATOM     29  CE2 PHE P   3      13.827 -10.627 -15.113  1.00 43.89 LIG 0.00  A 
ATOM     30  CD2 PHE P   3      14.395 -11.347 -14.012  1.00 44.25 LIG 0.01  A 
ENDBRANCH 24 25
ENDBRANCH 1 24
BRANCH 1 31
ATOM     31  C   PHE P   3      16.719 -13.085 -12.814  1.00 45.74 LIG 0.26  C 
ATOM     32 N    ASN P   4      16.488 -14.325 -12.587  1.00 46.65 LIG-0.24  NA
ATOM     33 O    PHE P   3      17.472 -12.574 -13.639  1.00 45.60 LIG-0.27  OA
BRANCH 32 34
ATOM     34  CA  ASN P   4      16.946 -15.633 -12.954  1.00 47.05 LIG 0.21  C 
BRANCH 34 35
ATOM     35  CB  ASN P   4      17.470 -16.106 -11.652  1.00 46.83 LIG 0.14  C 
BRANCH 35 36
ATOM     36  CG  ASN P   4      18.830 -15.508 -11.425  1.00 47.32 LIG 0.22  C 
ATOM     37  ND2 ASN P   4      19.865 -16.278 -11.763  1.00 46.99 LIG-0.37  N 
ATOM     38 22HD ASN P   4      19.730 -17.067 -12.078  1.00 46.99 LIG 0.16  HD
ATOM     39 21HD ASN P   4      20.668 -15.985 -11.665  1.00 46.99 LIG 0.16  HD
ATOM     40 OD1  ASN P   4      18.983 -14.382 -10.974  1.00 48.95 LIG-0.27  OA
ENDBRANCH 35 36
ENDBRANCH 34 35
BRANCH 34 41
ATOM     41  C   ASN P   4      16.420 -16.847 -13.610  1.00 47.23 LIG 0.24  C 
ATOM     42  N   ASP P   5      15.143 -16.417 -13.818  1.00 48.41 LIG-0.35  N 
ATOM     43 H    ASP P   5      14.963 -15.627 -13.531  1.00 48.41 LIG 0.16  HD
ATOM     44 O    ASN P   4      16.969 -17.904 -13.882  1.00 47.17 LIG-0.27  OA
BRANCH 42 45
ATOM     45  CA  ASP P   5      13.926 -16.936 -14.418  1.00 49.16 LIG 0.17  C 
BRANCH 45 46
ATOM     46  C   ASP P   5      14.033 -18.425 -14.751  1.00 49.66 LIG 0.22  C 
ATOM     47 O    ASP P   5      13.114 -19.000 -15.346  1.00 50.85 LIG-0.29  OA
ENDBRANCH 45 46
BRANCH 45 48
ATOM     48  CB  ASP P   5      13.594 -16.113 -15.714  1.00 49.44 LIG 0.15  C 
BRANCH 48 49
ATOM     49  CG  ASP P   5      13.889 -14.608 -15.788  1.00 49.12 LIG 0.17  C 
ATOM     50 OD1  ASP P   5      13.055 -13.860 -16.344  1.00 51.19 LIG-0.65  OA
ATOM     51 OD2  ASP P   5      14.948 -14.181 -15.295  1.00 49.06 LIG-0.65  OA
ENDBRANCH 48 49
ENDBRANCH 45 48
ENDBRANCH 42 45
ENDBRANCH 34 41
ENDBRANCH 32 34
ENDBRANCH 1 31
TORSDOF 20
ENDMDL
MODEL 31
USER: ADFR SOLUTION from run 148
USER: SCORE 16.549583 LL:  -4.292 LR: -13.749 RR:   0.000 FEB:  -7.783
USER: RMSD 9.673088
USER: SEED 147
USER: STATUS no improvement in best 11 clusters for 5 generations
USER: GENES 22
USER: genes 0 Translation |==|  0.41610 0.75080 0.47457
USER: genes 1 Rotation |==|  0.16694 0.73352 0.26789 0.67510
USER: genes 2 Torsion [CB]-CA--N-[C] |==|  0.50375
USER: genes 3 Torsion [N]-C--CA-[N] |==|  0.04119
USER: genes 4 Torsion [C]-CA--CB-[CG] |==|  0.70555
USER: genes 5 Torsion [CA]-CB--CG-[CD1] |==|  0.38605
USER: genes 6 Torsion [C]-CA--N-[C] |==|  0.64444
USER: genes 7 Torsion [N]-C--CA-[N] |==|  0.33734
USER: genes 8 Torsion [C]-CA--N-[H3] |==|  0.00971
USER: genes 9 Torsion [C]-CA--CB-[CG] |==|  0.26138
USER: genes 10 Torsion [CA]-CB--CG-[CD1] |==|  0.41136
USER: genes 11 Torsion [N]-CA--CB-[CG] |==|  0.80531
USER: genes 12 Torsion [CA]-CB--CG-[CD1] |==|  0.79823
USER: genes 13 Torsion [N]-CA--C-[N] |==|  0.79808
USER: genes 14 Torsion [C]-N--CA-[C] |==|  0.84834
USER: genes 15 Torsion [N]-CA--CB-[CG] |==|  0.25332
USER: genes 16 Torsion [CA]-CB--CG-[OD1] |==|  0.35523
USER: genes 17 Torsion [N]-CA--C-[N] |==|  0.39427
USER: genes 18 Torsion [C]-N--CA-[C] |==|  0.75785
USER: genes 19 Torsion [N]-CA--C-[O] |==|  0.94942
USER: genes 20 Torsion [N]-CA--CB-[CG] |==|  0.81549
USER: genes 21 Torsion [CA]-CB--CG-[OD1] |==|  0.53254
ROOT
ATOM      1  CA  PHE P   3      17.723  -7.336 -15.053  1.00 45.52 LIG 0.18  C 
ENDROOT
BRANCH 1 2
ATOM      2  N   PHE P   3      16.641  -8.397 -14.993  1.00 45.79 LIG-0.35  N 
ATOM      3 H    PHE P   3      16.646  -8.794 -14.230  1.00 45.79 LIG 0.16  HD
ATOM      4  C   LEU P   2      15.749  -8.754 -15.925  1.00 46.01 LIG 0.24  C 
ATOM      5 O    LEU P   2      15.662  -8.156 -16.989  1.00 46.46 LIG-0.27  OA
BRANCH 4 6
ATOM      6  CA  LEU P   2      14.750  -9.946 -15.596  1.00 45.94 LIG 0.18  C 
BRANCH 6 7
ATOM      7  CB  LEU P   2      13.295  -9.662 -16.056  1.00 45.93 LIG 0.04  C 
BRANCH 7 8
ATOM      8  CG  LEU P   2      12.166  -9.313 -15.043  1.00 45.11 LIG-0.02  C 
ATOM      9  CD1 LEU P   2      11.218  -8.191 -15.524  1.00 44.79 LIG 0.01  C 
ATOM     10  CD2 LEU P   2      11.349 -10.545 -14.660  1.00 44.35 LIG 0.01  C 
ENDBRANCH 7 8
ENDBRANCH 6 7
BRANCH 6 11
ATOM     11  N   LEU P   2      14.773 -10.216 -14.141  1.00 46.17 LIG-0.35  N 
ATOM     12 H    LEU P   2      14.643  -9.511 -13.665  1.00 46.17 LIG 0.16  HD
ATOM     13  C   LEU P   1      14.974 -11.426 -13.600  1.00 46.12 LIG 0.25  C 
ATOM     14 O    LEU P   1      15.102 -12.460 -14.275  1.00 46.29 LIG-0.27  OA
BRANCH 13 15
ATOM     15  CA  LEU P   1      15.042 -11.480 -12.051  1.00 45.93 LIG 0.28  C 
BRANCH 15 16
ATOM     16  N   LEU P   1      14.021 -12.377 -11.421  1.00 46.34 LIG-0.07  N 
ATOM     17 H3   LEU P   1      13.553 -12.789 -12.057  1.00 46.34 LIG 0.28  HD
ATOM     18 H2   LEU P   1      13.471 -11.892 -10.915  1.00 46.34 LIG 0.28  HD
ATOM     19 H1   LEU P   1      14.431 -12.984 -10.915  1.00 46.34 LIG 0.28  HD
ENDBRANCH 15 16
BRANCH 15 20
ATOM     20  CB  LEU P   1      16.452 -11.880 -11.589  1.00 45.65 LIG 0.05  C 
BRANCH 20 21
ATOM     21  CG  LEU P   1      17.375 -10.697 -11.272  1.00 44.28 LIG-0.02  C 
ATOM     22  CD1 LEU P   1      18.354 -11.039 -10.165  1.00 42.49 LIG 0.01  C 
ATOM     23  CD2 LEU P   1      18.111 -10.231 -12.515  1.00 44.08 LIG 0.01  C 
ENDBRANCH 20 21
ENDBRANCH 15 20
ENDBRANCH 13 15
ENDBRANCH 6 11
ENDBRANCH 4 6
ENDBRANCH 1 2
BRANCH 1 24
ATOM     24  CB  PHE P   3      18.660  -7.137 -13.830  1.00 45.09 LIG 0.07  C 
BRANCH 24 25
ATOM     25  CG  PHE P   3      17.995  -6.502 -12.536  1.00 44.37 LIG-0.06  A 
ATOM     26  CD1 PHE P   3      17.615  -5.142 -12.414  1.00 43.10 LIG 0.01  A 
ATOM     27  CE1 PHE P   3      17.061  -4.628 -11.158  1.00 41.01 LIG 0.00  A 
ATOM     28  CZ  PHE P   3      16.924  -5.477 -10.043  1.00 41.66 LIG 0.00  A 
ATOM     29  CE2 PHE P   3      17.312  -6.800 -10.165  1.00 43.89 LIG 0.00  A 
ATOM     30  CD2 PHE P   3      17.855  -7.297 -11.394  1.00 44.25 LIG 0.01  A 
ENDBRANCH 24 25
ENDBRANCH 1 24
BRANCH 1 31
ATOM     31  C   PHE P   3      18.333  -7.914 -16.348  1.00 45.74 LIG 0.26  C 
ATOM     32 N    ASN P   4      18.897  -8.978 -15.911  1.00 46.65 LIG-0.24  NA
ATOM     33 O    PHE P   3      18.384  -7.411 -17.467  1.00 45.60 LIG-0.27  OA
BRANCH 32 34
ATOM     34  CA  ASN P   4      19.850  -9.977 -16.298  1.00 47.05 LIG 0.21  C 
BRANCH 34 35
ATOM     35  CB  ASN P   4      19.868 -10.814 -15.076  1.00 46.83 LIG 0.14  C 
BRANCH 35 36
ATOM     36  CG  ASN P   4      18.844 -11.905 -15.214  1.00 47.32 LIG 0.22  C 
ATOM     37  ND2 ASN P   4      17.617 -11.509 -15.556  1.00 46.99 LIG-0.37  N 
ATOM     38 22HD ASN P   4      17.452 -10.672 -15.672  1.00 46.99 LIG 0.16  HD
ATOM     39 21HD ASN P   4      16.992 -12.089 -15.660  1.00 46.99 LIG 0.16  HD
ATOM     40 OD1  ASN P   4      19.115 -13.084 -15.040  1.00 48.95 LIG-0.27  OA
ENDBRANCH 35 36
ENDBRANCH 34 35
BRANCH 34 41
ATOM     41  C   ASN P   4      20.069 -10.928 -17.406  1.00 47.23 LIG 0.24  C 
ATOM     42  N   ASP P   5      21.426 -10.820 -17.489  1.00 48.41 LIG-0.35  N 
ATOM     43 H    ASP P   5      21.791 -10.266 -16.942  1.00 48.41 LIG 0.16  HD
ATOM     44 O    ASN P   4      19.274 -11.603 -18.043  1.00 47.17 LIG-0.27  OA
BRANCH 42 45
ATOM     45  CA  ASP P   5      22.497 -11.401 -18.280  1.00 49.16 LIG 0.17  C 
BRANCH 45 46
ATOM     46  C   ASP P   5      23.019 -12.707 -17.677  1.00 49.66 LIG 0.22  C 
ATOM     47 O    ASP P   5      22.791 -12.985 -16.494  1.00 50.85 LIG-0.29  OA
ENDBRANCH 45 46
BRANCH 45 48
ATOM     48  CB  ASP P   5      23.666 -10.361 -18.415  1.00 49.44 LIG 0.15  C 
BRANCH 48 49
ATOM     49  CG  ASP P   5      23.472  -9.057 -19.201  1.00 49.12 LIG 0.17  C 
ATOM     50 OD1  ASP P   5      24.478  -8.365 -19.474  1.00 51.19 LIG-0.65  OA
ATOM     51 OD2  ASP P   5      22.322  -8.728 -19.540  1.00 49.06 LIG-0.65  OA
ENDBRANCH 48 49
ENDBRANCH 45 48
ENDBRANCH 42 45
ENDBRANCH 34 41
ENDBRANCH 32 34
ENDBRANCH 1 31
TORSDOF 20
ENDMDL
MODEL 32
USER: ADFR SOLUTION from run 66
USER: SCORE 16.513617 LL:  -3.524 LR: -13.701 RR:   0.000 FEB:  -7.735
USER: RMSD 10.207370
USER: SEED 65
USER: STATUS no improvement in best 24 clusters for 5 generations
USER: GENES 22
USER: genes 0 Translation |==|  0.41189 0.72542 0.47562
USER: genes 1 Rotation |==|  0.17425 0.49574 0.12242 0.53605
USER: genes 2 Torsion [CB]-CA--N-[C] |==|  0.76179
USER: genes 3 Torsion [N]-C--CA-[N] |==|  0.05299
USER: genes 4 Torsion [C]-CA--CB-[CG] |==|  0.57959
USER: genes 5 Torsion [CA]-CB--CG-[CD1] |==|  0.85287
USER: genes 6 Torsion [C]-CA--N-[C] |==|  0.63486
USER: genes 7 Torsion [N]-C--CA-[N] |==|  0.19771
USER: genes 8 Torsion [C]-CA--N-[H3] |==|  0.69491
USER: genes 9 Torsion [C]-CA--CB-[CG] |==|  0.22798
USER: genes 10 Torsion [CA]-CB--CG-[CD1] |==|  0.74197
USER: genes 11 Torsion [N]-CA--CB-[CG] |==|  0.10982
USER: genes 12 Torsion [CA]-CB--CG-[CD1] |==|  0.07410
USER: genes 13 Torsion [N]-CA--C-[N] |==|  0.16184
USER: genes 14 Torsion [C]-N--CA-[C] |==|  0.85973
USER: genes 15 Torsion [N]-CA--CB-[CG] |==|  0.00945
USER: genes 16 Torsion [CA]-CB--CG-[OD1] |==|  0.69871
USER: genes 17 Torsion [N]-CA--C-[N] |==|  0.88595
USER: genes 18 Torsion [C]-N--CA-[C] |==|  0.91343
USER: genes 19 Torsion [N]-CA--C-[O] |==|  0.27781
USER: genes 20 Torsion [N]-CA--CB-[CG] |==|  0.81860
USER: genes 21 Torsion [CA]-CB--CG-[OD1] |==|  0.08811
ROOT
ATOM      1  CA  PHE P   3      17.597  -8.098 -15.022  1.00 45.52 LIG 0.18  C 
ENDROOT
BRANCH 1 2
ATOM      2  N   PHE P   3      16.486  -8.897 -14.367  1.00 45.79 LIG-0.35  N 
ATOM      3 H    PHE P   3      15.756  -8.826 -14.815  1.00 45.79 LIG 0.16  HD
ATOM      4  C   LEU P   2      16.518  -9.642 -13.256  1.00 46.01 LIG 0.24  C 
ATOM      5 O    LEU P   2      17.559  -9.829 -12.640  1.00 46.46 LIG-0.27  OA
BRANCH 4 6
ATOM      6  CA  LEU P   2      15.172 -10.340 -12.776  1.00 45.94 LIG 0.18  C 
BRANCH 6 7
ATOM      7  CB  LEU P   2      15.399 -11.765 -12.203  1.00 45.93 LIG 0.04  C 
BRANCH 7 8
ATOM      8  CG  LEU P   2      14.301 -12.866 -12.280  1.00 45.11 LIG-0.02  C 
ATOM      9  CD1 LEU P   2      12.933 -12.427 -11.710  1.00 44.79 LIG 0.01  C 
ATOM     10  CD2 LEU P   2      14.121 -13.385 -13.705  1.00 44.35 LIG 0.01  C 
ENDBRANCH 7 8
ENDBRANCH 6 7
BRANCH 6 11
ATOM     11  N   LEU P   2      14.222 -10.400 -13.909  1.00 46.17 LIG-0.35  N 
ATOM     12 H    LEU P   2      14.576 -10.707 -14.630  1.00 46.17 LIG 0.16  HD
ATOM     13  C   LEU P   1      12.938 -10.021 -13.839  1.00 46.12 LIG 0.25  C 
ATOM     14 O    LEU P   1      12.399  -9.635 -12.790  1.00 46.29 LIG-0.27  OA
BRANCH 13 15
ATOM     15  CA  LEU P   1      12.132 -10.087 -15.163  1.00 45.93 LIG 0.28  C 
BRANCH 15 16
ATOM     16  N   LEU P   1      11.825 -11.478 -15.629  1.00 46.34 LIG-0.07  N 
ATOM     17 H3   LEU P   1      12.303 -11.659 -16.358  1.00 46.34 LIG 0.28  HD
ATOM     18 H2   LEU P   1      10.958 -11.542 -15.819  1.00 46.34 LIG 0.28  HD
ATOM     19 H1   LEU P   1      12.032 -12.058 -14.987  1.00 46.34 LIG 0.28  HD
ENDBRANCH 15 16
BRANCH 15 20
ATOM     20  CB  LEU P   1      10.834  -9.272 -15.043  1.00 45.65 LIG 0.05  C 
BRANCH 20 21
ATOM     21  CG  LEU P   1      11.006  -7.767 -15.273  1.00 44.28 LIG-0.02  C 
ATOM     22  CD1 LEU P   1      11.240  -7.030 -13.967  1.00 42.49 LIG 0.01  C 
ATOM     23  CD2 LEU P   1      12.131  -7.489 -16.254  1.00 44.08 LIG 0.01  C 
ENDBRANCH 20 21
ENDBRANCH 15 20
ENDBRANCH 13 15
ENDBRANCH 6 11
ENDBRANCH 4 6
ENDBRANCH 1 2
BRANCH 1 24
ATOM     24  CB  PHE P   3      17.870  -6.645 -14.542  1.00 45.09 LIG 0.07  C 
BRANCH 24 25
ATOM     25  CG  PHE P   3      17.767  -6.394 -12.979  1.00 44.37 LIG-0.06  A 
ATOM     26  CD1 PHE P   3      17.988  -7.385 -11.990  1.00 43.10 LIG 0.01  A 
ATOM     27  CE1 PHE P   3      17.813  -7.077 -10.567  1.00 41.01 LIG 0.00  A 
ATOM     28  CZ  PHE P   3      17.397  -5.793 -10.165  1.00 41.66 LIG 0.00  A 
ATOM     29  CE2 PHE P   3      17.169  -4.835 -11.138  1.00 43.89 LIG 0.00  A 
ATOM     30  CD2 PHE P   3      17.339  -5.141 -12.527  1.00 44.25 LIG 0.01  A 
ENDBRANCH 24 25
ENDBRANCH 1 24
BRANCH 1 31
ATOM     31  C   PHE P   3      18.662  -9.173 -14.721  1.00 45.74 LIG 0.26  C 
ATOM     32 N    ASN P   4      18.166 -10.195 -15.315  1.00 46.65 LIG-0.24  NA
ATOM     33 O    PHE P   3      19.646  -9.101 -13.990  1.00 45.60 LIG-0.27  OA
BRANCH 32 34
ATOM     34  CA  ASN P   4      18.306 -11.620 -15.391  1.00 47.05 LIG 0.21  C 
BRANCH 34 35
ATOM     35  CB  ASN P   4      17.306 -11.929 -16.438  1.00 46.83 LIG 0.14  C 
BRANCH 35 36
ATOM     36  CG  ASN P   4      16.719 -10.644 -16.949  1.00 47.32 LIG 0.22  C 
ATOM     37  ND2 ASN P   4      17.521  -9.904 -17.715  1.00 46.99 LIG-0.37  N 
ATOM     38 22HD ASN P   4      18.323 -10.168 -17.879  1.00 46.99 LIG 0.16  HD
ATOM     39 21HD ASN P   4      17.236  -9.163 -18.045  1.00 46.99 LIG 0.16  HD
ATOM     40 OD1  ASN P   4      15.573 -10.300 -16.695  1.00 48.95 LIG-0.27  OA
ENDBRANCH 35 36
ENDBRANCH 34 35
BRANCH 34 41
ATOM     41  C   ASN P   4      19.376 -12.619 -15.589  1.00 47.23 LIG 0.24  C 
ATOM     42  N   ASP P   5      20.072 -11.966 -16.563  1.00 48.41 LIG-0.35  N 
ATOM     43 H    ASP P   5      19.745 -11.213 -16.816  1.00 48.41 LIG 0.16  HD
ATOM     44 O    ASN P   4      19.572 -13.692 -15.040  1.00 47.17 LIG-0.27  OA
BRANCH 42 45
ATOM     45  CA  ASP P   5      21.276 -12.187 -17.345  1.00 49.16 LIG 0.17  C 
BRANCH 45 46
ATOM     46  C   ASP P   5      22.329 -12.986 -16.575  1.00 49.66 LIG 0.22  C 
ATOM     47 O    ASP P   5      22.468 -14.198 -16.778  1.00 50.85 LIG-0.29  OA
ENDBRANCH 45 46
BRANCH 45 48
ATOM     48  CB  ASP P   5      21.866 -10.802 -17.792  1.00 49.44 LIG 0.15  C 
BRANCH 48 49
ATOM     49  CG  ASP P   5      21.094  -9.892 -18.758  1.00 49.12 LIG 0.17  C 
ATOM     50 OD1  ASP P   5      19.844  -9.909 -18.728  1.00 51.19 LIG-0.65  OA
ATOM     51 OD2  ASP P   5      21.735  -9.169 -19.540  1.00 49.06 LIG-0.65  OA
ENDBRANCH 48 49
ENDBRANCH 45 48
ENDBRANCH 42 45
ENDBRANCH 34 41
ENDBRANCH 32 34
ENDBRANCH 1 31
TORSDOF 20
ENDMDL
MODEL 33
USER: ADFR SOLUTION from run 46
USER: SCORE 16.993194 LL:  -4.466 LR: -13.700 RR:   0.000 FEB:  -7.734
USER: RMSD 9.805258
USER: SEED 45
USER: STATUS no improvement in best 8 clusters for 5 generations
USER: GENES 22
USER: genes 0 Translation |==|  0.42245 0.64019 0.58450
USER: genes 1 Rotation |==|  0.41733 0.43935 0.96006 0.66682
USER: genes 2 Torsion [CB]-CA--N-[C] |==|  0.80283
USER: genes 3 Torsion [N]-C--CA-[N] |==|  0.44319
USER: genes 4 Torsion [C]-CA--CB-[CG] |==|  0.27559
USER: genes 5 Torsion [CA]-CB--CG-[CD1] |==|  0.48468
USER: genes 6 Torsion [C]-CA--N-[C] |==|  0.71675
USER: genes 7 Torsion [N]-C--CA-[N] |==|  0.50123
USER: genes 8 Torsion [C]-CA--N-[H3] |==|  0.72562
USER: genes 9 Torsion [C]-CA--CB-[CG] |==|  0.33739
USER: genes 10 Torsion [CA]-CB--CG-[CD1] |==|  0.60287
USER: genes 11 Torsion [N]-CA--CB-[CG] |==|  0.01854
USER: genes 12 Torsion [CA]-CB--CG-[CD1] |==|  0.87569
USER: genes 13 Torsion [N]-CA--C-[N] |==|  0.19580
USER: genes 14 Torsion [C]-N--CA-[C] |==|  0.59169
USER: genes 15 Torsion [N]-CA--CB-[CG] |==|  0.71676
USER: genes 16 Torsion [CA]-CB--CG-[OD1] |==|  0.15303
USER: genes 17 Torsion [N]-CA--C-[N] |==|  0.09749
USER: genes 18 Torsion [C]-N--CA-[C] |==|  0.42622
USER: genes 19 Torsion [N]-CA--C-[O] |==|  0.01681
USER: genes 20 Torsion [N]-CA--CB-[CG] |==|  0.58922
USER: genes 21 Torsion [CA]-CB--CG-[OD1] |==|  0.25875
ROOT
ATOM      1  CA  PHE P   3      17.914 -10.654 -11.755  1.00 45.52 LIG 0.18  C 
ENDROOT
BRANCH 1 2
ATOM      2  N   PHE P   3      17.346 -10.410 -13.140  1.00 45.79 LIG-0.35  N 
ATOM      3 H    PHE P   3      17.906 -10.655 -13.746  1.00 45.79 LIG 0.16  HD
ATOM      4  C   LEU P   2      16.163  -9.895 -13.494  1.00 46.01 LIG 0.24  C 
ATOM      5 O    LEU P   2      15.313  -9.612 -12.661  1.00 46.46 LIG-0.27  OA
BRANCH 4 6
ATOM      6  CA  LEU P   2      15.852  -9.712 -15.043  1.00 45.94 LIG 0.18  C 
BRANCH 6 7
ATOM      7  CB  LEU P   2      16.550  -8.470 -15.659  1.00 45.93 LIG 0.04  C 
BRANCH 7 8
ATOM      8  CG  LEU P   2      17.875  -8.587 -16.468  1.00 45.11 LIG-0.02  C 
ATOM      9  CD1 LEU P   2      18.336  -7.259 -17.110  1.00 44.79 LIG 0.01  C 
ATOM     10  CD2 LEU P   2      19.004  -9.167 -15.621  1.00 44.35 LIG 0.01  C 
ENDBRANCH 7 8
ENDBRANCH 6 7
BRANCH 6 11
ATOM     11  N   LEU P   2      14.389  -9.614 -15.239  1.00 46.17 LIG-0.35  N 
ATOM     12 H    LEU P   2      14.073  -8.839 -15.040  1.00 46.17 LIG 0.16  HD
ATOM     13  C   LEU P   1      13.617 -10.617 -15.682  1.00 46.12 LIG 0.25  C 
ATOM     14 O    LEU P   1      14.068 -11.719 -16.031  1.00 46.29 LIG-0.27  OA
BRANCH 13 15
ATOM     15  CA  LEU P   1      12.093 -10.333 -15.740  1.00 45.93 LIG 0.28  C 
BRANCH 15 16
ATOM     16  N   LEU P   1      11.270 -11.485 -16.231  1.00 46.34 LIG-0.07  N 
ATOM     17 H3   LEU P   1      11.081 -11.370 -17.093  1.00 46.34 LIG 0.28  HD
ATOM     18 H2   LEU P   1      10.513 -11.528 -15.764  1.00 46.34 LIG 0.28  HD
ATOM     19 H1   LEU P   1      11.726 -12.242 -16.126  1.00 46.34 LIG 0.28  HD
ENDBRANCH 15 16
BRANCH 15 20
ATOM     20  CB  LEU P   1      11.580  -9.865 -14.368  1.00 45.65 LIG 0.05  C 
BRANCH 20 21
ATOM     21  CG  LEU P   1      10.918  -8.483 -14.377  1.00 44.28 LIG-0.02  C 
ATOM     22  CD1 LEU P   1      11.240  -7.706 -13.115  1.00 42.49 LIG 0.01  C 
ATOM     23  CD2 LEU P   1      11.318  -7.693 -15.610  1.00 44.08 LIG 0.01  C 
ENDBRANCH 20 21
ENDBRANCH 15 20
ENDBRANCH 13 15
ENDBRANCH 6 11
ENDBRANCH 4 6
ENDBRANCH 1 2
BRANCH 1 24
ATOM     24  CB  PHE P   3      18.340  -9.440 -10.885  1.00 45.09 LIG 0.07  C 
BRANCH 24 25
ATOM     25  CG  PHE P   3      17.990  -8.005 -11.466  1.00 44.37 LIG-0.06  A 
ATOM     26  CD1 PHE P   3      18.196  -7.612 -12.812  1.00 43.10 LIG 0.01  A 
ATOM     27  CE1 PHE P   3      17.898  -6.245 -13.248  1.00 41.01 LIG 0.00  A 
ATOM     28  CZ  PHE P   3      17.426  -5.293 -12.324  1.00 41.66 LIG 0.00  A 
ATOM     29  CE2 PHE P   3      17.242  -5.680 -11.008  1.00 43.89 LIG 0.00  A 
ATOM     30  CD2 PHE P   3      17.536  -7.017 -10.586  1.00 44.25 LIG 0.01  A 
ENDBRANCH 24 25
ENDBRANCH 1 24
BRANCH 1 31
ATOM     31  C   PHE P   3      16.686 -11.474 -11.306  1.00 45.74 LIG 0.26  C 
ATOM     32 N    ASN P   4      16.827 -12.544 -11.996  1.00 46.65 LIG-0.24  NA
ATOM     33 O    PHE P   3      15.750 -11.131 -10.588  1.00 45.60 LIG-0.27  OA
BRANCH 32 34
ATOM     34  CA  ASN P   4      16.104 -13.712 -12.408  1.00 47.05 LIG 0.21  C 
BRANCH 34 35
ATOM     35  CB  ASN P   4      15.437 -13.195 -13.625  1.00 46.83 LIG 0.14  C 
BRANCH 35 36
ATOM     36  CG  ASN P   4      14.003 -12.884 -13.303  1.00 47.32 LIG 0.22  C 
ATOM     37  ND2 ASN P   4      13.092 -13.490 -14.066  1.00 46.99 LIG-0.37  N 
ATOM     38 22HD ASN P   4      13.343 -14.012 -14.702  1.00 46.99 LIG 0.16  HD
ATOM     39 21HD ASN P   4      12.255 -13.359 -13.922  1.00 46.99 LIG 0.16  HD
ATOM     40 OD1  ASN P   4      13.684 -12.136 -12.390  1.00 48.95 LIG-0.27  OA
ENDBRANCH 35 36
ENDBRANCH 34 35
BRANCH 34 41
ATOM     41  C   ASN P   4      16.372 -15.134 -12.704  1.00 47.23 LIG 0.24  C 
ATOM     42  N   ASP P   5      17.343 -15.346 -11.770  1.00 48.41 LIG-0.35  N 
ATOM     43 H    ASP P   5      17.557 -14.665 -11.291  1.00 48.41 LIG 0.16  HD
ATOM     44 O    ASN P   4      15.871 -15.882 -13.529  1.00 47.17 LIG-0.27  OA
BRANCH 42 45
ATOM     45  CA  ASP P   5      18.170 -16.453 -11.321  1.00 49.16 LIG 0.17  C 
BRANCH 45 46
ATOM     46  C   ASP P   5      19.490 -15.980 -10.710  1.00 49.66 LIG 0.22  C 
ATOM     47 O    ASP P   5      19.704 -14.774 -10.540  1.00 50.85 LIG-0.29  OA
ENDBRANCH 45 46
BRANCH 45 48
ATOM     48  CB  ASP P   5      18.445 -17.418 -12.529  1.00 49.44 LIG 0.15  C 
BRANCH 48 49
ATOM     49  CG  ASP P   5      18.612 -18.929 -12.309  1.00 49.12 LIG 0.17  C 
ATOM     50 OD1  ASP P   5      17.607 -19.665 -12.417  1.00 51.19 LIG-0.65  OA
ATOM     51 OD2  ASP P   5      19.739 -19.371 -12.026  1.00 49.06 LIG-0.65  OA
ENDBRANCH 48 49
ENDBRANCH 45 48
ENDBRANCH 42 45
ENDBRANCH 34 41
ENDBRANCH 32 34
ENDBRANCH 1 31
TORSDOF 20
ENDMDL
MODEL 34
USER: ADFR SOLUTION from run 66
USER: SCORE 15.984053 LL:  -4.091 LR: -13.685 RR:   0.000 FEB:  -7.719
USER: RMSD 10.515385
USER: SEED 65
USER: STATUS no improvement in best 24 clusters for 5 generations
USER: GENES 22
USER: genes 0 Translation |==|  0.43171 0.73818 0.48008
USER: genes 1 Rotation |==|  0.14891 0.58956 0.16135 0.56349
USER: genes 2 Torsion [CB]-CA--N-[C] |==|  0.50556
USER: genes 3 Torsion [N]-C--CA-[N] |==|  0.34532
USER: genes 4 Torsion [C]-CA--CB-[CG] |==|  0.42599
USER: genes 5 Torsion [CA]-CB--CG-[CD1] |==|  0.12510
USER: genes 6 Torsion [C]-CA--N-[C] |==|  0.64000
USER: genes 7 Torsion [N]-C--CA-[N] |==|  0.18037
USER: genes 8 Torsion [C]-CA--N-[H3] |==|  0.68505
USER: genes 9 Torsion [C]-CA--CB-[CG] |==|  0.22260
USER: genes 10 Torsion [CA]-CB--CG-[CD1] |==|  0.73752
USER: genes 11 Torsion [N]-CA--CB-[CG] |==|  0.00122
USER: genes 12 Torsion [CA]-CB--CG-[CD1] |==|  0.12619
USER: genes 13 Torsion [N]-CA--C-[N] |==|  0.32031
USER: genes 14 Torsion [C]-N--CA-[C] |==|  0.23591
USER: genes 15 Torsion [N]-CA--CB-[CG] |==|  0.63341
USER: genes 16 Torsion [CA]-CB--CG-[OD1] |==|  0.03566
USER: genes 17 Torsion [N]-CA--C-[N] |==|  0.86634
USER: genes 18 Torsion [C]-N--CA-[C] |==|  0.81513
USER: genes 19 Torsion [N]-CA--C-[O] |==|  0.01109
USER: genes 20 Torsion [N]-CA--CB-[CG] |==|  0.85765
USER: genes 21 Torsion [CA]-CB--CG-[OD1] |==|  0.08042
ROOT
ATOM      1  CA  PHE P   3      18.191  -7.715 -14.888  1.00 45.52 LIG 0.18  C 
ENDROOT
BRANCH 1 2
ATOM      2  N   PHE P   3      17.085  -8.564 -14.292  1.00 45.79 LIG-0.35  N 
ATOM      3 H    PHE P   3      16.880  -8.288 -13.504  1.00 45.79 LIG 0.16  HD
ATOM      4  C   LEU P   2      16.444  -9.614 -14.819  1.00 46.01 LIG 0.24  C 
ATOM      5 O    LEU P   2      16.655  -9.982 -15.967  1.00 46.46 LIG-0.27  OA
BRANCH 4 6
ATOM      6  CA  LEU P   2      15.345 -10.349 -13.936  1.00 45.94 LIG 0.18  C 
BRANCH 6 7
ATOM      7  CB  LEU P   2      15.752 -11.793 -13.538  1.00 45.93 LIG 0.04  C 
BRANCH 7 8
ATOM      8  CG  LEU P   2      15.205 -12.476 -12.250  1.00 45.11 LIG-0.02  C 
ATOM      9  CD1 LEU P   2      13.685 -12.291 -12.041  1.00 44.79 LIG 0.01  C 
ATOM     10  CD2 LEU P   2      15.551 -13.963 -12.210  1.00 44.35 LIG 0.01  C 
ENDBRANCH 7 8
ENDBRANCH 6 7
BRANCH 6 11
ATOM     11  N   LEU P   2      14.062 -10.374 -14.674  1.00 46.17 LIG-0.35  N 
ATOM     12 H    LEU P   2      14.141 -10.670 -15.477  1.00 46.17 LIG 0.16  HD
ATOM     13  C   LEU P   1      12.888  -9.981 -14.161  1.00 46.12 LIG 0.25  C 
ATOM     14 O    LEU P   1      12.749  -9.610 -12.985  1.00 46.29 LIG-0.27  OA
BRANCH 13 15
ATOM     15  CA  LEU P   1      11.675 -10.011 -15.128  1.00 45.93 LIG 0.28  C 
BRANCH 15 16
ATOM     16  N   LEU P   1      11.294 -11.382 -15.597  1.00 46.34 LIG-0.07  N 
ATOM     17 H3   LEU P   1      11.448 -11.450 -16.471  1.00 46.34 LIG 0.28  HD
ATOM     18 H2   LEU P   1      10.429 -11.521 -15.436  1.00 46.34 LIG 0.28  HD
ATOM     19 H1   LEU P   1      11.778 -11.989 -15.163  1.00 46.34 LIG 0.28  HD
ENDBRANCH 15 16
BRANCH 15 20
ATOM     20  CB  LEU P   1      10.461  -9.316 -14.490  1.00 45.65 LIG 0.05  C 
BRANCH 20 21
ATOM     21  CG  LEU P   1      10.491  -7.786 -14.571  1.00 44.28 LIG-0.02  C 
ATOM     22  CD1 LEU P   1      11.083  -7.175 -13.314  1.00 42.49 LIG 0.01  C 
ATOM     23  CD2 LEU P   1      11.247  -7.319 -15.802  1.00 44.08 LIG 0.01  C 
ENDBRANCH 20 21
ENDBRANCH 15 20
ENDBRANCH 13 15
ENDBRANCH 6 11
ENDBRANCH 4 6
ENDBRANCH 1 2
BRANCH 1 24
ATOM     24  CB  PHE P   3      18.806  -6.566 -14.041  1.00 45.09 LIG 0.07  C 
BRANCH 24 25
ATOM     25  CG  PHE P   3      18.215  -6.381 -12.580  1.00 44.37 LIG-0.06  A 
ATOM     26  CD1 PHE P   3      17.977  -7.441 -11.670  1.00 43.10 LIG 0.01  A 
ATOM     27  CE1 PHE P   3      17.372  -7.183 -10.359  1.00 41.01 LIG 0.00  A 
ATOM     28  CZ  PHE P   3      16.994  -5.876  -9.998  1.00 41.66 LIG 0.00  A 
ATOM     29  CE2 PHE P   3      17.216  -4.848 -10.898  1.00 43.89 LIG 0.00  A 
ATOM     30  CD2 PHE P   3      17.805  -5.105 -12.178  1.00 44.25 LIG 0.01  A 
ENDBRANCH 24 25
ENDBRANCH 1 24
BRANCH 1 31
ATOM     31  C   PHE P   3      19.077  -8.939 -15.201  1.00 45.74 LIG 0.26  C 
ATOM     32 N    ASN P   4      19.115  -8.905 -16.481  1.00 46.65 LIG-0.24  NA
ATOM     33 O    PHE P   3      19.508  -9.795 -14.434  1.00 45.60 LIG-0.27  OA
BRANCH 32 34
ATOM     34  CA  ASN P   4      19.471  -9.714 -17.611  1.00 47.05 LIG 0.21  C 
BRANCH 34 35
ATOM     35  CB  ASN P   4      20.725 -10.325 -17.114  1.00 46.83 LIG 0.14  C 
BRANCH 35 36
ATOM     36  CG  ASN P   4      21.786 -10.195 -18.171  1.00 47.32 LIG 0.22  C 
ATOM     37  ND2 ASN P   4      22.878 -10.939 -17.991  1.00 46.99 LIG-0.37  N 
ATOM     38 22HD ASN P   4      22.945 -11.444 -17.298  1.00 46.99 LIG 0.16  HD
ATOM     39 21HD ASN P   4      23.514 -10.915 -18.569  1.00 46.99 LIG 0.16  HD
ATOM     40 OD1  ASN P   4      21.655  -9.467 -19.144  1.00 48.95 LIG-0.27  OA
ENDBRANCH 35 36
ENDBRANCH 34 35
BRANCH 34 41
ATOM     41  C   ASN P   4      18.862 -10.751 -18.466  1.00 47.23 LIG 0.24  C 
ATOM     42  N   ASP P   5      18.366 -11.550 -17.478  1.00 48.41 LIG-0.35  N 
ATOM     43 H    ASP P   5      18.525 -11.292 -16.674  1.00 48.41 LIG 0.16  HD
ATOM     44 O    ASN P   4      18.816 -10.852 -19.683  1.00 47.17 LIG-0.27  OA
BRANCH 42 45
ATOM     45  CA  ASP P   5      17.602 -12.782 -17.384  1.00 49.16 LIG 0.17  C 
BRANCH 45 46
ATOM     46  C   ASP P   5      16.174 -12.620 -17.909  1.00 49.66 LIG 0.22  C 
ATOM     47 O    ASP P   5      15.811 -11.552 -18.415  1.00 50.85 LIG-0.29  OA
ENDBRANCH 45 46
BRANCH 45 48
ATOM     48  CB  ASP P   5      17.579 -13.265 -15.890  1.00 49.44 LIG 0.15  C 
BRANCH 48 49
ATOM     49  CG  ASP P   5      18.880 -13.400 -15.085  1.00 49.12 LIG 0.17  C 
ATOM     50 OD1  ASP P   5      19.842 -12.654 -15.373  1.00 51.19 LIG-0.65  OA
ATOM     51 OD2  ASP P   5      18.936 -14.246 -14.177  1.00 49.06 LIG-0.65  OA
ENDBRANCH 48 49
ENDBRANCH 45 48
ENDBRANCH 42 45
ENDBRANCH 34 41
ENDBRANCH 32 34
ENDBRANCH 1 31
TORSDOF 20
ENDMDL
MODEL 35
USER: ADFR SOLUTION from run 8
USER: SCORE 15.428858 LL:  -3.741 LR: -13.665 RR:   0.000 FEB:  -7.699
USER: RMSD 10.019631
USER: SEED 628212
USER: STATUS no improvement in best 3 clusters for 5 generations
USER: GENES 22
USER: genes 0 Translation |==|  0.26437 0.63284 0.50677
USER: genes 1 Rotation |==|  0.39736 0.29610 0.67088 0.91072
USER: genes 2 Torsion [CB]-CA--N-[C] |==|  0.20145
USER: genes 3 Torsion [N]-C--CA-[N] |==|  0.24773
USER: genes 4 Torsion [C]-CA--CB-[CG] |==|  0.83302
USER: genes 5 Torsion [CA]-CB--CG-[CD1] |==|  0.43437
USER: genes 6 Torsion [C]-CA--N-[C] |==|  0.55342
USER: genes 7 Torsion [N]-C--CA-[N] |==|  0.34433
USER: genes 8 Torsion [C]-CA--N-[H3] |==|  0.76328
USER: genes 9 Torsion [C]-CA--CB-[CG] |==|  0.40824
USER: genes 10 Torsion [CA]-CB--CG-[CD1] |==|  0.52060
USER: genes 11 Torsion [N]-CA--CB-[CG] |==|  0.94709
USER: genes 12 Torsion [CA]-CB--CG-[CD1] |==|  0.17840
USER: genes 13 Torsion [N]-CA--C-[N] |==|  0.20925
USER: genes 14 Torsion [C]-N--CA-[C] |==|  0.51111
USER: genes 15 Torsion [N]-CA--CB-[CG] |==|  0.75969
USER: genes 16 Torsion [CA]-CB--CG-[OD1] |==|  0.36856
USER: genes 17 Torsion [N]-CA--C-[N] |==|  0.43174
USER: genes 18 Torsion [C]-N--CA-[C] |==|  0.03218
USER: genes 19 Torsion [N]-CA--C-[O] |==|  0.42955
USER: genes 20 Torsion [N]-CA--CB-[CG] |==|  0.79939
USER: genes 21 Torsion [CA]-CB--CG-[OD1] |==|  0.70716
ROOT
ATOM      1  CA  PHE P   3      13.171 -10.875 -14.087  1.00 45.52 LIG 0.18  C 
ENDROOT
BRANCH 1 2
ATOM      2  N   PHE P   3      14.188  -9.885 -14.623  1.00 45.79 LIG-0.35  N 
ATOM      3 H    PHE P   3      13.904  -9.078 -14.530  1.00 45.79 LIG 0.16  HD
ATOM      4  C   LEU P   2      15.383 -10.113 -15.180  1.00 46.01 LIG 0.24  C 
ATOM      5 O    LEU P   2      15.850 -11.242 -15.253  1.00 46.46 LIG-0.27  OA
BRANCH 4 6
ATOM      6  CA  LEU P   2      16.224  -8.867 -15.698  1.00 45.94 LIG 0.18  C 
BRANCH 6 7
ATOM      7  CB  LEU P   2      17.105  -9.201 -16.932  1.00 45.93 LIG 0.04  C 
BRANCH 7 8
ATOM      8  CG  LEU P   2      18.214 -10.292 -16.880  1.00 45.11 LIG-0.02  C 
ATOM      9  CD1 LEU P   2      18.575 -10.884 -18.261  1.00 44.79 LIG 0.01  C 
ATOM     10  CD2 LEU P   2      19.479  -9.779 -16.195  1.00 44.35 LIG 0.01  C 
ENDBRANCH 7 8
ENDBRANCH 6 7
BRANCH 6 11
ATOM     11  N   LEU P   2      17.074  -8.360 -14.597  1.00 46.17 LIG-0.35  N 
ATOM     12 H    LEU P   2      17.191  -8.935 -13.969  1.00 46.17 LIG 0.16  HD
ATOM     13  C   LEU P   1      17.616  -7.134 -14.565  1.00 46.12 LIG 0.25  C 
ATOM     14 O    LEU P   1      17.506  -6.317 -15.492  1.00 46.29 LIG-0.27  OA
BRANCH 13 15
ATOM     15  CA  LEU P   1      18.408  -6.770 -13.282  1.00 45.93 LIG 0.28  C 
BRANCH 15 16
ATOM     16  N   LEU P   1      19.822  -6.343 -13.531  1.00 46.34 LIG-0.07  N 
ATOM     17 H3   LEU P   1      20.346  -7.061 -13.580  1.00 46.34 LIG 0.28  HD
ATOM     18 H2   LEU P   1      20.097  -5.821 -12.864  1.00 46.34 LIG 0.28  HD
ATOM     19 H1   LEU P   1      19.865  -5.892 -14.297  1.00 46.34 LIG 0.28  HD
ENDBRANCH 15 16
BRANCH 15 20
ATOM     20  CB  LEU P   1      17.665  -5.691 -12.478  1.00 45.65 LIG 0.05  C 
BRANCH 20 21
ATOM     21  CG  LEU P   1      17.835  -5.801 -10.959  1.00 44.28 LIG-0.02  C 
ATOM     22  CD1 LEU P   1      16.935  -4.822 -10.228  1.00 42.49 LIG 0.01  C 
ATOM     23  CD2 LEU P   1      17.583  -7.220 -10.483  1.00 44.08 LIG 0.01  C 
ENDBRANCH 20 21
ENDBRANCH 15 20
ENDBRANCH 13 15
ENDBRANCH 6 11
ENDBRANCH 4 6
ENDBRANCH 1 2
BRANCH 1 24
ATOM     24  CB  PHE P   3      13.465 -11.617 -12.754  1.00 45.09 LIG 0.07  C 
BRANCH 24 25
ATOM     25  CG  PHE P   3      14.981 -11.646 -12.288  1.00 44.37 LIG-0.06  A 
ATOM     26  CD1 PHE P   3      15.734 -10.499 -11.934  1.00 43.10 LIG 0.01  A 
ATOM     27  CE1 PHE P   3      17.150 -10.614 -11.571  1.00 41.01 LIG 0.00  A 
ATOM     28  CZ  PHE P   3      17.790 -11.868 -11.597  1.00 41.66 LIG 0.00  A 
ATOM     29  CE2 PHE P   3      17.051 -12.982 -11.960  1.00 43.89 LIG 0.00  A 
ATOM     30  CD2 PHE P   3      15.668 -12.864 -12.315  1.00 44.25 LIG 0.01  A 
ENDBRANCH 24 25
ENDBRANCH 1 24
BRANCH 1 31
ATOM     31  C   PHE P   3      12.028  -9.838 -14.104  1.00 45.74 LIG 0.26  C 
ATOM     32 N    ASN P   4      11.760  -9.774 -15.355  1.00 46.65 LIG-0.24  NA
ATOM     33 O    PHE P   3      11.594  -9.155 -13.180  1.00 45.60 LIG-0.27  OA
BRANCH 32 34
ATOM     34  CA  ASN P   4      11.054  -8.967 -16.307  1.00 47.05 LIG 0.21  C 
BRANCH 34 35
ATOM     35  CB  ASN P   4      11.718  -7.661 -16.091  1.00 46.83 LIG 0.14  C 
BRANCH 35 36
ATOM     36  CG  ASN P   4      11.025  -6.939 -14.969  1.00 47.32 LIG 0.22  C 
ATOM     37  ND2 ASN P   4       9.693  -6.925 -15.024  1.00 46.99 LIG-0.37  N 
ATOM     38 22HD ASN P   4       9.285  -7.305 -15.680  1.00 46.99 LIG 0.16  HD
ATOM     39 21HD ASN P   4       9.242  -6.536 -14.404  1.00 46.99 LIG 0.16  HD
ATOM     40 OD1  ASN P   4      11.638  -6.410 -14.053  1.00 48.95 LIG-0.27  OA
ENDBRANCH 35 36
ENDBRANCH 34 35
BRANCH 34 41
ATOM     41  C   ASN P   4      10.724  -8.986 -17.746  1.00 47.23 LIG 0.24  C 
ATOM     42  N   ASP P   5       9.606  -8.207 -17.698  1.00 48.41 LIG-0.35  N 
ATOM     43 H    ASP P   5       9.374  -7.932 -16.918  1.00 48.41 LIG 0.16  HD
ATOM     44 O    ASN P   4      11.288  -9.530 -18.684  1.00 47.17 LIG-0.27  OA
BRANCH 42 45
ATOM     45  CA  ASP P   5       8.634  -7.675 -18.639  1.00 49.16 LIG 0.17  C 
BRANCH 45 46
ATOM     46  C   ASP P   5       8.758  -8.312 -20.024  1.00 49.66 LIG 0.22  C 
ATOM     47 O    ASP P   5       7.784  -8.351 -20.784  1.00 50.85 LIG-0.29  OA
ENDBRANCH 45 46
BRANCH 45 48
ATOM     48  CB  ASP P   5       8.810  -6.117 -18.740  1.00 49.44 LIG 0.15  C 
BRANCH 48 49
ATOM     49  CG  ASP P   5       8.377  -5.199 -17.588  1.00 49.12 LIG 0.17  C 
ATOM     50 OD1  ASP P   5       7.331  -4.527 -17.718  1.00 51.19 LIG-0.65  OA
ATOM     51 OD2  ASP P   5       9.082  -5.151 -16.565  1.00 49.06 LIG-0.65  OA
ENDBRANCH 48 49
ENDBRANCH 45 48
ENDBRANCH 42 45
ENDBRANCH 34 41
ENDBRANCH 32 34
ENDBRANCH 1 31
TORSDOF 20
ENDMDL
MODEL 36
USER: ADFR SOLUTION from run 72
USER: SCORE 16.174233 LL:  -3.615 LR: -13.623 RR:   0.000 FEB:  -7.657
USER: RMSD 9.002027
USER: SEED 71
USER: STATUS no improvement in best 11 clusters for 5 generations
USER: GENES 22
USER: genes 0 Translation |==|  0.36956 0.66221 0.57484
USER: genes 1 Rotation |==|  0.07643 0.67647 0.47230 0.69668
USER: genes 2 Torsion [CB]-CA--N-[C] |==|  0.81111
USER: genes 3 Torsion [N]-C--CA-[N] |==|  0.15543
USER: genes 4 Torsion [C]-CA--CB-[CG] |==|  0.34356
USER: genes 5 Torsion [CA]-CB--CG-[CD1] |==|  0.84088
USER: genes 6 Torsion [C]-CA--N-[C] |==|  0.17278
USER: genes 7 Torsion [N]-C--CA-[N] |==|  0.48248
USER: genes 8 Torsion [C]-CA--N-[H3] |==|  0.08220
USER: genes 9 Torsion [C]-CA--CB-[CG] |==|  0.81250
USER: genes 10 Torsion [CA]-CB--CG-[CD1] |==|  0.24670
USER: genes 11 Torsion [N]-CA--CB-[CG] |==|  0.52054
USER: genes 12 Torsion [CA]-CB--CG-[CD1] |==|  0.79411
USER: genes 13 Torsion [N]-CA--C-[N] |==|  0.19042
USER: genes 14 Torsion [C]-N--CA-[C] |==|  0.78780
USER: genes 15 Torsion [N]-CA--CB-[CG] |==|  0.23497
USER: genes 16 Torsion [CA]-CB--CG-[OD1] |==|  0.82507
USER: genes 17 Torsion [N]-CA--C-[N] |==|  0.90980
USER: genes 18 Torsion [C]-N--CA-[C] |==|  0.38498
USER: genes 19 Torsion [N]-CA--C-[O] |==|  0.36728
USER: genes 20 Torsion [N]-CA--CB-[CG] |==|  0.20336
USER: genes 21 Torsion [CA]-CB--CG-[OD1] |==|  0.42893
ROOT
ATOM      1  CA  PHE P   3      16.327  -9.994 -12.045  1.00 45.52 LIG 0.18  C 
ENDROOT
BRANCH 1 2
ATOM      2  N   PHE P   3      16.246 -11.501 -11.895  1.00 45.79 LIG-0.35  N 
ATOM      3 H    PHE P   3      15.589 -11.721 -11.386  1.00 45.79 LIG 0.16  HD
ATOM      4  C   LEU P   2      17.025 -12.450 -12.428  1.00 46.01 LIG 0.24  C 
ATOM      5 O    LEU P   2      17.917 -12.176 -13.220  1.00 46.46 LIG-0.27  OA
BRANCH 4 6
ATOM      6  CA  LEU P   2      16.728 -13.967 -12.056  1.00 45.94 LIG 0.18  C 
BRANCH 6 7
ATOM      7  CB  LEU P   2      17.680 -14.964 -12.769  1.00 45.93 LIG 0.04  C 
BRANCH 7 8
ATOM      8  CG  LEU P   2      18.548 -15.983 -11.975  1.00 45.11 LIG-0.02  C 
ATOM      9  CD1 LEU P   2      19.490 -15.329 -10.938  1.00 44.79 LIG 0.01  C 
ATOM     10  CD2 LEU P   2      17.689 -17.044 -11.290  1.00 44.35 LIG 0.01  C 
ENDBRANCH 7 8
ENDBRANCH 6 7
BRANCH 6 11
ATOM     11  N   LEU P   2      15.323 -14.287 -12.394  1.00 46.17 LIG-0.35  N 
ATOM     12 H    LEU P   2      14.853 -14.508 -11.709  1.00 46.17 LIG 0.16  HD
ATOM     13  C   LEU P   1      14.816 -14.241 -13.635  1.00 46.12 LIG 0.25  C 
ATOM     14 O    LEU P   1      15.466 -13.865 -14.622  1.00 46.29 LIG-0.27  OA
BRANCH 13 15
ATOM     15  CA  LEU P   1      13.339 -14.693 -13.787  1.00 45.93 LIG 0.28  C 
BRANCH 15 16
ATOM     16  N   LEU P   1      12.769 -14.486 -15.157  1.00 46.34 LIG-0.07  N 
ATOM     17 H3   LEU P   1      13.420 -14.546 -15.762  1.00 46.34 LIG 0.28  HD
ATOM     18 H2   LEU P   1      12.393 -13.681 -15.204  1.00 46.34 LIG 0.28  HD
ATOM     19 H1   LEU P   1      12.156 -15.110 -15.320  1.00 46.34 LIG 0.28  HD
ENDBRANCH 15 16
BRANCH 15 20
ATOM     20  CB  LEU P   1      13.180 -16.163 -13.366  1.00 45.65 LIG 0.05  C 
BRANCH 20 21
ATOM     21  CG  LEU P   1      13.875 -17.167 -14.293  1.00 44.28 LIG-0.02  C 
ATOM     22  CD1 LEU P   1      15.311 -17.412 -13.868  1.00 42.49 LIG 0.01  C 
ATOM     23  CD2 LEU P   1      13.105 -18.473 -14.359  1.00 44.08 LIG 0.01  C 
ENDBRANCH 20 21
ENDBRANCH 15 20
ENDBRANCH 13 15
ENDBRANCH 6 11
ENDBRANCH 4 6
ENDBRANCH 1 2
BRANCH 1 24
ATOM     24  CB  PHE P   3      17.529  -9.233 -11.420  1.00 45.09 LIG 0.07  C 
BRANCH 24 25
ATOM     25  CG  PHE P   3      17.451  -7.648 -11.460  1.00 44.37 LIG-0.06  A 
ATOM     26  CD1 PHE P   3      17.647  -6.864 -12.624  1.00 43.10 LIG 0.01  A 
ATOM     27  CE1 PHE P   3      17.615  -5.400 -12.556  1.00 41.01 LIG 0.00  A 
ATOM     28  CZ  PHE P   3      17.415  -4.751 -11.323  1.00 41.66 LIG 0.00  A 
ATOM     29  CE2 PHE P   3      17.240  -5.524 -10.187  1.00 43.89 LIG 0.00  A 
ATOM     30  CD2 PHE P   3      17.274  -6.955 -10.258  1.00 44.25 LIG 0.01  A 
ENDBRANCH 24 25
ENDBRANCH 1 24
BRANCH 1 31
ATOM     31  C   PHE P   3      16.229 -10.057 -13.584  1.00 45.74 LIG 0.26  C 
ATOM     32 N    ASN P   4      15.022 -10.456 -13.746  1.00 46.65 LIG-0.24  NA
ATOM     33 O    PHE P   3      17.116  -9.904 -14.419  1.00 45.60 LIG-0.27  OA
BRANCH 32 34
ATOM     34  CA  ASN P   4      14.149 -10.997 -14.747  1.00 47.05 LIG 0.21  C 
BRANCH 34 35
ATOM     35  CB  ASN P   4      13.141 -11.660 -13.889  1.00 46.83 LIG 0.14  C 
BRANCH 35 36
ATOM     36  CG  ASN P   4      12.110 -10.649 -13.473  1.00 47.32 LIG 0.22  C 
ATOM     37  ND2 ASN P   4      10.864 -10.890 -13.881  1.00 46.99 LIG-0.37  N 
ATOM     38 22HD ASN P   4      10.695 -11.583 -14.361  1.00 46.99 LIG 0.16  HD
ATOM     39 21HD ASN P   4      10.230 -10.351 -13.665  1.00 46.99 LIG 0.16  HD
ATOM     40 OD1  ASN P   4      12.388  -9.674 -12.790  1.00 48.95 LIG-0.27  OA
ENDBRANCH 35 36
ENDBRANCH 34 35
BRANCH 34 41
ATOM     41  C   ASN P   4      13.390 -10.530 -15.924  1.00 47.23 LIG 0.24  C 
ATOM     42  N   ASP P   5      13.104  -9.272 -15.483  1.00 48.41 LIG-0.35  N 
ATOM     43 H    ASP P   5      13.391  -9.077 -14.696  1.00 48.41 LIG 0.16  HD
ATOM     44 O    ASN P   4      13.114 -11.100 -16.969  1.00 47.17 LIG-0.27  OA
BRANCH 42 45
ATOM     45  CA  ASP P   5      12.413  -8.095 -15.984  1.00 49.16 LIG 0.17  C 
BRANCH 45 46
ATOM     46  C   ASP P   5      11.554  -7.426 -14.910  1.00 49.66 LIG 0.22  C 
ATOM     47 O    ASP P   5      11.614  -6.204 -14.733  1.00 50.85 LIG-0.29  OA
ENDBRANCH 45 46
BRANCH 45 48
ATOM     48  CB  ASP P   5      11.525  -8.499 -17.215  1.00 49.44 LIG 0.15  C 
BRANCH 48 49
ATOM     49  CG  ASP P   5      10.229  -9.300 -17.022  1.00 49.12 LIG 0.17  C 
ATOM     50 OD1  ASP P   5       9.327  -9.196 -17.882  1.00 51.19 LIG-0.65  OA
ATOM     51 OD2  ASP P   5      10.117 -10.023 -16.017  1.00 49.06 LIG-0.65  OA
ENDBRANCH 48 49
ENDBRANCH 45 48
ENDBRANCH 42 45
ENDBRANCH 34 41
ENDBRANCH 32 34
ENDBRANCH 1 31
TORSDOF 20
ENDMDL
MODEL 37
USER: ADFR SOLUTION from run 157
USER: SCORE 15.745135 LL:  -4.270 LR: -13.618 RR:   0.000 FEB:  -7.652
USER: RMSD 10.683151
USER: SEED 156
USER: STATUS no improvement in best 2 clusters for 5 generations
USER: GENES 22
USER: genes 0 Translation |==|  0.43230 0.72729 0.48998
USER: genes 1 Rotation |==|  0.17218 0.54493 0.12663 0.53337
USER: genes 2 Torsion [CB]-CA--N-[C] |==|  0.43190
USER: genes 3 Torsion [N]-C--CA-[N] |==|  0.38037
USER: genes 4 Torsion [C]-CA--CB-[CG] |==|  0.62076
USER: genes 5 Torsion [CA]-CB--CG-[CD1] |==|  0.44253
USER: genes 6 Torsion [C]-CA--N-[C] |==|  0.63074
USER: genes 7 Torsion [N]-C--CA-[N] |==|  0.25364
USER: genes 8 Torsion [C]-CA--N-[H3] |==|  0.36259
USER: genes 9 Torsion [C]-CA--CB-[CG] |==|  0.15554
USER: genes 10 Torsion [CA]-CB--CG-[CD1] |==|  0.34843
USER: genes 11 Torsion [N]-CA--CB-[CG] |==|  0.03784
USER: genes 12 Torsion [CA]-CB--CG-[CD1] |==|  0.11710
USER: genes 13 Torsion [N]-CA--C-[N] |==|  0.33996
USER: genes 14 Torsion [C]-N--CA-[C] |==|  0.55515
USER: genes 15 Torsion [N]-CA--CB-[CG] |==|  0.68002
USER: genes 16 Torsion [CA]-CB--CG-[OD1] |==|  0.25615
USER: genes 17 Torsion [N]-CA--C-[N] |==|  0.34694
USER: genes 18 Torsion [C]-N--CA-[C] |==|  0.12261
USER: genes 19 Torsion [N]-CA--C-[O] |==|  0.03539
USER: genes 20 Torsion [N]-CA--CB-[CG] |==|  0.14920
USER: genes 21 Torsion [CA]-CB--CG-[OD1] |==|  0.73548
ROOT
ATOM      1  CA  PHE P   3      18.209  -8.041 -14.591  1.00 45.52 LIG 0.18  C 
ENDROOT
BRANCH 1 2
ATOM      2  N   PHE P   3      17.014  -8.772 -14.009  1.00 45.79 LIG-0.35  N 
ATOM      3 H    PHE P   3      16.914  -8.578 -13.177  1.00 45.79 LIG 0.16  HD
ATOM      4  C   LEU P   2      16.166  -9.620 -14.602  1.00 46.01 LIG 0.24  C 
ATOM      5 O    LEU P   2      16.231  -9.856 -15.802  1.00 46.46 LIG-0.27  OA
BRANCH 4 6
ATOM      6  CA  LEU P   2      15.017 -10.279 -13.722  1.00 45.94 LIG 0.18  C 
BRANCH 6 7
ATOM      7  CB  LEU P   2      15.347 -11.731 -13.284  1.00 45.93 LIG 0.04  C 
BRANCH 7 8
ATOM      8  CG  LEU P   2      14.286 -12.869 -13.344  1.00 45.11 LIG-0.02  C 
ATOM      9  CD1 LEU P   2      14.893 -14.290 -13.363  1.00 44.79 LIG 0.01  C 
ATOM     10  CD2 LEU P   2      13.274 -12.758 -12.206  1.00 44.35 LIG 0.01  C 
ENDBRANCH 7 8
ENDBRANCH 6 7
BRANCH 6 11
ATOM     11  N   LEU P   2      13.748 -10.260 -14.482  1.00 46.17 LIG-0.35  N 
ATOM     12 H    LEU P   2      13.835 -10.536 -15.292  1.00 46.17 LIG 0.16  HD
ATOM     13  C   LEU P   1      12.572  -9.858 -13.979  1.00 46.12 LIG 0.25  C 
ATOM     14 O    LEU P   1      12.420  -9.516 -12.796  1.00 46.29 LIG-0.27  OA
BRANCH 13 15
ATOM     15  CA  LEU P   1      11.376  -9.838 -14.967  1.00 45.93 LIG 0.28  C 
BRANCH 15 16
ATOM     16  N   LEU P   1      10.584 -11.110 -15.002  1.00 46.34 LIG-0.07  N 
ATOM     17 H3   LEU P   1       9.718 -10.923 -14.921  1.00 46.34 LIG 0.28  HD
ATOM     18 H2   LEU P   1      10.838 -11.636 -14.330  1.00 46.34 LIG 0.28  HD
ATOM     19 H1   LEU P   1      10.727 -11.527 -15.775  1.00 46.34 LIG 0.28  HD
ENDBRANCH 15 16
BRANCH 15 20
ATOM     20  CB  LEU P   1      10.449  -8.649 -14.666  1.00 45.65 LIG 0.05  C 
BRANCH 20 21
ATOM     21  CG  LEU P   1      11.145  -7.283 -14.681  1.00 44.28 LIG-0.02  C 
ATOM     22  CD1 LEU P   1      10.456  -6.320 -15.630  1.00 42.49 LIG 0.01  C 
ATOM     23  CD2 LEU P   1      11.225  -6.695 -13.284  1.00 44.08 LIG 0.01  C 
ENDBRANCH 20 21
ENDBRANCH 15 20
ENDBRANCH 13 15
ENDBRANCH 6 11
ENDBRANCH 4 6
ENDBRANCH 1 2
BRANCH 1 24
ATOM     24  CB  PHE P   3      18.689  -6.721 -13.927  1.00 45.09 LIG 0.07  C 
BRANCH 24 25
ATOM     25  CG  PHE P   3      18.099  -6.407 -12.488  1.00 44.37 LIG-0.06  A 
ATOM     26  CD1 PHE P   3      17.943  -7.367 -11.456  1.00 43.10 LIG 0.01  A 
ATOM     27  CE1 PHE P   3      17.333  -7.000 -10.175  1.00 41.01 LIG 0.00  A 
ATOM     28  CZ  PHE P   3      16.867  -5.688  -9.962  1.00 41.66 LIG 0.00  A 
ATOM     29  CE2 PHE P   3      17.008  -4.760 -10.979  1.00 43.89 LIG 0.00  A 
ATOM     30  CD2 PHE P   3      17.603  -5.124 -12.230  1.00 44.25 LIG 0.01  A 
ENDBRANCH 24 25
ENDBRANCH 1 24
BRANCH 1 31
ATOM     31  C   PHE P   3      19.123  -9.280 -14.486  1.00 45.74 LIG 0.26  C 
ATOM     32 N    ASN P   4      19.491  -9.430 -15.704  1.00 46.65 LIG-0.24  NA
ATOM     33 O    PHE P   3      19.326 -10.009 -13.518  1.00 45.60 LIG-0.27  OA
BRANCH 32 34
ATOM     34  CA  ASN P   4      20.112 -10.385 -16.575  1.00 47.05 LIG 0.21  C 
BRANCH 34 35
ATOM     35  CB  ASN P   4      19.008 -11.360 -16.729  1.00 46.83 LIG 0.14  C 
BRANCH 35 36
ATOM     36  CG  ASN P   4      19.423 -12.670 -16.120  1.00 47.32 LIG 0.22  C 
ATOM     37  ND2 ASN P   4      20.093 -13.496 -16.924  1.00 46.99 LIG-0.37  N 
ATOM     38 22HD ASN P   4      20.252 -13.270 -17.738  1.00 46.99 LIG 0.16  HD
ATOM     39 21HD ASN P   4      20.365 -14.256 -16.628  1.00 46.99 LIG 0.16  HD
ATOM     40 OD1  ASN P   4      19.178 -12.958 -14.958  1.00 48.95 LIG-0.27  OA
ENDBRANCH 35 36
ENDBRANCH 34 35
BRANCH 34 41
ATOM     41  C   ASN P   4      20.815 -10.407 -17.873  1.00 47.23 LIG 0.24  C 
ATOM     42  N   ASP P   5      21.961 -11.021 -17.462  1.00 48.41 LIG-0.35  N 
ATOM     43 H    ASP P   5      22.003 -11.215 -16.625  1.00 48.41 LIG 0.16  HD
ATOM     44 O    ASN P   4      20.468 -10.002 -18.972  1.00 47.17 LIG-0.27  OA
BRANCH 42 45
ATOM     45  CA  ASP P   5      23.206 -11.471 -18.061  1.00 49.16 LIG 0.17  C 
BRANCH 45 46
ATOM     46  C   ASP P   5      23.793 -10.436 -19.023  1.00 49.66 LIG 0.22  C 
ATOM     47 O    ASP P   5      23.354  -9.281 -19.042  1.00 50.85 LIG-0.29  OA
ENDBRANCH 45 46
BRANCH 45 48
ATOM     48  CB  ASP P   5      22.961 -12.830 -18.810  1.00 49.44 LIG 0.15  C 
BRANCH 48 49
ATOM     49  CG  ASP P   5      21.852 -12.959 -19.864  1.00 49.12 LIG 0.17  C 
ATOM     50 OD1  ASP P   5      20.739 -13.408 -19.511  1.00 51.19 LIG-0.65  OA
ATOM     51 OD2  ASP P   5      22.096 -12.617 -21.033  1.00 49.06 LIG-0.65  OA
ENDBRANCH 48 49
ENDBRANCH 45 48
ENDBRANCH 42 45
ENDBRANCH 34 41
ENDBRANCH 32 34
ENDBRANCH 1 31
TORSDOF 20
ENDMDL
MODEL 38
USER: ADFR SOLUTION from run 127
USER: SCORE 15.938471 LL:  -3.452 LR: -13.608 RR:   0.000 FEB:  -7.642
USER: RMSD 10.190206
USER: SEED 126
USER: STATUS no improvement in best 8 clusters for 5 generations
USER: GENES 22
USER: genes 0 Translation |==|  0.41051 0.76289 0.48105
USER: genes 1 Rotation |==|  0.08943 0.64228 0.40581 0.72873
USER: genes 2 Torsion [CB]-CA--N-[C] |==|  0.90555
USER: genes 3 Torsion [N]-C--CA-[N] |==|  0.95429
USER: genes 4 Torsion [C]-CA--CB-[CG] |==|  0.11273
USER: genes 5 Torsion [CA]-CB--CG-[CD1] |==|  0.39852
USER: genes 6 Torsion [C]-CA--N-[C] |==|  0.81565
USER: genes 7 Torsion [N]-C--CA-[N] |==|  0.78649
USER: genes 8 Torsion [C]-CA--N-[H3] |==|  0.70430
USER: genes 9 Torsion [C]-CA--CB-[CG] |==|  0.31446
USER: genes 10 Torsion [CA]-CB--CG-[CD1] |==|  0.60591
USER: genes 11 Torsion [N]-CA--CB-[CG] |==|  0.79632
USER: genes 12 Torsion [CA]-CB--CG-[CD1] |==|  0.19336
USER: genes 13 Torsion [N]-CA--C-[N] |==|  0.36268
USER: genes 14 Torsion [C]-N--CA-[C] |==|  0.65287
USER: genes 15 Torsion [N]-CA--CB-[CG] |==|  0.85363
USER: genes 16 Torsion [CA]-CB--CG-[OD1] |==|  0.82975
USER: genes 17 Torsion [N]-CA--C-[N] |==|  0.17510
USER: genes 18 Torsion [C]-N--CA-[C] |==|  0.54323
USER: genes 19 Torsion [N]-CA--C-[O] |==|  0.00394
USER: genes 20 Torsion [N]-CA--CB-[CG] |==|  0.41234
USER: genes 21 Torsion [CA]-CB--CG-[OD1] |==|  0.72787
ROOT
ATOM      1  CA  PHE P   3      17.555  -6.973 -14.859  1.00 45.52 LIG 0.18  C 
ENDROOT
BRANCH 1 2
ATOM      2  N   PHE P   3      17.437  -8.484 -14.784  1.00 45.79 LIG-0.35  N 
ATOM      3 H    PHE P   3      16.642  -8.737 -14.990  1.00 45.79 LIG 0.16  HD
ATOM      4  C   LEU P   2      18.364  -9.393 -14.459  1.00 46.01 LIG 0.24  C 
ATOM      5 O    LEU P   2      19.525  -9.073 -14.239  1.00 46.46 LIG-0.27  OA
BRANCH 4 6
ATOM      6  CA  LEU P   2      17.938 -10.924 -14.421  1.00 45.94 LIG 0.18  C 
BRANCH 6 7
ATOM      7  CB  LEU P   2      18.486 -11.736 -15.625  1.00 45.93 LIG 0.04  C 
BRANCH 7 8
ATOM      8  CG  LEU P   2      19.928 -11.524 -16.172  1.00 45.11 LIG-0.02  C 
ATOM      9  CD1 LEU P   2      20.612 -12.824 -16.654  1.00 44.79 LIG 0.01  C 
ATOM     10  CD2 LEU P   2      19.962 -10.483 -17.288  1.00 44.35 LIG 0.01  C 
ENDBRANCH 7 8
ENDBRANCH 6 7
BRANCH 6 11
ATOM     11  N   LEU P   2      16.462 -11.020 -14.381  1.00 46.17 LIG-0.35  N 
ATOM     12 H    LEU P   2      16.127 -11.371 -15.091  1.00 46.17 LIG 0.16  HD
ATOM     13  C   LEU P   1      15.706 -10.608 -13.354  1.00 46.12 LIG 0.25  C 
ATOM     14 O    LEU P   1      16.179 -10.157 -12.299  1.00 46.29 LIG-0.27  OA
BRANCH 13 15
ATOM     15  CA  LEU P   1      14.170 -10.723 -13.545  1.00 45.93 LIG 0.28  C 
BRANCH 15 16
ATOM     16  N   LEU P   1      13.577  -9.660 -14.417  1.00 46.34 LIG-0.07  N 
ATOM     17 H3   LEU P   1      13.128  -9.079 -13.914  1.00 46.34 LIG 0.28  HD
ATOM     18 H2   LEU P   1      13.022 -10.033 -15.005  1.00 46.34 LIG 0.28  HD
ATOM     19 H1   LEU P   1      14.227  -9.235 -14.852  1.00 46.34 LIG 0.28  HD
ENDBRANCH 15 16
BRANCH 15 20
ATOM     20  CB  LEU P   1      13.798 -12.115 -14.083  1.00 45.65 LIG 0.05  C 
BRANCH 20 21
ATOM     21  CG  LEU P   1      12.996 -12.979 -13.104  1.00 44.28 LIG-0.02  C 
ATOM     22  CD1 LEU P   1      13.417 -14.435 -13.176  1.00 42.49 LIG 0.01  C 
ATOM     23  CD2 LEU P   1      13.120 -12.455 -11.684  1.00 44.08 LIG 0.01  C 
ENDBRANCH 20 21
ENDBRANCH 15 20
ENDBRANCH 13 15
ENDBRANCH 6 11
ENDBRANCH 4 6
ENDBRANCH 1 2
BRANCH 1 24
ATOM     24  CB  PHE P   3      18.488  -6.235 -13.859  1.00 45.09 LIG 0.07  C 
BRANCH 24 25
ATOM     25  CG  PHE P   3      17.970  -6.136 -12.362  1.00 44.37 LIG-0.06  A 
ATOM     26  CD1 PHE P   3      17.868  -7.235 -11.473  1.00 43.10 LIG 0.01  A 
ATOM     27  CE1 PHE P   3      17.323  -7.061 -10.124  1.00 41.01 LIG 0.00  A 
ATOM     28  CZ  PHE P   3      16.865  -5.798  -9.701  1.00 41.66 LIG 0.00  A 
ATOM     29  CE2 PHE P   3      16.954  -4.733 -10.581  1.00 43.89 LIG 0.00  A 
ATOM     30  CD2 PHE P   3      17.486  -4.908 -11.899  1.00 44.25 LIG 0.01  A 
ENDBRANCH 24 25
ENDBRANCH 1 24
BRANCH 1 31
ATOM     31  C   PHE P   3      17.960  -6.995 -16.348  1.00 45.74 LIG 0.26  C 
ATOM     32 N    ASN P   4      17.161  -6.123 -16.842  1.00 46.65 LIG-0.24  NA
ATOM     33 O    PHE P   3      18.740  -7.748 -16.924  1.00 45.60 LIG-0.27  OA
BRANCH 32 34
ATOM     34  CA  ASN P   4      16.656  -5.656 -18.100  1.00 47.05 LIG 0.21  C 
BRANCH 34 35
ATOM     35  CB  ASN P   4      15.267  -6.165 -18.034  1.00 46.83 LIG 0.14  C 
BRANCH 35 36
ATOM     36  CG  ASN P   4      15.298  -7.636 -17.728  1.00 47.32 LIG 0.22  C 
ATOM     37  ND2 ASN P   4      14.689  -8.007 -16.601  1.00 46.99 LIG-0.37  N 
ATOM     38 22HD ASN P   4      14.320  -7.416 -16.097  1.00 46.99 LIG 0.16  HD
ATOM     39 21HD ASN P   4      14.666  -8.837 -16.379  1.00 46.99 LIG 0.16  HD
ATOM     40 OD1  ASN P   4      15.833  -8.448 -18.469  1.00 48.95 LIG-0.27  OA
ENDBRANCH 35 36
ENDBRANCH 34 35
BRANCH 34 41
ATOM     41  C   ASN P   4      16.556  -4.388 -18.851  1.00 47.23 LIG 0.24  C 
ATOM     42  N   ASP P   5      17.889  -4.145 -18.999  1.00 48.41 LIG-0.35  N 
ATOM     43 H    ASP P   5      18.417  -4.721 -18.641  1.00 48.41 LIG 0.16  HD
ATOM     44 O    ASN P   4      15.576  -3.761 -19.224  1.00 47.17 LIG-0.27  OA
BRANCH 42 45
ATOM     45  CA  ASP P   5      18.728  -3.135 -19.622  1.00 49.16 LIG 0.17  C 
BRANCH 45 46
ATOM     46  C   ASP P   5      20.177  -3.601 -19.778  1.00 49.66 LIG 0.22  C 
ATOM     47 O    ASP P   5      20.511  -4.734 -19.416  1.00 50.85 LIG-0.29  OA
ENDBRANCH 45 46
BRANCH 45 48
ATOM     48  CB  ASP P   5      18.670  -1.816 -18.772  1.00 49.44 LIG 0.15  C 
BRANCH 48 49
ATOM     49  CG  ASP P   5      19.881  -0.874 -18.696  1.00 49.12 LIG 0.17  C 
ATOM     50 OD1  ASP P   5      20.644  -0.956 -17.709  1.00 51.19 LIG-0.65  OA
ATOM     51 OD2  ASP P   5      20.063  -0.060 -19.618  1.00 49.06 LIG-0.65  OA
ENDBRANCH 48 49
ENDBRANCH 45 48
ENDBRANCH 42 45
ENDBRANCH 34 41
ENDBRANCH 32 34
ENDBRANCH 1 31
TORSDOF 20
ENDMDL
MODEL 39
USER: ADFR SOLUTION from run 10
USER: SCORE 16.294582 LL:  -3.372 LR: -13.602 RR:   0.000 FEB:  -7.636
USER: RMSD 7.503547
USER: SEED 346572
USER: STATUS no improvement in best 16 clusters for 5 generations
USER: GENES 22
USER: genes 0 Translation |==|  0.37859 0.63795 0.58312
USER: genes 1 Rotation |==|  0.14436 0.68664 0.64911 0.75779
USER: genes 2 Torsion [CB]-CA--N-[C] |==|  0.12600
USER: genes 3 Torsion [N]-C--CA-[N] |==|  0.45471
USER: genes 4 Torsion [C]-CA--CB-[CG] |==|  0.38027
USER: genes 5 Torsion [CA]-CB--CG-[CD1] |==|  0.93067
USER: genes 6 Torsion [C]-CA--N-[C] |==|  0.76957
USER: genes 7 Torsion [N]-C--CA-[N] |==|  0.08791
USER: genes 8 Torsion [C]-CA--N-[H3] |==|  0.46491
USER: genes 9 Torsion [C]-CA--CB-[CG] |==|  0.32309
USER: genes 10 Torsion [CA]-CB--CG-[CD1] |==|  0.96776
USER: genes 11 Torsion [N]-CA--CB-[CG] |==|  0.40749
USER: genes 12 Torsion [CA]-CB--CG-[CD1] |==|  0.24409
USER: genes 13 Torsion [N]-CA--C-[N] |==|  0.18277
USER: genes 14 Torsion [C]-N--CA-[C] |==|  0.67222
USER: genes 15 Torsion [N]-CA--CB-[CG] |==|  0.23844
USER: genes 16 Torsion [CA]-CB--CG-[OD1] |==|  0.38947
USER: genes 17 Torsion [N]-CA--C-[N] |==|  0.36796
USER: genes 18 Torsion [C]-N--CA-[C] |==|  0.53290
USER: genes 19 Torsion [N]-CA--C-[O] |==|  0.48039
USER: genes 20 Torsion [N]-CA--CB-[CG] |==|  0.09722
USER: genes 21 Torsion [CA]-CB--CG-[OD1] |==|  0.22940
ROOT
ATOM      1  CA  PHE P   3      16.598 -10.722 -11.796  1.00 45.52 LIG 0.18  C 
ENDROOT
BRANCH 1 2
ATOM      2  N   PHE P   3      16.610 -12.063 -12.504  1.00 45.79 LIG-0.35  N 
ATOM      3 H    PHE P   3      16.047 -12.071 -13.153  1.00 45.79 LIG 0.16  HD
ATOM      4  C   LEU P   2      17.346 -13.151 -12.246  1.00 46.01 LIG 0.24  C 
ATOM      5 O    LEU P   2      18.213 -13.148 -11.382  1.00 46.46 LIG-0.27  OA
BRANCH 4 6
ATOM      6  CA  LEU P   2      17.112 -14.448 -13.136  1.00 45.94 LIG 0.18  C 
BRANCH 6 7
ATOM      7  CB  LEU P   2      15.788 -15.185 -12.798  1.00 45.93 LIG 0.04  C 
BRANCH 7 8
ATOM      8  CG  LEU P   2      14.847 -15.736 -13.910  1.00 45.11 LIG-0.02  C 
ATOM      9  CD1 LEU P   2      14.983 -15.004 -15.264  1.00 44.79 LIG 0.01  C 
ATOM     10  CD2 LEU P   2      15.037 -17.237 -14.116  1.00 44.35 LIG 0.01  C 
ENDBRANCH 7 8
ENDBRANCH 6 7
BRANCH 6 11
ATOM     11  N   LEU P   2      18.256 -15.371 -12.965  1.00 46.17 LIG-0.35  N 
ATOM     12 H    LEU P   2      18.108 -15.990 -12.386  1.00 46.17 LIG 0.16  HD
ATOM     13  C   LEU P   1      19.414 -15.270 -13.633  1.00 46.12 LIG 0.25  C 
ATOM     14 O    LEU P   1      19.620 -14.420 -14.513  1.00 46.29 LIG-0.27  OA
BRANCH 13 15
ATOM     15  CA  LEU P   1      20.518 -16.290 -13.247  1.00 45.93 LIG 0.28  C 
BRANCH 15 16
ATOM     16  N   LEU P   1      19.997 -17.623 -12.803  1.00 46.34 LIG-0.07  N 
ATOM     17 H3   LEU P   1      20.667 -18.209 -12.774  1.00 46.34 LIG 0.28  HD
ATOM     18 H2   LEU P   1      19.379 -17.906 -13.377  1.00 46.34 LIG 0.28  HD
ATOM     19 H1   LEU P   1      19.637 -17.545 -11.993  1.00 46.34 LIG 0.28  HD
ENDBRANCH 15 16
BRANCH 15 20
ATOM     20  CB  LEU P   1      21.511 -16.472 -14.407  1.00 45.65 LIG 0.05  C 
BRANCH 20 21
ATOM     21  CG  LEU P   1      22.943 -16.023 -14.092  1.00 44.28 LIG-0.02  C 
ATOM     22  CD1 LEU P   1      23.005 -15.236 -12.797  1.00 42.49 LIG 0.01  C 
ATOM     23  CD2 LEU P   1      23.889 -17.210 -14.045  1.00 44.08 LIG 0.01  C 
ENDBRANCH 20 21
ENDBRANCH 15 20
ENDBRANCH 13 15
ENDBRANCH 6 11
ENDBRANCH 4 6
ENDBRANCH 1 2
BRANCH 1 24
ATOM     24  CB  PHE P   3      17.947 -10.039 -11.440  1.00 45.09 LIG 0.07  C 
BRANCH 24 25
ATOM     25  CG  PHE P   3      17.963  -8.453 -11.488  1.00 44.37 LIG-0.06  A 
ATOM     26  CD1 PHE P   3      17.614  -7.613 -10.401  1.00 43.10 LIG 0.01  A 
ATOM     27  CE1 PHE P   3      17.600  -6.155 -10.554  1.00 41.01 LIG 0.00  A 
ATOM     28  CZ  PHE P   3      17.910  -5.569 -11.796  1.00 41.66 LIG 0.00  A 
ATOM     29  CE2 PHE P   3      18.235  -6.397 -12.857  1.00 43.89 LIG 0.00  A 
ATOM     30  CD2 PHE P   3      18.245  -7.821 -12.703  1.00 44.25 LIG 0.01  A 
ENDBRANCH 24 25
ENDBRANCH 1 24
BRANCH 1 31
ATOM     31  C   PHE P   3      15.716 -10.065 -12.880  1.00 45.74 LIG 0.26  C 
ATOM     32 N    ASN P   4      14.619 -10.713 -12.743  1.00 46.65 LIG-0.24  NA
ATOM     33 O    PHE P   3      16.031  -9.243 -13.736  1.00 45.60 LIG-0.27  OA
BRANCH 32 34
ATOM     34  CA  ASN P   4      13.377 -10.962 -13.415  1.00 47.05 LIG 0.21  C 
BRANCH 34 35
ATOM     35  CB  ASN P   4      13.503 -12.414 -13.678  1.00 46.83 LIG 0.14  C 
BRANCH 35 36
ATOM     36  CG  ASN P   4      13.020 -13.173 -12.474  1.00 47.32 LIG 0.22  C 
ATOM     37  ND2 ASN P   4      13.344 -12.651 -11.291  1.00 46.99 LIG-0.37  N 
ATOM     38 22HD ASN P   4      13.812 -11.930 -11.252  1.00 46.99 LIG 0.16  HD
ATOM     39 21HD ASN P   4      13.087 -13.036 -10.566  1.00 46.99 LIG 0.16  HD
ATOM     40 OD1  ASN P   4      12.358 -14.196 -12.567  1.00 48.95 LIG-0.27  OA
ENDBRANCH 35 36
ENDBRANCH 34 35
BRANCH 34 41
ATOM     41  C   ASN P   4      11.934 -10.746 -13.190  1.00 47.23 LIG 0.24  C 
ATOM     42  N   ASP P   5      11.624 -10.219 -14.409  1.00 48.41 LIG-0.35  N 
ATOM     43 H    ASP P   5      12.281 -10.132 -14.956  1.00 48.41 LIG 0.16  HD
ATOM     44 O    ASN P   4      11.239 -10.976 -12.212  1.00 47.17 LIG-0.27  OA
BRANCH 42 45
ATOM     45  CA  ASP P   5      10.437  -9.733 -15.092  1.00 49.16 LIG 0.17  C 
BRANCH 45 46
ATOM     46  C   ASP P   5      10.677  -9.519 -16.588  1.00 49.66 LIG 0.22  C 
ATOM     47 O    ASP P   5       9.736  -9.234 -17.337  1.00 50.85 LIG-0.29  OA
ENDBRANCH 45 46
BRANCH 45 48
ATOM     48  CB  ASP P   5       9.964  -8.394 -14.422  1.00 49.44 LIG 0.15  C 
BRANCH 48 49
ATOM     49  CG  ASP P   5      10.982  -7.390 -13.863  1.00 49.12 LIG 0.17  C 
ATOM     50 OD1  ASP P   5      11.525  -6.585 -14.651  1.00 51.19 LIG-0.65  OA
ATOM     51 OD2  ASP P   5      11.236  -7.411 -12.646  1.00 49.06 LIG-0.65  OA
ENDBRANCH 48 49
ENDBRANCH 45 48
ENDBRANCH 42 45
ENDBRANCH 34 41
ENDBRANCH 32 34
ENDBRANCH 1 31
TORSDOF 20
ENDMDL
MODEL 40
USER: ADFR SOLUTION from run 150
USER: SCORE 16.360673 LL:  -4.499 LR: -13.600 RR:   0.000 FEB:  -7.634
USER: RMSD 9.719523
USER: SEED 149
USER: STATUS no improvement in best 14 clusters for 5 generations
USER: GENES 22
USER: genes 0 Translation |==|  0.40580 0.64587 0.57390
USER: genes 1 Rotation |==|  0.47073 0.35736 0.97027 0.58744
USER: genes 2 Torsion [CB]-CA--N-[C] |==|  0.30475
USER: genes 3 Torsion [N]-C--CA-[N] |==|  0.98452
USER: genes 4 Torsion [C]-CA--CB-[CG] |==|  0.17391
USER: genes 5 Torsion [CA]-CB--CG-[CD1] |==|  0.72967
USER: genes 6 Torsion [C]-CA--N-[C] |==|  0.76164
USER: genes 7 Torsion [N]-C--CA-[N] |==|  0.58999
USER: genes 8 Torsion [C]-CA--N-[H3] |==|  0.16093
USER: genes 9 Torsion [C]-CA--CB-[CG] |==|  0.29488
USER: genes 10 Torsion [CA]-CB--CG-[CD1] |==|  0.12543
USER: genes 11 Torsion [N]-CA--CB-[CG] |==|  0.89750
USER: genes 12 Torsion [CA]-CB--CG-[CD1] |==|  0.95359
USER: genes 13 Torsion [N]-CA--C-[N] |==|  0.19160
USER: genes 14 Torsion [C]-N--CA-[C] |==|  0.75367
USER: genes 15 Torsion [N]-CA--CB-[CG] |==|  0.18720
USER: genes 16 Torsion [CA]-CB--CG-[OD1] |==|  0.13301
USER: genes 17 Torsion [N]-CA--C-[N] |==|  0.01648
USER: genes 18 Torsion [C]-N--CA-[C] |==|  0.42660
USER: genes 19 Torsion [N]-CA--C-[O] |==|  0.06421
USER: genes 20 Torsion [N]-CA--CB-[CG] |==|  0.61849
USER: genes 21 Torsion [CA]-CB--CG-[OD1] |==|  0.67661
ROOT
ATOM      1  CA  PHE P   3      17.414 -10.484 -12.073  1.00 45.52 LIG 0.18  C 
ENDROOT
BRANCH 1 2
ATOM      2  N   PHE P   3      16.642 -10.078 -13.314  1.00 45.79 LIG-0.35  N 
ATOM      3 H    PHE P   3      15.796 -10.085 -13.162  1.00 45.79 LIG 0.16  HD
ATOM      4  C   LEU P   2      17.100  -9.740 -14.525  1.00 46.01 LIG 0.24  C 
ATOM      5 O    LEU P   2      18.299  -9.643 -14.753  1.00 46.46 LIG-0.27  OA
BRANCH 4 6
ATOM      6  CA  LEU P   2      16.043  -9.400 -15.664  1.00 45.94 LIG 0.18  C 
BRANCH 6 7
ATOM      7  CB  LEU P   2      16.142  -7.935 -16.166  1.00 45.93 LIG 0.04  C 
BRANCH 7 8
ATOM      8  CG  LEU P   2      17.423  -7.387 -16.859  1.00 45.11 LIG-0.02  C 
ATOM      9  CD1 LEU P   2      18.367  -6.614 -15.911  1.00 44.79 LIG 0.01  C 
ATOM     10  CD2 LEU P   2      18.201  -8.496 -17.564  1.00 44.35 LIG 0.01  C 
ENDBRANCH 7 8
ENDBRANCH 6 7
BRANCH 6 11
ATOM     11  N   LEU P   2      14.678  -9.667 -15.159  1.00 46.17 LIG-0.35  N 
ATOM     12 H    LEU P   2      14.298  -8.969 -14.830  1.00 46.17 LIG 0.16  HD
ATOM     13  C   LEU P   1      14.078 -10.865 -15.200  1.00 46.12 LIG 0.25  C 
ATOM     14 O    LEU P   1      14.591 -11.865 -15.726  1.00 46.29 LIG-0.27  OA
BRANCH 13 15
ATOM     15  CA  LEU P   1      12.675 -10.950 -14.542  1.00 45.93 LIG 0.28  C 
BRANCH 15 16
ATOM     16  N   LEU P   1      12.365 -12.278 -13.922  1.00 46.34 LIG-0.07  N 
ATOM     17 H3   LEU P   1      12.979 -12.470 -13.307  1.00 46.34 LIG 0.28  HD
ATOM     18 H2   LEU P   1      12.370 -12.908 -14.551  1.00 46.34 LIG 0.28  HD
ATOM     19 H1   LEU P   1      11.562 -12.247 -13.540  1.00 46.34 LIG 0.28  HD
ENDBRANCH 15 16
BRANCH 15 20
ATOM     20  CB  LEU P   1      12.499  -9.829 -13.505  1.00 45.65 LIG 0.05  C 
BRANCH 20 21
ATOM     21  CG  LEU P   1      11.573  -8.692 -13.951  1.00 44.28 LIG-0.02  C 
ATOM     22  CD1 LEU P   1      10.306  -9.228 -14.592  1.00 42.49 LIG 0.01  C 
ATOM     23  CD2 LEU P   1      11.239  -7.773 -12.790  1.00 44.08 LIG 0.01  C 
ENDBRANCH 20 21
ENDBRANCH 15 20
ENDBRANCH 13 15
ENDBRANCH 6 11
ENDBRANCH 4 6
ENDBRANCH 1 2
BRANCH 1 24
ATOM     24  CB  PHE P   3      17.464  -9.514 -10.860  1.00 45.09 LIG 0.07  C 
BRANCH 24 25
ATOM     25  CG  PHE P   3      17.549  -7.967 -11.204  1.00 44.37 LIG-0.06  A 
ATOM     26  CD1 PHE P   3      17.915  -7.445 -12.469  1.00 43.10 LIG 0.01  A 
ATOM     27  CE1 PHE P   3      18.024  -5.998 -12.681  1.00 41.01 LIG 0.00  A 
ATOM     28  CZ  PHE P   3      17.790  -5.106 -11.617  1.00 41.66 LIG 0.00  A 
ATOM     29  CE2 PHE P   3      17.448  -5.625 -10.380  1.00 43.89 LIG 0.00  A 
ATOM     30  CD2 PHE P   3      17.344  -7.039 -10.177  1.00 44.25 LIG 0.01  A 
ENDBRANCH 24 25
ENDBRANCH 1 24
BRANCH 1 31
ATOM     31  C   PHE P   3      16.630 -11.804 -11.915  1.00 45.74 LIG 0.26  C 
ATOM     32 N    ASN P   4      17.048 -12.471 -12.926  1.00 46.65 LIG-0.24  NA
ATOM     33 O    PHE P   3      15.740 -12.080 -11.116  1.00 45.60 LIG-0.27  OA
BRANCH 32 34
ATOM     34  CA  ASN P   4      16.738 -13.637 -13.701  1.00 47.05 LIG 0.21  C 
BRANCH 34 35
ATOM     35  CB  ASN P   4      17.136 -13.173 -15.050  1.00 46.83 LIG 0.14  C 
BRANCH 35 36
ATOM     36  CG  ASN P   4      18.628 -12.993 -15.085  1.00 47.32 LIG 0.22  C 
ATOM     37  ND2 ASN P   4      19.060 -11.837 -15.589  1.00 46.99 LIG-0.37  N 
ATOM     38 22HD ASN P   4      18.496 -11.255 -15.878  1.00 46.99 LIG 0.16  HD
ATOM     39 21HD ASN P   4      19.904 -11.673 -15.625  1.00 46.99 LIG 0.16  HD
ATOM     40 OD1  ASN P   4      19.400 -13.842 -14.665  1.00 48.95 LIG-0.27  OA
ENDBRANCH 35 36
ENDBRANCH 34 35
BRANCH 34 41
ATOM     41  C   ASN P   4      17.042 -15.082 -13.697  1.00 47.23 LIG 0.24  C 
ATOM     42  N   ASP P   5      17.722 -15.134 -12.516  1.00 48.41 LIG-0.35  N 
ATOM     43 H    ASP P   5      17.816 -14.385 -12.105  1.00 48.41 LIG 0.16  HD
ATOM     44 O    ASN P   4      16.762 -15.955 -14.505  1.00 47.17 LIG-0.27  OA
BRANCH 42 45
ATOM     45  CA  ASP P   5      18.372 -16.146 -11.702  1.00 49.16 LIG 0.17  C 
BRANCH 45 46
ATOM     46  C   ASP P   5      19.490 -15.563 -10.835  1.00 49.66 LIG 0.22  C 
ATOM     47 O    ASP P   5      19.490 -14.362 -10.540  1.00 50.85 LIG-0.29  OA
ENDBRANCH 45 46
BRANCH 45 48
ATOM     48  CB  ASP P   5      18.942 -17.275 -12.633  1.00 49.44 LIG 0.15  C 
BRANCH 48 49
ATOM     49  CG  ASP P   5      18.792 -18.756 -12.258  1.00 49.12 LIG 0.17  C 
ATOM     50 OD1  ASP P   5      19.824 -19.427 -12.039  1.00 51.19 LIG-0.65  OA
ATOM     51 OD2  ASP P   5      17.649 -19.242 -12.186  1.00 49.06 LIG-0.65  OA
ENDBRANCH 48 49
ENDBRANCH 45 48
ENDBRANCH 42 45
ENDBRANCH 34 41
ENDBRANCH 32 34
ENDBRANCH 1 31
TORSDOF 20
ENDMDL
MODEL 41
USER: ADFR SOLUTION from run 13
USER: SCORE 18.154011 LL:  -6.148 LR: -13.586 RR:   0.000 FEB:  -7.620
USER: RMSD 8.975818
USER: SEED 775530
USER: STATUS no improvement in best 8 clusters for 5 generations
USER: GENES 22
USER: genes 0 Translation |==|  0.41692 0.70011 0.47436
USER: genes 1 Rotation |==|  0.25859 0.45901 0.06411 0.50623
USER: genes 2 Torsion [CB]-CA--N-[C] |==|  0.25000
USER: genes 3 Torsion [N]-C--CA-[N] |==|  0.77786
USER: genes 4 Torsion [C]-CA--CB-[CG] |==|  0.46296
USER: genes 5 Torsion [CA]-CB--CG-[CD1] |==|  0.90644
USER: genes 6 Torsion [C]-CA--N-[C] |==|  0.66209
USER: genes 7 Torsion [N]-C--CA-[N] |==|  0.82429
USER: genes 8 Torsion [C]-CA--N-[H3] |==|  0.28757
USER: genes 9 Torsion [C]-CA--CB-[CG] |==|  0.26336
USER: genes 10 Torsion [CA]-CB--CG-[CD1] |==|  0.32037
USER: genes 11 Torsion [N]-CA--CB-[CG] |==|  0.18762
USER: genes 12 Torsion [CA]-CB--CG-[CD1] |==|  0.00335
USER: genes 13 Torsion [N]-CA--C-[N] |==|  0.99088
USER: genes 14 Torsion [C]-N--CA-[C] |==|  0.62094
USER: genes 15 Torsion [N]-CA--CB-[CG] |==|  0.63928
USER: genes 16 Torsion [CA]-CB--CG-[OD1] |==|  0.61509
USER: genes 17 Torsion [N]-CA--C-[N] |==|  0.29356
USER: genes 18 Torsion [C]-N--CA-[C] |==|  0.64661
USER: genes 19 Torsion [N]-CA--C-[O] |==|  0.01355
USER: genes 20 Torsion [N]-CA--CB-[CG] |==|  0.98306
USER: genes 21 Torsion [CA]-CB--CG-[OD1] |==|  0.19072
ROOT
ATOM      1  CA  PHE P   3      17.747  -8.857 -15.059  1.00 45.52 LIG 0.18  C 
ENDROOT
BRANCH 1 2
ATOM      2  N   PHE P   3      16.434  -9.570 -14.799  1.00 45.79 LIG-0.35  N 
ATOM      3 H    PHE P   3      16.414  -9.887 -14.000  1.00 45.79 LIG 0.16  HD
ATOM      4  C   LEU P   2      15.388  -9.745 -15.615  1.00 46.01 LIG 0.24  C 
ATOM      5 O    LEU P   2      15.352  -9.239 -16.728  1.00 46.46 LIG-0.27  OA
BRANCH 4 6
ATOM      6  CA  LEU P   2      14.147 -10.585 -15.081  1.00 45.94 LIG 0.18  C 
BRANCH 6 7
ATOM      7  CB  LEU P   2      13.764 -10.237 -13.617  1.00 45.93 LIG 0.04  C 
BRANCH 7 8
ATOM      8  CG  LEU P   2      12.416 -10.696 -12.989  1.00 45.11 LIG-0.02  C 
ATOM      9  CD1 LEU P   2      11.242 -10.746 -13.992  1.00 44.79 LIG 0.01  C 
ATOM     10  CD2 LEU P   2      12.551 -12.047 -12.289  1.00 44.35 LIG 0.01  C 
ENDBRANCH 7 8
ENDBRANCH 6 7
BRANCH 6 11
ATOM     11  N   LEU P   2      14.452 -12.029 -15.190  1.00 46.17 LIG-0.35  N 
ATOM     12 H    LEU P   2      15.155 -12.260 -14.752  1.00 46.17 LIG 0.16  HD
ATOM     13  C   LEU P   1      13.719 -12.904 -15.892  1.00 46.12 LIG 0.25  C 
ATOM     14 O    LEU P   1      12.668 -12.597 -16.477  1.00 46.29 LIG-0.27  OA
BRANCH 13 15
ATOM     15  CA  LEU P   1      14.255 -14.359 -15.945  1.00 45.93 LIG 0.28  C 
BRANCH 15 16
ATOM     16  N   LEU P   1      15.585 -14.502 -16.620  1.00 46.34 LIG-0.07  N 
ATOM     17 H3   LEU P   1      16.220 -14.611 -16.006  1.00 46.34 LIG 0.28  HD
ATOM     18 H2   LEU P   1      15.756 -13.769 -17.097  1.00 46.34 LIG 0.28  HD
ATOM     19 H1   LEU P   1      15.569 -15.210 -17.159  1.00 46.34 LIG 0.28  HD
ENDBRANCH 15 16
BRANCH 15 20
ATOM     20  CB  LEU P   1      14.314 -14.962 -14.532  1.00 45.65 LIG 0.05  C 
BRANCH 20 21
ATOM     21  CG  LEU P   1      13.081 -15.784 -14.141  1.00 44.28 LIG-0.02  C 
ATOM     22  CD1 LEU P   1      13.433 -17.245 -13.930  1.00 42.49 LIG 0.01  C 
ATOM     23  CD2 LEU P   1      12.411 -15.210 -12.905  1.00 44.08 LIG 0.01  C 
ENDBRANCH 20 21
ENDBRANCH 15 20
ENDBRANCH 13 15
ENDBRANCH 6 11
ENDBRANCH 4 6
ENDBRANCH 1 2
BRANCH 1 24
ATOM     24  CB  PHE P   3      17.863  -7.340 -14.744  1.00 45.09 LIG 0.07  C 
BRANCH 24 25
ATOM     25  CG  PHE P   3      17.794  -6.937 -13.210  1.00 44.37 LIG-0.06  A 
ATOM     26  CD1 PHE P   3      17.662  -7.860 -12.143  1.00 43.10 LIG 0.01  A 
ATOM     27  CE1 PHE P   3      17.547  -7.393 -10.758  1.00 41.01 LIG 0.00  A 
ATOM     28  CZ  PHE P   3      17.539  -6.014 -10.472  1.00 41.66 LIG 0.00  A 
ATOM     29  CE2 PHE P   3      17.652  -5.119 -11.522  1.00 43.89 LIG 0.00  A 
ATOM     30  CD2 PHE P   3      17.763  -5.579 -12.874  1.00 44.25 LIG 0.01  A 
ENDBRANCH 24 25
ENDBRANCH 1 24
BRANCH 1 31
ATOM     31  C   PHE P   3      18.552  -9.843 -14.186  1.00 45.74 LIG 0.26  C 
ATOM     32 N    ASN P   4      17.622 -10.597 -13.731  1.00 46.65 LIG-0.24  NA
ATOM     33 O    PHE P   3      19.745  -9.818 -13.895  1.00 45.60 LIG-0.27  OA
BRANCH 32 34
ATOM     34  CA  ASN P   4      17.378 -11.584 -12.719  1.00 47.05 LIG 0.21  C 
BRANCH 34 35
ATOM     35  CB  ASN P   4      16.770 -10.738 -11.666  1.00 46.83 LIG 0.14  C 
BRANCH 35 36
ATOM     36  CG  ASN P   4      17.469 -11.003 -10.362  1.00 47.32 LIG 0.22  C 
ATOM     37  ND2 ASN P   4      18.796 -11.110 -10.426  1.00 46.99 LIG-0.37  N 
ATOM     38 22HD ASN P   4      19.198 -11.038 -11.183  1.00 46.99 LIG 0.16  HD
ATOM     39 21HD ASN P   4      19.251 -11.251  -9.710  1.00 46.99 LIG 0.16  HD
ATOM     40 OD1  ASN P   4      16.865 -11.100  -9.303  1.00 48.95 LIG-0.27  OA
ENDBRANCH 35 36
ENDBRANCH 34 35
BRANCH 34 41
ATOM     41  C   ASN P   4      16.703 -12.890 -12.586  1.00 47.23 LIG 0.24  C 
ATOM     42  N   ASP P   5      17.814 -13.678 -12.538  1.00 48.41 LIG-0.35  N 
ATOM     43 H    ASP P   5      18.567 -13.269 -12.607  1.00 48.41 LIG 0.16  HD
ATOM     44 O    ASN P   4      15.515 -13.169 -12.531  1.00 47.17 LIG-0.27  OA
BRANCH 42 45
ATOM     45  CA  ASP P   5      18.116 -15.093 -12.397  1.00 49.16 LIG 0.17  C 
BRANCH 45 46
ATOM     46  C   ASP P   5      19.110 -15.364 -11.266  1.00 49.66 LIG 0.22  C 
ATOM     47 O    ASP P   5      19.492 -14.442 -10.536  1.00 50.85 LIG-0.29  OA
ENDBRANCH 45 46
BRANCH 45 48
ATOM     48  CB  ASP P   5      18.678 -15.643 -13.757  1.00 49.44 LIG 0.15  C 
BRANCH 48 49
ATOM     49  CG  ASP P   5      18.706 -14.759 -15.012  1.00 49.12 LIG 0.17  C 
ATOM     50 OD1  ASP P   5      19.489 -13.784 -15.042  1.00 51.19 LIG-0.65  OA
ATOM     51 OD2  ASP P   5      17.948 -15.038 -15.957  1.00 49.06 LIG-0.65  OA
ENDBRANCH 48 49
ENDBRANCH 45 48
ENDBRANCH 42 45
ENDBRANCH 34 41
ENDBRANCH 32 34
ENDBRANCH 1 31
TORSDOF 20
ENDMDL
MODEL 42
USER: ADFR SOLUTION from run 20
USER: SCORE 16.165992 LL:  -4.118 LR: -13.566 RR:   0.000 FEB:  -7.600
USER: RMSD 9.750729
USER: SEED 495590
USER: STATUS no improvement in best 10 clusters for 5 generations
USER: GENES 22
USER: genes 0 Translation |==|  0.42356 0.72427 0.48942
USER: genes 1 Rotation |==|  0.12389 0.48416 0.17160 0.52107
USER: genes 2 Torsion [CB]-CA--N-[C] |==|  0.50000
USER: genes 3 Torsion [N]-C--CA-[N] |==|  0.38615
USER: genes 4 Torsion [C]-CA--CB-[CG] |==|  0.19885
USER: genes 5 Torsion [CA]-CB--CG-[CD1] |==|  0.72694
USER: genes 6 Torsion [C]-CA--N-[C] |==|  0.75331
USER: genes 7 Torsion [N]-C--CA-[N] |==|  0.60904
USER: genes 8 Torsion [C]-CA--N-[H3] |==|  0.34484
USER: genes 9 Torsion [C]-CA--CB-[CG] |==|  0.23449
USER: genes 10 Torsion [CA]-CB--CG-[CD1] |==|  0.00554
USER: genes 11 Torsion [N]-CA--CB-[CG] |==|  0.03432
USER: genes 12 Torsion [CA]-CB--CG-[CD1] |==|  0.13627
USER: genes 13 Torsion [N]-CA--C-[N] |==|  0.36872
USER: genes 14 Torsion [C]-N--CA-[C] |==|  0.59769
USER: genes 15 Torsion [N]-CA--CB-[CG] |==|  0.72630
USER: genes 16 Torsion [CA]-CB--CG-[OD1] |==|  0.94326
USER: genes 17 Torsion [N]-CA--C-[N] |==|  0.88264
USER: genes 18 Torsion [C]-N--CA-[C] |==|  0.89668
USER: genes 19 Torsion [N]-CA--C-[O] |==|  0.96696
USER: genes 20 Torsion [N]-CA--CB-[CG] |==|  0.11354
USER: genes 21 Torsion [CA]-CB--CG-[OD1] |==|  0.31607
ROOT
ATOM      1  CA  PHE P   3      17.947  -8.132 -14.607  1.00 45.52 LIG 0.18  C 
ENDROOT
BRANCH 1 2
ATOM      2  N   PHE P   3      17.066  -8.854 -13.605  1.00 45.79 LIG-0.35  N 
ATOM      3 H    PHE P   3      16.853  -8.332 -12.956  1.00 45.79 LIG 0.16  HD
ATOM      4  C   LEU P   2      16.620 -10.115 -13.622  1.00 46.01 LIG 0.24  C 
ATOM      5 O    LEU P   2      16.837 -10.859 -14.569  1.00 46.46 LIG-0.27  OA
BRANCH 4 6
ATOM      6  CA  LEU P   2      15.738 -10.620 -12.398  1.00 45.94 LIG 0.18  C 
BRANCH 6 7
ATOM      7  CB  LEU P   2      16.556 -11.423 -11.352  1.00 45.93 LIG 0.04  C 
BRANCH 7 8
ATOM      8  CG  LEU P   2      17.585 -10.735 -10.408  1.00 45.11 LIG-0.02  C 
ATOM      9  CD1 LEU P   2      19.049 -10.847 -10.890  1.00 44.79 LIG 0.01  C 
ATOM     10  CD2 LEU P   2      17.235  -9.269 -10.165  1.00 44.35 LIG 0.01  C 
ENDBRANCH 7 8
ENDBRANCH 6 7
BRANCH 6 11
ATOM     11  N   LEU P   2      14.624 -11.450 -12.909  1.00 46.17 LIG-0.35  N 
ATOM     12 H    LEU P   2      14.817 -12.287 -12.949  1.00 46.17 LIG 0.16  HD
ATOM     13  C   LEU P   1      13.428 -10.966 -13.275  1.00 46.12 LIG 0.25  C 
ATOM     14 O    LEU P   1      13.115  -9.771 -13.165  1.00 46.29 LIG-0.27  OA
BRANCH 13 15
ATOM     15  CA  LEU P   1      12.425 -11.994 -13.861  1.00 45.93 LIG 0.28  C 
BRANCH 15 16
ATOM     16  N   LEU P   1      11.617 -11.480 -15.013  1.00 46.34 LIG-0.07  N 
ATOM     17 H3   LEU P   1      11.724 -12.018 -15.715  1.00 46.34 LIG 0.28  HD
ATOM     18 H2   LEU P   1      11.890 -10.660 -15.224  1.00 46.34 LIG 0.28  HD
ATOM     19 H1   LEU P   1      10.757 -11.458 -14.786  1.00 46.34 LIG 0.28  HD
ENDBRANCH 15 16
BRANCH 15 20
ATOM     20  CB  LEU P   1      13.153 -13.288 -14.263  1.00 45.65 LIG 0.05  C 
BRANCH 20 21
ATOM     21  CG  LEU P   1      13.358 -14.283 -13.115  1.00 44.28 LIG-0.02  C 
ATOM     22  CD1 LEU P   1      12.740 -13.777 -11.825  1.00 42.49 LIG 0.01  C 
ATOM     23  CD2 LEU P   1      12.805 -15.651 -13.474  1.00 44.08 LIG 0.01  C 
ENDBRANCH 20 21
ENDBRANCH 15 20
ENDBRANCH 13 15
ENDBRANCH 6 11
ENDBRANCH 4 6
ENDBRANCH 1 2
BRANCH 1 24
ATOM     24  CB  PHE P   3      18.327  -6.647 -14.353  1.00 45.09 LIG 0.07  C 
BRANCH 24 25
ATOM     25  CG  PHE P   3      18.009  -6.082 -12.904  1.00 44.37 LIG-0.06  A 
ATOM     26  CD1 PHE P   3      18.366  -6.729 -11.695  1.00 43.10 LIG 0.01  A 
ATOM     27  CE1 PHE P   3      17.979  -6.162 -10.399  1.00 41.01 LIG 0.00  A 
ATOM     28  CZ  PHE P   3      17.222  -4.976 -10.341  1.00 41.66 LIG 0.00  A 
ATOM     29  CE2 PHE P   3      16.865  -4.358 -11.528  1.00 43.89 LIG 0.00  A 
ATOM     30  CD2 PHE P   3      17.243  -4.917 -12.791  1.00 44.25 LIG 0.01  A 
ENDBRANCH 24 25
ENDBRANCH 1 24
BRANCH 1 31
ATOM     31  C   PHE P   3      19.064  -9.193 -14.515  1.00 45.74 LIG 0.26  C 
ATOM     32 N    ASN P   4      19.318  -9.404 -15.753  1.00 46.65 LIG-0.24  NA
ATOM     33 O    PHE P   3      19.491  -9.778 -13.523  1.00 45.60 LIG-0.27  OA
BRANCH 32 34
ATOM     34  CA  ASN P   4      19.994 -10.332 -16.612  1.00 47.05 LIG 0.21  C 
BRANCH 34 35
ATOM     35  CB  ASN P   4      18.907 -11.306 -16.859  1.00 46.83 LIG 0.14  C 
BRANCH 35 36
ATOM     36  CG  ASN P   4      19.085 -12.482 -15.942  1.00 47.32 LIG 0.22  C 
ATOM     37  ND2 ASN P   4      18.002 -13.236 -15.747  1.00 46.99 LIG-0.37  N 
ATOM     38 22HD ASN P   4      17.259 -13.028 -16.129  1.00 46.99 LIG 0.16  HD
ATOM     39 21HD ASN P   4      18.046 -13.929 -15.240  1.00 46.99 LIG 0.16  HD
ATOM     40 OD1  ASN P   4      20.157 -12.747 -15.416  1.00 48.95 LIG-0.27  OA
ENDBRANCH 35 36
ENDBRANCH 34 35
BRANCH 34 41
ATOM     41  C   ASN P   4      20.773 -10.313 -17.866  1.00 47.23 LIG 0.24  C 
ATOM     42  N   ASP P   5      19.997  -9.436 -18.564  1.00 48.41 LIG-0.35  N 
ATOM     43 H    ASP P   5      19.300  -9.145 -18.153  1.00 48.41 LIG 0.16  HD
ATOM     44 O    ASN P   4      21.799 -10.902 -18.174  1.00 47.17 LIG-0.27  OA
BRANCH 42 45
ATOM     45  CA  ASP P   5      20.004  -8.813 -19.876  1.00 49.16 LIG 0.17  C 
BRANCH 45 46
ATOM     46  C   ASP P   5      21.418  -8.457 -20.341  1.00 49.66 LIG 0.22  C 
ATOM     47 O    ASP P   5      22.366  -8.498 -19.548  1.00 50.85 LIG-0.29  OA
ENDBRANCH 45 46
BRANCH 45 48
ATOM     48  CB  ASP P   5      19.104  -7.526 -19.846  1.00 49.44 LIG 0.15  C 
BRANCH 48 49
ATOM     49  CG  ASP P   5      19.130  -6.575 -18.640  1.00 49.12 LIG 0.17  C 
ATOM     50 OD1  ASP P   5      19.578  -5.418 -18.799  1.00 51.19 LIG-0.65  OA
ATOM     51 OD2  ASP P   5      18.709  -6.986 -17.545  1.00 49.06 LIG-0.65  OA
ENDBRANCH 48 49
ENDBRANCH 45 48
ENDBRANCH 42 45
ENDBRANCH 34 41
ENDBRANCH 32 34
ENDBRANCH 1 31
TORSDOF 20
ENDMDL
MODEL 43
USER: ADFR SOLUTION from run 15
USER: SCORE 16.157196 LL:  -3.499 LR: -13.563 RR:   0.000 FEB:  -7.597
USER: RMSD 11.113925
USER: SEED 936689
USER: STATUS no improvement in best 14 clusters for 5 generations
USER: GENES 22
USER: genes 0 Translation |==|  0.41288 0.75786 0.47965
USER: genes 1 Rotation |==|  0.10407 0.65215 0.27653 0.64197
USER: genes 2 Torsion [CB]-CA--N-[C] |==|  0.87642
USER: genes 3 Torsion [N]-C--CA-[N] |==|  0.07005
USER: genes 4 Torsion [C]-CA--CB-[CG] |==|  0.46310
USER: genes 5 Torsion [CA]-CB--CG-[CD1] |==|  0.96699
USER: genes 6 Torsion [C]-CA--N-[C] |==|  0.65777
USER: genes 7 Torsion [N]-C--CA-[N] |==|  0.33830
USER: genes 8 Torsion [C]-CA--N-[H3] |==|  0.56918
USER: genes 9 Torsion [C]-CA--CB-[CG] |==|  0.74055
USER: genes 10 Torsion [CA]-CB--CG-[CD1] |==|  0.21224
USER: genes 11 Torsion [N]-CA--CB-[CG] |==|  0.87822
USER: genes 12 Torsion [CA]-CB--CG-[CD1] |==|  0.71183
USER: genes 13 Torsion [N]-CA--C-[N] |==|  0.41598
USER: genes 14 Torsion [C]-N--CA-[C] |==|  0.67213
USER: genes 15 Torsion [N]-CA--CB-[CG] |==|  0.23057
USER: genes 16 Torsion [CA]-CB--CG-[OD1] |==|  0.79692
USER: genes 17 Torsion [N]-CA--C-[N] |==|  0.37276
USER: genes 18 Torsion [C]-N--CA-[C] |==|  0.18574
USER: genes 19 Torsion [N]-CA--C-[O] |==|  0.12823
USER: genes 20 Torsion [N]-CA--CB-[CG] |==|  0.95577
USER: genes 21 Torsion [CA]-CB--CG-[OD1] |==|  0.82969
ROOT
ATOM      1  CA  PHE P   3      17.626  -7.124 -14.900  1.00 45.52 LIG 0.18  C 
ENDROOT
BRANCH 1 2
ATOM      2  N   PHE P   3      16.904  -8.358 -14.393  1.00 45.79 LIG-0.35  N 
ATOM      3 H    PHE P   3      16.092  -8.372 -14.675  1.00 45.79 LIG 0.16  HD
ATOM      4  C   LEU P   2      17.359  -9.348 -13.616  1.00 46.01 LIG 0.24  C 
ATOM      5 O    LEU P   2      18.530  -9.399 -13.264  1.00 46.46 LIG-0.27  OA
BRANCH 4 6
ATOM      6  CA  LEU P   2      16.350 -10.505 -13.201  1.00 45.94 LIG 0.18  C 
BRANCH 6 7
ATOM      7  CB  LEU P   2      17.044 -11.884 -13.034  1.00 45.93 LIG 0.04  C 
BRANCH 7 8
ATOM      8  CG  LEU P   2      16.333 -13.085 -12.347  1.00 45.11 LIG-0.02  C 
ATOM      9  CD1 LEU P   2      15.031 -12.702 -11.607  1.00 44.79 LIG 0.01  C 
ATOM     10  CD2 LEU P   2      16.048 -14.214 -13.336  1.00 44.35 LIG 0.01  C 
ENDBRANCH 7 8
ENDBRANCH 6 7
BRANCH 6 11
ATOM     11  N   LEU P   2      15.276 -10.604 -14.214  1.00 46.17 LIG-0.35  N 
ATOM     12 H    LEU P   2      15.574 -10.740 -15.009  1.00 46.17 LIG 0.16  HD
ATOM     13  C   LEU P   1      13.968 -10.495 -13.940  1.00 46.12 LIG 0.25  C 
ATOM     14 O    LEU P   1      13.522 -10.360 -12.790  1.00 46.29 LIG-0.27  OA
BRANCH 13 15
ATOM     15  CA  LEU P   1      13.008 -10.547 -15.158  1.00 45.93 LIG 0.28  C 
BRANCH 15 16
ATOM     16  N   LEU P   1      11.990 -11.644 -15.094  1.00 46.34 LIG-0.07  N 
ATOM     17 H3   LEU P   1      11.728 -11.855 -15.919  1.00 46.34 LIG 0.28  HD
ATOM     18 H2   LEU P   1      11.287 -11.370 -14.621  1.00 46.34 LIG 0.28  HD
ATOM     19 H1   LEU P   1      12.349 -12.359 -14.705  1.00 46.34 LIG 0.28  HD
ENDBRANCH 15 16
BRANCH 15 20
ATOM     20  CB  LEU P   1      12.310  -9.190 -15.350  1.00 45.65 LIG 0.05  C 
BRANCH 20 21
ATOM     21  CG  LEU P   1      10.946  -9.076 -14.661  1.00 44.28 LIG-0.02  C 
ATOM     22  CD1 LEU P   1      11.096  -8.869 -13.166  1.00 42.49 LIG 0.01  C 
ATOM     23  CD2 LEU P   1      10.115  -7.964 -15.276  1.00 44.08 LIG 0.01  C 
ENDBRANCH 20 21
ENDBRANCH 15 20
ENDBRANCH 13 15
ENDBRANCH 6 11
ENDBRANCH 4 6
ENDBRANCH 1 2
BRANCH 1 24
ATOM     24  CB  PHE P   3      18.514  -6.308 -13.921  1.00 45.09 LIG 0.07  C 
BRANCH 24 25
ATOM     25  CG  PHE P   3      17.903  -6.040 -12.481  1.00 44.37 LIG-0.06  A 
ATOM     26  CD1 PHE P   3      17.355  -4.803 -12.059  1.00 43.10 LIG 0.01  A 
ATOM     27  CE1 PHE P   3      16.865  -4.628 -10.688  1.00 41.01 LIG 0.00  A 
ATOM     28  CZ  PHE P   3      16.958  -5.684  -9.761  1.00 41.66 LIG 0.00  A 
ATOM     29  CE2 PHE P   3      17.509  -6.884 -10.177  1.00 43.89 LIG 0.00  A 
ATOM     30  CD2 PHE P   3      17.988  -7.050 -11.517  1.00 44.25 LIG 0.01  A 
ENDBRANCH 24 25
ENDBRANCH 1 24
BRANCH 1 31
ATOM     31  C   PHE P   3      18.325  -7.899 -16.038  1.00 45.74 LIG 0.26  C 
ATOM     32 N    ASN P   4      18.445  -6.987 -16.931  1.00 46.65 LIG-0.24  NA
ATOM     33 O    PHE P   3      18.568  -9.100 -16.117  1.00 45.60 LIG-0.27  OA
BRANCH 32 34
ATOM     34  CA  ASN P   4      18.736  -6.820 -18.325  1.00 47.05 LIG 0.21  C 
BRANCH 34 35
ATOM     35  CB  ASN P   4      17.443  -6.277 -18.802  1.00 46.83 LIG 0.14  C 
BRANCH 35 36
ATOM     36  CG  ASN P   4      17.410  -4.796 -18.546  1.00 47.32 LIG 0.22  C 
ATOM     37  ND2 ASN P   4      17.522  -4.019 -19.624  1.00 46.99 LIG-0.37  N 
ATOM     38 22HD ASN P   4      17.617  -4.373 -20.402  1.00 46.99 LIG 0.16  HD
ATOM     39 21HD ASN P   4      17.499  -3.163 -19.541  1.00 46.99 LIG 0.16  HD
ATOM     40 OD1  ASN P   4      17.273  -4.328 -17.425  1.00 48.95 LIG-0.27  OA
ENDBRANCH 35 36
ENDBRANCH 34 35
BRANCH 34 41
ATOM     41  C   ASN P   4      19.753  -6.166 -19.173  1.00 47.23 LIG 0.24  C 
ATOM     42  N   ASP P   5      19.972  -7.195 -20.040  1.00 48.41 LIG-0.35  N 
ATOM     43 H    ASP P   5      19.522  -7.913 -19.891  1.00 48.41 LIG 0.16  HD
ATOM     44 O    ASN P   4      20.239  -5.047 -19.112  1.00 47.17 LIG-0.27  OA
BRANCH 42 45
ATOM     45  CA  ASP P   5      20.792  -7.448 -21.213  1.00 49.16 LIG 0.17  C 
BRANCH 45 46
ATOM     46  C   ASP P   5      22.285  -7.475 -20.881  1.00 49.66 LIG 0.22  C 
ATOM     47 O    ASP P   5      22.696  -8.110 -19.903  1.00 50.85 LIG-0.29  OA
ENDBRANCH 45 46
BRANCH 45 48
ATOM     48  CB  ASP P   5      20.497  -6.351 -22.299  1.00 49.44 LIG 0.15  C 
BRANCH 48 49
ATOM     49  CG  ASP P   5      19.247  -5.466 -22.204  1.00 49.12 LIG 0.17  C 
ATOM     50 OD1  ASP P   5      18.122  -6.010 -22.240  1.00 51.19 LIG-0.65  OA
ATOM     51 OD2  ASP P   5      19.392  -4.236 -22.098  1.00 49.06 LIG-0.65  OA
ENDBRANCH 48 49
ENDBRANCH 45 48
ENDBRANCH 42 45
ENDBRANCH 34 41
ENDBRANCH 32 34
ENDBRANCH 1 31
TORSDOF 20
ENDMDL
MODEL 44
USER: ADFR SOLUTION from run 118
USER: SCORE 15.537371 LL:  -3.621 LR: -13.553 RR:   0.000 FEB:  -7.587
USER: RMSD 11.405981
USER: SEED 117
USER: STATUS no improvement in best 15 clusters for 5 generations
USER: GENES 22
USER: genes 0 Translation |==|  0.41336 0.75237 0.46770
USER: genes 1 Rotation |==|  0.29541 0.80968 0.23076 0.69939
USER: genes 2 Torsion [CB]-CA--N-[C] |==|  0.82222
USER: genes 3 Torsion [N]-C--CA-[N] |==|  0.72141
USER: genes 4 Torsion [C]-CA--CB-[CG] |==|  0.59454
USER: genes 5 Torsion [CA]-CB--CG-[CD1] |==|  0.38959
USER: genes 6 Torsion [C]-CA--N-[C] |==|  0.61572
USER: genes 7 Torsion [N]-C--CA-[N] |==|  0.72245
USER: genes 8 Torsion [C]-CA--N-[H3] |==|  0.89665
USER: genes 9 Torsion [C]-CA--CB-[CG] |==|  0.25253
USER: genes 10 Torsion [CA]-CB--CG-[CD1] |==|  0.61614
USER: genes 11 Torsion [N]-CA--CB-[CG] |==|  0.74706
USER: genes 12 Torsion [CA]-CB--CG-[CD1] |==|  0.91271
USER: genes 13 Torsion [N]-CA--C-[N] |==|  0.25589
USER: genes 14 Torsion [C]-N--CA-[C] |==|  0.77675
USER: genes 15 Torsion [N]-CA--CB-[CG] |==|  0.76609
USER: genes 16 Torsion [CA]-CB--CG-[OD1] |==|  0.26413
USER: genes 17 Torsion [N]-CA--C-[N] |==|  0.34446
USER: genes 18 Torsion [C]-N--CA-[C] |==|  0.56372
USER: genes 19 Torsion [N]-CA--C-[O] |==|  0.06734
USER: genes 20 Torsion [N]-CA--CB-[CG] |==|  0.95342
USER: genes 21 Torsion [CA]-CB--CG-[OD1] |==|  0.76266
ROOT
ATOM      1  CA  PHE P   3      17.641  -7.289 -15.259  1.00 45.52 LIG 0.18  C 
ENDROOT
BRANCH 1 2
ATOM      2  N   PHE P   3      16.281  -7.693 -15.797  1.00 45.79 LIG-0.35  N 
ATOM      3 H    PHE P   3      15.761  -7.011 -15.852  1.00 45.79 LIG 0.16  HD
ATOM      4  C   LEU P   2      15.839  -8.902 -16.165  1.00 46.01 LIG 0.24  C 
ATOM      5 O    LEU P   2      16.577  -9.878 -16.174  1.00 46.46 LIG-0.27  OA
BRANCH 4 6
ATOM      6  CA  LEU P   2      14.332  -9.037 -16.654  1.00 45.94 LIG 0.18  C 
BRANCH 6 7
ATOM      7  CB  LEU P   2      13.735  -7.695 -17.157  1.00 45.93 LIG 0.04  C 
BRANCH 7 8
ATOM      8  CG  LEU P   2      12.234  -7.336 -16.955  1.00 45.11 LIG-0.02  C 
ATOM      9  CD1 LEU P   2      11.989  -5.857 -16.584  1.00 44.79 LIG 0.01  C 
ATOM     10  CD2 LEU P   2      11.396  -7.705 -18.177  1.00 44.35 LIG 0.01  C 
ENDBRANCH 7 8
ENDBRANCH 6 7
BRANCH 6 11
ATOM     11  N   LEU P   2      13.506  -9.571 -15.549  1.00 46.17 LIG-0.35  N 
ATOM     12 H    LEU P   2      13.697  -9.224 -14.786  1.00 46.17 LIG 0.16  HD
ATOM     13  C   LEU P   1      12.551 -10.500 -15.701  1.00 46.12 LIG 0.25  C 
ATOM     14 O    LEU P   1      12.223 -10.964 -16.804  1.00 46.29 LIG-0.27  OA
BRANCH 13 15
ATOM     15  CA  LEU P   1      11.855 -10.984 -14.402  1.00 45.93 LIG 0.28  C 
BRANCH 15 16
ATOM     16  N   LEU P   1      12.366 -12.292 -13.879  1.00 46.34 LIG-0.07  N 
ATOM     17 H3   LEU P   1      12.553 -12.832 -14.561  1.00 46.34 LIG 0.28  HD
ATOM     18 H2   LEU P   1      11.745 -12.668 -13.363  1.00 46.34 LIG 0.28  HD
ATOM     19 H1   LEU P   1      13.104 -12.152 -13.400  1.00 46.34 LIG 0.28  HD
ENDBRANCH 15 16
BRANCH 15 20
ATOM     20  CB  LEU P   1      11.947  -9.907 -13.309  1.00 45.65 LIG 0.05  C 
BRANCH 20 21
ATOM     21  CG  LEU P   1      10.770  -8.925 -13.284  1.00 44.28 LIG-0.02  C 
ATOM     22  CD1 LEU P   1      11.240  -7.501 -13.057  1.00 42.49 LIG 0.01  C 
ATOM     23  CD2 LEU P   1       9.951  -9.023 -14.558  1.00 44.08 LIG 0.01  C 
ENDBRANCH 20 21
ENDBRANCH 15 20
ENDBRANCH 13 15
ENDBRANCH 6 11
ENDBRANCH 4 6
ENDBRANCH 1 2
BRANCH 1 24
ATOM     24  CB  PHE P   3      18.115  -7.854 -13.892  1.00 45.09 LIG 0.07  C 
BRANCH 24 25
ATOM     25  CG  PHE P   3      17.757  -6.985 -12.613  1.00 44.37 LIG-0.06  A 
ATOM     26  CD1 PHE P   3      17.654  -5.572 -12.607  1.00 43.10 LIG 0.01  A 
ATOM     27  CE1 PHE P   3      17.377  -4.845 -11.364  1.00 41.01 LIG 0.00  A 
ATOM     28  CZ  PHE P   3      17.236  -5.545 -10.150  1.00 41.66 LIG 0.00  A 
ATOM     29  CE2 PHE P   3      17.354  -6.924 -10.162  1.00 43.89 LIG 0.00  A 
ATOM     30  CD2 PHE P   3      17.626  -7.629 -11.379  1.00 44.25 LIG 0.01  A 
ENDBRANCH 24 25
ENDBRANCH 1 24
BRANCH 1 31
ATOM     31  C   PHE P   3      18.376  -7.757 -16.532  1.00 45.74 LIG 0.26  C 
ATOM     32 N    ASN P   4      18.397  -6.680 -17.225  1.00 46.65 LIG-0.24  NA
ATOM     33 O    PHE P   3      18.720  -8.893 -16.851  1.00 45.60 LIG-0.27  OA
BRANCH 32 34
ATOM     34  CA  ASN P   4      18.641  -6.214 -18.560  1.00 47.05 LIG 0.21  C 
BRANCH 34 35
ATOM     35  CB  ASN P   4      17.806  -4.991 -18.570  1.00 46.83 LIG 0.14  C 
BRANCH 35 36
ATOM     36  CG  ASN P   4      16.390  -5.368 -18.903  1.00 47.32 LIG 0.22  C 
ATOM     37  ND2 ASN P   4      16.110  -5.482 -20.201  1.00 46.99 LIG-0.37  N 
ATOM     38 22HD ASN P   4      16.721  -5.332 -20.788  1.00 46.99 LIG 0.16  HD
ATOM     39 21HD ASN P   4      15.319  -5.706 -20.452  1.00 46.99 LIG 0.16  HD
ATOM     40 OD1  ASN P   4      15.547  -5.573 -18.041  1.00 48.95 LIG-0.27  OA
ENDBRANCH 35 36
ENDBRANCH 34 35
BRANCH 34 41
ATOM     41  C   ASN P   4      19.792  -5.889 -19.426  1.00 47.23 LIG 0.24  C 
ATOM     42  N   ASP P   5      19.493  -6.721 -20.464  1.00 48.41 LIG-0.35  N 
ATOM     43 H    ASP P   5      18.786  -7.200 -20.368  1.00 48.41 LIG 0.16  HD
ATOM     44 O    ASN P   4      20.718  -5.110 -19.259  1.00 47.17 LIG-0.27  OA
BRANCH 42 45
ATOM     45  CA  ASP P   5      20.055  -7.054 -21.762  1.00 49.16 LIG 0.17  C 
BRANCH 45 46
ATOM     46  C   ASP P   5      19.009  -7.637 -22.714  1.00 49.66 LIG 0.22  C 
ATOM     47 O    ASP P   5      17.809  -7.384 -22.556  1.00 50.85 LIG-0.29  OA
ENDBRANCH 45 46
BRANCH 45 48
ATOM     48  CB  ASP P   5      21.240  -8.067 -21.571  1.00 49.44 LIG 0.15  C 
BRANCH 48 49
ATOM     49  CG  ASP P   5      21.893  -8.263 -20.196  1.00 49.12 LIG 0.17  C 
ATOM     50 OD1  ASP P   5      22.811  -7.487 -19.851  1.00 51.19 LIG-0.65  OA
ATOM     51 OD2  ASP P   5      21.492  -9.190 -19.470  1.00 49.06 LIG-0.65  OA
ENDBRANCH 48 49
ENDBRANCH 45 48
ENDBRANCH 42 45
ENDBRANCH 34 41
ENDBRANCH 32 34
ENDBRANCH 1 31
TORSDOF 20
ENDMDL
MODEL 45
USER: ADFR SOLUTION from run 118
USER: SCORE 16.032360 LL:  -4.473 LR: -13.540 RR:   0.000 FEB:  -7.574
USER: RMSD 10.881741
USER: SEED 117
USER: STATUS no improvement in best 15 clusters for 5 generations
USER: GENES 22
USER: genes 0 Translation |==|  0.41113 0.75847 0.46555
USER: genes 1 Rotation |==|  0.27145 0.81334 0.29420 0.73922
USER: genes 2 Torsion [CB]-CA--N-[C] |==|  0.93752
USER: genes 3 Torsion [N]-C--CA-[N] |==|  0.68275
USER: genes 4 Torsion [C]-CA--CB-[CG] |==|  0.68486
USER: genes 5 Torsion [CA]-CB--CG-[CD1] |==|  0.41487
USER: genes 6 Torsion [C]-CA--N-[C] |==|  0.60812
USER: genes 7 Torsion [N]-C--CA-[N] |==|  0.68709
USER: genes 8 Torsion [C]-CA--N-[H3] |==|  0.93346
USER: genes 9 Torsion [C]-CA--CB-[CG] |==|  0.28637
USER: genes 10 Torsion [CA]-CB--CG-[CD1] |==|  0.60870
USER: genes 11 Torsion [N]-CA--CB-[CG] |==|  0.72536
USER: genes 12 Torsion [CA]-CB--CG-[CD1] |==|  0.39375
USER: genes 13 Torsion [N]-CA--C-[N] |==|  0.81641
USER: genes 14 Torsion [C]-N--CA-[C] |==|  0.77582
USER: genes 15 Torsion [N]-CA--CB-[CG] |==|  0.73765
USER: genes 16 Torsion [CA]-CB--CG-[OD1] |==|  0.22336
USER: genes 17 Torsion [N]-CA--C-[N] |==|  0.43335
USER: genes 18 Torsion [C]-N--CA-[C] |==|  0.71153
USER: genes 19 Torsion [N]-CA--C-[O] |==|  0.93872
USER: genes 20 Torsion [N]-CA--CB-[CG] |==|  0.02623
USER: genes 21 Torsion [CA]-CB--CG-[OD1] |==|  0.71626
ROOT
ATOM      1  CA  PHE P   3      17.574  -7.106 -15.324  1.00 45.52 LIG 0.18  C 
ENDROOT
BRANCH 1 2
ATOM      2  N   PHE P   3      16.304  -7.724 -15.877  1.00 45.79 LIG-0.35  N 
ATOM      3 H    PHE P   3      15.843  -7.139 -16.306  1.00 45.79 LIG 0.16  HD
ATOM      4  C   LEU P   2      15.860  -8.982 -15.778  1.00 46.01 LIG 0.24  C 
ATOM      5 O    LEU P   2      16.528  -9.858 -15.245  1.00 46.46 LIG-0.27  OA
BRANCH 4 6
ATOM      6  CA  LEU P   2      14.453  -9.339 -16.428  1.00 45.94 LIG 0.18  C 
BRANCH 6 7
ATOM      7  CB  LEU P   2      13.870  -8.184 -17.286  1.00 45.93 LIG 0.04  C 
BRANCH 7 8
ATOM      8  CG  LEU P   2      12.576  -7.424 -16.872  1.00 45.11 LIG-0.02  C 
ATOM      9  CD1 LEU P   2      12.544  -5.948 -17.328  1.00 44.79 LIG 0.01  C 
ATOM     10  CD2 LEU P   2      11.320  -8.141 -17.363  1.00 44.35 LIG 0.01  C 
ENDBRANCH 7 8
ENDBRANCH 6 7
BRANCH 6 11
ATOM     11  N   LEU P   2      13.497  -9.700 -15.357  1.00 46.17 LIG-0.35  N 
ATOM     12 H    LEU P   2      13.579  -9.212 -14.654  1.00 46.17 LIG 0.16  HD
ATOM     13  C   LEU P   1      12.590 -10.682 -15.454  1.00 46.12 LIG 0.25  C 
ATOM     14 O    LEU P   1      12.420 -11.352 -16.485  1.00 46.29 LIG-0.27  OA
BRANCH 13 15
ATOM     15  CA  LEU P   1      11.737 -10.952 -14.187  1.00 45.93 LIG 0.28  C 
BRANCH 15 16
ATOM     16  N   LEU P   1      12.001 -12.276 -13.537  1.00 46.34 LIG-0.07  N 
ATOM     17 H3   LEU P   1      12.336 -12.841 -14.138  1.00 46.34 LIG 0.28  HD
ATOM     18 H2   LEU P   1      11.240 -12.605 -13.213  1.00 46.34 LIG 0.28  HD
ATOM     19 H1   LEU P   1      12.585 -12.169 -12.873  1.00 46.34 LIG 0.28  HD
ENDBRANCH 15 16
BRANCH 15 20
ATOM     20  CB  LEU P   1      11.917  -9.818 -13.165  1.00 45.65 LIG 0.05  C 
BRANCH 20 21
ATOM     21  CG  LEU P   1      10.749  -8.827 -13.105  1.00 44.28 LIG-0.02  C 
ATOM     22  CD1 LEU P   1      11.240  -7.402 -12.928  1.00 42.49 LIG 0.01  C 
ATOM     23  CD2 LEU P   1       9.871  -8.942 -14.338  1.00 44.08 LIG 0.01  C 
ENDBRANCH 20 21
ENDBRANCH 15 20
ENDBRANCH 13 15
ENDBRANCH 6 11
ENDBRANCH 4 6
ENDBRANCH 1 2
BRANCH 1 24
ATOM     24  CB  PHE P   3      18.280  -7.778 -14.114  1.00 45.09 LIG 0.07  C 
BRANCH 24 25
ATOM     25  CG  PHE P   3      17.987  -7.142 -12.690  1.00 44.37 LIG-0.06  A 
ATOM     26  CD1 PHE P   3      17.822  -7.888 -11.496  1.00 43.10 LIG 0.01  A 
ATOM     27  CE1 PHE P   3      17.494  -7.219 -10.234  1.00 41.01 LIG 0.00  A 
ATOM     28  CZ  PHE P   3      17.312  -5.824 -10.196  1.00 41.66 LIG 0.00  A 
ATOM     29  CE2 PHE P   3      17.459  -5.104 -11.370  1.00 43.89 LIG 0.00  A 
ATOM     30  CD2 PHE P   3      17.778  -5.762 -12.602  1.00 44.25 LIG 0.01  A 
ENDBRANCH 24 25
ENDBRANCH 1 24
BRANCH 1 31
ATOM     31  C   PHE P   3      18.287  -7.141 -16.692  1.00 45.74 LIG 0.26  C 
ATOM     32 N    ASN P   4      18.397  -8.402 -16.890  1.00 46.65 LIG-0.24  NA
ATOM     33 O    PHE P   3      18.751  -6.209 -17.344  1.00 45.60 LIG-0.27  OA
BRANCH 32 34
ATOM     34  CA  ASN P   4      19.085  -9.348 -17.720  1.00 47.05 LIG 0.21  C 
BRANCH 34 35
ATOM     35  CB  ASN P   4      19.115 -10.521 -16.817  1.00 46.83 LIG 0.14  C 
BRANCH 35 36
ATOM     36  CG  ASN P   4      20.417 -10.529 -16.066  1.00 47.32 LIG 0.22  C 
ATOM     37  ND2 ASN P   4      21.361 -11.335 -16.552  1.00 46.99 LIG-0.37  N 
ATOM     38 22HD ASN P   4      21.201 -11.817 -17.246  1.00 46.99 LIG 0.16  HD
ATOM     39 21HD ASN P   4      22.131 -11.374 -16.171  1.00 46.99 LIG 0.16  HD
ATOM     40 OD1  ASN P   4      20.610  -9.830 -15.082  1.00 48.95 LIG-0.27  OA
ENDBRANCH 35 36
ENDBRANCH 34 35
BRANCH 34 41
ATOM     41  C   ASN P   4      18.970  -9.921 -19.075  1.00 47.23 LIG 0.24  C 
ATOM     42  N   ASP P   5      20.274 -10.279 -19.246  1.00 48.41 LIG-0.35  N 
ATOM     43 H    ASP P   5      20.803 -10.089 -18.595  1.00 48.41 LIG 0.16  HD
ATOM     44 O    ASN P   4      18.000 -10.039 -19.808  1.00 47.17 LIG-0.27  OA
BRANCH 42 45
ATOM     45  CA  ASP P   5      21.080 -10.926 -20.268  1.00 49.16 LIG 0.17  C 
BRANCH 45 46
ATOM     46  C   ASP P   5      21.414 -12.376 -19.910  1.00 49.66 LIG 0.22  C 
ATOM     47 O    ASP P   5      21.381 -12.753 -18.733  1.00 50.85 LIG-0.29  OA
ENDBRANCH 45 46
BRANCH 45 48
ATOM     48  CB  ASP P   5      22.399 -10.103 -20.487  1.00 49.44 LIG 0.15  C 
BRANCH 48 49
ATOM     49  CG  ASP P   5      22.779  -8.956 -19.540  1.00 49.12 LIG 0.17  C 
ATOM     50 OD1  ASP P   5      22.585  -7.779 -19.915  1.00 51.19 LIG-0.65  OA
ATOM     51 OD2  ASP P   5      23.270  -9.233 -18.432  1.00 49.06 LIG-0.65  OA
ENDBRANCH 48 49
ENDBRANCH 45 48
ENDBRANCH 42 45
ENDBRANCH 34 41
ENDBRANCH 32 34
ENDBRANCH 1 31
TORSDOF 20
ENDMDL
MODEL 46
USER: ADFR SOLUTION from run 104
USER: SCORE 15.822099 LL:  -4.250 LR: -13.543 RR:   0.000 FEB:  -7.577
USER: RMSD 10.298487
USER: SEED 103
USER: STATUS no improvement in best 15 clusters for 5 generations
USER: GENES 22
USER: genes 0 Translation |==|  0.42030 0.72346 0.47667
USER: genes 1 Rotation |==|  0.18888 0.49347 0.11076 0.54069
USER: genes 2 Torsion [CB]-CA--N-[C] |==|  0.34804
USER: genes 3 Torsion [N]-C--CA-[N] |==|  0.38534
USER: genes 4 Torsion [C]-CA--CB-[CG] |==|  0.43337
USER: genes 5 Torsion [CA]-CB--CG-[CD1] |==|  0.90436
USER: genes 6 Torsion [C]-CA--N-[C] |==|  0.65104
USER: genes 7 Torsion [N]-C--CA-[N] |==|  0.22779
USER: genes 8 Torsion [C]-CA--N-[H3] |==|  0.69073
USER: genes 9 Torsion [C]-CA--CB-[CG] |==|  0.20734
USER: genes 10 Torsion [CA]-CB--CG-[CD1] |==|  0.70456
USER: genes 11 Torsion [N]-CA--CB-[CG] |==|  0.10798
USER: genes 12 Torsion [CA]-CB--CG-[CD1] |==|  0.03702
USER: genes 13 Torsion [N]-CA--C-[N] |==|  0.00596
USER: genes 14 Torsion [C]-N--CA-[C] |==|  0.67391
USER: genes 15 Torsion [N]-CA--CB-[CG] |==|  0.65628
USER: genes 16 Torsion [CA]-CB--CG-[OD1] |==|  0.81274
USER: genes 17 Torsion [N]-CA--C-[N] |==|  0.04380
USER: genes 18 Torsion [C]-N--CA-[C] |==|  0.15671
USER: genes 19 Torsion [N]-CA--C-[O] |==|  0.25981
USER: genes 20 Torsion [N]-CA--CB-[CG] |==|  0.87408
USER: genes 21 Torsion [CA]-CB--CG-[OD1] |==|  0.06004
ROOT
ATOM      1  CA  PHE P   3      17.849  -8.156 -14.990  1.00 45.52 LIG 0.18  C 
ENDROOT
BRANCH 1 2
ATOM      2  N   PHE P   3      16.707  -8.981 -14.428  1.00 45.79 LIG-0.35  N 
ATOM      3 H    PHE P   3      16.750  -9.015 -13.570  1.00 45.79 LIG 0.16  HD
ATOM      4  C   LEU P   2      15.718  -9.612 -15.073  1.00 46.01 LIG 0.24  C 
ATOM      5 O    LEU P   2      15.582  -9.517 -16.286  1.00 46.46 LIG-0.27  OA
BRANCH 4 6
ATOM      6  CA  LEU P   2      14.672 -10.450 -14.217  1.00 45.94 LIG 0.18  C 
BRANCH 6 7
ATOM      7  CB  LEU P   2      14.983 -11.971 -14.199  1.00 45.93 LIG 0.04  C 
BRANCH 7 8
ATOM      8  CG  LEU P   2      14.486 -12.897 -13.051  1.00 45.11 LIG-0.02  C 
ATOM      9  CD1 LEU P   2      14.454 -12.215 -11.665  1.00 44.79 LIG 0.01  C 
ATOM     10  CD2 LEU P   2      13.116 -13.495 -13.361  1.00 44.35 LIG 0.01  C 
ENDBRANCH 7 8
ENDBRANCH 6 7
BRANCH 6 11
ATOM     11  N   LEU P   2      13.311 -10.223 -14.751  1.00 46.17 LIG-0.35  N 
ATOM     12 H    LEU P   2      13.246 -10.388 -15.593  1.00 46.17 LIG 0.16  HD
ATOM     13  C   LEU P   1      12.272  -9.802 -14.016  1.00 46.12 LIG 0.25  C 
ATOM     14 O    LEU P   1      12.336  -9.619 -12.790  1.00 46.29 LIG-0.27  OA
BRANCH 13 15
ATOM     15  CA  LEU P   1      10.948  -9.548 -14.784  1.00 45.93 LIG 0.28  C 
BRANCH 15 16
ATOM     16  N   LEU P   1      10.138 -10.782 -15.040  1.00 46.34 LIG-0.07  N 
ATOM     17 H3   LEU P   1      10.139 -10.963 -15.912  1.00 46.34 LIG 0.28  HD
ATOM     18 H2   LEU P   1       9.301 -10.650 -14.767  1.00 46.34 LIG 0.28  HD
ATOM     19 H1   LEU P   1      10.490 -11.467 -14.595  1.00 46.34 LIG 0.28  HD
ENDBRANCH 15 16
BRANCH 15 20
ATOM     20  CB  LEU P   1      10.095  -8.499 -14.053  1.00 45.65 LIG 0.05  C 
BRANCH 20 21
ATOM     21  CG  LEU P   1      10.600  -7.059 -14.196  1.00 44.28 LIG-0.02  C 
ATOM     22  CD1 LEU P   1      11.240  -6.566 -12.912  1.00 42.49 LIG 0.01  C 
ATOM     23  CD2 LEU P   1      11.566  -6.932 -15.360  1.00 44.08 LIG 0.01  C 
ENDBRANCH 20 21
ENDBRANCH 15 20
ENDBRANCH 13 15
ENDBRANCH 6 11
ENDBRANCH 4 6
ENDBRANCH 1 2
BRANCH 1 24
ATOM     24  CB  PHE P   3      18.060  -6.705 -14.478  1.00 45.09 LIG 0.07  C 
BRANCH 24 25
ATOM     25  CG  PHE P   3      17.821  -6.468 -12.927  1.00 44.37 LIG-0.06  A 
ATOM     26  CD1 PHE P   3      17.702  -7.503 -11.966  1.00 43.10 LIG 0.01  A 
ATOM     27  CE1 PHE P   3      17.422  -7.192 -10.561  1.00 41.01 LIG 0.00  A 
ATOM     28  CZ  PHE P   3      17.240  -5.858 -10.152  1.00 41.66 LIG 0.00  A 
ATOM     29  CE2 PHE P   3      17.342  -4.854 -11.100  1.00 43.89 LIG 0.00  A 
ATOM     30  CD2 PHE P   3      17.614  -5.162 -12.472  1.00 44.25 LIG 0.01  A 
ENDBRANCH 24 25
ENDBRANCH 1 24
BRANCH 1 31
ATOM     31  C   PHE P   3      18.907  -9.217 -14.621  1.00 45.74 LIG 0.26  C 
ATOM     32 N    ASN P   4      18.176 -10.143 -14.120  1.00 46.65 LIG-0.24  NA
ATOM     33 O    PHE P   3      20.132  -9.133 -14.665  1.00 45.60 LIG-0.27  OA
BRANCH 32 34
ATOM     34  CA  ASN P   4      18.270 -11.342 -13.338  1.00 47.05 LIG 0.21  C 
BRANCH 34 35
ATOM     35  CB  ASN P   4      17.513 -10.932 -12.133  1.00 46.83 LIG 0.14  C 
BRANCH 35 36
ATOM     36  CG  ASN P   4      18.386 -11.108 -10.923  1.00 47.32 LIG 0.22  C 
ATOM     37  ND2 ASN P   4      18.740  -9.986 -10.295  1.00 46.99 LIG-0.37  N 
ATOM     38 22HD ASN P   4      18.477  -9.224 -10.595  1.00 46.99 LIG 0.16  HD
ATOM     39 21HD ASN P   4      19.230 -10.025  -9.590  1.00 46.99 LIG 0.16  HD
ATOM     40 OD1  ASN P   4      18.740 -12.208 -10.525  1.00 48.95 LIG-0.27  OA
ENDBRANCH 35 36
ENDBRANCH 34 35
BRANCH 34 41
ATOM     41  C   ASN P   4      17.990 -12.784 -13.485  1.00 47.23 LIG 0.24  C 
ATOM     42  N   ASP P   5      17.887 -12.824 -14.844  1.00 48.41 LIG-0.35  N 
ATOM     43 H    ASP P   5      17.983 -12.072 -15.249  1.00 48.41 LIG 0.16  HD
ATOM     44 O    ASN P   4      17.889 -13.663 -12.643  1.00 47.17 LIG-0.27  OA
BRANCH 42 45
ATOM     45  CA  ASP P   5      17.646 -13.827 -15.867  1.00 49.16 LIG 0.17  C 
BRANCH 45 46
ATOM     46  C   ASP P   5      16.337 -14.585 -15.640  1.00 49.66 LIG 0.22  C 
ATOM     47 O    ASP P   5      15.294 -14.209 -16.186  1.00 50.85 LIG-0.29  OA
ENDBRANCH 45 46
BRANCH 45 48
ATOM     48  CB  ASP P   5      18.855 -14.830 -15.906  1.00 49.44 LIG 0.15  C 
BRANCH 48 49
ATOM     49  CG  ASP P   5      20.303 -14.320 -15.873  1.00 49.12 LIG 0.17  C 
ATOM     50 OD1  ASP P   5      20.526 -13.178 -15.415  1.00 51.19 LIG-0.65  OA
ATOM     51 OD2  ASP P   5      21.206 -15.056 -16.306  1.00 49.06 LIG-0.65  OA
ENDBRANCH 48 49
ENDBRANCH 45 48
ENDBRANCH 42 45
ENDBRANCH 34 41
ENDBRANCH 32 34
ENDBRANCH 1 31
TORSDOF 20
ENDMDL
MODEL 47
USER: ADFR SOLUTION from run 46
USER: SCORE 16.711959 LL:  -4.565 LR: -13.539 RR:   0.000 FEB:  -7.573
USER: RMSD 9.281839
USER: SEED 45
USER: STATUS no improvement in best 8 clusters for 5 generations
USER: GENES 22
USER: genes 0 Translation |==|  0.41781 0.64453 0.58778
USER: genes 1 Rotation |==|  0.40402 0.36130 0.96527 0.57125
USER: genes 2 Torsion [CB]-CA--N-[C] |==|  0.82222
USER: genes 3 Torsion [N]-C--CA-[N] |==|  0.47159
USER: genes 4 Torsion [C]-CA--CB-[CG] |==|  0.27827
USER: genes 5 Torsion [CA]-CB--CG-[CD1] |==|  0.46766
USER: genes 6 Torsion [C]-CA--N-[C] |==|  0.75123
USER: genes 7 Torsion [N]-C--CA-[N] |==|  0.57656
USER: genes 8 Torsion [C]-CA--N-[H3] |==|  0.72509
USER: genes 9 Torsion [C]-CA--CB-[CG] |==|  0.74253
USER: genes 10 Torsion [CA]-CB--CG-[CD1] |==|  0.13396
USER: genes 11 Torsion [N]-CA--CB-[CG] |==|  0.91260
USER: genes 12 Torsion [CA]-CB--CG-[CD1] |==|  0.47478
USER: genes 13 Torsion [N]-CA--C-[N] |==|  0.21514
USER: genes 14 Torsion [C]-N--CA-[C] |==|  0.15955
USER: genes 15 Torsion [N]-CA--CB-[CG] |==|  0.76072
USER: genes 16 Torsion [CA]-CB--CG-[OD1] |==|  0.22900
USER: genes 17 Torsion [N]-CA--C-[N] |==|  0.18581
USER: genes 18 Torsion [C]-N--CA-[C] |==|  0.83587
USER: genes 19 Torsion [N]-CA--C-[O] |==|  0.22499
USER: genes 20 Torsion [N]-CA--CB-[CG] |==|  0.05321
USER: genes 21 Torsion [CA]-CB--CG-[OD1] |==|  0.99813
ROOT
ATOM      1  CA  PHE P   3      17.774 -10.524 -11.656  1.00 45.52 LIG 0.18  C 
ENDROOT
BRANCH 1 2
ATOM      2  N   PHE P   3      17.370 -10.187 -13.079  1.00 45.79 LIG-0.35  N 
ATOM      3 H    PHE P   3      18.060 -10.151 -13.591  1.00 45.79 LIG 0.16  HD
ATOM      4  C   LEU P   2      16.152  -9.958 -13.583  1.00 46.01 LIG 0.24  C 
ATOM      5 O    LEU P   2      15.143 -10.080 -12.901  1.00 46.46 LIG-0.27  OA
BRANCH 4 6
ATOM      6  CA  LEU P   2      16.032  -9.577 -15.123  1.00 45.94 LIG 0.18  C 
BRANCH 6 7
ATOM      7  CB  LEU P   2      16.639  -8.187 -15.453  1.00 45.93 LIG 0.04  C 
BRANCH 7 8
ATOM      8  CG  LEU P   2      18.056  -8.038 -16.081  1.00 45.11 LIG-0.02  C 
ATOM      9  CD1 LEU P   2      18.366  -6.613 -16.594  1.00 44.79 LIG 0.01  C 
ATOM     10  CD2 LEU P   2      19.151  -8.485 -15.115  1.00 44.35 LIG 0.01  C 
ENDBRANCH 7 8
ENDBRANCH 6 7
BRANCH 6 11
ATOM     11  N   LEU P   2      14.608  -9.610 -15.524  1.00 46.17 LIG-0.35  N 
ATOM     12 H    LEU P   2      14.212  -8.853 -15.428  1.00 46.17 LIG 0.16  HD
ATOM     13  C   LEU P   1      13.981 -10.698 -15.993  1.00 46.12 LIG 0.25  C 
ATOM     14 O    LEU P   1      14.554 -11.780 -16.196  1.00 46.29 LIG-0.27  OA
BRANCH 13 15
ATOM     15  CA  LEU P   1      12.464 -10.543 -16.281  1.00 45.93 LIG 0.28  C 
BRANCH 15 16
ATOM     16  N   LEU P   1      11.681 -11.815 -16.165  1.00 46.34 LIG-0.07  N 
ATOM     17 H3   LEU P   1      11.552 -12.159 -16.976  1.00 46.34 LIG 0.28  HD
ATOM     18 H2   LEU P   1      10.893 -11.646 -15.786  1.00 46.34 LIG 0.28  HD
ATOM     19 H1   LEU P   1      12.132 -12.396 -15.664  1.00 46.34 LIG 0.28  HD
ENDBRANCH 15 16
BRANCH 15 20
ATOM     20  CB  LEU P   1      11.852  -9.463 -15.372  1.00 45.65 LIG 0.05  C 
BRANCH 20 21
ATOM     21  CG  LEU P   1      11.260  -9.997 -14.063  1.00 44.28 LIG-0.02  C 
ATOM     22  CD1 LEU P   1      12.223 -10.935 -13.361  1.00 42.49 LIG 0.01  C 
ATOM     23  CD2 LEU P   1      10.853  -8.859 -13.144  1.00 44.08 LIG 0.01  C 
ENDBRANCH 20 21
ENDBRANCH 15 20
ENDBRANCH 13 15
ENDBRANCH 6 11
ENDBRANCH 4 6
ENDBRANCH 1 2
BRANCH 1 24
ATOM     24  CB  PHE P   3      17.528  -9.482 -10.531  1.00 45.09 LIG 0.07  C 
BRANCH 24 25
ATOM     25  CG  PHE P   3      17.612  -7.956 -10.959  1.00 44.37 LIG-0.06  A 
ATOM     26  CD1 PHE P   3      17.241  -6.868 -10.130  1.00 43.10 LIG 0.01  A 
ATOM     27  CE1 PHE P   3      17.295  -5.492 -10.630  1.00 41.01 LIG 0.00  A 
ATOM     28  CZ  PHE P   3      17.693  -5.233 -11.955  1.00 41.66 LIG 0.00  A 
ATOM     29  CE2 PHE P   3      18.040  -6.303 -12.764  1.00 43.89 LIG 0.00  A 
ATOM     30  CD2 PHE P   3      17.983  -7.647 -12.271  1.00 44.25 LIG 0.01  A 
ENDBRANCH 24 25
ENDBRANCH 1 24
BRANCH 1 31
ATOM     31  C   PHE P   3      16.940 -11.822 -11.639  1.00 45.74 LIG 0.26  C 
ATOM     32 N    ASN P   4      17.687 -12.614 -12.314  1.00 46.65 LIG-0.24  NA
ATOM     33 O    PHE P   3      15.802 -12.002 -11.213  1.00 45.60 LIG-0.27  OA
BRANCH 32 34
ATOM     34  CA  ASN P   4      17.653 -13.880 -12.988  1.00 47.05 LIG 0.21  C 
BRANCH 34 35
ATOM     35  CB  ASN P   4      17.530 -14.794 -11.828  1.00 46.83 LIG 0.14  C 
BRANCH 35 36
ATOM     36  CG  ASN P   4      18.903 -15.104 -11.301  1.00 47.32 LIG 0.22  C 
ATOM     37  ND2 ASN P   4      19.445 -16.243 -11.731  1.00 46.99 LIG-0.37  N 
ATOM     38 22HD ASN P   4      19.007 -16.753 -12.267  1.00 46.99 LIG 0.16  HD
ATOM     39 21HD ASN P   4      20.234 -16.469 -11.472  1.00 46.99 LIG 0.16  HD
ATOM     40 OD1  ASN P   4      19.496 -14.354 -10.539  1.00 48.95 LIG-0.27  OA
ENDBRANCH 35 36
ENDBRANCH 34 35
BRANCH 34 41
ATOM     41  C   ASN P   4      16.892 -14.540 -14.067  1.00 47.23 LIG 0.24  C 
ATOM     42  N   ASP P   5      17.319 -13.767 -15.106  1.00 48.41 LIG-0.35  N 
ATOM     43 H    ASP P   5      17.862 -13.132 -14.901  1.00 48.41 LIG 0.16  HD
ATOM     44 O    ASN P   4      16.123 -15.489 -14.032  1.00 47.17 LIG-0.27  OA
BRANCH 42 45
ATOM     45  CA  ASP P   5      17.111 -13.698 -16.542  1.00 49.16 LIG 0.17  C 
BRANCH 45 46
ATOM     46  C   ASP P   5      17.520 -14.991 -17.250  1.00 49.66 LIG 0.22  C 
ATOM     47 O    ASP P   5      16.754 -15.962 -17.269  1.00 50.85 LIG-0.29  OA
ENDBRANCH 45 46
BRANCH 45 48
ATOM     48  CB  ASP P   5      17.917 -12.483 -17.126  1.00 49.44 LIG 0.15  C 
BRANCH 48 49
ATOM     49  CG  ASP P   5      19.076 -11.855 -16.338  1.00 49.12 LIG 0.17  C 
ATOM     50 OD1  ASP P   5      19.360 -12.323 -15.214  1.00 51.19 LIG-0.65  OA
ATOM     51 OD2  ASP P   5      19.694 -10.901 -16.842  1.00 49.06 LIG-0.65  OA
ENDBRANCH 48 49
ENDBRANCH 45 48
ENDBRANCH 42 45
ENDBRANCH 34 41
ENDBRANCH 32 34
ENDBRANCH 1 31
TORSDOF 20
ENDMDL
MODEL 48
USER: ADFR SOLUTION from run 136
USER: SCORE 16.701574 LL:  -3.572 LR: -13.531 RR:   0.000 FEB:  -7.565
USER: RMSD 8.389835
USER: SEED 135
USER: STATUS no improvement in best 7 clusters for 5 generations
USER: GENES 22
USER: genes 0 Translation |==|  0.37217 0.65890 0.55367
USER: genes 1 Rotation |==|  0.11760 0.71893 0.58537 0.72034
USER: genes 2 Torsion [CB]-CA--N-[C] |==|  0.12778
USER: genes 3 Torsion [N]-C--CA-[N] |==|  0.48078
USER: genes 4 Torsion [C]-CA--CB-[CG] |==|  0.40220
USER: genes 5 Torsion [CA]-CB--CG-[CD1] |==|  0.13180
USER: genes 6 Torsion [C]-CA--N-[C] |==|  0.63806
USER: genes 7 Torsion [N]-C--CA-[N] |==|  0.91051
USER: genes 8 Torsion [C]-CA--N-[H3] |==|  0.36845
USER: genes 9 Torsion [C]-CA--CB-[CG] |==|  0.14994
USER: genes 10 Torsion [CA]-CB--CG-[CD1] |==|  0.25555
USER: genes 11 Torsion [N]-CA--CB-[CG] |==|  0.50215
USER: genes 12 Torsion [CA]-CB--CG-[CD1] |==|  0.71644
USER: genes 13 Torsion [N]-CA--C-[N] |==|  0.14757
USER: genes 14 Torsion [C]-N--CA-[C] |==|  0.76848
USER: genes 15 Torsion [N]-CA--CB-[CG] |==|  0.18738
USER: genes 16 Torsion [CA]-CB--CG-[OD1] |==|  0.19279
USER: genes 17 Torsion [N]-CA--C-[N] |==|  0.99375
USER: genes 18 Torsion [C]-N--CA-[C] |==|  0.34991
USER: genes 19 Torsion [N]-CA--C-[O] |==|  0.36403
USER: genes 20 Torsion [N]-CA--CB-[CG] |==|  0.79643
USER: genes 21 Torsion [CA]-CB--CG-[OD1] |==|  0.89909
ROOT
ATOM      1  CA  PHE P   3      16.405 -10.093 -12.680  1.00 45.52 LIG 0.18  C 
ENDROOT
BRANCH 1 2
ATOM      2  N   PHE P   3      16.265 -11.575 -12.970  1.00 45.79 LIG-0.35  N 
ATOM      3 H    PHE P   3      15.760 -11.705 -13.653  1.00 45.79 LIG 0.16  HD
ATOM      4  C   LEU P   2      16.800 -12.620 -12.327  1.00 46.01 LIG 0.24  C 
ATOM      5 O    LEU P   2      17.587 -12.468 -11.402  1.00 46.46 LIG-0.27  OA
BRANCH 4 6
ATOM      6  CA  LEU P   2      16.439 -14.083 -12.833  1.00 45.94 LIG 0.18  C 
BRANCH 6 7
ATOM      7  CB  LEU P   2      14.933 -14.426 -12.671  1.00 45.93 LIG 0.04  C 
BRANCH 7 8
ATOM      8  CG  LEU P   2      14.176 -15.312 -13.704  1.00 45.11 LIG-0.02  C 
ATOM      9  CD1 LEU P   2      14.926 -16.608 -14.086  1.00 44.79 LIG 0.01  C 
ATOM     10  CD2 LEU P   2      12.767 -15.656 -13.226  1.00 44.35 LIG 0.01  C 
ENDBRANCH 7 8
ENDBRANCH 6 7
BRANCH 6 11
ATOM     11  N   LEU P   2      17.260 -15.071 -12.098  1.00 46.17 LIG-0.35  N 
ATOM     12 H    LEU P   2      17.242 -14.958 -11.246  1.00 46.17 LIG 0.16  HD
ATOM     13  C   LEU P   1      17.966 -16.049 -12.682  1.00 46.12 LIG 0.25  C 
ATOM     14 O    LEU P   1      17.953 -16.262 -13.904  1.00 46.29 LIG-0.27  OA
BRANCH 13 15
ATOM     15  CA  LEU P   1      18.827 -16.929 -11.737  1.00 45.93 LIG 0.28  C 
BRANCH 15 16
ATOM     16  N   LEU P   1      19.365 -16.205 -10.541  1.00 46.34 LIG-0.07  N 
ATOM     17 H3   LEU P   1      19.220 -16.691  -9.809  1.00 46.34 LIG 0.28  HD
ATOM     18 H2   LEU P   1      18.956 -15.418 -10.461  1.00 46.34 LIG 0.28  HD
ATOM     19 H1   LEU P   1      20.240 -16.076 -10.641  1.00 46.34 LIG 0.28  HD
ENDBRANCH 15 16
BRANCH 15 20
ATOM     20  CB  LEU P   1      18.036 -18.170 -11.290  1.00 45.65 LIG 0.05  C 
BRANCH 20 21
ATOM     21  CG  LEU P   1      17.461 -19.004 -12.440  1.00 44.28 LIG-0.02  C 
ATOM     22  CD1 LEU P   1      18.417 -20.104 -12.860  1.00 42.49 LIG 0.01  C 
ATOM     23  CD2 LEU P   1      16.107 -19.582 -12.071  1.00 44.08 LIG 0.01  C 
ENDBRANCH 20 21
ENDBRANCH 15 20
ENDBRANCH 13 15
ENDBRANCH 6 11
ENDBRANCH 4 6
ENDBRANCH 1 2
BRANCH 1 24
ATOM     24  CB  PHE P   3      17.814  -9.507 -12.387  1.00 45.09 LIG 0.07  C 
BRANCH 24 25
ATOM     25  CG  PHE P   3      17.873  -7.952 -12.074  1.00 44.37 LIG-0.06  A 
ATOM     26  CD1 PHE P   3      18.287  -6.963 -13.001  1.00 43.10 LIG 0.01  A 
ATOM     27  CE1 PHE P   3      18.368  -5.553 -12.607  1.00 41.01 LIG 0.00  A 
ATOM     28  CZ  PHE P   3      18.060  -5.166 -11.289  1.00 41.66 LIG 0.00  A 
ATOM     29  CE2 PHE P   3      17.671  -6.141 -10.385  1.00 43.89 LIG 0.00  A 
ATOM     30  CD2 PHE P   3      17.595  -7.517 -10.774  1.00 44.25 LIG 0.01  A 
ENDBRANCH 24 25
ENDBRANCH 1 24
BRANCH 1 31
ATOM     31  C   PHE P   3      15.709  -9.685 -13.996  1.00 45.74 LIG 0.26  C 
ATOM     32 N    ASN P   4      14.617 -10.352 -13.924  1.00 46.65 LIG-0.24  NA
ATOM     33 O    PHE P   3      16.150  -9.014 -14.925  1.00 45.60 LIG-0.27  OA
BRANCH 32 34
ATOM     34  CA  ASN P   4      13.512 -10.778 -14.733  1.00 47.05 LIG 0.21  C 
BRANCH 34 35
ATOM     35  CB  ASN P   4      13.161 -12.047 -14.055  1.00 46.83 LIG 0.14  C 
BRANCH 35 36
ATOM     36  CG  ASN P   4      12.622 -11.738 -12.687  1.00 47.32 LIG 0.22  C 
ATOM     37  ND2 ASN P   4      13.407 -12.078 -11.664  1.00 46.99 LIG-0.37  N 
ATOM     38 22HD ASN P   4      14.165 -12.458 -11.811  1.00 46.99 LIG 0.16  HD
ATOM     39 21HD ASN P   4      13.157 -11.916 -10.858  1.00 46.99 LIG 0.16  HD
ATOM     40 OD1  ASN P   4      11.540 -11.196 -12.516  1.00 48.95 LIG-0.27  OA
ENDBRANCH 35 36
ENDBRANCH 34 35
BRANCH 34 41
ATOM     41  C   ASN P   4      12.224 -10.243 -15.218  1.00 47.23 LIG 0.24  C 
ATOM     42  N   ASP P   5      12.268  -9.033 -14.591  1.00 48.41 LIG-0.35  N 
ATOM     43 H    ASP P   5      12.959  -8.892 -14.099  1.00 48.41 LIG 0.16  HD
ATOM     44 O    ASN P   4      11.387 -10.737 -15.957  1.00 47.17 LIG-0.27  OA
BRANCH 42 45
ATOM     45  CA  ASP P   5      11.439  -7.843 -14.506  1.00 49.16 LIG 0.17  C 
BRANCH 45 46
ATOM     46  C   ASP P   5      11.112  -7.465 -13.060  1.00 49.66 LIG 0.22  C 
ATOM     47 O    ASP P   5      11.268  -6.304 -12.667  1.00 50.85 LIG-0.29  OA
ENDBRANCH 45 46
BRANCH 45 48
ATOM     48  CB  ASP P   5      10.115  -8.074 -15.319  1.00 49.44 LIG 0.15  C 
BRANCH 48 49
ATOM     49  CG  ASP P   5      10.124  -8.078 -16.855  1.00 49.12 LIG 0.17  C 
ATOM     50 OD1  ASP P   5      10.889  -7.289 -17.452  1.00 51.19 LIG-0.65  OA
ATOM     51 OD2  ASP P   5       9.370  -8.863 -17.455  1.00 49.06 LIG-0.65  OA
ENDBRANCH 48 49
ENDBRANCH 45 48
ENDBRANCH 42 45
ENDBRANCH 34 41
ENDBRANCH 32 34
ENDBRANCH 1 31
TORSDOF 20
ENDMDL
MODEL 49
USER: ADFR SOLUTION from run 120
USER: SCORE 15.628179 LL:  -3.584 LR: -13.535 RR:   0.000 FEB:  -7.569
USER: RMSD 10.415144
USER: SEED 119
USER: STATUS no improvement in best 8 clusters for 5 generations
USER: GENES 22
USER: genes 0 Translation |==|  0.40189 0.74675 0.47661
USER: genes 1 Rotation |==|  0.10734 0.70876 0.32273 0.64426
USER: genes 2 Torsion [CB]-CA--N-[C] |==|  0.93184
USER: genes 3 Torsion [N]-C--CA-[N] |==|  0.03915
USER: genes 4 Torsion [C]-CA--CB-[CG] |==|  0.17236
USER: genes 5 Torsion [CA]-CB--CG-[CD1] |==|  0.05466
USER: genes 6 Torsion [C]-CA--N-[C] |==|  0.68964
USER: genes 7 Torsion [N]-C--CA-[N] |==|  0.34035
USER: genes 8 Torsion [C]-CA--N-[H3] |==|  0.27265
USER: genes 9 Torsion [C]-CA--CB-[CG] |==|  0.74231
USER: genes 10 Torsion [CA]-CB--CG-[CD1] |==|  0.21575
USER: genes 11 Torsion [N]-CA--CB-[CG] |==|  0.83551
USER: genes 12 Torsion [CA]-CB--CG-[CD1] |==|  0.23643
USER: genes 13 Torsion [N]-CA--C-[N] |==|  0.79761
USER: genes 14 Torsion [C]-N--CA-[C] |==|  0.86111
USER: genes 15 Torsion [N]-CA--CB-[CG] |==|  0.30947
USER: genes 16 Torsion [CA]-CB--CG-[OD1] |==|  0.34112
USER: genes 17 Torsion [N]-CA--C-[N] |==|  0.42170
USER: genes 18 Torsion [C]-N--CA-[C] |==|  0.63103
USER: genes 19 Torsion [N]-CA--C-[O] |==|  0.22325
USER: genes 20 Torsion [N]-CA--CB-[CG] |==|  0.18784
USER: genes 21 Torsion [CA]-CB--CG-[OD1] |==|  0.18285
ROOT
ATOM      1  CA  PHE P   3      17.297  -7.457 -14.992  1.00 45.52 LIG 0.18  C 
ENDROOT
BRANCH 1 2
ATOM      2  N   PHE P   3      16.515  -8.676 -14.540  1.00 45.79 LIG-0.35  N 
ATOM      3 H    PHE P   3      15.728  -8.678 -14.885  1.00 45.79 LIG 0.16  HD
ATOM      4  C   LEU P   2      16.890  -9.671 -13.726  1.00 46.01 LIG 0.24  C 
ATOM      5 O    LEU P   2      18.028  -9.741 -13.283  1.00 46.46 LIG-0.27  OA
BRANCH 4 6
ATOM      6  CA  LEU P   2      15.832 -10.809 -13.389  1.00 45.94 LIG 0.18  C 
BRANCH 6 7
ATOM      7  CB  LEU P   2      16.441 -12.236 -13.435  1.00 45.93 LIG 0.04  C 
BRANCH 7 8
ATOM      8  CG  LEU P   2      17.588 -12.672 -12.478  1.00 45.11 LIG-0.02  C 
ATOM      9  CD1 LEU P   2      17.724 -11.785 -11.219  1.00 44.79 LIG 0.01  C 
ATOM     10  CD2 LEU P   2      17.453 -14.135 -12.063  1.00 44.35 LIG 0.01  C 
ENDBRANCH 7 8
ENDBRANCH 6 7
BRANCH 6 11
ATOM     11  N   LEU P   2      14.697 -10.717 -14.334  1.00 46.17 LIG-0.35  N 
ATOM     12 H    LEU P   2      14.912 -10.925 -15.141  1.00 46.17 LIG 0.16  HD
ATOM     13  C   LEU P   1      13.455 -10.349 -13.990  1.00 46.12 LIG 0.25  C 
ATOM     14 O    LEU P   1      13.117 -10.105 -12.821  1.00 46.29 LIG-0.27  OA
BRANCH 13 15
ATOM     15  CA  LEU P   1      12.429 -10.238 -15.148  1.00 45.93 LIG 0.28  C 
BRANCH 15 16
ATOM     16  N   LEU P   1      11.215 -11.101 -14.981  1.00 46.34 LIG-0.07  N 
ATOM     17 H3   LEU P   1      10.547 -10.613 -14.652  1.00 46.34 LIG 0.28  HD
ATOM     18 H2   LEU P   1      11.400 -11.768 -14.422  1.00 46.34 LIG 0.28  HD
ATOM     19 H1   LEU P   1      10.977 -11.434 -15.772  1.00 46.34 LIG 0.28  HD
ENDBRANCH 15 16
BRANCH 15 20
ATOM     20  CB  LEU P   1      12.010  -8.774 -15.357  1.00 45.65 LIG 0.05  C 
BRANCH 20 21
ATOM     21  CG  LEU P   1      10.753  -8.357 -14.585  1.00 44.28 LIG-0.02  C 
ATOM     22  CD1 LEU P   1      11.059  -8.108 -13.120  1.00 42.49 LIG 0.01  C 
ATOM     23  CD2 LEU P   1      10.106  -7.136 -15.213  1.00 44.08 LIG 0.01  C 
ENDBRANCH 20 21
ENDBRANCH 15 20
ENDBRANCH 13 15
ENDBRANCH 6 11
ENDBRANCH 4 6
ENDBRANCH 1 2
BRANCH 1 24
ATOM     24  CB  PHE P   3      18.460  -6.931 -14.107  1.00 45.09 LIG 0.07  C 
BRANCH 24 25
ATOM     25  CG  PHE P   3      18.077  -6.503 -12.628  1.00 44.37 LIG-0.06  A 
ATOM     26  CD1 PHE P   3      17.998  -7.394 -11.529  1.00 43.10 LIG 0.01  A 
ATOM     27  CE1 PHE P   3      17.577  -6.920 -10.207  1.00 41.01 LIG 0.00  A 
ATOM     28  CZ  PHE P   3      17.218  -5.571 -10.019  1.00 41.66 LIG 0.00  A 
ATOM     29  CE2 PHE P   3      17.283  -4.710 -11.101  1.00 43.89 LIG 0.00  A 
ATOM     30  CD2 PHE P   3      17.693  -5.179 -12.391  1.00 44.25 LIG 0.01  A 
ENDBRANCH 24 25
ENDBRANCH 1 24
BRANCH 1 31
ATOM     31  C   PHE P   3      17.649  -8.086 -16.356  1.00 45.74 LIG 0.26  C 
ATOM     32 N    ASN P   4      18.521  -8.962 -16.016  1.00 46.65 LIG-0.24  NA
ATOM     33 O    PHE P   3      17.294  -7.740 -17.480  1.00 45.60 LIG-0.27  OA
BRANCH 32 34
ATOM     34  CA  ASN P   4      19.526  -9.816 -16.579  1.00 47.05 LIG 0.21  C 
BRANCH 34 35
ATOM     35  CB  ASN P   4      19.964 -10.544 -15.366  1.00 46.83 LIG 0.14  C 
BRANCH 35 36
ATOM     36  CG  ASN P   4      19.535 -11.981 -15.476  1.00 47.32 LIG 0.22  C 
ATOM     37  ND2 ASN P   4      18.231 -12.183 -15.664  1.00 46.99 LIG-0.37  N 
ATOM     38 22HD ASN P   4      17.693 -11.514 -15.704  1.00 46.99 LIG 0.16  HD
ATOM     39 21HD ASN P   4      17.928 -12.984 -15.745  1.00 46.99 LIG 0.16  HD
ATOM     40 OD1  ASN P   4      20.330 -12.908 -15.414  1.00 48.95 LIG-0.27  OA
ENDBRANCH 35 36
ENDBRANCH 34 35
BRANCH 34 41
ATOM     41  C   ASN P   4      19.659 -10.797 -17.674  1.00 47.23 LIG 0.24  C 
ATOM     42  N   ASP P   5      20.990 -10.633 -17.920  1.00 48.41 LIG-0.35  N 
ATOM     43 H    ASP P   5      21.390 -10.045 -17.439  1.00 48.41 LIG 0.16  HD
ATOM     44 O    ASN P   4      18.828 -11.529 -18.190  1.00 47.17 LIG-0.27  OA
BRANCH 42 45
ATOM     45  CA  ASP P   5      21.988 -11.198 -18.813  1.00 49.16 LIG 0.17  C 
BRANCH 45 46
ATOM     46  C   ASP P   5      23.275 -11.575 -18.078  1.00 49.66 LIG 0.22  C 
ATOM     47 O    ASP P   5      23.346 -12.636 -17.446  1.00 50.85 LIG-0.29  OA
ENDBRANCH 45 46
BRANCH 45 48
ATOM     48  CB  ASP P   5      22.299 -10.170 -19.960  1.00 49.44 LIG 0.15  C 
BRANCH 48 49
ATOM     49  CG  ASP P   5      23.010  -8.843 -19.656  1.00 49.12 LIG 0.17  C 
ATOM     50 OD1  ASP P   5      24.194  -8.875 -19.256  1.00 51.19 LIG-0.65  OA
ATOM     51 OD2  ASP P   5      22.385  -7.780 -19.815  1.00 49.06 LIG-0.65  OA
ENDBRANCH 48 49
ENDBRANCH 45 48
ENDBRANCH 42 45
ENDBRANCH 34 41
ENDBRANCH 32 34
ENDBRANCH 1 31
TORSDOF 20
ENDMDL
MODEL 50
USER: ADFR SOLUTION from run 64
USER: SCORE 15.806358 LL:  -4.364 LR: -13.491 RR:   0.000 FEB:  -7.525
USER: RMSD 9.875919
USER: SEED 63
USER: STATUS no improvement in best 6 clusters for 5 generations
USER: GENES 22
USER: genes 0 Translation |==|  0.37954 0.63966 0.56941
USER: genes 1 Rotation |==|  0.21316 0.66343 0.12616 0.53555
USER: genes 2 Torsion [CB]-CA--N-[C] |==|  0.46667
USER: genes 3 Torsion [N]-C--CA-[N] |==|  0.38441
USER: genes 4 Torsion [C]-CA--CB-[CG] |==|  0.85437
USER: genes 5 Torsion [CA]-CB--CG-[CD1] |==|  0.23519
USER: genes 6 Torsion [C]-CA--N-[C] |==|  0.84175
USER: genes 7 Torsion [N]-C--CA-[N] |==|  0.39226
USER: genes 8 Torsion [C]-CA--N-[H3] |==|  0.08268
USER: genes 9 Torsion [C]-CA--CB-[CG] |==|  0.03092
USER: genes 10 Torsion [CA]-CB--CG-[CD1] |==|  0.32710
USER: genes 11 Torsion [N]-CA--CB-[CG] |==|  0.69868
USER: genes 12 Torsion [CA]-CB--CG-[CD1] |==|  0.39372
USER: genes 13 Torsion [N]-CA--C-[N] |==|  0.35191
USER: genes 14 Torsion [C]-N--CA-[C] |==|  0.82188
USER: genes 15 Torsion [N]-CA--CB-[CG] |==|  0.19680
USER: genes 16 Torsion [CA]-CB--CG-[OD1] |==|  0.79146
USER: genes 17 Torsion [N]-CA--C-[N] |==|  0.11964
USER: genes 18 Torsion [C]-N--CA-[C] |==|  0.39447
USER: genes 19 Torsion [N]-CA--C-[O] |==|  0.05527
USER: genes 20 Torsion [N]-CA--CB-[CG] |==|  0.32342
USER: genes 21 Torsion [CA]-CB--CG-[OD1] |==|  0.35001
ROOT
ATOM      1  CA  PHE P   3      16.626 -10.670 -12.208  1.00 45.52 LIG 0.18  C 
ENDROOT
BRANCH 1 2
ATOM      2  N   PHE P   3      15.197 -11.124 -11.978  1.00 45.79 LIG-0.35  N 
ATOM      3 H    PHE P   3      14.981 -11.040 -11.150  1.00 45.79 LIG 0.16  HD
ATOM      4  C   LEU P   2      14.307 -11.603 -12.855  1.00 46.01 LIG 0.24  C 
ATOM      5 O    LEU P   2      14.555 -11.660 -14.052  1.00 46.46 LIG-0.27  OA
BRANCH 4 6
ATOM      6  CA  LEU P   2      12.879 -12.047 -12.315  1.00 45.94 LIG 0.18  C 
BRANCH 6 7
ATOM      7  CB  LEU P   2      12.762 -13.580 -12.099  1.00 45.93 LIG 0.04  C 
BRANCH 7 8
ATOM      8  CG  LEU P   2      13.123 -14.598 -13.220  1.00 45.11 LIG-0.02  C 
ATOM      9  CD1 LEU P   2      14.628 -14.945 -13.290  1.00 44.79 LIG 0.01  C 
ATOM     10  CD2 LEU P   2      12.305 -15.882 -13.101  1.00 44.35 LIG 0.01  C 
ENDBRANCH 7 8
ENDBRANCH 6 7
BRANCH 6 11
ATOM     11  N   LEU P   2      11.836 -11.593 -13.261  1.00 46.17 LIG-0.35  N 
ATOM     12 H    LEU P   2      11.346 -12.235 -13.557  1.00 46.17 LIG 0.16  HD
ATOM     13  C   LEU P   1      11.656 -10.317 -13.631  1.00 46.12 LIG 0.25  C 
ATOM     14 O    LEU P   1      12.315  -9.374 -13.165  1.00 46.29 LIG-0.27  OA
BRANCH 13 15
ATOM     15  CA  LEU P   1      10.558 -10.062 -14.697  1.00 45.93 LIG 0.28  C 
BRANCH 15 16
ATOM     16  N   LEU P   1       9.753  -8.820 -14.468  1.00 46.34 LIG-0.07  N 
ATOM     17 H3   LEU P   1      10.254  -8.213 -14.051  1.00 46.34 LIG 0.28  HD
ATOM     18 H2   LEU P   1       9.044  -9.014 -13.966  1.00 46.34 LIG 0.28  HD
ATOM     19 H1   LEU P   1       9.483  -8.493 -15.250  1.00 46.34 LIG 0.28  HD
ENDBRANCH 15 16
BRANCH 15 20
ATOM     20  CB  LEU P   1      11.172 -10.040 -16.107  1.00 45.65 LIG 0.05  C 
BRANCH 20 21
ATOM     21  CG  LEU P   1      12.623 -10.529 -16.175  1.00 44.28 LIG-0.02  C 
ATOM     22  CD1 LEU P   1      12.751 -11.767 -17.042  1.00 42.49 LIG 0.01  C 
ATOM     23  CD2 LEU P   1      13.547  -9.430 -16.668  1.00 44.08 LIG 0.01  C 
ENDBRANCH 20 21
ENDBRANCH 15 20
ENDBRANCH 13 15
ENDBRANCH 6 11
ENDBRANCH 4 6
ENDBRANCH 1 2
BRANCH 1 24
ATOM     24  CB  PHE P   3      17.365  -9.893 -11.084  1.00 45.09 LIG 0.07  C 
BRANCH 24 25
ATOM     25  CG  PHE P   3      17.613  -8.348 -11.349  1.00 44.37 LIG-0.06  A 
ATOM     26  CD1 PHE P   3      17.520  -7.338 -10.358  1.00 43.10 LIG 0.01  A 
ATOM     27  CE1 PHE P   3      17.708  -5.927 -10.706  1.00 41.01 LIG 0.00  A 
ATOM     28  CZ  PHE P   3      17.958  -5.552 -12.039  1.00 41.66 LIG 0.00  A 
ATOM     29  CE2 PHE P   3      18.032  -6.542 -13.004  1.00 43.89 LIG 0.00  A 
ATOM     30  CD2 PHE P   3      17.846  -7.920 -12.660  1.00 44.25 LIG 0.01  A 
ENDBRANCH 24 25
ENDBRANCH 1 24
BRANCH 1 31
ATOM     31  C   PHE P   3      17.112 -12.095 -12.545  1.00 45.74 LIG 0.26  C 
ATOM     32 N    ASN P   4      17.681 -11.909 -13.678  1.00 46.65 LIG-0.24  NA
ATOM     33 O    PHE P   3      16.888 -13.147 -11.952  1.00 45.60 LIG-0.27  OA
BRANCH 32 34
ATOM     34  CA  ASN P   4      18.185 -12.634 -14.808  1.00 47.05 LIG 0.21  C 
BRANCH 34 35
ATOM     35  CB  ASN P   4      18.422 -11.520 -15.754  1.00 46.83 LIG 0.14  C 
BRANCH 35 36
ATOM     36  CG  ASN P   4      19.597 -10.714 -15.276  1.00 47.32 LIG 0.22  C 
ATOM     37  ND2 ASN P   4      20.729 -10.876 -15.961  1.00 46.99 LIG-0.37  N 
ATOM     38 22HD ASN P   4      20.756 -11.423 -16.624  1.00 46.99 LIG 0.16  HD
ATOM     39 21HD ASN P   4      21.432 -10.433 -15.741  1.00 46.99 LIG 0.16  HD
ATOM     40 OD1  ASN P   4      19.522  -9.944 -14.329  1.00 48.95 LIG-0.27  OA
ENDBRANCH 35 36
ENDBRANCH 34 35
BRANCH 34 41
ATOM     41  C   ASN P   4      19.247 -13.615 -15.110  1.00 47.23 LIG 0.24  C 
ATOM     42  N   ASP P   5      19.081 -14.421 -14.023  1.00 48.41 LIG-0.35  N 
ATOM     43 H    ASP P   5      18.470 -14.181 -13.469  1.00 48.41 LIG 0.16  HD
ATOM     44 O    ASN P   4      20.025 -13.679 -16.049  1.00 47.17 LIG-0.27  OA
BRANCH 42 45
ATOM     45  CA  ASP P   5      19.671 -15.641 -13.498  1.00 49.16 LIG 0.17  C 
BRANCH 45 46
ATOM     46  C   ASP P   5      19.800 -15.612 -11.974  1.00 49.66 LIG 0.22  C 
ATOM     47 O    ASP P   5      19.117 -14.830 -11.303  1.00 50.85 LIG-0.29  OA
ENDBRANCH 45 46
BRANCH 45 48
ATOM     48  CB  ASP P   5      21.079 -15.862 -14.158  1.00 49.44 LIG 0.15  C 
BRANCH 48 49
ATOM     49  CG  ASP P   5      22.358 -15.847 -13.308  1.00 49.12 LIG 0.17  C 
ATOM     50 OD1  ASP P   5      23.134 -16.826 -13.374  1.00 51.19 LIG-0.65  OA
ATOM     51 OD2  ASP P   5      22.580 -14.865 -12.579  1.00 49.06 LIG-0.65  OA
ENDBRANCH 48 49
ENDBRANCH 45 48
ENDBRANCH 42 45
ENDBRANCH 34 41
ENDBRANCH 32 34
ENDBRANCH 1 31
TORSDOF 20
ENDMDL
MODEL 51
USER: ADFR SOLUTION from run 111
USER: SCORE 16.627148 LL:  -3.910 LR: -13.480 RR:   0.000 FEB:  -7.514
USER: RMSD 10.248717
USER: SEED 110
USER: STATUS no improvement in best 6 clusters for 5 generations
USER: GENES 22
USER: genes 0 Translation |==|  0.36893 0.64832 0.54215
USER: genes 1 Rotation |==|  0.21553 0.69335 0.14503 0.57545
USER: genes 2 Torsion [CB]-CA--N-[C] |==|  0.86083
USER: genes 3 Torsion [N]-C--CA-[N] |==|  0.03156
USER: genes 4 Torsion [C]-CA--CB-[CG] |==|  0.85788
USER: genes 5 Torsion [CA]-CB--CG-[CD1] |==|  0.57193
USER: genes 6 Torsion [C]-CA--N-[C] |==|  0.80726
USER: genes 7 Torsion [N]-C--CA-[N] |==|  0.00583
USER: genes 8 Torsion [C]-CA--N-[H3] |==|  0.24464
USER: genes 9 Torsion [C]-CA--CB-[CG] |==|  0.26898
USER: genes 10 Torsion [CA]-CB--CG-[CD1] |==|  0.77087
USER: genes 11 Torsion [N]-CA--CB-[CG] |==|  0.66381
USER: genes 12 Torsion [CA]-CB--CG-[CD1] |==|  0.40012
USER: genes 13 Torsion [N]-CA--C-[N] |==|  0.38314
USER: genes 14 Torsion [C]-N--CA-[C] |==|  0.81044
USER: genes 15 Torsion [N]-CA--CB-[CG] |==|  0.23457
USER: genes 16 Torsion [CA]-CB--CG-[OD1] |==|  0.76553
USER: genes 17 Torsion [N]-CA--C-[N] |==|  0.46375
USER: genes 18 Torsion [C]-N--CA-[C] |==|  0.78053
USER: genes 19 Torsion [N]-CA--C-[O] |==|  0.99784
USER: genes 20 Torsion [N]-CA--CB-[CG] |==|  0.01103
USER: genes 21 Torsion [CA]-CB--CG-[OD1] |==|  0.13982
ROOT
ATOM      1  CA  PHE P   3      16.308 -10.410 -13.026  1.00 45.52 LIG 0.18  C 
ENDROOT
BRANCH 1 2
ATOM      2  N   PHE P   3      14.905 -10.975 -12.912  1.00 45.79 LIG-0.35  N 
ATOM      3 H    PHE P   3      14.392 -10.639 -13.514  1.00 45.79 LIG 0.16  HD
ATOM      4  C   LEU P   2      14.418 -11.869 -12.043  1.00 46.01 LIG 0.24  C 
ATOM      5 O    LEU P   2      15.139 -12.426 -11.226  1.00 46.46 LIG-0.27  OA
BRANCH 4 6
ATOM      6  CA  LEU P   2      12.875 -12.246 -12.133  1.00 45.94 LIG 0.18  C 
BRANCH 6 7
ATOM      7  CB  LEU P   2      12.619 -13.776 -12.063  1.00 45.93 LIG 0.04  C 
BRANCH 7 8
ATOM      8  CG  LEU P   2      13.373 -14.778 -12.984  1.00 45.11 LIG-0.02  C 
ATOM      9  CD1 LEU P   2      12.602 -16.092 -13.243  1.00 44.79 LIG 0.01  C 
ATOM     10  CD2 LEU P   2      13.761 -14.140 -14.316  1.00 44.35 LIG 0.01  C 
ENDBRANCH 7 8
ENDBRANCH 6 7
BRANCH 6 11
ATOM     11  N   LEU P   2      12.312 -11.700 -13.388  1.00 46.17 LIG-0.35  N 
ATOM     12 H    LEU P   2      12.108 -12.309 -13.959  1.00 46.17 LIG 0.16  HD
ATOM     13  C   LEU P   1      12.129 -10.394 -13.628  1.00 46.12 LIG 0.25  C 
ATOM     14 O    LEU P   1      12.362  -9.509 -12.790  1.00 46.29 LIG-0.27  OA
BRANCH 13 15
ATOM     15  CA  LEU P   1      11.600 -10.026 -15.039  1.00 45.93 LIG 0.28  C 
BRANCH 15 16
ATOM     16  N   LEU P   1      11.321 -11.205 -15.920  1.00 46.34 LIG-0.07  N 
ATOM     17 H3   LEU P   1      10.487 -11.485 -15.787  1.00 46.34 LIG 0.28  HD
ATOM     18 H2   LEU P   1      11.889 -11.862 -15.725  1.00 46.34 LIG 0.28  HD
ATOM     19 H1   LEU P   1      11.422 -10.969 -16.772  1.00 46.34 LIG 0.28  HD
ENDBRANCH 15 16
BRANCH 15 20
ATOM     20  CB  LEU P   1      10.347  -9.141 -14.930  1.00 45.65 LIG 0.05  C 
BRANCH 20 21
ATOM     21  CG  LEU P   1      10.619  -7.638 -15.055  1.00 44.28 LIG-0.02  C 
ATOM     22  CD1 LEU P   1      11.077  -7.046 -13.735  1.00 42.49 LIG 0.01  C 
ATOM     23  CD2 LEU P   1      11.632  -7.355 -16.149  1.00 44.08 LIG 0.01  C 
ENDBRANCH 20 21
ENDBRANCH 15 20
ENDBRANCH 13 15
ENDBRANCH 6 11
ENDBRANCH 4 6
ENDBRANCH 1 2
BRANCH 1 24
ATOM     24  CB  PHE P   3      17.003  -9.843 -11.757  1.00 45.09 LIG 0.07  C 
BRANCH 24 25
ATOM     25  CG  PHE P   3      17.447  -8.321 -11.824  1.00 44.37 LIG-0.06  A 
ATOM     26  CD1 PHE P   3      17.402  -7.422 -10.729  1.00 43.10 LIG 0.01  A 
ATOM     27  CE1 PHE P   3      17.777  -6.015 -10.897  1.00 41.01 LIG 0.00  A 
ATOM     28  CZ  PHE P   3      18.162  -5.530 -12.161  1.00 41.66 LIG 0.00  A 
ATOM     29  CE2 PHE P   3      18.188  -6.410 -13.230  1.00 43.89 LIG 0.00  A 
ATOM     30  CD2 PHE P   3      17.819  -7.784 -13.061  1.00 44.25 LIG 0.01  A 
ENDBRANCH 24 25
ENDBRANCH 1 24
BRANCH 1 31
ATOM     31  C   PHE P   3      16.870 -11.709 -13.642  1.00 45.74 LIG 0.26  C 
ATOM     32 N    ASN P   4      17.630 -11.245 -14.563  1.00 46.65 LIG-0.24  NA
ATOM     33 O    PHE P   3      16.560 -12.873 -13.403  1.00 45.60 LIG-0.27  OA
BRANCH 32 34
ATOM     34  CA  ASN P   4      18.342 -11.658 -15.738  1.00 47.05 LIG 0.21  C 
BRANCH 34 35
ATOM     35  CB  ASN P   4      18.637 -10.340 -16.346  1.00 46.83 LIG 0.14  C 
BRANCH 35 36
ATOM     36  CG  ASN P   4      19.888  -9.784 -15.725  1.00 47.32 LIG 0.22  C 
ATOM     37  ND2 ASN P   4      21.016  -9.995 -16.405  1.00 46.99 LIG-0.37  N 
ATOM     38 22HD ASN P   4      20.997 -10.436 -17.144  1.00 46.99 LIG 0.16  HD
ATOM     39 21HD ASN P   4      21.762  -9.692 -16.104  1.00 46.99 LIG 0.16  HD
ATOM     40 OD1  ASN P   4      19.877  -9.163 -14.672  1.00 48.95 LIG-0.27  OA
ENDBRANCH 35 36
ENDBRANCH 34 35
BRANCH 34 41
ATOM     41  C   ASN P   4      19.500 -12.502 -16.092  1.00 47.23 LIG 0.24  C 
ATOM     42  N   ASP P   5      19.284 -12.574 -17.436  1.00 48.41 LIG-0.35  N 
ATOM     43 H    ASP P   5      18.585 -12.166 -17.725  1.00 48.41 LIG 0.16  HD
ATOM     44 O    ASN P   4      20.379 -12.980 -15.390  1.00 47.17 LIG-0.27  OA
BRANCH 42 45
ATOM     45  CA  ASP P   5      19.929 -13.176 -18.591  1.00 49.16 LIG 0.17  C 
BRANCH 45 46
ATOM     46  C   ASP P   5      21.130 -12.361 -19.074  1.00 49.66 LIG 0.22  C 
ATOM     47 O    ASP P   5      21.444 -11.311 -18.502  1.00 50.85 LIG-0.29  OA
ENDBRANCH 45 46
BRANCH 45 48
ATOM     48  CB  ASP P   5      18.879 -13.334 -19.749  1.00 49.44 LIG 0.15  C 
BRANCH 48 49
ATOM     49  CG  ASP P   5      17.449 -12.798 -19.592  1.00 49.12 LIG 0.17  C 
ATOM     50 OD1  ASP P   5      17.288 -11.619 -19.209  1.00 51.19 LIG-0.65  OA
ATOM     51 OD2  ASP P   5      16.496 -13.555 -19.850  1.00 49.06 LIG-0.65  OA
ENDBRANCH 48 49
ENDBRANCH 45 48
ENDBRANCH 42 45
ENDBRANCH 34 41
ENDBRANCH 32 34
ENDBRANCH 1 31
TORSDOF 20
ENDMDL
MODEL 52
USER: ADFR SOLUTION from run 93
USER: SCORE 15.966535 LL:  -3.764 LR: -13.483 RR:   0.000 FEB:  -7.517
USER: RMSD 10.130499
USER: SEED 92
USER: STATUS no improvement in best 11 clusters for 5 generations
USER: GENES 22
USER: genes 0 Translation |==|  0.26020 0.60548 0.46491
USER: genes 1 Rotation |==|  0.96691 0.58860 0.39894 0.61805
USER: genes 2 Torsion [CB]-CA--N-[C] |==|  0.19372
USER: genes 3 Torsion [N]-C--CA-[N] |==|  0.34581
USER: genes 4 Torsion [C]-CA--CB-[CG] |==|  0.36762
USER: genes 5 Torsion [CA]-CB--CG-[CD1] |==|  0.92147
USER: genes 6 Torsion [C]-CA--N-[C] |==|  0.56307
USER: genes 7 Torsion [N]-C--CA-[N] |==|  0.75871
USER: genes 8 Torsion [C]-CA--N-[H3] |==|  0.28644
USER: genes 9 Torsion [C]-CA--CB-[CG] |==|  0.23852
USER: genes 10 Torsion [CA]-CB--CG-[CD1] |==|  0.44955
USER: genes 11 Torsion [N]-CA--CB-[CG] |==|  0.78342
USER: genes 12 Torsion [CA]-CB--CG-[CD1] |==|  0.36318
USER: genes 13 Torsion [N]-CA--C-[N] |==|  0.20143
USER: genes 14 Torsion [C]-N--CA-[C] |==|  0.73551
USER: genes 15 Torsion [N]-CA--CB-[CG] |==|  0.14101
USER: genes 16 Torsion [CA]-CB--CG-[OD1] |==|  0.06810
USER: genes 17 Torsion [N]-CA--C-[N] |==|  0.37539
USER: genes 18 Torsion [C]-N--CA-[C] |==|  0.07476
USER: genes 19 Torsion [N]-CA--C-[O] |==|  0.13885
USER: genes 20 Torsion [N]-CA--CB-[CG] |==|  0.37708
USER: genes 21 Torsion [CA]-CB--CG-[OD1] |==|  0.68421
ROOT
ATOM      1  CA  PHE P   3      13.046 -11.696 -15.343  1.00 45.52 LIG 0.18  C 
ENDROOT
BRANCH 1 2
ATOM      2  N   PHE P   3      14.373 -11.436 -14.655  1.00 45.79 LIG-0.35  N 
ATOM      3 H    PHE P   3      14.963 -12.008 -14.906  1.00 45.79 LIG 0.16  HD
ATOM      4  C   LEU P   2      14.697 -10.487 -13.768  1.00 46.01 LIG 0.24  C 
ATOM      5 O    LEU P   2      13.905  -9.610 -13.450  1.00 46.46 LIG-0.27  OA
BRANCH 4 6
ATOM      6  CA  LEU P   2      16.172 -10.484 -13.173  1.00 45.94 LIG 0.18  C 
BRANCH 6 7
ATOM      7  CB  LEU P   2      16.215 -10.817 -11.657  1.00 45.93 LIG 0.04  C 
BRANCH 7 8
ATOM      8  CG  LEU P   2      17.211 -11.860 -11.072  1.00 45.11 LIG-0.02  C 
ATOM      9  CD1 LEU P   2      17.615 -12.968 -12.071  1.00 44.79 LIG 0.01  C 
ATOM     10  CD2 LEU P   2      18.465 -11.191 -10.513  1.00 44.35 LIG 0.01  C 
ENDBRANCH 7 8
ENDBRANCH 6 7
BRANCH 6 11
ATOM     11  N   LEU P   2      16.793  -9.162 -13.413  1.00 46.17 LIG-0.35  N 
ATOM     12 H    LEU P   2      16.216  -8.535 -13.531  1.00 46.17 LIG 0.16  HD
ATOM     13  C   LEU P   1      18.115  -8.944 -13.447  1.00 46.12 LIG 0.25  C 
ATOM     14 O    LEU P   1      18.956  -9.827 -13.218  1.00 46.29 LIG-0.27  OA
BRANCH 13 15
ATOM     15  CA  LEU P   1      18.561  -7.499 -13.795  1.00 45.93 LIG 0.28  C 
BRANCH 15 16
ATOM     16  N   LEU P   1      18.687  -7.230 -15.264  1.00 46.34 LIG-0.07  N 
ATOM     17 H3   LEU P   1      17.982  -6.762 -15.542  1.00 46.34 LIG 0.28  HD
ATOM     18 H2   LEU P   1      18.722  -8.002 -15.706  1.00 46.34 LIG 0.28  HD
ATOM     19 H1   LEU P   1      19.430  -6.766 -15.418  1.00 46.34 LIG 0.28  HD
ENDBRANCH 15 16
BRANCH 15 20
ATOM     20  CB  LEU P   1      17.615  -6.474 -13.150  1.00 45.65 LIG 0.05  C 
BRANCH 20 21
ATOM     21  CG  LEU P   1      17.973  -6.100 -11.708  1.00 44.28 LIG-0.02  C 
ATOM     22  CD1 LEU P   1      17.306  -4.802 -11.290  1.00 42.49 LIG 0.01  C 
ATOM     23  CD2 LEU P   1      17.615  -7.220 -10.748  1.00 44.08 LIG 0.01  C 
ENDBRANCH 20 21
ENDBRANCH 15 20
ENDBRANCH 13 15
ENDBRANCH 6 11
ENDBRANCH 4 6
ENDBRANCH 1 2
BRANCH 1 24
ATOM     24  CB  PHE P   3      12.535 -10.690 -16.410  1.00 45.09 LIG 0.07  C 
BRANCH 24 25
ATOM     25  CG  PHE P   3      11.890  -9.349 -15.857  1.00 44.37 LIG-0.06  A 
ATOM     26  CD1 PHE P   3      12.232  -8.049 -16.306  1.00 43.10 LIG 0.01  A 
ATOM     27  CE1 PHE P   3      11.627  -6.862 -15.696  1.00 41.01 LIG 0.00  A 
ATOM     28  CZ  PHE P   3      10.715  -6.997 -14.632  1.00 41.66 LIG 0.00  A 
ATOM     29  CE2 PHE P   3      10.398  -8.270 -14.189  1.00 43.89 LIG 0.00  A 
ATOM     30  CD2 PHE P   3      10.993  -9.427 -14.787  1.00 44.25 LIG 0.01  A 
ENDBRANCH 24 25
ENDBRANCH 1 24
BRANCH 1 31
ATOM     31  C   PHE P   3      13.472 -13.102 -15.815  1.00 45.74 LIG 0.26  C 
ATOM     32 N    ASN P   4      13.445 -13.759 -14.716  1.00 46.65 LIG-0.24  NA
ATOM     33 O    PHE P   3      13.867 -13.456 -16.923  1.00 45.60 LIG-0.27  OA
BRANCH 32 34
ATOM     34  CA  ASN P   4      13.885 -14.999 -14.144  1.00 47.05 LIG 0.21  C 
BRANCH 34 35
ATOM     35  CB  ASN P   4      14.350 -14.529 -12.818  1.00 46.83 LIG 0.14  C 
BRANCH 35 36
ATOM     36  CG  ASN P   4      13.268 -13.699 -12.186  1.00 47.32 LIG 0.22  C 
ATOM     37  ND2 ASN P   4      13.676 -12.800 -11.291  1.00 46.99 LIG-0.37  N 
ATOM     38 22HD ASN P   4      14.512 -12.731 -11.100  1.00 46.99 LIG 0.16  HD
ATOM     39 21HD ASN P   4      13.104 -12.288 -10.903  1.00 46.99 LIG 0.16  HD
ATOM     40 OD1  ASN P   4      12.089 -13.825 -12.481  1.00 48.95 LIG-0.27  OA
ENDBRANCH 35 36
ENDBRANCH 34 35
BRANCH 34 41
ATOM     41  C   ASN P   4      13.353 -16.354 -13.896  1.00 47.23 LIG 0.24  C 
ATOM     42  N   ASP P   5      14.435 -17.067 -14.321  1.00 48.41 LIG-0.35  N 
ATOM     43 H    ASP P   5      15.095 -16.604 -14.618  1.00 48.41 LIG 0.16  HD
ATOM     44 O    ASN P   4      12.277 -16.715 -13.445  1.00 47.17 LIG-0.27  OA
BRANCH 42 45
ATOM     45  CA  ASP P   5      14.819 -18.464 -14.426  1.00 49.16 LIG 0.17  C 
BRANCH 45 46
ATOM     46  C   ASP P   5      13.609 -19.388 -14.575  1.00 49.66 LIG 0.22  C 
ATOM     47 O    ASP P   5      12.741 -19.150 -15.423  1.00 50.85 LIG-0.29  OA
ENDBRANCH 45 46
BRANCH 45 48
ATOM     48  CB  ASP P   5      15.657 -18.868 -13.160  1.00 49.44 LIG 0.15  C 
BRANCH 48 49
ATOM     49  CG  ASP P   5      15.392 -20.193 -12.430  1.00 49.12 LIG 0.17  C 
ATOM     50 OD1  ASP P   5      14.938 -20.156 -11.266  1.00 51.19 LIG-0.65  OA
ATOM     51 OD2  ASP P   5      15.640 -21.260 -13.019  1.00 49.06 LIG-0.65  OA
ENDBRANCH 48 49
ENDBRANCH 45 48
ENDBRANCH 42 45
ENDBRANCH 34 41
ENDBRANCH 32 34
ENDBRANCH 1 31
TORSDOF 20
ENDMDL
MODEL 53
USER: ADFR SOLUTION from run 13
USER: SCORE 16.382668 LL:  -4.281 LR: -13.472 RR:   0.000 FEB:  -7.506
USER: RMSD 8.891682
USER: SEED 775530
USER: STATUS no improvement in best 8 clusters for 5 generations
USER: GENES 22
USER: genes 0 Translation |==|  0.38988 0.57442 0.57967
USER: genes 1 Rotation |==|  0.75453 0.87626 0.29991 0.56010
USER: genes 2 Torsion [CB]-CA--N-[C] |==|  0.24276
USER: genes 3 Torsion [N]-C--CA-[N] |==|  0.05499
USER: genes 4 Torsion [C]-CA--CB-[CG] |==|  0.47765
USER: genes 5 Torsion [CA]-CB--CG-[CD1] |==|  0.10732
USER: genes 6 Torsion [C]-CA--N-[C] |==|  0.73205
USER: genes 7 Torsion [N]-C--CA-[N] |==|  0.91686
USER: genes 8 Torsion [C]-CA--N-[H3] |==|  0.36908
USER: genes 9 Torsion [C]-CA--CB-[CG] |==|  0.47814
USER: genes 10 Torsion [CA]-CB--CG-[CD1] |==|  0.51581
USER: genes 11 Torsion [N]-CA--CB-[CG] |==|  0.10555
USER: genes 12 Torsion [CA]-CB--CG-[CD1] |==|  0.01901
USER: genes 13 Torsion [N]-CA--C-[N] |==|  0.44340
USER: genes 14 Torsion [C]-N--CA-[C] |==|  0.65099
USER: genes 15 Torsion [N]-CA--CB-[CG] |==|  0.08674
USER: genes 16 Torsion [CA]-CB--CG-[OD1] |==|  0.64438
USER: genes 17 Torsion [N]-CA--C-[N] |==|  0.97927
USER: genes 18 Torsion [C]-N--CA-[C] |==|  0.55695
USER: genes 19 Torsion [N]-CA--C-[O] |==|  0.98312
USER: genes 20 Torsion [N]-CA--CB-[CG] |==|  0.94872
USER: genes 21 Torsion [CA]-CB--CG-[OD1] |==|  0.18422
ROOT
ATOM      1  CA  PHE P   3      16.936 -12.628 -11.900  1.00 45.52 LIG 0.18  C 
ENDROOT
BRANCH 1 2
ATOM      2  N   PHE P   3      17.304 -11.160 -12.006  1.00 45.79 LIG-0.35  N 
ATOM      3 H    PHE P   3      17.317 -10.908 -12.828  1.00 45.79 LIG 0.16  HD
ATOM      4  C   LEU P   2      17.590 -10.284 -11.035  1.00 46.01 LIG 0.24  C 
ATOM      5 O    LEU P   2      17.503 -10.589  -9.853  1.00 46.46 LIG-0.27  OA
BRANCH 4 6
ATOM      6  CA  LEU P   2      17.990  -8.802 -11.449  1.00 45.94 LIG 0.18  C 
BRANCH 6 7
ATOM      7  CB  LEU P   2      17.424  -7.728 -10.481  1.00 45.93 LIG 0.04  C 
BRANCH 7 8
ATOM      8  CG  LEU P   2      17.838  -6.231 -10.582  1.00 45.11 LIG-0.02  C 
ATOM      9  CD1 LEU P   2      17.992  -5.720 -12.032  1.00 44.79 LIG 0.01  C 
ATOM     10  CD2 LEU P   2      16.874  -5.326  -9.818  1.00 44.35 LIG 0.01  C 
ENDBRANCH 7 8
ENDBRANCH 6 7
BRANCH 6 11
ATOM     11  N   LEU P   2      17.518  -8.535 -12.826  1.00 46.17 LIG-0.35  N 
ATOM     12 H    LEU P   2      16.694  -8.292 -12.859  1.00 46.17 LIG 0.16  HD
ATOM     13  C   LEU P   1      18.281  -8.654 -13.922  1.00 46.12 LIG 0.25  C 
ATOM     14 O    LEU P   1      19.487  -8.944 -13.883  1.00 46.29 LIG-0.27  OA
BRANCH 13 15
ATOM     15  CA  LEU P   1      17.571  -8.406 -15.279  1.00 45.93 LIG 0.28  C 
BRANCH 15 16
ATOM     16  N   LEU P   1      16.115  -8.760 -15.287  1.00 46.34 LIG-0.07  N 
ATOM     17 H3   LEU P   1      15.650  -8.097 -15.658  1.00 46.34 LIG 0.28  HD
ATOM     18 H2   LEU P   1      15.836  -8.887 -14.451  1.00 46.34 LIG 0.28  HD
ATOM     19 H1   LEU P   1      15.994  -9.506 -15.757  1.00 46.34 LIG 0.28  HD
ENDBRANCH 15 16
BRANCH 15 20
ATOM     20  CB  LEU P   1      17.762  -6.948 -15.727  1.00 45.65 LIG 0.05  C 
BRANCH 20 21
ATOM     21  CG  LEU P   1      17.261  -6.649 -17.145  1.00 44.28 LIG-0.02  C 
ATOM     22  CD1 LEU P   1      17.606  -5.234 -17.568  1.00 42.49 LIG 0.01  C 
ATOM     23  CD2 LEU P   1      17.809  -7.656 -18.141  1.00 44.08 LIG 0.01  C 
ENDBRANCH 20 21
ENDBRANCH 15 20
ENDBRANCH 13 15
ENDBRANCH 6 11
ENDBRANCH 4 6
ENDBRANCH 1 2
BRANCH 1 24
ATOM     24  CB  PHE P   3      15.448 -13.024 -11.702  1.00 45.09 LIG 0.07  C 
BRANCH 24 25
ATOM     25  CG  PHE P   3      14.381 -12.155 -12.492  1.00 44.37 LIG-0.06  A 
ATOM     26  CD1 PHE P   3      14.705 -11.161 -13.449  1.00 43.10 LIG 0.01  A 
ATOM     27  CE1 PHE P   3      13.654 -10.364 -14.088  1.00 41.01 LIG 0.00  A 
ATOM     28  CZ  PHE P   3      12.304 -10.559 -13.739  1.00 41.66 LIG 0.00  A 
ATOM     29  CE2 PHE P   3      11.996 -11.522 -12.792  1.00 43.89 LIG 0.00  A 
ATOM     30  CD2 PHE P   3      13.027 -12.297 -12.169  1.00 44.25 LIG 0.01  A 
ENDBRANCH 24 25
ENDBRANCH 1 24
BRANCH 1 31
ATOM     31  C   PHE P   3      17.609 -12.979 -13.244  1.00 45.74 LIG 0.26  C 
ATOM     32 N    ASN P   4      17.782 -14.242 -13.120  1.00 46.65 LIG-0.24  NA
ATOM     33 O    PHE P   3      18.000 -12.224 -14.131  1.00 45.60 LIG-0.27  OA
BRANCH 32 34
ATOM     34  CA  ASN P   4      18.497 -15.336 -13.712  1.00 47.05 LIG 0.21  C 
BRANCH 34 35
ATOM     35  CB  ASN P   4      19.514 -15.585 -12.665  1.00 46.83 LIG 0.14  C 
BRANCH 35 36
ATOM     36  CG  ASN P   4      18.932 -15.239 -11.323  1.00 47.32 LIG 0.22  C 
ATOM     37  ND2 ASN P   4      17.766 -15.816 -11.031  1.00 46.99 LIG-0.37  N 
ATOM     38 22HD ASN P   4      17.391 -16.340 -11.600  1.00 46.99 LIG 0.16  HD
ATOM     39 21HD ASN P   4      17.389 -15.664 -10.273  1.00 46.99 LIG 0.16  HD
ATOM     40 OD1  ASN P   4      19.494 -14.489 -10.539  1.00 48.95 LIG-0.27  OA
ENDBRANCH 35 36
ENDBRANCH 34 35
BRANCH 34 41
ATOM     41  C   ASN P   4      18.210 -16.668 -14.280  1.00 47.23 LIG 0.24  C 
ATOM     42  N   ASP P   5      16.890 -16.741 -13.945  1.00 48.41 LIG-0.35  N 
ATOM     43 H    ASP P   5      16.576 -16.068 -13.512  1.00 48.41 LIG 0.16  HD
ATOM     44 O    ASN P   4      18.936 -17.453 -14.870  1.00 47.17 LIG-0.27  OA
BRANCH 42 45
ATOM     45  CA  ASP P   5      15.794 -17.680 -14.117  1.00 49.16 LIG 0.17  C 
BRANCH 45 46
ATOM     46  C   ASP P   5      14.427 -17.011 -13.963  1.00 49.66 LIG 0.22  C 
ATOM     47 O    ASP P   5      14.346 -15.828 -13.610  1.00 50.85 LIG-0.29  OA
ENDBRANCH 45 46
BRANCH 45 48
ATOM     48  CB  ASP P   5      15.945 -18.850 -13.080  1.00 49.44 LIG 0.15  C 
BRANCH 48 49
ATOM     49  CG  ASP P   5      17.290 -19.121 -12.390  1.00 49.12 LIG 0.17  C 
ATOM     50 OD1  ASP P   5      17.741 -18.266 -11.597  1.00 51.19 LIG-0.65  OA
ATOM     51 OD2  ASP P   5      17.888 -20.181 -12.642  1.00 49.06 LIG-0.65  OA
ENDBRANCH 48 49
ENDBRANCH 45 48
ENDBRANCH 42 45
ENDBRANCH 34 41
ENDBRANCH 32 34
ENDBRANCH 1 31
TORSDOF 20
ENDMDL
MODEL 54
USER: ADFR SOLUTION from run 52
USER: SCORE 15.980627 LL:  -4.790 LR: -13.456 RR:   0.000 FEB:  -7.490
USER: RMSD 9.053575
USER: SEED 51
USER: STATUS no improvement in best 12 clusters for 5 generations
USER: GENES 22
USER: genes 0 Translation |==|  0.35698 0.64337 0.57806
USER: genes 1 Rotation |==|  0.46162 0.74740 0.35746 0.90866
USER: genes 2 Torsion [CB]-CA--N-[C] |==|  0.18393
USER: genes 3 Torsion [N]-C--CA-[N] |==|  0.67737
USER: genes 4 Torsion [C]-CA--CB-[CG] |==|  0.34526
USER: genes 5 Torsion [CA]-CB--CG-[CD1] |==|  0.85757
USER: genes 6 Torsion [C]-CA--N-[C] |==|  0.72127
USER: genes 7 Torsion [N]-C--CA-[N] |==|  0.54880
USER: genes 8 Torsion [C]-CA--N-[H3] |==|  0.85372
USER: genes 9 Torsion [C]-CA--CB-[CG] |==|  0.76923
USER: genes 10 Torsion [CA]-CB--CG-[CD1] |==|  0.16966
USER: genes 11 Torsion [N]-CA--CB-[CG] |==|  0.93253
USER: genes 12 Torsion [CA]-CB--CG-[CD1] |==|  0.74299
USER: genes 13 Torsion [N]-CA--C-[N] |==|  0.21289
USER: genes 14 Torsion [C]-N--CA-[C] |==|  0.08334
USER: genes 15 Torsion [N]-CA--CB-[CG] |==|  0.64704
USER: genes 16 Torsion [CA]-CB--CG-[OD1] |==|  0.91282
USER: genes 17 Torsion [N]-CA--C-[N] |==|  0.14460
USER: genes 18 Torsion [C]-N--CA-[C] |==|  0.66674
USER: genes 19 Torsion [N]-CA--C-[O] |==|  0.90757
USER: genes 20 Torsion [N]-CA--CB-[CG] |==|  0.94688
USER: genes 21 Torsion [CA]-CB--CG-[OD1] |==|  0.85080
ROOT
ATOM      1  CA  PHE P   3      15.949 -10.559 -11.948  1.00 45.52 LIG 0.18  C 
ENDROOT
BRANCH 1 2
ATOM      2  N   PHE P   3      15.572 -10.367 -13.405  1.00 45.79 LIG-0.35  N 
ATOM      3 H    PHE P   3      16.253 -10.112 -13.864  1.00 45.79 LIG 0.16  HD
ATOM      4  C   LEU P   2      14.388 -10.537 -14.004  1.00 46.01 LIG 0.24  C 
ATOM      5 O    LEU P   2      13.420 -10.975 -13.396  1.00 46.46 LIG-0.27  OA
BRANCH 4 6
ATOM      6  CA  LEU P   2      14.274 -10.214 -15.557  1.00 45.94 LIG 0.18  C 
BRANCH 6 7
ATOM      7  CB  LEU P   2      15.643  -9.880 -16.209  1.00 45.93 LIG 0.04  C 
BRANCH 7 8
ATOM      8  CG  LEU P   2      16.179 -10.664 -17.442  1.00 45.11 LIG-0.02  C 
ATOM      9  CD1 LEU P   2      16.161 -12.199 -17.265  1.00 44.79 LIG 0.01  C 
ATOM     10  CD2 LEU P   2      15.431 -10.286 -18.719  1.00 44.35 LIG 0.01  C 
ENDBRANCH 7 8
ENDBRANCH 6 7
BRANCH 6 11
ATOM     11  N   LEU P   2      13.337  -9.085 -15.753  1.00 46.17 LIG-0.35  N 
ATOM     12 H    LEU P   2      13.694  -8.319 -15.596  1.00 46.17 LIG 0.16  HD
ATOM     13  C   LEU P   1      12.059  -9.222 -16.136  1.00 46.12 LIG 0.25  C 
ATOM     14 O    LEU P   1      11.549 -10.316 -16.424  1.00 46.29 LIG-0.27  OA
BRANCH 13 15
ATOM     15  CA  LEU P   1      11.222  -7.918 -16.204  1.00 45.93 LIG 0.28  C 
BRANCH 15 16
ATOM     16  N   LEU P   1       9.740  -8.137 -16.224  1.00 46.34 LIG-0.07  N 
ATOM     17 H3   LEU P   1       9.533  -8.711 -16.873  1.00 46.34 LIG 0.28  HD
ATOM     18 H2   LEU P   1       9.327  -7.362 -16.370  1.00 46.34 LIG 0.28  HD
ATOM     19 H1   LEU P   1       9.479  -8.469 -15.441  1.00 46.34 LIG 0.28  HD
ENDBRANCH 15 16
BRANCH 15 20
ATOM     20  CB  LEU P   1      11.600  -6.975 -15.051  1.00 45.65 LIG 0.05  C 
BRANCH 20 21
ATOM     21  CG  LEU P   1      10.896  -7.281 -13.724  1.00 44.28 LIG-0.02  C 
ATOM     22  CD1 LEU P   1      11.238  -8.671 -13.223  1.00 42.49 LIG 0.01  C 
ATOM     23  CD2 LEU P   1      11.228  -6.235 -12.675  1.00 44.08 LIG 0.01  C 
ENDBRANCH 20 21
ENDBRANCH 15 20
ENDBRANCH 13 15
ENDBRANCH 6 11
ENDBRANCH 4 6
ENDBRANCH 1 2
BRANCH 1 24
ATOM     24  CB  PHE P   3      15.911 -11.986 -11.336  1.00 45.09 LIG 0.07  C 
BRANCH 24 25
ATOM     25  CG  PHE P   3      14.947 -13.027 -12.047  1.00 44.37 LIG-0.06  A 
ATOM     26  CD1 PHE P   3      13.602 -13.264 -11.668  1.00 43.10 LIG 0.01  A 
ATOM     27  CE1 PHE P   3      12.801 -14.289 -12.345  1.00 41.01 LIG 0.00  A 
ATOM     28  CZ  PHE P   3      13.370 -15.073 -13.367  1.00 41.66 LIG 0.00  A 
ATOM     29  CE2 PHE P   3      14.689 -14.846 -13.721  1.00 43.89 LIG 0.00  A 
ATOM     30  CD2 PHE P   3      15.468 -13.844 -13.056  1.00 44.25 LIG 0.01  A 
ENDBRANCH 24 25
ENDBRANCH 1 24
BRANCH 1 31
ATOM     31  C   PHE P   3      17.325  -9.884 -12.129  1.00 45.74 LIG 0.26  C 
ATOM     32 N    ASN P   4      16.998  -8.645 -12.169  1.00 46.65 LIG-0.24  NA
ATOM     33 O    PHE P   3      18.420 -10.405 -12.326  1.00 45.60 LIG-0.27  OA
BRANCH 32 34
ATOM     34  CA  ASN P   4      17.527  -7.361 -12.523  1.00 47.05 LIG 0.21  C 
BRANCH 34 35
ATOM     35  CB  ASN P   4      17.968  -6.879 -11.193  1.00 46.83 LIG 0.14  C 
BRANCH 35 36
ATOM     36  CG  ASN P   4      17.369  -5.525 -10.939  1.00 47.32 LIG 0.22  C 
ATOM     37  ND2 ASN P   4      17.119  -5.231  -9.663  1.00 46.99 LIG-0.37  N 
ATOM     38 22HD ASN P   4      17.290  -5.807  -9.048  1.00 46.99 LIG 0.16  HD
ATOM     39 21HD ASN P   4      16.785  -4.466  -9.456  1.00 46.99 LIG 0.16  HD
ATOM     40 OD1  ASN P   4      17.139  -4.731 -11.841  1.00 48.95 LIG-0.27  OA
ENDBRANCH 35 36
ENDBRANCH 34 35
BRANCH 34 41
ATOM     41  C   ASN P   4      18.504  -6.788 -13.471  1.00 47.23 LIG 0.24  C 
ATOM     42  N   ASP P   5      18.020  -7.354 -14.613  1.00 48.41 LIG-0.35  N 
ATOM     43 H    ASP P   5      17.339  -7.871 -14.515  1.00 48.41 LIG 0.16  HD
ATOM     44 O    ASN P   4      19.448  -6.036 -13.282  1.00 47.17 LIG-0.27  OA
BRANCH 42 45
ATOM     45  CA  ASP P   5      18.337  -7.338 -16.031  1.00 49.16 LIG 0.17  C 
BRANCH 45 46
ATOM     46  C   ASP P   5      17.176  -6.816 -16.879  1.00 49.66 LIG 0.22  C 
ATOM     47 O    ASP P   5      16.007  -7.033 -16.540  1.00 50.85 LIG-0.29  OA
ENDBRANCH 45 46
BRANCH 45 48
ATOM     48  CB  ASP P   5      18.736  -8.786 -16.490  1.00 49.44 LIG 0.15  C 
BRANCH 48 49
ATOM     49  CG  ASP P   5      19.171  -9.845 -15.467  1.00 49.12 LIG 0.17  C 
ATOM     50 OD1  ASP P   5      20.100  -9.570 -14.677  1.00 51.19 LIG-0.65  OA
ATOM     51 OD2  ASP P   5      18.588 -10.944 -15.459  1.00 49.06 LIG-0.65  OA
ENDBRANCH 48 49
ENDBRANCH 45 48
ENDBRANCH 42 45
ENDBRANCH 34 41
ENDBRANCH 32 34
ENDBRANCH 1 31
TORSDOF 20
ENDMDL
MODEL 55
USER: ADFR SOLUTION from run 105
USER: SCORE 16.834732 LL:  -6.146 LR: -13.463 RR:   0.000 FEB:  -7.497
USER: RMSD 10.271274
USER: SEED 104
USER: STATUS searching
USER: GENES 22
USER: genes 0 Translation |==|  0.42223 0.68291 0.49099
USER: genes 1 Rotation |==|  0.51150 0.41103 0.92258 0.75175
USER: genes 2 Torsion [CB]-CA--N-[C] |==|  0.18225
USER: genes 3 Torsion [N]-C--CA-[N] |==|  0.99910
USER: genes 4 Torsion [C]-CA--CB-[CG] |==|  0.41633
USER: genes 5 Torsion [CA]-CB--CG-[CD1] |==|  0.67774
USER: genes 6 Torsion [C]-CA--N-[C] |==|  0.68531
USER: genes 7 Torsion [N]-C--CA-[N] |==|  0.82463
USER: genes 8 Torsion [C]-CA--N-[H3] |==|  0.68863
USER: genes 9 Torsion [C]-CA--CB-[CG] |==|  0.50579
USER: genes 10 Torsion [CA]-CB--CG-[CD1] |==|  0.91398
USER: genes 11 Torsion [N]-CA--CB-[CG] |==|  0.15224
USER: genes 12 Torsion [CA]-CB--CG-[CD1] |==|  0.27046
USER: genes 13 Torsion [N]-CA--C-[N] |==|  0.49444
USER: genes 14 Torsion [C]-N--CA-[C] |==|  0.08569
USER: genes 15 Torsion [N]-CA--CB-[CG] |==|  0.75326
USER: genes 16 Torsion [CA]-CB--CG-[OD1] |==|  0.66426
USER: genes 17 Torsion [N]-CA--C-[N] |==|  0.91793
USER: genes 18 Torsion [C]-N--CA-[C] |==|  0.65924
USER: genes 19 Torsion [N]-CA--C-[O] |==|  0.92616
USER: genes 20 Torsion [N]-CA--CB-[CG] |==|  0.25790
USER: genes 21 Torsion [CA]-CB--CG-[OD1] |==|  0.72706
ROOT
ATOM      1  CA  PHE P   3      17.907  -9.373 -14.560  1.00 45.52 LIG 0.18  C 
ENDROOT
BRANCH 1 2
ATOM      2  N   PHE P   3      17.106  -8.543 -15.545  1.00 45.79 LIG-0.35  N 
ATOM      3 H    PHE P   3      16.270  -8.556 -15.345  1.00 45.79 LIG 0.16  HD
ATOM      4  C   LEU P   2      17.527  -7.847 -16.609  1.00 46.01 LIG 0.24  C 
ATOM      5 O    LEU P   2      18.717  -7.742 -16.875  1.00 46.46 LIG-0.27  OA
BRANCH 4 6
ATOM      6  CA  LEU P   2      16.442  -7.099 -17.499  1.00 45.94 LIG 0.18  C 
BRANCH 6 7
ATOM      7  CB  LEU P   2      16.696  -5.571 -17.607  1.00 45.93 LIG 0.04  C 
BRANCH 7 8
ATOM      8  CG  LEU P   2      16.277  -4.755 -18.864  1.00 45.11 LIG-0.02  C 
ATOM      9  CD1 LEU P   2      17.466  -4.136 -19.633  1.00 44.79 LIG 0.01  C 
ATOM     10  CD2 LEU P   2      15.425  -5.588 -19.820  1.00 44.35 LIG 0.01  C 
ENDBRANCH 7 8
ENDBRANCH 6 7
BRANCH 6 11
ATOM     11  N   LEU P   2      15.095  -7.346 -16.937  1.00 46.17 LIG-0.35  N 
ATOM     12 H    LEU P   2      14.980  -6.984 -16.165  1.00 46.17 LIG 0.16  HD
ATOM     13  C   LEU P   1      14.139  -8.055 -17.552  1.00 46.12 LIG 0.25  C 
ATOM     14 O    LEU P   1      14.270  -8.530 -18.692  1.00 46.29 LIG-0.27  OA
BRANCH 13 15
ATOM     15  CA  LEU P   1      12.824  -8.265 -16.757  1.00 45.93 LIG 0.28  C 
BRANCH 15 16
ATOM     16  N   LEU P   1      12.987  -9.050 -15.491  1.00 46.34 LIG-0.07  N 
ATOM     17 H3   LEU P   1      12.579  -9.836 -15.574  1.00 46.34 LIG 0.28  HD
ATOM     18 H2   LEU P   1      12.627  -8.598 -14.813  1.00 46.34 LIG 0.28  HD
ATOM     19 H1   LEU P   1      13.853  -9.181 -15.333  1.00 46.34 LIG 0.28  HD
ENDBRANCH 15 16
BRANCH 15 20
ATOM     20  CB  LEU P   1      12.156  -6.913 -16.456  1.00 45.65 LIG 0.05  C 
BRANCH 20 21
ATOM     21  CG  LEU P   1      10.870  -7.011 -15.627  1.00 44.28 LIG-0.02  C 
ATOM     22  CD1 LEU P   1      10.132  -8.308 -15.900  1.00 42.49 LIG 0.01  C 
ATOM     23  CD2 LEU P   1      11.164  -6.863 -14.145  1.00 44.08 LIG 0.01  C 
ENDBRANCH 20 21
ENDBRANCH 15 20
ENDBRANCH 13 15
ENDBRANCH 6 11
ENDBRANCH 4 6
ENDBRANCH 1 2
BRANCH 1 24
ATOM     24  CB  PHE P   3      18.934  -8.667 -13.632  1.00 45.09 LIG 0.07  C 
BRANCH 24 25
ATOM     25  CG  PHE P   3      18.373  -7.475 -12.748  1.00 44.37 LIG-0.06  A 
ATOM     26  CD1 PHE P   3      17.973  -7.598 -11.394  1.00 43.10 LIG 0.01  A 
ATOM     27  CE1 PHE P   3      17.411  -6.454 -10.670  1.00 41.01 LIG 0.00  A 
ATOM     28  CZ  PHE P   3      17.236  -5.219 -11.323  1.00 41.66 LIG 0.00  A 
ATOM     29  CE2 PHE P   3      17.615  -5.110 -12.650  1.00 43.89 LIG 0.00  A 
ATOM     30  CD2 PHE P   3      18.162  -6.232 -13.354  1.00 44.25 LIG 0.01  A 
ENDBRANCH 24 25
ENDBRANCH 1 24
BRANCH 1 31
ATOM     31  C   PHE P   3      16.643  -9.980 -13.916  1.00 45.74 LIG 0.26  C 
ATOM     32 N    ASN P   4      17.154 -10.774 -13.050  1.00 46.65 LIG-0.24  NA
ATOM     33 O    PHE P   3      15.468  -9.842 -14.245  1.00 45.60 LIG-0.27  OA
BRANCH 32 34
ATOM     34  CA  ASN P   4      16.804 -11.870 -12.195  1.00 47.05 LIG 0.21  C 
BRANCH 34 35
ATOM     35  CB  ASN P   4      16.537 -11.146 -10.931  1.00 46.83 LIG 0.14  C 
BRANCH 35 36
ATOM     36  CG  ASN P   4      17.819 -11.027 -10.155  1.00 47.32 LIG 0.22  C 
ATOM     37  ND2 ASN P   4      18.808 -10.374 -10.765  1.00 46.99 LIG-0.37  N 
ATOM     38 22HD ASN P   4      18.692 -10.061 -11.558  1.00 46.99 LIG 0.16  HD
ATOM     39 21HD ASN P   4      19.562 -10.265 -10.366  1.00 46.99 LIG 0.16  HD
ATOM     40 OD1  ASN P   4      17.947 -11.485  -9.029  1.00 48.95 LIG-0.27  OA
ENDBRANCH 35 36
ENDBRANCH 34 35
BRANCH 34 41
ATOM     41  C   ASN P   4      15.861 -13.007 -12.181  1.00 47.23 LIG 0.24  C 
ATOM     42  N   ASP P   5      14.867 -12.442 -12.924  1.00 48.41 LIG-0.35  N 
ATOM     43 H    ASP P   5      15.005 -11.634 -13.183  1.00 48.41 LIG 0.16  HD
ATOM     44 O    ASN P   4      15.954 -14.110 -11.665  1.00 47.17 LIG-0.27  OA
BRANCH 42 45
ATOM     45  CA  ASP P   5      13.563 -12.831 -13.436  1.00 49.16 LIG 0.17  C 
BRANCH 45 46
ATOM     46  C   ASP P   5      13.477 -12.705 -14.958  1.00 49.66 LIG 0.22  C 
ATOM     47 O    ASP P   5      14.192 -11.895 -15.560  1.00 50.85 LIG-0.29  OA
ENDBRANCH 45 46
BRANCH 45 48
ATOM     48  CB  ASP P   5      12.454 -11.952 -12.755  1.00 49.44 LIG 0.15  C 
BRANCH 48 49
ATOM     49  CG  ASP P   5      11.966 -10.653 -13.413  1.00 49.12 LIG 0.17  C 
ATOM     50 OD1  ASP P   5      12.442  -9.566 -13.020  1.00 51.19 LIG-0.65  OA
ATOM     51 OD2  ASP P   5      11.111 -10.724 -14.313  1.00 49.06 LIG-0.65  OA
ENDBRANCH 48 49
ENDBRANCH 45 48
ENDBRANCH 42 45
ENDBRANCH 34 41
ENDBRANCH 32 34
ENDBRANCH 1 31
TORSDOF 20
ENDMDL
MODEL 56
USER: ADFR SOLUTION from run 13
USER: SCORE 16.393678 LL:  -4.597 LR: -13.448 RR:   0.000 FEB:  -7.482
USER: RMSD 9.111651
USER: SEED 775530
USER: STATUS no improvement in best 8 clusters for 5 generations
USER: GENES 22
USER: genes 0 Translation |==|  0.40914 0.69065 0.47196
USER: genes 1 Rotation |==|  0.25304 0.45038 0.06835 0.51517
USER: genes 2 Torsion [CB]-CA--N-[C] |==|  0.23645
USER: genes 3 Torsion [N]-C--CA-[N] |==|  0.70375
USER: genes 4 Torsion [C]-CA--CB-[CG] |==|  0.41850
USER: genes 5 Torsion [CA]-CB--CG-[CD1] |==|  0.93078
USER: genes 6 Torsion [C]-CA--N-[C] |==|  0.69357
USER: genes 7 Torsion [N]-C--CA-[N] |==|  0.36848
USER: genes 8 Torsion [C]-CA--N-[H3] |==|  0.42266
USER: genes 9 Torsion [C]-CA--CB-[CG] |==|  0.15846
USER: genes 10 Torsion [CA]-CB--CG-[CD1] |==|  0.35705
USER: genes 11 Torsion [N]-CA--CB-[CG] |==|  0.20861
USER: genes 12 Torsion [CA]-CB--CG-[CD1] |==|  0.92542
USER: genes 13 Torsion [N]-CA--C-[N] |==|  0.98106
USER: genes 14 Torsion [C]-N--CA-[C] |==|  0.63038
USER: genes 15 Torsion [N]-CA--CB-[CG] |==|  0.66805
USER: genes 16 Torsion [CA]-CB--CG-[OD1] |==|  0.65344
USER: genes 17 Torsion [N]-CA--C-[N] |==|  0.27780
USER: genes 18 Torsion [C]-N--CA-[C] |==|  0.66961
USER: genes 19 Torsion [N]-CA--C-[O] |==|  0.00085
USER: genes 20 Torsion [N]-CA--CB-[CG] |==|  0.12781
USER: genes 21 Torsion [CA]-CB--CG-[OD1] |==|  0.29875
ROOT
ATOM      1  CA  PHE P   3      17.514  -9.141 -15.131  1.00 45.52 LIG 0.18  C 
ENDROOT
BRANCH 1 2
ATOM      2  N   PHE P   3      16.244  -9.909 -14.822  1.00 45.79 LIG-0.35  N 
ATOM      3 H    PHE P   3      16.290 -10.272 -14.043  1.00 45.79 LIG 0.16  HD
ATOM      4  C   LEU P   2      15.147 -10.072 -15.570  1.00 46.01 LIG 0.24  C 
ATOM      5 O    LEU P   2      15.016  -9.504 -16.647  1.00 46.46 LIG-0.27  OA
BRANCH 4 6
ATOM      6  CA  LEU P   2      13.972 -10.980 -15.000  1.00 45.94 LIG 0.18  C 
BRANCH 6 7
ATOM      7  CB  LEU P   2      14.095 -11.245 -13.476  1.00 45.93 LIG 0.04  C 
BRANCH 7 8
ATOM      8  CG  LEU P   2      12.846 -11.486 -12.579  1.00 45.11 LIG-0.02  C 
ATOM      9  CD1 LEU P   2      11.546 -10.864 -13.137  1.00 44.79 LIG 0.01  C 
ATOM     10  CD2 LEU P   2      12.627 -12.972 -12.304  1.00 44.35 LIG 0.01  C 
ENDBRANCH 7 8
ENDBRANCH 6 7
BRANCH 6 11
ATOM     11  N   LEU P   2      13.949 -12.265 -15.733  1.00 46.17 LIG-0.35  N 
ATOM     12 H    LEU P   2      14.624 -12.768 -15.554  1.00 46.17 LIG 0.16  HD
ATOM     13  C   LEU P   1      12.985 -12.629 -16.591  1.00 46.12 LIG 0.25  C 
ATOM     14 O    LEU P   1      11.976 -11.942 -16.811  1.00 46.29 LIG-0.27  OA
BRANCH 13 15
ATOM     15  CA  LEU P   1      13.192 -13.985 -17.317  1.00 45.93 LIG 0.28  C 
BRANCH 15 16
ATOM     16  N   LEU P   1      11.988 -14.877 -17.309  1.00 46.34 LIG-0.07  N 
ATOM     17 H3   LEU P   1      12.005 -15.405 -18.026  1.00 46.34 LIG 0.28  HD
ATOM     18 H2   LEU P   1      11.250 -14.380 -17.323  1.00 46.34 LIG 0.28  HD
ATOM     19 H1   LEU P   1      11.995 -15.378 -16.573  1.00 46.34 LIG 0.28  HD
ENDBRANCH 15 16
BRANCH 15 20
ATOM     20  CB  LEU P   1      13.668 -13.755 -18.760  1.00 45.65 LIG 0.05  C 
BRANCH 20 21
ATOM     21  CG  LEU P   1      14.958 -12.935 -18.880  1.00 44.28 LIG-0.02  C 
ATOM     22  CD1 LEU P   1      15.982 -13.637 -19.751  1.00 42.49 LIG 0.01  C 
ATOM     23  CD2 LEU P   1      14.671 -11.540 -19.406  1.00 44.08 LIG 0.01  C 
ENDBRANCH 20 21
ENDBRANCH 15 20
ENDBRANCH 13 15
ENDBRANCH 6 11
ENDBRANCH 4 6
ENDBRANCH 1 2
BRANCH 1 24
ATOM     24  CB  PHE P   3      17.568  -7.615 -14.840  1.00 45.09 LIG 0.07  C 
BRANCH 24 25
ATOM     25  CG  PHE P   3      17.714  -7.199 -13.316  1.00 44.37 LIG-0.06  A 
ATOM     26  CD1 PHE P   3      17.269  -7.983 -12.223  1.00 43.10 LIG 0.01  A 
ATOM     27  CE1 PHE P   3      17.392  -7.492 -10.847  1.00 41.01 LIG 0.00  A 
ATOM     28  CZ  PHE P   3      17.932  -6.216 -10.596  1.00 41.66 LIG 0.00  A 
ATOM     29  CE2 PHE P   3      18.350  -5.449 -11.670  1.00 43.89 LIG 0.00  A 
ATOM     30  CD2 PHE P   3      18.226  -5.933 -13.012  1.00 44.25 LIG 0.01  A 
ENDBRANCH 24 25
ENDBRANCH 1 24
BRANCH 1 31
ATOM     31  C   PHE P   3      18.389 -10.075 -14.269  1.00 45.74 LIG 0.26  C 
ATOM     32 N    ASN P   4      17.502 -10.816 -13.716  1.00 46.65 LIG-0.24  NA
ATOM     33 O    PHE P   3      19.599 -10.025 -14.063  1.00 45.60 LIG-0.27  OA
BRANCH 32 34
ATOM     34  CA  ASN P   4      17.341 -11.755 -12.644  1.00 47.05 LIG 0.21  C 
BRANCH 34 35
ATOM     35  CB  ASN P   4      16.716 -10.884 -11.621  1.00 46.83 LIG 0.14  C 
BRANCH 35 36
ATOM     36  CG  ASN P   4      17.603 -10.838 -10.409  1.00 47.32 LIG 0.22  C 
ATOM     37  ND2 ASN P   4      18.858 -10.442 -10.624  1.00 46.99 LIG-0.37  N 
ATOM     38 22HD ASN P   4      19.116 -10.243 -11.420  1.00 46.99 LIG 0.16  HD
ATOM     39 21HD ASN P   4      19.410 -10.386  -9.967  1.00 46.99 LIG 0.16  HD
ATOM     40 OD1  ASN P   4      17.201 -11.129  -9.292  1.00 48.95 LIG-0.27  OA
ENDBRANCH 35 36
ENDBRANCH 34 35
BRANCH 34 41
ATOM     41  C   ASN P   4      16.743 -13.086 -12.418  1.00 47.23 LIG 0.24  C 
ATOM     42  N   ASP P   5      17.886 -13.826 -12.492  1.00 48.41 LIG-0.35  N 
ATOM     43 H    ASP P   5      18.607 -13.387 -12.653  1.00 48.41 LIG 0.16  HD
ATOM     44 O    ASN P   4      15.583 -13.413 -12.222  1.00 47.17 LIG-0.27  OA
BRANCH 42 45
ATOM     45  CA  ASP P   5      18.262 -15.224 -12.371  1.00 49.16 LIG 0.17  C 
BRANCH 45 46
ATOM     46  C   ASP P   5      19.245 -15.463 -11.223  1.00 49.66 LIG 0.22  C 
ATOM     47 O    ASP P   5      19.624 -14.520 -10.519  1.00 50.85 LIG-0.29  OA
ENDBRANCH 45 46
BRANCH 45 48
ATOM     48  CB  ASP P   5      18.884 -15.714 -13.728  1.00 49.44 LIG 0.15  C 
BRANCH 48 49
ATOM     49  CG  ASP P   5      19.933 -14.868 -14.464  1.00 49.12 LIG 0.17  C 
ATOM     50 OD1  ASP P   5      21.122 -15.254 -14.465  1.00 51.19 LIG-0.65  OA
ATOM     51 OD2  ASP P   5      19.567 -13.825 -15.034  1.00 49.06 LIG-0.65  OA
ENDBRANCH 48 49
ENDBRANCH 45 48
ENDBRANCH 42 45
ENDBRANCH 34 41
ENDBRANCH 32 34
ENDBRANCH 1 31
TORSDOF 20
ENDMDL
MODEL 57
USER: ADFR SOLUTION from run 95
USER: SCORE 16.516621 LL:  -4.028 LR: -13.454 RR:   0.000 FEB:  -7.488
USER: RMSD 9.865949
USER: SEED 94
USER: STATUS no improvement in best 4 clusters for 5 generations
USER: GENES 22
USER: genes 0 Translation |==|  0.36436 0.67492 0.50788
USER: genes 1 Rotation |==|  0.21703 0.77861 0.20664 0.57901
USER: genes 2 Torsion [CB]-CA--N-[C] |==|  0.48334
USER: genes 3 Torsion [N]-C--CA-[N] |==|  0.90891
USER: genes 4 Torsion [C]-CA--CB-[CG] |==|  0.23638
USER: genes 5 Torsion [CA]-CB--CG-[CD1] |==|  0.67522
USER: genes 6 Torsion [C]-CA--N-[C] |==|  0.83802
USER: genes 7 Torsion [N]-C--CA-[N] |==|  0.92508
USER: genes 8 Torsion [C]-CA--N-[H3] |==|  0.67029
USER: genes 9 Torsion [C]-CA--CB-[CG] |==|  0.26006
USER: genes 10 Torsion [CA]-CB--CG-[CD1] |==|  0.49681
USER: genes 11 Torsion [N]-CA--CB-[CG] |==|  0.70011
USER: genes 12 Torsion [CA]-CB--CG-[CD1] |==|  0.35095
USER: genes 13 Torsion [N]-CA--C-[N] |==|  0.37062
USER: genes 14 Torsion [C]-N--CA-[C] |==|  0.71886
USER: genes 15 Torsion [N]-CA--CB-[CG] |==|  0.10560
USER: genes 16 Torsion [CA]-CB--CG-[OD1] |==|  0.22093
USER: genes 17 Torsion [N]-CA--C-[N] |==|  0.99811
USER: genes 18 Torsion [C]-N--CA-[C] |==|  0.03908
USER: genes 19 Torsion [N]-CA--C-[O] |==|  0.22266
USER: genes 20 Torsion [N]-CA--CB-[CG] |==|  0.87003
USER: genes 21 Torsion [CA]-CB--CG-[OD1] |==|  0.00608
ROOT
ATOM      1  CA  PHE P   3      16.171  -9.612 -14.054  1.00 45.52 LIG 0.18  C 
ENDROOT
BRANCH 1 2
ATOM      2  N   PHE P   3      14.724 -10.017 -13.846  1.00 45.79 LIG-0.35  N 
ATOM      3 H    PHE P   3      14.598 -10.297 -13.043  1.00 45.79 LIG 0.16  HD
ATOM      4  C   LEU P   2      13.702  -9.987 -14.711  1.00 46.01 LIG 0.24  C 
ATOM      5 O    LEU P   2      13.828  -9.520 -15.835  1.00 46.46 LIG-0.27  OA
BRANCH 4 6
ATOM      6  CA  LEU P   2      12.286 -10.522 -14.224  1.00 45.94 LIG 0.18  C 
BRANCH 6 7
ATOM      7  CB  LEU P   2      11.406  -9.414 -13.585  1.00 45.93 LIG 0.04  C 
BRANCH 7 8
ATOM      8  CG  LEU P   2      10.512  -8.475 -14.446  1.00 45.11 LIG-0.02  C 
ATOM      9  CD1 LEU P   2      10.908  -6.984 -14.363  1.00 44.79 LIG 0.01  C 
ATOM     10  CD2 LEU P   2      10.474  -8.916 -15.907  1.00 44.35 LIG 0.01  C 
ENDBRANCH 7 8
ENDBRANCH 6 7
BRANCH 6 11
ATOM     11  N   LEU P   2      12.486 -11.624 -13.257  1.00 46.17 LIG-0.35  N 
ATOM     12 H    LEU P   2      12.126 -11.471 -12.491  1.00 46.17 LIG 0.16  HD
ATOM     13  C   LEU P   1      13.157 -12.753 -13.526  1.00 46.12 LIG 0.25  C 
ATOM     14 O    LEU P   1      13.629 -13.014 -14.644  1.00 46.29 LIG-0.27  OA
BRANCH 13 15
ATOM     15  CA  LEU P   1      13.322 -13.748 -12.347  1.00 45.93 LIG 0.28  C 
BRANCH 15 16
ATOM     16  N   LEU P   1      13.304 -13.108 -10.993  1.00 46.34 LIG-0.07  N 
ATOM     17 H3   LEU P   1      14.081 -13.257 -10.583  1.00 46.34 LIG 0.28  HD
ATOM     18 H2   LEU P   1      12.643 -13.455 -10.509  1.00 46.34 LIG 0.28  HD
ATOM     19 H1   LEU P   1      13.179 -12.231 -11.081  1.00 46.34 LIG 0.28  HD
ENDBRANCH 15 16
BRANCH 15 20
ATOM     20  CB  LEU P   1      12.256 -14.853 -12.422  1.00 45.65 LIG 0.05  C 
BRANCH 20 21
ATOM     21  CG  LEU P   1      12.707 -16.121 -13.156  1.00 44.28 LIG-0.02  C 
ATOM     22  CD1 LEU P   1      11.615 -17.174 -13.165  1.00 42.49 LIG 0.01  C 
ATOM     23  CD2 LEU P   1      13.158 -15.803 -14.570  1.00 44.08 LIG 0.01  C 
ENDBRANCH 20 21
ENDBRANCH 15 20
ENDBRANCH 13 15
ENDBRANCH 6 11
ENDBRANCH 4 6
ENDBRANCH 1 2
BRANCH 1 24
ATOM     24  CB  PHE P   3      17.140  -9.611 -12.839  1.00 45.09 LIG 0.07  C 
BRANCH 24 25
ATOM     25  CG  PHE P   3      17.579  -8.187 -12.296  1.00 44.37 LIG-0.06  A 
ATOM     26  CD1 PHE P   3      17.453  -7.768 -10.948  1.00 43.10 LIG 0.01  A 
ATOM     27  CE1 PHE P   3      17.832  -6.410 -10.546  1.00 41.01 LIG 0.00  A 
ATOM     28  CZ  PHE P   3      18.302  -5.492 -11.504  1.00 41.66 LIG 0.00  A 
ATOM     29  CE2 PHE P   3      18.408  -5.904 -12.821  1.00 43.89 LIG 0.00  A 
ATOM     30  CD2 PHE P   3      18.035  -7.231 -13.210  1.00 44.25 LIG 0.01  A 
ENDBRANCH 24 25
ENDBRANCH 1 24
BRANCH 1 31
ATOM     31  C   PHE P   3      16.394 -10.666 -15.159  1.00 45.74 LIG 0.26  C 
ATOM     32 N    ASN P   4      16.989  -9.971 -16.057  1.00 46.65 LIG-0.24  NA
ATOM     33 O    PHE P   3      15.982 -11.821 -15.217  1.00 45.60 LIG-0.27  OA
BRANCH 32 34
ATOM     34  CA  ASN P   4      17.358 -10.015 -17.442  1.00 47.05 LIG 0.21  C 
BRANCH 34 35
ATOM     35  CB  ASN P   4      16.900  -8.676 -17.880  1.00 46.83 LIG 0.14  C 
BRANCH 35 36
ATOM     36  CG  ASN P   4      17.177  -7.682 -16.788  1.00 47.32 LIG 0.22  C 
ATOM     37  ND2 ASN P   4      16.139  -7.365 -16.015  1.00 46.99 LIG-0.37  N 
ATOM     38 22HD ASN P   4      15.368  -7.716 -16.164  1.00 46.99 LIG 0.16  HD
ATOM     39 21HD ASN P   4      16.239  -6.809 -15.367  1.00 46.99 LIG 0.16  HD
ATOM     40 OD1  ASN P   4      18.287  -7.203 -16.606  1.00 48.95 LIG-0.27  OA
ENDBRANCH 35 36
ENDBRANCH 34 35
BRANCH 34 41
ATOM     41  C   ASN P   4      18.556 -10.288 -18.261  1.00 47.23 LIG 0.24  C 
ATOM     42  N   ASP P   5      19.433 -10.529 -17.245  1.00 48.41 LIG-0.35  N 
ATOM     43 H    ASP P   5      19.115 -10.456 -16.450  1.00 48.41 LIG 0.16  HD
ATOM     44 O    ASN P   4      18.704 -10.298 -19.473  1.00 47.17 LIG-0.27  OA
BRANCH 42 45
ATOM     45  CA  ASP P   5      20.833 -10.896 -17.108  1.00 49.16 LIG 0.17  C 
BRANCH 45 46
ATOM     46  C   ASP P   5      21.607 -10.727 -18.416  1.00 49.66 LIG 0.22  C 
ATOM     47 O    ASP P   5      22.005  -9.610 -18.767  1.00 50.85 LIG-0.29  OA
ENDBRANCH 45 46
BRANCH 45 48
ATOM     48  CB  ASP P   5      20.933 -12.381 -16.606  1.00 49.44 LIG 0.15  C 
BRANCH 48 49
ATOM     49  CG  ASP P   5      20.074 -12.876 -15.433  1.00 49.12 LIG 0.17  C 
ATOM     50 OD1  ASP P   5      19.260 -12.084 -14.910  1.00 51.19 LIG-0.65  OA
ATOM     51 OD2  ASP P   5      20.217 -14.046 -15.040  1.00 49.06 LIG-0.65  OA
ENDBRANCH 48 49
ENDBRANCH 45 48
ENDBRANCH 42 45
ENDBRANCH 34 41
ENDBRANCH 32 34
ENDBRANCH 1 31
TORSDOF 20
ENDMDL
MODEL 58
USER: ADFR SOLUTION from run 23
USER: SCORE 13.997023 LL:  -3.727 LR: -13.403 RR:   0.000 FEB:  -7.437
USER: RMSD 7.885024
USER: SEED 22
USER: STATUS no improvement in best 6 clusters for 5 generations
USER: GENES 22
USER: genes 0 Translation |==|  0.26375 0.61740 0.52171
USER: genes 1 Rotation |==|  0.42810 0.42119 0.09179 0.76829
USER: genes 2 Torsion [CB]-CA--N-[C] |==|  0.51111
USER: genes 3 Torsion [N]-C--CA-[N] |==|  0.60739
USER: genes 4 Torsion [C]-CA--CB-[CG] |==|  0.80250
USER: genes 5 Torsion [CA]-CB--CG-[CD1] |==|  0.22954
USER: genes 6 Torsion [C]-CA--N-[C] |==|  0.72085
USER: genes 7 Torsion [N]-C--CA-[N] |==|  0.59881
USER: genes 8 Torsion [C]-CA--N-[H3] |==|  0.54618
USER: genes 9 Torsion [C]-CA--CB-[CG] |==|  0.78238
USER: genes 10 Torsion [CA]-CB--CG-[CD1] |==|  0.29754
USER: genes 11 Torsion [N]-CA--CB-[CG] |==|  0.63834
USER: genes 12 Torsion [CA]-CB--CG-[CD1] |==|  0.71792
USER: genes 13 Torsion [N]-CA--C-[N] |==|  0.36280
USER: genes 14 Torsion [C]-N--CA-[C] |==|  0.39637
USER: genes 15 Torsion [N]-CA--CB-[CG] |==|  0.63437
USER: genes 16 Torsion [CA]-CB--CG-[OD1] |==|  0.22153
USER: genes 17 Torsion [N]-CA--C-[N] |==|  0.27576
USER: genes 18 Torsion [C]-N--CA-[C] |==|  0.00677
USER: genes 19 Torsion [N]-CA--C-[O] |==|  0.17507
USER: genes 20 Torsion [N]-CA--CB-[CG] |==|  0.67147
USER: genes 21 Torsion [CA]-CB--CG-[OD1] |==|  0.32945
ROOT
ATOM      1  CA  PHE P   3      13.152 -11.338 -13.639  1.00 45.52 LIG 0.18  C 
ENDROOT
BRANCH 1 2
ATOM      2  N   PHE P   3      13.303 -12.739 -14.201  1.00 45.79 LIG-0.35  N 
ATOM      3 H    PHE P   3      12.535 -13.117 -14.283  1.00 45.79 LIG 0.16  HD
ATOM      4  C   LEU P   2      14.413 -13.397 -14.555  1.00 46.01 LIG 0.24  C 
ATOM      5 O    LEU P   2      15.512 -12.859 -14.526  1.00 46.46 LIG-0.27  OA
BRANCH 4 6
ATOM      6  CA  LEU P   2      14.270 -14.891 -15.078  1.00 45.94 LIG 0.18  C 
BRANCH 6 7
ATOM      7  CB  LEU P   2      12.920 -15.547 -14.681  1.00 45.93 LIG 0.04  C 
BRANCH 7 8
ATOM      8  CG  LEU P   2      12.604 -15.953 -13.213  1.00 45.11 LIG-0.02  C 
ATOM      9  CD1 LEU P   2      12.092 -14.788 -12.337  1.00 44.79 LIG 0.01  C 
ATOM     10  CD2 LEU P   2      11.615 -17.115 -13.149  1.00 44.35 LIG 0.01  C 
ENDBRANCH 7 8
ENDBRANCH 6 7
BRANCH 6 11
ATOM     11  N   LEU P   2      15.393 -15.701 -14.556  1.00 46.17 LIG-0.35  N 
ATOM     12 H    LEU P   2      15.280 -15.950 -13.740  1.00 46.17 LIG 0.16  HD
ATOM     13  C   LEU P   1      16.485 -16.025 -15.264  1.00 46.12 LIG 0.25  C 
ATOM     14 O    LEU P   1      16.634 -15.725 -16.459  1.00 46.29 LIG-0.27  OA
BRANCH 13 15
ATOM     15  CA  LEU P   1      17.584 -16.813 -14.505  1.00 45.93 LIG 0.28  C 
BRANCH 15 16
ATOM     16  N   LEU P   1      18.984 -16.464 -14.910  1.00 46.34 LIG-0.07  N 
ATOM     17 H3   LEU P   1      19.542 -17.098 -14.629  1.00 46.34 LIG 0.28  HD
ATOM     18 H2   LEU P   1      19.213 -15.684 -14.545  1.00 46.34 LIG 0.28  HD
ATOM     19 H1   LEU P   1      19.029 -16.401 -15.796  1.00 46.34 LIG 0.28  HD
ENDBRANCH 15 16
BRANCH 15 20
ATOM     20  CB  LEU P   1      17.417 -16.642 -12.986  1.00 45.65 LIG 0.05  C 
BRANCH 20 21
ATOM     21  CG  LEU P   1      17.934 -15.307 -12.437  1.00 44.28 LIG-0.02  C 
ATOM     22  CD1 LEU P   1      16.792 -14.386 -12.052  1.00 42.49 LIG 0.01  C 
ATOM     23  CD2 LEU P   1      18.868 -15.526 -11.260  1.00 44.08 LIG 0.01  C 
ENDBRANCH 20 21
ENDBRANCH 15 20
ENDBRANCH 13 15
ENDBRANCH 6 11
ENDBRANCH 4 6
ENDBRANCH 1 2
BRANCH 1 24
ATOM     24  CB  PHE P   3      11.743 -10.836 -13.219  1.00 45.09 LIG 0.07  C 
BRANCH 24 25
ATOM     25  CG  PHE P   3      11.309  -9.418 -13.782  1.00 44.37 LIG-0.06  A 
ATOM     26  CD1 PHE P   3      11.339  -8.214 -13.035  1.00 43.10 LIG 0.01  A 
ATOM     27  CE1 PHE P   3      10.863  -6.956 -13.619  1.00 41.01 LIG 0.00  A 
ATOM     28  CZ  PHE P   3      10.342  -6.934 -14.927  1.00 41.66 LIG 0.00  A 
ATOM     29  CE2 PHE P   3      10.301  -8.118 -15.645  1.00 43.89 LIG 0.00  A 
ATOM     30  CD2 PHE P   3      10.767  -9.344 -15.069  1.00 44.25 LIG 0.01  A 
ENDBRANCH 24 25
ENDBRANCH 1 24
BRANCH 1 31
ATOM     31  C   PHE P   3      14.197 -11.582 -12.529  1.00 45.74 LIG 0.26  C 
ATOM     32 N    ASN P   4      14.948 -10.552 -12.655  1.00 46.65 LIG-0.24  NA
ATOM     33 O    PHE P   3      14.346 -12.569 -11.814  1.00 45.60 LIG-0.27  OA
BRANCH 32 34
ATOM     34  CA  ASN P   4      16.229 -10.046 -12.254  1.00 47.05 LIG 0.21  C 
BRANCH 34 35
ATOM     35  CB  ASN P   4      16.878 -11.299 -11.802  1.00 46.83 LIG 0.14  C 
BRANCH 35 36
ATOM     36  CG  ASN P   4      17.503 -11.068 -10.455  1.00 47.32 LIG 0.22  C 
ATOM     37  ND2 ASN P   4      18.815 -10.831 -10.457  1.00 46.99 LIG-0.37  N 
ATOM     38 22HD ASN P   4      19.250 -10.829 -11.198  1.00 46.99 LIG 0.16  HD
ATOM     39 21HD ASN P   4      19.226 -10.681  -9.716  1.00 46.99 LIG 0.16  HD
ATOM     40 OD1  ASN P   4      16.851 -11.079  -9.420  1.00 48.95 LIG-0.27  OA
ENDBRANCH 35 36
ENDBRANCH 34 35
BRANCH 34 41
ATOM     41  C   ASN P   4      17.327  -9.238 -12.820  1.00 47.23 LIG 0.24  C 
ATOM     42  N   ASP P   5      17.001  -8.043 -12.251  1.00 48.41 LIG-0.35  N 
ATOM     43 H    ASP P   5      16.295  -8.042 -11.761  1.00 48.41 LIG 0.16  HD
ATOM     44 O    ASN P   4      18.244  -9.553 -13.564  1.00 47.17 LIG-0.27  OA
BRANCH 42 45
ATOM     45  CA  ASP P   5      17.531  -6.690 -12.231  1.00 49.16 LIG 0.17  C 
BRANCH 45 46
ATOM     46  C   ASP P   5      18.767  -6.538 -13.120  1.00 49.66 LIG 0.22  C 
ATOM     47 O    ASP P   5      18.684  -6.714 -14.341  1.00 50.85 LIG-0.29  OA
ENDBRANCH 45 46
BRANCH 45 48
ATOM     48  CB  ASP P   5      17.874  -6.289 -10.751  1.00 49.44 LIG 0.15  C 
BRANCH 48 49
ATOM     49  CG  ASP P   5      17.165  -5.109 -10.071  1.00 49.12 LIG 0.17  C 
ATOM     50 OD1  ASP P   5      16.482  -5.330  -9.047  1.00 51.19 LIG-0.65  OA
ATOM     51 OD2  ASP P   5      17.291  -3.973 -10.560  1.00 49.06 LIG-0.65  OA
ENDBRANCH 48 49
ENDBRANCH 45 48
ENDBRANCH 42 45
ENDBRANCH 34 41
ENDBRANCH 32 34
ENDBRANCH 1 31
TORSDOF 20
ENDMDL
MODEL 59
USER: ADFR SOLUTION from run 8
USER: SCORE 16.263046 LL:  -4.330 LR: -13.397 RR:   0.000 FEB:  -7.431
USER: RMSD 10.250410
USER: SEED 628212
USER: STATUS no improvement in best 3 clusters for 5 generations
USER: GENES 22
USER: genes 0 Translation |==|  0.23979 0.65471 0.45760
USER: genes 1 Rotation |==|  0.32372 0.22681 0.68049 0.83424
USER: genes 2 Torsion [CB]-CA--N-[C] |==|  0.25542
USER: genes 3 Torsion [N]-C--CA-[N] |==|  0.29629
USER: genes 4 Torsion [C]-CA--CB-[CG] |==|  0.07141
USER: genes 5 Torsion [CA]-CB--CG-[CD1] |==|  0.22025
USER: genes 6 Torsion [C]-CA--N-[C] |==|  0.52798
USER: genes 7 Torsion [N]-C--CA-[N] |==|  0.39468
USER: genes 8 Torsion [C]-CA--N-[H3] |==|  0.34561
USER: genes 9 Torsion [C]-CA--CB-[CG] |==|  0.45204
USER: genes 10 Torsion [CA]-CB--CG-[CD1] |==|  0.45774
USER: genes 11 Torsion [N]-CA--CB-[CG] |==|  0.84836
USER: genes 12 Torsion [CA]-CB--CG-[CD1] |==|  0.65014
USER: genes 13 Torsion [N]-CA--C-[N] |==|  0.96354
USER: genes 14 Torsion [C]-N--CA-[C] |==|  0.63829
USER: genes 15 Torsion [N]-CA--CB-[CG] |==|  0.83860
USER: genes 16 Torsion [CA]-CB--CG-[OD1] |==|  0.37514
USER: genes 17 Torsion [N]-CA--C-[N] |==|  0.41957
USER: genes 18 Torsion [C]-N--CA-[C] |==|  0.87759
USER: genes 19 Torsion [N]-CA--C-[O] |==|  0.11292
USER: genes 20 Torsion [N]-CA--CB-[CG] |==|  0.90171
USER: genes 21 Torsion [CA]-CB--CG-[OD1] |==|  0.60610
ROOT
ATOM      1  CA  PHE P   3      12.434 -10.219 -15.562  1.00 45.52 LIG 0.18  C 
ENDROOT
BRANCH 1 2
ATOM      2  N   PHE P   3      13.562  -9.242 -15.834  1.00 45.79 LIG-0.35  N 
ATOM      3 H    PHE P   3      13.278  -8.431 -15.795  1.00 45.79 LIG 0.16  HD
ATOM      4  C   LEU P   2      14.849  -9.486 -16.106  1.00 46.01 LIG 0.24  C 
ATOM      5 O    LEU P   2      15.302 -10.623 -16.090  1.00 46.46 LIG-0.27  OA
BRANCH 4 6
ATOM      6  CA  LEU P   2      15.807  -8.251 -16.397  1.00 45.94 LIG 0.18  C 
BRANCH 6 7
ATOM      7  CB  LEU P   2      16.653  -8.429 -17.686  1.00 45.93 LIG 0.04  C 
BRANCH 7 8
ATOM      8  CG  LEU P   2      16.183  -9.337 -18.859  1.00 45.11 LIG-0.02  C 
ATOM      9  CD1 LEU P   2      15.125  -8.680 -19.774  1.00 44.79 LIG 0.01  C 
ATOM     10  CD2 LEU P   2      17.359  -9.825 -19.702  1.00 44.35 LIG 0.01  C 
ENDBRANCH 7 8
ENDBRANCH 6 7
BRANCH 6 11
ATOM     11  N   LEU P   2      16.700  -8.042 -15.235  1.00 46.17 LIG-0.35  N 
ATOM     12 H    LEU P   2      16.664  -8.682 -14.662  1.00 46.17 LIG 0.16  HD
ATOM     13  C   LEU P   1      17.491  -6.972 -15.074  1.00 46.12 LIG 0.25  C 
ATOM     14 O    LEU P   1      17.598  -6.071 -15.921  1.00 46.29 LIG-0.27  OA
BRANCH 13 15
ATOM     15  CA  LEU P   1      18.290  -6.905 -13.746  1.00 45.93 LIG 0.28  C 
BRANCH 15 16
ATOM     16  N   LEU P   1      19.677  -6.358 -13.887  1.00 46.34 LIG-0.07  N 
ATOM     17 H3   LEU P   1      19.782  -5.666 -13.337  1.00 46.34 LIG 0.28  HD
ATOM     18 H2   LEU P   1      19.807  -6.091 -14.727  1.00 46.34 LIG 0.28  HD
ATOM     19 H1   LEU P   1      20.268  -6.991 -13.683  1.00 46.34 LIG 0.28  HD
ENDBRANCH 15 16
BRANCH 15 20
ATOM     20  CB  LEU P   1      17.512  -6.103 -12.690  1.00 45.65 LIG 0.05  C 
BRANCH 20 21
ATOM     21  CG  LEU P   1      17.990  -6.319 -11.250  1.00 44.28 LIG-0.02  C 
ATOM     22  CD1 LEU P   1      17.452  -5.248 -10.320  1.00 42.49 LIG 0.01  C 
ATOM     23  CD2 LEU P   1      17.613  -7.702 -10.750  1.00 44.08 LIG 0.01  C 
ENDBRANCH 20 21
ENDBRANCH 15 20
ENDBRANCH 13 15
ENDBRANCH 6 11
ENDBRANCH 4 6
ENDBRANCH 1 2
BRANCH 1 24
ATOM     24  CB  PHE P   3      12.127 -10.635 -14.097  1.00 45.09 LIG 0.07  C 
BRANCH 24 25
ATOM     25  CG  PHE P   3      13.345 -11.224 -13.267  1.00 44.37 LIG-0.06  A 
ATOM     26  CD1 PHE P   3      13.332 -12.473 -12.597  1.00 43.10 LIG 0.01  A 
ATOM     27  CE1 PHE P   3      14.484 -12.911 -11.804  1.00 41.01 LIG 0.00  A 
ATOM     28  CZ  PHE P   3      15.613 -12.080 -11.675  1.00 41.66 LIG 0.00  A 
ATOM     29  CE2 PHE P   3      15.613 -10.855 -12.320  1.00 43.89 LIG 0.00  A 
ATOM     30  CD2 PHE P   3      14.484 -10.430 -13.093  1.00 44.25 LIG 0.01  A 
ENDBRANCH 24 25
ENDBRANCH 1 24
BRANCH 1 31
ATOM     31  C   PHE P   3      11.393  -9.352 -16.303  1.00 45.74 LIG 0.26  C 
ATOM     32 N    ASN P   4      12.028  -8.247 -16.433  1.00 46.65 LIG-0.24  NA
ATOM     33 O    PHE P   3      10.222  -9.612 -16.567  1.00 45.60 LIG-0.27  OA
BRANCH 32 34
ATOM     34  CA  ASN P   4      11.815  -6.867 -16.760  1.00 47.05 LIG 0.21  C 
BRANCH 34 35
ATOM     35  CB  ASN P   4      11.876  -6.262 -15.410  1.00 46.83 LIG 0.14  C 
BRANCH 35 36
ATOM     36  CG  ASN P   4      10.826  -6.896 -14.541  1.00 47.32 LIG 0.22  C 
ATOM     37  ND2 ASN P   4       9.627  -7.054 -15.102  1.00 46.99 LIG-0.37  N 
ATOM     38 22HD ASN P   4       9.491  -6.789 -15.909  1.00 46.99 LIG 0.16  HD
ATOM     39 21HD ASN P   4       8.989  -7.420 -14.657  1.00 46.99 LIG 0.16  HD
ATOM     40 OD1  ASN P   4      11.055  -7.260 -13.397  1.00 48.95 LIG-0.27  OA
ENDBRANCH 35 36
ENDBRANCH 34 35
BRANCH 34 41
ATOM     41  C   ASN P   4      12.383  -5.841 -17.657  1.00 47.23 LIG 0.24  C 
ATOM     42  N   ASP P   5      11.255  -5.095 -17.836  1.00 48.41 LIG-0.35  N 
ATOM     43 H    ASP P   5      10.550  -5.382 -17.438  1.00 48.41 LIG 0.16  HD
ATOM     44 O    ASN P   4      13.515  -5.706 -18.094  1.00 47.17 LIG-0.27  OA
BRANCH 42 45
ATOM     45  CA  ASP P   5      10.876  -3.886 -18.547  1.00 49.16 LIG 0.17  C 
BRANCH 45 46
ATOM     46  C   ASP P   5      11.908  -2.768 -18.380  1.00 49.66 LIG 0.22  C 
ATOM     47 O    ASP P   5      13.117  -3.024 -18.412  1.00 50.85 LIG-0.29  OA
ENDBRANCH 45 46
BRANCH 45 48
ATOM     48  CB  ASP P   5       9.469  -3.405 -18.041  1.00 49.44 LIG 0.15  C 
BRANCH 48 49
ATOM     49  CG  ASP P   5       8.386  -4.419 -17.648  1.00 49.12 LIG 0.17  C 
ATOM     50 OD1  ASP P   5       7.196  -4.169 -17.941  1.00 51.19 LIG-0.65  OA
ATOM     51 OD2  ASP P   5       8.725  -5.454 -17.048  1.00 49.06 LIG-0.65  OA
ENDBRANCH 48 49
ENDBRANCH 45 48
ENDBRANCH 42 45
ENDBRANCH 34 41
ENDBRANCH 32 34
ENDBRANCH 1 31
TORSDOF 20
ENDMDL
MODEL 60
USER: ADFR SOLUTION from run 7
USER: SCORE 15.320311 LL:  -4.205 LR: -13.395 RR:   0.000 FEB:  -7.429
USER: RMSD 9.261720
USER: SEED 524045
USER: STATUS no improvement in best 25 clusters for 5 generations
USER: GENES 22
USER: genes 0 Translation |==|  0.25384 0.65464 0.48113
USER: genes 1 Rotation |==|  0.82513 0.66004 0.26331 0.75030
USER: genes 2 Torsion [CB]-CA--N-[C] |==|  0.93607
USER: genes 3 Torsion [N]-C--CA-[N] |==|  0.02018
USER: genes 4 Torsion [C]-CA--CB-[CG] |==|  0.85139
USER: genes 5 Torsion [CA]-CB--CG-[CD1] |==|  0.87691
USER: genes 6 Torsion [C]-CA--N-[C] |==|  0.53349
USER: genes 7 Torsion [N]-C--CA-[N] |==|  0.35551
USER: genes 8 Torsion [C]-CA--N-[H3] |==|  0.95335
USER: genes 9 Torsion [C]-CA--CB-[CG] |==|  0.46826
USER: genes 10 Torsion [CA]-CB--CG-[CD1] |==|  0.53318
USER: genes 11 Torsion [N]-CA--CB-[CG] |==|  0.84360
USER: genes 12 Torsion [CA]-CB--CG-[CD1] |==|  0.36148
USER: genes 13 Torsion [N]-CA--C-[N] |==|  0.26851
USER: genes 14 Torsion [C]-N--CA-[C] |==|  0.16635
USER: genes 15 Torsion [N]-CA--CB-[CG] |==|  0.84473
USER: genes 16 Torsion [CA]-CB--CG-[OD1] |==|  0.79242
USER: genes 17 Torsion [N]-CA--C-[N] |==|  0.12778
USER: genes 18 Torsion [C]-N--CA-[C] |==|  0.17225
USER: genes 19 Torsion [N]-CA--C-[O] |==|  0.43636
USER: genes 20 Torsion [N]-CA--CB-[CG] |==|  0.05499
USER: genes 21 Torsion [CA]-CB--CG-[OD1] |==|  0.26646
ROOT
ATOM      1  CA  PHE P   3      12.855 -10.221 -14.856  1.00 45.52 LIG 0.18  C 
ENDROOT
BRANCH 1 2
ATOM      2  N   PHE P   3      14.017  -9.421 -15.414  1.00 45.79 LIG-0.35  N 
ATOM      3 H    PHE P   3      14.555  -9.187 -14.785  1.00 45.79 LIG 0.16  HD
ATOM      4  C   LEU P   2      14.274  -9.067 -16.679  1.00 46.01 LIG 0.24  C 
ATOM      5 O    LEU P   2      13.573  -9.451 -17.606  1.00 46.46 LIG-0.27  OA
BRANCH 4 6
ATOM      6  CA  LEU P   2      15.560  -8.177 -16.967  1.00 45.94 LIG 0.18  C 
BRANCH 6 7
ATOM      7  CB  LEU P   2      16.451  -8.748 -18.103  1.00 45.93 LIG 0.04  C 
BRANCH 7 8
ATOM      8  CG  LEU P   2      16.974 -10.214 -18.079  1.00 45.11 LIG-0.02  C 
ATOM      9  CD1 LEU P   2      17.519 -10.662 -16.704  1.00 44.79 LIG 0.01  C 
ATOM     10  CD2 LEU P   2      15.910 -11.201 -18.556  1.00 44.35 LIG 0.01  C 
ENDBRANCH 7 8
ENDBRANCH 6 7
BRANCH 6 11
ATOM     11  N   LEU P   2      16.353  -8.047 -15.724  1.00 46.17 LIG-0.35  N 
ATOM     12 H    LEU P   2      16.101  -8.589 -15.105  1.00 46.17 LIG 0.16  HD
ATOM     13  C   LEU P   1      17.363  -7.182 -15.560  1.00 46.12 LIG 0.25  C 
ATOM     14 O    LEU P   1      17.776  -6.438 -16.464  1.00 46.29 LIG-0.27  OA
BRANCH 13 15
ATOM     15  CA  LEU P   1      18.013  -7.148 -14.152  1.00 45.93 LIG 0.28  C 
BRANCH 15 16
ATOM     16  N   LEU P   1      19.504  -7.298 -14.156  1.00 46.34 LIG-0.07  N 
ATOM     17 H3   LEU P   1      19.767  -7.624 -14.942  1.00 46.34 LIG 0.28  HD
ATOM     18 H2   LEU P   1      19.748  -7.856 -13.507  1.00 46.34 LIG 0.28  HD
ATOM     19 H1   LEU P   1      19.882  -6.504 -14.023  1.00 46.34 LIG 0.28  HD
ENDBRANCH 15 16
BRANCH 15 20
ATOM     20  CB  LEU P   1      17.615  -5.863 -13.406  1.00 45.65 LIG 0.05  C 
BRANCH 20 21
ATOM     21  CG  LEU P   1      17.973  -5.858 -11.916  1.00 44.28 LIG-0.02  C 
ATOM     22  CD1 LEU P   1      17.303  -4.707 -11.189  1.00 42.49 LIG 0.01  C 
ATOM     23  CD2 LEU P   1      17.621  -7.183 -11.264  1.00 44.08 LIG 0.01  C 
ENDBRANCH 20 21
ENDBRANCH 15 20
ENDBRANCH 13 15
ENDBRANCH 6 11
ENDBRANCH 4 6
ENDBRANCH 1 2
BRANCH 1 24
ATOM     24  CB  PHE P   3      11.525 -10.287 -15.657  1.00 45.09 LIG 0.07  C 
BRANCH 24 25
ATOM     25  CG  PHE P   3      10.851  -8.894 -16.010  1.00 44.37 LIG-0.06  A 
ATOM     26  CD1 PHE P   3      10.408  -8.521 -17.303  1.00 43.10 LIG 0.01  A 
ATOM     27  CE1 PHE P   3       9.849  -7.189 -17.550  1.00 41.01 LIG 0.00  A 
ATOM     28  CZ  PHE P   3       9.770  -6.249 -16.505  1.00 41.66 LIG 0.00  A 
ATOM     29  CE2 PHE P   3      10.218  -6.615 -15.247  1.00 43.89 LIG 0.00  A 
ATOM     30  CD2 PHE P   3      10.765  -7.918 -15.012  1.00 44.25 LIG 0.01  A 
ENDBRANCH 24 25
ENDBRANCH 1 24
BRANCH 1 31
ATOM     31  C   PHE P   3      13.694 -11.511 -14.734  1.00 45.74 LIG 0.26  C 
ATOM     32 N    ASN P   4      14.048 -11.469 -13.504  1.00 46.65 LIG-0.24  NA
ATOM     33 O    PHE P   3      14.043 -12.289 -15.617  1.00 45.60 LIG-0.27  OA
BRANCH 32 34
ATOM     34  CA  ASN P   4      14.974 -12.067 -12.586  1.00 47.05 LIG 0.21  C 
BRANCH 34 35
ATOM     35  CB  ASN P   4      14.453 -13.453 -12.550  1.00 46.83 LIG 0.14  C 
BRANCH 35 36
ATOM     36  CG  ASN P   4      13.003 -13.422 -12.155  1.00 47.32 LIG 0.22  C 
ATOM     37  ND2 ASN P   4      12.130 -13.657 -13.134  1.00 46.99 LIG-0.37  N 
ATOM     38 22HD ASN P   4      12.410 -13.804 -13.934  1.00 46.99 LIG 0.16  HD
ATOM     39 21HD ASN P   4      11.287 -13.663 -12.966  1.00 46.99 LIG 0.16  HD
ATOM     40 OD1  ASN P   4      12.642 -13.209 -11.006  1.00 48.95 LIG-0.27  OA
ENDBRANCH 35 36
ENDBRANCH 34 35
BRANCH 34 41
ATOM     41  C   ASN P   4      16.434 -12.211 -12.423  1.00 47.23 LIG 0.24  C 
ATOM     42  N   ASP P   5      16.786 -10.919 -12.677  1.00 48.41 LIG-0.35  N 
ATOM     43 H    ASP P   5      16.139 -10.386 -12.869  1.00 48.41 LIG 0.16  HD
ATOM     44 O    ASN P   4      17.110 -13.189 -12.141  1.00 47.17 LIG-0.27  OA
BRANCH 42 45
ATOM     45  CA  ASP P   5      18.007 -10.133 -12.722  1.00 49.16 LIG 0.17  C 
BRANCH 45 46
ATOM     46  C   ASP P   5      18.980 -10.634 -13.790  1.00 49.66 LIG 0.22  C 
ATOM     47 O    ASP P   5      19.841  -9.878 -14.257  1.00 50.85 LIG-0.29  OA
ENDBRANCH 45 46
BRANCH 45 48
ATOM     48  CB  ASP P   5      18.693 -10.159 -11.309  1.00 49.44 LIG 0.15  C 
BRANCH 48 49
ATOM     49  CG  ASP P   5      18.351 -11.254 -10.288  1.00 49.12 LIG 0.17  C 
ATOM     50 OD1  ASP P   5      19.092 -12.259 -10.216  1.00 51.19 LIG-0.65  OA
ATOM     51 OD2  ASP P   5      17.349 -11.108  -9.568  1.00 49.06 LIG-0.65  OA
ENDBRANCH 48 49
ENDBRANCH 45 48
ENDBRANCH 42 45
ENDBRANCH 34 41
ENDBRANCH 32 34
ENDBRANCH 1 31
TORSDOF 20
ENDMDL
MODEL 61
USER: ADFR SOLUTION from run 17
USER: SCORE 16.321931 LL:  -4.024 LR: -13.384 RR:   0.000 FEB:  -7.418
USER: RMSD 10.393250
USER: SEED 497555
USER: STATUS searching
USER: GENES 22
USER: genes 0 Translation |==|  0.41837 0.74885 0.47517
USER: genes 1 Rotation |==|  0.16812 0.74409 0.27940 0.67780
USER: genes 2 Torsion [CB]-CA--N-[C] |==|  0.50556
USER: genes 3 Torsion [N]-C--CA-[N] |==|  0.05304
USER: genes 4 Torsion [C]-CA--CB-[CG] |==|  0.70253
USER: genes 5 Torsion [CA]-CB--CG-[CD1] |==|  0.42890
USER: genes 6 Torsion [C]-CA--N-[C] |==|  0.63410
USER: genes 7 Torsion [N]-C--CA-[N] |==|  0.34908
USER: genes 8 Torsion [C]-CA--N-[H3] |==|  0.67551
USER: genes 9 Torsion [C]-CA--CB-[CG] |==|  0.23768
USER: genes 10 Torsion [CA]-CB--CG-[CD1] |==|  0.38854
USER: genes 11 Torsion [N]-CA--CB-[CG] |==|  0.80493
USER: genes 12 Torsion [CA]-CB--CG-[CD1] |==|  0.28998
USER: genes 13 Torsion [N]-CA--C-[N] |==|  0.36799
USER: genes 14 Torsion [C]-N--CA-[C] |==|  0.74904
USER: genes 15 Torsion [N]-CA--CB-[CG] |==|  0.72870
USER: genes 16 Torsion [CA]-CB--CG-[OD1] |==|  0.36101
USER: genes 17 Torsion [N]-CA--C-[N] |==|  0.32290
USER: genes 18 Torsion [C]-N--CA-[C] |==|  0.60836
USER: genes 19 Torsion [N]-CA--C-[O] |==|  0.09298
USER: genes 20 Torsion [N]-CA--CB-[CG] |==|  0.91003
USER: genes 21 Torsion [CA]-CB--CG-[OD1] |==|  0.30923
ROOT
ATOM      1  CA  PHE P   3      17.791  -7.395 -15.035  1.00 45.52 LIG 0.18  C 
ENDROOT
BRANCH 1 2
ATOM      2  N   PHE P   3      16.701  -8.448 -14.986  1.00 45.79 LIG-0.35  N 
ATOM      3 H    PHE P   3      16.726  -8.877 -14.241  1.00 45.79 LIG 0.16  HD
ATOM      4  C   LEU P   2      15.779  -8.758 -15.904  1.00 46.01 LIG 0.24  C 
ATOM      5 O    LEU P   2      15.665  -8.116 -16.940  1.00 46.46 LIG-0.27  OA
BRANCH 4 6
ATOM      6  CA  LEU P   2      14.778  -9.955 -15.595  1.00 45.94 LIG 0.18  C 
BRANCH 6 7
ATOM      7  CB  LEU P   2      13.334  -9.683 -16.093  1.00 45.93 LIG 0.04  C 
BRANCH 7 8
ATOM      8  CG  LEU P   2      12.172  -9.359 -15.109  1.00 45.11 LIG-0.02  C 
ATOM      9  CD1 LEU P   2      11.027  -8.535 -15.741  1.00 44.79 LIG 0.01  C 
ATOM     10  CD2 LEU P   2      11.602 -10.626 -14.473  1.00 44.35 LIG 0.01  C 
ENDBRANCH 7 8
ENDBRANCH 6 7
BRANCH 6 11
ATOM     11  N   LEU P   2      14.766 -10.217 -14.139  1.00 46.17 LIG-0.35  N 
ATOM     12 H    LEU P   2      14.670  -9.504 -13.668  1.00 46.17 LIG 0.16  HD
ATOM     13  C   LEU P   1      14.889 -11.434 -13.590  1.00 46.12 LIG 0.25  C 
ATOM     14 O    LEU P   1      14.966 -12.478 -14.257  1.00 46.29 LIG-0.27  OA
BRANCH 13 15
ATOM     15  CA  LEU P   1      14.932 -11.484 -12.040  1.00 45.93 LIG 0.28  C 
BRANCH 15 16
ATOM     16  N   LEU P   1      13.915 -12.395 -11.423  1.00 46.34 LIG-0.07  N 
ATOM     17 H3   LEU P   1      13.352 -11.919 -10.924  1.00 46.34 LIG 0.28  HD
ATOM     18 H2   LEU P   1      14.327 -12.997 -10.913  1.00 46.34 LIG 0.28  HD
ATOM     19 H1   LEU P   1      13.462 -12.812 -12.066  1.00 46.34 LIG 0.28  HD
ENDBRANCH 15 16
BRANCH 15 20
ATOM     20  CB  LEU P   1      16.341 -11.860 -11.553  1.00 45.65 LIG 0.05  C 
BRANCH 20 21
ATOM     21  CG  LEU P   1      17.304 -10.675 -11.421  1.00 44.28 LIG-0.02  C 
ATOM     22  CD1 LEU P   1      18.165 -10.795 -10.178  1.00 42.49 LIG 0.01  C 
ATOM     23  CD2 LEU P   1      18.169 -10.533 -12.661  1.00 44.08 LIG 0.01  C 
ENDBRANCH 20 21
ENDBRANCH 15 20
ENDBRANCH 13 15
ENDBRANCH 6 11
ENDBRANCH 4 6
ENDBRANCH 1 2
BRANCH 1 24
ATOM     24  CB  PHE P   3      18.775  -7.265 -13.840  1.00 45.09 LIG 0.07  C 
BRANCH 24 25
ATOM     25  CG  PHE P   3      18.168  -6.687 -12.493  1.00 44.37 LIG-0.06  A 
ATOM     26  CD1 PHE P   3      17.857  -7.468 -11.352  1.00 43.10 LIG 0.01  A 
ATOM     27  CE1 PHE P   3      17.242  -6.857 -10.169  1.00 41.01 LIG 0.00  A 
ATOM     28  CZ  PHE P   3      16.928  -5.485 -10.162  1.00 41.66 LIG 0.00  A 
ATOM     29  CE2 PHE P   3      17.221  -4.731 -11.286  1.00 43.89 LIG 0.00  A 
ATOM     30  CD2 PHE P   3      17.820  -5.333 -12.440  1.00 44.25 LIG 0.01  A 
ENDBRANCH 24 25
ENDBRANCH 1 24
BRANCH 1 31
ATOM     31  C   PHE P   3      18.346  -7.912 -16.379  1.00 45.74 LIG 0.26  C 
ATOM     32 N    ASN P   4      18.460  -6.822 -17.044  1.00 46.65 LIG-0.24  NA
ATOM     33 O    PHE P   3      18.499  -9.071 -16.755  1.00 45.60 LIG-0.27  OA
BRANCH 32 34
ATOM     34  CA  ASN P   4      18.655  -6.344 -18.382  1.00 47.05 LIG 0.21  C 
BRANCH 34 35
ATOM     35  CB  ASN P   4      17.793  -5.141 -18.362  1.00 46.83 LIG 0.14  C 
BRANCH 35 36
ATOM     36  CG  ASN P   4      16.462  -5.482 -18.972  1.00 47.32 LIG 0.22  C 
ATOM     37  ND2 ASN P   4      16.507  -6.110 -20.146  1.00 46.99 LIG-0.37  N 
ATOM     38 22HD ASN P   4      17.266  -6.286 -20.512  1.00 46.99 LIG 0.16  HD
ATOM     39 21HD ASN P   4      15.777  -6.340 -20.539  1.00 46.99 LIG 0.16  HD
ATOM     40 OD1  ASN P   4      15.403  -5.216 -18.422  1.00 48.95 LIG-0.27  OA
ENDBRANCH 35 36
ENDBRANCH 34 35
BRANCH 34 41
ATOM     41  C   ASN P   4      19.773  -5.989 -19.278  1.00 47.23 LIG 0.24  C 
ATOM     42  N   ASP P   5      19.570  -6.946 -20.228  1.00 48.41 LIG-0.35  N 
ATOM     43 H    ASP P   5      18.916  -7.484 -20.084  1.00 48.41 LIG 0.16  HD
ATOM     44 O    ASN P   4      20.613  -5.106 -19.191  1.00 47.17 LIG-0.27  OA
BRANCH 42 45
ATOM     45  CA  ASP P   5      20.174  -7.345 -21.488  1.00 49.16 LIG 0.17  C 
BRANCH 45 46
ATOM     46  C   ASP P   5      19.130  -7.765 -22.524  1.00 49.66 LIG 0.22  C 
ATOM     47 O    ASP P   5      18.022  -7.218 -22.553  1.00 50.85 LIG-0.29  OA
ENDBRANCH 45 46
BRANCH 45 48
ATOM     48  CB  ASP P   5      21.186  -8.519 -21.231  1.00 49.44 LIG 0.15  C 
BRANCH 48 49
ATOM     49  CG  ASP P   5      21.972  -8.607 -19.915  1.00 49.12 LIG 0.17  C 
ATOM     50 OD1  ASP P   5      21.705  -9.532 -19.117  1.00 51.19 LIG-0.65  OA
ATOM     51 OD2  ASP P   5      22.847  -7.754 -19.684  1.00 49.06 LIG-0.65  OA
ENDBRANCH 48 49
ENDBRANCH 45 48
ENDBRANCH 42 45
ENDBRANCH 34 41
ENDBRANCH 32 34
ENDBRANCH 1 31
TORSDOF 20
ENDMDL
MODEL 62
USER: ADFR SOLUTION from run 6
USER: SCORE 16.317617 LL:  -4.095 LR: -13.383 RR:   0.000 FEB:  -7.417
USER: RMSD 10.265743
USER: SEED 152299
USER: STATUS no improvement in best 20 clusters for 5 generations
USER: GENES 22
USER: genes 0 Translation |==|  0.42973 0.74372 0.49307
USER: genes 1 Rotation |==|  0.13687 0.62465 0.19094 0.58417
USER: genes 2 Torsion [CB]-CA--N-[C] |==|  0.81563
USER: genes 3 Torsion [N]-C--CA-[N] |==|  0.12381
USER: genes 4 Torsion [C]-CA--CB-[CG] |==|  0.65829
USER: genes 5 Torsion [CA]-CB--CG-[CD1] |==|  0.40579
USER: genes 6 Torsion [C]-CA--N-[C] |==|  0.62252
USER: genes 7 Torsion [N]-C--CA-[N] |==|  0.33259
USER: genes 8 Torsion [C]-CA--N-[H3] |==|  0.17942
USER: genes 9 Torsion [C]-CA--CB-[CG] |==|  0.72644
USER: genes 10 Torsion [CA]-CB--CG-[CD1] |==|  0.32145
USER: genes 11 Torsion [N]-CA--CB-[CG] |==|  0.94759
USER: genes 12 Torsion [CA]-CB--CG-[CD1] |==|  0.17786
USER: genes 13 Torsion [N]-CA--C-[N] |==|  0.20900
USER: genes 14 Torsion [C]-N--CA-[C] |==|  0.86667
USER: genes 15 Torsion [N]-CA--CB-[CG] |==|  0.81548
USER: genes 16 Torsion [CA]-CB--CG-[OD1] |==|  0.75865
USER: genes 17 Torsion [N]-CA--C-[N] |==|  0.35835
USER: genes 18 Torsion [C]-N--CA-[C] |==|  0.66328
USER: genes 19 Torsion [N]-CA--C-[O] |==|  0.92645
USER: genes 20 Torsion [N]-CA--CB-[CG] |==|  0.98303
USER: genes 21 Torsion [CA]-CB--CG-[OD1] |==|  0.74395
ROOT
ATOM      1  CA  PHE P   3      18.132  -7.548 -14.498  1.00 45.52 LIG 0.18  C 
ENDROOT
BRANCH 1 2
ATOM      2  N   PHE P   3      17.078  -8.476 -13.924  1.00 45.79 LIG-0.35  N 
ATOM      3 H    PHE P   3      16.299  -8.276 -14.226  1.00 45.79 LIG 0.16  HD
ATOM      4  C   LEU P   2      17.220  -9.493 -13.065  1.00 46.01 LIG 0.24  C 
ATOM      5 O    LEU P   2      18.323  -9.855 -12.678  1.00 46.46 LIG-0.27  OA
BRANCH 4 6
ATOM      6  CA  LEU P   2      15.916 -10.272 -12.596  1.00 45.94 LIG 0.18  C 
BRANCH 6 7
ATOM      7  CB  LEU P   2      16.235 -11.605 -11.866  1.00 45.93 LIG 0.04  C 
BRANCH 7 8
ATOM      8  CG  LEU P   2      15.672 -12.969 -12.362  1.00 45.11 LIG-0.02  C 
ATOM      9  CD1 LEU P   2      16.629 -14.161 -12.135  1.00 44.79 LIG 0.01  C 
ATOM     10  CD2 LEU P   2      14.312 -13.277 -11.740  1.00 44.35 LIG 0.01  C 
ENDBRANCH 7 8
ENDBRANCH 6 7
BRANCH 6 11
ATOM     11  N   LEU P   2      15.056 -10.537 -13.771  1.00 46.17 LIG-0.35  N 
ATOM     12 H    LEU P   2      15.496 -10.818 -14.454  1.00 46.17 LIG 0.16  HD
ATOM     13  C   LEU P   1      13.727 -10.364 -13.789  1.00 46.12 LIG 0.25  C 
ATOM     14 O    LEU P   1      13.072 -10.018 -12.793  1.00 46.29 LIG-0.27  OA
BRANCH 13 15
ATOM     15  CA  LEU P   1      13.022 -10.621 -15.146  1.00 45.93 LIG 0.28  C 
BRANCH 15 16
ATOM     16  N   LEU P   1      11.992 -11.709 -15.110  1.00 46.34 LIG-0.07  N 
ATOM     17 H3   LEU P   1      11.324 -11.468 -14.573  1.00 46.34 LIG 0.28  HD
ATOM     18 H2   LEU P   1      12.362 -12.458 -14.804  1.00 46.34 LIG 0.28  HD
ATOM     19 H1   LEU P   1      11.677 -11.847 -15.931  1.00 46.34 LIG 0.28  HD
ENDBRANCH 15 16
BRANCH 15 20
ATOM     20  CB  LEU P   1      12.398  -9.322 -15.683  1.00 45.65 LIG 0.05  C 
BRANCH 20 21
ATOM     21  CG  LEU P   1      10.897  -9.177 -15.405  1.00 44.28 LIG-0.02  C 
ATOM     22  CD1 LEU P   1      10.614  -8.002 -14.488  1.00 42.49 LIG 0.01  C 
ATOM     23  CD2 LEU P   1      10.112  -9.050 -16.698  1.00 44.08 LIG 0.01  C 
ENDBRANCH 20 21
ENDBRANCH 15 20
ENDBRANCH 13 15
ENDBRANCH 6 11
ENDBRANCH 4 6
ENDBRANCH 1 2
BRANCH 1 24
ATOM     24  CB  PHE P   3      18.874  -6.565 -13.552  1.00 45.09 LIG 0.07  C 
BRANCH 24 25
ATOM     25  CG  PHE P   3      18.172  -6.270 -12.159  1.00 44.37 LIG-0.06  A 
ATOM     26  CD1 PHE P   3      17.952  -7.240 -11.150  1.00 43.10 LIG 0.01  A 
ATOM     27  CE1 PHE P   3      17.241  -6.891  -9.916  1.00 41.01 LIG 0.00  A 
ATOM     28  CZ  PHE P   3      16.743  -5.588  -9.729  1.00 41.66 LIG 0.00  A 
ATOM     29  CE2 PHE P   3      16.949  -4.650 -10.726  1.00 43.89 LIG 0.00  A 
ATOM     30  CD2 PHE P   3      17.642  -4.996 -11.931  1.00 44.25 LIG 0.01  A 
ENDBRANCH 24 25
ENDBRANCH 1 24
BRANCH 1 31
ATOM     31  C   PHE P   3      18.939  -8.710 -15.114  1.00 45.74 LIG 0.26  C 
ATOM     32 N    ASN P   4      18.215  -9.015 -16.127  1.00 46.65 LIG-0.24  NA
ATOM     33 O    PHE P   3      19.932  -9.280 -14.670  1.00 45.60 LIG-0.27  OA
BRANCH 32 34
ATOM     34  CA  ASN P   4      18.035 -10.052 -17.100  1.00 47.05 LIG 0.21  C 
BRANCH 34 35
ATOM     35  CB  ASN P   4      17.010  -9.426 -17.968  1.00 46.83 LIG 0.14  C 
BRANCH 35 36
ATOM     36  CG  ASN P   4      15.732  -9.282 -17.191  1.00 47.32 LIG 0.22  C 
ATOM     37  ND2 ASN P   4      15.551  -8.107 -16.586  1.00 46.99 LIG-0.37  N 
ATOM     38 22HD ASN P   4      16.152  -7.495 -16.647  1.00 46.99 LIG 0.16  HD
ATOM     39 21HD ASN P   4      14.834  -7.962 -16.135  1.00 46.99 LIG 0.16  HD
ATOM     40 OD1  ASN P   4      14.900 -10.175 -17.126  1.00 48.95 LIG-0.27  OA
ENDBRANCH 35 36
ENDBRANCH 34 35
BRANCH 34 41
ATOM     41  C   ASN P   4      18.858 -10.865 -18.018  1.00 47.23 LIG 0.24  C 
ATOM     42  N   ASP P   5      18.388 -12.094 -17.662  1.00 48.41 LIG-0.35  N 
ATOM     43 H    ASP P   5      17.796 -12.103 -17.039  1.00 48.41 LIG 0.16  HD
ATOM     44 O    ASN P   4      19.695 -10.530 -18.842  1.00 47.17 LIG-0.27  OA
BRANCH 42 45
ATOM     45  CA  ASP P   5      18.610 -13.477 -18.052  1.00 49.16 LIG 0.17  C 
BRANCH 45 46
ATOM     46  C   ASP P   5      17.328 -14.153 -18.542  1.00 49.66 LIG 0.22  C 
ATOM     47 O    ASP P   5      16.224 -13.762 -18.147  1.00 50.85 LIG-0.29  OA
ENDBRANCH 45 46
BRANCH 45 48
ATOM     48  CB  ASP P   5      19.211 -14.269 -16.837  1.00 49.44 LIG 0.15  C 
BRANCH 48 49
ATOM     49  CG  ASP P   5      19.606 -13.545 -15.542  1.00 49.12 LIG 0.17  C 
ATOM     50 OD1  ASP P   5      20.782 -13.140 -15.416  1.00 51.19 LIG-0.65  OA
ATOM     51 OD2  ASP P   5      18.745 -13.386 -14.659  1.00 49.06 LIG-0.65  OA
ENDBRANCH 48 49
ENDBRANCH 45 48
ENDBRANCH 42 45
ENDBRANCH 34 41
ENDBRANCH 32 34
ENDBRANCH 1 31
TORSDOF 20
ENDMDL
MODEL 63
USER: ADFR SOLUTION from run 3
USER: SCORE 16.637816 LL:  -5.995 LR: -13.367 RR:   0.000 FEB:  -7.401
USER: RMSD 7.269339
USER: SEED 584131
USER: STATUS no improvement in best 5 clusters for 5 generations
USER: GENES 22
USER: genes 0 Translation |==|  0.43284 0.66045 0.59473
USER: genes 1 Rotation |==|  0.61943 0.59888 0.03182 0.58227
USER: genes 2 Torsion [CB]-CA--N-[C] |==|  0.26431
USER: genes 3 Torsion [N]-C--CA-[N] |==|  0.80884
USER: genes 4 Torsion [C]-CA--CB-[CG] |==|  0.15257
USER: genes 5 Torsion [CA]-CB--CG-[CD1] |==|  0.09521
USER: genes 6 Torsion [C]-CA--N-[C] |==|  0.72678
USER: genes 7 Torsion [N]-C--CA-[N] |==|  0.18732
USER: genes 8 Torsion [C]-CA--N-[H3] |==|  0.97826
USER: genes 9 Torsion [C]-CA--CB-[CG] |==|  0.33071
USER: genes 10 Torsion [CA]-CB--CG-[CD1] |==|  0.07700
USER: genes 11 Torsion [N]-CA--CB-[CG] |==|  0.80592
USER: genes 12 Torsion [CA]-CB--CG-[CD1] |==|  0.61116
USER: genes 13 Torsion [N]-CA--C-[N] |==|  0.86960
USER: genes 14 Torsion [C]-N--CA-[C] |==|  0.83059
USER: genes 15 Torsion [N]-CA--CB-[CG] |==|  0.75147
USER: genes 16 Torsion [CA]-CB--CG-[OD1] |==|  0.39141
USER: genes 17 Torsion [N]-CA--C-[N] |==|  0.07778
USER: genes 18 Torsion [C]-N--CA-[C] |==|  0.53338
USER: genes 19 Torsion [N]-CA--C-[O] |==|  0.94986
USER: genes 20 Torsion [N]-CA--CB-[CG] |==|  0.05519
USER: genes 21 Torsion [CA]-CB--CG-[OD1] |==|  0.57017
ROOT
ATOM      1  CA  PHE P   3      18.225 -10.047 -11.448  1.00 45.52 LIG 0.18  C 
ENDROOT
BRANCH 1 2
ATOM      2  N   PHE P   3      18.150 -10.275 -12.946  1.00 45.79 LIG-0.35  N 
ATOM      3 H    PHE P   3      17.575 -10.887 -13.131  1.00 45.79 LIG 0.16  HD
ATOM      4  C   LEU P   2      18.828  -9.676 -13.931  1.00 46.01 LIG 0.24  C 
ATOM      5 O    LEU P   2      19.594  -8.747 -13.708  1.00 46.46 LIG-0.27  OA
BRANCH 4 6
ATOM      6  CA  LEU P   2      18.573 -10.157 -15.425  1.00 45.94 LIG 0.18  C 
BRANCH 6 7
ATOM      7  CB  LEU P   2      17.072 -10.130 -15.823  1.00 45.93 LIG 0.04  C 
BRANCH 7 8
ATOM      8  CG  LEU P   2      16.209  -8.842 -15.688  1.00 45.11 LIG-0.02  C 
ATOM      9  CD1 LEU P   2      16.988  -7.535 -15.959  1.00 44.79 LIG 0.01  C 
ATOM     10  CD2 LEU P   2      14.971  -8.896 -16.581  1.00 44.35 LIG 0.01  C 
ENDBRANCH 7 8
ENDBRANCH 6 7
BRANCH 6 11
ATOM     11  N   LEU P   2      19.113 -11.524 -15.597  1.00 46.17 LIG-0.35  N 
ATOM     12 H    LEU P   2      18.579 -12.136 -15.312  1.00 46.17 LIG 0.16  HD
ATOM     13  C   LEU P   1      20.307 -11.802 -16.139  1.00 46.12 LIG 0.25  C 
ATOM     14 O    LEU P   1      21.059 -10.934 -16.609  1.00 46.29 LIG-0.27  OA
BRANCH 13 15
ATOM     15  CA  LEU P   1      20.721 -13.297 -16.152  1.00 45.93 LIG 0.28  C 
BRANCH 15 16
ATOM     16  N   LEU P   1      19.889 -14.158 -17.053  1.00 46.34 LIG-0.07  N 
ATOM     17 H3   LEU P   1      19.200 -13.687 -17.363  1.00 46.34 LIG 0.28  HD
ATOM     18 H2   LEU P   1      19.587 -14.860 -16.596  1.00 46.34 LIG 0.28  HD
ATOM     19 H1   LEU P   1      20.386 -14.441 -17.735  1.00 46.34 LIG 0.28  HD
ENDBRANCH 15 16
BRANCH 15 20
ATOM     20  CB  LEU P   1      22.209 -13.440 -16.513  1.00 45.65 LIG 0.05  C 
BRANCH 20 21
ATOM     21  CG  LEU P   1      23.064 -14.102 -15.426  1.00 44.28 LIG-0.02  C 
ATOM     22  CD1 LEU P   1      22.240 -15.049 -14.574  1.00 42.49 LIG 0.01  C 
ATOM     23  CD2 LEU P   1      24.254 -14.824 -16.033  1.00 44.08 LIG 0.01  C 
ENDBRANCH 20 21
ENDBRANCH 15 20
ENDBRANCH 13 15
ENDBRANCH 6 11
ENDBRANCH 4 6
ENDBRANCH 1 2
BRANCH 1 24
ATOM     24  CB  PHE P   3      17.212  -9.080 -10.776  1.00 45.09 LIG 0.07  C 
BRANCH 24 25
ATOM     25  CG  PHE P   3      17.390  -7.538 -11.108  1.00 44.37 LIG-0.06  A 
ATOM     26  CD1 PHE P   3      17.241  -6.491 -10.164  1.00 43.10 LIG 0.01  A 
ATOM     27  CE1 PHE P   3      17.366  -5.089 -10.572  1.00 41.01 LIG 0.00  A 
ATOM     28  CZ  PHE P   3      17.611  -4.762 -11.920  1.00 41.66 LIG 0.00  A 
ATOM     29  CE2 PHE P   3      17.740  -5.790 -12.839  1.00 43.89 LIG 0.00  A 
ATOM     30  CD2 PHE P   3      17.615  -7.158 -12.435  1.00 44.25 LIG 0.01  A 
ENDBRANCH 24 25
ENDBRANCH 1 24
BRANCH 1 31
ATOM     31  C   PHE P   3      18.113 -11.552 -11.128  1.00 45.74 LIG 0.26  C 
ATOM     32 N    ASN P   4      17.135 -11.900 -11.879  1.00 46.65 LIG-0.24  NA
ATOM     33 O    PHE P   3      18.710 -12.206 -10.277  1.00 45.60 LIG-0.27  OA
BRANCH 32 34
ATOM     34  CA  ASN P   4      16.209 -12.977 -12.082  1.00 47.05 LIG 0.21  C 
BRANCH 34 35
ATOM     35  CB  ASN P   4      15.314 -12.370 -13.094  1.00 46.83 LIG 0.14  C 
BRANCH 35 36
ATOM     36  CG  ASN P   4      14.201 -11.645 -12.392  1.00 47.32 LIG 0.22  C 
ATOM     37  ND2 ASN P   4      13.724 -12.236 -11.296  1.00 46.99 LIG-0.37  N 
ATOM     38 22HD ASN P   4      14.046 -12.991 -11.040  1.00 46.99 LIG 0.16  HD
ATOM     39 21HD ASN P   4      13.093 -11.863 -10.846  1.00 46.99 LIG 0.16  HD
ATOM     40 OD1  ASN P   4      13.768 -10.572 -12.786  1.00 48.95 LIG-0.27  OA
ENDBRANCH 35 36
ENDBRANCH 34 35
BRANCH 34 41
ATOM     41  C   ASN P   4      16.239 -14.413 -12.421  1.00 47.23 LIG 0.24  C 
ATOM     42  N   ASP P   5      17.466 -14.709 -11.905  1.00 48.41 LIG-0.35  N 
ATOM     43 H    ASP P   5      17.894 -14.050 -11.555  1.00 48.41 LIG 0.16  HD
ATOM     44 O    ASN P   4      15.412 -15.114 -12.985  1.00 47.17 LIG-0.27  OA
BRANCH 42 45
ATOM     45  CA  ASP P   5      18.312 -15.882 -11.766  1.00 49.16 LIG 0.17  C 
BRANCH 45 46
ATOM     46  C   ASP P   5      19.490 -15.638 -10.820  1.00 49.66 LIG 0.22  C 
ATOM     47 O    ASP P   5      19.837 -14.486 -10.537  1.00 50.85 LIG-0.29  OA
ENDBRANCH 45 46
BRANCH 45 48
ATOM     48  CB  ASP P   5      18.834 -16.317 -13.182  1.00 49.44 LIG 0.15  C 
BRANCH 48 49
ATOM     49  CG  ASP P   5      18.833 -15.330 -14.358  1.00 49.12 LIG 0.17  C 
ATOM     50 OD1  ASP P   5      18.786 -15.785 -15.522  1.00 51.19 LIG-0.65  OA
ATOM     51 OD2  ASP P   5      18.883 -14.112 -14.117  1.00 49.06 LIG-0.65  OA
ENDBRANCH 48 49
ENDBRANCH 45 48
ENDBRANCH 42 45
ENDBRANCH 34 41
ENDBRANCH 32 34
ENDBRANCH 1 31
TORSDOF 20
ENDMDL
MODEL 64
USER: ADFR SOLUTION from run 70
USER: SCORE 17.176990 LL:  -4.572 LR: -13.351 RR:   0.000 FEB:  -7.385
USER: RMSD 10.213637
USER: SEED 69
USER: STATUS no improvement in best 6 clusters for 5 generations
USER: GENES 22
USER: genes 0 Translation |==|  0.36025 0.67537 0.50853
USER: genes 1 Rotation |==|  0.17658 0.77498 0.24405 0.56536
USER: genes 2 Torsion [CB]-CA--N-[C] |==|  0.86667
USER: genes 3 Torsion [N]-C--CA-[N] |==|  0.11552
USER: genes 4 Torsion [C]-CA--CB-[CG] |==|  0.80214
USER: genes 5 Torsion [CA]-CB--CG-[CD1] |==|  0.23970
USER: genes 6 Torsion [C]-CA--N-[C] |==|  0.77022
USER: genes 7 Torsion [N]-C--CA-[N] |==|  0.43121
USER: genes 8 Torsion [C]-CA--N-[H3] |==|  0.69905
USER: genes 9 Torsion [C]-CA--CB-[CG] |==|  0.27109
USER: genes 10 Torsion [CA]-CB--CG-[CD1] |==|  0.42640
USER: genes 11 Torsion [N]-CA--CB-[CG] |==|  0.71092
USER: genes 12 Torsion [CA]-CB--CG-[CD1] |==|  0.78747
USER: genes 13 Torsion [N]-CA--C-[N] |==|  0.37586
USER: genes 14 Torsion [C]-N--CA-[C] |==|  0.76968
USER: genes 15 Torsion [N]-CA--CB-[CG] |==|  0.11777
USER: genes 16 Torsion [CA]-CB--CG-[OD1] |==|  0.22256
USER: genes 17 Torsion [N]-CA--C-[N] |==|  0.93048
USER: genes 18 Torsion [C]-N--CA-[C] |==|  0.86592
USER: genes 19 Torsion [N]-CA--C-[O] |==|  0.90039
USER: genes 20 Torsion [N]-CA--CB-[CG] |==|  0.04419
USER: genes 21 Torsion [CA]-CB--CG-[OD1] |==|  0.21409
ROOT
ATOM      1  CA  PHE P   3      16.048  -9.599 -14.034  1.00 45.52 LIG 0.18  C 
ENDROOT
BRANCH 1 2
ATOM      2  N   PHE P   3      14.716 -10.136 -13.545  1.00 45.79 LIG-0.35  N 
ATOM      3 H    PHE P   3      14.073  -9.615 -13.780  1.00 45.79 LIG 0.16  HD
ATOM      4  C   LEU P   2      14.454 -11.244 -12.842  1.00 46.01 LIG 0.24  C 
ATOM      5 O    LEU P   2      15.334 -12.047 -12.561  1.00 46.46 LIG-0.27  OA
BRANCH 4 6
ATOM      6  CA  LEU P   2      12.947 -11.535 -12.425  1.00 45.94 LIG 0.18  C 
BRANCH 6 7
ATOM      7  CB  LEU P   2      12.716 -13.002 -11.972  1.00 45.93 LIG 0.04  C 
BRANCH 7 8
ATOM      8  CG  LEU P   2      12.739 -14.187 -12.981  1.00 45.11 LIG-0.02  C 
ATOM      9  CD1 LEU P   2      14.151 -14.759 -13.242  1.00 44.79 LIG 0.01  C 
ATOM     10  CD2 LEU P   2      11.802 -15.313 -12.551  1.00 44.35 LIG 0.01  C 
ENDBRANCH 7 8
ENDBRANCH 6 7
BRANCH 6 11
ATOM     11  N   LEU P   2      12.055 -11.214 -13.562  1.00 46.17 LIG-0.35  N 
ATOM     12 H    LEU P   2      11.842 -11.904 -14.028  1.00 46.17 LIG 0.16  HD
ATOM     13  C   LEU P   1      11.614  -9.982 -13.851  1.00 46.12 LIG 0.25  C 
ATOM     14 O    LEU P   1      11.864  -8.988 -13.151  1.00 46.29 LIG-0.27  OA
BRANCH 13 15
ATOM     15  CA  LEU P   1      10.753  -9.847 -15.134  1.00 45.93 LIG 0.28  C 
BRANCH 15 16
ATOM     16  N   LEU P   1       9.821  -8.674 -15.131  1.00 46.34 LIG-0.07  N 
ATOM     17 H3   LEU P   1       8.983  -8.960 -15.038  1.00 46.34 LIG 0.28  HD
ATOM     18 H2   LEU P   1       9.899  -8.231 -15.900  1.00 46.34 LIG 0.28  HD
ATOM     19 H1   LEU P   1      10.027  -8.133 -14.455  1.00 46.34 LIG 0.28  HD
ENDBRANCH 15 16
BRANCH 15 20
ATOM     20  CB  LEU P   1      11.650  -9.805 -16.382  1.00 45.65 LIG 0.05  C 
BRANCH 20 21
ATOM     21  CG  LEU P   1      11.800 -11.150 -17.101  1.00 44.28 LIG-0.02  C 
ATOM     22  CD1 LEU P   1      12.106 -10.960 -18.575  1.00 42.49 LIG 0.01  C 
ATOM     23  CD2 LEU P   1      12.863 -12.008 -16.439  1.00 44.08 LIG 0.01  C 
ENDBRANCH 20 21
ENDBRANCH 15 20
ENDBRANCH 13 15
ENDBRANCH 6 11
ENDBRANCH 4 6
ENDBRANCH 1 2
BRANCH 1 24
ATOM     24  CB  PHE P   3      17.243  -9.520 -13.045  1.00 45.09 LIG 0.07  C 
BRANCH 24 25
ATOM     25  CG  PHE P   3      17.599  -8.077 -12.490  1.00 44.37 LIG-0.06  A 
ATOM     26  CD1 PHE P   3      18.285  -7.080 -13.227  1.00 43.10 LIG 0.01  A 
ATOM     27  CE1 PHE P   3      18.624  -5.793 -12.613  1.00 41.01 LIG 0.00  A 
ATOM     28  CZ  PHE P   3      18.293  -5.540 -11.268  1.00 41.66 LIG 0.00  A 
ATOM     29  CE2 PHE P   3      17.636  -6.524 -10.550  1.00 43.89 LIG 0.00  A 
ATOM     30  CD2 PHE P   3      17.309  -7.781 -11.154  1.00 44.25 LIG 0.01  A 
ENDBRANCH 24 25
ENDBRANCH 1 24
BRANCH 1 31
ATOM     31  C   PHE P   3      16.128 -10.617 -15.191  1.00 45.74 LIG 0.26  C 
ATOM     32 N    ASN P   4      16.501  -9.870 -16.163  1.00 46.65 LIG-0.24  NA
ATOM     33 O    PHE P   3      15.787 -11.797 -15.204  1.00 45.60 LIG-0.27  OA
BRANCH 32 34
ATOM     34  CA  ASN P   4      16.608  -9.868 -17.593  1.00 47.05 LIG 0.21  C 
BRANCH 34 35
ATOM     35  CB  ASN P   4      16.435  -8.423 -17.869  1.00 46.83 LIG 0.14  C 
BRANCH 35 36
ATOM     36  CG  ASN P   4      17.223  -7.634 -16.861  1.00 47.32 LIG 0.22  C 
ATOM     37  ND2 ASN P   4      16.526  -7.145 -15.834  1.00 46.99 LIG-0.37  N 
ATOM     38 22HD ASN P   4      15.678  -7.280 -15.787  1.00 46.99 LIG 0.16  HD
ATOM     39 21HD ASN P   4      16.925  -6.694 -15.220  1.00 46.99 LIG 0.16  HD
ATOM     40 OD1  ASN P   4      18.429  -7.462 -16.962  1.00 48.95 LIG-0.27  OA
ENDBRANCH 35 36
ENDBRANCH 34 35
BRANCH 34 41
ATOM     41  C   ASN P   4      17.543 -10.339 -18.634  1.00 47.23 LIG 0.24  C 
ATOM     42  N   ASP P   5      18.681 -10.347 -17.883  1.00 48.41 LIG-0.35  N 
ATOM     43 H    ASP P   5      18.594 -10.086 -17.069  1.00 48.41 LIG 0.16  HD
ATOM     44 O    ASN P   4      17.347 -10.633 -19.804  1.00 47.17 LIG-0.27  OA
BRANCH 42 45
ATOM     45  CA  ASP P   5      20.081 -10.688 -18.069  1.00 49.16 LIG 0.17  C 
BRANCH 45 46
ATOM     46  C   ASP P   5      20.261 -12.049 -18.744  1.00 49.66 LIG 0.22  C 
ATOM     47 O    ASP P   5      19.483 -12.978 -18.495  1.00 50.85 LIG-0.29  OA
ENDBRANCH 45 46
BRANCH 45 48
ATOM     48  CB  ASP P   5      20.809 -10.671 -16.678  1.00 49.44 LIG 0.15  C 
BRANCH 48 49
ATOM     49  CG  ASP P   5      20.007 -10.693 -15.369  1.00 49.12 LIG 0.17  C 
ATOM     50 OD1  ASP P   5      19.511 -11.775 -14.987  1.00 51.19 LIG-0.65  OA
ATOM     51 OD2  ASP P   5      19.874  -9.633 -14.732  1.00 49.06 LIG-0.65  OA
ENDBRANCH 48 49
ENDBRANCH 45 48
ENDBRANCH 42 45
ENDBRANCH 34 41
ENDBRANCH 32 34
ENDBRANCH 1 31
TORSDOF 20
ENDMDL
MODEL 65
USER: ADFR SOLUTION from run 159
USER: SCORE 16.603710 LL:  -4.555 LR: -13.340 RR:   0.000 FEB:  -7.374
USER: RMSD 10.360710
USER: SEED 158
USER: STATUS no improvement in best 13 clusters for 5 generations
USER: GENES 22
USER: genes 0 Translation |==|  0.40437 0.64878 0.56287
USER: genes 1 Rotation |==|  0.49092 0.63019 0.01885 0.53821
USER: genes 2 Torsion [CB]-CA--N-[C] |==|  0.21261
USER: genes 3 Torsion [N]-C--CA-[N] |==|  0.23654
USER: genes 4 Torsion [C]-CA--CB-[CG] |==|  0.78884
USER: genes 5 Torsion [CA]-CB--CG-[CD1] |==|  0.87498
USER: genes 6 Torsion [C]-CA--N-[C] |==|  0.62760
USER: genes 7 Torsion [N]-C--CA-[N] |==|  0.55520
USER: genes 8 Torsion [C]-CA--N-[H3] |==|  0.19221
USER: genes 9 Torsion [C]-CA--CB-[CG] |==|  0.40015
USER: genes 10 Torsion [CA]-CB--CG-[CD1] |==|  0.52467
USER: genes 11 Torsion [N]-CA--CB-[CG] |==|  0.75836
USER: genes 12 Torsion [CA]-CB--CG-[CD1] |==|  0.02273
USER: genes 13 Torsion [N]-CA--C-[N] |==|  0.96111
USER: genes 14 Torsion [C]-N--CA-[C] |==|  0.58759
USER: genes 15 Torsion [N]-CA--CB-[CG] |==|  0.23683
USER: genes 16 Torsion [CA]-CB--CG-[OD1] |==|  0.75692
USER: genes 17 Torsion [N]-CA--C-[N] |==|  0.48324
USER: genes 18 Torsion [C]-N--CA-[C] |==|  0.66859
USER: genes 19 Torsion [N]-CA--C-[O] |==|  0.05039
USER: genes 20 Torsion [N]-CA--CB-[CG] |==|  0.50232
USER: genes 21 Torsion [CA]-CB--CG-[OD1] |==|  0.10406
ROOT
ATOM      1  CA  PHE P   3      17.371 -10.397 -12.404  1.00 45.52 LIG 0.18  C 
ENDROOT
BRANCH 1 2
ATOM      2  N   PHE P   3      16.506 -10.513 -13.644  1.00 45.79 LIG-0.35  N 
ATOM      3 H    PHE P   3      16.063 -11.250 -13.638  1.00 45.79 LIG 0.16  HD
ATOM      4  C   LEU P   2      16.368  -9.660 -14.666  1.00 46.01 LIG 0.24  C 
ATOM      5 O    LEU P   2      16.921  -8.568 -14.667  1.00 46.46 LIG-0.27  OA
BRANCH 4 6
ATOM      6  CA  LEU P   2      15.411 -10.070 -15.868  1.00 45.94 LIG 0.18  C 
BRANCH 6 7
ATOM      7  CB  LEU P   2      15.822  -9.423 -17.218  1.00 45.93 LIG 0.04  C 
BRANCH 7 8
ATOM      8  CG  LEU P   2      15.532  -7.926 -17.534  1.00 45.11 LIG-0.02  C 
ATOM      9  CD1 LEU P   2      14.104  -7.471 -17.155  1.00 44.79 LIG 0.01  C 
ATOM     10  CD2 LEU P   2      16.556  -7.002 -16.879  1.00 44.35 LIG 0.01  C 
ENDBRANCH 7 8
ENDBRANCH 6 7
BRANCH 6 11
ATOM     11  N   LEU P   2      14.019  -9.694 -15.535  1.00 46.17 LIG-0.35  N 
ATOM     12 H    LEU P   2      13.952  -8.900 -15.213  1.00 46.17 LIG 0.16  HD
ATOM     13  C   LEU P   1      12.959 -10.496 -15.709  1.00 46.12 LIG 0.25  C 
ATOM     14 O    LEU P   1      13.033 -11.620 -16.228  1.00 46.29 LIG-0.27  OA
BRANCH 13 15
ATOM     15  CA  LEU P   1      11.595  -9.941 -15.219  1.00 45.93 LIG 0.28  C 
BRANCH 15 16
ATOM     16  N   LEU P   1      10.549 -10.990 -14.992  1.00 46.34 LIG-0.07  N 
ATOM     17 H3   LEU P   1      10.772 -11.484 -14.285  1.00 46.34 LIG 0.28  HD
ATOM     18 H2   LEU P   1      10.490 -11.511 -15.711  1.00 46.34 LIG 0.28  HD
ATOM     19 H1   LEU P   1       9.764 -10.598 -14.843  1.00 46.34 LIG 0.28  HD
ENDBRANCH 15 16
BRANCH 15 20
ATOM     20  CB  LEU P   1      11.782  -9.099 -13.947  1.00 45.65 LIG 0.05  C 
BRANCH 20 21
ATOM     21  CG  LEU P   1      10.856  -7.882 -13.849  1.00 44.28 LIG-0.02  C 
ATOM     22  CD1 LEU P   1      11.240  -6.984 -12.688  1.00 42.49 LIG 0.01  C 
ATOM     23  CD2 LEU P   1      10.842  -7.100 -15.151  1.00 44.08 LIG 0.01  C 
ENDBRANCH 20 21
ENDBRANCH 15 20
ENDBRANCH 13 15
ENDBRANCH 6 11
ENDBRANCH 4 6
ENDBRANCH 1 2
BRANCH 1 24
ATOM     24  CB  PHE P   3      16.921  -9.459 -11.250  1.00 45.09 LIG 0.07  C 
BRANCH 24 25
ATOM     25  CG  PHE P   3      17.369  -7.941 -11.366  1.00 44.37 LIG-0.06  A 
ATOM     26  CD1 PHE P   3      17.989  -7.372 -12.507  1.00 43.10 LIG 0.01  A 
ATOM     27  CE1 PHE P   3      18.423  -5.972 -12.504  1.00 41.01 LIG 0.00  A 
ATOM     28  CZ  PHE P   3      18.253  -5.179 -11.354  1.00 41.66 LIG 0.00  A 
ATOM     29  CE2 PHE P   3      17.661  -5.746 -10.238  1.00 43.89 LIG 0.00  A 
ATOM     30  CD2 PHE P   3      17.240  -7.115 -10.245  1.00 44.25 LIG 0.01  A 
ENDBRANCH 24 25
ENDBRANCH 1 24
BRANCH 1 31
ATOM     31  C   PHE P   3      17.357 -11.919 -12.150  1.00 45.74 LIG 0.26  C 
ATOM     32 N    ASN P   4      16.409 -12.298 -12.924  1.00 46.65 LIG-0.24  NA
ATOM     33 O    PHE P   3      17.990 -12.568 -11.321  1.00 45.60 LIG-0.27  OA
BRANCH 32 34
ATOM     34  CA  ASN P   4      15.558 -13.423 -13.180  1.00 47.05 LIG 0.21  C 
BRANCH 34 35
ATOM     35  CB  ASN P   4      14.482 -13.173 -12.194  1.00 46.83 LIG 0.14  C 
BRANCH 35 36
ATOM     36  CG  ASN P   4      13.473 -12.236 -12.796  1.00 47.32 LIG 0.22  C 
ATOM     37  ND2 ASN P   4      12.434 -12.814 -13.400  1.00 46.99 LIG-0.37  N 
ATOM     38 22HD ASN P   4      12.379 -13.672 -13.435  1.00 46.99 LIG 0.16  HD
ATOM     39 21HD ASN P   4      11.818 -12.329 -13.754  1.00 46.99 LIG 0.16  HD
ATOM     40 OD1  ASN P   4      13.584 -11.021 -12.727  1.00 48.95 LIG-0.27  OA
ENDBRANCH 35 36
ENDBRANCH 34 35
BRANCH 34 41
ATOM     41  C   ASN P   4      14.875 -14.056 -14.326  1.00 47.23 LIG 0.24  C 
ATOM     42  N   ASP P   5      14.399 -15.160 -13.682  1.00 48.41 LIG-0.35  N 
ATOM     43 H    ASP P   5      14.604 -15.225 -12.850  1.00 48.41 LIG 0.16  HD
ATOM     44 O    ASN P   4      14.770 -13.694 -15.488  1.00 47.17 LIG-0.27  OA
BRANCH 42 45
ATOM     45  CA  ASP P   5      13.599 -16.328 -14.012  1.00 49.16 LIG 0.17  C 
BRANCH 45 46
ATOM     46  C   ASP P   5      12.311 -16.399 -13.190  1.00 49.66 LIG 0.22  C 
ATOM     47 O    ASP P   5      11.880 -15.393 -12.615  1.00 50.85 LIG-0.29  OA
ENDBRANCH 45 46
BRANCH 45 48
ATOM     48  CB  ASP P   5      14.457 -17.624 -13.790  1.00 49.44 LIG 0.15  C 
BRANCH 48 49
ATOM     49  CG  ASP P   5      13.873 -19.014 -14.080  1.00 49.12 LIG 0.17  C 
ATOM     50 OD1  ASP P   5      13.112 -19.152 -15.063  1.00 51.19 LIG-0.65  OA
ATOM     51 OD2  ASP P   5      14.171 -19.957 -13.326  1.00 49.06 LIG-0.65  OA
ENDBRANCH 48 49
ENDBRANCH 45 48
ENDBRANCH 42 45
ENDBRANCH 34 41
ENDBRANCH 32 34
ENDBRANCH 1 31
TORSDOF 20
ENDMDL
MODEL 66
USER: ADFR SOLUTION from run 112
USER: SCORE 17.145258 LL:  -4.798 LR: -13.340 RR:   0.000 FEB:  -7.374
USER: RMSD 9.298745
USER: SEED 111
USER: STATUS no improvement in best 4 clusters for 5 generations
USER: GENES 22
USER: genes 0 Translation |==|  0.41164 0.59182 0.54851
USER: genes 1 Rotation |==|  0.57821 0.79695 0.12036 0.60763
USER: genes 2 Torsion [CB]-CA--N-[C] |==|  0.13990
USER: genes 3 Torsion [N]-C--CA-[N] |==|  0.30807
USER: genes 4 Torsion [C]-CA--CB-[CG] |==|  0.12533
USER: genes 5 Torsion [CA]-CB--CG-[CD1] |==|  0.73731
USER: genes 6 Torsion [C]-CA--N-[C] |==|  0.79443
USER: genes 7 Torsion [N]-C--CA-[N] |==|  0.59471
USER: genes 8 Torsion [C]-CA--N-[H3] |==|  0.21271
USER: genes 9 Torsion [C]-CA--CB-[CG] |==|  0.66789
USER: genes 10 Torsion [CA]-CB--CG-[CD1] |==|  0.41412
USER: genes 11 Torsion [N]-CA--CB-[CG] |==|  0.11547
USER: genes 12 Torsion [CA]-CB--CG-[CD1] |==|  0.22633
USER: genes 13 Torsion [N]-CA--C-[N] |==|  0.62809
USER: genes 14 Torsion [C]-N--CA-[C] |==|  0.69618
USER: genes 15 Torsion [N]-CA--CB-[CG] |==|  0.81367
USER: genes 16 Torsion [CA]-CB--CG-[OD1] |==|  0.32474
USER: genes 17 Torsion [N]-CA--C-[N] |==|  0.45336
USER: genes 18 Torsion [C]-N--CA-[C] |==|  0.91195
USER: genes 19 Torsion [N]-CA--C-[O] |==|  0.88585
USER: genes 20 Torsion [N]-CA--CB-[CG] |==|  0.80660
USER: genes 21 Torsion [CA]-CB--CG-[OD1] |==|  0.59382
ROOT
ATOM      1  CA  PHE P   3      17.589 -12.105 -12.835  1.00 45.52 LIG 0.18  C 
ENDROOT
BRANCH 1 2
ATOM      2  N   PHE P   3      17.125 -11.307 -14.038  1.00 45.79 LIG-0.35  N 
ATOM      3 H    PHE P   3      17.291 -11.731 -14.767  1.00 45.79 LIG 0.16  HD
ATOM      4  C   LEU P   2      16.533 -10.107 -14.083  1.00 46.01 LIG 0.24  C 
ATOM      5 O    LEU P   2      16.211  -9.513 -13.063  1.00 46.46 LIG-0.27  OA
BRANCH 4 6
ATOM      6  CA  LEU P   2      16.195  -9.486 -15.508  1.00 45.94 LIG 0.18  C 
BRANCH 6 7
ATOM      7  CB  LEU P   2      16.766  -8.055 -15.696  1.00 45.93 LIG 0.04  C 
BRANCH 7 8
ATOM      8  CG  LEU P   2      18.222  -7.689 -15.281  1.00 45.11 LIG-0.02  C 
ATOM      9  CD1 LEU P   2      18.335  -7.086 -13.863  1.00 44.79 LIG 0.01  C 
ATOM     10  CD2 LEU P   2      19.162  -8.885 -15.407  1.00 44.35 LIG 0.01  C 
ENDBRANCH 7 8
ENDBRANCH 6 7
BRANCH 6 11
ATOM     11  N   LEU P   2      14.728  -9.469 -15.698  1.00 46.17 LIG-0.35  N 
ATOM     12 H    LEU P   2      14.387  -8.683 -15.628  1.00 46.17 LIG 0.16  HD
ATOM     13  C   LEU P   1      13.987 -10.557 -15.954  1.00 46.12 LIG 0.25  C 
ATOM     14 O    LEU P   1      14.473 -11.688 -16.117  1.00 46.29 LIG-0.27  OA
BRANCH 13 15
ATOM     15  CA  LEU P   1      12.454 -10.336 -16.038  1.00 45.93 LIG 0.28  C 
BRANCH 15 16
ATOM     16  N   LEU P   1      11.637 -11.485 -15.531  1.00 46.34 LIG-0.07  N 
ATOM     17 H3   LEU P   1      11.643 -11.484 -14.641  1.00 46.34 LIG 0.28  HD
ATOM     18 H2   LEU P   1      11.982 -12.250 -15.830  1.00 46.34 LIG 0.28  HD
ATOM     19 H1   LEU P   1      10.799 -11.404 -15.821  1.00 46.34 LIG 0.28  HD
ENDBRANCH 15 16
BRANCH 15 20
ATOM     20  CB  LEU P   1      12.056  -9.043 -15.309  1.00 45.65 LIG 0.05  C 
BRANCH 20 21
ATOM     21  CG  LEU P   1      11.085  -9.247 -14.140  1.00 44.28 LIG-0.02  C 
ATOM     22  CD1 LEU P   1      11.299  -8.211 -13.054  1.00 42.49 LIG 0.01  C 
ATOM     23  CD2 LEU P   1       9.644  -9.233 -14.619  1.00 44.08 LIG 0.01  C 
ENDBRANCH 20 21
ENDBRANCH 15 20
ENDBRANCH 13 15
ENDBRANCH 6 11
ENDBRANCH 4 6
ENDBRANCH 1 2
BRANCH 1 24
ATOM     24  CB  PHE P   3      16.608 -12.336 -11.653  1.00 45.09 LIG 0.07  C 
BRANCH 24 25
ATOM     25  CG  PHE P   3      15.109 -12.680 -12.044  1.00 44.37 LIG-0.06  A 
ATOM     26  CD1 PHE P   3      14.652 -13.970 -12.414  1.00 43.10 LIG 0.01  A 
ATOM     27  CE1 PHE P   3      13.259 -14.184 -12.818  1.00 41.01 LIG 0.00  A 
ATOM     28  CZ  PHE P   3      12.360 -13.102 -12.870  1.00 41.66 LIG 0.00  A 
ATOM     29  CE2 PHE P   3      12.819 -11.842 -12.522  1.00 43.89 LIG 0.00  A 
ATOM     30  CD2 PHE P   3      14.181 -11.637 -12.130  1.00 44.25 LIG 0.01  A 
ENDBRANCH 24 25
ENDBRANCH 1 24
BRANCH 1 31
ATOM     31  C   PHE P   3      17.990 -13.323 -13.693  1.00 45.74 LIG 0.26  C 
ATOM     32 N    ASN P   4      17.478 -14.288 -13.023  1.00 46.65 LIG-0.24  NA
ATOM     33 O    PHE P   3      18.725 -13.365 -14.677  1.00 45.60 LIG-0.27  OA
BRANCH 32 34
ATOM     34  CA  ASN P   4      17.522 -15.717 -12.908  1.00 47.05 LIG 0.21  C 
BRANCH 34 35
ATOM     35  CB  ASN P   4      17.868 -15.857 -11.475  1.00 46.83 LIG 0.14  C 
BRANCH 35 36
ATOM     36  CG  ASN P   4      19.261 -15.338 -11.255  1.00 47.32 LIG 0.22  C 
ATOM     37  ND2 ASN P   4      20.230 -15.985 -11.903  1.00 46.99 LIG-0.37  N 
ATOM     38 22HD ASN P   4      20.039 -16.660 -12.400  1.00 46.99 LIG 0.16  HD
ATOM     39 21HD ASN P   4      21.047 -15.727 -11.824  1.00 46.99 LIG 0.16  HD
ATOM     40 OD1  ASN P   4      19.496 -14.375 -10.540  1.00 48.95 LIG-0.27  OA
ENDBRANCH 35 36
ENDBRANCH 34 35
BRANCH 34 41
ATOM     41  C   ASN P   4      16.658 -16.878 -13.201  1.00 47.23 LIG 0.24  C 
ATOM     42  N   ASP P   5      17.615 -17.848 -13.150  1.00 48.41 LIG-0.35  N 
ATOM     43 H    ASP P   5      18.415 -17.577 -12.993  1.00 48.41 LIG 0.16  HD
ATOM     44 O    ASN P   4      15.457 -16.941 -13.415  1.00 47.17 LIG-0.27  OA
BRANCH 42 45
ATOM     45  CA  ASP P   5      17.680 -19.293 -13.295  1.00 49.16 LIG 0.17  C 
BRANCH 45 46
ATOM     46  C   ASP P   5      16.400 -19.981 -12.817  1.00 49.66 LIG 0.22  C 
ATOM     47 O    ASP P   5      15.832 -19.599 -11.787  1.00 50.85 LIG-0.29  OA
ENDBRANCH 45 46
BRANCH 45 48
ATOM     48  CB  ASP P   5      18.919 -19.839 -12.499  1.00 49.44 LIG 0.15  C 
BRANCH 48 49
ATOM     49  CG  ASP P   5      20.350 -19.553 -12.977  1.00 49.12 LIG 0.17  C 
ATOM     50 OD1  ASP P   5      21.229 -20.422 -12.791  1.00 51.19 LIG-0.65  OA
ATOM     51 OD2  ASP P   5      20.589 -18.466 -13.531  1.00 49.06 LIG-0.65  OA
ENDBRANCH 48 49
ENDBRANCH 45 48
ENDBRANCH 42 45
ENDBRANCH 34 41
ENDBRANCH 32 34
ENDBRANCH 1 31
TORSDOF 20
ENDMDL
