MODEL 1
USER: ADFR SOLUTION from run 69
USER: SCORE 16.320172 LL:  -2.011 LR: -14.448 RR:   0.000 FEB: -11.465
USER: RMSD 1.268855
USER: SEED 68
USER: STATUS 1 or 2 clusters left
USER: GENES 12
USER: genes 0 Translation |==|  0.51526 0.53911 0.48437
USER: genes 1 Rotation |==|  0.54533 0.47614 0.52223 0.99687
USER: genes 2 Torsion [C]-CA--N-[C] |==|  0.66687
USER: genes 3 Torsion [N]-C--CA-[N] |==|  0.43197
USER: genes 4 Torsion [N]-C--CA-[N] |==|  0.54665
USER: genes 5 Torsion [C]-CA--N-[H3] |==|  0.51461
USER: genes 6 Torsion [N]-CA--C-[N] |==|  0.40707
USER: genes 7 Torsion [N]-CA--C-[O] |==|  0.89850
USER: genes 8 Torsion [N]-CA--CB-[CG] |==|  0.66625
USER: genes 9 Torsion [CA]-CB--CG-[CD] |==|  0.13889
USER: genes 10 Torsion [CB]-CG--CD-[NE] |==|  0.51329
USER: genes 11 Torsion [CG]-CD--NE-[CZ] |==|  0.61110
ROOT
ATOM      1  CA  ARG B   4      -2.212  14.663  12.521  0.80 38.14 LIG 0.18  C 
ENDROOT
BRANCH 1 2
ATOM      2  N   ARG B   4      -1.230  13.801  13.183  0.80 37.32 LIG-0.35  N 
ATOM      3 H    ARG B   4      -0.420  14.072  13.089  0.80 37.32 LIG 0.16  HD
ATOM      4  C   PRO B   3      -1.548  12.701  13.867  0.80 36.53 LIG 0.24  C 
ATOM      5 O    PRO B   3      -2.710  12.292  13.995  0.80 36.51 LIG-0.27  OA
BRANCH 4 6
ATOM      6  CA  PRO B   3      -0.371  11.933  14.482  0.80 35.73 LIG 0.18  C 
ATOM      7  N   PRO B   3      -0.764  11.123  15.640  0.80 35.22 LIG-0.34  N 
ATOM      8  CD  PRO B   3      -0.870   9.706  15.258  0.80 35.29 LIG 0.13  C 
ATOM      9  C   GLY B   2      -0.961  11.554  16.905  0.80 34.72 LIG 0.25  C 
ATOM     10  CG  PRO B   3      -0.789   9.756  13.742  0.80 35.32 LIG 0.02  C 
ATOM     11  CB  PRO B   3       0.147  10.872  13.518  0.80 35.57 LIG 0.04  C 
ATOM     12 O    GLY B   2      -0.805  12.740  17.248  0.80 34.22 LIG-0.27  OA
BRANCH 9 13
ATOM     13  CA  GLY B   2      -1.370  10.524  17.933  0.80 34.38 LIG 0.33  C 
BRANCH 13 14
ATOM     14  N   GLY B   2      -1.920  11.180  19.117  0.80 34.02 LIG-0.07  N 
ATOM     15 H3   GLY B   2      -2.086  10.571  19.744  0.80 34.02 LIG 0.27  HD
ATOM     16 H1   GLY B   2      -1.333  11.773  19.428  0.80 34.02 LIG 0.27  HD
ATOM     17 H2   GLY B   2      -2.676  11.597  18.902  0.80 34.02 LIG 0.27  HD
ENDBRANCH 13 14
ENDBRANCH 9 13
ENDBRANCH 4 6
ENDBRANCH 1 2
BRANCH 1 18
ATOM     18  C   ARG B   4      -1.864  14.675  11.017  0.80 39.25 LIG 0.24  C 
ATOM     19 O    ARG B   4      -0.688  14.494  10.661  0.80 39.33 LIG-0.27  OA
ATOM     20  N   PRO B   5      -2.882  14.772  10.120  0.80 40.23 LIG-0.34  N 
ATOM     21  CA  PRO B   5      -2.614  14.794   8.673  0.80 40.82 LIG 0.19  C 
ATOM     22  CD  PRO B   5      -4.338  14.710  10.364  0.80 40.52 LIG 0.13  C 
ATOM     23  CB  PRO B   5      -4.019  14.684   8.054  0.80 40.82 LIG 0.04  C 
ATOM     24  CG  PRO B   5      -4.834  14.017   9.122  0.80 40.73 LIG 0.02  C 
BRANCH 21 25
ATOM     25  C   PRO B   5      -1.942  16.115   8.263  0.80 41.28 LIG 0.20  C 
ATOM     26 O    PRO B   5      -2.295  17.177   8.839  0.80 41.33 LIG-0.65  OA
ATOM     27 OXT  PRO B   5      -1.062  16.060   7.365  0.80 41.80 LIG-0.65  OA
ENDBRANCH 21 25
ENDBRANCH 1 18
BRANCH 1 28
ATOM     28  CB  ARG B   4      -2.159  16.088  13.108  0.80 37.56 LIG 0.04  C 
BRANCH 28 29
ATOM     29  CG  ARG B   4      -3.456  16.600  13.745  0.80 36.72 LIG 0.02  C 
BRANCH 29 30
ATOM     30  CD  ARG B   4      -4.033  15.601  14.731  0.80 36.17 LIG 0.14  C 
BRANCH 30 31
ATOM     31  NE  ARG B   4      -5.328  16.009  15.274  0.80 35.68 LIG-0.23  N 
ATOM     32  CZ  ARG B   4      -5.699  15.851  16.544  0.80 35.42 LIG 0.67  C 
ATOM     33  NH2 ARG B   4      -6.912  16.219  16.932  0.80 34.99 LIG-0.23  N 
ATOM     34  NH1 ARG B   4      -4.874  15.298  17.422  0.80 35.13 LIG-0.23  N 
ATOM     35 22HH ARG B   4      -7.151  16.116  17.752  0.80 34.99 LIG 0.17  HD
ATOM     36 21HH ARG B   4      -7.461  16.559  16.365  0.80 34.99 LIG 0.17  HD
ATOM     37 12HH ARG B   4      -5.121  15.199  18.240  0.80 35.13 LIG 0.17  HD
ATOM     38 11HH ARG B   4      -4.093  15.038  17.174  0.80 35.13 LIG 0.17  HD
ATOM     39 HE   ARG B   4      -5.890  16.377  14.737  0.80 35.68 LIG 0.18  HD
ENDBRANCH 30 31
ENDBRANCH 29 30
ENDBRANCH 28 29
ENDBRANCH 1 28
TORSDOF 10
ENDMDL
MODEL 2
USER: ADFR SOLUTION from run 84
USER: SCORE 15.379554 LL:  -2.043 LR: -13.845 RR:   0.000 FEB: -10.862
USER: RMSD 2.556895
USER: SEED 83
USER: STATUS no improvement in best 3 clusters for 5 generations
USER: GENES 12
USER: genes 0 Translation |==|  0.48952 0.47492 0.47330
USER: genes 1 Rotation |==|  0.66803 0.36519 0.66518 0.91989
USER: genes 2 Torsion [C]-CA--N-[C] |==|  0.16500
USER: genes 3 Torsion [N]-C--CA-[N] |==|  0.79570
USER: genes 4 Torsion [N]-C--CA-[N] |==|  0.50601
USER: genes 5 Torsion [C]-CA--N-[H3] |==|  0.20900
USER: genes 6 Torsion [N]-CA--C-[N] |==|  0.18197
USER: genes 7 Torsion [N]-CA--C-[O] |==|  0.93573
USER: genes 8 Torsion [N]-CA--CB-[CG] |==|  0.91243
USER: genes 9 Torsion [CA]-CB--CG-[CD] |==|  0.33542
USER: genes 10 Torsion [CB]-CG--CD-[NE] |==|  0.45688
USER: genes 11 Torsion [CG]-CD--NE-[CZ] |==|  0.65452
ROOT
ATOM      1  CA  ARG B   4      -2.984  12.737  12.189  0.80 38.14 LIG 0.18  C 
ENDROOT
BRANCH 1 2
ATOM      2  N   ARG B   4      -1.925  12.107  12.981  0.80 37.32 LIG-0.35  N 
ATOM      3 H    ARG B   4      -1.881  11.255  12.874  0.80 37.32 LIG 0.16  HD
ATOM      4  C   PRO B   3      -1.104  12.776  13.792  0.80 36.53 LIG 0.24  C 
ATOM      5 O    PRO B   3      -1.170  14.000  13.966  0.80 36.51 LIG-0.27  OA
BRANCH 4 6
ATOM      6  CA  PRO B   3      -0.065  11.929  14.537  0.80 35.73 LIG 0.18  C 
ATOM      7  N   PRO B   3      -0.651  11.137  15.624  0.80 35.22 LIG-0.34  N 
ATOM      8  CD  PRO B   3      -0.795   9.732  15.208  0.80 35.29 LIG 0.13  C 
ATOM      9  C   GLY B   2      -0.978  11.569  16.860  0.80 34.72 LIG 0.25  C 
ATOM     10  CG  PRO B   3      -0.520   9.790  13.716  0.80 35.32 LIG 0.02  C 
ATOM     11  CB  PRO B   3       0.504  10.846  13.629  0.80 35.57 LIG 0.04  C 
ATOM     12 O    GLY B   2      -0.795  12.740  17.239  0.80 34.22 LIG-0.27  OA
BRANCH 9 13
ATOM     13  CA  GLY B   2      -1.578  10.558  17.812  0.80 34.38 LIG 0.33  C 
BRANCH 13 14
ATOM     14  N   GLY B   2      -1.920  11.198  19.081  0.80 34.02 LIG-0.07  N 
ATOM     15 H3   GLY B   2      -2.658  11.685  18.979  0.80 34.02 LIG 0.27  HD
ATOM     16 H1   GLY B   2      -2.060  10.574  19.700  0.80 34.02 LIG 0.27  HD
ATOM     17 H2   GLY B   2      -1.251  11.725  19.338  0.80 34.02 LIG 0.27  HD
ENDBRANCH 13 14
ENDBRANCH 9 13
ENDBRANCH 4 6
ENDBRANCH 1 2
BRANCH 1 18
ATOM     18  C   ARG B   4      -2.304  13.767  11.261  0.80 39.25 LIG 0.24  C 
ATOM     19 O    ARG B   4      -2.459  14.980  11.478  0.80 39.33 LIG-0.27  OA
ATOM     20  N   PRO B   5      -1.462  13.308  10.297  0.80 40.23 LIG-0.34  N 
ATOM     21  CA  PRO B   5      -0.789  14.240   9.377  0.80 40.82 LIG 0.19  C 
ATOM     22  CD  PRO B   5      -0.955  11.936  10.088  0.80 40.52 LIG 0.13  C 
ATOM     23  CB  PRO B   5       0.210  13.336   8.631  0.80 40.82 LIG 0.04  C 
ATOM     24  CG  PRO B   5       0.438  12.192   9.574  0.80 40.73 LIG 0.02  C 
BRANCH 21 25
ATOM     25  C   PRO B   5      -1.796  14.862   8.396  0.80 41.28 LIG 0.20  C 
ATOM     26 O    PRO B   5      -2.871  14.250   8.165  0.80 41.33 LIG-0.65  OA
ATOM     27 OXT  PRO B   5      -1.488  15.966   7.876  0.80 41.80 LIG-0.65  OA
ENDBRANCH 21 25
ENDBRANCH 1 18
BRANCH 1 28
ATOM     28  CB  ARG B   4      -4.011  13.425  13.112  0.80 37.56 LIG 0.04  C 
BRANCH 28 29
ATOM     29  CG  ARG B   4      -4.225  12.769  14.482  0.80 36.72 LIG 0.02  C 
BRANCH 29 30
ATOM     30  CD  ARG B   4      -3.907  13.721  15.620  0.80 36.17 LIG 0.14  C 
BRANCH 30 31
ATOM     31  NE  ARG B   4      -4.432  13.273  16.910  0.80 35.68 LIG-0.23  N 
ATOM     32  CZ  ARG B   4      -5.238  13.994  17.688  0.80 35.42 LIG 0.67  C 
ATOM     33  NH2 ARG B   4      -5.630  13.515  18.861  0.80 34.99 LIG-0.23  N 
ATOM     34  NH1 ARG B   4      -5.630  15.204  17.315  0.80 35.13 LIG-0.23  N 
ATOM     35 22HH ARG B   4      -6.151  13.981  19.364  0.80 34.99 LIG 0.17  HD
ATOM     36 21HH ARG B   4      -5.364  12.740  19.120  0.80 34.99 LIG 0.17  HD
ATOM     37 12HH ARG B   4      -6.151  15.663  17.823  0.80 35.13 LIG 0.17  HD
ATOM     38 11HH ARG B   4      -5.365  15.530  16.565  0.80 35.13 LIG 0.17  HD
ATOM     39 HE   ARG B   4      -4.205  12.491  17.185  0.80 35.68 LIG 0.18  HD
ENDBRANCH 30 31
ENDBRANCH 29 30
ENDBRANCH 28 29
ENDBRANCH 1 28
TORSDOF 10
ENDMDL
MODEL 3
USER: ADFR SOLUTION from run 25
USER: SCORE 15.081877 LL:  -2.187 LR: -13.004 RR:   0.000 FEB: -10.021
USER: RMSD 7.276951
USER: SEED 24
USER: STATUS no improvement in best 8 clusters for 5 generations
USER: GENES 12
USER: genes 0 Translation |==|  0.43321 0.42339 0.51389
USER: genes 1 Rotation |==|  0.26132 0.26487 0.14644 0.61289
USER: genes 2 Torsion [C]-CA--N-[C] |==|  0.82814
USER: genes 3 Torsion [N]-C--CA-[N] |==|  0.03322
USER: genes 4 Torsion [N]-C--CA-[N] |==|  0.53778
USER: genes 5 Torsion [C]-CA--N-[H3] |==|  0.76399
USER: genes 6 Torsion [N]-CA--C-[N] |==|  0.86837
USER: genes 7 Torsion [N]-CA--C-[O] |==|  0.38469
USER: genes 8 Torsion [N]-CA--CB-[CG] |==|  0.84298
USER: genes 9 Torsion [CA]-CB--CG-[CD] |==|  0.25440
USER: genes 10 Torsion [CB]-CG--CD-[NE] |==|  0.18450
USER: genes 11 Torsion [CG]-CD--NE-[CZ] |==|  0.20713
ROOT
ATOM      1  CA  ARG B   4      -4.674  11.192  13.407  0.80 38.14 LIG 0.18  C 
ENDROOT
BRANCH 1 2
ATOM      2  N   ARG B   4      -5.403  12.329  13.973  0.80 37.32 LIG-0.35  N 
ATOM      3 H    ARG B   4      -5.091  12.590  14.730  0.80 37.32 LIG 0.16  HD
ATOM      4  C   PRO B   3      -6.449  12.911  13.384  0.80 36.53 LIG 0.24  C 
ATOM      5 O    PRO B   3      -6.916  12.532  12.301  0.80 36.51 LIG-0.27  OA
BRANCH 4 6
ATOM      6  CA  PRO B   3      -7.076  14.086  14.144  0.80 35.73 LIG 0.18  C 
ATOM      7  N   PRO B   3      -6.246  14.548  15.261  0.80 35.22 LIG-0.34  N 
ATOM      8  CD  PRO B   3      -5.538  15.786  14.891  0.80 35.29 LIG 0.13  C 
ATOM      9  C   GLY B   2      -6.147  13.991  16.487  0.80 34.72 LIG 0.25  C 
ATOM     10  CG  PRO B   3      -5.780  15.879  13.394  0.80 35.32 LIG 0.02  C 
ATOM     11  CB  PRO B   3      -7.140  15.328  13.264  0.80 35.57 LIG 0.04  C 
ATOM     12 O    GLY B   2      -6.795  12.985  16.827  0.80 34.22 LIG-0.27  OA
BRANCH 9 13
ATOM     13  CA  GLY B   2      -5.213  14.652  17.476  0.80 34.38 LIG 0.33  C 
BRANCH 13 14
ATOM     14  N   GLY B   2      -4.974  13.767  18.615  0.80 34.02 LIG-0.07  N 
ATOM     15 H3   GLY B   2      -5.625  13.870  19.213  0.80 34.02 LIG 0.27  HD
ATOM     16 H1   GLY B   2      -4.958  12.922  18.337  0.80 34.02 LIG 0.27  HD
ATOM     17 H2   GLY B   2      -4.193  13.971  18.990  0.80 34.02 LIG 0.27  HD
ENDBRANCH 13 14
ENDBRANCH 9 13
ENDBRANCH 4 6
ENDBRANCH 1 2
BRANCH 1 18
ATOM     18  C   ARG B   4      -5.675  10.022  13.294  0.80 39.25 LIG 0.24  C 
ATOM     19 O    ARG B   4      -5.670   9.310  12.276  0.80 39.33 LIG-0.27  OA
ATOM     20  N   PRO B   5      -6.459   9.738  14.368  0.80 40.23 LIG-0.34  N 
ATOM     21  CA  PRO B   5      -7.438   8.639  14.319  0.80 40.82 LIG 0.19  C 
ATOM     22  CD  PRO B   5      -6.393  10.297  15.734  0.80 40.52 LIG 0.13  C 
ATOM     23  CB  PRO B   5      -7.921   8.535  15.778  0.80 40.82 LIG 0.04  C 
ATOM     24  CG  PRO B   5      -6.790   9.112  16.576  0.80 40.73 LIG 0.02  C 
BRANCH 21 25
ATOM     25  C   PRO B   5      -8.606   8.990  13.384  0.80 41.28 LIG 0.20  C 
ATOM     26 O    PRO B   5      -9.053   8.099  12.615  0.80 41.33 LIG-0.65  OA
ATOM     27 OXT  PRO B   5      -9.061  10.162  13.442  0.80 41.80 LIG-0.65  OA
ENDBRANCH 21 25
ENDBRANCH 1 18
BRANCH 1 28
ATOM     28  CB  ARG B   4      -3.484  10.810  14.311  0.80 37.56 LIG 0.04  C 
BRANCH 28 29
ATOM     29  CG  ARG B   4      -2.477  11.930  14.600  0.80 36.72 LIG 0.02  C 
BRANCH 29 30
ATOM     30  CD  ARG B   4      -2.828  12.693  15.864  0.80 36.17 LIG 0.14  C 
BRANCH 30 31
ATOM     31  NE  ARG B   4      -2.711  11.884  17.077  0.80 35.68 LIG-0.23  N 
ATOM     32  CZ  ARG B   4      -1.556  11.535  17.643  0.80 35.42 LIG 0.67  C 
ATOM     33  NH2 ARG B   4      -1.553  10.764  18.723  0.80 34.99 LIG-0.23  N 
ATOM     34  NH1 ARG B   4      -0.403  11.926  17.118  0.80 35.13 LIG-0.23  N 
ATOM     35 22HH ARG B   4      -0.807  10.539  19.088  0.80 34.99 LIG 0.17  HD
ATOM     36 21HH ARG B   4      -2.295  10.490  19.057  0.80 34.99 LIG 0.17  HD
ATOM     37 12HH ARG B   4       0.338  11.696  17.490  0.80 35.13 LIG 0.17  HD
ATOM     38 11HH ARG B   4      -0.396  12.409  16.407  0.80 35.13 LIG 0.17  HD
ATOM     39 HE   ARG B   4      -3.436  11.615  17.451  0.80 35.68 LIG 0.18  HD
ENDBRANCH 30 31
ENDBRANCH 29 30
ENDBRANCH 28 29
ENDBRANCH 1 28
TORSDOF 10
ENDMDL
MODEL 4
USER: ADFR SOLUTION from run 96
USER: SCORE 14.537633 LL:  -1.975 LR: -13.000 RR:   0.000 FEB: -10.017
USER: RMSD 4.676733
USER: SEED 95
USER: STATUS no improvement in best 3 clusters for 5 generations
USER: GENES 12
USER: genes 0 Translation |==|  0.55977 0.48502 0.50430
USER: genes 1 Rotation |==|  0.61313 0.51823 0.02416 0.60220
USER: genes 2 Torsion [C]-CA--N-[C] |==|  0.67656
USER: genes 3 Torsion [N]-C--CA-[N] |==|  0.38989
USER: genes 4 Torsion [N]-C--CA-[N] |==|  0.66674
USER: genes 5 Torsion [C]-CA--N-[H3] |==|  0.24228
USER: genes 6 Torsion [N]-CA--C-[N] |==|  0.84068
USER: genes 7 Torsion [N]-CA--C-[O] |==|  0.92598
USER: genes 8 Torsion [N]-CA--CB-[CG] |==|  0.72774
USER: genes 9 Torsion [CA]-CB--CG-[CD] |==|  0.06044
USER: genes 10 Torsion [CB]-CG--CD-[NE] |==|  0.42788
USER: genes 11 Torsion [CG]-CD--NE-[CZ] |==|  0.74335
ROOT
ATOM      1  CA  ARG B   4      -0.877  13.040  13.119  0.80 38.14 LIG 0.18  C 
ENDROOT
BRANCH 1 2
ATOM      2  N   ARG B   4      -2.303  13.314  13.313  0.80 37.32 LIG-0.35  N 
ATOM      3 H    ARG B   4      -2.811  12.853  12.795  0.80 37.32 LIG 0.16  HD
ATOM      4  C   PRO B   3      -2.779  14.189  14.200  0.80 36.53 LIG 0.24  C 
ATOM      5 O    PRO B   3      -2.055  14.870  14.938  0.80 36.51 LIG-0.27  OA
BRANCH 4 6
ATOM      6  CA  PRO B   3      -4.306  14.332  14.244  0.80 35.73 LIG 0.18  C 
ATOM      7  N   PRO B   3      -4.824  14.472  15.609  0.80 35.22 LIG-0.34  N 
ATOM      8  CD  PRO B   3      -5.161  15.879  15.883  0.80 35.29 LIG 0.13  C 
ATOM      9  C   GLY B   2      -5.032  13.485  16.506  0.80 34.72 LIG 0.25  C 
ATOM     10  CG  PRO B   3      -4.553  16.611  14.699  0.80 35.32 LIG 0.02  C 
ATOM     11  CB  PRO B   3      -4.745  15.644  13.604  0.80 35.57 LIG 0.04  C 
ATOM     12 O    GLY B   2      -4.813  12.286  16.255  0.80 34.22 LIG-0.27  OA
BRANCH 9 13
ATOM     13  CA  GLY B   2      -5.572  13.881  17.861  0.80 34.38 LIG 0.33  C 
BRANCH 13 14
ATOM     14  N   GLY B   2      -4.637  13.490  18.914  0.80 34.02 LIG-0.07  N 
ATOM     15 H3   GLY B   2      -4.038  14.137  19.036  0.80 34.02 LIG 0.27  HD
ATOM     16 H1   GLY B   2      -5.083  13.352  19.671  0.80 34.02 LIG 0.27  HD
ATOM     17 H2   GLY B   2      -4.218  12.741  18.677  0.80 34.02 LIG 0.27  HD
ENDBRANCH 13 14
ENDBRANCH 9 13
ENDBRANCH 4 6
ENDBRANCH 1 2
BRANCH 1 18
ATOM     18  C   ARG B   4      -0.523  13.475  11.680  0.80 39.25 LIG 0.24  C 
ATOM     19 O    ARG B   4       0.438  14.240  11.493  0.80 39.33 LIG-0.27  OA
ATOM     20  N   PRO B   5      -1.210  12.914  10.650  0.80 40.23 LIG-0.34  N 
ATOM     21  CA  PRO B   5      -0.923  13.293   9.256  0.80 40.82 LIG 0.19  C 
ATOM     22  CD  PRO B   5      -2.175  11.796  10.682  0.80 40.52 LIG 0.13  C 
ATOM     23  CB  PRO B   5      -1.746  12.278   8.441  0.80 40.82 LIG 0.04  C 
ATOM     24  CG  PRO B   5      -1.903  11.110   9.368  0.80 40.73 LIG 0.02  C 
BRANCH 21 25
ATOM     25  C   PRO B   5      -1.395  14.728   8.972  0.80 41.28 LIG 0.20  C 
ATOM     26 O    PRO B   5      -2.344  15.198   9.652  0.80 41.33 LIG-0.65  OA
ATOM     27 OXT  PRO B   5      -0.795  15.364   8.067  0.80 41.80 LIG-0.65  OA
ENDBRANCH 21 25
ENDBRANCH 1 18
BRANCH 1 28
ATOM     28  CB  ARG B   4      -0.583  11.541  13.327  0.80 37.56 LIG 0.04  C 
BRANCH 28 29
ATOM     29  CG  ARG B   4      -0.046  11.149  14.709  0.80 36.72 LIG 0.02  C 
BRANCH 29 30
ATOM     30  CD  ARG B   4      -0.390  12.184  15.764  0.80 36.17 LIG 0.14  C 
BRANCH 30 31
ATOM     31  NE  ARG B   4      -0.457  11.630  17.115  0.80 35.68 LIG-0.23  N 
ATOM     32  CZ  ARG B   4      -1.569  11.172  17.689  0.80 35.42 LIG 0.67  C 
ATOM     33  NH2 ARG B   4      -1.535  10.724  18.937  0.80 34.99 LIG-0.23  N 
ATOM     34  NH1 ARG B   4      -2.722  11.190  17.035  0.80 35.13 LIG-0.23  N 
ATOM     35 22HH ARG B   4      -2.254  10.429  19.308  0.80 34.99 LIG 0.17  HD
ATOM     36 21HH ARG B   4      -0.796  10.728  19.376  0.80 34.99 LIG 0.17  HD
ATOM     37 12HH ARG B   4      -3.435  10.893  17.412  0.80 35.13 LIG 0.17  HD
ATOM     38 11HH ARG B   4      -2.756  11.498  16.232  0.80 35.13 LIG 0.17  HD
ATOM     39 HE   ARG B   4       0.271  11.596  17.571  0.80 35.68 LIG 0.18  HD
ENDBRANCH 30 31
ENDBRANCH 29 30
ENDBRANCH 28 29
ENDBRANCH 1 28
TORSDOF 10
ENDMDL
MODEL 5
USER: ADFR SOLUTION from run 29
USER: SCORE 13.696953 LL:  -2.157 LR: -12.895 RR:   0.000 FEB:  -9.912
USER: RMSD 6.700167
USER: SEED 28
USER: STATUS no improvement in best 16 clusters for 5 generations
USER: GENES 12
USER: genes 0 Translation |==|  0.43356 0.43909 0.59329
USER: genes 1 Rotation |==|  0.42490 0.85669 0.51197 0.84203
USER: genes 2 Torsion [C]-CA--N-[C] |==|  0.47472
USER: genes 3 Torsion [N]-C--CA-[N] |==|  0.42131
USER: genes 4 Torsion [N]-C--CA-[N] |==|  0.23090
USER: genes 5 Torsion [C]-CA--N-[H3] |==|  0.98410
USER: genes 6 Torsion [N]-CA--C-[N] |==|  0.89902
USER: genes 7 Torsion [N]-CA--C-[O] |==|  0.87319
USER: genes 8 Torsion [N]-CA--CB-[CG] |==|  0.63349
USER: genes 9 Torsion [CA]-CB--CG-[CD] |==|  0.17206
USER: genes 10 Torsion [CB]-CG--CD-[NE] |==|  0.79360
USER: genes 11 Torsion [CG]-CD--NE-[CZ] |==|  0.40723
ROOT
ATOM      1  CA  ARG B   4      -4.663  11.663  15.789  0.80 38.14 LIG 0.18  C 
ENDROOT
BRANCH 1 2
ATOM      2  N   ARG B   4      -3.779  10.873  14.928  0.80 37.32 LIG-0.35  N 
ATOM      3 H    ARG B   4      -4.132  10.136  14.661  0.80 37.32 LIG 0.16  HD
ATOM      4  C   PRO B   3      -2.546  11.249  14.584  0.80 36.53 LIG 0.24  C 
ATOM      5 O    PRO B   3      -2.022  12.301  14.975  0.80 36.51 LIG-0.27  OA
BRANCH 4 6
ATOM      6  CA  PRO B   3      -1.780  10.278  13.677  0.80 35.73 LIG 0.18  C 
ATOM      7  N   PRO B   3      -0.797  10.953  12.823  0.80 35.22 LIG-0.34  N 
ATOM      8  CD  PRO B   3       0.560  10.767  13.365  0.80 35.29 LIG 0.13  C 
ATOM      9  C   GLY B   2      -1.038  11.616  11.672  0.80 34.72 LIG 0.25  C 
ATOM     10  CG  PRO B   3       0.298  10.178  14.740  0.80 35.32 LIG 0.02  C 
ATOM     11  CB  PRO B   3      -0.896   9.349  14.502  0.80 35.57 LIG 0.04  C 
ATOM     12 O    GLY B   2      -2.174  11.717  11.175  0.80 34.22 LIG-0.27  OA
BRANCH 9 13
ATOM     13  CA  GLY B   2       0.147  12.238  10.969  0.80 34.38 LIG 0.33  C 
BRANCH 13 14
ATOM     14  N   GLY B   2       0.831  11.240  10.149  0.80 34.02 LIG-0.07  N 
ATOM     15 H3   GLY B   2       0.466  10.440  10.288  0.80 34.02 LIG 0.27  HD
ATOM     16 H1   GLY B   2       0.752  11.457   9.289  0.80 34.02 LIG 0.27  HD
ATOM     17 H2   GLY B   2       1.693  11.214  10.369  0.80 34.02 LIG 0.27  HD
ENDBRANCH 13 14
ENDBRANCH 9 13
ENDBRANCH 4 6
ENDBRANCH 1 2
BRANCH 1 18
ATOM     18  C   ARG B   4      -6.054  10.994  15.745  0.80 39.25 LIG 0.24  C 
ATOM     19 O    ARG B   4      -6.794  11.059  16.740  0.80 39.33 LIG-0.27  OA
ATOM     20  N   PRO B   5      -6.470  10.448  14.571  0.80 40.23 LIG-0.34  N 
ATOM     21  CA  PRO B   5      -7.783   9.790  14.468  0.80 40.82 LIG 0.19  C 
ATOM     22  CD  PRO B   5      -5.841  10.533  13.237  0.80 40.52 LIG 0.13  C 
ATOM     23  CB  PRO B   5      -7.929   9.534  12.957  0.80 40.82 LIG 0.04  C 
ATOM     24  CG  PRO B   5      -7.041  10.564  12.326  0.80 40.73 LIG 0.02  C 
BRANCH 21 25
ATOM     25  C   PRO B   5      -7.793   8.465  15.247  0.80 41.28 LIG 0.20  C 
ATOM     26 O    PRO B   5      -6.820   7.678  15.114  0.80 41.33 LIG-0.65  OA
ATOM     27 OXT  PRO B   5      -8.784   8.240  15.990  0.80 41.80 LIG-0.65  OA
ENDBRANCH 21 25
ENDBRANCH 1 18
BRANCH 1 28
ATOM     28  CB  ARG B   4      -4.739  13.120  15.290  0.80 37.56 LIG 0.04  C 
BRANCH 28 29
ATOM     29  CG  ARG B   4      -4.551  14.204  16.358  0.80 36.72 LIG 0.02  C 
BRANCH 29 30
ATOM     30  CD  ARG B   4      -3.180  14.128  17.005  0.80 36.17 LIG 0.14  C 
BRANCH 30 31
ATOM     31  NE  ARG B   4      -3.045  13.010  17.939  0.80 35.68 LIG-0.23  N 
ATOM     32  CZ  ARG B   4      -1.918  12.330  18.144  0.80 35.42 LIG 0.67  C 
ATOM     33  NH2 ARG B   4      -1.906  11.304  18.985  0.80 34.99 LIG-0.23  N 
ATOM     34  NH1 ARG B   4      -0.810  12.648  17.490  0.80 35.13 LIG-0.23  N 
ATOM     35 22HH ARG B   4      -1.178  10.865  19.118  0.80 34.99 LIG 0.17  HD
ATOM     36 21HH ARG B   4      -2.625  11.078  19.398  0.80 34.99 LIG 0.17  HD
ATOM     37 12HH ARG B   4      -0.087  12.204  17.628  0.80 35.13 LIG 0.17  HD
ATOM     38 11HH ARG B   4      -0.814  13.299  16.928  0.80 35.13 LIG 0.17  HD
ATOM     39 HE   ARG B   4      -3.740  12.776  18.386  0.80 35.68 LIG 0.18  HD
ENDBRANCH 30 31
ENDBRANCH 29 30
ENDBRANCH 28 29
ENDBRANCH 1 28
TORSDOF 10
ENDMDL
MODEL 6
USER: ADFR SOLUTION from run 26
USER: SCORE 13.513659 LL:  -1.531 LR: -12.857 RR:   0.000 FEB:  -9.874
USER: RMSD 5.636770
USER: SEED 25
USER: STATUS no improvement in best 13 clusters for 5 generations
USER: GENES 12
USER: genes 0 Translation |==|  0.52050 0.48534 0.55102
USER: genes 1 Rotation |==|  0.63079 0.57183 0.02284 0.50733
USER: genes 2 Torsion [C]-CA--N-[C] |==|  0.18830
USER: genes 3 Torsion [N]-C--CA-[N] |==|  0.92190
USER: genes 4 Torsion [N]-C--CA-[N] |==|  0.74305
USER: genes 5 Torsion [C]-CA--N-[H3] |==|  0.99386
USER: genes 6 Torsion [N]-CA--C-[N] |==|  0.53889
USER: genes 7 Torsion [N]-CA--C-[O] |==|  0.41748
USER: genes 8 Torsion [N]-CA--CB-[CG] |==|  0.74571
USER: genes 9 Torsion [CA]-CB--CG-[CD] |==|  0.84078
USER: genes 10 Torsion [CB]-CG--CD-[NE] |==|  0.34296
USER: genes 11 Torsion [CG]-CD--NE-[CZ] |==|  0.14513
ROOT
ATOM      1  CA  ARG B   4      -2.055  13.050  14.521  0.80 38.14 LIG 0.18  C 
ENDROOT
BRANCH 1 2
ATOM      2  N   ARG B   4      -3.337  13.682  14.844  0.80 37.32 LIG-0.35  N 
ATOM      3 H    ARG B   4      -3.320  14.131  15.577  0.80 37.32 LIG 0.16  HD
ATOM      4  C   PRO B   3      -4.429  13.581  14.085  0.80 36.53 LIG 0.24  C 
ATOM      5 O    PRO B   3      -4.468  12.924  13.035  0.80 36.51 LIG-0.27  OA
BRANCH 4 6
ATOM      6  CA  PRO B   3      -5.673  14.314  14.601  0.80 35.73 LIG 0.18  C 
ATOM      7  N   PRO B   3      -5.691  14.441  16.063  0.80 35.22 LIG-0.34  N 
ATOM      8  CD  PRO B   3      -5.308  15.806  16.459  0.80 35.29 LIG 0.13  C 
ATOM      9  C   GLY B   2      -6.050  13.496  16.957  0.80 34.72 LIG 0.25  C 
ATOM     10  CG  PRO B   3      -4.791  16.403  15.162  0.80 35.32 LIG 0.02  C 
ATOM     11  CB  PRO B   3      -5.665  15.772  14.158  0.80 35.57 LIG 0.04  C 
ATOM     12 O    GLY B   2      -6.441  12.362  16.624  0.80 34.22 LIG-0.27  OA
BRANCH 9 13
ATOM     13  CA  GLY B   2      -5.981  13.864  18.422  0.80 34.38 LIG 0.33  C 
BRANCH 13 14
ATOM     14  N   GLY B   2      -4.683  13.490  18.978  0.80 34.02 LIG-0.07  N 
ATOM     15 H3   GLY B   2      -4.196  13.087  18.352  0.80 34.02 LIG 0.27  HD
ATOM     16 H1   GLY B   2      -4.259  14.220  19.260  0.80 34.02 LIG 0.27  HD
ATOM     17 H2   GLY B   2      -4.802  12.934  19.663  0.80 34.02 LIG 0.27  HD
ENDBRANCH 13 14
ENDBRANCH 9 13
ENDBRANCH 4 6
ENDBRANCH 1 2
BRANCH 1 18
ATOM     18  C   ARG B   4      -1.504  13.758  13.264  0.80 39.25 LIG 0.24  C 
ATOM     19 O    ARG B   4      -1.938  14.882  12.957  0.80 39.33 LIG-0.27  OA
ATOM     20  N   PRO B   5      -0.475  13.174  12.594  0.80 40.23 LIG-0.34  N 
ATOM     21  CA  PRO B   5       0.089  13.798  11.385  0.80 40.82 LIG 0.19  C 
ATOM     22  CD  PRO B   5       0.333  12.000  12.981  0.80 40.52 LIG 0.13  C 
ATOM     23  CB  PRO B   5       1.337  12.944  11.100  0.80 40.82 LIG 0.04  C 
ATOM     24  CG  PRO B   5       1.690  12.360  12.436  0.80 40.73 LIG 0.02  C 
BRANCH 21 25
ATOM     25  C   PRO B   5      -0.905  13.715  10.214  0.80 41.28 LIG 0.20  C 
ATOM     26 O    PRO B   5      -0.881  14.618   9.337  0.80 41.33 LIG-0.65  OA
ATOM     27 OXT  PRO B   5      -1.693  12.734  10.194  0.80 41.80 LIG-0.65  OA
ENDBRANCH 21 25
ENDBRANCH 1 18
BRANCH 1 28
ATOM     28  CB  ARG B   4      -2.249  11.543  14.261  0.80 37.56 LIG 0.04  C 
BRANCH 28 29
ATOM     29  CG  ARG B   4      -2.086  10.626  15.479  0.80 36.72 LIG 0.02  C 
BRANCH 29 30
ATOM     30  CD  ARG B   4      -0.724  10.786  16.129  0.80 36.17 LIG 0.14  C 
BRANCH 30 31
ATOM     31  NE  ARG B   4      -0.799  11.145  17.545  0.80 35.68 LIG-0.23  N 
ATOM     32  CZ  ARG B   4      -1.512  10.482  18.454  0.80 35.42 LIG 0.67  C 
ATOM     33  NH2 ARG B   4      -1.548  10.910  19.709  0.80 34.99 LIG-0.23  N 
ATOM     34  NH1 ARG B   4      -2.215   9.412  18.111  0.80 35.13 LIG-0.23  N 
ATOM     35 22HH ARG B   4      -2.009  10.482  20.297  0.80 34.99 LIG 0.17  HD
ATOM     36 21HH ARG B   4      -1.112  11.615  19.936  0.80 34.99 LIG 0.17  HD
ATOM     37 12HH ARG B   4      -2.673   8.990  18.704  0.80 35.13 LIG 0.17  HD
ATOM     38 11HH ARG B   4      -2.213   9.140  17.295  0.80 35.13 LIG 0.17  HD
ATOM     39 HE   ARG B   4      -0.353  11.831  17.808  0.80 35.68 LIG 0.18  HD
ENDBRANCH 30 31
ENDBRANCH 29 30
ENDBRANCH 28 29
ENDBRANCH 1 28
TORSDOF 10
ENDMDL
MODEL 7
USER: ADFR SOLUTION from run 18
USER: SCORE 13.881969 LL:  -2.134 LR: -12.830 RR:   0.000 FEB:  -9.847
USER: RMSD 5.493813
USER: SEED 781276
USER: STATUS no improvement in best 9 clusters for 5 generations
USER: GENES 12
USER: genes 0 Translation |==|  0.42180 0.47301 0.54144
USER: genes 1 Rotation |==|  0.27907 0.68186 0.49931 0.91002
USER: genes 2 Torsion [C]-CA--N-[C] |==|  0.20385
USER: genes 3 Torsion [N]-C--CA-[N] |==|  0.08856
USER: genes 4 Torsion [N]-C--CA-[N] |==|  0.55943
USER: genes 5 Torsion [C]-CA--N-[H3] |==|  0.42469
USER: genes 6 Torsion [N]-CA--C-[N] |==|  0.26976
USER: genes 7 Torsion [N]-CA--C-[O] |==|  0.99883
USER: genes 8 Torsion [N]-CA--CB-[CG] |==|  0.84491
USER: genes 9 Torsion [CA]-CB--CG-[CD] |==|  0.91696
USER: genes 10 Torsion [CB]-CG--CD-[NE] |==|  0.77460
USER: genes 11 Torsion [CG]-CD--NE-[CZ] |==|  0.41143
ROOT
ATOM      1  CA  ARG B   4      -5.016  12.680  14.233  0.80 38.14 LIG 0.18  C 
ENDROOT
BRANCH 1 2
ATOM      2  N   ARG B   4      -3.606  12.386  14.501  0.80 37.32 LIG-0.35  N 
ATOM      3 H    ARG B   4      -3.411  12.387  15.338  0.80 37.32 LIG 0.16  HD
ATOM      4  C   PRO B   3      -2.704  12.138  13.550  0.80 36.53 LIG 0.24  C 
ATOM      5 O    PRO B   3      -2.971  12.150  12.341  0.80 36.51 LIG-0.27  OA
BRANCH 4 6
ATOM      6  CA  PRO B   3      -1.278  11.856  14.038  0.80 35.73 LIG 0.18  C 
ATOM      7  N   PRO B   3      -1.246  11.189  15.344  0.80 35.22 LIG-0.34  N 
ATOM      8  CD  PRO B   3      -0.961   9.755  15.176  0.80 35.29 LIG 0.13  C 
ATOM      9  C   GLY B   2      -1.396  11.765  16.556  0.80 34.72 LIG 0.25  C 
ATOM     10  CG  PRO B   3      -1.101   9.555  13.676  0.80 35.32 LIG 0.02  C 
ATOM     11  CB  PRO B   3      -0.591  10.831  13.144  0.80 35.57 LIG 0.04  C 
ATOM     12 O    GLY B   2      -1.569  12.988  16.708  0.80 34.22 LIG-0.27  OA
BRANCH 9 13
ATOM     13  CA  GLY B   2      -1.329  10.862  17.767  0.80 34.38 LIG 0.33  C 
BRANCH 13 14
ATOM     14  N   GLY B   2      -1.990  11.493  18.907  0.80 34.02 LIG-0.07  N 
ATOM     15 H3   GLY B   2      -2.295  10.865  19.459  0.80 34.02 LIG 0.27  HD
ATOM     16 H1   GLY B   2      -1.408  12.009  19.339  0.80 34.02 LIG 0.27  HD
ATOM     17 H2   GLY B   2      -2.670  11.990  18.619  0.80 34.02 LIG 0.27  HD
ENDBRANCH 13 14
ENDBRANCH 9 13
ENDBRANCH 4 6
ENDBRANCH 1 2
BRANCH 1 18
ATOM     18  C   ARG B   4      -5.684  11.354  13.809  0.80 39.25 LIG 0.24  C 
ATOM     19 O    ARG B   4      -5.507  10.923  12.657  0.80 39.33 LIG-0.27  OA
ATOM     20  N   PRO B   5      -6.356  10.640  14.751  0.80 40.23 LIG-0.34  N 
ATOM     21  CA  PRO B   5      -7.019   9.372  14.406  0.80 40.82 LIG 0.19  C 
ATOM     22  CD  PRO B   5      -6.420  10.865  16.209  0.80 40.52 LIG 0.13  C 
ATOM     23  CB  PRO B   5      -7.441   8.814  15.777  0.80 40.82 LIG 0.04  C 
ATOM     24  CG  PRO B   5      -6.489   9.456  16.740  0.80 40.73 LIG 0.02  C 
BRANCH 21 25
ATOM     25  C   PRO B   5      -8.249   9.622  13.518  0.80 41.28 LIG 0.20  C 
ATOM     26 O    PRO B   5      -8.540  10.807  13.210  0.80 41.33 LIG-0.65  OA
ATOM     27 OXT  PRO B   5      -8.902   8.615  13.139  0.80 41.80 LIG-0.65  OA
ENDBRANCH 21 25
ENDBRANCH 1 18
BRANCH 1 28
ATOM     28  CB  ARG B   4      -5.142  13.740  13.120  0.80 37.56 LIG 0.04  C 
BRANCH 28 29
ATOM     29  CG  ARG B   4      -4.402  15.060  13.363  0.80 36.72 LIG 0.02  C 
BRANCH 29 30
ATOM     30  CD  ARG B   4      -4.301  15.386  14.842  0.80 36.17 LIG 0.14  C 
BRANCH 30 31
ATOM     31  NE  ARG B   4      -5.517  15.995  15.382  0.80 35.68 LIG-0.23  N 
ATOM     32  CZ  ARG B   4      -5.951  15.834  16.631  0.80 35.42 LIG 0.67  C 
ATOM     33  NH2 ARG B   4      -7.089  16.397  17.016  0.80 34.99 LIG-0.23  N 
ATOM     34  NH1 ARG B   4      -5.270  15.088  17.491  0.80 35.13 LIG-0.23  N 
ATOM     35 22HH ARG B   4      -7.369  16.293  17.823  0.80 34.99 LIG 0.17  HD
ATOM     36 21HH ARG B   4      -7.547  16.865  16.459  0.80 34.99 LIG 0.17  HD
ATOM     37 12HH ARG B   4      -5.557  14.990  18.295  0.80 35.13 LIG 0.17  HD
ATOM     38 11HH ARG B   4      -4.542  14.704  17.243  0.80 35.13 LIG 0.17  HD
ATOM     39 HE   ARG B   4      -5.984  16.490  14.857  0.80 35.68 LIG 0.18  HD
ENDBRANCH 30 31
ENDBRANCH 29 30
ENDBRANCH 28 29
ENDBRANCH 1 28
TORSDOF 10
ENDMDL
MODEL 8
USER: ADFR SOLUTION from run 111
USER: SCORE 15.070244 LL:  -2.545 LR: -12.820 RR:   0.000 FEB:  -9.837
USER: RMSD 6.006762
USER: SEED 110
USER: STATUS no improvement in best 9 clusters for 5 generations
USER: GENES 12
USER: genes 0 Translation |==|  0.52753 0.53445 0.51224
USER: genes 1 Rotation |==|  0.25256 0.76826 0.28464 0.76539
USER: genes 2 Torsion [C]-CA--N-[C] |==|  0.15000
USER: genes 3 Torsion [N]-C--CA-[N] |==|  0.28094
USER: genes 4 Torsion [N]-C--CA-[N] |==|  0.53933
USER: genes 5 Torsion [C]-CA--N-[H3] |==|  0.21556
USER: genes 6 Torsion [N]-CA--C-[N] |==|  0.16627
USER: genes 7 Torsion [N]-CA--C-[O] |==|  0.48435
USER: genes 8 Torsion [N]-CA--CB-[CG] |==|  0.92917
USER: genes 9 Torsion [CA]-CB--CG-[CD] |==|  0.29742
USER: genes 10 Torsion [CB]-CG--CD-[NE] |==|  0.55375
USER: genes 11 Torsion [CG]-CD--NE-[CZ] |==|  0.75563
ROOT
ATOM      1  CA  ARG B   4      -1.844  14.523  13.357  0.80 38.14 LIG 0.18  C 
ENDROOT
BRANCH 1 2
ATOM      2  N   ARG B   4      -1.012  13.493  13.984  0.80 37.32 LIG-0.35  N 
ATOM      3 H    ARG B   4      -0.391  13.814  14.484  0.80 37.32 LIG 0.16  HD
ATOM      4  C   PRO B   3      -1.191  12.183  13.807  0.80 36.53 LIG 0.24  C 
ATOM      5 O    PRO B   3      -2.073  11.710  13.076  0.80 36.51 LIG-0.27  OA
BRANCH 4 6
ATOM      6  CA  PRO B   3      -0.210  11.268  14.549  0.80 35.73 LIG 0.18  C 
ATOM      7  N   PRO B   3      -0.784  10.689  15.768  0.80 35.22 LIG-0.34  N 
ATOM      8  CD  PRO B   3      -1.170   9.288  15.533  0.80 35.29 LIG 0.13  C 
ATOM      9  C   GLY B   2      -0.915  11.289  16.971  0.80 34.72 LIG 0.25  C 
ATOM     10  CG  PRO B   3      -1.048   9.151  14.025  0.80 35.32 LIG 0.02  C 
ATOM     11  CB  PRO B   3       0.100  10.024  13.725  0.80 35.57 LIG 0.04  C 
ATOM     12 O    GLY B   2      -0.527  12.451  17.193  0.80 34.22 LIG-0.27  OA
BRANCH 9 13
ATOM     13  CA  GLY B   2      -1.548  10.484  18.083  0.80 34.38 LIG 0.33  C 
BRANCH 13 14
ATOM     14  N   GLY B   2      -1.920  11.359  19.193  0.80 34.02 LIG-0.07  N 
ATOM     15 H3   GLY B   2      -2.670  11.793  18.991  0.80 34.02 LIG 0.27  HD
ATOM     16 H1   GLY B   2      -2.048  10.870  19.926  0.80 34.02 LIG 0.27  HD
ATOM     17 H2   GLY B   2      -1.268  11.947  19.340  0.80 34.02 LIG 0.27  HD
ENDBRANCH 13 14
ENDBRANCH 9 13
ENDBRANCH 4 6
ENDBRANCH 1 2
BRANCH 1 18
ATOM     18  C   ARG B   4      -3.312  14.200  13.712  0.80 39.25 LIG 0.24  C 
ATOM     19 O    ARG B   4      -4.102  13.881  12.808  0.80 39.33 LIG-0.27  OA
ATOM     20  N   PRO B   5      -3.665  14.165  15.025  0.80 40.23 LIG-0.34  N 
ATOM     21  CA  PRO B   5      -5.050  13.869  15.426  0.80 40.82 LIG 0.19  C 
ATOM     22  CD  PRO B   5      -2.798  14.240  16.218  0.80 40.52 LIG 0.13  C 
ATOM     23  CB  PRO B   5      -4.946  13.712  16.954  0.80 40.82 LIG 0.04  C 
ATOM     24  CG  PRO B   5      -3.514  13.332  17.183  0.80 40.73 LIG 0.02  C 
BRANCH 21 25
ATOM     25  C   PRO B   5      -5.985  15.033  15.061  0.80 41.28 LIG 0.20  C 
ATOM     26 O    PRO B   5      -7.223  14.893  15.240  0.80 41.33 LIG-0.65  OA
ATOM     27 OXT  PRO B   5      -5.454  16.078  14.602  0.80 41.80 LIG-0.65  OA
ENDBRANCH 21 25
ENDBRANCH 1 18
BRANCH 1 28
ATOM     28  CB  ARG B   4      -1.637  14.526  11.829  0.80 37.56 LIG 0.04  C 
BRANCH 28 29
ATOM     29  CG  ARG B   4      -0.289  13.987  11.335  0.80 36.72 LIG 0.02  C 
BRANCH 29 30
ATOM     30  CD  ARG B   4      -0.430  12.621  10.688  0.80 36.17 LIG 0.14  C 
BRANCH 30 31
ATOM     31  NE  ARG B   4       0.832  11.885  10.614  0.80 35.68 LIG-0.23  N 
ATOM     32  CZ  ARG B   4       1.702  11.980   9.610  0.80 35.42 LIG 0.67  C 
ATOM     33  NH2 ARG B   4       2.803  11.240   9.615  0.80 34.99 LIG-0.23  N 
ATOM     34  NH1 ARG B   4       1.464  12.786   8.585  0.80 35.13 LIG-0.23  N 
ATOM     35 22HH ARG B   4       3.366  11.301   8.966  0.80 34.99 LIG 0.17  HD
ATOM     36 21HH ARG B   4       2.956  10.700  10.266  0.80 34.99 LIG 0.17  HD
ATOM     37 12HH ARG B   4       2.031  12.840   7.941  0.80 35.13 LIG 0.17  HD
ATOM     38 11HH ARG B   4       0.743  13.253   8.564  0.80 35.13 LIG 0.17  HD
ATOM     39 HE   ARG B   4       1.025  11.356  11.263  0.80 35.68 LIG 0.18  HD
ENDBRANCH 30 31
ENDBRANCH 29 30
ENDBRANCH 28 29
ENDBRANCH 1 28
TORSDOF 10
ENDMDL
MODEL 9
USER: ADFR SOLUTION from run 98
USER: SCORE 14.415094 LL:  -2.123 LR: -12.675 RR:   0.000 FEB:  -9.692
USER: RMSD 2.825506
USER: SEED 97
USER: STATUS no improvement in best 5 clusters for 5 generations
USER: GENES 12
USER: genes 0 Translation |==|  0.45770 0.51966 0.53148
USER: genes 1 Rotation |==|  0.62217 0.49409 0.54092 0.98308
USER: genes 2 Torsion [C]-CA--N-[C] |==|  0.13335
USER: genes 3 Torsion [N]-C--CA-[N] |==|  0.93596
USER: genes 4 Torsion [N]-C--CA-[N] |==|  0.52873
USER: genes 5 Torsion [C]-CA--N-[H3] |==|  0.88465
USER: genes 6 Torsion [N]-CA--C-[N] |==|  0.17483
USER: genes 7 Torsion [N]-CA--C-[O] |==|  0.93356
USER: genes 8 Torsion [N]-CA--CB-[CG] |==|  0.55428
USER: genes 9 Torsion [CA]-CB--CG-[CD] |==|  0.22085
USER: genes 10 Torsion [CB]-CG--CD-[NE] |==|  0.14493
USER: genes 11 Torsion [CG]-CD--NE-[CZ] |==|  0.73019
ROOT
ATOM      1  CA  ARG B   4      -3.939  14.080  13.934  0.80 38.14 LIG 0.18  C 
ENDROOT
BRANCH 1 2
ATOM      2  N   ARG B   4      -2.832  13.171  14.244  0.80 37.32 LIG-0.35  N 
ATOM      3 H    ARG B   4      -3.088  12.432  14.599  0.80 37.32 LIG 0.16  HD
ATOM      4  C   PRO B   3      -1.550  13.451  14.003  0.80 36.53 LIG 0.24  C 
ATOM      5 O    PRO B   3      -1.170  14.520  13.506  0.80 36.51 LIG-0.27  OA
BRANCH 4 6
ATOM      6  CA  PRO B   3      -0.542  12.367  14.405  0.80 35.73 LIG 0.18  C 
ATOM      7  N   PRO B   3      -1.059  11.468  15.442  0.80 35.22 LIG-0.34  N 
ATOM      8  CD  PRO B   3      -1.474  10.188  14.845  0.80 35.29 LIG 0.13  C 
ATOM      9  C   GLY B   2      -1.119  11.706  16.769  0.80 34.72 LIG 0.25  C 
ATOM     10  CG  PRO B   3      -1.434  10.480  13.355  0.80 35.32 LIG 0.02  C 
ATOM     11  CB  PRO B   3      -0.291  11.405  13.250  0.80 35.57 LIG 0.04  C 
ATOM     12 O    GLY B   2      -0.706  12.760  17.287  0.80 34.22 LIG-0.27  OA
BRANCH 9 13
ATOM     13  CA  GLY B   2      -1.702  10.619  17.644  0.80 34.38 LIG 0.33  C 
BRANCH 13 14
ATOM     14  N   GLY B   2      -1.920  11.121  18.999  0.80 34.02 LIG-0.07  N 
ATOM     15 H3   GLY B   2      -1.228  11.624  19.245  0.80 34.02 LIG 0.27  HD
ATOM     16 H1   GLY B   2      -2.663  11.611  19.019  0.80 34.02 LIG 0.27  HD
ATOM     17 H2   GLY B   2      -2.002  10.436  19.561  0.80 34.02 LIG 0.27  HD
ENDBRANCH 13 14
ENDBRANCH 9 13
ENDBRANCH 4 6
ENDBRANCH 1 2
BRANCH 1 18
ATOM     18  C   ARG B   4      -3.729  14.573  12.487  0.80 39.25 LIG 0.24  C 
ATOM     19 O    ARG B   4      -3.437  15.764  12.284  0.80 39.33 LIG-0.27  OA
ATOM     20  N   PRO B   5      -3.762  13.657  11.482  0.80 40.23 LIG-0.34  N 
ATOM     21  CA  PRO B   5      -3.575  14.067  10.080  0.80 40.82 LIG 0.19  C 
ATOM     22  CD  PRO B   5      -3.815  12.184  11.575  0.80 40.52 LIG 0.13  C 
ATOM     23  CB  PRO B   5      -3.461  12.725   9.335  0.80 40.82 LIG 0.04  C 
ATOM     24  CG  PRO B   5      -2.990  11.765  10.386  0.80 40.73 LIG 0.02  C 
BRANCH 21 25
ATOM     25  C   PRO B   5      -4.789  14.866   9.579  0.80 41.28 LIG 0.20  C 
ATOM     26 O    PRO B   5      -5.900  14.699  10.148  0.80 41.33 LIG-0.65  OA
ATOM     27 OXT  PRO B   5      -4.603  15.657   8.618  0.80 41.80 LIG-0.65  OA
ENDBRANCH 21 25
ENDBRANCH 1 18
BRANCH 1 28
ATOM     28  CB  ARG B   4      -3.955  15.264  14.921  0.80 37.56 LIG 0.04  C 
BRANCH 28 29
ATOM     29  CG  ARG B   4      -5.280  16.028  15.031  0.80 36.72 LIG 0.02  C 
BRANCH 29 30
ATOM     30  CD  ARG B   4      -6.280  15.302  15.912  0.80 36.17 LIG 0.14  C 
BRANCH 30 31
ATOM     31  NE  ARG B   4      -5.740  14.946  17.223  0.80 35.68 LIG-0.23  N 
ATOM     32  CZ  ARG B   4      -5.239  13.751  17.534  0.80 35.42 LIG 0.67  C 
ATOM     33  NH2 ARG B   4      -4.808  13.512  18.766  0.80 34.99 LIG-0.23  N 
ATOM     34  NH1 ARG B   4      -5.195  12.782  16.630  0.80 35.13 LIG-0.23  N 
ATOM     35 22HH ARG B   4      -4.485  12.740  18.966  0.80 34.99 LIG 0.17  HD
ATOM     36 21HH ARG B   4      -4.851  14.128  19.364  0.80 34.99 LIG 0.17  HD
ATOM     37 12HH ARG B   4      -4.871  12.014  16.839  0.80 35.13 LIG 0.17  HD
ATOM     38 11HH ARG B   4      -5.491  12.923  15.835  0.80 35.13 LIG 0.17  HD
ATOM     39 HE   ARG B   4      -5.745  15.548  17.836  0.80 35.68 LIG 0.18  HD
ENDBRANCH 30 31
ENDBRANCH 29 30
ENDBRANCH 28 29
ENDBRANCH 1 28
TORSDOF 10
ENDMDL
MODEL 10
USER: ADFR SOLUTION from run 131
USER: SCORE 14.665502 LL:  -2.662 LR: -12.569 RR:   0.000 FEB:  -9.586
USER: RMSD 4.595547
USER: SEED 130
USER: STATUS no improvement in best 7 clusters for 5 generations
USER: GENES 12
USER: genes 0 Translation |==|  0.59274 0.49829 0.45234
USER: genes 1 Rotation |==|  0.30896 0.73143 0.19617 0.76005
USER: genes 2 Torsion [C]-CA--N-[C] |==|  0.84444
USER: genes 3 Torsion [N]-C--CA-[N] |==|  0.58486
USER: genes 4 Torsion [N]-C--CA-[N] |==|  0.44993
USER: genes 5 Torsion [C]-CA--N-[H3] |==|  0.98654
USER: genes 6 Torsion [N]-CA--C-[N] |==|  0.29794
USER: genes 7 Torsion [N]-CA--C-[O] |==|  0.44464
USER: genes 8 Torsion [N]-CA--CB-[CG] |==|  0.37776
USER: genes 9 Torsion [CA]-CB--CG-[CD] |==|  0.66834
USER: genes 10 Torsion [CB]-CG--CD-[NE] |==|  0.25473
USER: genes 11 Torsion [CG]-CD--NE-[CZ] |==|  0.74616
ROOT
ATOM      1  CA  ARG B   4       0.112  13.439  11.560  0.80 38.14 LIG 0.18  C 
ENDROOT
BRANCH 1 2
ATOM      2  N   ARG B   4       0.403  12.385  12.536  0.80 37.32 LIG-0.35  N 
ATOM      3 H    ARG B   4       0.930  11.777  12.234  0.80 37.32 LIG 0.16  HD
ATOM      4  C   PRO B   3      -0.093  12.360  13.774  0.80 36.53 LIG 0.24  C 
ATOM      5 O    PRO B   3      -0.866  13.223  14.214  0.80 36.51 LIG-0.27  OA
BRANCH 4 6
ATOM      6  CA  PRO B   3       0.330  11.168  14.640  0.80 35.73 LIG 0.18  C 
ATOM      7  N   PRO B   3      -0.694  10.784  15.618  0.80 35.22 LIG-0.34  N 
ATOM      8  CD  PRO B   3      -1.412   9.584  15.158  0.80 35.29 LIG 0.13  C 
ATOM      9  C   GLY B   2      -0.947  11.376  16.805  0.80 34.72 LIG 0.25  C 
ATOM     10  CG  PRO B   3      -0.945   9.440  13.720  0.80 35.32 LIG 0.02  C 
ATOM     11  CB  PRO B   3       0.451   9.903  13.798  0.80 35.57 LIG 0.04  C 
ATOM     12 O    GLY B   2      -0.297  12.348  17.229  0.80 34.22 LIG-0.27  OA
BRANCH 9 13
ATOM     13  CA  GLY B   2      -2.065  10.798  17.643  0.80 34.38 LIG 0.33  C 
BRANCH 13 14
ATOM     14  N   GLY B   2      -1.941  11.244  19.030  0.80 34.02 LIG-0.07  N 
ATOM     15 H3   GLY B   2      -1.191  11.712  19.125  0.80 34.02 LIG 0.27  HD
ATOM     16 H1   GLY B   2      -2.639  11.754  19.241  0.80 34.02 LIG 0.27  HD
ATOM     17 H2   GLY B   2      -1.919  10.536  19.569  0.80 34.02 LIG 0.27  HD
ENDBRANCH 13 14
ENDBRANCH 9 13
ENDBRANCH 4 6
ENDBRANCH 1 2
BRANCH 1 18
ATOM     18  C   ARG B   4      -1.423  13.508  11.412  0.80 39.25 LIG 0.24  C 
ATOM     19 O    ARG B   4      -2.030  12.555  10.895  0.80 39.33 LIG-0.27  OA
ATOM     20  N   PRO B   5      -2.077  14.568  11.957  0.80 40.23 LIG-0.34  N 
ATOM     21  CA  PRO B   5      -3.539  14.694  11.843  0.80 40.82 LIG 0.19  C 
ATOM     22  CD  PRO B   5      -1.545  15.629  12.837  0.80 40.52 LIG 0.13  C 
ATOM     23  CB  PRO B   5      -3.862  15.880  12.770  0.80 40.82 LIG 0.04  C 
ATOM     24  CG  PRO B   5      -2.719  15.904  13.740  0.80 40.73 LIG 0.02  C 
BRANCH 21 25
ATOM     25  C   PRO B   5      -3.949  15.008  10.395  0.80 41.28 LIG 0.20  C 
ATOM     26 O    PRO B   5      -5.134  14.777  10.038  0.80 41.33 LIG-0.65  OA
ATOM     27 OXT  PRO B   5      -3.067  15.489   9.637  0.80 41.80 LIG-0.65  OA
ENDBRANCH 21 25
ENDBRANCH 1 18
BRANCH 1 28
ATOM     28  CB  ARG B   4       0.781  13.119  10.208  0.80 37.56 LIG 0.04  C 
BRANCH 28 29
ATOM     29  CG  ARG B   4      -0.085  13.344   8.962  0.80 36.72 LIG 0.02  C 
BRANCH 29 30
ATOM     30  CD  ARG B   4      -0.287  12.062   8.175  0.80 36.17 LIG 0.14  C 
BRANCH 30 31
ATOM     31  NE  ARG B   4      -1.489  11.327   8.569  0.80 35.68 LIG-0.23  N 
ATOM     32  CZ  ARG B   4      -1.521  10.378   9.503  0.80 35.42 LIG 0.67  C 
ATOM     33  NH2 ARG B   4      -2.655   9.740   9.762  0.80 34.99 LIG-0.23  N 
ATOM     34  NH1 ARG B   4      -0.420  10.040  10.159  0.80 35.13 LIG-0.23  N 
ATOM     35 22HH ARG B   4      -2.676   9.127  10.365  0.80 34.99 LIG 0.17  HD
ATOM     36 21HH ARG B   4      -3.369   9.939   9.327  0.80 34.99 LIG 0.17  HD
ATOM     37 12HH ARG B   4      -0.450   9.426  10.761  0.80 35.13 LIG 0.17  HD
ATOM     38 11HH ARG B   4       0.323  10.435   9.983  0.80 35.13 LIG 0.17  HD
ATOM     39 HE   ARG B   4      -2.225  11.521   8.170  0.80 35.68 LIG 0.18  HD
ENDBRANCH 30 31
ENDBRANCH 29 30
ENDBRANCH 28 29
ENDBRANCH 1 28
TORSDOF 10
ENDMDL
MODEL 11
USER: ADFR SOLUTION from run 47
USER: SCORE 14.335834 LL:  -1.952 LR: -12.460 RR:   0.000 FEB:  -9.477
USER: RMSD 7.844765
USER: SEED 46
USER: STATUS no improvement in best 6 clusters for 5 generations
USER: GENES 12
USER: genes 0 Translation |==|  0.38681 0.39525 0.51396
USER: genes 1 Rotation |==|  0.21003 0.27557 0.20990 0.67719
USER: genes 2 Torsion [C]-CA--N-[C] |==|  0.75643
USER: genes 3 Torsion [N]-C--CA-[N] |==|  0.11278
USER: genes 4 Torsion [N]-C--CA-[N] |==|  0.44160
USER: genes 5 Torsion [C]-CA--N-[H3] |==|  0.80023
USER: genes 6 Torsion [N]-CA--C-[N] |==|  0.44907
USER: genes 7 Torsion [N]-CA--C-[O] |==|  0.43844
USER: genes 8 Torsion [N]-CA--CB-[CG] |==|  0.94303
USER: genes 9 Torsion [CA]-CB--CG-[CD] |==|  0.43782
USER: genes 10 Torsion [CB]-CG--CD-[NE] |==|  0.66546
USER: genes 11 Torsion [CG]-CD--NE-[CZ] |==|  0.58392
ROOT
ATOM      1  CA  ARG B   4      -6.066  10.348  13.409  0.80 38.14 LIG 0.18  C 
ENDROOT
BRANCH 1 2
ATOM      2  N   ARG B   4      -6.652  11.412  14.228  0.80 37.32 LIG-0.35  N 
ATOM      3 H    ARG B   4      -6.277  11.494  14.997  0.80 37.32 LIG 0.16  HD
ATOM      4  C   PRO B   3      -7.664  12.184  13.832  0.80 36.53 LIG 0.24  C 
ATOM      5 O    PRO B   3      -8.221  12.063  12.731  0.80 36.51 LIG-0.27  OA
BRANCH 4 6
ATOM      6  CA  PRO B   3      -8.135  13.239  14.840  0.80 35.73 LIG 0.18  C 
ATOM      7  N   PRO B   3      -7.024  13.889  15.543  0.80 35.22 LIG-0.34  N 
ATOM      8  CD  PRO B   3      -6.780  15.227  14.980  0.80 35.29 LIG 0.13  C 
ATOM      9  C   GLY B   2      -6.328  13.401  16.592  0.80 34.72 LIG 0.25  C 
ATOM     10  CG  PRO B   3      -7.627  15.225  13.719  0.80 35.32 LIG 0.02  C 
ATOM     11  CB  PRO B   3      -8.789  14.416  14.127  0.80 35.57 LIG 0.04  C 
ATOM     12 O    GLY B   2      -6.575  12.300  17.115  0.80 34.22 LIG-0.27  OA
BRANCH 9 13
ATOM     13  CA  GLY B   2      -5.214  14.261  17.146  0.80 34.38 LIG 0.33  C 
BRANCH 13 14
ATOM     14  N   GLY B   2      -4.903  13.865  18.518  0.80 34.02 LIG-0.07  N 
ATOM     15 H3   GLY B   2      -5.562  14.122  19.058  0.80 34.02 LIG 0.27  HD
ATOM     16 H1   GLY B   2      -4.814  12.981  18.558  0.80 34.02 LIG 0.27  HD
ATOM     17 H2   GLY B   2      -4.143  14.251  18.773  0.80 34.02 LIG 0.27  HD
ENDBRANCH 13 14
ENDBRANCH 9 13
ENDBRANCH 4 6
ENDBRANCH 1 2
BRANCH 1 18
ATOM     18  C   ARG B   4      -6.882   9.065  13.680  0.80 39.25 LIG 0.24  C 
ATOM     19 O    ARG B   4      -7.668   9.034  14.642  0.80 39.33 LIG-0.27  OA
ATOM     20  N   PRO B   5      -6.796   8.045  12.785  0.80 40.23 LIG-0.34  N 
ATOM     21  CA  PRO B   5      -7.545   6.794  12.992  0.80 40.82 LIG 0.19  C 
ATOM     22  CD  PRO B   5      -6.139   8.028  11.463  0.80 40.52 LIG 0.13  C 
ATOM     23  CB  PRO B   5      -7.339   6.039  11.667  0.80 40.82 LIG 0.04  C 
ATOM     24  CG  PRO B   5      -7.049   7.123  10.673  0.80 40.73 LIG 0.02  C 
BRANCH 21 25
ATOM     25  C   PRO B   5      -6.960   5.996  14.169  0.80 41.28 LIG 0.20  C 
ATOM     26 O    PRO B   5      -7.692   5.152  14.750  0.80 41.33 LIG-0.65  OA
ATOM     27 OXT  PRO B   5      -5.766   6.230  14.488  0.80 41.80 LIG-0.65  OA
ENDBRANCH 21 25
ENDBRANCH 1 18
BRANCH 1 28
ATOM     28  CB  ARG B   4      -4.582  10.142  13.775  0.80 37.56 LIG 0.04  C 
BRANCH 28 29
ATOM     29  CG  ARG B   4      -3.898  11.316  14.486  0.80 36.72 LIG 0.02  C 
BRANCH 29 30
ATOM     30  CD  ARG B   4      -2.680  10.867  15.272  0.80 36.17 LIG 0.14  C 
BRANCH 30 31
ATOM     31  NE  ARG B   4      -2.776  11.163  16.701  0.80 35.68 LIG-0.23  N 
ATOM     32  CZ  ARG B   4      -1.734  11.420  17.491  0.80 35.42 LIG 0.67  C 
ATOM     33  NH2 ARG B   4      -1.920  11.638  18.786  0.80 34.99 LIG-0.23  N 
ATOM     34  NH1 ARG B   4      -0.502  11.428  16.999  0.80 35.13 LIG-0.23  N 
ATOM     35 22HH ARG B   4      -1.247  11.804  19.295  0.80 34.99 LIG 0.17  HD
ATOM     36 21HH ARG B   4      -2.713  11.615  19.116  0.80 34.99 LIG 0.17  HD
ATOM     37 12HH ARG B   4       0.165  11.595  17.516  0.80 35.13 LIG 0.17  HD
ATOM     38 11HH ARG B   4      -0.371  11.267  16.165  0.80 35.13 LIG 0.17  HD
ATOM     39 HE   ARG B   4      -3.558  11.172  17.057  0.80 35.68 LIG 0.18  HD
ENDBRANCH 30 31
ENDBRANCH 29 30
ENDBRANCH 28 29
ENDBRANCH 1 28
TORSDOF 10
ENDMDL
