MODEL 1
USER: ADFR SOLUTION from run 55
USER: SCORE 15.704953 LL:  -2.202 LR: -14.110 RR:   0.000 FEB:  -9.337
USER: RMSD 8.872042
USER: SEED 54
USER: STATUS 1 or 2 clusters left
USER: GENES 18
USER: genes 0 Translation |==|  0.56047 0.58272 0.48378
USER: genes 1 Rotation |==|  0.11069 0.79051 0.39276 0.55040
USER: genes 2 Torsion [N]-C--CA-[N] |==|  0.11598
USER: genes 3 Torsion [C]-CA--CB-[CG2] |==|  0.41310
USER: genes 4 Torsion [CA]-CB--CG1-[CD1] |==|  0.69480
USER: genes 5 Torsion [C]-CA--N-[C] |==|  0.61381
USER: genes 6 Torsion [N]-C--CA-[N] |==|  0.01457
USER: genes 7 Torsion [C]-CA--CB-[CG1] |==|  0.88189
USER: genes 8 Torsion [C]-CA--N-[H2] |==|  0.45625
USER: genes 9 Torsion [C]-N--CA-[CB] |==|  0.84391
USER: genes 10 Torsion [N]-CA--C-[N] |==|  0.97222
USER: genes 11 Torsion [C]-N--CA-[CB] |==|  0.70945
USER: genes 12 Torsion [N]-CA--CB-[CG] |==|  0.00129
USER: genes 13 Torsion [CA]-CB--CG-[CD] |==|  0.71804
USER: genes 14 Torsion [CB]-CG--CD-[CE] |==|  0.92270
USER: genes 15 Torsion [CG]-CD--CE-[NZ] |==|  0.51945
USER: genes 16 Torsion [CD]-CE--NZ-[HZ3] |==|  0.68775
USER: genes 17 Torsion [N]-CA--C-[O] |==|  0.33687
ROOT
ATOM      1  C   ILE P   2       7.564  23.292  -6.167  1.00 41.40 LIG 0.24  C 
ATOM      2 O    ILE P   2       7.880  22.254  -5.565  1.00 41.61 LIG-0.27  OA
ATOM      3  N   ALA P   3       6.318  23.718  -6.370  1.00 41.46 LIG-0.35  N 
ATOM      4 H    ALA P   3       6.172  24.474  -6.754  1.00 41.46 LIG 0.16  HD
ENDROOT
BRANCH 1 5
ATOM      5  CA  ILE P   2       8.594  24.228  -6.788  1.00 41.22 LIG 0.18  C 
BRANCH 5 6
ATOM      6  CB  ILE P   2       9.893  23.840  -6.103  1.00 41.07 LIG 0.01  C 
ATOM      7  CG2 ILE P   2      11.077  24.050  -7.035  1.00 40.92 LIG 0.01  C 
BRANCH 6 8
ATOM      8  CG1 ILE P   2      10.057  24.657  -4.830  1.00 41.09 LIG 0.00  C 
ATOM      9  CD1 ILE P   2      11.161  25.685  -4.907  1.00 41.85 LIG 0.01  C 
ENDBRANCH 6 8
ENDBRANCH 5 6
BRANCH 5 10
ATOM     10  N   ILE P   2       8.435  25.665  -6.684  1.00 40.98 LIG-0.35  N 
ATOM     11  C   VAL P   1       8.738  26.320  -7.796  1.00 40.89 LIG 0.25  C 
ATOM     12 O    VAL P   1       8.998  25.746  -8.851  1.00 40.76 LIG-0.27  OA
ATOM     13 H    ILE P   2       8.164  25.989  -5.935  1.00 40.98 LIG 0.16  HD
BRANCH 11 14
ATOM     14  CA  VAL P   1       8.745  27.848  -7.768  1.00 40.81 LIG 0.28  C 
BRANCH 14 15
ATOM     15  CB  VAL P   1      10.073  28.372  -8.329  1.00 40.75 LIG 0.02  C 
ATOM     16  CG1 VAL P   1      11.237  27.551  -7.800  1.00 40.27 LIG 0.01  C 
ATOM     17  CG2 VAL P   1      10.067  28.342  -9.851  1.00 40.35 LIG 0.01  C 
ENDBRANCH 14 15
BRANCH 14 18
ATOM     18  N   VAL P   1       8.519  28.356  -6.430  1.00 41.10 LIG-0.07  N 
ATOM     19 H1   VAL P   1       9.009  27.893  -5.850  1.00 41.10 LIG 0.28  HD
ATOM     20 H3   VAL P   1       7.657  28.272  -6.222  1.00 41.10 LIG 0.28  HD
ATOM     21 H2   VAL P   1       8.750  29.215  -6.395  1.00 41.10 LIG 0.28  HD
ENDBRANCH 14 18
ENDBRANCH 11 14
ENDBRANCH 5 10
ENDBRANCH 1 5
BRANCH 3 22
ATOM     22  CA  ALA P   3       5.074  23.056  -6.018  1.00 41.49 LIG 0.17  C 
ATOM     23  CB  ALA P   3       5.064  21.677  -6.661  1.00 41.44 LIG 0.04  C 
BRANCH 22 24
ATOM     24  C   ALA P   3       4.739  22.938  -4.547  1.00 41.37 LIG 0.24  C 
ATOM     25 O    ALA P   3       3.650  22.543  -4.132  1.00 41.45 LIG-0.27  OA
ATOM     26  N   LYS P   4       5.776  23.289  -3.752  1.00 41.15 LIG-0.35  N 
ATOM     27 H    LYS P   4       6.545  23.469  -4.092  1.00 41.15 LIG 0.16  HD
BRANCH 26 28
ATOM     28  CA  LYS P   4       5.799  23.419  -2.315  1.00 40.89 LIG 0.16  C 
BRANCH 28 29
ATOM     29  CB  LYS P   4       5.791  24.919  -1.998  1.00 40.64 LIG 0.03  C 
BRANCH 29 30
ATOM     30  CG  LYS P   4       5.751  25.804  -3.236  1.00 49.46 LIG 0.00  C 
BRANCH 30 31
ATOM     31  CD  LYS P   4       7.118  26.378  -3.570  1.00 47.65 LIG 0.03  C 
BRANCH 31 32
ATOM     32  CE  LYS P   4       8.017  26.538  -2.351  1.00 46.32 LIG 0.23  C 
BRANCH 32 33
ATOM     33  NZ  LYS P   4       9.277  27.252  -2.680  1.00 44.97 LIG-0.08  N 
ATOM     34 HZ3  LYS P   4       9.964  26.692  -2.604  1.00 44.97 LIG 0.27  HD
ATOM     35 HZ1  LYS P   4       9.235  27.558  -3.515  1.00 44.97 LIG 0.27  HD
ATOM     36 HZ2  LYS P   4       9.387  27.934  -2.119  1.00 44.97 LIG 0.27  HD
ENDBRANCH 32 33
ENDBRANCH 31 32
ENDBRANCH 30 31
ENDBRANCH 29 30
ENDBRANCH 28 29
BRANCH 28 37
ATOM     37  C   LYS P   4       4.625  22.721  -1.636  1.00 40.96 LIG 0.22  C 
ATOM     38 O    LYS P   4       4.822  21.836  -0.806  1.00 40.89 LIG-0.29  OA
ENDBRANCH 28 37
ENDBRANCH 26 28
ENDBRANCH 22 24
ENDBRANCH 3 22
TORSDOF 16
ENDMDL
MODEL 2
USER: ADFR SOLUTION from run 9
USER: SCORE 15.049860 LL:  -2.330 LR: -13.357 RR:   0.000 FEB:  -8.584
USER: RMSD 9.093910
USER: SEED 73129
USER: STATUS no improvement in best 5 clusters for 5 generations
USER: GENES 18
USER: genes 0 Translation |==|  0.54432 0.59107 0.54078
USER: genes 1 Rotation |==|  0.14072 0.72833 0.34929 0.71463
USER: genes 2 Torsion [N]-C--CA-[N] |==|  0.94083
USER: genes 3 Torsion [C]-CA--CB-[CG2] |==|  0.51956
USER: genes 4 Torsion [CA]-CB--CG1-[CD1] |==|  0.33172
USER: genes 5 Torsion [C]-CA--N-[C] |==|  0.81550
USER: genes 6 Torsion [N]-C--CA-[N] |==|  0.06034
USER: genes 7 Torsion [C]-CA--CB-[CG1] |==|  0.52053
USER: genes 8 Torsion [C]-CA--N-[H2] |==|  0.76296
USER: genes 9 Torsion [C]-N--CA-[CB] |==|  0.79384
USER: genes 10 Torsion [N]-CA--C-[N] |==|  0.78946
USER: genes 11 Torsion [C]-N--CA-[CB] |==|  0.24782
USER: genes 12 Torsion [N]-CA--CB-[CG] |==|  0.37325
USER: genes 13 Torsion [CA]-CB--CG-[CD] |==|  0.32724
USER: genes 14 Torsion [CB]-CG--CD-[CE] |==|  0.44575
USER: genes 15 Torsion [CG]-CD--CE-[NZ] |==|  0.15677
USER: genes 16 Torsion [CD]-CE--NZ-[HZ3] |==|  0.36790
USER: genes 17 Torsion [N]-CA--C-[O] |==|  0.85249
ROOT
ATOM      1  C   ILE P   2       7.080  23.542  -4.457  1.00 41.40 LIG 0.24  C 
ATOM      2 O    ILE P   2       7.392  22.397  -4.095  1.00 41.61 LIG-0.27  OA
ATOM      3  N   ALA P   3       6.028  23.854  -5.213  1.00 41.46 LIG-0.35  N 
ATOM      4 H    ALA P   3       5.842  24.676  -5.386  1.00 41.46 LIG 0.16  HD
ENDROOT
BRANCH 1 5
ATOM      5  CA  ILE P   2       7.899  24.773  -4.086  1.00 41.22 LIG 0.18  C 
BRANCH 5 6
ATOM      6  CB  ILE P   2       7.445  25.094  -2.673  1.00 41.07 LIG 0.01  C 
ATOM      7  CG2 ILE P   2       8.042  26.413  -2.202  1.00 40.92 LIG 0.01  C 
BRANCH 6 8
ATOM      8  CG1 ILE P   2       5.924  25.145  -2.628  1.00 41.09 LIG 0.00  C 
ATOM      9  CD1 ILE P   2       5.311  24.133  -1.690  1.00 41.85 LIG 0.01  C 
ENDBRANCH 6 8
ENDBRANCH 5 6
BRANCH 5 10
ATOM     10  N   ILE P   2       7.805  25.981  -4.881  1.00 40.98 LIG-0.35  N 
ATOM     11  C   VAL P   1       8.281  25.851  -6.112  1.00 40.89 LIG 0.25  C 
ATOM     12 O    VAL P   1       8.642  24.769  -6.570  1.00 40.76 LIG-0.27  OA
ATOM     13 H    ILE P   2       7.460  26.680  -4.519  1.00 40.98 LIG 0.16  HD
BRANCH 11 14
ATOM     14  CA  VAL P   1       8.366  27.092  -7.000  1.00 40.81 LIG 0.28  C 
BRANCH 14 15
ATOM     15  CB  VAL P   1       9.613  27.007  -7.892  1.00 40.75 LIG 0.02  C 
ATOM     16  CG1 VAL P   1       9.816  28.308  -8.650  1.00 40.27 LIG 0.01  C 
ATOM     17  CG2 VAL P   1      10.850  26.690  -7.064  1.00 40.35 LIG 0.01  C 
ENDBRANCH 14 15
BRANCH 14 18
ATOM     18  N   VAL P   1       8.382  28.308  -6.213  1.00 41.10 LIG-0.07  N 
ATOM     19 H1   VAL P   1       8.786  28.954  -6.673  1.00 41.10 LIG 0.28  HD
ATOM     20 H3   VAL P   1       8.823  28.165  -5.454  1.00 41.10 LIG 0.28  HD
ATOM     21 H2   VAL P   1       7.546  28.553  -6.029  1.00 41.10 LIG 0.28  HD
ENDBRANCH 14 18
ENDBRANCH 11 14
ENDBRANCH 5 10
ENDBRANCH 1 5
BRANCH 3 22
ATOM     22  CA  ALA P   3       5.074  22.954  -5.839  1.00 41.49 LIG 0.17  C 
ATOM     23  CB  ALA P   3       5.749  22.291  -7.031  1.00 41.44 LIG 0.04  C 
BRANCH 22 24
ATOM     24  C   ALA P   3       4.430  21.902  -4.964  1.00 41.37 LIG 0.24  C 
ATOM     25 O    ALA P   3       3.265  21.970  -4.571  1.00 41.45 LIG-0.27  OA
ATOM     26  N   LYS P   4       5.268  20.876  -4.688  1.00 41.15 LIG-0.35  N 
ATOM     27 H    LYS P   4       6.041  20.832  -5.063  1.00 41.15 LIG 0.16  HD
BRANCH 26 28
ATOM     28  CA  LYS P   4       5.056  19.761  -3.799  1.00 40.89 LIG 0.16  C 
BRANCH 28 29
ATOM     29  CB  LYS P   4       4.392  18.649  -4.619  1.00 40.64 LIG 0.03  C 
BRANCH 29 30
ATOM     30  CG  LYS P   4       5.006  17.275  -4.393  1.00 49.46 LIG 0.00  C 
BRANCH 30 31
ATOM     31  CD  LYS P   4       4.006  16.293  -3.804  1.00 47.65 LIG 0.03  C 
BRANCH 31 32
ATOM     32  CE  LYS P   4       4.407  14.837  -3.997  1.00 46.32 LIG 0.23  C 
BRANCH 32 33
ATOM     33  NZ  LYS P   4       5.750  14.551  -3.431  1.00 44.97 LIG-0.08  N 
ATOM     34 HZ3  LYS P   4       5.713  13.811  -2.939  1.00 44.97 LIG 0.27  HD
ATOM     35 HZ1  LYS P   4       6.333  14.438  -4.093  1.00 44.97 LIG 0.27  HD
ATOM     36 HZ2  LYS P   4       6.009  15.234  -2.921  1.00 44.97 LIG 0.27  HD
ENDBRANCH 32 33
ENDBRANCH 31 32
ENDBRANCH 30 31
ENDBRANCH 29 30
ENDBRANCH 28 29
BRANCH 28 37
ATOM     37  C   LYS P   4       6.345  19.256  -3.158  1.00 40.96 LIG 0.22  C 
ATOM     38 O    LYS P   4       7.313  18.959  -3.855  1.00 40.89 LIG-0.29  OA
ENDBRANCH 28 37
ENDBRANCH 26 28
ENDBRANCH 22 24
ENDBRANCH 3 22
TORSDOF 16
ENDMDL
MODEL 3
USER: ADFR SOLUTION from run 108
USER: SCORE 15.379264 LL:  -2.264 LR: -13.203 RR:   0.000 FEB:  -8.431
USER: RMSD 9.167365
USER: SEED 107
USER: STATUS no improvement in best 5 clusters for 5 generations
USER: GENES 18
USER: genes 0 Translation |==|  0.54403 0.61453 0.54881
USER: genes 1 Rotation |==|  0.12323 0.72713 0.39254 0.71193
USER: genes 2 Torsion [N]-C--CA-[N] |==|  0.88341
USER: genes 3 Torsion [C]-CA--CB-[CG2] |==|  0.03910
USER: genes 4 Torsion [CA]-CB--CG1-[CD1] |==|  0.62721
USER: genes 5 Torsion [C]-CA--N-[C] |==|  0.84134
USER: genes 6 Torsion [N]-C--CA-[N] |==|  0.03520
USER: genes 7 Torsion [C]-CA--CB-[CG1] |==|  0.22663
USER: genes 8 Torsion [C]-CA--N-[H2] |==|  0.44050
USER: genes 9 Torsion [C]-N--CA-[CB] |==|  0.83871
USER: genes 10 Torsion [N]-CA--C-[N] |==|  0.90567
USER: genes 11 Torsion [C]-N--CA-[CB] |==|  0.32177
USER: genes 12 Torsion [N]-CA--CB-[CG] |==|  0.95026
USER: genes 13 Torsion [CA]-CB--CG-[CD] |==|  0.79430
USER: genes 14 Torsion [CB]-CG--CD-[CE] |==|  0.66718
USER: genes 15 Torsion [CG]-CD--CE-[NZ] |==|  0.13158
USER: genes 16 Torsion [CD]-CE--NZ-[HZ3] |==|  0.14190
USER: genes 17 Torsion [N]-CA--C-[O] |==|  0.34665
ROOT
ATOM      1  C   ILE P   2       7.071  24.246  -4.216  1.00 41.40 LIG 0.24  C 
ATOM      2 O    ILE P   2       7.550  23.131  -3.959  1.00 41.61 LIG-0.27  OA
ATOM      3  N   ALA P   3       5.892  24.465  -4.796  1.00 41.46 LIG-0.35  N 
ATOM      4 H    ALA P   3       5.598  25.267  -4.900  1.00 41.46 LIG 0.16  HD
ENDROOT
BRANCH 1 5
ATOM      5  CA  ILE P   2       7.805  25.547  -3.911  1.00 41.22 LIG 0.18  C 
BRANCH 5 6
ATOM      6  CB  ILE P   2       7.136  26.047  -2.642  1.00 41.07 LIG 0.01  C 
ATOM      7  CG2 ILE P   2       6.298  24.947  -2.006  1.00 40.92 LIG 0.01  C 
BRANCH 6 8
ATOM      8  CG1 ILE P   2       8.198  26.544  -1.671  1.00 41.09 LIG 0.00  C 
ATOM      9  CD1 ILE P   2       7.999  26.059  -0.255  1.00 41.85 LIG 0.01  C 
ENDBRANCH 6 8
ENDBRANCH 5 6
BRANCH 5 10
ATOM     10  N   ILE P   2       7.815  26.626  -4.877  1.00 40.98 LIG-0.35  N 
ATOM     11  C   VAL P   1       8.302  26.281  -6.061  1.00 40.89 LIG 0.25  C 
ATOM     12 O    VAL P   1       8.589  25.120  -6.344  1.00 40.76 LIG-0.27  OA
ATOM     13 H    ILE P   2       7.516  27.394  -4.631  1.00 40.98 LIG 0.16  HD
BRANCH 11 14
ATOM     14  CA  VAL P   1       8.494  27.366  -7.120  1.00 40.81 LIG 0.28  C 
BRANCH 14 15
ATOM     15  CB  VAL P   1       9.857  27.190  -7.803  1.00 40.75 LIG 0.02  C 
ATOM     16  CG1 VAL P   1       9.779  26.126  -8.885  1.00 40.27 LIG 0.01  C 
ATOM     17  CG2 VAL P   1      10.337  28.504  -8.401  1.00 40.35 LIG 0.01  C 
ENDBRANCH 14 15
BRANCH 14 18
ATOM     18  N   VAL P   1       8.375  28.692  -6.549  1.00 41.10 LIG-0.07  N 
ATOM     19 H1   VAL P   1       8.754  28.704  -5.745  1.00 41.10 LIG 0.28  HD
ATOM     20 H3   VAL P   1       7.515  28.907  -6.474  1.00 41.10 LIG 0.28  HD
ATOM     21 H2   VAL P   1       8.782  29.281  -7.078  1.00 41.10 LIG 0.28  HD
ENDBRANCH 14 18
ENDBRANCH 11 14
ENDBRANCH 5 10
ENDBRANCH 1 5
BRANCH 3 22
ATOM     22  CA  ALA P   3       4.952  23.488  -5.318  1.00 41.49 LIG 0.17  C 
ATOM     23  CB  ALA P   3       5.661  22.658  -6.379  1.00 41.44 LIG 0.04  C 
BRANCH 22 24
ATOM     24  C   ALA P   3       4.272  22.574  -4.323  1.00 41.37 LIG 0.24  C 
ATOM     25 O    ALA P   3       3.125  22.149  -4.470  1.00 41.45 LIG-0.27  OA
ATOM     26  N   LYS P   4       5.073  22.260  -3.278  1.00 41.15 LIG-0.35  N 
ATOM     27 H    LYS P   4       5.896  22.508  -3.270  1.00 41.15 LIG 0.16  HD
BRANCH 26 28
ATOM     28  CA  LYS P   4       4.740  21.521  -2.085  1.00 40.89 LIG 0.16  C 
BRANCH 28 29
ATOM     29  CB  LYS P   4       5.578  20.237  -2.101  1.00 40.64 LIG 0.03  C 
BRANCH 29 30
ATOM     30  CG  LYS P   4       6.142  19.895  -3.473  1.00 49.46 LIG 0.00  C 
BRANCH 30 31
ATOM     31  CD  LYS P   4       5.072  19.360  -4.411  1.00 47.65 LIG 0.03  C 
BRANCH 31 32
ATOM     32  CE  LYS P   4       5.358  17.949  -4.907  1.00 46.32 LIG 0.23  C 
BRANCH 32 33
ATOM     33  NZ  LYS P   4       5.748  17.039  -3.801  1.00 44.97 LIG-0.08  N 
ATOM     34 HZ3  LYS P   4       5.148  17.095  -3.146  1.00 44.97 LIG 0.27  HD
ATOM     35 HZ1  LYS P   4       5.781  16.203  -4.102  1.00 44.97 LIG 0.27  HD
ATOM     36 HZ2  LYS P   4       6.549  17.275  -3.490  1.00 44.97 LIG 0.27  HD
ENDBRANCH 32 33
ENDBRANCH 31 32
ENDBRANCH 30 31
ENDBRANCH 29 30
ENDBRANCH 28 29
BRANCH 28 37
ATOM     37  C   LYS P   4       4.993  22.311  -0.805  1.00 40.96 LIG 0.22  C 
ATOM     38 O    LYS P   4       4.092  22.477   0.013  1.00 40.89 LIG-0.29  OA
ENDBRANCH 28 37
ENDBRANCH 26 28
ENDBRANCH 22 24
ENDBRANCH 3 22
TORSDOF 16
ENDMDL
MODEL 4
USER: ADFR SOLUTION from run 81
USER: SCORE 13.948175 LL:  -2.100 LR: -13.180 RR:   0.000 FEB:  -8.407
USER: RMSD 9.172989
USER: SEED 80
USER: STATUS no improvement in best 12 clusters for 5 generations
USER: GENES 18
USER: genes 0 Translation |==|  0.47659 0.55734 0.54651
USER: genes 1 Rotation |==|  0.44310 0.57859 0.98536 0.57081
USER: genes 2 Torsion [N]-C--CA-[N] |==|  0.35945
USER: genes 3 Torsion [C]-CA--CB-[CG2] |==|  0.23457
USER: genes 4 Torsion [CA]-CB--CG1-[CD1] |==|  0.81826
USER: genes 5 Torsion [C]-CA--N-[C] |==|  0.67577
USER: genes 6 Torsion [N]-C--CA-[N] |==|  0.37204
USER: genes 7 Torsion [C]-CA--CB-[CG1] |==|  0.06487
USER: genes 8 Torsion [C]-CA--N-[H2] |==|  0.32947
USER: genes 9 Torsion [C]-N--CA-[CB] |==|  0.24788
USER: genes 10 Torsion [N]-CA--C-[N] |==|  0.42212
USER: genes 11 Torsion [C]-N--CA-[CB] |==|  0.46981
USER: genes 12 Torsion [N]-CA--CB-[CG] |==|  0.66720
USER: genes 13 Torsion [CA]-CB--CG-[CD] |==|  0.38674
USER: genes 14 Torsion [CB]-CG--CD-[CE] |==|  0.16320
USER: genes 15 Torsion [CG]-CD--CE-[NZ] |==|  0.50391
USER: genes 16 Torsion [CD]-CE--NZ-[HZ3] |==|  0.35043
USER: genes 17 Torsion [N]-CA--C-[O] |==|  0.97203
ROOT
ATOM      1  C   ILE P   2       5.048  22.530  -4.285  1.00 41.40 LIG 0.24  C 
ATOM      2 O    ILE P   2       4.053  22.898  -4.929  1.00 41.61 LIG-0.27  OA
ATOM      3  N   ALA P   3       5.493  21.278  -4.198  1.00 41.46 LIG-0.35  N 
ATOM      4 H    ALA P   3       6.219  21.100  -3.773  1.00 41.46 LIG 0.16  HD
ENDROOT
BRANCH 1 5
ATOM      5  CA  ILE P   2       5.901  23.494  -3.468  1.00 41.22 LIG 0.18  C 
BRANCH 5 6
ATOM      6  CB  ILE P   2       4.997  23.880  -2.309  1.00 41.07 LIG 0.01  C 
ATOM      7  CG2 ILE P   2       5.084  22.848  -1.194  1.00 40.92 LIG 0.01  C 
BRANCH 6 8
ATOM      8  CG1 ILE P   2       5.389  25.259  -1.799  1.00 41.09 LIG 0.00  C 
ATOM      9  CD1 ILE P   2       6.769  25.310  -1.187  1.00 41.85 LIG 0.01  C 
ENDBRANCH 6 8
ENDBRANCH 5 6
BRANCH 5 10
ATOM     10  N   ILE P   2       6.414  24.708  -4.070  1.00 40.98 LIG-0.35  N 
ATOM     11  C   VAL P   1       7.737  24.760  -4.129  1.00 40.89 LIG 0.25  C 
ATOM     12 O    VAL P   1       8.450  23.806  -3.824  1.00 40.76 LIG-0.27  OA
ATOM     13 H    ILE P   2       5.849  25.297  -4.341  1.00 40.98 LIG 0.16  HD
BRANCH 11 14
ATOM     14  CA  VAL P   1       8.401  26.048  -4.615  1.00 40.81 LIG 0.28  C 
BRANCH 14 15
ATOM     15  CB  VAL P   1       8.879  25.872  -6.063  1.00 40.75 LIG 0.02  C 
ATOM     16  CG1 VAL P   1       8.090  24.773  -6.755  1.00 40.27 LIG 0.01  C 
ATOM     17  CG2 VAL P   1       8.745  27.174  -6.839  1.00 40.35 LIG 0.01  C 
ENDBRANCH 14 15
BRANCH 14 18
ATOM     18  N   VAL P   1       9.501  26.435  -3.756  1.00 41.10 LIG-0.07  N 
ATOM     19 H1   VAL P   1       9.573  25.854  -3.086  1.00 41.10 LIG 0.28  HD
ATOM     20 H3   VAL P   1       9.350  27.248  -3.427  1.00 41.10 LIG 0.28  HD
ATOM     21 H2   VAL P   1      10.257  26.441  -4.226  1.00 41.10 LIG 0.28  HD
ENDBRANCH 14 18
ENDBRANCH 11 14
ENDBRANCH 5 10
ENDBRANCH 1 5
BRANCH 3 22
ATOM     22  CA  ALA P   3       4.898  20.073  -4.751  1.00 41.49 LIG 0.17  C 
ATOM     23  CB  ALA P   3       5.443  19.869  -6.157  1.00 41.44 LIG 0.04  C 
BRANCH 22 24
ATOM     24  C   ALA P   3       5.045  18.795  -3.954  1.00 41.37 LIG 0.24  C 
ATOM     25 O    ALA P   3       5.977  18.587  -3.177  1.00 41.45 LIG-0.27  OA
ATOM     26  N   LYS P   4       4.028  17.929  -4.175  1.00 41.15 LIG-0.35  N 
ATOM     27 H    LYS P   4       3.355  18.161  -4.656  1.00 41.15 LIG 0.16  HD
BRANCH 26 28
ATOM     28  CA  LYS P   4       3.885  16.577  -3.694  1.00 40.89 LIG 0.16  C 
BRANCH 28 29
ATOM     29  CB  LYS P   4       2.446  16.141  -3.997  1.00 40.64 LIG 0.03  C 
BRANCH 29 30
ATOM     30  CG  LYS P   4       1.649  15.769  -2.754  1.00 49.46 LIG 0.00  C 
BRANCH 30 31
ATOM     31  CD  LYS P   4       0.221  16.285  -2.818  1.00 47.65 LIG 0.03  C 
BRANCH 31 32
ATOM     32  CE  LYS P   4      -0.554  15.762  -4.020  1.00 46.32 LIG 0.23  C 
BRANCH 32 33
ATOM     33  NZ  LYS P   4      -1.933  16.310  -4.072  1.00 44.97 LIG-0.08  N 
ATOM     34 HZ3  LYS P   4      -2.074  16.685  -4.867  1.00 44.97 LIG 0.27  HD
ATOM     35 HZ1  LYS P   4      -2.519  15.652  -3.948  1.00 44.97 LIG 0.27  HD
ATOM     36 HZ2  LYS P   4      -2.035  16.922  -3.433  1.00 44.97 LIG 0.27  HD
ENDBRANCH 32 33
ENDBRANCH 31 32
ENDBRANCH 30 31
ENDBRANCH 29 30
ENDBRANCH 28 29
BRANCH 28 37
ATOM     37  C   LYS P   4       4.881  15.611  -4.327  1.00 40.96 LIG 0.22  C 
ATOM     38 O    LYS P   4       5.570  15.963  -5.283  1.00 40.89 LIG-0.29  OA
ENDBRANCH 28 37
ENDBRANCH 26 28
ENDBRANCH 22 24
ENDBRANCH 3 22
TORSDOF 16
ENDMDL
MODEL 5
USER: ADFR SOLUTION from run 49
USER: SCORE 14.085092 LL:  -1.942 LR: -13.169 RR:   0.000 FEB:  -8.397
USER: RMSD 5.915669
USER: SEED 48
USER: STATUS no improvement in best 8 clusters for 5 generations
USER: GENES 18
USER: genes 0 Translation |==|  0.47850 0.57145 0.45516
USER: genes 1 Rotation |==|  0.35929 0.33833 0.95052 0.53317
USER: genes 2 Torsion [N]-C--CA-[N] |==|  0.37888
USER: genes 3 Torsion [C]-CA--CB-[CG2] |==|  0.18359
USER: genes 4 Torsion [CA]-CB--CG1-[CD1] |==|  0.82977
USER: genes 5 Torsion [C]-CA--N-[C] |==|  0.70150
USER: genes 6 Torsion [N]-C--CA-[N] |==|  0.12765
USER: genes 7 Torsion [C]-CA--CB-[CG1] |==|  0.32769
USER: genes 8 Torsion [C]-CA--N-[H2] |==|  0.50138
USER: genes 9 Torsion [C]-N--CA-[CB] |==|  0.92197
USER: genes 10 Torsion [N]-CA--C-[N] |==|  0.80556
USER: genes 11 Torsion [C]-N--CA-[CB] |==|  0.79464
USER: genes 12 Torsion [N]-CA--CB-[CG] |==|  0.58009
USER: genes 13 Torsion [CA]-CB--CG-[CD] |==|  0.42380
USER: genes 14 Torsion [CB]-CG--CD-[CE] |==|  0.87266
USER: genes 15 Torsion [CG]-CD--CE-[NZ] |==|  0.60542
USER: genes 16 Torsion [CD]-CE--NZ-[HZ3] |==|  0.69040
USER: genes 17 Torsion [N]-CA--C-[O] |==|  0.63353
ROOT
ATOM      1  C   ILE P   2       5.105  22.953  -7.025  1.00 41.40 LIG 0.24  C 
ATOM      2 O    ILE P   2       4.266  23.630  -7.639  1.00 41.61 LIG-0.27  OA
ATOM      3  N   ALA P   3       6.015  22.158  -7.585  1.00 41.46 LIG-0.35  N 
ATOM      4 H    ALA P   3       6.600  21.754  -7.100  1.00 41.46 LIG 0.16  HD
ENDROOT
BRANCH 1 5
ATOM      5  CA  ILE P   2       5.188  22.930  -5.503  1.00 41.22 LIG 0.18  C 
BRANCH 5 6
ATOM      6  CB  ILE P   2       4.031  22.035  -5.094  1.00 41.07 LIG 0.01  C 
ATOM      7  CG2 ILE P   2       4.264  20.606  -5.564  1.00 40.92 LIG 0.01  C 
BRANCH 6 8
ATOM      8  CG1 ILE P   2       3.861  22.084  -3.583  1.00 41.09 LIG 0.00  C 
ATOM      9  CD1 ILE P   2       5.069  21.592  -2.820  1.00 41.85 LIG 0.01  C 
ENDBRANCH 6 8
ENDBRANCH 5 6
BRANCH 5 10
ATOM     10  N   ILE P   2       5.101  24.162  -4.746  1.00 40.98 LIG-0.35  N 
ATOM     11  C   VAL P   1       6.254  24.548  -4.217  1.00 40.89 LIG 0.25  C 
ATOM     12 O    VAL P   1       7.317  23.982  -4.464  1.00 40.76 LIG-0.27  OA
ATOM     13 H    ILE P   2       4.337  24.550  -4.689  1.00 40.98 LIG 0.16  HD
BRANCH 11 14
ATOM     14  CA  VAL P   1       6.264  25.757  -3.281  1.00 40.81 LIG 0.28  C 
BRANCH 14 15
ATOM     15  CB  VAL P   1       7.624  25.858  -2.578  1.00 40.75 LIG 0.02  C 
ATOM     16  CG1 VAL P   1       8.319  27.159  -2.944  1.00 40.27 LIG 0.01  C 
ATOM     17  CG2 VAL P   1       7.462  25.764  -1.067  1.00 40.35 LIG 0.01  C 
ENDBRANCH 14 15
BRANCH 14 18
ATOM     18  N   VAL P   1       5.191  25.685  -2.311  1.00 41.10 LIG-0.07  N 
ATOM     19 H1   VAL P   1       5.286  24.952  -1.816  1.00 41.10 LIG 0.28  HD
ATOM     20 H3   VAL P   1       4.408  25.656  -2.735  1.00 41.10 LIG 0.28  HD
ATOM     21 H2   VAL P   1       5.216  26.403  -1.785  1.00 41.10 LIG 0.28  HD
ENDBRANCH 14 18
ENDBRANCH 11 14
ENDBRANCH 5 10
ENDBRANCH 1 5
BRANCH 3 22
ATOM     22  CA  ALA P   3       6.188  21.842  -8.993  1.00 41.49 LIG 0.17  C 
ATOM     23  CB  ALA P   3       4.836  21.957  -9.681  1.00 41.44 LIG 0.04  C 
BRANCH 22 24
ATOM     24  C   ALA P   3       7.224  22.632  -9.762  1.00 41.37 LIG 0.24  C 
ATOM     25 O    ALA P   3       8.271  22.141 -10.185  1.00 41.45 LIG-0.27  OA
ATOM     26  N   LYS P   4       6.856  23.920  -9.950  1.00 41.15 LIG-0.35  N 
ATOM     27 H    LYS P   4       6.074  24.189  -9.715  1.00 41.15 LIG 0.16  HD
BRANCH 26 28
ATOM     28  CA  LYS P   4       7.625  24.996 -10.526  1.00 40.89 LIG 0.16  C 
BRANCH 28 29
ATOM     29  CB  LYS P   4       8.674  25.408  -9.486  1.00 40.64 LIG 0.03  C 
BRANCH 29 30
ATOM     30  CG  LYS P   4       9.083  26.871  -9.581  1.00 49.46 LIG 0.00  C 
BRANCH 30 31
ATOM     31  CD  LYS P   4       9.549  27.420  -8.242  1.00 47.65 LIG 0.03  C 
BRANCH 31 32
ATOM     32  CE  LYS P   4       8.632  27.046  -7.086  1.00 46.32 LIG 0.23  C 
BRANCH 32 33
ATOM     33  NZ  LYS P   4       8.489  28.155  -6.109  1.00 44.97 LIG-0.08  N 
ATOM     34 HZ3  LYS P   4       8.886  27.931  -5.346  1.00 44.97 LIG 0.27  HD
ATOM     35 HZ1  LYS P   4       8.870  28.890  -6.437  1.00 44.97 LIG 0.27  HD
ATOM     36 HZ2  LYS P   4       7.625  28.310  -5.960  1.00 44.97 LIG 0.27  HD
ENDBRANCH 32 33
ENDBRANCH 31 32
ENDBRANCH 30 31
ENDBRANCH 29 30
ENDBRANCH 28 29
BRANCH 28 37
ATOM     37  C   LYS P   4       8.296  24.611 -11.840  1.00 40.96 LIG 0.22  C 
ATOM     38 O    LYS P   4       9.485  24.860 -12.029  1.00 40.89 LIG-0.29  OA
ENDBRANCH 28 37
ENDBRANCH 26 28
ENDBRANCH 22 24
ENDBRANCH 3 22
TORSDOF 16
ENDMDL
MODEL 6
USER: ADFR SOLUTION from run 77
USER: SCORE 14.981460 LL:  -2.730 LR: -13.131 RR:   0.000 FEB:  -8.358
USER: RMSD 9.620119
USER: SEED 76
USER: STATUS no improvement in best 8 clusters for 5 generations
USER: GENES 18
USER: genes 0 Translation |==|  0.57766 0.65229 0.47660
USER: genes 1 Rotation |==|  0.77667 0.47957 0.89654 0.62566
USER: genes 2 Torsion [N]-C--CA-[N] |==|  0.40138
USER: genes 3 Torsion [C]-CA--CB-[CG2] |==|  0.66797
USER: genes 4 Torsion [CA]-CB--CG1-[CD1] |==|  0.39964
USER: genes 5 Torsion [C]-CA--N-[C] |==|  0.66145
USER: genes 6 Torsion [N]-C--CA-[N] |==|  0.80559
USER: genes 7 Torsion [C]-CA--CB-[CG1] |==|  0.13524
USER: genes 8 Torsion [C]-CA--N-[H2] |==|  0.11125
USER: genes 9 Torsion [C]-N--CA-[CB] |==|  0.58334
USER: genes 10 Torsion [N]-CA--C-[N] |==|  0.75448
USER: genes 11 Torsion [C]-N--CA-[CB] |==|  0.91566
USER: genes 12 Torsion [N]-CA--CB-[CG] |==|  0.79517
USER: genes 13 Torsion [CA]-CB--CG-[CD] |==|  0.40160
USER: genes 14 Torsion [CB]-CG--CD-[CE] |==|  0.46126
USER: genes 15 Torsion [CG]-CD--CE-[NZ] |==|  0.18954
USER: genes 16 Torsion [CD]-CE--NZ-[HZ3] |==|  0.14404
USER: genes 17 Torsion [N]-CA--C-[O] |==|  0.49412
ROOT
ATOM      1  C   ILE P   2       8.080  25.379  -6.382  1.00 41.40 LIG 0.24  C 
ATOM      2 O    ILE P   2       7.605  26.075  -5.472  1.00 41.61 LIG-0.27  OA
ATOM      3  N   ALA P   3       7.456  24.369  -6.988  1.00 41.46 LIG-0.35  N 
ATOM      4 H    ALA P   3       7.827  23.959  -7.647  1.00 41.46 LIG 0.16  HD
ENDROOT
BRANCH 1 5
ATOM      5  CA  ILE P   2       9.490  25.584  -6.924  1.00 41.22 LIG 0.18  C 
BRANCH 5 6
ATOM      6  CB  ILE P   2      10.361  24.785  -5.970  1.00 41.07 LIG 0.01  C 
ATOM      7  CG2 ILE P   2      11.370  25.690  -5.278  1.00 40.92 LIG 0.01  C 
BRANCH 6 8
ATOM      8  CG1 ILE P   2       9.479  24.081  -4.949  1.00 41.09 LIG 0.00  C 
ATOM      9  CD1 ILE P   2       9.982  22.712  -4.555  1.00 41.85 LIG 0.01  C 
ENDBRANCH 6 8
ENDBRANCH 5 6
BRANCH 5 10
ATOM     10  N   ILE P   2      10.043  26.918  -7.039  1.00 40.98 LIG-0.35  N 
ATOM     11  C   VAL P   1      10.413  27.240  -8.271  1.00 40.89 LIG 0.25  C 
ATOM     12 O    VAL P   1      10.180  26.521  -9.240  1.00 40.76 LIG-0.27  OA
ATOM     13 H    ILE P   2      10.095  27.398  -6.329  1.00 40.98 LIG 0.16  HD
BRANCH 11 14
ATOM     14  CA  VAL P   1      11.139  28.567  -8.496  1.00 40.81 LIG 0.28  C 
BRANCH 14 15
ATOM     15  CB  VAL P   1      12.348  28.662  -7.556  1.00 40.75 LIG 0.02  C 
ATOM     16  CG1 VAL P   1      13.175  27.388  -7.618  1.00 40.27 LIG 0.01  C 
ATOM     17  CG2 VAL P   1      13.216  29.861  -7.910  1.00 40.35 LIG 0.01  C 
ENDBRANCH 14 15
BRANCH 14 18
ATOM     18  N   VAL P   1      10.252  29.696  -8.305  1.00 41.10 LIG-0.07  N 
ATOM     19 H1   VAL P   1       9.757  29.811  -9.036  1.00 41.10 LIG 0.28  HD
ATOM     20 H3   VAL P   1      10.733  30.429  -8.154  1.00 41.10 LIG 0.28  HD
ATOM     21 H2   VAL P   1       9.720  29.542  -7.608  1.00 41.10 LIG 0.28  HD
ENDBRANCH 14 18
ENDBRANCH 11 14
ENDBRANCH 5 10
ENDBRANCH 1 5
BRANCH 3 22
ATOM     22  CA  ALA P   3       6.149  23.810  -6.687  1.00 41.49 LIG 0.17  C 
ATOM     23  CB  ALA P   3       6.162  22.333  -7.054  1.00 41.44 LIG 0.04  C 
BRANCH 22 24
ATOM     24  C   ALA P   3       5.625  23.983  -5.278  1.00 41.37 LIG 0.24  C 
ATOM     25 O    ALA P   3       4.906  24.923  -4.936  1.00 41.45 LIG-0.27  OA
ATOM     26  N   LYS P   4       6.013  22.982  -4.456  1.00 41.15 LIG-0.35  N 
ATOM     27 H    LYS P   4       6.437  22.302  -4.767  1.00 41.15 LIG 0.16  HD
BRANCH 26 28
ATOM     28  CA  LYS P   4       5.813  22.865  -3.032  1.00 40.89 LIG 0.16  C 
BRANCH 28 29
ATOM     29  CB  LYS P   4       5.793  24.287  -2.460  1.00 40.64 LIG 0.03  C 
BRANCH 29 30
ATOM     30  CG  LYS P   4       7.165  24.943  -2.410  1.00 49.46 LIG 0.00  C 
BRANCH 30 31
ATOM     31  CD  LYS P   4       7.094  26.435  -2.691  1.00 47.65 LIG 0.03  C 
BRANCH 31 32
ATOM     32  CE  LYS P   4       8.372  27.178  -2.323  1.00 46.32 LIG 0.23  C 
BRANCH 32 33
ATOM     33  NZ  LYS P   4       9.503  26.810  -3.211  1.00 44.97 LIG-0.08  N 
ATOM     34 HZ3  LYS P   4       9.255  26.900  -4.061  1.00 44.97 LIG 0.27  HD
ATOM     35 HZ1  LYS P   4      10.196  27.344  -3.047  1.00 44.97 LIG 0.27  HD
ATOM     36 HZ2  LYS P   4       9.738  25.965  -3.059  1.00 44.97 LIG 0.27  HD
ENDBRANCH 32 33
ENDBRANCH 31 32
ENDBRANCH 30 31
ENDBRANCH 29 30
ENDBRANCH 28 29
BRANCH 28 37
ATOM     37  C   LYS P   4       4.530  22.123  -2.670  1.00 40.96 LIG 0.22  C 
ATOM     38 O    LYS P   4       4.244  21.911  -1.494  1.00 40.89 LIG-0.29  OA
ENDBRANCH 28 37
ENDBRANCH 26 28
ENDBRANCH 22 24
ENDBRANCH 3 22
TORSDOF 16
ENDMDL
MODEL 7
USER: ADFR SOLUTION from run 73
USER: SCORE 14.684784 LL:  -2.320 LR: -13.103 RR:   0.000 FEB:  -8.330
USER: RMSD 8.820186
USER: SEED 72
USER: STATUS no improvement in best 4 clusters for 5 generations
USER: GENES 18
USER: genes 0 Translation |==|  0.56788 0.63817 0.57476
USER: genes 1 Rotation |==|  0.90316 0.48505 0.74802 0.66039
USER: genes 2 Torsion [N]-C--CA-[N] |==|  0.35309
USER: genes 3 Torsion [C]-CA--CB-[CG2] |==|  0.17949
USER: genes 4 Torsion [CA]-CB--CG1-[CD1] |==|  0.73834
USER: genes 5 Torsion [C]-CA--N-[C] |==|  0.63678
USER: genes 6 Torsion [N]-C--CA-[N] |==|  0.90454
USER: genes 7 Torsion [C]-CA--CB-[CG1] |==|  0.47298
USER: genes 8 Torsion [C]-CA--N-[H2] |==|  0.12344
USER: genes 9 Torsion [C]-N--CA-[CB] |==|  0.20429
USER: genes 10 Torsion [N]-CA--C-[N] |==|  0.00584
USER: genes 11 Torsion [C]-N--CA-[CB] |==|  0.39896
USER: genes 12 Torsion [N]-CA--CB-[CG] |==|  0.93948
USER: genes 13 Torsion [CA]-CB--CG-[CD] |==|  0.36927
USER: genes 14 Torsion [CB]-CG--CD-[CE] |==|  0.31923
USER: genes 15 Torsion [CG]-CD--CE-[NZ] |==|  0.26214
USER: genes 16 Torsion [CD]-CE--NZ-[HZ3] |==|  0.89971
USER: genes 17 Torsion [N]-CA--C-[O] |==|  0.06220
ROOT
ATOM      1  C   ILE P   2       7.786  24.955  -3.437  1.00 41.40 LIG 0.24  C 
ATOM      2 O    ILE P   2       8.230  25.597  -2.473  1.00 41.61 LIG-0.27  OA
ATOM      3  N   ALA P   3       6.708  24.173  -3.414  1.00 41.46 LIG-0.35  N 
ATOM      4 H    ALA P   3       6.427  23.795  -4.134  1.00 41.46 LIG 0.16  HD
ENDROOT
BRANCH 1 5
ATOM      5  CA  ILE P   2       8.453  24.964  -4.808  1.00 41.22 LIG 0.18  C 
BRANCH 5 6
ATOM      6  CB  ILE P   2       9.770  24.245  -4.571  1.00 41.07 LIG 0.01  C 
ATOM      7  CG2 ILE P   2       9.528  22.795  -4.180  1.00 40.92 LIG 0.01  C 
BRANCH 6 8
ATOM      8  CG1 ILE P   2      10.626  24.329  -5.826  1.00 41.09 LIG 0.00  C 
ATOM      9  CD1 ILE P   2      10.482  23.135  -6.740  1.00 41.85 LIG 0.01  C 
ENDBRANCH 6 8
ENDBRANCH 5 6
BRANCH 5 10
ATOM     10  N   ILE P   2       8.732  26.218  -5.479  1.00 40.98 LIG-0.35  N 
ATOM     11  C   VAL P   1       8.322  26.255  -6.739  1.00 40.89 LIG 0.25  C 
ATOM     12 O    VAL P   1       7.650  25.356  -7.241  1.00 40.76 LIG-0.27  OA
ATOM     13 H    ILE P   2       9.131  26.836  -5.034  1.00 40.98 LIG 0.16  HD
BRANCH 11 14
ATOM     14  CA  VAL P   1       8.682  27.470  -7.593  1.00 40.81 LIG 0.28  C 
BRANCH 14 15
ATOM     15  CB  VAL P   1      10.040  27.243  -8.272  1.00 40.75 LIG 0.02  C 
ATOM     16  CG1 VAL P   1      10.306  28.324  -9.306  1.00 40.27 LIG 0.01  C 
ATOM     17  CG2 VAL P   1      11.162  27.219  -7.244  1.00 40.35 LIG 0.01  C 
ENDBRANCH 14 15
BRANCH 14 18
ATOM     18  N   VAL P   1       8.701  28.685  -6.805  1.00 41.10 LIG-0.07  N 
ATOM     19 H1   VAL P   1       7.866  28.943  -6.637  1.00 41.10 LIG 0.28  HD
ATOM     20 H3   VAL P   1       9.124  29.325  -7.256  1.00 41.10 LIG 0.28  HD
ATOM     21 H2   VAL P   1       9.125  28.535  -6.037  1.00 41.10 LIG 0.28  HD
ENDBRANCH 14 18
ENDBRANCH 11 14
ENDBRANCH 5 10
ENDBRANCH 1 5
BRANCH 3 22
ATOM     22  CA  ALA P   3       5.869  23.833  -2.278  1.00 41.49 LIG 0.17  C 
ATOM     23  CB  ALA P   3       5.024  25.049  -1.924  1.00 41.44 LIG 0.04  C 
BRANCH 22 24
ATOM     24  C   ALA P   3       4.982  22.614  -2.407  1.00 41.37 LIG 0.24  C 
ATOM     25 O    ALA P   3       4.186  22.262  -1.535  1.00 41.45 LIG-0.27  OA
ATOM     26  N   LYS P   4       5.147  21.978  -3.590  1.00 41.15 LIG-0.35  N 
ATOM     27 H    LYS P   4       5.648  22.317  -4.201  1.00 41.15 LIG 0.16  HD
BRANCH 26 28
ATOM     28  CA  LYS P   4       4.573  20.727  -4.022  1.00 40.89 LIG 0.16  C 
BRANCH 28 29
ATOM     29  CB  LYS P   4       4.264  20.864  -5.517  1.00 40.64 LIG 0.03  C 
BRANCH 29 30
ATOM     30  CG  LYS P   4       4.128  22.308  -5.981  1.00 49.46 LIG 0.00  C 
BRANCH 30 31
ATOM     31  CD  LYS P   4       4.913  22.574  -7.254  1.00 47.65 LIG 0.03  C 
BRANCH 31 32
ATOM     32  CE  LYS P   4       4.030  22.922  -8.445  1.00 46.32 LIG 0.23  C 
BRANCH 32 33
ATOM     33  NZ  LYS P   4       3.875  24.389  -8.611  1.00 44.97 LIG-0.08  N 
ATOM     34 HZ3  LYS P   4       3.841  24.777  -7.811  1.00 44.97 LIG 0.27  HD
ATOM     35 HZ1  LYS P   4       4.568  24.711  -9.067  1.00 44.97 LIG 0.27  HD
ATOM     36 HZ2  LYS P   4       3.122  24.560  -9.055  1.00 44.97 LIG 0.27  HD
ENDBRANCH 32 33
ENDBRANCH 31 32
ENDBRANCH 30 31
ENDBRANCH 29 30
ENDBRANCH 28 29
BRANCH 28 37
ATOM     37  C   LYS P   4       5.490  19.534  -3.771  1.00 40.96 LIG 0.22  C 
ATOM     38 O    LYS P   4       6.372  19.594  -2.917  1.00 40.89 LIG-0.29  OA
ENDBRANCH 28 37
ENDBRANCH 26 28
ENDBRANCH 22 24
ENDBRANCH 3 22
TORSDOF 16
ENDMDL
MODEL 8
USER: ADFR SOLUTION from run 7
USER: SCORE 14.458736 LL:  -1.920 LR: -13.088 RR:   0.000 FEB:  -8.315
USER: RMSD 9.109318
USER: SEED 762291
USER: STATUS no improvement in best 10 clusters for 5 generations
USER: GENES 18
USER: genes 0 Translation |==|  0.50015 0.59547 0.56059
USER: genes 1 Rotation |==|  0.47342 0.73855 0.93234 0.57398
USER: genes 2 Torsion [N]-C--CA-[N] |==|  0.40784
USER: genes 3 Torsion [C]-CA--CB-[CG2] |==|  0.03653
USER: genes 4 Torsion [CA]-CB--CG1-[CD1] |==|  0.66935
USER: genes 5 Torsion [C]-CA--N-[C] |==|  0.57788
USER: genes 6 Torsion [N]-C--CA-[N] |==|  0.25061
USER: genes 7 Torsion [C]-CA--CB-[CG1] |==|  0.16306
USER: genes 8 Torsion [C]-CA--N-[H2] |==|  0.11600
USER: genes 9 Torsion [C]-N--CA-[CB] |==|  0.80263
USER: genes 10 Torsion [N]-CA--C-[N] |==|  0.22769
USER: genes 11 Torsion [C]-N--CA-[CB] |==|  0.84353
USER: genes 12 Torsion [N]-CA--CB-[CG] |==|  0.72324
USER: genes 13 Torsion [CA]-CB--CG-[CD] |==|  0.45989
USER: genes 14 Torsion [CB]-CG--CD-[CE] |==|  0.43865
USER: genes 15 Torsion [CG]-CD--CE-[NZ] |==|  0.14130
USER: genes 16 Torsion [CD]-CE--NZ-[HZ3] |==|  0.92946
USER: genes 17 Torsion [N]-CA--C-[O] |==|  0.04898
ROOT
ATOM      1  C   ILE P   2       5.755  23.674  -3.862  1.00 41.40 LIG 0.24  C 
ATOM      2 O    ILE P   2       4.672  23.770  -4.462  1.00 41.61 LIG-0.27  OA
ATOM      3  N   ALA P   3       6.121  22.655  -3.087  1.00 41.46 LIG-0.35  N 
ATOM      4 H    ALA P   3       6.908  22.630  -2.740  1.00 41.46 LIG 0.16  HD
ENDROOT
BRANCH 1 5
ATOM      5  CA  ILE P   2       6.827  24.756  -3.923  1.00 41.22 LIG 0.18  C 
BRANCH 5 6
ATOM      6  CB  ILE P   2       6.441  25.706  -2.803  1.00 41.07 LIG 0.01  C 
ATOM      7  CG2 ILE P   2       5.398  25.071  -1.894  1.00 40.92 LIG 0.01  C 
BRANCH 6 8
ATOM      8  CG1 ILE P   2       7.684  26.088  -2.012  1.00 41.09 LIG 0.00  C 
ATOM      9  CD1 ILE P   2       7.626  25.685  -0.558  1.00 41.85 LIG 0.01  C 
ENDBRANCH 6 8
ENDBRANCH 5 6
BRANCH 5 10
ATOM     10  N   ILE P   2       7.018  25.530  -5.133  1.00 40.98 LIG-0.35  N 
ATOM     11  C   VAL P   1       8.256  25.978  -5.293  1.00 40.89 LIG 0.25  C 
ATOM     12 O    VAL P   1       9.178  25.649  -4.551  1.00 40.76 LIG-0.27  OA
ATOM     13 H    ILE P   2       6.342  25.647  -5.651  1.00 40.98 LIG 0.16  HD
BRANCH 11 14
ATOM     14  CA  VAL P   1       8.549  26.923  -6.457  1.00 40.81 LIG 0.28  C 
BRANCH 14 15
ATOM     15  CB  VAL P   1       9.972  26.679  -6.978  1.00 40.75 LIG 0.02  C 
ATOM     16  CG1 VAL P   1      10.135  25.238  -7.431  1.00 40.27 LIG 0.01  C 
ATOM     17  CG2 VAL P   1      10.298  27.624  -8.126  1.00 40.35 LIG 0.01  C 
ENDBRANCH 14 15
BRANCH 14 18
ATOM     18  N   VAL P   1       8.375  28.309  -6.073  1.00 41.10 LIG-0.07  N 
ATOM     19 H1   VAL P   1       7.509  28.508  -6.064  1.00 41.10 LIG 0.28  HD
ATOM     20 H3   VAL P   1       8.794  28.834  -6.657  1.00 41.10 LIG 0.28  HD
ATOM     21 H2   VAL P   1       8.717  28.437  -5.261  1.00 41.10 LIG 0.28  HD
ENDBRANCH 14 18
ENDBRANCH 11 14
ENDBRANCH 5 10
ENDBRANCH 1 5
BRANCH 3 22
ATOM     22  CA  ALA P   3       5.340  21.489  -2.706  1.00 41.49 LIG 0.17  C 
ATOM     23  CB  ALA P   3       4.257  21.933  -1.734  1.00 41.44 LIG 0.04  C 
BRANCH 22 24
ATOM     24  C   ALA P   3       4.725  20.669  -3.819  1.00 41.37 LIG 0.24  C 
ATOM     25 O    ALA P   3       3.560  20.804  -4.193  1.00 41.45 LIG-0.27  OA
ATOM     26  N   LYS P   4       5.605  19.798  -4.366  1.00 41.15 LIG-0.35  N 
ATOM     27 H    LYS P   4       6.432  19.809  -4.131  1.00 41.15 LIG 0.16  HD
BRANCH 26 28
ATOM     28  CA  LYS P   4       5.357  18.779  -5.355  1.00 40.89 LIG 0.16  C 
BRANCH 28 29
ATOM     29  CB  LYS P   4       4.254  17.870  -4.801  1.00 40.64 LIG 0.03  C 
BRANCH 29 30
ATOM     30  CG  LYS P   4       4.779  16.579  -4.188  1.00 49.46 LIG 0.00  C 
BRANCH 30 31
ATOM     31  CD  LYS P   4       3.724  15.878  -3.348  1.00 47.65 LIG 0.03  C 
BRANCH 31 32
ATOM     32  CE  LYS P   4       3.991  14.390  -3.166  1.00 46.32 LIG 0.23  C 
BRANCH 32 33
ATOM     33  NZ  LYS P   4       5.375  14.127  -2.696  1.00 44.97 LIG-0.08  N 
ATOM     34 HZ3  LYS P   4       5.905  14.798  -2.944  1.00 44.97 LIG 0.27  HD
ATOM     35 HZ1  LYS P   4       5.379  14.059  -1.809  1.00 44.97 LIG 0.27  HD
ATOM     36 HZ2  LYS P   4       5.671  13.367  -3.053  1.00 44.97 LIG 0.27  HD
ENDBRANCH 32 33
ENDBRANCH 31 32
ENDBRANCH 30 31
ENDBRANCH 29 30
ENDBRANCH 28 29
BRANCH 28 37
ATOM     37  C   LYS P   4       4.951  19.349  -6.710  1.00 40.96 LIG 0.22  C 
ATOM     38 O    LYS P   4       5.168  20.529  -6.980  1.00 40.89 LIG-0.29  OA
ENDBRANCH 28 37
ENDBRANCH 26 28
ENDBRANCH 22 24
ENDBRANCH 3 22
TORSDOF 16
ENDMDL
MODEL 9
USER: ADFR SOLUTION from run 120
USER: SCORE 14.970460 LL:  -2.081 LR: -13.014 RR:   0.000 FEB:  -8.242
USER: RMSD 5.174982
USER: SEED 119
USER: STATUS no improvement in best 8 clusters for 5 generations
USER: GENES 18
USER: genes 0 Translation |==|  0.44041 0.39289 0.54113
USER: genes 1 Rotation |==|  0.75159 0.78474 0.34945 0.78803
USER: genes 2 Torsion [N]-C--CA-[N] |==|  0.41035
USER: genes 3 Torsion [C]-CA--CB-[CG2] |==|  0.95588
USER: genes 4 Torsion [CA]-CB--CG1-[CD1] |==|  0.19414
USER: genes 5 Torsion [C]-CA--N-[C] |==|  0.72007
USER: genes 6 Torsion [N]-C--CA-[N] |==|  0.61994
USER: genes 7 Torsion [C]-CA--CB-[CG1] |==|  0.24562
USER: genes 8 Torsion [C]-CA--N-[H2] |==|  0.58762
USER: genes 9 Torsion [C]-N--CA-[CB] |==|  0.81536
USER: genes 10 Torsion [N]-CA--C-[N] |==|  0.40050
USER: genes 11 Torsion [C]-N--CA-[CB] |==|  0.49864
USER: genes 12 Torsion [N]-CA--CB-[CG] |==|  0.44634
USER: genes 13 Torsion [CA]-CB--CG-[CD] |==|  0.65566
USER: genes 14 Torsion [CB]-CG--CD-[CE] |==|  0.29906
USER: genes 15 Torsion [CG]-CD--CE-[NZ] |==|  0.32250
USER: genes 16 Torsion [CD]-CE--NZ-[HZ3] |==|  0.12532
USER: genes 17 Torsion [N]-CA--C-[O] |==|  0.39964
ROOT
ATOM      1  C   ILE P   2       3.962  17.597  -4.446  1.00 41.40 LIG 0.24  C 
ATOM      2 O    ILE P   2       3.875  18.076  -5.587  1.00 41.61 LIG-0.27  OA
ATOM      3  N   ALA P   3       4.632  18.139  -3.430  1.00 41.46 LIG-0.35  N 
ATOM      4 H    ALA P   3       4.610  17.777  -2.650  1.00 41.46 LIG 0.16  HD
ENDROOT
BRANCH 1 5
ATOM      5  CA  ILE P   2       3.311  16.274  -4.057  1.00 41.22 LIG 0.18  C 
BRANCH 5 6
ATOM      6  CB  ILE P   2       4.365  15.238  -4.408  1.00 41.07 LIG 0.01  C 
ATOM      7  CG2 ILE P   2       5.421  15.836  -5.327  1.00 40.92 LIG 0.01  C 
BRANCH 6 8
ATOM      8  CG1 ILE P   2       5.000  14.708  -3.131  1.00 41.09 LIG 0.00  C 
ATOM      9  CD1 ILE P   2       4.073  13.847  -2.305  1.00 41.85 LIG 0.01  C 
ENDBRANCH 6 8
ENDBRANCH 5 6
BRANCH 5 10
ATOM     10  N   ILE P   2       2.056  15.871  -4.659  1.00 40.98 LIG-0.35  N 
ATOM     11  C   VAL P   1       0.999  16.081  -3.887  1.00 40.89 LIG 0.25  C 
ATOM     12 O    VAL P   1       1.071  16.685  -2.819  1.00 40.76 LIG-0.27  OA
ATOM     13 H    ILE P   2       2.075  15.533  -5.449  1.00 40.98 LIG 0.16  HD
BRANCH 11 14
ATOM     14  CA  VAL P   1      -0.363  15.569  -4.353  1.00 40.81 LIG 0.28  C 
BRANCH 14 15
ATOM     15  CB  VAL P   1      -0.293  15.185  -5.837  1.00 40.75 LIG 0.02  C 
ATOM     16  CG1 VAL P   1       0.143  13.738  -5.994  1.00 40.27 LIG 0.01  C 
ATOM     17  CG2 VAL P   1      -1.639  15.398  -6.516  1.00 40.35 LIG 0.01  C 
ENDBRANCH 14 15
BRANCH 14 18
ATOM     18  N   VAL P   1      -1.404  16.551  -4.127  1.00 41.10 LIG-0.07  N 
ATOM     19 H1   VAL P   1      -1.493  17.061  -4.850  1.00 41.10 LIG 0.28  HD
ATOM     20 H3   VAL P   1      -1.186  17.060  -3.430  1.00 41.10 LIG 0.28  HD
ATOM     21 H2   VAL P   1      -2.174  16.135  -3.961  1.00 41.10 LIG 0.28  HD
ENDBRANCH 14 18
ENDBRANCH 11 14
ENDBRANCH 5 10
ENDBRANCH 1 5
BRANCH 3 22
ATOM     22  CA  ALA P   3       5.456  19.336  -3.433  1.00 41.49 LIG 0.17  C 
ATOM     23  CB  ALA P   3       6.677  19.077  -4.304  1.00 41.44 LIG 0.04  C 
BRANCH 22 24
ATOM     24  C   ALA P   3       4.797  20.633  -3.847  1.00 41.37 LIG 0.24  C 
ATOM     25 O    ALA P   3       3.918  20.700  -4.707  1.00 41.45 LIG-0.27  OA
ATOM     26  N   LYS P   4       5.265  21.695  -3.151  1.00 41.15 LIG-0.35  N 
ATOM     27 H    LYS P   4       5.812  21.581  -2.497  1.00 41.15 LIG 0.16  HD
BRANCH 26 28
ATOM     28  CA  LYS P   4       4.969  23.093  -3.345  1.00 40.89 LIG 0.16  C 
BRANCH 28 29
ATOM     29  CB  LYS P   4       5.750  23.872  -2.280  1.00 40.64 LIG 0.03  C 
BRANCH 29 30
ATOM     30  CG  LYS P   4       5.929  25.347  -2.613  1.00 49.46 LIG 0.00  C 
BRANCH 30 31
ATOM     31  CD  LYS P   4       7.393  25.756  -2.618  1.00 47.65 LIG 0.03  C 
BRANCH 31 32
ATOM     32  CE  LYS P   4       7.940  26.012  -4.016  1.00 46.32 LIG 0.23  C 
BRANCH 32 33
ATOM     33  NZ  LYS P   4       8.350  27.428  -4.200  1.00 44.97 LIG-0.08  N 
ATOM     34 HZ3  LYS P   4       8.815  27.697  -3.492  1.00 44.97 LIG 0.27  HD
ATOM     35 HZ1  LYS P   4       8.854  27.498  -4.930  1.00 44.97 LIG 0.27  HD
ATOM     36 HZ2  LYS P   4       7.625  27.937  -4.290  1.00 44.97 LIG 0.27  HD
ENDBRANCH 32 33
ENDBRANCH 31 32
ENDBRANCH 30 31
ENDBRANCH 29 30
ENDBRANCH 28 29
BRANCH 28 37
ATOM     37  C   LYS P   4       5.327  23.590  -4.742  1.00 40.96 LIG 0.22  C 
ATOM     38 O    LYS P   4       4.625  24.427  -5.305  1.00 40.89 LIG-0.29  OA
ENDBRANCH 28 37
ENDBRANCH 26 28
ENDBRANCH 22 24
ENDBRANCH 3 22
TORSDOF 16
ENDMDL
MODEL 10
USER: ADFR SOLUTION from run 148
USER: SCORE 13.837034 LL:  -2.124 LR: -13.007 RR:   0.000 FEB:  -8.235
USER: RMSD 9.300493
USER: SEED 147
USER: STATUS no improvement in best 10 clusters for 5 generations
USER: GENES 18
USER: genes 0 Translation |==|  0.47701 0.55918 0.53351
USER: genes 1 Rotation |==|  0.40569 0.58421 0.97111 0.60986
USER: genes 2 Torsion [N]-C--CA-[N] |==|  0.40216
USER: genes 3 Torsion [C]-CA--CB-[CG2] |==|  0.24170
USER: genes 4 Torsion [CA]-CB--CG1-[CD1] |==|  0.80105
USER: genes 5 Torsion [C]-CA--N-[C] |==|  0.67377
USER: genes 6 Torsion [N]-C--CA-[N] |==|  0.38431
USER: genes 7 Torsion [C]-CA--CB-[CG1] |==|  0.03664
USER: genes 8 Torsion [C]-CA--N-[H2] |==|  0.98072
USER: genes 9 Torsion [C]-N--CA-[CB] |==|  0.22716
USER: genes 10 Torsion [N]-CA--C-[N] |==|  0.46844
USER: genes 11 Torsion [C]-N--CA-[CB] |==|  0.88964
USER: genes 12 Torsion [N]-CA--CB-[CG] |==|  0.43764
USER: genes 13 Torsion [CA]-CB--CG-[CD] |==|  0.20036
USER: genes 14 Torsion [CB]-CG--CD-[CE] |==|  0.51114
USER: genes 15 Torsion [CG]-CD--CE-[NZ] |==|  0.89080
USER: genes 16 Torsion [CD]-CE--NZ-[HZ3] |==|  0.83866
USER: genes 17 Torsion [N]-CA--C-[O] |==|  0.18379
ROOT
ATOM      1  C   ILE P   2       5.060  22.585  -4.675  1.00 41.40 LIG 0.24  C 
ATOM      2 O    ILE P   2       4.251  23.054  -5.490  1.00 41.61 LIG-0.27  OA
ATOM      3  N   ALA P   3       5.303  21.290  -4.484  1.00 41.46 LIG-0.35  N 
ATOM      4 H    ALA P   3       5.915  21.035  -3.935  1.00 41.46 LIG 0.16  HD
ENDROOT
BRANCH 1 5
ATOM      5  CA  ILE P   2       5.889  23.462  -3.743  1.00 41.22 LIG 0.18  C 
BRANCH 5 6
ATOM      6  CB  ILE P   2       4.968  23.700  -2.559  1.00 41.07 LIG 0.01  C 
ATOM      7  CG2 ILE P   2       5.105  22.580  -1.538  1.00 40.92 LIG 0.01  C 
BRANCH 6 8
ATOM      8  CG1 ILE P   2       5.290  25.047  -1.929  1.00 41.09 LIG 0.00  C 
ATOM      9  CD1 ILE P   2       6.602  25.068  -1.181  1.00 41.85 LIG 0.01  C 
ENDBRANCH 6 8
ENDBRANCH 5 6
BRANCH 5 10
ATOM     10  N   ILE P   2       6.390  24.744  -4.197  1.00 40.98 LIG-0.35  N 
ATOM     11  C   VAL P   1       7.713  24.826  -4.219  1.00 40.89 LIG 0.25  C 
ATOM     12 O    VAL P   1       8.438  23.858  -4.004  1.00 40.76 LIG-0.27  OA
ATOM     13 H    ILE P   2       5.818  25.349  -4.414  1.00 40.98 LIG 0.16  HD
BRANCH 11 14
ATOM     14  CA  VAL P   1       8.359  26.172  -4.545  1.00 40.81 LIG 0.28  C 
BRANCH 14 15
ATOM     15  CB  VAL P   1       8.772  26.205  -6.023  1.00 40.75 LIG 0.02  C 
ATOM     16  CG1 VAL P   1       8.136  25.051  -6.781  1.00 40.27 LIG 0.01  C 
ATOM     17  CG2 VAL P   1       8.379  27.527  -6.666  1.00 40.35 LIG 0.01  C 
ENDBRANCH 14 15
BRANCH 14 18
ATOM     18  N   VAL P   1       9.498  26.435  -3.690  1.00 41.10 LIG-0.07  N 
ATOM     19 H1   VAL P   1       9.402  27.231  -3.304  1.00 41.10 LIG 0.28  HD
ATOM     20 H3   VAL P   1      10.243  26.430  -4.176  1.00 41.10 LIG 0.28  HD
ATOM     21 H2   VAL P   1       9.550  25.806  -3.062  1.00 41.10 LIG 0.28  HD
ENDBRANCH 14 18
ENDBRANCH 11 14
ENDBRANCH 5 10
ENDBRANCH 1 5
BRANCH 3 22
ATOM     22  CA  ALA P   3       4.647  20.152  -5.106  1.00 41.49 LIG 0.17  C 
ATOM     23  CB  ALA P   3       5.269  19.928  -6.477  1.00 41.44 LIG 0.04  C 
BRANCH 22 24
ATOM     24  C   ALA P   3       4.628  18.851  -4.333  1.00 41.37 LIG 0.24  C 
ATOM     25 O    ALA P   3       5.286  18.664  -3.309  1.00 41.45 LIG-0.27  OA
ATOM     26  N   LYS P   4       3.793  17.937  -4.880  1.00 41.15 LIG-0.35  N 
ATOM     27 H    LYS P   4       3.288  18.150  -5.542  1.00 41.15 LIG 0.16  HD
BRANCH 26 28
ATOM     28  CA  LYS P   4       3.602  16.559  -4.500  1.00 40.89 LIG 0.16  C 
BRANCH 28 29
ATOM     29  CB  LYS P   4       4.985  15.988  -4.163  1.00 40.64 LIG 0.03  C 
BRANCH 29 30
ATOM     30  CG  LYS P   4       4.935  14.768  -3.254  1.00 49.46 LIG 0.00  C 
BRANCH 30 31
ATOM     31  CD  LYS P   4       4.416  13.537  -3.980  1.00 47.65 LIG 0.03  C 
BRANCH 31 32
ATOM     32  CE  LYS P   4       4.262  12.324  -3.072  1.00 46.32 LIG 0.23  C 
BRANCH 32 33
ATOM     33  NZ  LYS P   4       5.375  12.217  -2.095  1.00 44.97 LIG-0.08  N 
ATOM     34 HZ3  LYS P   4       6.149  12.170  -2.531  1.00 44.97 LIG 0.27  HD
ATOM     35 HZ1  LYS P   4       5.376  12.933  -1.566  1.00 44.97 LIG 0.27  HD
ATOM     36 HZ2  LYS P   4       5.267  11.484  -1.601  1.00 44.97 LIG 0.27  HD
ENDBRANCH 32 33
ENDBRANCH 31 32
ENDBRANCH 30 31
ENDBRANCH 29 30
ENDBRANCH 28 29
BRANCH 28 37
ATOM     37  C   LYS P   4       2.652  16.393  -3.319  1.00 40.96 LIG 0.22  C 
ATOM     38 O    LYS P   4       1.463  16.685  -3.430  1.00 40.89 LIG-0.29  OA
ENDBRANCH 28 37
ENDBRANCH 26 28
ENDBRANCH 22 24
ENDBRANCH 3 22
TORSDOF 16
ENDMDL
MODEL 11
USER: ADFR SOLUTION from run 36
USER: SCORE 14.112910 LL:  -1.928 LR: -13.004 RR:   0.000 FEB:  -8.231
USER: RMSD 9.405606
USER: SEED 35
USER: STATUS no improvement in best 17 clusters for 5 generations
USER: GENES 18
USER: genes 0 Translation |==|  0.50074 0.60164 0.53769
USER: genes 1 Rotation |==|  0.52762 0.65825 0.95590 0.62787
USER: genes 2 Torsion [N]-C--CA-[N] |==|  0.44444
USER: genes 3 Torsion [C]-CA--CB-[CG2] |==|  0.58912
USER: genes 4 Torsion [CA]-CB--CG1-[CD1] |==|  0.32945
USER: genes 5 Torsion [C]-CA--N-[C] |==|  0.75264
USER: genes 6 Torsion [N]-C--CA-[N] |==|  0.04333
USER: genes 7 Torsion [C]-CA--CB-[CG1] |==|  0.50876
USER: genes 8 Torsion [C]-CA--N-[H2] |==|  0.49144
USER: genes 9 Torsion [C]-N--CA-[CB] |==|  0.16921
USER: genes 10 Torsion [N]-CA--C-[N] |==|  0.57531
USER: genes 11 Torsion [C]-N--CA-[CB] |==|  0.42607
USER: genes 12 Torsion [N]-CA--CB-[CG] |==|  0.62584
USER: genes 13 Torsion [CA]-CB--CG-[CD] |==|  0.39466
USER: genes 14 Torsion [CB]-CG--CD-[CE] |==|  0.17867
USER: genes 15 Torsion [CG]-CD--CE-[NZ] |==|  0.57597
USER: genes 16 Torsion [CD]-CE--NZ-[HZ3] |==|  0.70262
USER: genes 17 Torsion [N]-CA--C-[O] |==|  0.94757
ROOT
ATOM      1  C   ILE P   2       5.772  23.859  -4.549  1.00 41.40 LIG 0.24  C 
ATOM      2 O    ILE P   2       4.756  24.427  -4.979  1.00 41.61 LIG-0.27  OA
ATOM      3  N   ALA P   3       5.856  22.572  -4.217  1.00 41.46 LIG-0.35  N 
ATOM      4 H    ALA P   3       6.607  22.231  -3.972  1.00 41.46 LIG 0.16  HD
ENDROOT
BRANCH 1 5
ATOM      5  CA  ILE P   2       7.089  24.592  -4.321  1.00 41.22 LIG 0.18  C 
BRANCH 5 6
ATOM      6  CB  ILE P   2       7.104  24.843  -2.822  1.00 41.07 LIG 0.01  C 
ATOM      7  CG2 ILE P   2       7.829  26.142  -2.502  1.00 40.92 LIG 0.01  C 
BRANCH 6 8
ATOM      8  CG1 ILE P   2       5.675  24.880  -2.301  1.00 41.09 LIG 0.00  C 
ATOM      9  CD1 ILE P   2       5.374  23.808  -1.280  1.00 41.85 LIG 0.01  C 
ENDBRANCH 6 8
ENDBRANCH 5 6
BRANCH 5 10
ATOM     10  N   ILE P   2       7.356  25.846  -4.996  1.00 40.98 LIG-0.35  N 
ATOM     11  C   VAL P   1       7.934  25.704  -6.181  1.00 40.89 LIG 0.25  C 
ATOM     12 O    VAL P   1       8.101  24.606  -6.707  1.00 40.76 LIG-0.27  OA
ATOM     13 H    ILE P   2       7.131  26.576  -4.601  1.00 40.98 LIG 0.16  HD
BRANCH 11 14
ATOM     14  CA  VAL P   1       8.393  26.956  -6.928  1.00 40.81 LIG 0.28  C 
BRANCH 14 15
ATOM     15  CB  VAL P   1       9.763  26.704  -7.572  1.00 40.75 LIG 0.02  C 
ATOM     16  CG1 VAL P   1      10.271  27.963  -8.255  1.00 40.27 LIG 0.01  C 
ATOM     17  CG2 VAL P   1      10.771  26.234  -6.533  1.00 40.35 LIG 0.01  C 
ENDBRANCH 14 15
BRANCH 14 18
ATOM     18  N   VAL P   1       8.443  28.109  -6.052  1.00 41.10 LIG-0.07  N 
ATOM     19 H1   VAL P   1       8.980  27.935  -5.364  1.00 41.10 LIG 0.28  HD
ATOM     20 H3   VAL P   1       7.625  28.289  -5.751  1.00 41.10 LIG 0.28  HD
ATOM     21 H2   VAL P   1       8.755  28.811  -6.502  1.00 41.10 LIG 0.28  HD
ENDBRANCH 14 18
ENDBRANCH 11 14
ENDBRANCH 5 10
ENDBRANCH 1 5
BRANCH 3 22
ATOM     22  CA  ALA P   3       4.797  21.577  -4.203  1.00 41.49 LIG 0.17  C 
ATOM     23  CB  ALA P   3       4.247  21.440  -5.615  1.00 41.44 LIG 0.04  C 
BRANCH 22 24
ATOM     24  C   ALA P   3       5.134  20.209  -3.649  1.00 41.37 LIG 0.24  C 
ATOM     25 O    ALA P   3       6.000  20.022  -2.794  1.00 41.45 LIG-0.27  OA
ATOM     26  N   LYS P   4       4.362  19.233  -4.180  1.00 41.15 LIG-0.35  N 
ATOM     27 H    LYS P   4       3.710  19.429  -4.704  1.00 41.15 LIG 0.16  HD
BRANCH 26 28
ATOM     28  CA  LYS P   4       4.467  17.807  -3.991  1.00 40.89 LIG 0.16  C 
BRANCH 28 29
ATOM     29  CB  LYS P   4       3.068  17.218  -4.206  1.00 40.64 LIG 0.03  C 
BRANCH 29 30
ATOM     30  CG  LYS P   4       2.667  16.199  -3.149  1.00 49.46 LIG 0.00  C 
BRANCH 30 31
ATOM     31  CD  LYS P   4       1.197  16.311  -2.779  1.00 47.65 LIG 0.03  C 
BRANCH 31 32
ATOM     32  CE  LYS P   4       0.259  15.985  -3.933  1.00 46.32 LIG 0.23  C 
BRANCH 32 33
ATOM     33  NZ  LYS P   4      -1.044  16.684  -3.805  1.00 44.97 LIG-0.08  N 
ATOM     34 HZ3  LYS P   4      -1.673  16.099  -3.576  1.00 44.97 LIG 0.27  HD
ATOM     35 HZ1  LYS P   4      -0.982  17.314  -3.179  1.00 44.97 LIG 0.27  HD
ATOM     36 HZ2  LYS P   4      -1.257  17.060  -4.584  1.00 44.97 LIG 0.27  HD
ENDBRANCH 32 33
ENDBRANCH 31 32
ENDBRANCH 30 31
ENDBRANCH 29 30
ENDBRANCH 28 29
BRANCH 28 37
ATOM     37  C   LYS P   4       5.474  17.154  -4.933  1.00 40.96 LIG 0.22  C 
ATOM     38 O    LYS P   4       5.838  17.733  -5.954  1.00 40.89 LIG-0.29  OA
ENDBRANCH 28 37
ENDBRANCH 26 28
ENDBRANCH 22 24
ENDBRANCH 3 22
TORSDOF 16
ENDMDL
MODEL 12
USER: ADFR SOLUTION from run 116
USER: SCORE 14.626531 LL:  -2.061 LR: -12.979 RR:   0.000 FEB:  -8.206
USER: RMSD 8.496200
USER: SEED 115
USER: STATUS no improvement in best 10 clusters for 5 generations
USER: GENES 18
USER: genes 0 Translation |==|  0.60533 0.66503 0.37683
USER: genes 1 Rotation |==|  0.26648 0.68395 0.33524 0.86672
USER: genes 2 Torsion [N]-C--CA-[N] |==|  0.41544
USER: genes 3 Torsion [C]-CA--CB-[CG2] |==|  0.31636
USER: genes 4 Torsion [CA]-CB--CG1-[CD1] |==|  0.55621
USER: genes 5 Torsion [C]-CA--N-[C] |==|  0.61006
USER: genes 6 Torsion [N]-C--CA-[N] |==|  0.26929
USER: genes 7 Torsion [C]-CA--CB-[CG1] |==|  0.21999
USER: genes 8 Torsion [C]-CA--N-[H2] |==|  0.53716
USER: genes 9 Torsion [C]-N--CA-[CB] |==|  0.74556
USER: genes 10 Torsion [N]-CA--C-[N] |==|  0.20612
USER: genes 11 Torsion [C]-N--CA-[CB] |==|  0.44724
USER: genes 12 Torsion [N]-CA--CB-[CG] |==|  0.11083
USER: genes 13 Torsion [CA]-CB--CG-[CD] |==|  0.30071
USER: genes 14 Torsion [CB]-CG--CD-[CE] |==|  0.52954
USER: genes 15 Torsion [CG]-CD--CE-[NZ] |==|  0.90412
USER: genes 16 Torsion [CD]-CE--NZ-[HZ3] |==|  0.32888
USER: genes 17 Torsion [N]-CA--C-[O] |==|  0.96655
ROOT
ATOM      1  C   ILE P   2       8.910  25.761  -9.375  1.00 41.40 LIG 0.24  C 
ATOM      2 O    ILE P   2       9.239  24.578  -9.551  1.00 41.61 LIG-0.27  OA
ATOM      3  N   ALA P   3       8.319  26.541 -10.279  1.00 41.46 LIG-0.35  N 
ATOM      4 H    ALA P   3       8.072  27.339 -10.074  1.00 41.46 LIG 0.16  HD
ENDROOT
BRANCH 1 5
ATOM      5  CA  ILE P   2       9.169  26.501  -8.068  1.00 41.22 LIG 0.18  C 
BRANCH 5 6
ATOM      6  CB  ILE P   2      10.544  27.114  -8.268  1.00 41.07 LIG 0.01  C 
ATOM      7  CG2 ILE P   2      10.455  28.633  -8.309  1.00 40.92 LIG 0.01  C 
BRANCH 6 8
ATOM      8  CG1 ILE P   2      11.470  26.659  -7.150  1.00 41.09 LIG 0.00  C 
ATOM      9  CD1 ILE P   2      12.676  27.548  -6.961  1.00 41.85 LIG 0.01  C 
ENDBRANCH 6 8
ENDBRANCH 5 6
BRANCH 5 10
ATOM     10  N   ILE P   2       9.167  25.785  -6.808  1.00 40.98 LIG-0.35  N 
ATOM     11  C   VAL P   1       8.593  26.449  -5.814  1.00 40.89 LIG 0.25  C 
ATOM     12 O    VAL P   1       8.000  27.512  -5.986  1.00 40.76 LIG-0.27  OA
ATOM     13 H    ILE P   2       9.526  25.004  -6.785  1.00 40.98 LIG 0.16  HD
BRANCH 11 14
ATOM     14  CA  VAL P   1       8.653  25.858  -4.406  1.00 40.81 LIG 0.28  C 
BRANCH 14 15
ATOM     15  CB  VAL P   1       7.309  26.070  -3.697  1.00 40.75 LIG 0.02  C 
ATOM     16  CG1 VAL P   1       6.293  25.040  -4.161  1.00 40.27 LIG 0.01  C 
ATOM     17  CG2 VAL P   1       7.475  25.990  -2.186  1.00 40.35 LIG 0.01  C 
ENDBRANCH 14 15
BRANCH 14 18
ATOM     18  N   VAL P   1       9.735  26.435  -3.635  1.00 41.10 LIG-0.07  N 
ATOM     19 H1   VAL P   1       9.523  27.267  -3.402  1.00 41.10 LIG 0.28  HD
ATOM     20 H3   VAL P   1      10.478  26.445  -4.126  1.00 41.10 LIG 0.28  HD
ATOM     21 H2   VAL P   1       9.871  25.947  -2.903  1.00 41.10 LIG 0.28  HD
ENDBRANCH 14 18
ENDBRANCH 11 14
ENDBRANCH 5 10
ENDBRANCH 1 5
BRANCH 3 22
ATOM     22  CA  ALA P   3       8.000  26.230 -11.662  1.00 41.49 LIG 0.17  C 
ATOM     23  CB  ALA P   3       9.167  26.667 -12.534  1.00 41.44 LIG 0.04  C 
BRANCH 22 24
ATOM     24  C   ALA P   3       7.624  24.801 -11.987  1.00 41.37 LIG 0.24  C 
ATOM     25 O    ALA P   3       8.384  24.015 -12.554  1.00 41.45 LIG-0.27  OA
ATOM     26  N   LYS P   4       6.379  24.484 -11.561  1.00 41.15 LIG-0.35  N 
ATOM     27 H    LYS P   4       5.925  25.041 -11.088  1.00 41.15 LIG 0.16  HD
BRANCH 26 28
ATOM     28  CA  LYS P   4       5.636  23.270 -11.792  1.00 40.89 LIG 0.16  C 
BRANCH 28 29
ATOM     29  CB  LYS P   4       4.527  23.212 -10.735  1.00 40.64 LIG 0.03  C 
BRANCH 29 30
ATOM     30  CG  LYS P   4       3.876  24.560 -10.461  1.00 49.46 LIG 0.00  C 
BRANCH 30 31
ATOM     31  CD  LYS P   4       2.464  24.635 -11.020  1.00 47.65 LIG 0.03  C 
BRANCH 31 32
ATOM     32  CE  LYS P   4       1.881  26.041 -10.993  1.00 46.32 LIG 0.23  C 
BRANCH 32 33
ATOM     33  NZ  LYS P   4       2.338  26.810  -9.808  1.00 44.97 LIG-0.08  N 
ATOM     34 HZ3  LYS P   4       2.794  27.525 -10.076  1.00 44.97 LIG 0.27  HD
ATOM     35 HZ1  LYS P   4       1.632  27.069  -9.332  1.00 44.97 LIG 0.27  HD
ATOM     36 HZ2  LYS P   4       2.862  26.295  -9.304  1.00 44.97 LIG 0.27  HD
ENDBRANCH 32 33
ENDBRANCH 31 32
ENDBRANCH 30 31
ENDBRANCH 29 30
ENDBRANCH 28 29
BRANCH 28 37
ATOM     37  C   LYS P   4       5.044  23.192 -13.195  1.00 40.96 LIG 0.22  C 
ATOM     38 O    LYS P   4       5.027  24.184 -13.920  1.00 40.89 LIG-0.29  OA
ENDBRANCH 28 37
ENDBRANCH 26 28
ENDBRANCH 22 24
ENDBRANCH 3 22
TORSDOF 16
ENDMDL
MODEL 13
USER: ADFR SOLUTION from run 36
USER: SCORE 14.653837 LL:  -2.013 LR: -12.961 RR:   0.000 FEB:  -8.188
USER: RMSD 8.050392
USER: SEED 35
USER: STATUS no improvement in best 17 clusters for 5 generations
USER: GENES 18
USER: genes 0 Translation |==|  0.50678 0.60831 0.56080
USER: genes 1 Rotation |==|  0.44309 0.70589 0.94026 0.60269
USER: genes 2 Torsion [N]-C--CA-[N] |==|  0.44203
USER: genes 3 Torsion [C]-CA--CB-[CG2] |==|  0.96671
USER: genes 4 Torsion [CA]-CB--CG1-[CD1] |==|  0.38461
USER: genes 5 Torsion [C]-CA--N-[C] |==|  0.78648
USER: genes 6 Torsion [N]-C--CA-[N] |==|  0.05711
USER: genes 7 Torsion [C]-CA--CB-[CG1] |==|  0.53339
USER: genes 8 Torsion [C]-CA--N-[H2] |==|  0.44762
USER: genes 9 Torsion [C]-N--CA-[CB] |==|  0.75732
USER: genes 10 Torsion [N]-CA--C-[N] |==|  0.28333
USER: genes 11 Torsion [C]-N--CA-[CB] |==|  0.22352
USER: genes 12 Torsion [N]-CA--CB-[CG] |==|  0.74427
USER: genes 13 Torsion [CA]-CB--CG-[CD] |==|  0.34703
USER: genes 14 Torsion [CB]-CG--CD-[CE] |==|  0.35510
USER: genes 15 Torsion [CG]-CD--CE-[NZ] |==|  0.36158
USER: genes 16 Torsion [CD]-CE--NZ-[HZ3] |==|  0.68791
USER: genes 17 Torsion [N]-CA--C-[O] |==|  0.01751
ROOT
ATOM      1  C   ILE P   2       5.953  24.059  -3.856  1.00 41.40 LIG 0.24  C 
ATOM      2 O    ILE P   2       4.997  24.265  -4.619  1.00 41.61 LIG-0.27  OA
ATOM      3  N   ALA P   3       6.156  22.945  -3.154  1.00 41.46 LIG-0.35  N 
ATOM      4 H    ALA P   3       6.868  22.850  -2.681  1.00 41.46 LIG 0.16  HD
ENDROOT
BRANCH 1 5
ATOM      5  CA  ILE P   2       7.040  25.098  -3.600  1.00 41.22 LIG 0.18  C 
BRANCH 5 6
ATOM      6  CB  ILE P   2       6.634  25.723  -2.277  1.00 41.07 LIG 0.01  C 
ATOM      7  CG2 ILE P   2       5.219  25.311  -1.899  1.00 40.92 LIG 0.01  C 
BRANCH 6 8
ATOM      8  CG1 ILE P   2       7.623  25.310  -1.197  1.00 41.09 LIG 0.00  C 
ATOM      9  CD1 ILE P   2       8.001  26.432  -0.259  1.00 41.85 LIG 0.01  C 
ENDBRANCH 6 8
ENDBRANCH 5 6
BRANCH 5 10
ATOM     10  N   ILE P   2       7.275  26.162  -4.555  1.00 40.98 LIG-0.35  N 
ATOM     11  C   VAL P   1       7.944  25.777  -5.633  1.00 40.89 LIG 0.25  C 
ATOM     12 O    VAL P   1       8.215  24.599  -5.856  1.00 40.76 LIG-0.27  OA
ATOM     13 H    ILE P   2       6.978  26.947  -4.369  1.00 40.98 LIG 0.16  HD
BRANCH 11 14
ATOM     14  CA  VAL P   1       8.374  26.836  -6.647  1.00 40.81 LIG 0.28  C 
BRANCH 14 15
ATOM     15  CB  VAL P   1       9.749  26.473  -7.225  1.00 40.75 LIG 0.02  C 
ATOM     16  CG1 VAL P   1      10.327  27.643  -8.002  1.00 40.27 LIG 0.01  C 
ATOM     17  CG2 VAL P   1      10.709  26.058  -6.119  1.00 40.35 LIG 0.01  C 
ENDBRANCH 14 15
BRANCH 14 18
ATOM     18  N   VAL P   1       8.401  28.157  -6.055  1.00 41.10 LIG-0.07  N 
ATOM     19 H1   VAL P   1       8.747  28.109  -5.236  1.00 41.10 LIG 0.28  HD
ATOM     20 H3   VAL P   1       7.573  28.479  -6.008  1.00 41.10 LIG 0.28  HD
ATOM     21 H2   VAL P   1       8.901  28.698  -6.556  1.00 41.10 LIG 0.28  HD
ENDBRANCH 14 18
ENDBRANCH 11 14
ENDBRANCH 5 10
ENDBRANCH 1 5
BRANCH 3 22
ATOM     22  CA  ALA P   3       5.298  21.776  -3.056  1.00 41.49 LIG 0.17  C 
ATOM     23  CB  ALA P   3       4.297  22.008  -1.934  1.00 41.44 LIG 0.04  C 
BRANCH 22 24
ATOM     24  C   ALA P   3       4.571  21.339  -4.309  1.00 41.37 LIG 0.24  C 
ATOM     25 O    ALA P   3       3.570  21.910  -4.744  1.00 41.45 LIG-0.27  OA
ATOM     26  N   LYS P   4       5.159  20.274  -4.903  1.00 41.15 LIG-0.35  N 
ATOM     27 H    LYS P   4       5.909  19.971  -4.610  1.00 41.15 LIG 0.16  HD
BRANCH 26 28
ATOM     28  CA  LYS P   4       4.694  19.510  -6.034  1.00 40.89 LIG 0.16  C 
BRANCH 28 29
ATOM     29  CB  LYS P   4       5.060  20.301  -7.295  1.00 40.64 LIG 0.03  C 
BRANCH 29 30
ATOM     30  CG  LYS P   4       3.959  21.240  -7.766  1.00 49.46 LIG 0.00  C 
BRANCH 30 31
ATOM     31  CD  LYS P   4       4.450  22.672  -7.901  1.00 47.65 LIG 0.03  C 
BRANCH 31 32
ATOM     32  CE  LYS P   4       4.145  23.287  -9.260  1.00 46.32 LIG 0.23  C 
BRANCH 32 33
ATOM     33  NZ  LYS P   4       3.500  24.619  -9.135  1.00 44.97 LIG-0.08  N 
ATOM     34 HZ3  LYS P   4       2.660  24.570  -9.424  1.00 44.97 LIG 0.27  HD
ATOM     35 HZ1  LYS P   4       3.506  24.872  -8.283  1.00 44.97 LIG 0.27  HD
ATOM     36 HZ2  LYS P   4       3.948  25.213  -9.625  1.00 44.97 LIG 0.27  HD
ENDBRANCH 32 33
ENDBRANCH 31 32
ENDBRANCH 30 31
ENDBRANCH 29 30
ENDBRANCH 28 29
BRANCH 28 37
ATOM     37  C   LYS P   4       5.290  18.107  -6.090  1.00 40.96 LIG 0.22  C 
ATOM     38 O    LYS P   4       5.988  17.689  -5.168  1.00 40.89 LIG-0.29  OA
ENDBRANCH 28 37
ENDBRANCH 26 28
ENDBRANCH 22 24
ENDBRANCH 3 22
TORSDOF 16
ENDMDL
MODEL 14
USER: ADFR SOLUTION from run 52
USER: SCORE 14.516859 LL:  -2.207 LR: -12.936 RR:   0.000 FEB:  -8.164
USER: RMSD 9.561368
USER: SEED 51
USER: STATUS no improvement in best 11 clusters for 5 generations
USER: GENES 18
USER: genes 0 Translation |==|  0.56942 0.63375 0.56985
USER: genes 1 Rotation |==|  0.89670 0.48657 0.76743 0.64466
USER: genes 2 Torsion [N]-C--CA-[N] |==|  0.34212
USER: genes 3 Torsion [C]-CA--CB-[CG2] |==|  0.22882
USER: genes 4 Torsion [CA]-CB--CG1-[CD1] |==|  0.76295
USER: genes 5 Torsion [C]-CA--N-[C] |==|  0.65326
USER: genes 6 Torsion [N]-C--CA-[N] |==|  0.91496
USER: genes 7 Torsion [C]-CA--CB-[CG1] |==|  0.42047
USER: genes 8 Torsion [C]-CA--N-[H2] |==|  0.46076
USER: genes 9 Torsion [C]-N--CA-[CB] |==|  0.19846
USER: genes 10 Torsion [N]-CA--C-[N] |==|  0.03335
USER: genes 11 Torsion [C]-N--CA-[CB] |==|  0.80933
USER: genes 12 Torsion [N]-CA--CB-[CG] |==|  0.58413
USER: genes 13 Torsion [CA]-CB--CG-[CD] |==|  0.71157
USER: genes 14 Torsion [CB]-CG--CD-[CE] |==|  0.53171
USER: genes 15 Torsion [CG]-CD--CE-[NZ] |==|  0.24228
USER: genes 16 Torsion [CD]-CE--NZ-[HZ3] |==|  0.55797
USER: genes 17 Torsion [N]-CA--C-[O] |==|  0.14523
ROOT
ATOM      1  C   ILE P   2       7.832  24.822  -3.584  1.00 41.40 LIG 0.24  C 
ATOM      2 O    ILE P   2       8.163  25.451  -2.567  1.00 41.61 LIG-0.27  OA
ATOM      3  N   ALA P   3       6.806  23.978  -3.671  1.00 41.46 LIG-0.35  N 
ATOM      4 H    ALA P   3       6.603  23.612  -4.423  1.00 41.46 LIG 0.16  HD
ENDROOT
BRANCH 1 5
ATOM      5  CA  ILE P   2       8.597  24.924  -4.899  1.00 41.22 LIG 0.18  C 
BRANCH 5 6
ATOM      6  CB  ILE P   2       9.969  24.367  -4.560  1.00 41.07 LIG 0.01  C 
ATOM      7  CG2 ILE P   2       9.961  22.846  -4.618  1.00 40.92 LIG 0.01  C 
BRANCH 6 8
ATOM      8  CG1 ILE P   2      11.000  24.937  -5.524  1.00 41.09 LIG 0.00  C 
ATOM      9  CD1 ILE P   2      11.112  24.166  -6.818  1.00 41.85 LIG 0.01  C 
ENDBRANCH 6 8
ENDBRANCH 5 6
BRANCH 5 10
ATOM     10  N   ILE P   2       8.773  26.209  -5.546  1.00 40.98 LIG-0.35  N 
ATOM     11  C   VAL P   1       8.344  26.241  -6.800  1.00 40.89 LIG 0.25  C 
ATOM     12 O    VAL P   1       7.733  25.306  -7.313  1.00 40.76 LIG-0.27  OA
ATOM     13 H    ILE P   2       9.132  26.845  -5.093  1.00 40.98 LIG 0.16  HD
BRANCH 11 14
ATOM     14  CA  VAL P   1       8.602  27.497  -7.632  1.00 40.81 LIG 0.28  C 
BRANCH 14 15
ATOM     15  CB  VAL P   1       9.919  27.345  -8.406  1.00 40.75 LIG 0.02  C 
ATOM     16  CG1 VAL P   1       9.877  28.150  -9.694  1.00 40.27 LIG 0.01  C 
ATOM     17  CG2 VAL P   1      11.101  27.788  -7.556  1.00 40.35 LIG 0.01  C 
ENDBRANCH 14 15
BRANCH 14 18
ATOM     18  N   VAL P   1       8.629  28.685  -6.805  1.00 41.10 LIG-0.07  N 
ATOM     19 H1   VAL P   1       9.125  28.533  -6.082  1.00 41.10 LIG 0.28  HD
ATOM     20 H3   VAL P   1       7.800  28.893  -6.556  1.00 41.10 LIG 0.28  HD
ATOM     21 H2   VAL P   1       8.978  29.361  -7.267  1.00 41.10 LIG 0.28  HD
ENDBRANCH 14 18
ENDBRANCH 11 14
ENDBRANCH 5 10
ENDBRANCH 1 5
BRANCH 3 22
ATOM     22  CA  ALA P   3       5.907  23.545  -2.615  1.00 41.49 LIG 0.17  C 
ATOM     23  CB  ALA P   3       5.000  24.711  -2.248  1.00 41.44 LIG 0.04  C 
BRANCH 22 24
ATOM     24  C   ALA P   3       5.073  22.309  -2.873  1.00 41.37 LIG 0.24  C 
ATOM     25 O    ALA P   3       4.118  21.980  -2.169  1.00 41.45 LIG-0.27  OA
ATOM     26  N   LYS P   4       5.481  21.631  -3.970  1.00 41.15 LIG-0.35  N 
ATOM     27 H    LYS P   4       6.094  21.953  -4.479  1.00 41.15 LIG 0.16  HD
BRANCH 26 28
ATOM     28  CA  LYS P   4       5.015  20.357  -4.459  1.00 40.89 LIG 0.16  C 
BRANCH 28 29
ATOM     29  CB  LYS P   4       5.480  19.292  -3.459  1.00 40.64 LIG 0.03  C 
BRANCH 29 30
ATOM     30  CG  LYS P   4       5.743  17.933  -4.093  1.00 49.46 LIG 0.00  C 
BRANCH 30 31
ATOM     31  CD  LYS P   4       4.626  16.944  -3.805  1.00 47.65 LIG 0.03  C 
BRANCH 31 32
ATOM     32  CE  LYS P   4       4.978  15.512  -4.183  1.00 46.32 LIG 0.23  C 
BRANCH 32 33
ATOM     33  NZ  LYS P   4       5.676  14.802  -3.081  1.00 44.97 LIG-0.08  N 
ATOM     34 HZ3  LYS P   4       6.125  14.109  -3.412  1.00 44.97 LIG 0.27  HD
ATOM     35 HZ1  LYS P   4       6.242  15.359  -2.681  1.00 44.97 LIG 0.27  HD
ATOM     36 HZ2  LYS P   4       5.077  14.512  -2.489  1.00 44.97 LIG 0.27  HD
ENDBRANCH 32 33
ENDBRANCH 31 32
ENDBRANCH 30 31
ENDBRANCH 29 30
ENDBRANCH 28 29
BRANCH 28 37
ATOM     37  C   LYS P   4       3.501  20.303  -4.634  1.00 40.96 LIG 0.22  C 
ATOM     38 O    LYS P   4       2.918  21.166  -5.286  1.00 40.89 LIG-0.29  OA
ENDBRANCH 28 37
ENDBRANCH 26 28
ENDBRANCH 22 24
ENDBRANCH 3 22
TORSDOF 16
ENDMDL
MODEL 15
USER: ADFR SOLUTION from run 40
USER: SCORE 13.613554 LL:  -2.017 LR: -12.898 RR:   0.000 FEB:  -8.125
USER: RMSD 9.560845
USER: SEED 39
USER: STATUS no improvement in best 5 clusters for 5 generations
USER: GENES 18
USER: genes 0 Translation |==|  0.70485 0.65928 0.44920
USER: genes 1 Rotation |==|  0.17672 0.26706 0.78020 0.61277
USER: genes 2 Torsion [N]-C--CA-[N] |==|  0.44115
USER: genes 3 Torsion [C]-CA--CB-[CG2] |==|  0.91377
USER: genes 4 Torsion [CA]-CB--CG1-[CD1] |==|  0.08264
USER: genes 5 Torsion [C]-CA--N-[C] |==|  0.56256
USER: genes 6 Torsion [N]-C--CA-[N] |==|  0.07820
USER: genes 7 Torsion [C]-CA--CB-[CG1] |==|  0.34333
USER: genes 8 Torsion [C]-CA--N-[H2] |==|  0.84631
USER: genes 9 Torsion [C]-N--CA-[CB] |==|  0.16580
USER: genes 10 Torsion [N]-CA--C-[N] |==|  0.44494
USER: genes 11 Torsion [C]-N--CA-[CB] |==|  0.64150
USER: genes 12 Torsion [N]-CA--CB-[CG] |==|  0.04727
USER: genes 13 Torsion [CA]-CB--CG-[CD] |==|  0.31379
USER: genes 14 Torsion [CB]-CG--CD-[CE] |==|  0.71486
USER: genes 15 Torsion [CG]-CD--CE-[NZ] |==|  0.54130
USER: genes 16 Torsion [CD]-CE--NZ-[HZ3] |==|  0.47932
USER: genes 17 Torsion [N]-CA--C-[O] |==|  0.23816
ROOT
ATOM      1  C   ILE P   2      11.896  25.589  -7.204  1.00 41.40 LIG 0.24  C 
ATOM      2 O    ILE P   2      12.028  26.766  -7.572  1.00 41.61 LIG-0.27  OA
ATOM      3  N   ALA P   3      12.694  24.578  -7.545  1.00 41.46 LIG-0.35  N 
ATOM      4 H    ALA P   3      12.572  23.794  -7.214  1.00 41.46 LIG 0.16  HD
ENDROOT
BRANCH 1 5
ATOM      5  CA  ILE P   2      10.753  25.132  -6.304  1.00 41.22 LIG 0.18  C 
BRANCH 5 6
ATOM      6  CB  ILE P   2       9.751  24.530  -7.273  1.00 41.07 LIG 0.01  C 
ATOM      7  CG2 ILE P   2       9.820  25.231  -8.622  1.00 40.92 LIG 0.01  C 
BRANCH 6 8
ATOM      8  CG1 ILE P   2      10.025  23.041  -7.426  1.00 41.09 LIG 0.00  C 
ATOM      9  CD1 ILE P   2      10.625  22.405  -6.194  1.00 41.85 LIG 0.01  C 
ENDBRANCH 6 8
ENDBRANCH 5 6
BRANCH 5 10
ATOM     10  N   ILE P   2      10.059  26.084  -5.462  1.00 40.98 LIG-0.35  N 
ATOM     11  C   VAL P   1       9.446  25.535  -4.422  1.00 40.89 LIG 0.25  C 
ATOM     12 O    VAL P   1       9.574  24.347  -4.132  1.00 40.76 LIG-0.27  OA
ATOM     13 H    ILE P   2      10.086  26.915  -5.681  1.00 40.98 LIG 0.16  HD
BRANCH 11 14
ATOM     14  CA  VAL P   1       8.564  26.417  -3.539  1.00 40.81 LIG 0.28  C 
BRANCH 14 15
ATOM     15  CB  VAL P   1       7.448  25.571  -2.910  1.00 40.75 LIG 0.02  C 
ATOM     16  CG1 VAL P   1       7.482  25.685  -1.395  1.00 40.27 LIG 0.01  C 
ATOM     17  CG2 VAL P   1       6.084  25.999  -3.433  1.00 40.35 LIG 0.01  C 
ENDBRANCH 14 15
BRANCH 14 18
ATOM     18  N   VAL P   1       8.006  27.525  -4.286  1.00 41.10 LIG-0.07  N 
ATOM     19 H1   VAL P   1       7.554  28.057  -3.734  1.00 41.10 LIG 0.28  HD
ATOM     20 H3   VAL P   1       7.457  27.215  -4.914  1.00 41.10 LIG 0.28  HD
ATOM     21 H2   VAL P   1       8.664  27.986  -4.670  1.00 41.10 LIG 0.28  HD
ENDBRANCH 14 18
ENDBRANCH 11 14
ENDBRANCH 5 10
ENDBRANCH 1 5
BRANCH 3 22
ATOM     22  CA  ALA P   3      13.824  24.595  -8.459  1.00 41.49 LIG 0.17  C 
ATOM     23  CB  ALA P   3      14.848  25.591  -7.938  1.00 41.44 LIG 0.04  C 
BRANCH 22 24
ATOM     24  C   ALA P   3      14.498  23.273  -8.756  1.00 41.37 LIG 0.24  C 
ATOM     25 O    ALA P   3      14.375  22.277  -8.043  1.00 41.45 LIG-0.27  OA
ATOM     26  N   LYS P   4      15.224  23.309  -9.898  1.00 41.15 LIG-0.35  N 
ATOM     27 H    LYS P   4      15.202  24.002 -10.407  1.00 41.15 LIG 0.16  HD
BRANCH 26 28
ATOM     28  CA  LYS P   4      16.093  22.293 -10.438  1.00 40.89 LIG 0.16  C 
BRANCH 28 29
ATOM     29  CB  LYS P   4      17.433  22.968 -10.756  1.00 40.64 LIG 0.03  C 
BRANCH 29 30
ATOM     30  CG  LYS P   4      17.615  24.314 -10.069  1.00 49.46 LIG 0.00  C 
BRANCH 30 31
ATOM     31  CD  LYS P   4      18.720  24.276  -9.026  1.00 47.65 LIG 0.03  C 
BRANCH 31 32
ATOM     32  CE  LYS P   4      18.197  24.194  -7.598  1.00 46.32 LIG 0.23  C 
BRANCH 32 33
ATOM     33  NZ  LYS P   4      19.250  24.511  -6.601  1.00 44.97 LIG-0.08  N 
ATOM     34 HZ3  LYS P   4      18.887  24.560  -5.791  1.00 44.97 LIG 0.27  HD
ATOM     35 HZ1  LYS P   4      19.870  23.873  -6.611  1.00 44.97 LIG 0.27  HD
ATOM     36 HZ2  LYS P   4      19.626  25.293  -6.805  1.00 44.97 LIG 0.27  HD
ENDBRANCH 32 33
ENDBRANCH 31 32
ENDBRANCH 30 31
ENDBRANCH 29 30
ENDBRANCH 28 29
BRANCH 28 37
ATOM     37  C   LYS P   4      16.298  21.118  -9.487  1.00 40.96 LIG 0.22  C 
ATOM     38 O    LYS P   4      15.500  20.183  -9.471  1.00 40.89 LIG-0.29  OA
ENDBRANCH 28 37
ENDBRANCH 26 28
ENDBRANCH 22 24
ENDBRANCH 3 22
TORSDOF 16
ENDMDL
MODEL 16
USER: ADFR SOLUTION from run 150
USER: SCORE 13.881363 LL:  -1.791 LR: -12.878 RR:   0.000 FEB:  -8.105
USER: RMSD 8.195331
USER: SEED 149
USER: STATUS no improvement in best 8 clusters for 5 generations
USER: GENES 18
USER: genes 0 Translation |==|  0.52771 0.56996 0.47014
USER: genes 1 Rotation |==|  0.96189 0.32522 0.56470 0.54386
USER: genes 2 Torsion [N]-C--CA-[N] |==|  0.40840
USER: genes 3 Torsion [C]-CA--CB-[CG2] |==|  0.07396
USER: genes 4 Torsion [CA]-CB--CG1-[CD1] |==|  0.25758
USER: genes 5 Torsion [C]-CA--N-[C] |==|  0.83881
USER: genes 6 Torsion [N]-C--CA-[N] |==|  0.41458
USER: genes 7 Torsion [C]-CA--CB-[CG1] |==|  0.88983
USER: genes 8 Torsion [C]-CA--N-[H2] |==|  0.31281
USER: genes 9 Torsion [C]-N--CA-[CB] |==|  0.90552
USER: genes 10 Torsion [N]-CA--C-[N] |==|  0.80717
USER: genes 11 Torsion [C]-N--CA-[CB] |==|  0.82274
USER: genes 12 Torsion [N]-CA--CB-[CG] |==|  0.81343
USER: genes 13 Torsion [CA]-CB--CG-[CD] |==|  0.76755
USER: genes 14 Torsion [CB]-CG--CD-[CE] |==|  0.54372
USER: genes 15 Torsion [CG]-CD--CE-[NZ] |==|  0.57563
USER: genes 16 Torsion [CD]-CE--NZ-[HZ3] |==|  0.38589
USER: genes 17 Torsion [N]-CA--C-[O] |==|  0.97020
ROOT
ATOM      1  C   ILE P   2       6.581  22.909  -6.576  1.00 41.40 LIG 0.24  C 
ATOM      2 O    ILE P   2       7.521  22.392  -5.952  1.00 41.61 LIG-0.27  OA
ATOM      3  N   ALA P   3       5.288  22.715  -6.324  1.00 41.46 LIG-0.35  N 
ATOM      4 H    ALA P   3       4.687  23.145  -6.765  1.00 41.46 LIG 0.16  HD
ENDROOT
BRANCH 1 5
ATOM      5  CA  ILE P   2       6.796  23.843  -7.761  1.00 41.22 LIG 0.18  C 
BRANCH 5 6
ATOM      6  CB  ILE P   2       6.887  22.900  -8.949  1.00 41.07 LIG 0.01  C 
ATOM      7  CG2 ILE P   2       6.121  21.614  -8.674  1.00 40.92 LIG 0.01  C 
BRANCH 6 8
ATOM      8  CG1 ILE P   2       6.345  23.595 -10.190  1.00 41.09 LIG 0.00  C 
ATOM      9  CD1 ILE P   2       7.407  24.297 -11.004  1.00 41.85 LIG 0.01  C 
ENDBRANCH 6 8
ENDBRANCH 5 6
BRANCH 5 10
ATOM     10  N   ILE P   2       7.940  24.731  -7.795  1.00 40.98 LIG-0.35  N 
ATOM     11  C   VAL P   1       8.004  25.563  -6.765  1.00 40.89 LIG 0.25  C 
ATOM     12 O    VAL P   1       7.237  25.488  -5.807  1.00 40.76 LIG-0.27  OA
ATOM     13 H    ILE P   2       8.485  24.666  -8.457  1.00 40.98 LIG 0.16  HD
BRANCH 11 14
ATOM     14  CA  VAL P   1       9.086  26.642  -6.759  1.00 40.81 LIG 0.28  C 
BRANCH 14 15
ATOM     15  CB  VAL P   1      10.372  26.084  -6.133  1.00 40.75 LIG 0.02  C 
ATOM     16  CG1 VAL P   1      10.045  25.201  -4.940  1.00 40.27 LIG 0.01  C 
ATOM     17  CG2 VAL P   1      11.175  25.296  -7.157  1.00 40.35 LIG 0.01  C 
ENDBRANCH 14 15
BRANCH 14 18
ATOM     18  N   VAL P   1       8.648  27.829  -6.055  1.00 41.10 LIG-0.07  N 
ATOM     19 H1   VAL P   1       7.786  27.750  -5.847  1.00 41.10 LIG 0.28  HD
ATOM     20 H3   VAL P   1       8.763  28.543  -6.575  1.00 41.10 LIG 0.28  HD
ATOM     21 H2   VAL P   1       9.124  27.926  -5.309  1.00 41.10 LIG 0.28  HD
ENDBRANCH 14 18
ENDBRANCH 11 14
ENDBRANCH 5 10
ENDBRANCH 1 5
BRANCH 3 22
ATOM     22  CA  ALA P   3       4.686  21.826  -5.345  1.00 41.49 LIG 0.17  C 
ATOM     23  CB  ALA P   3       5.557  20.584  -5.225  1.00 41.44 LIG 0.04  C 
BRANCH 22 24
ATOM     24  C   ALA P   3       4.406  22.390  -3.969  1.00 41.37 LIG 0.24  C 
ATOM     25 O    ALA P   3       3.269  22.576  -3.534  1.00 41.45 LIG-0.27  OA
ATOM     26  N   LYS P   4       5.539  22.639  -3.273  1.00 41.15 LIG-0.35  N 
ATOM     27 H    LYS P   4       6.304  22.406  -3.587  1.00 41.15 LIG 0.16  HD
BRANCH 26 28
ATOM     28  CA  LYS P   4       5.677  23.284  -1.990  1.00 40.89 LIG 0.16  C 
BRANCH 28 29
ATOM     29  CB  LYS P   4       5.190  24.728  -2.155  1.00 40.64 LIG 0.03  C 
BRANCH 29 30
ATOM     30  CG  LYS P   4       6.082  25.572  -3.055  1.00 49.46 LIG 0.00  C 
BRANCH 30 31
ATOM     31  CD  LYS P   4       7.269  26.149  -2.302  1.00 47.65 LIG 0.03  C 
BRANCH 31 32
ATOM     32  CE  LYS P   4       7.960  27.284  -3.046  1.00 46.32 LIG 0.23  C 
BRANCH 32 33
ATOM     33  NZ  LYS P   4       9.394  27.396  -2.680  1.00 44.97 LIG-0.08  N 
ATOM     34 HZ3  LYS P   4       9.875  27.560  -3.410  1.00 44.97 LIG 0.27  HD
ATOM     35 HZ1  LYS P   4       9.502  28.061  -2.099  1.00 44.97 LIG 0.27  HD
ATOM     36 HZ2  LYS P   4       9.667  26.632  -2.311  1.00 44.97 LIG 0.27  HD
ENDBRANCH 32 33
ENDBRANCH 31 32
ENDBRANCH 30 31
ENDBRANCH 29 30
ENDBRANCH 28 29
BRANCH 28 37
ATOM     37  C   LYS P   4       4.899  22.580  -0.883  1.00 40.96 LIG 0.22  C 
ATOM     38 O    LYS P   4       4.090  21.695  -1.155  1.00 40.89 LIG-0.29  OA
ENDBRANCH 28 37
ENDBRANCH 26 28
ENDBRANCH 22 24
ENDBRANCH 3 22
TORSDOF 16
ENDMDL
MODEL 17
USER: ADFR SOLUTION from run 7
USER: SCORE 13.978270 LL:  -2.064 LR: -12.863 RR:   0.000 FEB:  -8.090
USER: RMSD 9.631067
USER: SEED 762291
USER: STATUS no improvement in best 10 clusters for 5 generations
USER: GENES 18
USER: genes 0 Translation |==|  0.67018 0.66118 0.43000
USER: genes 1 Rotation |==|  0.62249 0.49052 0.22344 0.89802
USER: genes 2 Torsion [N]-C--CA-[N] |==|  0.87222
USER: genes 3 Torsion [C]-CA--CB-[CG2] |==|  0.73888
USER: genes 4 Torsion [CA]-CB--CG1-[CD1] |==|  0.63470
USER: genes 5 Torsion [C]-CA--N-[C] |==|  0.71130
USER: genes 6 Torsion [N]-C--CA-[N] |==|  0.90498
USER: genes 7 Torsion [C]-CA--CB-[CG1] |==|  0.07002
USER: genes 8 Torsion [C]-CA--N-[H2] |==|  0.56157
USER: genes 9 Torsion [C]-N--CA-[CB] |==|  0.67745
USER: genes 10 Torsion [N]-CA--C-[N] |==|  0.69954
USER: genes 11 Torsion [C]-N--CA-[CB] |==|  0.40151
USER: genes 12 Torsion [N]-CA--CB-[CG] |==|  0.58228
USER: genes 13 Torsion [CA]-CB--CG-[CD] |==|  0.05360
USER: genes 14 Torsion [CB]-CG--CD-[CE] |==|  0.46179
USER: genes 15 Torsion [CG]-CD--CE-[NZ] |==|  0.18027
USER: genes 16 Torsion [CD]-CE--NZ-[HZ3] |==|  0.95535
USER: genes 17 Torsion [N]-CA--C-[O] |==|  0.49534
ROOT
ATOM      1  C   ILE P   2      10.855  25.646  -7.780  1.00 41.40 LIG 0.24  C 
ATOM      2 O    ILE P   2      11.230  24.644  -8.409  1.00 41.61 LIG-0.27  OA
ATOM      3  N   ALA P   3      11.590  26.733  -7.551  1.00 41.46 LIG-0.35  N 
ATOM      4 H    ALA P   3      11.251  27.413  -7.148  1.00 41.46 LIG 0.16  HD
ENDROOT
BRANCH 1 5
ATOM      5  CA  ILE P   2       9.470  25.752  -7.152  1.00 41.22 LIG 0.18  C 
BRANCH 5 6
ATOM      6  CB  ILE P   2       8.732  26.710  -8.072  1.00 41.07 LIG 0.01  C 
ATOM      7  CG2 ILE P   2       8.831  28.137  -7.553  1.00 40.92 LIG 0.01  C 
BRANCH 6 8
ATOM      8  CG1 ILE P   2       9.306  26.606  -9.477  1.00 41.09 LIG 0.00  C 
ATOM      9  CD1 ILE P   2       9.626  27.943 -10.102  1.00 41.85 LIG 0.01  C 
ENDBRANCH 6 8
ENDBRANCH 5 6
BRANCH 5 10
ATOM     10  N   ILE P   2       9.319  26.220  -5.789  1.00 40.98 LIG-0.35  N 
ATOM     11  C   VAL P   1       9.064  25.255  -4.916  1.00 40.89 LIG 0.25  C 
ATOM     12 O    VAL P   1       9.091  24.065  -5.221  1.00 40.76 LIG-0.27  OA
ATOM     13 H    ILE P   2       9.399  27.063  -5.638  1.00 40.98 LIG 0.16  HD
BRANCH 11 14
ATOM     14  CA  VAL P   1       8.746  25.638  -3.471  1.00 40.81 LIG 0.28  C 
BRANCH 14 15
ATOM     15  CB  VAL P   1       7.237  25.870  -3.316  1.00 40.75 LIG 0.02  C 
ATOM     16  CG1 VAL P   1       6.467  25.092  -4.370  1.00 40.27 LIG 0.01  C 
ATOM     17  CG2 VAL P   1       6.767  25.465  -1.926  1.00 40.35 LIG 0.01  C 
ENDBRANCH 14 15
BRANCH 14 18
ATOM     18  N   VAL P   1       9.489  26.811  -3.057  1.00 41.10 LIG-0.07  N 
ATOM     19 H1   VAL P   1       9.070  27.543  -3.341  1.00 41.10 LIG 0.28  HD
ATOM     20 H3   VAL P   1      10.307  26.783  -3.406  1.00 41.10 LIG 0.28  HD
ATOM     21 H2   VAL P   1       9.546  26.828  -2.169  1.00 41.10 LIG 0.28  HD
ENDBRANCH 14 18
ENDBRANCH 11 14
ENDBRANCH 5 10
ENDBRANCH 1 5
BRANCH 3 22
ATOM     22  CA  ALA P   3      12.981  26.968  -7.900  1.00 41.49 LIG 0.17  C 
ATOM     23  CB  ALA P   3      13.778  27.134  -6.615  1.00 41.44 LIG 0.04  C 
BRANCH 22 24
ATOM     24  C   ALA P   3      13.656  25.950  -8.794  1.00 41.37 LIG 0.24  C 
ATOM     25 O    ALA P   3      13.417  25.845  -9.998  1.00 41.45 LIG-0.27  OA
ATOM     26  N   LYS P   4      14.561  25.196  -8.128  1.00 41.15 LIG-0.35  N 
ATOM     27 H    LYS P   4      14.756  25.372  -7.309  1.00 41.15 LIG 0.16  HD
BRANCH 26 28
ATOM     28  CA  LYS P   4      15.306  24.059  -8.608  1.00 40.89 LIG 0.16  C 
BRANCH 28 29
ATOM     29  CB  LYS P   4      16.691  24.118  -7.954  1.00 40.64 LIG 0.03  C 
BRANCH 29 30
ATOM     30  CG  LYS P   4      17.793  23.502  -8.805  1.00 49.46 LIG 0.00  C 
BRANCH 30 31
ATOM     31  CD  LYS P   4      17.391  23.395 -10.267  1.00 47.65 LIG 0.03  C 
BRANCH 31 32
ATOM     32  CE  LYS P   4      18.563  23.101 -11.193  1.00 46.32 LIG 0.23  C 
BRANCH 32 33
ATOM     33  NZ  LYS P   4      19.158  21.767 -10.930  1.00 44.97 LIG-0.08  N 
ATOM     34 HZ3  LYS P   4      18.884  21.471 -10.137  1.00 44.97 LIG 0.27  HD
ATOM     35 HZ1  LYS P   4      18.902  21.197 -11.563  1.00 44.97 LIG 0.27  HD
ATOM     36 HZ2  LYS P   4      20.047  21.832 -10.931  1.00 44.97 LIG 0.27  HD
ENDBRANCH 32 33
ENDBRANCH 31 32
ENDBRANCH 30 31
ENDBRANCH 29 30
ENDBRANCH 28 29
BRANCH 28 37
ATOM     37  C   LYS P   4      14.625  22.729  -8.302  1.00 40.96 LIG 0.22  C 
ATOM     38 O    LYS P   4      15.126  21.671  -8.678  1.00 40.89 LIG-0.29  OA
ENDBRANCH 28 37
ENDBRANCH 26 28
ENDBRANCH 22 24
ENDBRANCH 3 22
TORSDOF 16
ENDMDL
MODEL 18
USER: ADFR SOLUTION from run 105
USER: SCORE 14.510735 LL:  -2.172 LR: -12.839 RR:   0.000 FEB:  -8.066
USER: RMSD 5.788780
USER: SEED 104
USER: STATUS searching
USER: GENES 18
USER: genes 0 Translation |==|  0.50168 0.56718 0.50020
USER: genes 1 Rotation |==|  0.40338 0.40369 0.93389 0.70768
USER: genes 2 Torsion [N]-C--CA-[N] |==|  0.44693
USER: genes 3 Torsion [C]-CA--CB-[CG2] |==|  0.37145
USER: genes 4 Torsion [CA]-CB--CG1-[CD1] |==|  0.69301
USER: genes 5 Torsion [C]-CA--N-[C] |==|  0.80304
USER: genes 6 Torsion [N]-C--CA-[N] |==|  0.55287
USER: genes 7 Torsion [C]-CA--CB-[CG1] |==|  0.89533
USER: genes 8 Torsion [C]-CA--N-[H2] |==|  0.96316
USER: genes 9 Torsion [C]-N--CA-[CB] |==|  0.77208
USER: genes 10 Torsion [N]-CA--C-[N] |==|  0.09132
USER: genes 11 Torsion [C]-N--CA-[CB] |==|  0.48454
USER: genes 12 Torsion [N]-CA--CB-[CG] |==|  0.81655
USER: genes 13 Torsion [CA]-CB--CG-[CD] |==|  0.60575
USER: genes 14 Torsion [CB]-CG--CD-[CE] |==|  0.27625
USER: genes 15 Torsion [CG]-CD--CE-[NZ] |==|  0.28699
USER: genes 16 Torsion [CD]-CE--NZ-[HZ3] |==|  0.74695
USER: genes 17 Torsion [N]-CA--C-[O] |==|  0.55926
ROOT
ATOM      1  C   ILE P   2       5.800  22.825  -5.674  1.00 41.40 LIG 0.24  C 
ATOM      2 O    ILE P   2       5.387  23.938  -6.035  1.00 41.61 LIG-0.27  OA
ATOM      3  N   ALA P   3       5.774  21.716  -6.411  1.00 41.46 LIG-0.35  N 
ATOM      4 H    ALA P   3       6.123  20.987  -6.116  1.00 41.46 LIG 0.16  HD
ENDROOT
BRANCH 1 5
ATOM      5  CA  ILE P   2       6.389  22.575  -4.290  1.00 41.22 LIG 0.18  C 
BRANCH 5 6
ATOM      6  CB  ILE P   2       5.251  21.914  -3.531  1.00 41.07 LIG 0.01  C 
ATOM      7  CG2 ILE P   2       5.750  20.694  -2.770  1.00 40.92 LIG 0.01  C 
BRANCH 6 8
ATOM      8  CG1 ILE P   2       4.624  22.923  -2.580  1.00 41.09 LIG 0.00  C 
ATOM      9  CD1 ILE P   2       4.888  22.628  -1.122  1.00 41.85 LIG 0.01  C 
ENDBRANCH 6 8
ENDBRANCH 5 6
BRANCH 5 10
ATOM     10  N   ILE P   2       6.887  23.680  -3.496  1.00 40.98 LIG-0.35  N 
ATOM     11  C   VAL P   1       8.012  24.208  -3.957  1.00 40.89 LIG 0.25  C 
ATOM     12 O    VAL P   1       8.506  23.874  -5.032  1.00 40.76 LIG-0.27  OA
ATOM     13 H    ILE P   2       6.438  23.915  -2.801  1.00 40.98 LIG 0.16  HD
BRANCH 11 14
ATOM     14  CA  VAL P   1       8.710  25.287  -3.130  1.00 40.81 LIG 0.28  C 
BRANCH 14 15
ATOM     15  CB  VAL P   1       7.663  26.202  -2.481  1.00 40.75 LIG 0.02  C 
ATOM     16  CG1 VAL P   1       6.499  26.437  -3.430  1.00 40.27 LIG 0.01  C 
ATOM     17  CG2 VAL P   1       7.156  25.606  -1.176  1.00 40.35 LIG 0.01  C 
ENDBRANCH 14 15
BRANCH 14 18
ATOM     18  N   VAL P   1       9.635  26.057  -3.935  1.00 41.10 LIG-0.07  N 
ATOM     19 H1   VAL P   1      10.409  26.137  -3.503  1.00 41.10 LIG 0.28  HD
ATOM     20 H3   VAL P   1       9.296  26.866  -4.086  1.00 41.10 LIG 0.28  HD
ATOM     21 H2   VAL P   1       9.771  25.643  -4.711  1.00 41.10 LIG 0.28  HD
ENDBRANCH 14 18
ENDBRANCH 11 14
ENDBRANCH 5 10
ENDBRANCH 1 5
BRANCH 3 22
ATOM     22  CA  ALA P   3       5.205  21.529  -7.735  1.00 41.49 LIG 0.17  C 
ATOM     23  CB  ALA P   3       3.709  21.299  -7.587  1.00 41.44 LIG 0.04  C 
BRANCH 22 24
ATOM     24  C   ALA P   3       5.458  22.613  -8.760  1.00 41.37 LIG 0.24  C 
ATOM     25 O    ALA P   3       4.640  22.928  -9.625  1.00 41.45 LIG-0.27  OA
ATOM     26  N   LYS P   4       6.664  23.206  -8.599  1.00 41.15 LIG-0.35  N 
ATOM     27 H    LYS P   4       7.158  23.012  -7.923  1.00 41.15 LIG 0.16  HD
BRANCH 26 28
ATOM     28  CA  LYS P   4       7.300  24.185  -9.445  1.00 40.89 LIG 0.16  C 
BRANCH 28 29
ATOM     29  CB  LYS P   4       8.586  24.627  -8.737  1.00 40.64 LIG 0.03  C 
BRANCH 29 30
ATOM     30  CG  LYS P   4       8.337  25.379  -7.437  1.00 49.46 LIG 0.00  C 
BRANCH 30 31
ATOM     31  CD  LYS P   4       9.322  26.520  -7.242  1.00 47.65 LIG 0.03  C 
BRANCH 31 32
ATOM     32  CE  LYS P   4       8.750  27.879  -7.624  1.00 46.32 LIG 0.23  C 
BRANCH 32 33
ATOM     33  NZ  LYS P   4       8.375  28.679  -6.430  1.00 44.97 LIG-0.08  N 
ATOM     34 HZ3  LYS P   4       7.525  28.521  -6.223  1.00 44.97 LIG 0.27  HD
ATOM     35 HZ1  LYS P   4       8.895  28.452  -5.745  1.00 44.97 LIG 0.27  HD
ATOM     36 HZ2  LYS P   4       8.481  29.545  -6.608  1.00 44.97 LIG 0.27  HD
ENDBRANCH 32 33
ENDBRANCH 31 32
ENDBRANCH 30 31
ENDBRANCH 29 30
ENDBRANCH 28 29
BRANCH 28 37
ATOM     37  C   LYS P   4       7.613  23.653 -10.840  1.00 40.96 LIG 0.22  C 
ATOM     38 O    LYS P   4       8.473  24.191 -11.534  1.00 40.89 LIG-0.29  OA
ENDBRANCH 28 37
ENDBRANCH 26 28
ENDBRANCH 22 24
ENDBRANCH 3 22
TORSDOF 16
ENDMDL
MODEL 19
USER: ADFR SOLUTION from run 19
USER: SCORE 14.439626 LL:  -2.232 LR: -12.842 RR:   0.000 FEB:  -8.069
USER: RMSD 8.916515
USER: SEED 18
USER: STATUS no improvement in best 10 clusters for 5 generations
USER: GENES 18
USER: genes 0 Translation |==|  0.51657 0.52969 0.53147
USER: genes 1 Rotation |==|  0.54160 0.74520 0.93363 0.51032
USER: genes 2 Torsion [N]-C--CA-[N] |==|  0.79235
USER: genes 3 Torsion [C]-CA--CB-[CG2] |==|  0.28383
USER: genes 4 Torsion [CA]-CB--CG1-[CD1] |==|  0.25480
USER: genes 5 Torsion [C]-CA--N-[C] |==|  0.62832
USER: genes 6 Torsion [N]-C--CA-[N] |==|  0.43779
USER: genes 7 Torsion [C]-CA--CB-[CG1] |==|  0.99464
USER: genes 8 Torsion [C]-CA--N-[H2] |==|  0.53855
USER: genes 9 Torsion [C]-N--CA-[CB] |==|  0.80387
USER: genes 10 Torsion [N]-CA--C-[N] |==|  0.43697
USER: genes 11 Torsion [C]-N--CA-[CB] |==|  0.83569
USER: genes 12 Torsion [N]-CA--CB-[CG] |==|  0.68575
USER: genes 13 Torsion [CA]-CB--CG-[CD] |==|  0.48038
USER: genes 14 Torsion [CB]-CG--CD-[CE] |==|  0.22378
USER: genes 15 Torsion [CG]-CD--CE-[NZ] |==|  0.54023
USER: genes 16 Torsion [CD]-CE--NZ-[HZ3] |==|  0.68040
USER: genes 17 Torsion [N]-CA--C-[O] |==|  0.13566
ROOT
ATOM      1  C   ILE P   2       6.247  21.701  -4.736  1.00 41.40 LIG 0.24  C 
ATOM      2 O    ILE P   2       5.019  21.693  -4.910  1.00 41.61 LIG-0.27  OA
ATOM      3  N   ALA P   3       6.952  20.726  -4.164  1.00 41.46 LIG-0.35  N 
ATOM      4 H    ALA P   3       7.810  20.774  -4.119  1.00 41.46 LIG 0.16  HD
ENDROOT
BRANCH 1 5
ATOM      5  CA  ILE P   2       7.129  22.873  -5.149  1.00 41.22 LIG 0.18  C 
BRANCH 5 6
ATOM      6  CB  ILE P   2       8.306  22.210  -5.844  1.00 41.07 LIG 0.01  C 
ATOM      7  CG2 ILE P   2       8.171  22.323  -7.355  1.00 40.92 LIG 0.01  C 
BRANCH 6 8
ATOM      8  CG1 ILE P   2       9.602  22.850  -5.369  1.00 41.09 LIG 0.00  C 
ATOM      9  CD1 ILE P   2      10.222  22.154  -4.180  1.00 41.85 LIG 0.01  C 
ENDBRANCH 6 8
ENDBRANCH 5 6
BRANCH 5 10
ATOM     10  N   ILE P   2       7.645  23.788  -4.151  1.00 40.98 LIG-0.35  N 
ATOM     11  C   VAL P   1       7.514  25.067  -4.477  1.00 40.89 LIG 0.25  C 
ATOM     12 O    VAL P   1       6.890  25.434  -5.470  1.00 40.76 LIG-0.27  OA
ATOM     13 H    ILE P   2       7.992  23.457  -3.438  1.00 40.98 LIG 0.16  HD
BRANCH 11 14
ATOM     14  CA  VAL P   1       8.145  26.124  -3.571  1.00 40.81 LIG 0.28  C 
BRANCH 14 15
ATOM     15  CB  VAL P   1       7.250  26.359  -2.346  1.00 40.75 LIG 0.02  C 
ATOM     16  CG1 VAL P   1       5.993  25.509  -2.433  1.00 40.27 LIG 0.01  C 
ATOM     17  CG2 VAL P   1       8.000  26.047  -1.059  1.00 40.35 LIG 0.01  C 
ENDBRANCH 14 15
BRANCH 14 18
ATOM     18  N   VAL P   1       8.375  27.364  -4.282  1.00 41.10 LIG-0.07  N 
ATOM     19 H1   VAL P   1       7.600  27.780  -4.411  1.00 41.10 LIG 0.28  HD
ATOM     20 H3   VAL P   1       8.752  27.189  -5.070  1.00 41.10 LIG 0.28  HD
ATOM     21 H2   VAL P   1       8.916  27.885  -3.805  1.00 41.10 LIG 0.28  HD
ENDBRANCH 14 18
ENDBRANCH 11 14
ENDBRANCH 5 10
ENDBRANCH 1 5
BRANCH 3 22
ATOM     22  CA  ALA P   3       6.462  19.499  -3.557  1.00 41.49 LIG 0.17  C 
ATOM     23  CB  ALA P   3       5.751  19.856  -2.260  1.00 41.44 LIG 0.04  C 
BRANCH 22 24
ATOM     24  C   ALA P   3       5.574  18.612  -4.401  1.00 41.37 LIG 0.24  C 
ATOM     25 O    ALA P   3       4.945  19.019  -5.379  1.00 41.45 LIG-0.27  OA
ATOM     26  N   LYS P   4       5.572  17.327  -3.975  1.00 41.15 LIG-0.35  N 
ATOM     27 H    LYS P   4       6.100  17.077  -3.344  1.00 41.15 LIG 0.16  HD
BRANCH 26 28
ATOM     28  CA  LYS P   4       4.765  16.229  -4.445  1.00 40.89 LIG 0.16  C 
BRANCH 28 29
ATOM     29  CB  LYS P   4       3.298  16.625  -4.238  1.00 40.64 LIG 0.03  C 
BRANCH 29 30
ATOM     30  CG  LYS P   4       2.582  15.781  -3.193  1.00 49.46 LIG 0.00  C 
BRANCH 30 31
ATOM     31  CD  LYS P   4       1.189  16.310  -2.891  1.00 47.65 LIG 0.03  C 
BRANCH 31 32
ATOM     32  CE  LYS P   4       0.150  15.892  -3.923  1.00 46.32 LIG 0.23  C 
BRANCH 32 33
ATOM     33  NZ  LYS P   4      -1.099  16.685  -3.805  1.00 44.97 LIG-0.08  N 
ATOM     34 HZ3  LYS P   4      -1.769  16.151  -3.565  1.00 44.97 LIG 0.27  HD
ATOM     35 HZ1  LYS P   4      -0.992  17.320  -3.191  1.00 44.97 LIG 0.27  HD
ATOM     36 HZ2  LYS P   4      -1.287  17.061  -4.591  1.00 44.97 LIG 0.27  HD
ENDBRANCH 32 33
ENDBRANCH 31 32
ENDBRANCH 30 31
ENDBRANCH 29 30
ENDBRANCH 28 29
BRANCH 28 37
ATOM     37  C   LYS P   4       5.024  15.883  -5.908  1.00 40.96 LIG 0.22  C 
ATOM     38 O    LYS P   4       6.174  15.738  -6.320  1.00 40.89 LIG-0.29  OA
ENDBRANCH 28 37
ENDBRANCH 26 28
ENDBRANCH 22 24
ENDBRANCH 3 22
TORSDOF 16
ENDMDL
MODEL 20
USER: ADFR SOLUTION from run 61
USER: SCORE 14.083099 LL:  -3.072 LR: -12.736 RR:   0.000 FEB:  -7.963
USER: RMSD 14.404291
USER: SEED 60
USER: STATUS no improvement in best 9 clusters for 5 generations
USER: GENES 18
USER: genes 0 Translation |==|  0.43549 0.89734 0.34939
USER: genes 1 Rotation |==|  0.88816 0.22950 0.60835 0.62010
USER: genes 2 Torsion [N]-C--CA-[N] |==|  0.92390
USER: genes 3 Torsion [C]-CA--CB-[CG2] |==|  0.01444
USER: genes 4 Torsion [CA]-CB--CG1-[CD1] |==|  0.14190
USER: genes 5 Torsion [C]-CA--N-[C] |==|  0.83549
USER: genes 6 Torsion [N]-C--CA-[N] |==|  0.03830
USER: genes 7 Torsion [C]-CA--CB-[CG1] |==|  0.22456
USER: genes 8 Torsion [C]-CA--N-[H2] |==|  0.58444
USER: genes 9 Torsion [C]-N--CA-[CB] |==|  0.40032
USER: genes 10 Torsion [N]-CA--C-[N] |==|  0.93653
USER: genes 11 Torsion [C]-N--CA-[CB] |==|  0.82778
USER: genes 12 Torsion [N]-CA--CB-[CG] |==|  0.90431
USER: genes 13 Torsion [CA]-CB--CG-[CD] |==|  0.35507
USER: genes 14 Torsion [CB]-CG--CD-[CE] |==|  0.67345
USER: genes 15 Torsion [CG]-CD--CE-[NZ] |==|  0.32638
USER: genes 16 Torsion [CD]-CE--NZ-[HZ3] |==|  0.08695
USER: genes 17 Torsion [N]-CA--C-[O] |==|  0.22493
ROOT
ATOM      1  C   ILE P   2       3.815  32.730 -10.198  1.00 41.40 LIG 0.24  C 
ATOM      2 O    ILE P   2       4.363  32.096  -9.284  1.00 41.61 LIG-0.27  OA
ATOM      3  N   ALA P   3       2.577  33.222 -10.163  1.00 41.46 LIG-0.35  N 
ATOM      4 H    ALA P   3       2.276  33.696 -10.816  1.00 41.46 LIG 0.16  HD
ENDROOT
BRANCH 1 5
ATOM      5  CA  ILE P   2       4.503  33.017 -11.528  1.00 41.22 LIG 0.18  C 
BRANCH 5 6
ATOM      6  CB  ILE P   2       5.265  34.305 -11.267  1.00 41.07 LIG 0.01  C 
ATOM      7  CG2 ILE P   2       5.150  34.711  -9.805  1.00 40.92 LIG 0.01  C 
BRANCH 6 8
ATOM      8  CG1 ILE P   2       6.722  34.121 -11.663  1.00 41.09 LIG 0.00  C 
ATOM      9  CD1 ILE P   2       6.907  33.565 -13.056  1.00 41.85 LIG 0.01  C 
ENDBRANCH 6 8
ENDBRANCH 5 6
BRANCH 5 10
ATOM     10  N   ILE P   2       3.721  33.185 -12.736  1.00 40.98 LIG-0.35  N 
ATOM     11  C   VAL P   1       2.978  32.131 -13.045  1.00 40.89 LIG 0.25  C 
ATOM     12 O    VAL P   1       2.866  31.161 -12.299  1.00 40.76 LIG-0.27  OA
ATOM     13 H    ILE P   2       3.786  33.929 -13.161  1.00 40.98 LIG 0.16  HD
BRANCH 11 14
ATOM     14  CA  VAL P   1       2.217  32.133 -14.370  1.00 40.81 LIG 0.28  C 
BRANCH 14 15
ATOM     15  CB  VAL P   1       2.349  30.762 -15.047  1.00 40.75 LIG 0.02  C 
ATOM     16  CG1 VAL P   1       1.365  29.773 -14.445  1.00 40.27 LIG 0.01  C 
ATOM     17  CG2 VAL P   1       2.121  30.874 -16.547  1.00 40.35 LIG 0.01  C 
ENDBRANCH 14 15
BRANCH 14 18
ATOM     18  N   VAL P   1       2.684  33.185 -15.249  1.00 41.10 LIG-0.07  N 
ATOM     19 H1   VAL P   1       3.344  32.874 -15.759  1.00 41.10 LIG 0.28  HD
ATOM     20 H3   VAL P   1       2.983  33.868 -14.763  1.00 41.10 LIG 0.28  HD
ATOM     21 H2   VAL P   1       2.014  33.461 -15.766  1.00 41.10 LIG 0.28  HD
ENDBRANCH 14 18
ENDBRANCH 11 14
ENDBRANCH 5 10
ENDBRANCH 1 5
BRANCH 3 22
ATOM     22  CA  ALA P   3       1.580  33.073  -9.117  1.00 41.49 LIG 0.17  C 
ATOM     23  CB  ALA P   3       0.788  34.368  -9.019  1.00 41.44 LIG 0.04  C 
BRANCH 22 24
ATOM     24  C   ALA P   3       0.631  31.899  -9.222  1.00 41.37 LIG 0.24  C 
ATOM     25 O    ALA P   3       0.021  31.436  -8.257  1.00 41.45 LIG-0.27  OA
ATOM     26  N   LYS P   4       0.514  31.441 -10.489  1.00 41.15 LIG-0.35  N 
ATOM     27 H    LYS P   4       0.890  31.858 -11.140  1.00 41.15 LIG 0.16  HD
BRANCH 26 28
ATOM     28  CA  LYS P   4      -0.196  30.276 -10.958  1.00 40.89 LIG 0.16  C 
BRANCH 28 29
ATOM     29  CB  LYS P   4       0.458  29.054 -10.301  1.00 40.64 LIG 0.03  C 
BRANCH 29 30
ATOM     30  CG  LYS P   4       1.960  29.200 -10.104  1.00 49.46 LIG 0.00  C 
BRANCH 30 31
ATOM     31  CD  LYS P   4       2.378  28.914  -8.671  1.00 47.65 LIG 0.03  C 
BRANCH 31 32
ATOM     32  CE  LYS P   4       3.007  30.114  -7.977  1.00 46.32 LIG 0.23  C 
BRANCH 32 33
ATOM     33  NZ  LYS P   4       2.211  30.558  -6.805  1.00 44.97 LIG-0.08  N 
ATOM     34 HZ3  LYS P   4       1.806  29.856  -6.438  1.00 44.97 LIG 0.27  HD
ATOM     35 HZ1  LYS P   4       2.750  30.936  -6.206  1.00 44.97 LIG 0.27  HD
ATOM     36 HZ2  LYS P   4       1.600  31.150  -7.068  1.00 44.97 LIG 0.27  HD
ENDBRANCH 32 33
ENDBRANCH 31 32
ENDBRANCH 30 31
ENDBRANCH 29 30
ENDBRANCH 28 29
BRANCH 28 37
ATOM     37  C   LYS P   4      -1.688  30.320 -10.643  1.00 40.96 LIG 0.22  C 
ATOM     38 O    LYS P   4      -2.456  30.963 -11.355  1.00 40.89 LIG-0.29  OA
ENDBRANCH 28 37
ENDBRANCH 26 28
ENDBRANCH 22 24
ENDBRANCH 3 22
TORSDOF 16
ENDMDL
MODEL 21
USER: ADFR SOLUTION from run 152
USER: SCORE 13.518393 LL:  -2.539 LR: -12.733 RR:   0.000 FEB:  -7.960
USER: RMSD 3.245532
USER: SEED 151
USER: STATUS no improvement in best 11 clusters for 5 generations
USER: GENES 18
USER: genes 0 Translation |==|  0.48654 0.43430 0.50366
USER: genes 1 Rotation |==|  0.45605 0.63503 0.43664 0.97521
USER: genes 2 Torsion [N]-C--CA-[N] |==|  0.45000
USER: genes 3 Torsion [C]-CA--CB-[CG2] |==|  0.87807
USER: genes 4 Torsion [CA]-CB--CG1-[CD1] |==|  0.40767
USER: genes 5 Torsion [C]-CA--N-[C] |==|  0.78089
USER: genes 6 Torsion [N]-C--CA-[N] |==|  0.95823
USER: genes 7 Torsion [C]-CA--CB-[CG1] |==|  0.61097
USER: genes 8 Torsion [C]-CA--N-[H2] |==|  0.23583
USER: genes 9 Torsion [C]-N--CA-[CB] |==|  0.32176
USER: genes 10 Torsion [N]-CA--C-[N] |==|  0.05898
USER: genes 11 Torsion [C]-N--CA-[CB] |==|  0.32898
USER: genes 12 Torsion [N]-CA--CB-[CG] |==|  0.61916
USER: genes 13 Torsion [CA]-CB--CG-[CD] |==|  0.72761
USER: genes 14 Torsion [CB]-CG--CD-[CE] |==|  0.21301
USER: genes 15 Torsion [CG]-CD--CE-[NZ] |==|  0.25950
USER: genes 16 Torsion [CD]-CE--NZ-[HZ3] |==|  0.93667
USER: genes 17 Torsion [N]-CA--C-[O] |==|  0.92583
ROOT
ATOM      1  C   ILE P   2       5.346  18.839  -5.570  1.00 41.40 LIG 0.24  C 
ATOM      2 O    ILE P   2       6.125  18.276  -6.355  1.00 41.61 LIG-0.27  OA
ATOM      3  N   ALA P   3       4.712  19.987  -5.803  1.00 41.46 LIG-0.35  N 
ATOM      4 H    ALA P   3       4.147  20.298  -5.233  1.00 41.46 LIG 0.16  HD
ENDROOT
BRANCH 1 5
ATOM      5  CA  ILE P   2       5.023  18.280  -4.189  1.00 41.22 LIG 0.18  C 
BRANCH 5 6
ATOM      6  CB  ILE P   2       5.856  19.137  -3.251  1.00 41.07 LIG 0.01  C 
ATOM      7  CG2 ILE P   2       7.260  19.330  -3.805  1.00 40.92 LIG 0.01  C 
BRANCH 6 8
ATOM      8  CG1 ILE P   2       5.168  20.479  -3.046  1.00 41.09 LIG 0.00  C 
ATOM      9  CD1 ILE P   2       5.375  21.062  -1.668  1.00 41.85 LIG 0.01  C 
ENDBRANCH 6 8
ENDBRANCH 5 6
BRANCH 5 10
ATOM     10  N   ILE P   2       5.280  16.887  -3.884  1.00 40.98 LIG-0.35  N 
ATOM     11  C   VAL P   1       4.362  16.056  -4.359  1.00 40.89 LIG 0.25  C 
ATOM     12 O    VAL P   1       3.456  16.427  -5.102  1.00 40.76 LIG-0.27  OA
ATOM     13 H    ILE P   2       5.985  16.695  -3.431  1.00 40.98 LIG 0.16  HD
BRANCH 11 14
ATOM     14  CA  VAL P   1       4.448  14.577  -3.984  1.00 40.81 LIG 0.28  C 
BRANCH 14 15
ATOM     15  CB  VAL P   1       3.328  14.227  -2.995  1.00 40.75 LIG 0.02  C 
ATOM     16  CG1 VAL P   1       3.840  13.281  -1.921  1.00 40.27 LIG 0.01  C 
ATOM     17  CG2 VAL P   1       2.761  15.484  -2.352  1.00 40.35 LIG 0.01  C 
ENDBRANCH 14 15
BRANCH 14 18
ATOM     18  N   VAL P   1       5.744  14.244  -3.429  1.00 41.10 LIG-0.07  N 
ATOM     19 H1   VAL P   1       6.373  14.725  -3.835  1.00 41.10 LIG 0.28  HD
ATOM     20 H3   VAL P   1       5.907  13.378  -3.553  1.00 41.10 LIG 0.28  HD
ATOM     21 H2   VAL P   1       5.749  14.425  -2.557  1.00 41.10 LIG 0.28  HD
ENDBRANCH 14 18
ENDBRANCH 11 14
ENDBRANCH 5 10
ENDBRANCH 1 5
BRANCH 3 22
ATOM     22  CA  ALA P   3       4.836  20.865  -6.954  1.00 41.49 LIG 0.17  C 
ATOM     23  CB  ALA P   3       3.498  20.899  -7.679  1.00 41.44 LIG 0.04  C 
BRANCH 22 24
ATOM     24  C   ALA P   3       5.320  22.277  -6.705  1.00 41.37 LIG 0.24  C 
ATOM     25 O    ALA P   3       5.097  23.212  -7.474  1.00 41.45 LIG-0.27  OA
ATOM     26  N   LYS P   4       5.994  22.394  -5.538  1.00 41.15 LIG-0.35  N 
ATOM     27 H    LYS P   4       6.041  21.730  -4.993  1.00 41.15 LIG 0.16  HD
BRANCH 26 28
ATOM     28  CA  LYS P   4       6.700  23.541  -5.023  1.00 40.89 LIG 0.16  C 
BRANCH 28 29
ATOM     29  CB  LYS P   4       6.017  23.939  -3.709  1.00 40.64 LIG 0.03  C 
BRANCH 29 30
ATOM     30  CG  LYS P   4       5.824  25.441  -3.553  1.00 49.46 LIG 0.00  C 
BRANCH 30 31
ATOM     31  CD  LYS P   4       6.914  26.070  -2.701  1.00 47.65 LIG 0.03  C 
BRANCH 31 32
ATOM     32  CE  LYS P   4       8.233  26.242  -3.441  1.00 46.32 LIG 0.23  C 
BRANCH 32 33
ATOM     33  NZ  LYS P   4       8.352  27.586  -4.059  1.00 44.97 LIG-0.08  N 
ATOM     34 HZ3  LYS P   4       7.541  27.931  -4.179  1.00 44.97 LIG 0.27  HD
ATOM     35 HZ1  LYS P   4       8.824  28.118  -3.524  1.00 44.97 LIG 0.27  HD
ATOM     36 HZ2  LYS P   4       8.764  27.517  -4.845  1.00 44.97 LIG 0.27  HD
ENDBRANCH 32 33
ENDBRANCH 31 32
ENDBRANCH 30 31
ENDBRANCH 29 30
ENDBRANCH 28 29
BRANCH 28 37
ATOM     37  C   LYS P   4       8.185  23.275  -4.796  1.00 40.96 LIG 0.22  C 
ATOM     38 O    LYS P   4       8.585  22.135  -4.565  1.00 40.89 LIG-0.29  OA
ENDBRANCH 28 37
ENDBRANCH 26 28
ENDBRANCH 22 24
ENDBRANCH 3 22
TORSDOF 16
ENDMDL
MODEL 22
USER: ADFR SOLUTION from run 114
USER: SCORE 13.898483 LL:  -3.072 LR: -12.722 RR:   0.000 FEB:  -7.949
USER: RMSD 8.581428
USER: SEED 113
USER: STATUS no improvement in best 12 clusters for 5 generations
USER: GENES 18
USER: genes 0 Translation |==|  0.51345 0.60000 0.50730
USER: genes 1 Rotation |==|  0.73987 0.48408 0.93385 0.56309
USER: genes 2 Torsion [N]-C--CA-[N] |==|  0.34586
USER: genes 3 Torsion [C]-CA--CB-[CG2] |==|  0.29959
USER: genes 4 Torsion [CA]-CB--CG1-[CD1] |==|  0.24678
USER: genes 5 Torsion [C]-CA--N-[C] |==|  0.65837
USER: genes 6 Torsion [N]-C--CA-[N] |==|  0.05587
USER: genes 7 Torsion [C]-CA--CB-[CG1] |==|  0.49554
USER: genes 8 Torsion [C]-CA--N-[H2] |==|  0.79208
USER: genes 9 Torsion [C]-N--CA-[CB] |==|  0.44380
USER: genes 10 Torsion [N]-CA--C-[N] |==|  0.96411
USER: genes 11 Torsion [C]-N--CA-[CB] |==|  0.78897
USER: genes 12 Torsion [N]-CA--CB-[CG] |==|  0.96805
USER: genes 13 Torsion [CA]-CB--CG-[CD] |==|  0.58057
USER: genes 14 Torsion [CB]-CG--CD-[CE] |==|  0.38092
USER: genes 15 Torsion [CG]-CD--CE-[NZ] |==|  0.21794
USER: genes 16 Torsion [CD]-CE--NZ-[HZ3] |==|  0.44725
USER: genes 17 Torsion [N]-CA--C-[O] |==|  0.14032
ROOT
ATOM      1  C   ILE P   2       6.154  23.810  -5.461  1.00 41.40 LIG 0.24  C 
ATOM      2 O    ILE P   2       5.356  24.280  -4.635  1.00 41.61 LIG-0.27  OA
ATOM      3  N   ALA P   3       5.925  22.754  -6.240  1.00 41.46 LIG-0.35  N 
ATOM      4 H    ALA P   3       6.505  22.510  -6.828  1.00 41.46 LIG 0.16  HD
ENDROOT
BRANCH 1 5
ATOM      5  CA  ILE P   2       7.548  24.387  -5.680  1.00 41.22 LIG 0.18  C 
BRANCH 5 6
ATOM      6  CB  ILE P   2       8.251  24.138  -4.356  1.00 41.07 LIG 0.01  C 
ATOM      7  CG2 ILE P   2       9.288  23.034  -4.498  1.00 40.92 LIG 0.01  C 
BRANCH 6 8
ATOM      8  CG1 ILE P   2       8.899  25.429  -3.877  1.00 41.09 LIG 0.00  C 
ATOM      9  CD1 ILE P   2       7.988  26.287  -3.030  1.00 41.85 LIG 0.01  C 
ENDBRANCH 6 8
ENDBRANCH 5 6
BRANCH 5 10
ATOM     10  N   ILE P   2       7.715  25.783  -6.030  1.00 40.98 LIG-0.35  N 
ATOM     11  C   VAL P   1       8.377  25.976  -7.163  1.00 40.89 LIG 0.25  C 
ATOM     12 O    VAL P   1       8.696  25.051  -7.907  1.00 40.76 LIG-0.27  OA
ATOM     13 H    ILE P   2       7.388  26.376  -5.501  1.00 40.98 LIG 0.16  HD
BRANCH 11 14
ATOM     14  CA  VAL P   1       8.739  27.405  -7.567  1.00 40.81 LIG 0.28  C 
BRANCH 14 15
ATOM     15  CB  VAL P   1      10.121  27.421  -8.235  1.00 40.75 LIG 0.02  C 
ATOM     16  CG1 VAL P   1      10.482  28.828  -8.681  1.00 40.27 LIG 0.01  C 
ATOM     17  CG2 VAL P   1      11.186  26.886  -7.289  1.00 40.35 LIG 0.01  C 
ENDBRANCH 14 15
BRANCH 14 18
ATOM     18  N   VAL P   1       8.710  28.301  -6.430  1.00 41.10 LIG-0.07  N 
ATOM     19 H1   VAL P   1       9.125  29.060  -6.640  1.00 41.10 LIG 0.28  HD
ATOM     20 H3   VAL P   1       9.123  27.920  -5.740  1.00 41.10 LIG 0.28  HD
ATOM     21 H2   VAL P   1       7.865  28.476  -6.210  1.00 41.10 LIG 0.28  HD
ENDBRANCH 14 18
ENDBRANCH 11 14
ENDBRANCH 5 10
ENDBRANCH 1 5
BRANCH 3 22
ATOM     22  CA  ALA P   3       4.762  21.883  -6.255  1.00 41.49 LIG 0.17  C 
ATOM     23  CB  ALA P   3       4.718  21.163  -7.595  1.00 41.44 LIG 0.04  C 
BRANCH 22 24
ATOM     24  C   ALA P   3       4.630  20.879  -5.130  1.00 41.37 LIG 0.24  C 
ATOM     25 O    ALA P   3       3.601  20.238  -4.916  1.00 41.45 LIG-0.27  OA
ATOM     26  N   LYS P   4       5.770  20.753  -4.413  1.00 41.15 LIG-0.35  N 
ATOM     27 H    LYS P   4       6.488  21.156  -4.661  1.00 41.15 LIG 0.16  HD
BRANCH 26 28
ATOM     28  CA  LYS P   4       5.990  19.994  -3.207  1.00 40.89 LIG 0.16  C 
BRANCH 28 29
ATOM     29  CB  LYS P   4       5.354  20.782  -2.055  1.00 40.64 LIG 0.03  C 
BRANCH 29 30
ATOM     30  CG  LYS P   4       4.950  22.199  -2.436  1.00 49.46 LIG 0.00  C 
BRANCH 30 31
ATOM     31  CD  LYS P   4       5.002  23.145  -1.249  1.00 47.65 LIG 0.03  C 
BRANCH 31 32
ATOM     32  CE  LYS P   4       5.622  24.496  -1.582  1.00 46.32 LIG 0.23  C 
BRANCH 32 33
ATOM     33  NZ  LYS P   4       4.668  25.385  -2.292  1.00 44.97 LIG-0.08  N 
ATOM     34 HZ3  LYS P   4       4.944  26.228  -2.228  1.00 44.97 LIG 0.27  HD
ATOM     35 HZ1  LYS P   4       4.625  25.150  -3.149  1.00 44.97 LIG 0.27  HD
ATOM     36 HZ2  LYS P   4       3.860  25.309  -1.923  1.00 44.97 LIG 0.27  HD
ENDBRANCH 32 33
ENDBRANCH 31 32
ENDBRANCH 30 31
ENDBRANCH 29 30
ENDBRANCH 28 29
BRANCH 28 37
ATOM     37  C   LYS P   4       5.409  18.585  -3.276  1.00 40.96 LIG 0.22  C 
ATOM     38 O    LYS P   4       5.659  17.854  -4.233  1.00 40.89 LIG-0.29  OA
ENDBRANCH 28 37
ENDBRANCH 26 28
ENDBRANCH 22 24
ENDBRANCH 3 22
TORSDOF 16
ENDMDL
MODEL 23
USER: ADFR SOLUTION from run 36
USER: SCORE 14.437206 LL:  -2.426 LR: -12.692 RR:   0.000 FEB:  -7.919
USER: RMSD 6.334846
USER: SEED 35
USER: STATUS no improvement in best 17 clusters for 5 generations
USER: GENES 18
USER: genes 0 Translation |==|  0.47779 0.55133 0.54014
USER: genes 1 Rotation |==|  0.87096 0.51053 0.51428 0.83477
USER: genes 2 Torsion [N]-C--CA-[N] |==|  0.40556
USER: genes 3 Torsion [C]-CA--CB-[CG2] |==|  0.56393
USER: genes 4 Torsion [CA]-CB--CG1-[CD1] |==|  0.40501
USER: genes 5 Torsion [C]-CA--N-[C] |==|  0.85451
USER: genes 6 Torsion [N]-C--CA-[N] |==|  0.43089
USER: genes 7 Torsion [C]-CA--CB-[CG1] |==|  0.93079
USER: genes 8 Torsion [C]-CA--N-[H2] |==|  0.33400
USER: genes 9 Torsion [C]-N--CA-[CB] |==|  0.76335
USER: genes 10 Torsion [N]-CA--C-[N] |==|  0.80782
USER: genes 11 Torsion [C]-N--CA-[CB] |==|  0.64635
USER: genes 12 Torsion [N]-CA--CB-[CG] |==|  0.48177
USER: genes 13 Torsion [CA]-CB--CG-[CD] |==|  0.59799
USER: genes 14 Torsion [CB]-CG--CD-[CE] |==|  0.25077
USER: genes 15 Torsion [CG]-CD--CE-[NZ] |==|  0.09659
USER: genes 16 Torsion [CD]-CE--NZ-[HZ3] |==|  0.95582
USER: genes 17 Torsion [N]-CA--C-[O] |==|  0.71303
ROOT
ATOM      1  C   ILE P   2       5.084  22.350  -4.476  1.00 41.40 LIG 0.24  C 
ATOM      2 O    ILE P   2       6.249  22.747  -4.629  1.00 41.61 LIG-0.27  OA
ATOM      3  N   ALA P   3       4.311  22.611  -3.423  1.00 41.46 LIG-0.35  N 
ATOM      4 H    ALA P   3       3.493  22.345  -3.404  1.00 41.46 LIG 0.16  HD
ENDROOT
BRANCH 1 5
ATOM      5  CA  ILE P   2       4.375  21.467  -5.497  1.00 41.22 LIG 0.18  C 
BRANCH 5 6
ATOM      6  CB  ILE P   2       4.785  20.059  -5.100  1.00 41.07 LIG 0.01  C 
ATOM      7  CG2 ILE P   2       4.659  19.109  -6.282  1.00 40.92 LIG 0.01  C 
BRANCH 6 8
ATOM      8  CG1 ILE P   2       6.212  20.078  -4.573  1.00 41.09 LIG 0.00  C 
ATOM      9  CD1 ILE P   2       6.463  19.080  -3.466  1.00 41.85 LIG 0.01  C 
ENDBRANCH 6 8
ENDBRANCH 5 6
BRANCH 5 10
ATOM     10  N   ILE P   2       4.630  21.635  -6.913  1.00 40.98 LIG-0.35  N 
ATOM     11  C   VAL P   1       4.484  22.882  -7.340  1.00 40.89 LIG 0.25  C 
ATOM     12 O    VAL P   1       4.283  23.823  -6.575  1.00 40.76 LIG-0.27  OA
ATOM     13 H    ILE P   2       4.852  20.942  -7.370  1.00 40.98 LIG 0.16  HD
BRANCH 11 14
ATOM     14  CA  VAL P   1       4.589  23.161  -8.839  1.00 40.81 LIG 0.28  C 
BRANCH 14 15
ATOM     15  CB  VAL P   1       6.066  23.269  -9.244  1.00 40.75 LIG 0.02  C 
ATOM     16  CG1 VAL P   1       6.917  23.679  -8.054  1.00 40.27 LIG 0.01  C 
ATOM     17  CG2 VAL P   1       6.569  21.951  -9.813  1.00 40.35 LIG 0.01  C 
ENDBRANCH 14 15
BRANCH 14 18
ATOM     18  N   VAL P   1       3.868  24.362  -9.207  1.00 41.10 LIG-0.07  N 
ATOM     19 H1   VAL P   1       3.496  24.718  -8.482  1.00 41.10 LIG 0.28  HD
ATOM     20 H3   VAL P   1       3.233  24.158  -9.796  1.00 41.10 LIG 0.28  HD
ATOM     21 H2   VAL P   1       4.431  24.947  -9.570  1.00 41.10 LIG 0.28  HD
ENDBRANCH 14 18
ENDBRANCH 11 14
ENDBRANCH 5 10
ENDBRANCH 1 5
BRANCH 3 22
ATOM     22  CA  ALA P   3       4.658  23.331  -2.209  1.00 41.49 LIG 0.17  C 
ATOM     23  CB  ALA P   3       5.302  22.352  -1.238  1.00 41.44 LIG 0.04  C 
BRANCH 22 24
ATOM     24  C   ALA P   3       5.531  24.559  -2.353  1.00 41.37 LIG 0.24  C 
ATOM     25 O    ALA P   3       5.129  25.702  -2.133  1.00 41.45 LIG-0.27  OA
ATOM     26  N   LYS P   4       6.796  24.253  -2.722  1.00 41.15 LIG-0.35  N 
ATOM     27 H    LYS P   4       7.049  23.433  -2.773  1.00 41.15 LIG 0.16  HD
BRANCH 26 28
ATOM     28  CA  LYS P   4       7.869  25.152  -3.071  1.00 40.89 LIG 0.16  C 
BRANCH 28 29
ATOM     29  CB  LYS P   4       8.407  24.705  -4.435  1.00 40.64 LIG 0.03  C 
BRANCH 29 30
ATOM     30  CG  LYS P   4       9.446  25.652  -5.020  1.00 49.46 LIG 0.00  C 
BRANCH 30 31
ATOM     31  CD  LYS P   4       9.342  25.747  -6.533  1.00 47.65 LIG 0.03  C 
BRANCH 31 32
ATOM     32  CE  LYS P   4       8.407  26.853  -7.003  1.00 46.32 LIG 0.23  C 
BRANCH 32 33
ATOM     33  NZ  LYS P   4       8.454  28.038  -6.109  1.00 44.97 LIG-0.08  N 
ATOM     34 HZ3  LYS P   4       8.837  27.813  -5.339  1.00 44.97 LIG 0.27  HD
ATOM     35 HZ1  LYS P   4       8.925  28.684  -6.498  1.00 44.97 LIG 0.27  HD
ATOM     36 HZ2  LYS P   4       7.625  28.326  -5.955  1.00 44.97 LIG 0.27  HD
ENDBRANCH 32 33
ENDBRANCH 31 32
ENDBRANCH 30 31
ENDBRANCH 29 30
ENDBRANCH 28 29
BRANCH 28 37
ATOM     37  C   LYS P   4       7.430  26.612  -3.120  1.00 40.96 LIG 0.22  C 
ATOM     38 O    LYS P   4       7.241  27.169  -4.199  1.00 40.89 LIG-0.29  OA
ENDBRANCH 28 37
ENDBRANCH 26 28
ENDBRANCH 22 24
ENDBRANCH 3 22
TORSDOF 16
ENDMDL
MODEL 24
USER: ADFR SOLUTION from run 124
USER: SCORE 13.277408 LL:  -2.666 LR: -12.670 RR:   0.000 FEB:  -7.897
USER: RMSD 9.241137
USER: SEED 123
USER: STATUS no improvement in best 7 clusters for 5 generations
USER: GENES 18
USER: genes 0 Translation |==|  0.59250 0.61321 0.54457
USER: genes 1 Rotation |==|  0.75278 0.09190 0.39100 0.58762
USER: genes 2 Torsion [N]-C--CA-[N] |==|  0.95719
USER: genes 3 Torsion [C]-CA--CB-[CG2] |==|  0.34210
USER: genes 4 Torsion [CA]-CB--CG1-[CD1] |==|  0.26087
USER: genes 5 Torsion [C]-CA--N-[C] |==|  0.64802
USER: genes 6 Torsion [N]-C--CA-[N] |==|  0.92349
USER: genes 7 Torsion [C]-CA--CB-[CG1] |==|  0.81101
USER: genes 8 Torsion [C]-CA--N-[H2] |==|  0.80507
USER: genes 9 Torsion [C]-N--CA-[CB] |==|  0.45653
USER: genes 10 Torsion [N]-CA--C-[N] |==|  0.16487
USER: genes 11 Torsion [C]-N--CA-[CB] |==|  0.40354
USER: genes 12 Torsion [N]-CA--CB-[CG] |==|  0.90767
USER: genes 13 Torsion [CA]-CB--CG-[CD] |==|  0.64521
USER: genes 14 Torsion [CB]-CG--CD-[CE] |==|  0.55454
USER: genes 15 Torsion [CG]-CD--CE-[NZ] |==|  0.55396
USER: genes 16 Torsion [CD]-CE--NZ-[HZ3] |==|  0.41172
USER: genes 17 Torsion [N]-CA--C-[O] |==|  0.14579
ROOT
ATOM      1  C   ILE P   2       8.525  24.206  -4.343  1.00 41.40 LIG 0.24  C 
ATOM      2 O    ILE P   2       8.318  23.003  -4.122  1.00 41.61 LIG-0.27  OA
ATOM      3  N   ALA P   3       8.285  25.201  -3.489  1.00 41.46 LIG-0.35  N 
ATOM      4 H    ALA P   3       8.499  26.010  -3.689  1.00 41.46 LIG 0.16  HD
ENDROOT
BRANCH 1 5
ATOM      5  CA  ILE P   2       9.078  24.716  -5.669  1.00 41.22 LIG 0.18  C 
BRANCH 5 6
ATOM      6  CB  ILE P   2      10.549  24.343  -5.612  1.00 41.07 LIG 0.01  C 
ATOM      7  CG2 ILE P   2      10.930  23.475  -6.803  1.00 40.92 LIG 0.01  C 
BRANCH 6 8
ATOM      8  CG1 ILE P   2      11.392  25.610  -5.576  1.00 41.09 LIG 0.00  C 
ATOM      9  CD1 ILE P   2      11.752  26.060  -4.180  1.00 41.85 LIG 0.01  C 
ENDBRANCH 6 8
ENDBRANCH 5 6
BRANCH 5 10
ATOM     10  N   ILE P   2       8.976  26.120  -6.014  1.00 40.98 LIG-0.35  N 
ATOM     11  C   VAL P   1       8.412  26.343  -7.193  1.00 40.89 LIG 0.25  C 
ATOM     12 O    VAL P   1       7.905  25.446  -7.863  1.00 40.76 LIG-0.27  OA
ATOM     13 H    ILE P   2       9.276  26.698  -5.453  1.00 40.98 LIG 0.16  HD
BRANCH 11 14
ATOM     14  CA  VAL P   1       8.375  27.774  -7.730  1.00 40.81 LIG 0.28  C 
BRANCH 14 15
ATOM     15  CB  VAL P   1       9.565  28.006  -8.670  1.00 40.75 LIG 0.02  C 
ATOM     16  CG1 VAL P   1      10.871  27.990  -7.893  1.00 40.27 LIG 0.01  C 
ATOM     17  CG2 VAL P   1       9.602  26.953  -9.768  1.00 40.35 LIG 0.01  C 
ENDBRANCH 14 15
BRANCH 14 18
ATOM     18  N   VAL P   1       8.375  28.744  -6.654  1.00 41.10 LIG-0.07  N 
ATOM     19 H1   VAL P   1       8.502  29.558  -6.989  1.00 41.10 LIG 0.28  HD
ATOM     20 H3   VAL P   1       9.030  28.553  -6.082  1.00 41.10 LIG 0.28  HD
ATOM     21 H2   VAL P   1       7.593  28.716  -6.229  1.00 41.10 LIG 0.28  HD
ENDBRANCH 14 18
ENDBRANCH 11 14
ENDBRANCH 5 10
ENDBRANCH 1 5
BRANCH 3 22
ATOM     22  CA  ALA P   3       7.673  25.127  -2.174  1.00 41.49 LIG 0.17  C 
ATOM     23  CB  ALA P   3       7.964  26.425  -1.435  1.00 41.44 LIG 0.04  C 
BRANCH 22 24
ATOM     24  C   ALA P   3       6.192  24.823  -2.110  1.00 41.37 LIG 0.24  C 
ATOM     25 O    ALA P   3       5.366  25.588  -1.612  1.00 41.45 LIG-0.27  OA
ATOM     26  N   LYS P   4       5.884  23.636  -2.682  1.00 41.15 LIG-0.35  N 
ATOM     27 H    LYS P   4       6.486  23.182  -3.097  1.00 41.15 LIG 0.16  HD
BRANCH 26 28
ATOM     28  CA  LYS P   4       4.611  22.958  -2.708  1.00 40.89 LIG 0.16  C 
BRANCH 28 29
ATOM     29  CB  LYS P   4       4.510  22.239  -4.058  1.00 40.64 LIG 0.03  C 
BRANCH 29 30
ATOM     30  CG  LYS P   4       5.199  22.979  -5.196  1.00 49.46 LIG 0.00  C 
BRANCH 30 31
ATOM     31  CD  LYS P   4       4.277  23.177  -6.387  1.00 47.65 LIG 0.03  C 
BRANCH 31 32
ATOM     32  CE  LYS P   4       5.022  23.467  -7.683  1.00 46.32 LIG 0.23  C 
BRANCH 32 33
ATOM     33  NZ  LYS P   4       4.144  24.100  -8.699  1.00 44.97 LIG-0.08  N 
ATOM     34 HZ3  LYS P   4       4.625  24.649  -9.207  1.00 44.97 LIG 0.27  HD
ATOM     35 HZ1  LYS P   4       3.779  23.469  -9.210  1.00 44.97 LIG 0.27  HD
ATOM     36 HZ2  LYS P   4       3.500  24.560  -8.291  1.00 44.97 LIG 0.27  HD
ENDBRANCH 32 33
ENDBRANCH 31 32
ENDBRANCH 30 31
ENDBRANCH 29 30
ENDBRANCH 28 29
BRANCH 28 37
ATOM     37  C   LYS P   4       4.440  21.968  -1.559  1.00 40.96 LIG 0.22  C 
ATOM     38 O    LYS P   4       4.625  22.324  -0.397  1.00 40.89 LIG-0.29  OA
ENDBRANCH 28 37
ENDBRANCH 26 28
ENDBRANCH 22 24
ENDBRANCH 3 22
TORSDOF 16
ENDMDL
MODEL 25
USER: ADFR SOLUTION from run 106
USER: SCORE 14.241673 LL:  -2.194 LR: -12.646 RR:   0.000 FEB:  -7.873
USER: RMSD 7.902568
USER: SEED 105
USER: STATUS no improvement in best 7 clusters for 5 generations
USER: GENES 18
USER: genes 0 Translation |==|  0.60382 0.65266 0.42796
USER: genes 1 Rotation |==|  0.52613 0.71612 0.33762 0.91981
USER: genes 2 Torsion [N]-C--CA-[N] |==|  0.03731
USER: genes 3 Torsion [C]-CA--CB-[CG2] |==|  0.23476
USER: genes 4 Torsion [CA]-CB--CG1-[CD1] |==|  0.30908
USER: genes 5 Torsion [C]-CA--N-[C] |==|  0.72262
USER: genes 6 Torsion [N]-C--CA-[N] |==|  0.79486
USER: genes 7 Torsion [C]-CA--CB-[CG1] |==|  0.43689
USER: genes 8 Torsion [C]-CA--N-[H2] |==|  0.26697
USER: genes 9 Torsion [C]-N--CA-[CB] |==|  0.65373
USER: genes 10 Torsion [N]-CA--C-[N] |==|  0.23709
USER: genes 11 Torsion [C]-N--CA-[CB] |==|  0.87323
USER: genes 12 Torsion [N]-CA--CB-[CG] |==|  0.80640
USER: genes 13 Torsion [CA]-CB--CG-[CD] |==|  0.54375
USER: genes 14 Torsion [CB]-CG--CD-[CE] |==|  0.64218
USER: genes 15 Torsion [CG]-CD--CE-[NZ] |==|  0.95164
USER: genes 16 Torsion [CD]-CE--NZ-[HZ3] |==|  0.13714
USER: genes 17 Torsion [N]-CA--C-[O] |==|  0.02776
ROOT
ATOM      1  C   ILE P   2       8.865  25.390  -7.841  1.00 41.40 LIG 0.24  C 
ATOM      2 O    ILE P   2       9.035  24.747  -8.889  1.00 41.61 LIG-0.27  OA
ATOM      3  N   ALA P   3       8.873  26.718  -7.740  1.00 41.46 LIG-0.35  N 
ATOM      4 H    ALA P   3       8.699  27.100  -6.989  1.00 41.46 LIG 0.16  HD
ENDROOT
BRANCH 1 5
ATOM      5  CA  ILE P   2       8.640  24.718  -6.491  1.00 41.22 LIG 0.18  C 
BRANCH 5 6
ATOM      6  CB  ILE P   2       7.604  23.648  -6.792  1.00 41.07 LIG 0.01  C 
ATOM      7  CG2 ILE P   2       8.272  22.385  -7.315  1.00 40.92 LIG 0.01  C 
BRANCH 6 8
ATOM      8  CG1 ILE P   2       6.802  23.351  -5.532  1.00 41.09 LIG 0.00  C 
ATOM      9  CD1 ILE P   2       5.364  23.807  -5.608  1.00 41.85 LIG 0.01  C 
ENDBRANCH 6 8
ENDBRANCH 5 6
BRANCH 5 10
ATOM     10  N   ILE P   2       8.180  25.492  -5.356  1.00 40.98 LIG-0.35  N 
ATOM     11  C   VAL P   1       9.146  25.836  -4.515  1.00 40.89 LIG 0.25  C 
ATOM     12 O    VAL P   1      10.334  25.630  -4.754  1.00 40.76 LIG-0.27  OA
ATOM     13 H    ILE P   2       7.342  25.672  -5.300  1.00 40.98 LIG 0.16  HD
BRANCH 11 14
ATOM     14  CA  VAL P   1       8.769  26.533  -3.209  1.00 40.81 LIG 0.28  C 
BRANCH 14 15
ATOM     15  CB  VAL P   1       7.644  25.755  -2.512  1.00 40.75 LIG 0.02  C 
ATOM     16  CG1 VAL P   1       7.628  26.059  -1.023  1.00 40.27 LIG 0.01  C 
ATOM     17  CG2 VAL P   1       6.292  26.091  -3.125  1.00 40.35 LIG 0.01  C 
ENDBRANCH 14 15
BRANCH 14 18
ATOM     18  N   VAL P   1       8.375  27.908  -3.436  1.00 41.10 LIG-0.07  N 
ATOM     19 H1   VAL P   1       8.739  28.200  -4.193  1.00 41.10 LIG 0.28  HD
ATOM     20 H3   VAL P   1       8.656  28.413  -2.759  1.00 41.10 LIG 0.28  HD
ATOM     21 H2   VAL P   1       7.488  27.958  -3.494  1.00 41.10 LIG 0.28  HD
ENDBRANCH 14 18
ENDBRANCH 11 14
ENDBRANCH 5 10
ENDBRANCH 1 5
BRANCH 3 22
ATOM     22  CA  ALA P   3       9.150  27.697  -8.778  1.00 41.49 LIG 0.17  C 
ATOM     23  CB  ALA P   3      10.278  28.599  -8.298  1.00 41.44 LIG 0.04  C 
BRANCH 22 24
ATOM     24  C   ALA P   3       9.465  27.174 -10.162  1.00 41.37 LIG 0.24  C 
ATOM     25 O    ALA P   3      10.611  26.968 -10.562  1.00 41.45 LIG-0.27  OA
ATOM     26  N   LYS P   4       8.350  26.937 -10.891  1.00 41.15 LIG-0.35  N 
ATOM     27 H    LYS P   4       7.571  27.010 -10.533  1.00 41.15 LIG 0.16  HD
BRANCH 26 28
ATOM     28  CA  LYS P   4       8.251  26.553 -12.278  1.00 40.89 LIG 0.16  C 
BRANCH 28 29
ATOM     29  CB  LYS P   4       9.208  27.456 -13.065  1.00 40.64 LIG 0.03  C 
BRANCH 29 30
ATOM     30  CG  LYS P   4       8.754  28.907 -13.139  1.00 49.46 LIG 0.00  C 
BRANCH 30 31
ATOM     31  CD  LYS P   4       9.492  29.680 -14.220  1.00 47.65 LIG 0.03  C 
BRANCH 31 32
ATOM     32  CE  LYS P   4      10.098  30.985 -13.719  1.00 46.32 LIG 0.23  C 
BRANCH 32 33
ATOM     33  NZ  LYS P   4       9.500  31.415 -12.430  1.00 44.97 LIG-0.08  N 
ATOM     34 HZ3  LYS P   4       9.503  30.733 -11.859  1.00 44.97 LIG 0.27  HD
ATOM     35 HZ1  LYS P   4       9.976  32.087 -12.092  1.00 44.97 LIG 0.27  HD
ATOM     36 HZ2  LYS P   4       8.662  31.685 -12.566  1.00 44.97 LIG 0.27  HD
ENDBRANCH 32 33
ENDBRANCH 31 32
ENDBRANCH 30 31
ENDBRANCH 29 30
ENDBRANCH 28 29
BRANCH 28 37
ATOM     37  C   LYS P   4       8.584  25.084 -12.514  1.00 40.96 LIG 0.22  C 
ATOM     38 O    LYS P   4       8.718  24.315 -11.565  1.00 40.89 LIG-0.29  OA
ENDBRANCH 28 37
ENDBRANCH 26 28
ENDBRANCH 22 24
ENDBRANCH 3 22
TORSDOF 16
ENDMDL
MODEL 26
USER: ADFR SOLUTION from run 160
USER: SCORE 14.384694 LL:  -2.575 LR: -12.634 RR:   0.000 FEB:  -7.861
USER: RMSD 6.665904
USER: SEED 159
USER: STATUS no improvement in best 10 clusters for 5 generations
USER: GENES 18
USER: genes 0 Translation |==|  0.51959 0.60886 0.53592
USER: genes 1 Rotation |==|  0.48574 0.43983 0.98775 0.59096
USER: genes 2 Torsion [N]-C--CA-[N] |==|  0.16472
USER: genes 3 Torsion [C]-CA--CB-[CG2] |==|  0.22220
USER: genes 4 Torsion [CA]-CB--CG1-[CD1] |==|  0.75320
USER: genes 5 Torsion [C]-CA--N-[C] |==|  0.12122
USER: genes 6 Torsion [N]-C--CA-[N] |==|  0.86030
USER: genes 7 Torsion [C]-CA--CB-[CG1] |==|  0.03412
USER: genes 8 Torsion [C]-CA--N-[H2] |==|  0.37580
USER: genes 9 Torsion [C]-N--CA-[CB] |==|  0.82773
USER: genes 10 Torsion [N]-CA--C-[N] |==|  0.18645
USER: genes 11 Torsion [C]-N--CA-[CB] |==|  0.41578
USER: genes 12 Torsion [N]-CA--CB-[CG] |==|  0.86781
USER: genes 13 Torsion [CA]-CB--CG-[CD] |==|  0.68157
USER: genes 14 Torsion [CB]-CG--CD-[CE] |==|  0.58136
USER: genes 15 Torsion [CG]-CD--CE-[NZ] |==|  0.71902
USER: genes 16 Torsion [CD]-CE--NZ-[HZ3] |==|  0.98032
USER: genes 17 Torsion [N]-CA--C-[O] |==|  0.83153
ROOT
ATOM      1  C   ILE P   2       6.338  24.076  -4.602  1.00 41.40 LIG 0.24  C 
ATOM      2 O    ILE P   2       5.330  24.754  -4.854  1.00 41.61 LIG-0.27  OA
ATOM      3  N   ALA P   3       6.710  22.975  -5.253  1.00 41.46 LIG-0.35  N 
ATOM      4 H    ALA P   3       7.449  22.580  -5.057  1.00 41.46 LIG 0.16  HD
ENDROOT
BRANCH 1 5
ATOM      5  CA  ILE P   2       7.295  24.416  -3.466  1.00 41.22 LIG 0.18  C 
BRANCH 5 6
ATOM      6  CB  ILE P   2       6.696  25.671  -2.856  1.00 41.07 LIG 0.01  C 
ATOM      7  CG2 ILE P   2       5.541  25.320  -1.929  1.00 40.92 LIG 0.01  C 
BRANCH 6 8
ATOM      8  CG1 ILE P   2       7.776  26.435  -2.104  1.00 41.09 LIG 0.00  C 
ATOM      9  CD1 ILE P   2       7.923  26.015  -0.660  1.00 41.85 LIG 0.01  C 
ENDBRANCH 6 8
ENDBRANCH 5 6
BRANCH 5 10
ATOM     10  N   ILE P   2       8.696  24.666  -3.739  1.00 40.98 LIG-0.35  N 
ATOM     11  C   VAL P   1       8.907  25.433  -4.800  1.00 40.89 LIG 0.25  C 
ATOM     12 O    VAL P   1       7.993  25.987  -5.407  1.00 40.76 LIG-0.27  OA
ATOM     13 H    ILE P   2       9.280  24.314  -3.216  1.00 40.98 LIG 0.16  HD
BRANCH 11 14
ATOM     14  CA  VAL P   1      10.344  25.653  -5.272  1.00 40.81 LIG 0.28  C 
BRANCH 14 15
ATOM     15  CB  VAL P   1      10.875  24.374  -5.933  1.00 40.75 LIG 0.02  C 
ATOM     16  CG1 VAL P   1       9.740  23.396  -6.190  1.00 40.27 LIG 0.01  C 
ATOM     17  CG2 VAL P   1      11.589  24.695  -7.238  1.00 40.35 LIG 0.01  C 
ENDBRANCH 14 15
BRANCH 14 18
ATOM     18  N   VAL P   1      11.205  26.060  -4.180  1.00 41.10 LIG-0.07  N 
ATOM     19 H1   VAL P   1      10.799  25.896  -3.405  1.00 41.10 LIG 0.28  HD
ATOM     20 H3   VAL P   1      11.377  26.931  -4.246  1.00 41.10 LIG 0.28  HD
ATOM     21 H2   VAL P   1      11.968  25.604  -4.218  1.00 41.10 LIG 0.28  HD
ENDBRANCH 14 18
ENDBRANCH 11 14
ENDBRANCH 5 10
ENDBRANCH 1 5
BRANCH 3 22
ATOM     22  CA  ALA P   3       6.012  22.284  -6.324  1.00 41.49 LIG 0.17  C 
ATOM     23  CB  ALA P   3       4.672  21.798  -5.788  1.00 41.44 LIG 0.04  C 
BRANCH 22 24
ATOM     24  C   ALA P   3       5.803  23.037  -7.619  1.00 41.37 LIG 0.24  C 
ATOM     25 O    ALA P   3       4.697  23.405  -8.016  1.00 41.45 LIG-0.27  OA
ATOM     26  N   LYS P   4       6.965  23.277  -8.270  1.00 41.15 LIG-0.35  N 
ATOM     27 H    LYS P   4       7.718  23.079  -7.905  1.00 41.15 LIG 0.16  HD
BRANCH 26 28
ATOM     28  CA  LYS P   4       7.156  23.855  -9.577  1.00 40.89 LIG 0.16  C 
BRANCH 28 29
ATOM     29  CB  LYS P   4       8.498  24.595  -9.552  1.00 40.64 LIG 0.03  C 
BRANCH 29 30
ATOM     30  CG  LYS P   4       8.676  25.492  -8.336  1.00 49.46 LIG 0.00  C 
BRANCH 30 31
ATOM     31  CD  LYS P   4       8.748  26.962  -8.717  1.00 47.65 LIG 0.03  C 
BRANCH 31 32
ATOM     32  CE  LYS P   4       9.586  27.793  -7.756  1.00 46.32 LIG 0.23  C 
BRANCH 32 33
ATOM     33  NZ  LYS P   4       8.743  28.561  -6.805  1.00 44.97 LIG-0.08  N 
ATOM     34 HZ3  LYS P   4       7.888  28.478  -7.033  1.00 44.97 LIG 0.27  HD
ATOM     35 HZ1  LYS P   4       8.863  28.246  -5.981  1.00 44.97 LIG 0.27  HD
ATOM     36 HZ2  LYS P   4       8.975  29.421  -6.830  1.00 44.97 LIG 0.27  HD
ENDBRANCH 32 33
ENDBRANCH 31 32
ENDBRANCH 30 31
ENDBRANCH 29 30
ENDBRANCH 28 29
BRANCH 28 37
ATOM     37  C   LYS P   4       7.137  22.817 -10.696  1.00 40.96 LIG 0.22  C 
ATOM     38 O    LYS P   4       7.965  21.909 -10.717  1.00 40.89 LIG-0.29  OA
ENDBRANCH 28 37
ENDBRANCH 26 28
ENDBRANCH 22 24
ENDBRANCH 3 22
TORSDOF 16
ENDMDL
MODEL 27
USER: ADFR SOLUTION from run 26
USER: SCORE 13.710898 LL:  -2.138 LR: -12.629 RR:   0.000 FEB:  -7.856
USER: RMSD 5.456767
USER: SEED 25
USER: STATUS no improvement in best 11 clusters for 5 generations
USER: GENES 18
USER: genes 0 Translation |==|  0.45878 0.39592 0.56257
USER: genes 1 Rotation |==|  0.51556 0.37513 0.55546 0.98072
USER: genes 2 Torsion [N]-C--CA-[N] |==|  0.05801
USER: genes 3 Torsion [C]-CA--CB-[CG2] |==|  0.49511
USER: genes 4 Torsion [CA]-CB--CG1-[CD1] |==|  0.60829
USER: genes 5 Torsion [C]-CA--N-[C] |==|  0.63611
USER: genes 6 Torsion [N]-C--CA-[N] |==|  0.67863
USER: genes 7 Torsion [C]-CA--CB-[CG1] |==|  0.21231
USER: genes 8 Torsion [C]-CA--N-[H2] |==|  0.96404
USER: genes 9 Torsion [C]-N--CA-[CB] |==|  0.56111
USER: genes 10 Torsion [N]-CA--C-[N] |==|  0.71664
USER: genes 11 Torsion [C]-N--CA-[CB] |==|  0.31691
USER: genes 12 Torsion [N]-CA--CB-[CG] |==|  0.63704
USER: genes 13 Torsion [CA]-CB--CG-[CD] |==|  0.55782
USER: genes 14 Torsion [CB]-CG--CD-[CE] |==|  0.48755
USER: genes 15 Torsion [CG]-CD--CE-[NZ] |==|  0.34989
USER: genes 16 Torsion [CD]-CE--NZ-[HZ3] |==|  0.06625
USER: genes 17 Torsion [N]-CA--C-[O] |==|  0.05186
ROOT
ATOM      1  C   ILE P   2       4.513  17.688  -3.803  1.00 41.40 LIG 0.24  C 
ATOM      2 O    ILE P   2       5.710  17.761  -3.484  1.00 41.61 LIG-0.27  OA
ATOM      3  N   ALA P   3       3.850  18.589  -4.526  1.00 41.46 LIG-0.35  N 
ATOM      4 H    ALA P   3       3.032  18.451  -4.753  1.00 41.46 LIG 0.16  HD
ENDROOT
BRANCH 1 5
ATOM      5  CA  ILE P   2       3.618  16.530  -3.376  1.00 41.22 LIG 0.18  C 
BRANCH 5 6
ATOM      6  CB  ILE P   2       4.524  15.316  -3.484  1.00 41.07 LIG 0.01  C 
ATOM      7  CG2 ILE P   2       3.791  14.056  -3.046  1.00 40.92 LIG 0.01  C 
BRANCH 6 8
ATOM      8  CG1 ILE P   2       5.021  15.181  -4.916  1.00 41.09 LIG 0.00  C 
ATOM      9  CD1 ILE P   2       5.087  13.752  -5.402  1.00 41.85 LIG 0.01  C 
ENDBRANCH 6 8
ENDBRANCH 5 6
BRANCH 5 10
ATOM     10  N   ILE P   2       2.392  16.249  -4.095  1.00 40.98 LIG-0.35  N 
ATOM     11  C   VAL P   1       1.333  16.096  -3.312  1.00 40.89 LIG 0.25  C 
ATOM     12 O    VAL P   1       1.371  16.308  -2.102  1.00 40.76 LIG-0.27  OA
ATOM     13 H    ILE P   2       2.426  16.201  -4.953  1.00 40.98 LIG 0.16  HD
BRANCH 11 14
ATOM     14  CA  VAL P   1       0.011  15.659  -3.941  1.00 40.81 LIG 0.28  C 
BRANCH 14 15
ATOM     15  CB  VAL P   1       0.233  15.298  -5.416  1.00 40.75 LIG 0.02  C 
ATOM     16  CG1 VAL P   1       0.896  13.937  -5.539  1.00 40.27 LIG 0.01  C 
ATOM     17  CG2 VAL P   1      -1.084  15.305  -6.179  1.00 40.35 LIG 0.01  C 
ENDBRANCH 14 15
BRANCH 14 18
ATOM     18  N   VAL P   1      -1.003  16.685  -3.812  1.00 41.10 LIG-0.07  N 
ATOM     19 H1   VAL P   1      -1.760  16.319  -3.522  1.00 41.10 LIG 0.28  HD
ATOM     20 H3   VAL P   1      -1.142  17.067  -4.604  1.00 41.10 LIG 0.28  HD
ATOM     21 H2   VAL P   1      -0.730  17.301  -3.230  1.00 41.10 LIG 0.28  HD
ENDBRANCH 14 18
ENDBRANCH 11 14
ENDBRANCH 5 10
ENDBRANCH 1 5
BRANCH 3 22
ATOM     22  CA  ALA P   3       4.328  19.865  -5.029  1.00 41.49 LIG 0.17  C 
ATOM     23  CB  ALA P   3       3.125  20.756  -5.300  1.00 41.44 LIG 0.04  C 
BRANCH 22 24
ATOM     24  C   ALA P   3       5.339  20.612  -4.186  1.00 41.37 LIG 0.24  C 
ATOM     25 O    ALA P   3       6.538  20.331  -4.162  1.00 41.45 LIG-0.27  OA
ATOM     26  N   LYS P   4       4.781  21.629  -3.490  1.00 41.15 LIG-0.35  N 
ATOM     27 H    LYS P   4       3.957  21.841  -3.613  1.00 41.15 LIG 0.16  HD
BRANCH 26 28
ATOM     28  CA  LYS P   4       5.394  22.479  -2.499  1.00 40.89 LIG 0.16  C 
BRANCH 28 29
ATOM     29  CB  LYS P   4       5.434  23.896  -3.082  1.00 40.64 LIG 0.03  C 
BRANCH 29 30
ATOM     30  CG  LYS P   4       6.799  24.562  -2.973  1.00 49.46 LIG 0.00  C 
BRANCH 30 31
ATOM     31  CD  LYS P   4       6.704  26.075  -3.073  1.00 47.65 LIG 0.03  C 
BRANCH 31 32
ATOM     32  CE  LYS P   4       8.039  26.777  -2.858  1.00 46.32 LIG 0.23  C 
BRANCH 32 33
ATOM     33  NZ  LYS P   4       8.373  27.690  -3.981  1.00 44.97 LIG-0.08  N 
ATOM     34 HZ3  LYS P   4       7.626  27.935  -4.396  1.00 44.97 LIG 0.27  HD
ATOM     35 HZ1  LYS P   4       8.786  28.411  -3.664  1.00 44.97 LIG 0.27  HD
ATOM     36 HZ2  LYS P   4       8.908  27.270  -4.556  1.00 44.97 LIG 0.27  HD
ENDBRANCH 32 33
ENDBRANCH 31 32
ENDBRANCH 30 31
ENDBRANCH 29 30
ENDBRANCH 28 29
BRANCH 28 37
ATOM     37  C   LYS P   4       4.654  22.469  -1.165  1.00 40.96 LIG 0.22  C 
ATOM     38 O    LYS P   4       3.873  21.560  -0.893  1.00 40.89 LIG-0.29  OA
ENDBRANCH 28 37
ENDBRANCH 26 28
ENDBRANCH 22 24
ENDBRANCH 3 22
TORSDOF 16
ENDMDL
MODEL 28
USER: ADFR SOLUTION from run 151
USER: SCORE 14.346050 LL:  -2.440 LR: -12.615 RR:   0.000 FEB:  -7.842
USER: RMSD 6.292022
USER: SEED 150
USER: STATUS no improvement in best 16 clusters for 5 generations
USER: GENES 18
USER: genes 0 Translation |==|  0.54409 0.53551 0.47415
USER: genes 1 Rotation |==|  0.41987 0.70784 0.19821 0.83061
USER: genes 2 Torsion [N]-C--CA-[N] |==|  0.06618
USER: genes 3 Torsion [C]-CA--CB-[CG2] |==|  0.27529
USER: genes 4 Torsion [CA]-CB--CG1-[CD1] |==|  0.63346
USER: genes 5 Torsion [C]-CA--N-[C] |==|  0.70415
USER: genes 6 Torsion [N]-C--CA-[N] |==|  0.61349
USER: genes 7 Torsion [C]-CA--CB-[CG1] |==|  0.22289
USER: genes 8 Torsion [C]-CA--N-[H2] |==|  0.91896
USER: genes 9 Torsion [C]-N--CA-[CB] |==|  0.24382
USER: genes 10 Torsion [N]-CA--C-[N] |==|  0.03067
USER: genes 11 Torsion [C]-N--CA-[CB] |==|  0.12610
USER: genes 12 Torsion [N]-CA--CB-[CG] |==|  0.32754
USER: genes 13 Torsion [CA]-CB--CG-[CD] |==|  0.68236
USER: genes 14 Torsion [CB]-CG--CD-[CE] |==|  0.19054
USER: genes 15 Torsion [CG]-CD--CE-[NZ] |==|  0.32363
USER: genes 16 Torsion [CD]-CE--NZ-[HZ3] |==|  0.03758
USER: genes 17 Torsion [N]-CA--C-[O] |==|  0.03442
ROOT
ATOM      1  C   ILE P   2       7.073  21.875  -6.456  1.00 41.40 LIG 0.24  C 
ATOM      2 O    ILE P   2       6.631  20.810  -6.914  1.00 41.61 LIG-0.27  OA
ATOM      3  N   ALA P   3       7.497  22.910  -7.179  1.00 41.46 LIG-0.35  N 
ATOM      4 H    ALA P   3       7.746  23.639  -6.795  1.00 41.46 LIG 0.16  HD
ENDROOT
BRANCH 1 5
ATOM      5  CA  ILE P   2       7.210  22.133  -4.959  1.00 41.22 LIG 0.18  C 
BRANCH 5 6
ATOM      6  CB  ILE P   2       6.005  21.428  -4.362  1.00 41.07 LIG 0.01  C 
ATOM      7  CG2 ILE P   2       6.397  20.064  -3.811  1.00 40.92 LIG 0.01  C 
BRANCH 6 8
ATOM      8  CG1 ILE P   2       5.400  22.297  -3.269  1.00 41.09 LIG 0.00  C 
ATOM      9  CD1 ILE P   2       5.119  21.550  -1.986  1.00 41.85 LIG 0.01  C 
ENDBRANCH 6 8
ENDBRANCH 5 6
BRANCH 5 10
ATOM     10  N   ILE P   2       7.245  23.488  -4.450  1.00 40.98 LIG-0.35  N 
ATOM     11  C   VAL P   1       8.447  23.880  -4.048  1.00 40.89 LIG 0.25  C 
ATOM     12 O    VAL P   1       9.455  23.199  -4.222  1.00 40.76 LIG-0.27  OA
ATOM     13 H    ILE P   2       6.512  23.937  -4.439  1.00 40.98 LIG 0.16  HD
BRANCH 11 14
ATOM     14  CA  VAL P   1       8.585  25.238  -3.362  1.00 40.81 LIG 0.28  C 
BRANCH 14 15
ATOM     15  CB  VAL P   1       7.330  26.082  -3.624  1.00 40.75 LIG 0.02  C 
ATOM     16  CG1 VAL P   1       6.206  25.671  -2.687  1.00 40.27 LIG 0.01  C 
ATOM     17  CG2 VAL P   1       7.629  27.565  -3.456  1.00 40.35 LIG 0.01  C 
ENDBRANCH 14 15
BRANCH 14 18
ATOM     18  N   VAL P   1       9.773  25.938  -3.806  1.00 41.10 LIG-0.07  N 
ATOM     19 H1   VAL P   1      10.080  26.450  -3.146  1.00 41.10 LIG 0.28  HD
ATOM     20 H3   VAL P   1       9.573  26.448  -4.508  1.00 41.10 LIG 0.28  HD
ATOM     21 H2   VAL P   1      10.397  25.347  -4.037  1.00 41.10 LIG 0.28  HD
ENDBRANCH 14 18
ENDBRANCH 11 14
ENDBRANCH 5 10
ENDBRANCH 1 5
BRANCH 3 22
ATOM     22  CA  ALA P   3       7.614  23.009  -8.624  1.00 41.49 LIG 0.17  C 
ATOM     23  CB  ALA P   3       6.283  23.490  -9.182  1.00 41.44 LIG 0.04  C 
BRANCH 22 24
ATOM     24  C   ALA P   3       8.738  23.859  -9.175  1.00 41.37 LIG 0.24  C 
ATOM     25 O    ALA P   3       8.812  24.197 -10.357  1.00 41.45 LIG-0.27  OA
ATOM     26  N   LYS P   4       9.627  24.221  -8.221  1.00 41.15 LIG-0.35  N 
ATOM     27 H    LYS P   4       9.480  24.036  -7.395  1.00 41.15 LIG 0.16  HD
BRANCH 26 28
ATOM     28  CA  LYS P   4      10.878  24.921  -8.383  1.00 40.89 LIG 0.16  C 
BRANCH 28 29
ATOM     29  CB  LYS P   4      10.619  26.095  -9.335  1.00 40.64 LIG 0.03  C 
BRANCH 29 30
ATOM     30  CG  LYS P   4      10.865  27.457  -8.702  1.00 49.46 LIG 0.00  C 
BRANCH 30 31
ATOM     31  CD  LYS P   4       9.586  28.268  -8.579  1.00 47.65 LIG 0.03  C 
BRANCH 31 32
ATOM     32  CE  LYS P   4       8.607  27.696  -7.562  1.00 46.32 LIG 0.23  C 
BRANCH 32 33
ATOM     33  NZ  LYS P   4       8.375  28.627  -6.429  1.00 44.97 LIG-0.08  N 
ATOM     34 HZ3  LYS P   4       8.693  29.431  -6.637  1.00 44.97 LIG 0.27  HD
ATOM     35 HZ1  LYS P   4       7.502  28.686  -6.267  1.00 44.97 LIG 0.27  HD
ATOM     36 HZ2  LYS P   4       8.791  28.322  -5.703  1.00 44.97 LIG 0.27  HD
ENDBRANCH 32 33
ENDBRANCH 31 32
ENDBRANCH 30 31
ENDBRANCH 29 30
ENDBRANCH 28 29
BRANCH 28 37
ATOM     37  C   LYS P   4      11.457  25.419  -7.063  1.00 40.96 LIG 0.22  C 
ATOM     38 O    LYS P   4      10.998  25.024  -5.993  1.00 40.89 LIG-0.29  OA
ENDBRANCH 28 37
ENDBRANCH 26 28
ENDBRANCH 22 24
ENDBRANCH 3 22
TORSDOF 16
ENDMDL
MODEL 29
USER: ADFR SOLUTION from run 71
USER: SCORE 14.817047 LL:  -2.717 LR: -12.575 RR:   0.000 FEB:  -7.803
USER: RMSD 9.920429
USER: SEED 70
USER: STATUS 1 or 2 clusters left
USER: GENES 18
USER: genes 0 Translation |==|  0.58814 0.66505 0.46962
USER: genes 1 Rotation |==|  0.80846 0.54937 0.87782 0.59833
USER: genes 2 Torsion [N]-C--CA-[N] |==|  0.34272
USER: genes 3 Torsion [C]-CA--CB-[CG2] |==|  0.12205
USER: genes 4 Torsion [CA]-CB--CG1-[CD1] |==|  0.34735
USER: genes 5 Torsion [C]-CA--N-[C] |==|  0.70173
USER: genes 6 Torsion [N]-C--CA-[N] |==|  0.10034
USER: genes 7 Torsion [C]-CA--CB-[CG1] |==|  0.33391
USER: genes 8 Torsion [C]-CA--N-[H2] |==|  0.78862
USER: genes 9 Torsion [C]-N--CA-[CB] |==|  0.51122
USER: genes 10 Torsion [N]-CA--C-[N] |==|  0.41795
USER: genes 11 Torsion [C]-N--CA-[CB] |==|  0.26664
USER: genes 12 Torsion [N]-CA--CB-[CG] |==|  0.78569
USER: genes 13 Torsion [CA]-CB--CG-[CD] |==|  0.24062
USER: genes 14 Torsion [CB]-CG--CD-[CE] |==|  0.46593
USER: genes 15 Torsion [CG]-CD--CE-[NZ] |==|  0.32778
USER: genes 16 Torsion [CD]-CE--NZ-[HZ3] |==|  0.81760
USER: genes 17 Torsion [N]-CA--C-[O] |==|  0.97962
ROOT
ATOM      1  C   ILE P   2       8.394  25.762  -6.591  1.00 41.40 LIG 0.24  C 
ATOM      2 O    ILE P   2       7.950  26.469  -5.674  1.00 41.61 LIG-0.27  OA
ATOM      3  N   ALA P   3       7.925  24.565  -6.941  1.00 41.46 LIG-0.35  N 
ATOM      4 H    ALA P   3       8.249  24.149  -7.621  1.00 41.46 LIG 0.16  HD
ENDROOT
BRANCH 1 5
ATOM      5  CA  ILE P   2       9.585  26.178  -7.448  1.00 41.22 LIG 0.18  C 
BRANCH 5 6
ATOM      6  CB  ILE P   2      10.735  26.240  -6.457  1.00 41.07 LIG 0.01  C 
ATOM      7  CG2 ILE P   2      10.711  25.035  -5.528  1.00 40.92 LIG 0.01  C 
BRANCH 6 8
ATOM      8  CG1 ILE P   2      12.053  26.311  -7.214  1.00 41.09 LIG 0.00  C 
ATOM      9  CD1 ILE P   2      12.912  27.492  -6.828  1.00 41.85 LIG 0.01  C 
ENDBRANCH 6 8
ENDBRANCH 5 6
BRANCH 5 10
ATOM     10  N   ILE P   2       9.554  27.421  -8.190  1.00 40.98 LIG-0.35  N 
ATOM     11  C   VAL P   1       9.416  27.261  -9.499  1.00 40.89 LIG 0.25  C 
ATOM     12 O    VAL P   1       9.199  26.165 -10.011  1.00 40.76 LIG-0.27  OA
ATOM     13 H    ILE P   2       9.625  28.157  -7.752  1.00 40.98 LIG 0.16  HD
BRANCH 11 14
ATOM     14  CA  VAL P   1       9.510  28.490 -10.403  1.00 40.81 LIG 0.28  C 
BRANCH 14 15
ATOM     15  CB  VAL P   1       9.843  28.055 -11.837  1.00 40.75 LIG 0.02  C 
ATOM     16  CG1 VAL P   1       8.750  28.496 -12.795  1.00 40.27 LIG 0.01  C 
ATOM     17  CG2 VAL P   1      11.183  28.628 -12.278  1.00 40.35 LIG 0.01  C 
ENDBRANCH 14 15
BRANCH 14 18
ATOM     18  N   VAL P   1      10.492  29.435  -9.913  1.00 41.10 LIG-0.07  N 
ATOM     19 H1   VAL P   1      10.696  30.012 -10.558  1.00 41.10 LIG 0.28  HD
ATOM     20 H3   VAL P   1      11.226  28.998  -9.663  1.00 41.10 LIG 0.28  HD
ATOM     21 H2   VAL P   1      10.159  29.876  -9.215  1.00 41.10 LIG 0.28  HD
ENDBRANCH 14 18
ENDBRANCH 11 14
ENDBRANCH 5 10
ENDBRANCH 1 5
BRANCH 3 22
ATOM     22  CA  ALA P   3       6.870  23.793  -6.306  1.00 41.49 LIG 0.17  C 
ATOM     23  CB  ALA P   3       6.767  22.449  -7.012  1.00 41.44 LIG 0.04  C 
BRANCH 22 24
ATOM     24  C   ALA P   3       6.966  23.581  -4.811  1.00 41.37 LIG 0.24  C 
ATOM     25 O    ALA P   3       8.035  23.552  -4.200  1.00 41.45 LIG-0.27  OA
ATOM     26  N   LYS P   4       5.751  23.453  -4.229  1.00 41.15 LIG-0.35  N 
ATOM     27 H    LYS P   4       5.033  23.573  -4.686  1.00 41.15 LIG 0.16  HD
BRANCH 26 28
ATOM     28  CA  LYS P   4       5.446  23.124  -2.858  1.00 40.89 LIG 0.16  C 
BRANCH 28 29
ATOM     29  CB  LYS P   4       5.218  24.446  -2.116  1.00 40.64 LIG 0.03  C 
BRANCH 29 30
ATOM     30  CG  LYS P   4       6.505  25.182  -1.775  1.00 49.46 LIG 0.00  C 
BRANCH 30 31
ATOM     31  CD  LYS P   4       6.968  26.077  -2.913  1.00 47.65 LIG 0.03  C 
BRANCH 31 32
ATOM     32  CE  LYS P   4       8.071  27.045  -2.507  1.00 46.32 LIG 0.23  C 
BRANCH 32 33
ATOM     33  NZ  LYS P   4       9.324  26.810  -3.269  1.00 44.97 LIG-0.08  N 
ATOM     34 HZ3  LYS P   4       9.656  26.012  -3.056  1.00 44.97 LIG 0.27  HD
ATOM     35 HZ1  LYS P   4       9.150  26.835  -4.141  1.00 44.97 LIG 0.27  HD
ATOM     36 HZ2  LYS P   4       9.918  27.442  -3.066  1.00 44.97 LIG 0.27  HD
ENDBRANCH 32 33
ENDBRANCH 31 32
ENDBRANCH 30 31
ENDBRANCH 29 30
ENDBRANCH 28 29
BRANCH 28 37
ATOM     37  C   LYS P   4       4.228  22.215  -2.721  1.00 40.96 LIG 0.22  C 
ATOM     38 O    LYS P   4       3.536  21.949  -3.702  1.00 40.89 LIG-0.29  OA
ENDBRANCH 28 37
ENDBRANCH 26 28
ENDBRANCH 22 24
ENDBRANCH 3 22
TORSDOF 16
ENDMDL
MODEL 30
USER: ADFR SOLUTION from run 124
USER: SCORE 13.232897 LL:  -2.562 LR: -12.567 RR:   0.000 FEB:  -7.794
USER: RMSD 9.528246
USER: SEED 123
USER: STATUS no improvement in best 7 clusters for 5 generations
USER: GENES 18
USER: genes 0 Translation |==|  0.59735 0.60952 0.54196
USER: genes 1 Rotation |==|  0.79605 0.11798 0.42468 0.60365
USER: genes 2 Torsion [N]-C--CA-[N] |==|  0.00720
USER: genes 3 Torsion [C]-CA--CB-[CG2] |==|  0.27070
USER: genes 4 Torsion [CA]-CB--CG1-[CD1] |==|  0.67769
USER: genes 5 Torsion [C]-CA--N-[C] |==|  0.65713
USER: genes 6 Torsion [N]-C--CA-[N] |==|  0.90867
USER: genes 7 Torsion [C]-CA--CB-[CG1] |==|  0.77497
USER: genes 8 Torsion [C]-CA--N-[H2] |==|  0.77532
USER: genes 9 Torsion [C]-N--CA-[CB] |==|  0.42210
USER: genes 10 Torsion [N]-CA--C-[N] |==|  0.20599
USER: genes 11 Torsion [C]-N--CA-[CB] |==|  0.40988
USER: genes 12 Torsion [N]-CA--CB-[CG] |==|  0.98685
USER: genes 13 Torsion [CA]-CB--CG-[CD] |==|  0.34853
USER: genes 14 Torsion [CB]-CG--CD-[CE] |==|  0.94272
USER: genes 15 Torsion [CG]-CD--CE-[NZ] |==|  0.41959
USER: genes 16 Torsion [CD]-CE--NZ-[HZ3] |==|  0.46090
USER: genes 17 Torsion [N]-CA--C-[O] |==|  0.15996
ROOT
ATOM      1  C   ILE P   2       8.671  24.096  -4.421  1.00 41.40 LIG 0.24  C 
ATOM      2 O    ILE P   2       8.734  22.900  -4.095  1.00 41.61 LIG-0.27  OA
ATOM      3  N   ALA P   3       8.172  25.076  -3.670  1.00 41.46 LIG-0.35  N 
ATOM      4 H    ALA P   3       8.204  25.893  -3.938  1.00 41.46 LIG 0.16  HD
ENDROOT
BRANCH 1 5
ATOM      5  CA  ILE P   2       9.152  24.606  -5.775  1.00 41.22 LIG 0.18  C 
BRANCH 5 6
ATOM      6  CB  ILE P   2      10.605  24.168  -5.827  1.00 41.07 LIG 0.01  C 
ATOM      7  CG2 ILE P   2      10.749  22.871  -6.610  1.00 40.92 LIG 0.01  C 
BRANCH 6 8
ATOM      8  CG1 ILE P   2      11.444  25.272  -6.455  1.00 41.09 LIG 0.00  C 
ATOM      9  CD1 ILE P   2      12.087  24.875  -7.763  1.00 41.85 LIG 0.01  C 
ENDBRANCH 6 8
ENDBRANCH 5 6
BRANCH 5 10
ATOM     10  N   ILE P   2       9.089  26.018  -6.090  1.00 40.98 LIG-0.35  N 
ATOM     11  C   VAL P   1       8.396  26.293  -7.187  1.00 40.89 LIG 0.25  C 
ATOM     12 O    VAL P   1       7.759  25.438  -7.797  1.00 40.76 LIG-0.27  OA
ATOM     13 H    ILE P   2       9.489  26.569  -5.565  1.00 40.98 LIG 0.16  HD
BRANCH 11 14
ATOM     14  CA  VAL P   1       8.375  27.733  -7.700  1.00 40.81 LIG 0.28  C 
BRANCH 14 15
ATOM     15  CB  VAL P   1       9.534  27.951  -8.682  1.00 40.75 LIG 0.02  C 
ATOM     16  CG1 VAL P   1      10.829  28.207  -7.930  1.00 40.27 LIG 0.01  C 
ATOM     17  CG2 VAL P   1       9.698  26.749  -9.602  1.00 40.35 LIG 0.01  C 
ENDBRANCH 14 15
BRANCH 14 18
ATOM     18  N   VAL P   1       8.441  28.685  -6.611  1.00 41.10 LIG-0.07  N 
ATOM     19 H1   VAL P   1       8.727  29.469  -6.919  1.00 41.10 LIG 0.28  HD
ATOM     20 H3   VAL P   1       9.004  28.387  -5.989  1.00 41.10 LIG 0.28  HD
ATOM     21 H2   VAL P   1       7.631  28.785  -6.254  1.00 41.10 LIG 0.28  HD
ENDBRANCH 14 18
ENDBRANCH 11 14
ENDBRANCH 5 10
ENDBRANCH 1 5
BRANCH 3 22
ATOM     22  CA  ALA P   3       7.534  24.975  -2.368  1.00 41.49 LIG 0.17  C 
ATOM     23  CB  ALA P   3       7.759  26.280  -1.619  1.00 41.44 LIG 0.04  C 
BRANCH 22 24
ATOM     24  C   ALA P   3       6.064  24.614  -2.339  1.00 41.37 LIG 0.24  C 
ATOM     25 O    ALA P   3       5.173  25.432  -2.107  1.00 41.45 LIG-0.27  OA
ATOM     26  N   LYS P   4       5.847  23.309  -2.620  1.00 41.15 LIG-0.35  N 
ATOM     27 H    LYS P   4       6.496  22.802  -2.866  1.00 41.15 LIG 0.16  HD
BRANCH 26 28
ATOM     28  CA  LYS P   4       4.605  22.577  -2.570  1.00 40.89 LIG 0.16  C 
BRANCH 28 29
ATOM     29  CB  LYS P   4       4.666  21.508  -3.668  1.00 40.64 LIG 0.03  C 
BRANCH 29 30
ATOM     30  CG  LYS P   4       5.913  21.597  -4.536  1.00 49.46 LIG 0.00  C 
BRANCH 30 31
ATOM     31  CD  LYS P   4       6.673  20.281  -4.577  1.00 47.65 LIG 0.03  C 
BRANCH 31 32
ATOM     32  CE  LYS P   4       6.344  19.360  -3.411  1.00 46.32 LIG 0.23  C 
BRANCH 32 33
ATOM     33  NZ  LYS P   4       6.498  17.928  -3.773  1.00 44.97 LIG-0.08  N 
ATOM     34 HZ3  LYS P   4       6.501  17.433  -3.034  1.00 44.97 LIG 0.27  HD
ATOM     35 HZ1  LYS P   4       5.821  17.679  -4.294  1.00 44.97 LIG 0.27  HD
ATOM     36 HZ2  LYS P   4       7.266  17.813  -4.209  1.00 44.97 LIG 0.27  HD
ENDBRANCH 32 33
ENDBRANCH 31 32
ENDBRANCH 30 31
ENDBRANCH 29 30
ENDBRANCH 28 29
BRANCH 28 37
ATOM     37  C   LYS P   4       4.346  21.936  -1.211  1.00 40.96 LIG 0.22  C 
ATOM     38 O    LYS P   4       4.306  22.625  -0.194  1.00 40.89 LIG-0.29  OA
ENDBRANCH 28 37
ENDBRANCH 26 28
ENDBRANCH 22 24
ENDBRANCH 3 22
TORSDOF 16
ENDMDL
MODEL 31
USER: ADFR SOLUTION from run 103
USER: SCORE 14.314377 LL:  -2.172 LR: -12.545 RR:   0.000 FEB:  -7.772
USER: RMSD 8.328571
USER: SEED 102
USER: STATUS no improvement in best 8 clusters for 5 generations
USER: GENES 18
USER: genes 0 Translation |==|  0.51381 0.62261 0.55613
USER: genes 1 Rotation |==|  0.48204 0.68172 0.95518 0.59732
USER: genes 2 Torsion [N]-C--CA-[N] |==|  0.40549
USER: genes 3 Torsion [C]-CA--CB-[CG2] |==|  0.05781
USER: genes 4 Torsion [CA]-CB--CG1-[CD1] |==|  0.62400
USER: genes 5 Torsion [C]-CA--N-[C] |==|  0.82619
USER: genes 6 Torsion [N]-C--CA-[N] |==|  0.02730
USER: genes 7 Torsion [C]-CA--CB-[CG1] |==|  0.51687
USER: genes 8 Torsion [C]-CA--N-[H2] |==|  0.45195
USER: genes 9 Torsion [C]-N--CA-[CB] |==|  0.76979
USER: genes 10 Torsion [N]-CA--C-[N] |==|  0.13738
USER: genes 11 Torsion [C]-N--CA-[CB] |==|  0.87786
USER: genes 12 Torsion [N]-CA--CB-[CG] |==|  0.77461
USER: genes 13 Torsion [CA]-CB--CG-[CD] |==|  0.14261
USER: genes 14 Torsion [CB]-CG--CD-[CE] |==|  0.24712
USER: genes 15 Torsion [CG]-CD--CE-[NZ] |==|  0.43902
USER: genes 16 Torsion [CD]-CE--NZ-[HZ3] |==|  0.94150
USER: genes 17 Torsion [N]-CA--C-[O] |==|  0.05497
ROOT
ATOM      1  C   ILE P   2       6.164  24.488  -3.996  1.00 41.40 LIG 0.24  C 
ATOM      2 O    ILE P   2       5.123  24.811  -4.589  1.00 41.61 LIG-0.27  OA
ATOM      3  N   ALA P   3       6.422  23.284  -3.487  1.00 41.46 LIG-0.35  N 
ATOM      4 H    ALA P   3       7.187  23.115  -3.131  1.00 41.46 LIG 0.16  HD
ENDROOT
BRANCH 1 5
ATOM      5  CA  ILE P   2       7.307  25.467  -3.748  1.00 41.22 LIG 0.18  C 
BRANCH 5 6
ATOM      6  CB  ILE P   2       6.916  26.154  -2.451  1.00 41.07 LIG 0.01  C 
ATOM      7  CG2 ILE P   2       5.915  25.309  -1.676  1.00 40.92 LIG 0.01  C 
BRANCH 6 8
ATOM      8  CG1 ILE P   2       8.163  26.411  -1.618  1.00 41.09 LIG 0.00  C 
ATOM      9  CD1 ILE P   2       8.000  26.060  -0.158  1.00 41.85 LIG 0.01  C 
ENDBRANCH 6 8
ENDBRANCH 5 6
BRANCH 5 10
ATOM     10  N   ILE P   2       7.623  26.487  -4.727  1.00 40.98 LIG-0.35  N 
ATOM     11  C   VAL P   1       8.010  26.003  -5.900  1.00 40.89 LIG 0.25  C 
ATOM     12 O    VAL P   1       7.971  24.804  -6.164  1.00 40.76 LIG-0.27  OA
ATOM     13 H    ILE P   2       7.543  27.311  -4.495  1.00 40.98 LIG 0.16  HD
BRANCH 11 14
ATOM     14  CA  VAL P   1       8.504  26.978  -6.969  1.00 40.81 LIG 0.28  C 
BRANCH 14 15
ATOM     15  CB  VAL P   1       9.813  26.459  -7.579  1.00 40.75 LIG 0.02  C 
ATOM     16  CG1 VAL P   1      10.399  27.483  -8.536  1.00 40.27 LIG 0.01  C 
ATOM     17  CG2 VAL P   1      10.824  26.128  -6.490  1.00 40.35 LIG 0.01  C 
ENDBRANCH 14 15
BRANCH 14 18
ATOM     18  N   VAL P   1       8.683  28.310  -6.430  1.00 41.10 LIG-0.07  N 
ATOM     19 H1   VAL P   1       9.073  28.258  -5.632  1.00 41.10 LIG 0.28  HD
ATOM     20 H3   VAL P   1       7.890  28.706  -6.346  1.00 41.10 LIG 0.28  HD
ATOM     21 H2   VAL P   1       9.195  28.787  -6.980  1.00 41.10 LIG 0.28  HD
ENDBRANCH 14 18
ENDBRANCH 11 14
ENDBRANCH 5 10
ENDBRANCH 1 5
BRANCH 3 22
ATOM     22  CA  ALA P   3       5.548  22.124  -3.437  1.00 41.49 LIG 0.17  C 
ATOM     23  CB  ALA P   3       4.633  22.265  -2.230  1.00 41.44 LIG 0.04  C 
BRANCH 22 24
ATOM     24  C   ALA P   3       4.727  21.816  -4.670  1.00 41.37 LIG 0.24  C 
ATOM     25 O    ALA P   3       3.512  21.617  -4.640  1.00 41.45 LIG-0.27  OA
ATOM     26  N   LYS P   4       5.473  21.811  -5.799  1.00 41.15 LIG-0.35  N 
ATOM     27 H    LYS P   4       6.299  22.047  -5.777  1.00 41.15 LIG 0.16  HD
BRANCH 26 28
ATOM     28  CA  LYS P   4       5.072  21.445  -7.135  1.00 40.89 LIG 0.16  C 
BRANCH 28 29
ATOM     29  CB  LYS P   4       4.243  20.160  -7.021  1.00 40.64 LIG 0.03  C 
BRANCH 29 30
ATOM     30  CG  LYS P   4       5.088  18.900  -6.901  1.00 49.46 LIG 0.00  C 
BRANCH 30 31
ATOM     31  CD  LYS P   4       6.131  19.015  -5.802  1.00 47.65 LIG 0.03  C 
BRANCH 31 32
ATOM     32  CE  LYS P   4       5.623  18.560  -4.441  1.00 46.32 LIG 0.23  C 
BRANCH 32 33
ATOM     33  NZ  LYS P   4       6.734  18.185  -3.530  1.00 44.97 LIG-0.08  N 
ATOM     34 HZ3  LYS P   4       7.460  17.999  -4.009  1.00 44.97 LIG 0.27  HD
ATOM     35 HZ1  LYS P   4       6.908  18.862  -2.979  1.00 44.97 LIG 0.27  HD
ATOM     36 HZ2  LYS P   4       6.500  17.469  -3.055  1.00 44.97 LIG 0.27  HD
ENDBRANCH 32 33
ENDBRANCH 31 32
ENDBRANCH 30 31
ENDBRANCH 29 30
ENDBRANCH 28 29
BRANCH 28 37
ATOM     37  C   LYS P   4       4.272  22.538  -7.837  1.00 40.96 LIG 0.22  C 
ATOM     38 O    LYS P   4       4.329  23.701  -7.445  1.00 40.89 LIG-0.29  OA
ENDBRANCH 28 37
ENDBRANCH 26 28
ENDBRANCH 22 24
ENDBRANCH 3 22
TORSDOF 16
ENDMDL
MODEL 32
USER: ADFR SOLUTION from run 116
USER: SCORE 14.119401 LL:  -2.362 LR: -12.517 RR:   0.000 FEB:  -7.744
USER: RMSD 7.638812
USER: SEED 115
USER: STATUS no improvement in best 10 clusters for 5 generations
USER: GENES 18
USER: genes 0 Translation |==|  0.48497 0.56565 0.47952
USER: genes 1 Rotation |==|  0.91968 0.57403 0.72731 0.62930
USER: genes 2 Torsion [N]-C--CA-[N] |==|  0.28550
USER: genes 3 Torsion [C]-CA--CB-[CG2] |==|  0.14897
USER: genes 4 Torsion [CA]-CB--CG1-[CD1] |==|  0.36049
USER: genes 5 Torsion [C]-CA--N-[C] |==|  0.76289
USER: genes 6 Torsion [N]-C--CA-[N] |==|  0.89883
USER: genes 7 Torsion [C]-CA--CB-[CG1] |==|  0.49674
USER: genes 8 Torsion [C]-CA--N-[H2] |==|  0.97442
USER: genes 9 Torsion [C]-N--CA-[CB] |==|  0.57149
USER: genes 10 Torsion [N]-CA--C-[N] |==|  0.21268
USER: genes 11 Torsion [C]-N--CA-[CB] |==|  0.49187
USER: genes 12 Torsion [N]-CA--CB-[CG] |==|  0.81268
USER: genes 13 Torsion [CA]-CB--CG-[CD] |==|  0.85505
USER: genes 14 Torsion [CB]-CG--CD-[CE] |==|  0.70294
USER: genes 15 Torsion [CG]-CD--CE-[NZ] |==|  0.74621
USER: genes 16 Torsion [CD]-CE--NZ-[HZ3] |==|  0.84608
USER: genes 17 Torsion [N]-CA--C-[O] |==|  0.96915
ROOT
ATOM      1  C   ILE P   2       5.299  22.779  -6.295  1.00 41.40 LIG 0.24  C 
ATOM      2 O    ILE P   2       5.693  23.608  -5.459  1.00 41.61 LIG-0.27  OA
ATOM      3  N   ALA P   3       4.559  21.705  -6.027  1.00 41.46 LIG-0.35  N 
ATOM      4 H    ALA P   3       4.279  21.197  -6.663  1.00 41.46 LIG 0.16  HD
ENDROOT
BRANCH 1 5
ATOM      5  CA  ILE P   2       5.643  22.879  -7.777  1.00 41.22 LIG 0.18  C 
BRANCH 5 6
ATOM      6  CB  ILE P   2       7.115  23.251  -7.779  1.00 41.07 LIG 0.01  C 
ATOM      7  CG2 ILE P   2       7.921  22.265  -6.945  1.00 40.92 LIG 0.01  C 
BRANCH 6 8
ATOM      8  CG1 ILE P   2       7.626  23.288  -9.212  1.00 41.09 LIG 0.00  C 
ATOM      9  CD1 ILE P   2       8.374  24.554  -9.557  1.00 41.85 LIG 0.01  C 
ENDBRANCH 6 8
ENDBRANCH 5 6
BRANCH 5 10
ATOM     10  N   ILE P   2       4.935  23.810  -8.631  1.00 40.98 LIG-0.35  N 
ATOM     11  C   VAL P   1       3.798  23.333  -9.119  1.00 40.89 LIG 0.25  C 
ATOM     12 O    VAL P   1       3.329  22.253  -8.765  1.00 40.76 LIG-0.27  OA
ATOM     13 H    ILE P   2       5.284  24.585  -8.764  1.00 40.98 LIG 0.16  HD
BRANCH 11 14
ATOM     14  CA  VAL P   1       3.031  24.168 -10.144  1.00 40.81 LIG 0.28  C 
BRANCH 14 15
ATOM     15  CB  VAL P   1       3.558  23.870 -11.554  1.00 40.75 LIG 0.02  C 
ATOM     16  CG1 VAL P   1       2.787  24.670 -12.591  1.00 40.27 LIG 0.01  C 
ATOM     17  CG2 VAL P   1       5.043  24.184 -11.655  1.00 40.35 LIG 0.01  C 
ENDBRANCH 14 15
BRANCH 14 18
ATOM     18  N   VAL P   1       3.124  25.584  -9.851  1.00 41.10 LIG-0.07  N 
ATOM     19 H1   VAL P   1       2.309  25.940  -9.849  1.00 41.10 LIG 0.28  HD
ATOM     20 H3   VAL P   1       3.621  25.983 -10.472  1.00 41.10 LIG 0.28  HD
ATOM     21 H2   VAL P   1       3.500  25.698  -9.053  1.00 41.10 LIG 0.28  HD
ENDBRANCH 14 18
ENDBRANCH 11 14
ENDBRANCH 5 10
ENDBRANCH 1 5
BRANCH 3 22
ATOM     22  CA  ALA P   3       4.116  21.218  -4.731  1.00 41.49 LIG 0.17  C 
ATOM     23  CB  ALA P   3       3.882  19.719  -4.835  1.00 41.44 LIG 0.04  C 
BRANCH 22 24
ATOM     24  C   ALA P   3       4.995  21.518  -3.537  1.00 41.37 LIG 0.24  C 
ATOM     25 O    ALA P   3       5.747  20.687  -3.026  1.00 41.45 LIG-0.27  OA
ATOM     26  N   LYS P   4       4.879  22.800  -3.118  1.00 41.15 LIG-0.35  N 
ATOM     27 H    LYS P   4       4.410  23.364  -3.567  1.00 41.15 LIG 0.16  HD
BRANCH 26 28
ATOM     28  CA  LYS P   4       5.460  23.416  -1.951  1.00 40.89 LIG 0.16  C 
BRANCH 28 29
ATOM     29  CB  LYS P   4       5.075  24.900  -1.986  1.00 40.64 LIG 0.03  C 
BRANCH 29 30
ATOM     30  CG  LYS P   4       5.724  25.671  -3.127  1.00 49.46 LIG 0.00  C 
BRANCH 30 31
ATOM     31  CD  LYS P   4       7.231  25.479  -3.160  1.00 47.65 LIG 0.03  C 
BRANCH 31 32
ATOM     32  CE  LYS P   4       8.004  26.705  -2.696  1.00 46.32 LIG 0.23  C 
BRANCH 32 33
ATOM     33  NZ  LYS P   4       8.346  27.606  -3.826  1.00 44.97 LIG-0.08  N 
ATOM     34 HZ3  LYS P   4       8.792  27.149  -4.446  1.00 44.97 LIG 0.27  HD
ATOM     35 HZ1  LYS P   4       7.599  27.935  -4.180  1.00 44.97 LIG 0.27  HD
ATOM     36 HZ2  LYS P   4       8.853  28.276  -3.529  1.00 44.97 LIG 0.27  HD
ENDBRANCH 32 33
ENDBRANCH 31 32
ENDBRANCH 30 31
ENDBRANCH 29 30
ENDBRANCH 28 29
BRANCH 28 37
ATOM     37  C   LYS P   4       5.000  22.774  -0.647  1.00 40.96 LIG 0.22  C 
ATOM     38 O    LYS P   4       4.067  21.973  -0.642  1.00 40.89 LIG-0.29  OA
ENDBRANCH 28 37
ENDBRANCH 26 28
ENDBRANCH 22 24
ENDBRANCH 3 22
TORSDOF 16
ENDMDL
MODEL 33
USER: ADFR SOLUTION from run 111
USER: SCORE 14.390595 LL:  -2.328 LR: -12.524 RR:   0.000 FEB:  -7.751
USER: RMSD 7.908609
USER: SEED 110
USER: STATUS no improvement in best 12 clusters for 5 generations
USER: GENES 18
USER: genes 0 Translation |==|  0.50851 0.62259 0.54574
USER: genes 1 Rotation |==|  0.49244 0.65081 0.96383 0.60984
USER: genes 2 Torsion [N]-C--CA-[N] |==|  0.38973
USER: genes 3 Torsion [C]-CA--CB-[CG2] |==|  0.09985
USER: genes 4 Torsion [CA]-CB--CG1-[CD1] |==|  0.63159
USER: genes 5 Torsion [C]-CA--N-[C] |==|  0.82689
USER: genes 6 Torsion [N]-C--CA-[N] |==|  0.99761
USER: genes 7 Torsion [C]-CA--CB-[CG1] |==|  0.54380
USER: genes 8 Torsion [C]-CA--N-[H2] |==|  0.48896
USER: genes 9 Torsion [C]-N--CA-[CB] |==|  0.78817
USER: genes 10 Torsion [N]-CA--C-[N] |==|  0.07047
USER: genes 11 Torsion [C]-N--CA-[CB] |==|  0.22349
USER: genes 12 Torsion [N]-CA--CB-[CG] |==|  0.53380
USER: genes 13 Torsion [CA]-CB--CG-[CD] |==|  0.68630
USER: genes 14 Torsion [CB]-CG--CD-[CE] |==|  0.67072
USER: genes 15 Torsion [CG]-CD--CE-[NZ] |==|  0.27746
USER: genes 16 Torsion [CD]-CE--NZ-[HZ3] |==|  0.31294
USER: genes 17 Torsion [N]-CA--C-[O] |==|  0.87199
ROOT
ATOM      1  C   ILE P   2       6.005  24.488  -4.308  1.00 41.40 LIG 0.24  C 
ATOM      2 O    ILE P   2       4.985  24.938  -4.852  1.00 41.61 LIG-0.27  OA
ATOM      3  N   ALA P   3       6.200  23.215  -3.966  1.00 41.46 LIG-0.35  N 
ATOM      4 H    ALA P   3       6.953  22.961  -3.636  1.00 41.46 LIG 0.16  HD
ENDROOT
BRANCH 1 5
ATOM      5  CA  ILE P   2       7.193  25.366  -3.930  1.00 41.22 LIG 0.18  C 
BRANCH 5 6
ATOM      6  CB  ILE P   2       6.765  26.004  -2.620  1.00 41.07 LIG 0.01  C 
ATOM      7  CG2 ILE P   2       5.949  25.026  -1.787  1.00 40.92 LIG 0.01  C 
BRANCH 6 8
ATOM      8  CG1 ILE P   2       7.997  26.466  -1.855  1.00 41.09 LIG 0.00  C 
ATOM      9  CD1 ILE P   2       7.996  26.060  -0.400  1.00 41.85 LIG 0.01  C 
ENDBRANCH 6 8
ENDBRANCH 5 6
BRANCH 5 10
ATOM     10  N   ILE P   2       7.641  26.415  -4.824  1.00 40.98 LIG-0.35  N 
ATOM     11  C   VAL P   1       8.065  25.973  -6.000  1.00 40.89 LIG 0.25  C 
ATOM     12 O    VAL P   1       7.959  24.797  -6.341  1.00 40.76 LIG-0.27  OA
ATOM     13 H    ILE P   2       7.605  27.228  -4.546  1.00 40.98 LIG 0.16  HD
BRANCH 11 14
ATOM     14  CA  VAL P   1       8.693  26.968  -6.975  1.00 40.81 LIG 0.28  C 
BRANCH 14 15
ATOM     15  CB  VAL P   1      10.116  26.517  -7.333  1.00 40.75 LIG 0.02  C 
ATOM     16  CG1 VAL P   1      10.891  27.656  -7.974  1.00 40.27 LIG 0.01  C 
ATOM     17  CG2 VAL P   1      10.852  26.017  -6.099  1.00 40.35 LIG 0.01  C 
ENDBRANCH 14 15
BRANCH 14 18
ATOM     18  N   VAL P   1       8.704  28.310  -6.430  1.00 41.10 LIG-0.07  N 
ATOM     19 H1   VAL P   1       9.125  28.309  -5.647  1.00 41.10 LIG 0.28  HD
ATOM     20 H3   VAL P   1       7.867  28.591  -6.316  1.00 41.10 LIG 0.28  HD
ATOM     21 H2   VAL P   1       9.125  28.856  -6.993  1.00 41.10 LIG 0.28  HD
ENDBRANCH 14 18
ENDBRANCH 11 14
ENDBRANCH 5 10
ENDBRANCH 1 5
BRANCH 3 22
ATOM     22  CA  ALA P   3       5.270  22.103  -4.072  1.00 41.49 LIG 0.17  C 
ATOM     23  CB  ALA P   3       4.252  22.220  -2.947  1.00 41.44 LIG 0.04  C 
BRANCH 22 24
ATOM     24  C   ALA P   3       4.556  21.916  -5.393  1.00 41.37 LIG 0.24  C 
ATOM     25 O    ALA P   3       3.457  21.370  -5.495  1.00 41.45 LIG-0.27  OA
ATOM     26  N   LYS P   4       5.248  22.437  -6.432  1.00 41.15 LIG-0.35  N 
ATOM     27 H    LYS P   4       5.966  22.889  -6.295  1.00 41.15 LIG 0.16  HD
BRANCH 26 28
ATOM     28  CA  LYS P   4       4.950  22.347  -7.841  1.00 40.89 LIG 0.16  C 
BRANCH 28 29
ATOM     29  CB  LYS P   4       3.878  23.401  -8.143  1.00 40.64 LIG 0.03  C 
BRANCH 29 30
ATOM     30  CG  LYS P   4       3.240  23.244  -9.517  1.00 49.46 LIG 0.00  C 
BRANCH 30 31
ATOM     31  CD  LYS P   4       3.590  24.398 -10.442  1.00 47.65 LIG 0.03  C 
BRANCH 31 32
ATOM     32  CE  LYS P   4       2.374  25.188 -10.904  1.00 46.32 LIG 0.23  C 
BRANCH 32 33
ATOM     33  NZ  LYS P   4       2.196  26.440 -10.126  1.00 44.97 LIG-0.08  N 
ATOM     34 HZ3  LYS P   4       2.339  27.141 -10.656  1.00 44.97 LIG 0.27  HD
ATOM     35 HZ1  LYS P   4       1.367  26.475  -9.805  1.00 44.97 LIG 0.27  HD
ATOM     36 HZ2  LYS P   4       2.777  26.456  -9.451  1.00 44.97 LIG 0.27  HD
ENDBRANCH 32 33
ENDBRANCH 31 32
ENDBRANCH 30 31
ENDBRANCH 29 30
ENDBRANCH 28 29
BRANCH 28 37
ATOM     37  C   LYS P   4       6.175  22.561  -8.724  1.00 40.96 LIG 0.22  C 
ATOM     38 O    LYS P   4       6.948  23.491  -8.503  1.00 40.89 LIG-0.29  OA
ENDBRANCH 28 37
ENDBRANCH 26 28
ENDBRANCH 22 24
ENDBRANCH 3 22
TORSDOF 16
ENDMDL
MODEL 34
USER: ADFR SOLUTION from run 26
USER: SCORE 14.044172 LL:  -2.261 LR: -12.492 RR:   0.000 FEB:  -7.719
USER: RMSD 9.286692
USER: SEED 25
USER: STATUS no improvement in best 11 clusters for 5 generations
USER: GENES 18
USER: genes 0 Translation |==|  0.52739 0.53284 0.52123
USER: genes 1 Rotation |==|  0.52714 0.73383 0.94076 0.51796
USER: genes 2 Torsion [N]-C--CA-[N] |==|  0.78904
USER: genes 3 Torsion [C]-CA--CB-[CG2] |==|  0.29165
USER: genes 4 Torsion [CA]-CB--CG1-[CD1] |==|  0.70887
USER: genes 5 Torsion [C]-CA--N-[C] |==|  0.64600
USER: genes 6 Torsion [N]-C--CA-[N] |==|  0.43289
USER: genes 7 Torsion [C]-CA--CB-[CG1] |==|  0.00791
USER: genes 8 Torsion [C]-CA--N-[H2] |==|  0.21737
USER: genes 9 Torsion [C]-N--CA-[CB] |==|  0.80939
USER: genes 10 Torsion [N]-CA--C-[N] |==|  0.45698
USER: genes 11 Torsion [C]-N--CA-[CB] |==|  0.46737
USER: genes 12 Torsion [N]-CA--CB-[CG] |==|  0.24757
USER: genes 13 Torsion [CA]-CB--CG-[CD] |==|  0.33344
USER: genes 14 Torsion [CB]-CG--CD-[CE] |==|  0.36253
USER: genes 15 Torsion [CG]-CD--CE-[NZ] |==|  0.81627
USER: genes 16 Torsion [CD]-CE--NZ-[HZ3] |==|  0.94840
USER: genes 17 Torsion [N]-CA--C-[O] |==|  0.93252
ROOT
ATOM      1  C   ILE P   2       6.572  21.795  -5.043  1.00 41.40 LIG 0.24  C 
ATOM      2 O    ILE P   2       5.358  21.800  -5.301  1.00 41.61 LIG-0.27  OA
ATOM      3  N   ALA P   3       7.236  20.791  -4.473  1.00 41.46 LIG-0.35  N 
ATOM      4 H    ALA P   3       8.089  20.835  -4.368  1.00 41.46 LIG 0.16  HD
ENDROOT
BRANCH 1 5
ATOM      5  CA  ILE P   2       7.480  22.984  -5.336  1.00 41.22 LIG 0.18  C 
BRANCH 5 6
ATOM      6  CB  ILE P   2       8.714  22.349  -5.953  1.00 41.07 LIG 0.01  C 
ATOM      7  CG2 ILE P   2       8.742  22.579  -7.458  1.00 40.92 LIG 0.01  C 
BRANCH 6 8
ATOM      8  CG1 ILE P   2       9.961  22.924  -5.297  1.00 41.09 LIG 0.00  C 
ATOM      9  CD1 ILE P   2      10.699  23.918  -6.163  1.00 41.85 LIG 0.01  C 
ENDBRANCH 6 8
ENDBRANCH 5 6
BRANCH 5 10
ATOM     10  N   ILE P   2       7.905  23.862  -4.265  1.00 40.98 LIG-0.35  N 
ATOM     11  C   VAL P   1       7.672  25.146  -4.499  1.00 40.89 LIG 0.25  C 
ATOM     12 O    VAL P   1       7.032  25.534  -5.474  1.00 40.76 LIG-0.27  OA
ATOM     13 H    ILE P   2       8.269  23.508  -3.571  1.00 40.98 LIG 0.16  HD
BRANCH 11 14
ATOM     14  CA  VAL P   1       8.201  26.181  -3.507  1.00 40.81 LIG 0.28  C 
BRANCH 14 15
ATOM     15  CB  VAL P   1       7.250  26.282  -2.306  1.00 40.75 LIG 0.02  C 
ATOM     16  CG1 VAL P   1       6.117  25.278  -2.436  1.00 40.27 LIG 0.01  C 
ATOM     17  CG2 VAL P   1       8.000  26.053  -1.001  1.00 40.35 LIG 0.01  C 
ENDBRANCH 14 15
BRANCH 14 18
ATOM     18  N   VAL P   1       8.375  27.475  -4.133  1.00 41.10 LIG-0.07  N 
ATOM     19 H1   VAL P   1       8.732  27.369  -4.941  1.00 41.10 LIG 0.28  HD
ATOM     20 H3   VAL P   1       8.916  27.976  -3.634  1.00 41.10 LIG 0.28  HD
ATOM     21 H2   VAL P   1       7.585  27.878  -4.208  1.00 41.10 LIG 0.28  HD
ENDBRANCH 14 18
ENDBRANCH 11 14
ENDBRANCH 5 10
ENDBRANCH 1 5
BRANCH 3 22
ATOM     22  CA  ALA P   3       6.706  19.538  -3.963  1.00 41.49 LIG 0.17  C 
ATOM     23  CB  ALA P   3       5.868  19.837  -2.730  1.00 41.44 LIG 0.04  C 
BRANCH 22 24
ATOM     24  C   ALA P   3       5.917  18.673  -4.922  1.00 41.37 LIG 0.24  C 
ATOM     25 O    ALA P   3       5.491  19.080  -6.004  1.00 41.45 LIG-0.27  OA
ATOM     26  N   LYS P   4       5.760  17.409  -4.468  1.00 41.15 LIG-0.35  N 
ATOM     27 H    LYS P   4       6.156  17.151  -3.750  1.00 41.15 LIG 0.16  HD
BRANCH 26 28
ATOM     28  CA  LYS P   4       4.973  16.344  -5.040  1.00 40.89 LIG 0.16  C 
BRANCH 28 29
ATOM     29  CB  LYS P   4       5.369  15.051  -4.316  1.00 40.64 LIG 0.03  C 
BRANCH 29 30
ATOM     30  CG  LYS P   4       4.542  14.775  -3.068  1.00 49.46 LIG 0.00  C 
BRANCH 30 31
ATOM     31  CD  LYS P   4       3.793  13.457  -3.161  1.00 47.65 LIG 0.03  C 
BRANCH 31 32
ATOM     32  CE  LYS P   4       3.974  12.574  -1.934  1.00 46.32 LIG 0.23  C 
BRANCH 32 33
ATOM     33  NZ  LYS P   4       5.375  12.104  -1.790  1.00 44.97 LIG-0.08  N 
ATOM     34 HZ3  LYS P   4       5.798  12.190  -2.568  1.00 44.97 LIG 0.27  HD
ATOM     35 HZ1  LYS P   4       5.790  12.591  -1.171  1.00 44.97 LIG 0.27  HD
ATOM     36 HZ2  LYS P   4       5.378  11.248  -1.544  1.00 44.97 LIG 0.27  HD
ENDBRANCH 32 33
ENDBRANCH 31 32
ENDBRANCH 30 31
ENDBRANCH 29 30
ENDBRANCH 28 29
BRANCH 28 37
ATOM     37  C   LYS P   4       3.471  16.584  -4.925  1.00 40.96 LIG 0.22  C 
ATOM     38 O    LYS P   4       3.023  17.317  -4.046  1.00 40.89 LIG-0.29  OA
ENDBRANCH 28 37
ENDBRANCH 26 28
ENDBRANCH 22 24
ENDBRANCH 3 22
TORSDOF 16
ENDMDL
MODEL 35
USER: ADFR SOLUTION from run 131
USER: SCORE 14.525660 LL:  -2.511 LR: -12.479 RR:   0.000 FEB:  -7.707
USER: RMSD 10.263596
USER: SEED 130
USER: STATUS no improvement in best 15 clusters for 5 generations
USER: GENES 18
USER: genes 0 Translation |==|  0.60494 0.67371 0.30697
USER: genes 1 Rotation |==|  0.07526 0.71287 0.54596 0.64889
USER: genes 2 Torsion [N]-C--CA-[N] |==|  0.37528
USER: genes 3 Torsion [C]-CA--CB-[CG2] |==|  0.05479
USER: genes 4 Torsion [CA]-CB--CG1-[CD1] |==|  0.24389
USER: genes 5 Torsion [C]-CA--N-[C] |==|  0.78673
USER: genes 6 Torsion [N]-C--CA-[N] |==|  0.32323
USER: genes 7 Torsion [C]-CA--CB-[CG1] |==|  0.08778
USER: genes 8 Torsion [C]-CA--N-[H2] |==|  0.15089
USER: genes 9 Torsion [C]-N--CA-[CB] |==|  0.82219
USER: genes 10 Torsion [N]-CA--C-[N] |==|  0.20558
USER: genes 11 Torsion [C]-N--CA-[CB] |==|  0.30865
USER: genes 12 Torsion [N]-CA--CB-[CG] |==|  0.06044
USER: genes 13 Torsion [CA]-CB--CG-[CD] |==|  0.39030
USER: genes 14 Torsion [CB]-CG--CD-[CE] |==|  0.12581
USER: genes 15 Torsion [CG]-CD--CE-[NZ] |==|  0.46077
USER: genes 16 Torsion [CD]-CE--NZ-[HZ3] |==|  0.36299
USER: genes 17 Torsion [N]-CA--C-[O] |==|  0.99051
ROOT
ATOM      1  C   ILE P   2       8.898  26.021 -11.471  1.00 41.40 LIG 0.24  C 
ATOM      2 O    ILE P   2       9.763  25.147 -11.633  1.00 41.61 LIG-0.27  OA
ATOM      3  N   ALA P   3       7.601  25.797 -11.268  1.00 41.46 LIG-0.35  N 
ATOM      4 H    ALA P   3       7.063  26.450 -11.114  1.00 41.46 LIG 0.16  HD
ENDROOT
BRANCH 1 5
ATOM      5  CA  ILE P   2       9.219  27.511 -11.506  1.00 41.22 LIG 0.18  C 
BRANCH 5 6
ATOM      6  CB  ILE P   2       9.407  27.803 -12.985  1.00 41.07 LIG 0.01  C 
ATOM      7  CG2 ILE P   2       8.757  26.721 -13.834  1.00 40.92 LIG 0.01  C 
BRANCH 6 8
ATOM      8  CG1 ILE P   2       8.821  29.169 -13.310  1.00 41.09 LIG 0.00  C 
ATOM      9  CD1 ILE P   2       9.794  30.309 -13.117  1.00 41.85 LIG 0.01  C 
ENDBRANCH 6 8
ENDBRANCH 5 6
BRANCH 5 10
ATOM     10  N   ILE P   2      10.365  28.031 -10.788  1.00 40.98 LIG-0.35  N 
ATOM     11  C   VAL P   1      10.177  28.134  -9.480  1.00 40.89 LIG 0.25  C 
ATOM     12 O    VAL P   1       9.172  27.702  -8.921  1.00 40.76 LIG-0.27  OA
ATOM     13 H    ILE P   2      11.069  28.232 -11.239  1.00 40.98 LIG 0.16  HD
BRANCH 11 14
ATOM     14  CA  VAL P   1      11.262  28.799  -8.633  1.00 40.81 LIG 0.28  C 
BRANCH 14 15
ATOM     15  CB  VAL P   1      11.772  27.812  -7.575  1.00 40.75 LIG 0.02  C 
ATOM     16  CG1 VAL P   1      11.701  26.386  -8.097  1.00 40.27 LIG 0.01  C 
ATOM     17  CG2 VAL P   1      13.201  28.145  -7.168  1.00 40.35 LIG 0.01  C 
ENDBRANCH 14 15
BRANCH 14 18
ATOM     18  N   VAL P   1      10.777  30.013  -8.009  1.00 41.10 LIG-0.07  N 
ATOM     19 H1   VAL P   1      10.597  30.618  -8.636  1.00 41.10 LIG 0.28  HD
ATOM     20 H3   VAL P   1      11.400  30.333  -7.459  1.00 41.10 LIG 0.28  HD
ATOM     21 H2   VAL P   1      10.038  29.835  -7.547  1.00 41.10 LIG 0.28  HD
ENDBRANCH 14 18
ENDBRANCH 11 14
ENDBRANCH 5 10
ENDBRANCH 1 5
BRANCH 3 22
ATOM     22  CA  ALA P   3       6.899  24.525 -11.266  1.00 41.49 LIG 0.17  C 
ATOM     23  CB  ALA P   3       6.990  23.923 -12.661  1.00 41.44 LIG 0.04  C 
BRANCH 22 24
ATOM     24  C   ALA P   3       7.319  23.498 -10.237  1.00 41.37 LIG 0.24  C 
ATOM     25 O    ALA P   3       7.993  22.504 -10.511  1.00 41.45 LIG-0.27  OA
ATOM     26  N   LYS P   4       6.895  23.812  -8.991  1.00 41.15 LIG-0.35  N 
ATOM     27 H    LYS P   4       6.507  24.564  -8.839  1.00 41.15 LIG 0.16  HD
BRANCH 26 28
ATOM     28  CA  LYS P   4       6.997  23.026  -7.787  1.00 40.89 LIG 0.16  C 
BRANCH 28 29
ATOM     29  CB  LYS P   4       8.001  23.733  -6.869  1.00 40.64 LIG 0.03  C 
BRANCH 29 30
ATOM     30  CG  LYS P   4       8.180  25.211  -7.187  1.00 49.46 LIG 0.00  C 
BRANCH 30 31
ATOM     31  CD  LYS P   4       8.306  26.054  -5.929  1.00 47.65 LIG 0.03  C 
BRANCH 31 32
ATOM     32  CE  LYS P   4       9.250  25.454  -4.895  1.00 46.32 LIG 0.23  C 
BRANCH 32 33
ATOM     33  NZ  LYS P   4       9.615  26.435  -3.842  1.00 44.97 LIG-0.08  N 
ATOM     34 HZ3  LYS P   4       9.500  26.066  -3.040  1.00 44.97 LIG 0.27  HD
ATOM     35 HZ1  LYS P   4      10.467  26.672  -3.940  1.00 44.97 LIG 0.27  HD
ATOM     36 HZ2  LYS P   4       9.096  27.155  -3.914  1.00 44.97 LIG 0.27  HD
ENDBRANCH 32 33
ENDBRANCH 31 32
ENDBRANCH 30 31
ENDBRANCH 29 30
ENDBRANCH 28 29
BRANCH 28 37
ATOM     37  C   LYS P   4       5.658  22.846  -7.078  1.00 40.96 LIG 0.22  C 
ATOM     38 O    LYS P   4       4.647  23.398  -7.507  1.00 40.89 LIG-0.29  OA
ENDBRANCH 28 37
ENDBRANCH 26 28
ENDBRANCH 22 24
ENDBRANCH 3 22
TORSDOF 16
ENDMDL
MODEL 36
USER: ADFR SOLUTION from run 5
USER: SCORE 14.359685 LL:  -2.261 LR: -12.445 RR:   0.000 FEB:  -7.673
USER: RMSD 9.059394
USER: SEED 601593
USER: STATUS no improvement in best 12 clusters for 5 generations
USER: GENES 18
USER: genes 0 Translation |==|  0.52848 0.53630 0.53956
USER: genes 1 Rotation |==|  0.18784 0.70835 0.82838 0.53619
USER: genes 2 Torsion [N]-C--CA-[N] |==|  0.46305
USER: genes 3 Torsion [C]-CA--CB-[CG2] |==|  0.92071
USER: genes 4 Torsion [CA]-CB--CG1-[CD1] |==|  0.19648
USER: genes 5 Torsion [C]-CA--N-[C] |==|  0.59350
USER: genes 6 Torsion [N]-C--CA-[N] |==|  0.44893
USER: genes 7 Torsion [C]-CA--CB-[CG1] |==|  0.48659
USER: genes 8 Torsion [C]-CA--N-[H2] |==|  0.76612
USER: genes 9 Torsion [C]-N--CA-[CB] |==|  0.54445
USER: genes 10 Torsion [N]-CA--C-[N] |==|  0.44228
USER: genes 11 Torsion [C]-N--CA-[CB] |==|  0.88548
USER: genes 12 Torsion [N]-CA--CB-[CG] |==|  0.66242
USER: genes 13 Torsion [CA]-CB--CG-[CD] |==|  0.09854
USER: genes 14 Torsion [CB]-CG--CD-[CE] |==|  0.70533
USER: genes 15 Torsion [CG]-CD--CE-[NZ] |==|  0.37679
USER: genes 16 Torsion [CD]-CE--NZ-[HZ3] |==|  0.92255
USER: genes 17 Torsion [N]-CA--C-[O] |==|  0.30044
ROOT
ATOM      1  C   ILE P   2       6.604  21.899  -4.493  1.00 41.40 LIG 0.24  C 
ATOM      2 O    ILE P   2       6.704  21.334  -5.594  1.00 41.61 LIG-0.27  OA
ATOM      3  N   ALA P   3       6.448  21.286  -3.321  1.00 41.46 LIG-0.35  N 
ATOM      4 H    ALA P   3       6.435  21.738  -2.589  1.00 41.46 LIG 0.16  HD
ENDROOT
BRANCH 1 5
ATOM      5  CA  ILE P   2       6.628  23.416  -4.342  1.00 41.22 LIG 0.18  C 
BRANCH 5 6
ATOM      6  CB  ILE P   2       5.185  23.768  -4.025  1.00 41.07 LIG 0.01  C 
ATOM      7  CG2 ILE P   2       4.236  22.750  -4.641  1.00 40.92 LIG 0.01  C 
BRANCH 6 8
ATOM      8  CG1 ILE P   2       5.000  23.833  -2.516  1.00 41.09 LIG 0.00  C 
ATOM      9  CD1 ILE P   2       5.673  25.024  -1.873  1.00 41.85 LIG 0.01  C 
ENDBRANCH 6 8
ENDBRANCH 5 6
BRANCH 5 10
ATOM     10  N   ILE P   2       7.072  24.254  -5.438  1.00 40.98 LIG-0.35  N 
ATOM     11  C   VAL P   1       7.704  25.353  -5.051  1.00 40.89 LIG 0.25  C 
ATOM     12 O    VAL P   1       8.001  25.565  -3.877  1.00 40.76 LIG-0.27  OA
ATOM     13 H    ILE P   2       6.903  23.996  -6.240  1.00 40.98 LIG 0.16  HD
BRANCH 11 14
ATOM     14  CA  VAL P   1       8.097  26.385  -6.108  1.00 40.81 LIG 0.28  C 
BRANCH 14 15
ATOM     15  CB  VAL P   1       9.310  25.880  -6.900  1.00 40.75 LIG 0.02  C 
ATOM     16  CG1 VAL P   1       9.643  26.836  -8.033  1.00 40.27 LIG 0.01  C 
ATOM     17  CG2 VAL P   1      10.519  25.713  -5.990  1.00 40.35 LIG 0.01  C 
ENDBRANCH 14 15
BRANCH 14 18
ATOM     18  N   VAL P   1       8.375  27.675  -5.512  1.00 41.10 LIG-0.07  N 
ATOM     19 H1   VAL P   1       8.916  28.138  -6.045  1.00 41.10 LIG 0.28  HD
ATOM     20 H3   VAL P   1       8.767  27.559  -4.721  1.00 41.10 LIG 0.28  HD
ATOM     21 H2   VAL P   1       7.613  28.122  -5.402  1.00 41.10 LIG 0.28  HD
ENDBRANCH 14 18
ENDBRANCH 11 14
ENDBRANCH 5 10
ENDBRANCH 1 5
BRANCH 3 22
ATOM     22  CA  ALA P   3       6.283  19.865  -3.066  1.00 41.49 LIG 0.17  C 
ATOM     23  CB  ALA P   3       5.750  19.689  -1.651  1.00 41.44 LIG 0.04  C 
BRANCH 22 24
ATOM     24  C   ALA P   3       5.429  19.077  -4.036  1.00 41.37 LIG 0.24  C 
ATOM     25 O    ALA P   3       4.610  19.599  -4.792  1.00 41.45 LIG-0.27  OA
ATOM     26  N   LYS P   4       5.689  17.750  -3.993  1.00 41.15 LIG-0.35  N 
ATOM     27 H    LYS P   4       6.336  17.448  -3.513  1.00 41.15 LIG 0.16  HD
BRANCH 26 28
ATOM     28  CA  LYS P   4       5.002  16.681  -4.675  1.00 40.89 LIG 0.16  C 
BRANCH 28 29
ATOM     29  CB  LYS P   4       3.502  16.985  -4.594  1.00 40.64 LIG 0.03  C 
BRANCH 29 30
ATOM     30  CG  LYS P   4       2.694  15.888  -3.915  1.00 49.46 LIG 0.00  C 
BRANCH 30 31
ATOM     31  CD  LYS P   4       3.464  15.234  -2.779  1.00 47.65 LIG 0.03  C 
BRANCH 31 32
ATOM     32  CE  LYS P   4       3.969  13.839  -3.121  1.00 46.32 LIG 0.23  C 
BRANCH 32 33
ATOM     33  NZ  LYS P   4       5.374  13.635  -2.686  1.00 44.97 LIG-0.08  N 
ATOM     34 HZ3  LYS P   4       5.799  14.417  -2.680  1.00 44.97 LIG 0.27  HD
ATOM     35 HZ1  LYS P   4       5.384  13.286  -1.868  1.00 44.97 LIG 0.27  HD
ATOM     36 HZ2  LYS P   4       5.782  13.080  -3.251  1.00 44.97 LIG 0.27  HD
ENDBRANCH 32 33
ENDBRANCH 31 32
ENDBRANCH 30 31
ENDBRANCH 29 30
ENDBRANCH 28 29
BRANCH 28 37
ATOM     37  C   LYS P   4       5.440  16.523  -6.127  1.00 40.96 LIG 0.22  C 
ATOM     38 O    LYS P   4       6.126  15.562  -6.470  1.00 40.89 LIG-0.29  OA
ENDBRANCH 28 37
ENDBRANCH 26 28
ENDBRANCH 22 24
ENDBRANCH 3 22
TORSDOF 16
ENDMDL
MODEL 37
USER: ADFR SOLUTION from run 139
USER: SCORE 13.606944 LL:  -2.231 LR: -12.420 RR:   0.000 FEB:  -7.647
USER: RMSD 8.961201
USER: SEED 138
USER: STATUS no improvement in best 6 clusters for 5 generations
USER: GENES 18
USER: genes 0 Translation |==|  0.50174 0.52464 0.57820
USER: genes 1 Rotation |==|  0.20619 0.42905 0.14049 0.67146
USER: genes 2 Torsion [N]-C--CA-[N] |==|  0.90191
USER: genes 3 Torsion [C]-CA--CB-[CG2] |==|  0.68635
USER: genes 4 Torsion [CA]-CB--CG1-[CD1] |==|  0.69368
USER: genes 5 Torsion [C]-CA--N-[C] |==|  0.63675
USER: genes 6 Torsion [N]-C--CA-[N] |==|  0.50863
USER: genes 7 Torsion [C]-CA--CB-[CG1] |==|  0.92796
USER: genes 8 Torsion [C]-CA--N-[H2] |==|  0.10462
USER: genes 9 Torsion [C]-N--CA-[CB] |==|  0.81420
USER: genes 10 Torsion [N]-CA--C-[N] |==|  0.53889
USER: genes 11 Torsion [C]-N--CA-[CB] |==|  0.13939
USER: genes 12 Torsion [N]-CA--CB-[CG] |==|  0.69640
USER: genes 13 Torsion [CA]-CB--CG-[CD] |==|  0.73991
USER: genes 14 Torsion [CB]-CG--CD-[CE] |==|  0.68933
USER: genes 15 Torsion [CG]-CD--CE-[NZ] |==|  0.82206
USER: genes 16 Torsion [CD]-CE--NZ-[HZ3] |==|  0.99555
USER: genes 17 Torsion [N]-CA--C-[O] |==|  0.35745
ROOT
ATOM      1  C   ILE P   2       5.802  21.549  -3.334  1.00 41.40 LIG 0.24  C 
ATOM      2 O    ILE P   2       5.360  21.127  -2.254  1.00 41.61 LIG-0.27  OA
ATOM      3  N   ALA P   3       6.219  20.791  -4.347  1.00 41.46 LIG-0.35  N 
ATOM      4 H    ALA P   3       6.469  21.150  -5.088  1.00 41.46 LIG 0.16  HD
ENDROOT
BRANCH 1 5
ATOM      5  CA  ILE P   2       5.949  23.036  -3.638  1.00 41.22 LIG 0.18  C 
BRANCH 5 6
ATOM      6  CB  ILE P   2       4.666  23.379  -4.376  1.00 41.07 LIG 0.01  C 
ATOM      7  CG2 ILE P   2       4.959  23.736  -5.827  1.00 40.92 LIG 0.01  C 
BRANCH 6 8
ATOM      8  CG1 ILE P   2       3.704  22.202  -4.294  1.00 41.09 LIG 0.00  C 
ATOM      9  CD1 ILE P   2       3.499  21.494  -5.613  1.00 41.85 LIG 0.01  C 
ENDBRANCH 6 8
ENDBRANCH 5 6
BRANCH 5 10
ATOM     10  N   ILE P   2       7.069  23.516  -4.422  1.00 40.98 LIG-0.35  N 
ATOM     11  C   VAL P   1       7.704  24.544  -3.876  1.00 40.89 LIG 0.25  C 
ATOM     12 O    VAL P   1       7.445  24.957  -2.748  1.00 40.76 LIG-0.27  OA
ATOM     13 H    ILE P   2       7.244  23.119  -5.165  1.00 40.98 LIG 0.16  HD
BRANCH 11 14
ATOM     14  CA  VAL P   1       8.814  25.227  -4.674  1.00 40.81 LIG 0.28  C 
BRANCH 14 15
ATOM     15  CB  VAL P   1       9.847  24.185  -5.123  1.00 40.75 LIG 0.02  C 
ATOM     16  CG1 VAL P   1       9.849  22.994  -4.180  1.00 40.27 LIG 0.01  C 
ATOM     17  CG2 VAL P   1       9.565  23.721  -6.545  1.00 40.35 LIG 0.01  C 
ENDBRANCH 14 15
BRANCH 14 18
ATOM     18  N   VAL P   1       9.449  26.279  -3.906  1.00 41.10 LIG-0.07  N 
ATOM     19 H1   VAL P   1       8.961  27.021  -3.959  1.00 41.10 LIG 0.28  HD
ATOM     20 H3   VAL P   1      10.262  26.435  -4.231  1.00 41.10 LIG 0.28  HD
ATOM     21 H2   VAL P   1       9.514  26.027  -3.054  1.00 41.10 LIG 0.28  HD
ENDBRANCH 14 18
ENDBRANCH 11 14
ENDBRANCH 5 10
ENDBRANCH 1 5
BRANCH 3 22
ATOM     22  CA  ALA P   3       6.327  19.343  -4.401  1.00 41.49 LIG 0.17  C 
ATOM     23  CB  ALA P   3       7.415  18.906  -3.431  1.00 41.44 LIG 0.04  C 
BRANCH 22 24
ATOM     24  C   ALA P   3       5.068  18.541  -4.154  1.00 41.37 LIG 0.24  C 
ATOM     25 O    ALA P   3       3.939  19.032  -4.183  1.00 41.45 LIG-0.27  OA
ATOM     26  N   LYS P   4       5.325  17.232  -3.927  1.00 41.15 LIG-0.35  N 
ATOM     27 H    LYS P   4       6.123  16.924  -4.009  1.00 41.15 LIG 0.16  HD
BRANCH 26 28
ATOM     28  CA  LYS P   4       4.403  16.193  -3.539  1.00 40.89 LIG 0.16  C 
BRANCH 28 29
ATOM     29  CB  LYS P   4       3.212  16.263  -4.502  1.00 40.64 LIG 0.03  C 
BRANCH 29 30
ATOM     30  CG  LYS P   4       1.935  16.778  -3.855  1.00 49.46 LIG 0.00  C 
BRANCH 30 31
ATOM     31  CD  LYS P   4       1.058  15.646  -3.346  1.00 47.65 LIG 0.03  C 
BRANCH 31 32
ATOM     32  CE  LYS P   4      -0.242  15.494  -4.125  1.00 46.32 LIG 0.23  C 
BRANCH 32 33
ATOM     33  NZ  LYS P   4      -1.117  16.685  -3.983  1.00 44.97 LIG-0.08  N 
ATOM     34 HZ3  LYS P   4      -0.730  17.274  -3.440  1.00 44.97 LIG 0.27  HD
ATOM     35 HZ1  LYS P   4      -1.245  17.057  -4.781  1.00 44.97 LIG 0.27  HD
ATOM     36 HZ2  LYS P   4      -1.902  16.438  -3.641  1.00 44.97 LIG 0.27  HD
ENDBRANCH 32 33
ENDBRANCH 31 32
ENDBRANCH 30 31
ENDBRANCH 29 30
ENDBRANCH 28 29
BRANCH 28 37
ATOM     37  C   LYS P   4       5.029  14.803  -3.561  1.00 40.96 LIG 0.22  C 
ATOM     38 O    LYS P   4       4.940  14.063  -2.583  1.00 40.89 LIG-0.29  OA
ENDBRANCH 28 37
ENDBRANCH 26 28
ENDBRANCH 22 24
ENDBRANCH 3 22
TORSDOF 16
ENDMDL
MODEL 38
USER: ADFR SOLUTION from run 92
USER: SCORE 14.380965 LL:  -2.229 LR: -12.410 RR:   0.000 FEB:  -7.637
USER: RMSD 10.443874
USER: SEED 91
USER: STATUS no improvement in best 8 clusters for 5 generations
USER: GENES 18
USER: genes 0 Translation |==|  0.69240 0.70497 0.42172
USER: genes 1 Rotation |==|  0.78933 0.60447 0.26250 0.81459
USER: genes 2 Torsion [N]-C--CA-[N] |==|  0.98858
USER: genes 3 Torsion [C]-CA--CB-[CG2] |==|  0.91957
USER: genes 4 Torsion [CA]-CB--CG1-[CD1] |==|  0.66447
USER: genes 5 Torsion [C]-CA--N-[C] |==|  0.71278
USER: genes 6 Torsion [N]-C--CA-[N] |==|  0.87986
USER: genes 7 Torsion [C]-CA--CB-[CG1] |==|  0.25505
USER: genes 8 Torsion [C]-CA--N-[H2] |==|  0.18180
USER: genes 9 Torsion [C]-N--CA-[CB] |==|  0.87222
USER: genes 10 Torsion [N]-CA--C-[N] |==|  0.40191
USER: genes 11 Torsion [C]-N--CA-[CB] |==|  0.32150
USER: genes 12 Torsion [N]-CA--CB-[CG] |==|  0.68486
USER: genes 13 Torsion [CA]-CB--CG-[CD] |==|  0.27586
USER: genes 14 Torsion [CB]-CG--CD-[CE] |==|  0.68814
USER: genes 15 Torsion [CG]-CD--CE-[NZ] |==|  0.30080
USER: genes 16 Torsion [CD]-CE--NZ-[HZ3] |==|  0.55695
USER: genes 17 Torsion [N]-CA--C-[O] |==|  0.16130
ROOT
ATOM      1  C   ILE P   2      11.522  26.959  -8.028  1.00 41.40 LIG 0.24  C 
ATOM      2 O    ILE P   2      11.986  26.835  -9.172  1.00 41.61 LIG-0.27  OA
ATOM      3  N   ALA P   3      12.163  27.488  -6.987  1.00 41.46 LIG-0.35  N 
ATOM      4 H    ALA P   3      11.764  27.588  -6.232  1.00 41.46 LIG 0.16  HD
ENDROOT
BRANCH 1 5
ATOM      5  CA  ILE P   2      10.122  26.487  -7.653  1.00 41.22 LIG 0.18  C 
BRANCH 5 6
ATOM      6  CB  ILE P   2       9.211  27.357  -8.503  1.00 41.07 LIG 0.01  C 
ATOM      7  CG2 ILE P   2       9.861  28.703  -8.784  1.00 40.92 LIG 0.01  C 
BRANCH 6 8
ATOM      8  CG1 ILE P   2       8.887  26.633  -9.802  1.00 41.09 LIG 0.00  C 
ATOM      9  CD1 ILE P   2       9.312  27.389 -11.039  1.00 41.85 LIG 0.01  C 
ENDBRANCH 6 8
ENDBRANCH 5 6
BRANCH 5 10
ATOM     10  N   ILE P   2       9.669  26.558  -6.279  1.00 40.98 LIG-0.35  N 
ATOM     11  C   VAL P   1       9.671  25.390  -5.653  1.00 40.89 LIG 0.25  C 
ATOM     12 O    VAL P   1      10.143  24.372  -6.155  1.00 40.76 LIG-0.27  OA
ATOM     13 H    ILE P   2       9.435  27.325  -5.968  1.00 40.98 LIG 0.16  HD
BRANCH 11 14
ATOM     14  CA  VAL P   1       9.083  25.311  -4.244  1.00 40.81 LIG 0.28  C 
BRANCH 14 15
ATOM     15  CB  VAL P   1       7.552  25.237  -4.324  1.00 40.75 LIG 0.02  C 
ATOM     16  CG1 VAL P   1       7.088  23.791  -4.356  1.00 40.27 LIG 0.01  C 
ATOM     17  CG2 VAL P   1       6.913  25.961  -3.147  1.00 40.35 LIG 0.01  C 
ENDBRANCH 14 15
BRANCH 14 18
ATOM     18  N   VAL P   1       9.500  26.435  -3.431  1.00 41.10 LIG-0.07  N 
ATOM     19 H1   VAL P   1      10.388  26.488  -3.431  1.00 41.10 LIG 0.28  HD
ATOM     20 H3   VAL P   1       9.209  26.323  -2.598  1.00 41.10 LIG 0.28  HD
ATOM     21 H2   VAL P   1       9.159  27.186  -3.766  1.00 41.10 LIG 0.28  HD
ENDBRANCH 14 18
ENDBRANCH 11 14
ENDBRANCH 5 10
ENDBRANCH 1 5
BRANCH 3 22
ATOM     22  CA  ALA P   3      13.537  27.957  -6.922  1.00 41.49 LIG 0.17  C 
ATOM     23  CB  ALA P   3      14.433  26.913  -7.572  1.00 41.44 LIG 0.04  C 
BRANCH 22 24
ATOM     24  C   ALA P   3      13.835  29.322  -7.504  1.00 41.37 LIG 0.24  C 
ATOM     25 O    ALA P   3      13.255  29.777  -8.490  1.00 41.45 LIG-0.27  OA
ATOM     26  N   LYS P   4      14.786  29.985  -6.805  1.00 41.15 LIG-0.35  N 
ATOM     27 H    LYS P   4      15.093  29.660  -6.071  1.00 41.15 LIG 0.16  HD
BRANCH 26 28
ATOM     28  CA  LYS P   4      15.413  31.245  -7.120  1.00 40.89 LIG 0.16  C 
BRANCH 28 29
ATOM     29  CB  LYS P   4      15.020  32.233  -6.015  1.00 40.64 LIG 0.03  C 
BRANCH 29 30
ATOM     30  CG  LYS P   4      14.129  33.367  -6.501  1.00 49.46 LIG 0.00  C 
BRANCH 30 31
ATOM     31  CD  LYS P   4      12.664  33.114  -6.188  1.00 47.65 LIG 0.03  C 
BRANCH 31 32
ATOM     32  CE  LYS P   4      11.816  32.878  -7.431  1.00 46.32 LIG 0.23  C 
BRANCH 32 33
ATOM     33  NZ  LYS P   4      11.395  31.459  -7.555  1.00 44.97 LIG-0.08  N 
ATOM     34 HZ3  LYS P   4      11.172  31.289  -8.399  1.00 44.97 LIG 0.27  HD
ATOM     35 HZ1  LYS P   4      12.067  30.928  -7.313  1.00 44.97 LIG 0.27  HD
ATOM     36 HZ2  LYS P   4      10.694  31.310  -7.027  1.00 44.97 LIG 0.27  HD
ENDBRANCH 32 33
ENDBRANCH 31 32
ENDBRANCH 30 31
ENDBRANCH 29 30
ENDBRANCH 28 29
BRANCH 28 37
ATOM     37  C   LYS P   4      16.930  31.143  -7.234  1.00 40.96 LIG 0.22  C 
ATOM     38 O    LYS P   4      17.444  30.373  -8.042  1.00 40.89 LIG-0.29  OA
ENDBRANCH 28 37
ENDBRANCH 26 28
ENDBRANCH 22 24
ENDBRANCH 3 22
TORSDOF 16
ENDMDL
MODEL 39
USER: ADFR SOLUTION from run 152
USER: SCORE 13.633318 LL:  -2.004 LR: -12.411 RR:   0.000 FEB:  -7.638
USER: RMSD 6.729531
USER: SEED 151
USER: STATUS no improvement in best 11 clusters for 5 generations
USER: GENES 18
USER: genes 0 Translation |==|  0.55842 0.55401 0.48357
USER: genes 1 Rotation |==|  0.37587 0.65097 0.24574 0.88360
USER: genes 2 Torsion [N]-C--CA-[N] |==|  0.01035
USER: genes 3 Torsion [C]-CA--CB-[CG2] |==|  0.53761
USER: genes 4 Torsion [CA]-CB--CG1-[CD1] |==|  0.82434
USER: genes 5 Torsion [C]-CA--N-[C] |==|  0.71111
USER: genes 6 Torsion [N]-C--CA-[N] |==|  0.81780
USER: genes 7 Torsion [C]-CA--CB-[CG1] |==|  0.83932
USER: genes 8 Torsion [C]-CA--N-[H2] |==|  0.04864
USER: genes 9 Torsion [C]-N--CA-[CB] |==|  0.23680
USER: genes 10 Torsion [N]-CA--C-[N] |==|  0.95972
USER: genes 11 Torsion [C]-N--CA-[CB] |==|  0.14140
USER: genes 12 Torsion [N]-CA--CB-[CG] |==|  0.57035
USER: genes 13 Torsion [CA]-CB--CG-[CD] |==|  0.04312
USER: genes 14 Torsion [CB]-CG--CD-[CE] |==|  0.65054
USER: genes 15 Torsion [CG]-CD--CE-[NZ] |==|  0.14994
USER: genes 16 Torsion [CD]-CE--NZ-[HZ3] |==|  0.87905
USER: genes 17 Torsion [N]-CA--C-[O] |==|  0.88201
ROOT
ATOM      1  C   ILE P   2       7.503  22.430  -6.173  1.00 41.40 LIG 0.24  C 
ATOM      2 O    ILE P   2       7.521  21.231  -6.490  1.00 41.61 LIG-0.27  OA
ATOM      3  N   ALA P   3       7.626  23.455  -7.015  1.00 41.46 LIG-0.35  N 
ATOM      4 H    ALA P   3       7.555  24.264  -6.733  1.00 41.46 LIG 0.16  HD
ENDROOT
BRANCH 1 5
ATOM      5  CA  ILE P   2       7.353  22.897  -4.729  1.00 41.22 LIG 0.18  C 
BRANCH 5 6
ATOM      6  CB  ILE P   2       6.065  22.236  -4.270  1.00 41.07 LIG 0.01  C 
ATOM      7  CG2 ILE P   2       5.581  22.849  -2.964  1.00 40.92 LIG 0.01  C 
BRANCH 6 8
ATOM      8  CG1 ILE P   2       5.008  22.378  -5.356  1.00 41.09 LIG 0.00  C 
ATOM      9  CD1 ILE P   2       4.625  23.810  -5.646  1.00 41.85 LIG 0.01  C 
ENDBRANCH 6 8
ENDBRANCH 5 6
BRANCH 5 10
ATOM     10  N   ILE P   2       7.276  24.310  -4.420  1.00 40.98 LIG-0.35  N 
ATOM     11  C   VAL P   1       8.395  24.810  -3.912  1.00 40.89 LIG 0.25  C 
ATOM     12 O    VAL P   1       9.435  24.160  -3.840  1.00 40.76 LIG-0.27  OA
ATOM     13 H    ILE P   2       6.538  24.721  -4.580  1.00 40.98 LIG 0.16  HD
BRANCH 11 14
ATOM     14  CA  VAL P   1       8.394  26.255  -3.417  1.00 40.81 LIG 0.28  C 
BRANCH 14 15
ATOM     15  CB  VAL P   1       7.312  26.435  -2.342  1.00 40.75 LIG 0.02  C 
ATOM     16  CG1 VAL P   1       5.946  26.060  -2.892  1.00 40.27 LIG 0.01  C 
ATOM     17  CG2 VAL P   1       7.625  25.594  -1.113  1.00 40.35 LIG 0.01  C 
ENDBRANCH 14 15
BRANCH 14 18
ATOM     18  N   VAL P   1       8.194  27.189  -4.505  1.00 41.10 LIG-0.07  N 
ATOM     19 H1   VAL P   1       8.972  27.559  -4.726  1.00 41.10 LIG 0.28  HD
ATOM     20 H3   VAL P   1       7.625  27.825  -4.251  1.00 41.10 LIG 0.28  HD
ATOM     21 H2   VAL P   1       7.860  26.759  -5.209  1.00 41.10 LIG 0.28  HD
ENDBRANCH 14 18
ENDBRANCH 11 14
ENDBRANCH 5 10
ENDBRANCH 1 5
BRANCH 3 22
ATOM     22  CA  ALA P   3       7.882  23.416  -8.445  1.00 41.49 LIG 0.17  C 
ATOM     23  CB  ALA P   3       6.553  23.247  -9.167  1.00 41.44 LIG 0.04  C 
BRANCH 22 24
ATOM     24  C   ALA P   3       8.648  24.573  -9.047  1.00 41.37 LIG 0.24  C 
ATOM     25 O    ALA P   3       9.129  24.548 -10.181  1.00 41.45 LIG-0.27  OA
ATOM     26  N   LYS P   4       8.719  25.636  -8.213  1.00 41.15 LIG-0.35  N 
ATOM     27 H    LYS P   4       8.288  25.636  -7.469  1.00 41.15 LIG 0.16  HD
BRANCH 26 28
ATOM     28  CA  LYS P   4       9.460  26.862  -8.385  1.00 40.89 LIG 0.16  C 
BRANCH 28 29
ATOM     29  CB  LYS P   4       9.109  27.410  -9.773  1.00 40.64 LIG 0.03  C 
BRANCH 29 30
ATOM     30  CG  LYS P   4      10.190  28.302 -10.366  1.00 49.46 LIG 0.00  C 
BRANCH 30 31
ATOM     31  CD  LYS P   4      11.516  28.153  -9.637  1.00 47.65 LIG 0.03  C 
BRANCH 31 32
ATOM     32  CE  LYS P   4      12.081  29.476  -9.140  1.00 46.32 LIG 0.23  C 
BRANCH 32 33
ATOM     33  NZ  LYS P   4      11.104  30.219  -8.305  1.00 44.97 LIG-0.08  N 
ATOM     34 HZ3  LYS P   4      10.301  30.185  -8.686  1.00 44.97 LIG 0.27  HD
ATOM     35 HZ1  LYS P   4      11.064  29.851  -7.496  1.00 44.97 LIG 0.27  HD
ATOM     36 HZ2  LYS P   4      11.361  31.069  -8.231  1.00 44.97 LIG 0.27  HD
ENDBRANCH 32 33
ENDBRANCH 31 32
ENDBRANCH 30 31
ENDBRANCH 29 30
ENDBRANCH 28 29
BRANCH 28 37
ATOM     37  C   LYS P   4       9.155  27.898  -7.307  1.00 40.96 LIG 0.22  C 
ATOM     38 O    LYS P   4       8.000  28.088  -6.935  1.00 40.89 LIG-0.29  OA
ENDBRANCH 28 37
ENDBRANCH 26 28
ENDBRANCH 22 24
ENDBRANCH 3 22
TORSDOF 16
ENDMDL
MODEL 40
USER: ADFR SOLUTION from run 44
USER: SCORE 14.756549 LL:  -3.005 LR: -12.411 RR:   0.000 FEB:  -7.638
USER: RMSD 9.139518
USER: SEED 43
USER: STATUS no improvement in best 3 clusters for 5 generations
USER: GENES 18
USER: genes 0 Translation |==|  0.55961 0.59193 0.49909
USER: genes 1 Rotation |==|  0.13437 0.78890 0.36324 0.61893
USER: genes 2 Torsion [N]-C--CA-[N] |==|  0.05075
USER: genes 3 Torsion [C]-CA--CB-[CG2] |==|  0.50886
USER: genes 4 Torsion [CA]-CB--CG1-[CD1] |==|  0.77041
USER: genes 5 Torsion [C]-CA--N-[C] |==|  0.68600
USER: genes 6 Torsion [N]-C--CA-[N] |==|  0.02947
USER: genes 7 Torsion [C]-CA--CB-[CG1] |==|  0.89353
USER: genes 8 Torsion [C]-CA--N-[H2] |==|  0.76005
USER: genes 9 Torsion [C]-N--CA-[CB] |==|  0.83137
USER: genes 10 Torsion [N]-CA--C-[N] |==|  0.02992
USER: genes 11 Torsion [C]-N--CA-[CB] |==|  0.15602
USER: genes 12 Torsion [N]-CA--CB-[CG] |==|  0.14186
USER: genes 13 Torsion [CA]-CB--CG-[CD] |==|  0.66704
USER: genes 14 Torsion [CB]-CG--CD-[CE] |==|  0.45995
USER: genes 15 Torsion [CG]-CD--CE-[NZ] |==|  0.25628
USER: genes 16 Torsion [CD]-CE--NZ-[HZ3] |==|  0.84269
USER: genes 17 Torsion [N]-CA--C-[O] |==|  0.20716
ROOT
ATOM      1  C   ILE P   2       7.538  23.568  -5.707  1.00 41.40 LIG 0.24  C 
ATOM      2 O    ILE P   2       7.699  22.444  -5.207  1.00 41.61 LIG-0.27  OA
ATOM      3  N   ALA P   3       6.386  24.049  -6.171  1.00 41.46 LIG-0.35  N 
ATOM      4 H    ALA P   3       6.335  24.858  -6.461  1.00 41.46 LIG 0.16  HD
ENDROOT
BRANCH 1 5
ATOM      5  CA  ILE P   2       8.681  24.563  -5.880  1.00 41.22 LIG 0.18  C 
BRANCH 5 6
ATOM      6  CB  ILE P   2       9.465  24.436  -4.586  1.00 41.07 LIG 0.01  C 
ATOM      7  CG2 ILE P   2      10.616  25.431  -4.555  1.00 40.92 LIG 0.01  C 
BRANCH 6 8
ATOM      8  CG1 ILE P   2       8.532  24.655  -3.404  1.00 41.09 LIG 0.00  C 
ATOM      9  CD1 ILE P   2       8.297  26.111  -3.078  1.00 41.85 LIG 0.01  C 
ENDBRANCH 6 8
ENDBRANCH 5 6
BRANCH 5 10
ATOM     10  N   ILE P   2       8.401  25.966  -6.109  1.00 40.98 LIG-0.35  N 
ATOM     11  C   VAL P   1       8.755  26.393  -7.313  1.00 40.89 LIG 0.25  C 
ATOM     12 O    VAL P   1       9.156  25.633  -8.193  1.00 40.76 LIG-0.27  OA
ATOM     13 H    ILE P   2       8.038  26.416  -5.474  1.00 40.98 LIG 0.16  HD
BRANCH 11 14
ATOM     14  CA  VAL P   1       8.640  27.885  -7.626  1.00 40.81 LIG 0.28  C 
BRANCH 14 15
ATOM     15  CB  VAL P   1       9.923  28.372  -8.313  1.00 40.75 LIG 0.02  C 
ATOM     16  CG1 VAL P   1      11.143  27.702  -7.702  1.00 40.27 LIG 0.01  C 
ATOM     17  CG2 VAL P   1       9.875  28.095  -9.809  1.00 40.35 LIG 0.01  C 
ENDBRANCH 14 15
BRANCH 14 18
ATOM     18  N   VAL P   1       8.375  28.658  -6.430  1.00 41.10 LIG-0.07  N 
ATOM     19 H1   VAL P   1       8.681  29.486  -6.539  1.00 41.10 LIG 0.28  HD
ATOM     20 H3   VAL P   1       8.783  28.280  -5.735  1.00 41.10 LIG 0.28  HD
ATOM     21 H2   VAL P   1       7.498  28.683  -6.281  1.00 41.10 LIG 0.28  HD
ENDBRANCH 14 18
ENDBRANCH 11 14
ENDBRANCH 5 10
ENDBRANCH 1 5
BRANCH 3 22
ATOM     22  CA  ALA P   3       5.104  23.372  -6.270  1.00 41.49 LIG 0.17  C 
ATOM     23  CB  ALA P   3       5.267  22.168  -7.186  1.00 41.44 LIG 0.04  C 
BRANCH 22 24
ATOM     24  C   ALA P   3       4.438  22.948  -4.980  1.00 41.37 LIG 0.24  C 
ATOM     25 O    ALA P   3       3.470  22.188  -4.937  1.00 41.45 LIG-0.27  OA
ATOM     26  N   LYS P   4       5.041  23.476  -3.889  1.00 41.15 LIG-0.35  N 
ATOM     27 H    LYS P   4       5.769  23.926  -3.969  1.00 41.15 LIG 0.16  HD
BRANCH 26 28
ATOM     28  CA  LYS P   4       4.625  23.398  -2.511  1.00 40.89 LIG 0.16  C 
BRANCH 28 29
ATOM     29  CB  LYS P   4       4.491  21.911  -2.162  1.00 40.64 LIG 0.03  C 
BRANCH 29 30
ATOM     30  CG  LYS P   4       5.718  21.087  -2.527  1.00 49.46 LIG 0.00  C 
BRANCH 30 31
ATOM     31  CD  LYS P   4       5.390  19.986  -3.522  1.00 47.65 LIG 0.03  C 
BRANCH 31 32
ATOM     32  CE  LYS P   4       6.624  19.374  -4.171  1.00 46.32 LIG 0.23  C 
BRANCH 32 33
ATOM     33  NZ  LYS P   4       7.110  18.185  -3.426  1.00 44.97 LIG-0.08  N 
ATOM     34 HZ3  LYS P   4       7.275  18.411  -2.582  1.00 44.97 LIG 0.27  HD
ATOM     35 HZ1  LYS P   4       6.490  17.547  -3.447  1.00 44.97 LIG 0.27  HD
ATOM     36 HZ2  LYS P   4       7.858  17.883  -3.804  1.00 44.97 LIG 0.27  HD
ENDBRANCH 32 33
ENDBRANCH 31 32
ENDBRANCH 30 31
ENDBRANCH 29 30
ENDBRANCH 28 29
BRANCH 28 37
ATOM     37  C   LYS P   4       5.595  24.087  -1.556  1.00 40.96 LIG 0.22  C 
ATOM     38 O    LYS P   4       5.640  25.314  -1.491  1.00 40.89 LIG-0.29  OA
ENDBRANCH 28 37
ENDBRANCH 26 28
ENDBRANCH 22 24
ENDBRANCH 3 22
TORSDOF 16
ENDMDL
MODEL 41
USER: ADFR SOLUTION from run 150
USER: SCORE 13.687165 LL:  -2.396 LR: -12.401 RR:   0.000 FEB:  -7.628
USER: RMSD 7.280572
USER: SEED 149
USER: STATUS no improvement in best 8 clusters for 5 generations
USER: GENES 18
USER: genes 0 Translation |==|  0.57034 0.60469 0.44821
USER: genes 1 Rotation |==|  0.18962 0.59940 0.30886 0.82749
USER: genes 2 Torsion [N]-C--CA-[N] |==|  0.52153
USER: genes 3 Torsion [C]-CA--CB-[CG2] |==|  0.48567
USER: genes 4 Torsion [CA]-CB--CG1-[CD1] |==|  0.75249
USER: genes 5 Torsion [C]-CA--N-[C] |==|  0.62509
USER: genes 6 Torsion [N]-C--CA-[N] |==|  0.22277
USER: genes 7 Torsion [C]-CA--CB-[CG1] |==|  0.14078
USER: genes 8 Torsion [C]-CA--N-[H2] |==|  0.63774
USER: genes 9 Torsion [C]-N--CA-[CB] |==|  0.25161
USER: genes 10 Torsion [N]-CA--C-[N] |==|  0.00556
USER: genes 11 Torsion [C]-N--CA-[CB] |==|  0.53844
USER: genes 12 Torsion [N]-CA--CB-[CG] |==|  0.16114
USER: genes 13 Torsion [CA]-CB--CG-[CD] |==|  0.43040
USER: genes 14 Torsion [CB]-CG--CD-[CE] |==|  0.40073
USER: genes 15 Torsion [CG]-CD--CE-[NZ] |==|  0.70521
USER: genes 16 Torsion [CD]-CE--NZ-[HZ3] |==|  0.29245
USER: genes 17 Torsion [N]-CA--C-[O] |==|  0.87329
ROOT
ATOM      1  C   ILE P   2       7.860  23.951  -7.234  1.00 41.40 LIG 0.24  C 
ATOM      2 O    ILE P   2       8.339  22.879  -6.830  1.00 41.61 LIG-0.27  OA
ATOM      3  N   ALA P   3       7.347  24.159  -8.445  1.00 41.46 LIG-0.35  N 
ATOM      4 H    ALA P   3       6.987  24.915  -8.643  1.00 41.46 LIG 0.16  HD
ENDROOT
BRANCH 1 5
ATOM      5  CA  ILE P   2       7.818  25.209  -6.374  1.00 41.22 LIG 0.18  C 
BRANCH 5 6
ATOM      6  CB  ILE P   2       8.451  26.269  -7.258  1.00 41.07 LIG 0.01  C 
ATOM      7  CG2 ILE P   2       8.375  27.637  -6.595  1.00 40.92 LIG 0.01  C 
BRANCH 6 8
ATOM      8  CG1 ILE P   2       9.895  25.890  -7.549  1.00 41.09 LIG 0.00  C 
ATOM      9  CD1 ILE P   2      10.878  26.415  -6.529  1.00 41.85 LIG 0.01  C 
ENDBRANCH 6 8
ENDBRANCH 5 6
BRANCH 5 10
ATOM     10  N   ILE P   2       8.478  25.237  -5.084  1.00 40.98 LIG-0.35  N 
ATOM     11  C   VAL P   1       7.747  25.777  -4.119  1.00 40.89 LIG 0.25  C 
ATOM     12 O    VAL P   1       6.571  26.097  -4.282  1.00 40.76 LIG-0.27  OA
ATOM     13 H    ILE P   2       9.273  24.914  -5.028  1.00 40.98 LIG 0.16  HD
BRANCH 11 14
ATOM     14  CA  VAL P   1       8.385  25.991  -2.747  1.00 40.81 LIG 0.28  C 
BRANCH 14 15
ATOM     15  CB  VAL P   1       7.292  26.059  -1.671  1.00 40.75 LIG 0.02  C 
ATOM     16  CG1 VAL P   1       6.349  24.874  -1.792  1.00 40.27 LIG 0.01  C 
ATOM     17  CG2 VAL P   1       7.905  26.095  -0.278  1.00 40.35 LIG 0.01  C 
ENDBRANCH 14 15
BRANCH 14 18
ATOM     18  N   VAL P   1       9.203  27.185  -2.722  1.00 41.10 LIG-0.07  N 
ATOM     19 H1   VAL P   1       8.807  27.806  -2.223  1.00 41.10 LIG 0.28  HD
ATOM     20 H3   VAL P   1       9.305  27.493  -3.551  1.00 41.10 LIG 0.28  HD
ATOM     21 H2   VAL P   1      10.001  26.992  -2.378  1.00 41.10 LIG 0.28  HD
ENDBRANCH 14 18
ENDBRANCH 11 14
ENDBRANCH 5 10
ENDBRANCH 1 5
BRANCH 3 22
ATOM     22  CA  ALA P   3       7.297  23.241  -9.570  1.00 41.49 LIG 0.17  C 
ATOM     23  CB  ALA P   3       5.995  22.458  -9.493  1.00 41.44 LIG 0.04  C 
BRANCH 22 24
ATOM     24  C   ALA P   3       7.462  23.827 -10.955  1.00 41.37 LIG 0.24  C 
ATOM     25 O    ALA P   3       7.381  23.158 -11.986  1.00 41.45 LIG-0.27  OA
ATOM     26  N   LYS P   4       7.680  25.162 -10.929  1.00 41.15 LIG-0.35  N 
ATOM     27 H    LYS P   4       7.636  25.597 -10.188  1.00 41.15 LIG 0.16  HD
BRANCH 26 28
ATOM     28  CA  LYS P   4       8.000  26.039 -12.029  1.00 40.89 LIG 0.16  C 
BRANCH 28 29
ATOM     29  CB  LYS P   4       8.485  27.362 -11.425  1.00 40.64 LIG 0.03  C 
BRANCH 29 30
ATOM     30  CG  LYS P   4       9.689  27.208 -10.507  1.00 49.46 LIG 0.00  C 
BRANCH 30 31
ATOM     31  CD  LYS P   4      10.504  28.487 -10.416  1.00 47.65 LIG 0.03  C 
BRANCH 31 32
ATOM     32  CE  LYS P   4      11.097  28.727  -9.034  1.00 46.32 LIG 0.23  C 
BRANCH 32 33
ATOM     33  NZ  LYS P   4      10.386  29.806  -8.304  1.00 44.97 LIG-0.08  N 
ATOM     34 HZ3  LYS P   4       9.871  29.448  -7.673  1.00 44.97 LIG 0.27  HD
ATOM     35 HZ1  LYS P   4      10.980  30.352  -7.928  1.00 44.97 LIG 0.27  HD
ATOM     36 HZ2  LYS P   4       9.879  30.267  -8.874  1.00 44.97 LIG 0.27  HD
ENDBRANCH 32 33
ENDBRANCH 31 32
ENDBRANCH 30 31
ENDBRANCH 29 30
ENDBRANCH 28 29
BRANCH 28 37
ATOM     37  C   LYS P   4       9.055  25.459 -12.965  1.00 40.96 LIG 0.22  C 
ATOM     38 O    LYS P   4      10.070  24.935 -12.512  1.00 40.89 LIG-0.29  OA
ENDBRANCH 28 37
ENDBRANCH 26 28
ENDBRANCH 22 24
ENDBRANCH 3 22
TORSDOF 16
ENDMDL
MODEL 42
USER: ADFR SOLUTION from run 17
USER: SCORE 14.132187 LL:  -2.437 LR: -12.369 RR:   0.000 FEB:  -7.596
USER: RMSD 7.787001
USER: SEED 16
USER: STATUS no improvement in best 11 clusters for 5 generations
USER: GENES 18
USER: genes 0 Translation |==|  0.59854 0.68417 0.45350
USER: genes 1 Rotation |==|  0.50783 0.78988 0.21522 0.79122
USER: genes 2 Torsion [N]-C--CA-[N] |==|  0.37899
USER: genes 3 Torsion [C]-CA--CB-[CG2] |==|  0.20081
USER: genes 4 Torsion [CA]-CB--CG1-[CD1] |==|  0.29974
USER: genes 5 Torsion [C]-CA--N-[C] |==|  0.74002
USER: genes 6 Torsion [N]-C--CA-[N] |==|  0.82440
USER: genes 7 Torsion [C]-CA--CB-[CG1] |==|  0.21749
USER: genes 8 Torsion [C]-CA--N-[H2] |==|  0.14568
USER: genes 9 Torsion [C]-N--CA-[CB] |==|  0.54973
USER: genes 10 Torsion [N]-CA--C-[N] |==|  0.26216
USER: genes 11 Torsion [C]-N--CA-[CB] |==|  0.83974
USER: genes 12 Torsion [N]-CA--CB-[CG] |==|  0.87698
USER: genes 13 Torsion [CA]-CB--CG-[CD] |==|  0.53087
USER: genes 14 Torsion [CB]-CG--CD-[CE] |==|  0.62025
USER: genes 15 Torsion [CG]-CD--CE-[NZ] |==|  0.94745
USER: genes 16 Torsion [CD]-CE--NZ-[HZ3] |==|  0.49190
USER: genes 17 Torsion [N]-CA--C-[O] |==|  0.02978
ROOT
ATOM      1  C   ILE P   2       8.706  26.335  -7.075  1.00 41.40 LIG 0.24  C 
ATOM      2 O    ILE P   2       7.993  25.699  -7.866  1.00 41.61 LIG-0.27  OA
ATOM      3  N   ALA P   3       9.366  27.457  -7.360  1.00 41.46 LIG-0.35  N 
ATOM      4 H    ALA P   3       9.804  27.874  -6.748  1.00 41.46 LIG 0.16  HD
ENDROOT
BRANCH 1 5
ATOM      5  CA  ILE P   2       8.942  25.887  -5.637  1.00 41.22 LIG 0.18  C 
BRANCH 5 6
ATOM      6  CB  ILE P   2       9.945  24.755  -5.774  1.00 41.07 LIG 0.01  C 
ATOM      7  CG2 ILE P   2      11.319  25.296  -6.142  1.00 40.92 LIG 0.01  C 
BRANCH 6 8
ATOM      8  CG1 ILE P   2      10.006  23.971  -4.471  1.00 41.09 LIG 0.00  C 
ATOM      9  CD1 ILE P   2       9.367  22.605  -4.555  1.00 41.85 LIG 0.01  C 
ENDBRANCH 6 8
ENDBRANCH 5 6
BRANCH 5 10
ATOM     10  N   ILE P   2       7.836  25.420  -4.825  1.00 40.98 LIG-0.35  N 
ATOM     11  C   VAL P   1       7.280  26.367  -4.082  1.00 40.89 LIG 0.25  C 
ATOM     12 O    VAL P   1       7.592  27.552  -4.180  1.00 40.76 LIG-0.27  OA
ATOM     13 H    ILE P   2       7.619  24.590  -4.874  1.00 40.98 LIG 0.16  HD
BRANCH 11 14
ATOM     14  CA  VAL P   1       6.197  25.971  -3.079  1.00 40.81 LIG 0.28  C 
BRANCH 14 15
ATOM     15  CB  VAL P   1       6.768  24.969  -2.067  1.00 40.75 LIG 0.02  C 
ATOM     16  CG1 VAL P   1       7.604  25.685  -1.020  1.00 40.27 LIG 0.01  C 
ATOM     17  CG2 VAL P   1       5.651  24.185  -1.392  1.00 40.35 LIG 0.01  C 
ENDBRANCH 14 15
BRANCH 14 18
ATOM     18  N   VAL P   1       5.034  25.421  -3.744  1.00 41.10 LIG-0.07  N 
ATOM     19 H1   VAL P   1       4.631  26.060  -4.215  1.00 41.10 LIG 0.28  HD
ATOM     20 H3   VAL P   1       4.468  25.100  -3.136  1.00 41.10 LIG 0.28  HD
ATOM     21 H2   VAL P   1       5.286  24.765  -4.290  1.00 41.10 LIG 0.28  HD
ENDBRANCH 14 18
ENDBRANCH 11 14
ENDBRANCH 5 10
ENDBRANCH 1 5
BRANCH 3 22
ATOM     22  CA  ALA P   3       9.469  28.138  -8.639  1.00 41.49 LIG 0.17  C 
ATOM     23  CB  ALA P   3      10.654  29.091  -8.582  1.00 41.44 LIG 0.04  C 
BRANCH 22 24
ATOM     24  C   ALA P   3       9.563  27.278  -9.881  1.00 41.37 LIG 0.24  C 
ATOM     25 O    ALA P   3      10.621  26.808 -10.298  1.00 41.45 LIG-0.27  OA
ATOM     26  N   LYS P   4       8.356  27.069 -10.456  1.00 41.15 LIG-0.35  N 
ATOM     27 H    LYS P   4       7.637  27.343 -10.073  1.00 41.15 LIG 0.16  HD
BRANCH 26 28
ATOM     28  CA  LYS P   4       8.062  26.409 -11.705  1.00 40.89 LIG 0.16  C 
BRANCH 28 29
ATOM     29  CB  LYS P   4       8.830  27.155 -12.802  1.00 40.64 LIG 0.03  C 
BRANCH 29 30
ATOM     30  CG  LYS P   4       8.739  28.670 -12.686  1.00 49.46 LIG 0.00  C 
BRANCH 30 31
ATOM     31  CD  LYS P   4       9.275  29.370 -13.924  1.00 47.65 LIG 0.03  C 
BRANCH 31 32
ATOM     32  CE  LYS P   4      10.151  30.573 -13.604  1.00 46.32 LIG 0.23  C 
BRANCH 32 33
ATOM     33  NZ  LYS P   4       9.933  31.066 -12.221  1.00 44.97 LIG-0.08  N 
ATOM     34 HZ3  LYS P   4      10.490  31.740 -12.055  1.00 44.97 LIG 0.27  HD
ATOM     35 HZ1  LYS P   4       9.093  31.347 -12.134  1.00 44.97 LIG 0.27  HD
ATOM     36 HZ2  LYS P   4      10.086  30.406 -11.642  1.00 44.97 LIG 0.27  HD
ENDBRANCH 32 33
ENDBRANCH 31 32
ENDBRANCH 30 31
ENDBRANCH 29 30
ENDBRANCH 28 29
BRANCH 28 37
ATOM     37  C   LYS P   4       8.438  24.930 -11.699  1.00 40.96 LIG 0.22  C 
ATOM     38 O    LYS P   4       8.750  24.371 -10.651  1.00 40.89 LIG-0.29  OA
ENDBRANCH 28 37
ENDBRANCH 26 28
ENDBRANCH 22 24
ENDBRANCH 3 22
TORSDOF 16
ENDMDL
MODEL 43
USER: ADFR SOLUTION from run 9
USER: SCORE 14.292081 LL:  -2.611 LR: -12.371 RR:   0.000 FEB:  -7.599
USER: RMSD 4.371663
USER: SEED 73129
USER: STATUS no improvement in best 5 clusters for 5 generations
USER: GENES 18
USER: genes 0 Translation |==|  0.46224 0.51535 0.56198
USER: genes 1 Rotation |==|  0.56007 0.99296 0.51561 0.55606
USER: genes 2 Torsion [N]-C--CA-[N] |==|  0.43422
USER: genes 3 Torsion [C]-CA--CB-[CG2] |==|  0.59969
USER: genes 4 Torsion [CA]-CB--CG1-[CD1] |==|  0.51829
USER: genes 5 Torsion [C]-CA--N-[C] |==|  0.70843
USER: genes 6 Torsion [N]-C--CA-[N] |==|  0.46097
USER: genes 7 Torsion [C]-CA--CB-[CG1] |==|  0.45758
USER: genes 8 Torsion [C]-CA--N-[H2] |==|  0.07176
USER: genes 9 Torsion [C]-N--CA-[CB] |==|  0.23372
USER: genes 10 Torsion [N]-CA--C-[N] |==|  0.04930
USER: genes 11 Torsion [C]-N--CA-[CB] |==|  0.56886
USER: genes 12 Torsion [N]-CA--CB-[CG] |==|  0.52180
USER: genes 13 Torsion [CA]-CB--CG-[CD] |==|  0.60318
USER: genes 14 Torsion [CB]-CG--CD-[CE] |==|  0.15979
USER: genes 15 Torsion [CG]-CD--CE-[NZ] |==|  0.15139
USER: genes 16 Torsion [CD]-CE--NZ-[HZ3] |==|  0.97420
USER: genes 17 Torsion [N]-CA--C-[O] |==|  0.74616
ROOT
ATOM      1  C   ILE P   2       4.617  21.270  -3.821  1.00 41.40 LIG 0.24  C 
ATOM      2 O    ILE P   2       3.379  21.355  -3.804  1.00 41.61 LIG-0.27  OA
ATOM      3  N   ALA P   3       5.455  22.070  -3.162  1.00 41.46 LIG-0.35  N 
ATOM      4 H    ALA P   3       6.303  21.924  -3.179  1.00 41.46 LIG 0.16  HD
ENDROOT
BRANCH 1 5
ATOM      5  CA  ILE P   2       5.359  20.220  -4.639  1.00 41.22 LIG 0.18  C 
BRANCH 5 6
ATOM      6  CB  ILE P   2       5.730  20.956  -5.915  1.00 41.07 LIG 0.01  C 
ATOM      7  CG2 ILE P   2       5.650  20.025  -7.116  1.00 40.92 LIG 0.01  C 
BRANCH 6 8
ATOM      8  CG1 ILE P   2       4.806  22.152  -6.097  1.00 41.09 LIG 0.00  C 
ATOM      9  CD1 ILE P   2       4.988  22.863  -7.418  1.00 41.85 LIG 0.01  C 
ENDBRANCH 6 8
ENDBRANCH 5 6
BRANCH 5 10
ATOM     10  N   ILE P   2       4.706  18.979  -5.002  1.00 40.98 LIG-0.35  N 
ATOM     11  C   VAL P   1       5.113  17.932  -4.298  1.00 40.89 LIG 0.25  C 
ATOM     12 O    VAL P   1       5.874  18.038  -3.339  1.00 40.76 LIG-0.27  OA
ATOM     13 H    ILE P   2       4.117  18.998  -5.628  1.00 40.98 LIG 0.16  HD
BRANCH 11 14
ATOM     14  CA  VAL P   1       4.601  16.545  -4.682  1.00 40.81 LIG 0.28  C 
BRANCH 14 15
ATOM     15  CB  VAL P   1       3.116  16.420  -4.314  1.00 40.75 LIG 0.02  C 
ATOM     16  CG1 VAL P   1       2.493  15.221  -5.010  1.00 40.27 LIG 0.01  C 
ATOM     17  CG2 VAL P   1       2.940  16.295  -2.808  1.00 40.35 LIG 0.01  C 
ENDBRANCH 14 15
BRANCH 14 18
ATOM     18  N   VAL P   1       5.375  15.498  -4.047  1.00 41.10 LIG-0.07  N 
ATOM     19 H1   VAL P   1       6.020  15.230  -4.598  1.00 41.10 LIG 0.28  HD
ATOM     20 H3   VAL P   1       4.844  14.810  -3.855  1.00 41.10 LIG 0.28  HD
ATOM     21 H2   VAL P   1       5.737  15.811  -3.296  1.00 41.10 LIG 0.28  HD
ENDBRANCH 14 18
ENDBRANCH 11 14
ENDBRANCH 5 10
ENDBRANCH 1 5
BRANCH 3 22
ATOM     22  CA  ALA P   3       5.137  23.239  -2.360  1.00 41.49 LIG 0.17  C 
ATOM     23  CB  ALA P   3       4.769  22.775  -0.959  1.00 41.44 LIG 0.04  C 
BRANCH 22 24
ATOM     24  C   ALA P   3       6.180  24.333  -2.279  1.00 41.37 LIG 0.24  C 
ATOM     25 O    ALA P   3       6.192  25.191  -1.396  1.00 41.45 LIG-0.27  OA
ATOM     26  N   LYS P   4       7.101  24.242  -3.266  1.00 41.15 LIG-0.35  N 
ATOM     27 H    LYS P   4       7.101  23.570  -3.803  1.00 41.15 LIG 0.16  HD
BRANCH 26 28
ATOM     28  CA  LYS P   4       8.165  25.162  -3.585  1.00 40.89 LIG 0.16  C 
BRANCH 28 29
ATOM     29  CB  LYS P   4       8.501  24.968  -5.069  1.00 40.64 LIG 0.03  C 
BRANCH 29 30
ATOM     30  CG  LYS P   4       9.736  25.735  -5.519  1.00 49.46 LIG 0.00  C 
BRANCH 30 31
ATOM     31  CD  LYS P   4       9.581  26.288  -6.926  1.00 47.65 LIG 0.03  C 
BRANCH 31 32
ATOM     32  CE  LYS P   4       8.375  27.204  -7.083  1.00 46.32 LIG 0.23  C 
BRANCH 32 33
ATOM     33  NZ  LYS P   4       8.385  28.310  -6.093  1.00 44.97 LIG-0.08  N 
ATOM     34 HZ3  LYS P   4       9.026  28.166  -5.494  1.00 44.97 LIG 0.27  HD
ATOM     35 HZ1  LYS P   4       8.537  29.081  -6.511  1.00 44.97 LIG 0.27  HD
ATOM     36 HZ2  LYS P   4       7.596  28.347  -5.681  1.00 44.97 LIG 0.27  HD
ENDBRANCH 32 33
ENDBRANCH 31 32
ENDBRANCH 30 31
ENDBRANCH 29 30
ENDBRANCH 28 29
BRANCH 28 37
ATOM     37  C   LYS P   4       7.798  26.616  -3.305  1.00 40.96 LIG 0.22  C 
ATOM     38 O    LYS P   4       7.294  27.312  -4.184  1.00 40.89 LIG-0.29  OA
ENDBRANCH 28 37
ENDBRANCH 26 28
ENDBRANCH 22 24
ENDBRANCH 3 22
TORSDOF 16
ENDMDL
MODEL 44
USER: ADFR SOLUTION from run 160
USER: SCORE 13.790079 LL:  -2.138 LR: -12.350 RR:   0.000 FEB:  -7.577
USER: RMSD 6.528536
USER: SEED 159
USER: STATUS no improvement in best 10 clusters for 5 generations
USER: GENES 18
USER: genes 0 Translation |==|  0.52733 0.58048 0.47538
USER: genes 1 Rotation |==|  0.58087 0.68648 0.04407 0.52848
USER: genes 2 Torsion [N]-C--CA-[N] |==|  0.16434
USER: genes 3 Torsion [C]-CA--CB-[CG2] |==|  0.21952
USER: genes 4 Torsion [CA]-CB--CG1-[CD1] |==|  0.64750
USER: genes 5 Torsion [C]-CA--N-[C] |==|  0.12232
USER: genes 6 Torsion [N]-C--CA-[N] |==|  0.77908
USER: genes 7 Torsion [C]-CA--CB-[CG1] |==|  0.12859
USER: genes 8 Torsion [C]-CA--N-[H2] |==|  0.01681
USER: genes 9 Torsion [C]-N--CA-[CB] |==|  0.80917
USER: genes 10 Torsion [N]-CA--C-[N] |==|  0.21513
USER: genes 11 Torsion [C]-N--CA-[CB] |==|  0.49542
USER: genes 12 Torsion [N]-CA--CB-[CG] |==|  0.90876
USER: genes 13 Torsion [CA]-CB--CG-[CD] |==|  0.86282
USER: genes 14 Torsion [CB]-CG--CD-[CE] |==|  0.81588
USER: genes 15 Torsion [CG]-CD--CE-[NZ] |==|  0.59930
USER: genes 16 Torsion [CD]-CE--NZ-[HZ3] |==|  0.12802
USER: genes 17 Torsion [N]-CA--C-[O] |==|  0.93148
ROOT
ATOM      1  C   ILE P   2       6.570  23.225  -6.419  1.00 41.40 LIG 0.24  C 
ATOM      2 O    ILE P   2       5.481  23.595  -6.885  1.00 41.61 LIG-0.27  OA
ATOM      3  N   ALA P   3       7.601  22.772  -7.130  1.00 41.46 LIG-0.35  N 
ATOM      4 H    ALA P   3       8.346  22.578  -6.746  1.00 41.46 LIG 0.16  HD
ENDROOT
BRANCH 1 5
ATOM      5  CA  ILE P   2       6.865  23.220  -4.923  1.00 41.22 LIG 0.18  C 
BRANCH 5 6
ATOM      6  CB  ILE P   2       5.585  23.752  -4.302  1.00 41.07 LIG 0.01  C 
ATOM      7  CG2 ILE P   2       4.526  22.661  -4.236  1.00 40.92 LIG 0.01  C 
BRANCH 6 8
ATOM      8  CG1 ILE P   2       5.884  24.298  -2.914  1.00 41.09 LIG 0.00  C 
ATOM      9  CD1 ILE P   2       5.000  23.723  -1.832  1.00 41.85 LIG 0.01  C 
ENDBRANCH 6 8
ENDBRANCH 5 6
BRANCH 5 10
ATOM     10  N   ILE P   2       7.979  23.981  -4.394  1.00 40.98 LIG-0.35  N 
ATOM     11  C   VAL P   1       8.084  25.201  -4.902  1.00 40.89 LIG 0.25  C 
ATOM     12 O    VAL P   1       7.233  25.681  -5.648  1.00 40.76 LIG-0.27  OA
ATOM     13 H    ILE P   2       8.484  23.607  -3.807  1.00 40.98 LIG 0.16  HD
BRANCH 11 14
ATOM     14  CA  VAL P   1       9.298  26.050  -4.528  1.00 40.81 LIG 0.28  C 
BRANCH 14 15
ATOM     15  CB  VAL P   1      10.569  25.190  -4.583  1.00 40.75 LIG 0.02  C 
ATOM     16  CG1 VAL P   1      10.600  24.367  -5.859  1.00 40.27 LIG 0.01  C 
ATOM     17  CG2 VAL P   1      11.815  26.060  -4.495  1.00 40.35 LIG 0.01  C 
ENDBRANCH 14 15
BRANCH 14 18
ATOM     18  N   VAL P   1       9.143  26.651  -3.219  1.00 41.10 LIG-0.07  N 
ATOM     19 H1   VAL P   1       9.087  27.535  -3.303  1.00 41.10 LIG 0.28  HD
ATOM     20 H3   VAL P   1       9.846  26.445  -2.712  1.00 41.10 LIG 0.28  HD
ATOM     21 H2   VAL P   1       8.401  26.342  -2.836  1.00 41.10 LIG 0.28  HD
ENDBRANCH 14 18
ENDBRANCH 11 14
ENDBRANCH 5 10
ENDBRANCH 1 5
BRANCH 3 22
ATOM     22  CA  ALA P   3       7.671  22.538  -8.563  1.00 41.49 LIG 0.17  C 
ATOM     23  CB  ALA P   3       6.771  21.358  -8.901  1.00 41.44 LIG 0.04  C 
BRANCH 22 24
ATOM     24  C   ALA P   3       7.353  23.703  -9.475  1.00 41.37 LIG 0.24  C 
ATOM     25 O    ALA P   3       6.271  23.837 -10.047  1.00 41.45 LIG-0.27  OA
ATOM     26  N   LYS P   4       8.377  24.582  -9.566  1.00 41.15 LIG-0.35  N 
ATOM     27 H    LYS P   4       9.076  24.490  -9.073  1.00 41.15 LIG 0.16  HD
BRANCH 26 28
ATOM     28  CA  LYS P   4       8.492  25.738 -10.421  1.00 40.89 LIG 0.16  C 
BRANCH 28 29
ATOM     29  CB  LYS P   4       9.832  26.409 -10.096  1.00 40.64 LIG 0.03  C 
BRANCH 29 30
ATOM     30  CG  LYS P   4      10.242  26.275  -8.637  1.00 49.46 LIG 0.00  C 
BRANCH 30 31
ATOM     31  CD  LYS P   4       9.117  26.663  -7.691  1.00 47.65 LIG 0.03  C 
BRANCH 31 32
ATOM     32  CE  LYS P   4       8.754  28.140  -7.762  1.00 46.32 LIG 0.23  C 
BRANCH 32 33
ATOM     33  NZ  LYS P   4       8.375  28.683  -6.433  1.00 44.97 LIG-0.08  N 
ATOM     34 HZ3  LYS P   4       8.966  28.416  -5.824  1.00 44.97 LIG 0.27  HD
ATOM     35 HZ1  LYS P   4       8.366  29.572  -6.467  1.00 44.97 LIG 0.27  HD
ATOM     36 HZ2  LYS P   4       7.565  28.386  -6.211  1.00 44.97 LIG 0.27  HD
ENDBRANCH 32 33
ENDBRANCH 31 32
ENDBRANCH 30 31
ENDBRANCH 29 30
ENDBRANCH 28 29
BRANCH 28 37
ATOM     37  C   LYS P   4       8.412  25.391 -11.904  1.00 40.96 LIG 0.22  C 
ATOM     38 O    LYS P   4       8.714  24.266 -12.298  1.00 40.89 LIG-0.29  OA
ENDBRANCH 28 37
ENDBRANCH 26 28
ENDBRANCH 22 24
ENDBRANCH 3 22
TORSDOF 16
ENDMDL
MODEL 45
USER: ADFR SOLUTION from run 99
USER: SCORE 13.136966 LL:  -1.873 LR: -12.337 RR:   0.000 FEB:  -7.564
USER: RMSD 9.677063
USER: SEED 98
USER: STATUS no improvement in best 7 clusters for 5 generations
USER: GENES 18
USER: genes 0 Translation |==|  0.68442 0.65715 0.44786
USER: genes 1 Rotation |==|  0.21047 0.27301 0.83749 0.52730
USER: genes 2 Torsion [N]-C--CA-[N] |==|  0.40179
USER: genes 3 Torsion [C]-CA--CB-[CG2] |==|  0.98792
USER: genes 4 Torsion [CA]-CB--CG1-[CD1] |==|  0.39645
USER: genes 5 Torsion [C]-CA--N-[C] |==|  0.54569
USER: genes 6 Torsion [N]-C--CA-[N] |==|  0.96509
USER: genes 7 Torsion [C]-CA--CB-[CG1] |==|  0.95606
USER: genes 8 Torsion [C]-CA--N-[H2] |==|  0.70265
USER: genes 9 Torsion [C]-N--CA-[CB] |==|  0.14298
USER: genes 10 Torsion [N]-CA--C-[N] |==|  0.61827
USER: genes 11 Torsion [C]-N--CA-[CB] |==|  0.28821
USER: genes 12 Torsion [N]-CA--CB-[CG] |==|  0.69470
USER: genes 13 Torsion [CA]-CB--CG-[CD] |==|  0.19531
USER: genes 14 Torsion [CB]-CG--CD-[CE] |==|  0.45912
USER: genes 15 Torsion [CG]-CD--CE-[NZ] |==|  0.87220
USER: genes 16 Torsion [CD]-CE--NZ-[HZ3] |==|  0.75279
USER: genes 17 Torsion [N]-CA--C-[O] |==|  0.38220
ROOT
ATOM      1  C   ILE P   2      11.283  25.525  -7.244  1.00 41.40 LIG 0.24  C 
ATOM      2 O    ILE P   2      11.054  26.516  -7.953  1.00 41.61 LIG-0.27  OA
ATOM      3  N   ALA P   3      12.335  24.717  -7.363  1.00 41.46 LIG-0.35  N 
ATOM      4 H    ALA P   3      12.458  24.074  -6.804  1.00 41.46 LIG 0.16  HD
ENDROOT
BRANCH 1 5
ATOM      5  CA  ILE P   2      10.347  25.079  -6.126  1.00 41.22 LIG 0.18  C 
BRANCH 5 6
ATOM      6  CB  ILE P   2       9.315  24.224  -6.841  1.00 41.07 LIG 0.01  C 
ATOM      7  CG2 ILE P   2       9.551  24.241  -8.344  1.00 40.92 LIG 0.01  C 
BRANCH 6 8
ATOM      8  CG1 ILE P   2       9.375  22.802  -6.302  1.00 41.09 LIG 0.00  C 
ATOM      9  CD1 ILE P   2       8.022  22.139  -6.191  1.00 41.85 LIG 0.01  C 
ENDBRANCH 6 8
ENDBRANCH 5 6
BRANCH 5 10
ATOM     10  N   ILE P   2       9.648  26.061  -5.322  1.00 40.98 LIG-0.35  N 
ATOM     11  C   VAL P   1       9.153  25.575  -4.192  1.00 40.89 LIG 0.25  C 
ATOM     12 O    VAL P   1       9.386  24.431  -3.807  1.00 40.76 LIG-0.27  OA
ATOM     13 H    ILE P   2       9.600  26.867  -5.616  1.00 40.98 LIG 0.16  HD
BRANCH 11 14
ATOM     14  CA  VAL P   1       8.276  26.478  -3.326  1.00 40.81 LIG 0.28  C 
BRANCH 14 15
ATOM     15  CB  VAL P   1       6.824  25.982  -3.364  1.00 40.75 LIG 0.02  C 
ATOM     16  CG1 VAL P   1       6.619  25.017  -4.520  1.00 40.27 LIG 0.01  C 
ATOM     17  CG2 VAL P   1       6.448  25.307  -2.052  1.00 40.35 LIG 0.01  C 
ENDBRANCH 14 15
BRANCH 14 18
ATOM     18  N   VAL P   1       8.356  27.860  -3.751  1.00 41.10 LIG-0.07  N 
ATOM     19 H1   VAL P   1       7.536  28.201  -3.807  1.00 41.10 LIG 0.28  HD
ATOM     20 H3   VAL P   1       8.750  27.904  -4.548  1.00 41.10 LIG 0.28  HD
ATOM     21 H2   VAL P   1       8.831  28.326  -3.159  1.00 41.10 LIG 0.28  HD
ENDBRANCH 14 18
ENDBRANCH 11 14
ENDBRANCH 5 10
ENDBRANCH 1 5
BRANCH 3 22
ATOM     22  CA  ALA P   3      13.388  24.754  -8.363  1.00 41.49 LIG 0.17  C 
ATOM     23  CB  ALA P   3      13.949  26.167  -8.419  1.00 41.44 LIG 0.04  C 
BRANCH 22 24
ATOM     24  C   ALA P   3      14.520  23.759  -8.221  1.00 41.37 LIG 0.24  C 
ATOM     25 O    ALA P   3      14.344  22.572  -7.942  1.00 41.45 LIG-0.27  OA
ATOM     26  N   LYS P   4      15.730  24.315  -8.459  1.00 41.15 LIG-0.35  N 
ATOM     27 H    LYS P   4      15.790  25.125  -8.740  1.00 41.15 LIG 0.16  HD
BRANCH 26 28
ATOM     28  CA  LYS P   4      17.034  23.720  -8.304  1.00 40.89 LIG 0.16  C 
BRANCH 28 29
ATOM     29  CB  LYS P   4      17.539  23.367  -9.708  1.00 40.64 LIG 0.03  C 
BRANCH 29 30
ATOM     30  CG  LYS P   4      17.589  21.870  -9.979  1.00 49.46 LIG 0.00  C 
BRANCH 30 31
ATOM     31  CD  LYS P   4      16.199  21.267 -10.101  1.00 47.65 LIG 0.03  C 
BRANCH 31 32
ATOM     32  CE  LYS P   4      16.200  19.874 -10.714  1.00 46.32 LIG 0.23  C 
BRANCH 32 33
ATOM     33  NZ  LYS P   4      17.059  19.799 -11.923  1.00 44.97 LIG-0.08  N 
ATOM     34 HZ3  LYS P   4      16.578  20.009 -12.642  1.00 44.97 LIG 0.27  HD
ATOM     35 HZ1  LYS P   4      17.736  20.371 -11.842  1.00 44.97 LIG 0.27  HD
ATOM     36 HZ2  LYS P   4      17.378  18.972 -12.011  1.00 44.97 LIG 0.27  HD
ENDBRANCH 32 33
ENDBRANCH 31 32
ENDBRANCH 30 31
ENDBRANCH 29 30
ENDBRANCH 28 29
BRANCH 28 37
ATOM     37  C   LYS P   4      18.026  24.636  -7.593  1.00 40.96 LIG 0.22  C 
ATOM     38 O    LYS P   4      18.785  24.187  -6.736  1.00 40.89 LIG-0.29  OA
ENDBRANCH 28 37
ENDBRANCH 26 28
ENDBRANCH 22 24
ENDBRANCH 3 22
TORSDOF 16
ENDMDL
MODEL 46
USER: ADFR SOLUTION from run 79
USER: SCORE 13.909288 LL:  -1.913 LR: -12.300 RR:   0.000 FEB:  -7.527
USER: RMSD 7.024018
USER: SEED 78
USER: STATUS no improvement in best 12 clusters for 5 generations
USER: GENES 18
USER: genes 0 Translation |==|  0.50450 0.58951 0.47293
USER: genes 1 Rotation |==|  0.52568 0.25782 0.93399 0.54842
USER: genes 2 Torsion [N]-C--CA-[N] |==|  0.36187
USER: genes 3 Torsion [C]-CA--CB-[CG2] |==|  0.38276
USER: genes 4 Torsion [CA]-CB--CG1-[CD1] |==|  0.32009
USER: genes 5 Torsion [C]-CA--N-[C] |==|  0.84996
USER: genes 6 Torsion [N]-C--CA-[N] |==|  0.52604
USER: genes 7 Torsion [C]-CA--CB-[CG1] |==|  0.91575
USER: genes 8 Torsion [C]-CA--N-[H2] |==|  0.55899
USER: genes 9 Torsion [C]-N--CA-[CB] |==|  0.59423
USER: genes 10 Torsion [N]-CA--C-[N] |==|  0.37735
USER: genes 11 Torsion [C]-N--CA-[CB] |==|  0.48195
USER: genes 12 Torsion [N]-CA--CB-[CG] |==|  0.62443
USER: genes 13 Torsion [CA]-CB--CG-[CD] |==|  0.40919
USER: genes 14 Torsion [CB]-CG--CD-[CE] |==|  0.68148
USER: genes 15 Torsion [CG]-CD--CE-[NZ] |==|  0.11702
USER: genes 16 Torsion [CD]-CE--NZ-[HZ3] |==|  0.26988
USER: genes 17 Torsion [N]-CA--C-[O] |==|  0.30025
ROOT
ATOM      1  C   ILE P   2       5.885  23.495  -6.492  1.00 41.40 LIG 0.24  C 
ATOM      2 O    ILE P   2       4.771  23.991  -6.263  1.00 41.61 LIG-0.27  OA
ATOM      3  N   ALA P   3       6.384  23.241  -7.701  1.00 41.46 LIG-0.35  N 
ATOM      4 H    ALA P   3       7.185  22.941  -7.789  1.00 41.46 LIG 0.16  HD
ENDROOT
BRANCH 1 5
ATOM      5  CA  ILE P   2       6.845  23.083  -5.382  1.00 41.22 LIG 0.18  C 
BRANCH 5 6
ATOM      6  CB  ILE P   2       6.183  21.860  -4.771  1.00 41.07 LIG 0.01  C 
ATOM      7  CG2 ILE P   2       7.213  20.778  -4.483  1.00 40.92 LIG 0.01  C 
BRANCH 6 8
ATOM      8  CG1 ILE P   2       5.454  22.262  -3.497  1.00 41.09 LIG 0.00  C 
ATOM      9  CD1 ILE P   2       3.955  22.093  -3.577  1.00 41.85 LIG 0.01  C 
ENDBRANCH 6 8
ENDBRANCH 5 6
BRANCH 5 10
ATOM     10  N   ILE P   2       7.171  24.007  -4.315  1.00 40.98 LIG-0.35  N 
ATOM     11  C   VAL P   1       7.621  25.180  -4.740  1.00 40.89 LIG 0.25  C 
ATOM     12 O    VAL P   1       7.628  25.493  -5.928  1.00 40.76 LIG-0.27  OA
ATOM     13 H    ILE P   2       7.058  23.746  -3.504  1.00 40.98 LIG 0.16  HD
BRANCH 11 14
ATOM     14  CA  VAL P   1       8.129  26.187  -3.709  1.00 40.81 LIG 0.28  C 
BRANCH 14 15
ATOM     15  CB  VAL P   1       7.121  26.306  -2.558  1.00 40.75 LIG 0.02  C 
ATOM     16  CG1 VAL P   1       5.709  26.050  -3.057  1.00 40.27 LIG 0.01  C 
ATOM     17  CG2 VAL P   1       7.461  25.333  -1.438  1.00 40.35 LIG 0.01  C 
ENDBRANCH 14 15
BRANCH 14 18
ATOM     18  N   VAL P   1       8.375  27.482  -4.310  1.00 41.10 LIG-0.07  N 
ATOM     19 H1   VAL P   1       7.608  27.927  -4.382  1.00 41.10 LIG 0.28  HD
ATOM     20 H3   VAL P   1       8.730  27.372  -5.119  1.00 41.10 LIG 0.28  HD
ATOM     21 H2   VAL P   1       8.939  27.944  -3.800  1.00 41.10 LIG 0.28  HD
ENDBRANCH 14 18
ENDBRANCH 11 14
ENDBRANCH 5 10
ENDBRANCH 1 5
BRANCH 3 22
ATOM     22  CA  ALA P   3       5.737  23.402  -8.992  1.00 41.49 LIG 0.17  C 
ATOM     23  CB  ALA P   3       6.236  22.305  -9.920  1.00 41.44 LIG 0.04  C 
BRANCH 22 24
ATOM     24  C   ALA P   3       4.225  23.443  -9.013  1.00 41.37 LIG 0.24  C 
ATOM     25 O    ALA P   3       3.519  22.681  -8.352  1.00 41.45 LIG-0.27  OA
ATOM     26  N   LYS P   4       3.746  24.423  -9.815  1.00 41.15 LIG-0.35  N 
ATOM     27 H    LYS P   4       4.281  24.987 -10.182  1.00 41.15 LIG 0.16  HD
BRANCH 26 28
ATOM     28  CA  LYS P   4       2.376  24.691 -10.180  1.00 40.89 LIG 0.16  C 
BRANCH 28 29
ATOM     29  CB  LYS P   4       2.369  26.004 -10.971  1.00 40.64 LIG 0.03  C 
BRANCH 29 30
ATOM     30  CG  LYS P   4       1.260  26.960 -10.554  1.00 49.46 LIG 0.00  C 
BRANCH 30 31
ATOM     31  CD  LYS P   4       1.680  28.414 -10.692  1.00 47.65 LIG 0.03  C 
BRANCH 31 32
ATOM     32  CE  LYS P   4       1.760  29.147  -9.360  1.00 46.32 LIG 0.23  C 
BRANCH 32 33
ATOM     33  NZ  LYS P   4       2.390  28.314  -8.305  1.00 44.97 LIG-0.08  N 
ATOM     34 HZ3  LYS P   4       3.252  28.525  -8.235  1.00 44.97 LIG 0.27  HD
ATOM     35 HZ1  LYS P   4       1.985  28.462  -7.527  1.00 44.97 LIG 0.27  HD
ATOM     36 HZ2  LYS P   4       2.313  27.453  -8.520  1.00 44.97 LIG 0.27  HD
ENDBRANCH 32 33
ENDBRANCH 31 32
ENDBRANCH 30 31
ENDBRANCH 29 30
ENDBRANCH 28 29
BRANCH 28 37
ATOM     37  C   LYS P   4       1.747  23.568 -10.999  1.00 40.96 LIG 0.22  C 
ATOM     38 O    LYS P   4       0.895  22.836 -10.500  1.00 40.89 LIG-0.29  OA
ENDBRANCH 28 37
ENDBRANCH 26 28
ENDBRANCH 22 24
ENDBRANCH 3 22
TORSDOF 16
ENDMDL
MODEL 47
USER: ADFR SOLUTION from run 37
USER: SCORE 14.567191 LL:  -2.391 LR: -12.298 RR:   0.000 FEB:  -7.525
USER: RMSD 9.309003
USER: SEED 36
USER: STATUS no improvement in best 17 clusters for 5 generations
USER: GENES 18
USER: genes 0 Translation |==|  0.57657 0.61455 0.41961
USER: genes 1 Rotation |==|  0.94418 0.27232 0.52094 0.52059
USER: genes 2 Torsion [N]-C--CA-[N] |==|  0.38374
USER: genes 3 Torsion [C]-CA--CB-[CG2] |==|  0.05427
USER: genes 4 Torsion [CA]-CB--CG1-[CD1] |==|  0.23523
USER: genes 5 Torsion [C]-CA--N-[C] |==|  0.75898
USER: genes 6 Torsion [N]-C--CA-[N] |==|  0.42111
USER: genes 7 Torsion [C]-CA--CB-[CG1] |==|  0.01663
USER: genes 8 Torsion [C]-CA--N-[H2] |==|  0.42035
USER: genes 9 Torsion [C]-N--CA-[CB] |==|  0.81470
USER: genes 10 Torsion [N]-CA--C-[N] |==|  0.36682
USER: genes 11 Torsion [C]-N--CA-[CB] |==|  0.29338
USER: genes 12 Torsion [N]-CA--CB-[CG] |==|  0.97512
USER: genes 13 Torsion [CA]-CB--CG-[CD] |==|  0.68837
USER: genes 14 Torsion [CB]-CG--CD-[CE] |==|  0.25792
USER: genes 15 Torsion [CG]-CD--CE-[NZ] |==|  0.54376
USER: genes 16 Torsion [CD]-CE--NZ-[HZ3] |==|  0.24354
USER: genes 17 Torsion [N]-CA--C-[O] |==|  0.96253
ROOT
ATOM      1  C   ILE P   2       8.047  24.247  -8.092  1.00 41.40 LIG 0.24  C 
ATOM      2 O    ILE P   2       8.891  23.439  -7.672  1.00 41.61 LIG-0.27  OA
ATOM      3  N   ALA P   3       6.769  24.291  -7.720  1.00 41.46 LIG-0.35  N 
ATOM      4 H    ALA P   3       6.249  24.910  -8.015  1.00 41.46 LIG 0.16  HD
ENDROOT
BRANCH 1 5
ATOM      5  CA  ILE P   2       8.374  25.309  -9.135  1.00 41.22 LIG 0.18  C 
BRANCH 5 6
ATOM      6  CB  ILE P   2       8.370  24.539 -10.445  1.00 41.07 LIG 0.01  C 
ATOM      7  CG2 ILE P   2       7.607  23.230 -10.296  1.00 40.92 LIG 0.01  C 
BRANCH 6 8
ATOM      8  CG1 ILE P   2       7.753  25.401 -11.537  1.00 41.09 LIG 0.00  C 
ATOM      9  CD1 ILE P   2       8.735  26.346 -12.190  1.00 41.85 LIG 0.01  C 
ENDBRANCH 6 8
ENDBRANCH 5 6
BRANCH 5 10
ATOM     10  N   ILE P   2       9.609  26.062  -9.052  1.00 40.98 LIG-0.35  N 
ATOM     11  C   VAL P   1       9.528  27.142  -8.287  1.00 40.89 LIG 0.25  C 
ATOM     12 O    VAL P   1       8.536  27.398  -7.609  1.00 40.76 LIG-0.27  OA
ATOM     13 H    ILE P   2      10.291  25.772  -9.488  1.00 40.98 LIG 0.16  HD
BRANCH 11 14
ATOM     14  CA  VAL P   1      10.723  28.093  -8.232  1.00 40.81 LIG 0.28  C 
BRANCH 14 15
ATOM     15  CB  VAL P   1      11.728  27.604  -7.180  1.00 40.75 LIG 0.02  C 
ATOM     16  CG1 VAL P   1      11.303  26.255  -6.624  1.00 40.27 LIG 0.01  C 
ATOM     17  CG2 VAL P   1      13.126  27.504  -7.772  1.00 40.35 LIG 0.01  C 
ENDBRANCH 14 15
BRANCH 14 18
ATOM     18  N   VAL P   1      10.307  29.452  -7.950  1.00 41.10 LIG-0.07  N 
ATOM     19 H1   VAL P   1       9.580  29.439  -7.438  1.00 41.10 LIG 0.28  HD
ATOM     20 H3   VAL P   1      10.125  29.871  -8.713  1.00 41.10 LIG 0.28  HD
ATOM     21 H2   VAL P   1      10.962  29.881  -7.525  1.00 41.10 LIG 0.28  HD
ENDBRANCH 14 18
ENDBRANCH 11 14
ENDBRANCH 5 10
ENDBRANCH 1 5
BRANCH 3 22
ATOM     22  CA  ALA P   3       6.061  23.390  -6.827  1.00 41.49 LIG 0.17  C 
ATOM     23  CB  ALA P   3       5.978  22.023  -7.490  1.00 41.44 LIG 0.04  C 
BRANCH 22 24
ATOM     24  C   ALA P   3       6.593  23.245  -5.418  1.00 41.37 LIG 0.24  C 
ATOM     25 O    ALA P   3       7.785  23.073  -5.161  1.00 41.45 LIG-0.27  OA
ATOM     26  N   LYS P   4       5.619  23.353  -4.484  1.00 41.15 LIG-0.35  N 
ATOM     27 H    LYS P   4       4.818  23.565  -4.712  1.00 41.15 LIG 0.16  HD
BRANCH 26 28
ATOM     28  CA  LYS P   4       5.719  23.153  -3.060  1.00 40.89 LIG 0.16  C 
BRANCH 28 29
ATOM     29  CB  LYS P   4       5.681  24.539  -2.405  1.00 40.64 LIG 0.03  C 
BRANCH 29 30
ATOM     30  CG  LYS P   4       5.772  25.686  -3.402  1.00 49.46 LIG 0.00  C 
BRANCH 30 31
ATOM     31  CD  LYS P   4       7.078  26.452  -3.271  1.00 47.65 LIG 0.03  C 
BRANCH 31 32
ATOM     32  CE  LYS P   4       8.170  25.942  -4.202  1.00 46.32 LIG 0.23  C 
BRANCH 32 33
ATOM     33  NZ  LYS P   4       9.513  26.435  -3.805  1.00 44.97 LIG-0.08  N 
ATOM     34 HZ3  LYS P   4       9.870  25.878  -3.210  1.00 44.97 LIG 0.27  HD
ATOM     35 HZ1  LYS P   4      10.037  26.478  -4.523  1.00 44.97 LIG 0.27  HD
ATOM     36 HZ2  LYS P   4       9.437  27.245  -3.444  1.00 44.97 LIG 0.27  HD
ENDBRANCH 32 33
ENDBRANCH 31 32
ENDBRANCH 30 31
ENDBRANCH 29 30
ENDBRANCH 28 29
BRANCH 28 37
ATOM     37  C   LYS P   4       4.609  22.267  -2.503  1.00 40.96 LIG 0.22  C 
ATOM     38 O    LYS P   4       3.620  22.006  -3.184  1.00 40.89 LIG-0.29  OA
ENDBRANCH 28 37
ENDBRANCH 26 28
ENDBRANCH 22 24
ENDBRANCH 3 22
TORSDOF 16
ENDMDL
MODEL 48
USER: ADFR SOLUTION from run 120
USER: SCORE 14.122972 LL:  -2.084 LR: -12.305 RR:   0.000 FEB:  -7.532
USER: RMSD 5.044360
USER: SEED 119
USER: STATUS no improvement in best 8 clusters for 5 generations
USER: GENES 18
USER: genes 0 Translation |==|  0.46642 0.38197 0.54511
USER: genes 1 Rotation |==|  0.63322 0.97813 0.44423 0.52313
USER: genes 2 Torsion [N]-C--CA-[N] |==|  0.35006
USER: genes 3 Torsion [C]-CA--CB-[CG2] |==|  0.12253
USER: genes 4 Torsion [CA]-CB--CG1-[CD1] |==|  0.89726
USER: genes 5 Torsion [C]-CA--N-[C] |==|  0.78713
USER: genes 6 Torsion [N]-C--CA-[N] |==|  0.38965
USER: genes 7 Torsion [C]-CA--CB-[CG1] |==|  0.09733
USER: genes 8 Torsion [C]-CA--N-[H2] |==|  0.86814
USER: genes 9 Torsion [C]-N--CA-[CB] |==|  0.56407
USER: genes 10 Torsion [N]-CA--C-[N] |==|  0.46971
USER: genes 11 Torsion [C]-N--CA-[CB] |==|  0.53286
USER: genes 12 Torsion [N]-CA--CB-[CG] |==|  0.31701
USER: genes 13 Torsion [CA]-CB--CG-[CD] |==|  0.57593
USER: genes 14 Torsion [CB]-CG--CD-[CE] |==|  0.56550
USER: genes 15 Torsion [CG]-CD--CE-[NZ] |==|  0.65079
USER: genes 16 Torsion [CD]-CE--NZ-[HZ3] |==|  0.61826
USER: genes 17 Torsion [N]-CA--C-[O] |==|  0.21507
ROOT
ATOM      1  C   ILE P   2       4.743  17.269  -4.327  1.00 41.40 LIG 0.24  C 
ATOM      2 O    ILE P   2       3.615  17.765  -4.177  1.00 41.61 LIG-0.27  OA
ATOM      3  N   ALA P   3       5.894  17.856  -4.002  1.00 41.46 LIG-0.35  N 
ATOM      4 H    ALA P   3       6.639  17.434  -4.088  1.00 41.46 LIG 0.16  HD
ENDROOT
BRANCH 1 5
ATOM      5  CA  ILE P   2       4.960  15.890  -4.940  1.00 41.22 LIG 0.18  C 
BRANCH 5 6
ATOM      6  CB  ILE P   2       4.509  16.064  -6.380  1.00 41.07 LIG 0.01  C 
ATOM      7  CG2 ILE P   2       5.047  17.364  -6.960  1.00 40.92 LIG 0.01  C 
BRANCH 6 8
ATOM      8  CG1 ILE P   2       4.977  14.872  -7.204  1.00 41.09 LIG 0.00  C 
ATOM      9  CD1 ILE P   2       6.340  14.358  -6.806  1.00 41.85 LIG 0.01  C 
ENDBRANCH 6 8
ENDBRANCH 5 6
BRANCH 5 10
ATOM     10  N   ILE P   2       4.290  14.730  -4.389  1.00 40.98 LIG-0.35  N 
ATOM     11  C   VAL P   1       4.832  14.283  -3.264  1.00 40.89 LIG 0.25  C 
ATOM     12 O    VAL P   1       5.732  14.883  -2.680  1.00 40.76 LIG-0.27  OA
ATOM     13 H    ILE P   2       3.610  14.416  -4.810  1.00 40.98 LIG 0.16  HD
BRANCH 11 14
ATOM     14  CA  VAL P   1       4.302  12.982  -2.661  1.00 40.81 LIG 0.28  C 
BRANCH 14 15
ATOM     15  CB  VAL P   1       3.269  13.299  -1.570  1.00 40.75 LIG 0.02  C 
ATOM     16  CG1 VAL P   1       2.463  14.532  -1.941  1.00 40.27 LIG 0.01  C 
ATOM     17  CG2 VAL P   1       2.337  12.116  -1.348  1.00 40.35 LIG 0.01  C 
ENDBRANCH 14 15
BRANCH 14 18
ATOM     18  N   VAL P   1       5.375  12.168  -2.129  1.00 41.10 LIG-0.07  N 
ATOM     19 H1   VAL P   1       5.069  11.352  -1.953  1.00 41.10 LIG 0.28  HD
ATOM     20 H3   VAL P   1       5.685  12.536  -1.381  1.00 41.10 LIG 0.28  HD
ATOM     21 H2   VAL P   1       6.032  12.115  -2.727  1.00 41.10 LIG 0.28  HD
ENDBRANCH 14 18
ENDBRANCH 11 14
ENDBRANCH 5 10
ENDBRANCH 1 5
BRANCH 3 22
ATOM     22  CA  ALA P   3       6.105  19.198  -3.488  1.00 41.49 LIG 0.17  C 
ATOM     23  CB  ALA P   3       7.533  19.616  -3.805  1.00 41.44 LIG 0.04  C 
BRANCH 22 24
ATOM     24  C   ALA P   3       5.144  20.276  -3.939  1.00 41.37 LIG 0.24  C 
ATOM     25 O    ALA P   3       4.318  20.111  -4.837  1.00 41.45 LIG-0.27  OA
ATOM     26  N   LYS P   4       5.280  21.420  -3.229  1.00 41.15 LIG-0.35  N 
ATOM     27 H    LYS P   4       5.808  21.452  -2.552  1.00 41.15 LIG 0.16  HD
BRANCH 26 28
ATOM     28  CA  LYS P   4       4.632  22.690  -3.445  1.00 40.89 LIG 0.16  C 
BRANCH 28 29
ATOM     29  CB  LYS P   4       5.349  23.719  -2.563  1.00 40.64 LIG 0.03  C 
BRANCH 29 30
ATOM     30  CG  LYS P   4       6.092  24.786  -3.354  1.00 49.46 LIG 0.00  C 
BRANCH 30 31
ATOM     31  CD  LYS P   4       7.273  25.349  -2.581  1.00 47.65 LIG 0.03  C 
BRANCH 31 32
ATOM     32  CE  LYS P   4       7.682  26.743  -3.037  1.00 46.32 LIG 0.23  C 
BRANCH 32 33
ATOM     33  NZ  LYS P   4       9.120  26.810  -3.399  1.00 44.97 LIG-0.08  N 
ATOM     34 HZ3  LYS P   4       9.473  27.559  -3.075  1.00 44.97 LIG 0.27  HD
ATOM     35 HZ1  LYS P   4       9.546  26.109  -3.055  1.00 44.97 LIG 0.27  HD
ATOM     36 HZ2  LYS P   4       9.204  26.802  -4.286  1.00 44.97 LIG 0.27  HD
ENDBRANCH 32 33
ENDBRANCH 31 32
ENDBRANCH 30 31
ENDBRANCH 29 30
ENDBRANCH 28 29
BRANCH 28 37
ATOM     37  C   LYS P   4       4.654  23.129  -4.906  1.00 40.96 LIG 0.22  C 
ATOM     38 O    LYS P   4       3.877  22.630  -5.718  1.00 40.89 LIG-0.29  OA
ENDBRANCH 28 37
ENDBRANCH 26 28
ENDBRANCH 22 24
ENDBRANCH 3 22
TORSDOF 16
ENDMDL
MODEL 49
USER: ADFR SOLUTION from run 64
USER: SCORE 13.709716 LL:  -2.296 LR: -12.293 RR:   0.000 FEB:  -7.521
USER: RMSD 8.428040
USER: SEED 63
USER: STATUS no improvement in best 6 clusters for 5 generations
USER: GENES 18
USER: genes 0 Translation |==|  0.49982 0.56869 0.55895
USER: genes 1 Rotation |==|  0.21162 0.69890 0.18613 0.66959
USER: genes 2 Torsion [N]-C--CA-[N] |==|  0.94561
USER: genes 3 Torsion [C]-CA--CB-[CG2] |==|  0.17436
USER: genes 4 Torsion [CA]-CB--CG1-[CD1] |==|  0.76422
USER: genes 5 Torsion [C]-CA--N-[C] |==|  0.69033
USER: genes 6 Torsion [N]-C--CA-[N] |==|  0.29079
USER: genes 7 Torsion [C]-CA--CB-[CG1] |==|  0.12494
USER: genes 8 Torsion [C]-CA--N-[H2] |==|  0.13441
USER: genes 9 Torsion [C]-N--CA-[CB] |==|  0.64231
USER: genes 10 Torsion [N]-CA--C-[N] |==|  0.82181
USER: genes 11 Torsion [C]-N--CA-[CB] |==|  0.28455
USER: genes 12 Torsion [N]-CA--CB-[CG] |==|  0.47822
USER: genes 13 Torsion [CA]-CB--CG-[CD] |==|  0.12974
USER: genes 14 Torsion [CB]-CG--CD-[CE] |==|  0.50240
USER: genes 15 Torsion [CG]-CD--CE-[NZ] |==|  0.18699
USER: genes 16 Torsion [CD]-CE--NZ-[HZ3] |==|  0.97790
USER: genes 17 Torsion [N]-CA--C-[O] |==|  0.89623
ROOT
ATOM      1  C   ILE P   2       5.745  22.871  -3.911  1.00 41.40 LIG 0.24  C 
ATOM      2 O    ILE P   2       5.333  21.943  -3.198  1.00 41.61 LIG-0.27  OA
ATOM      3  N   ALA P   3       5.370  23.104  -5.168  1.00 41.46 LIG-0.35  N 
ATOM      4 H    ALA P   3       5.659  23.796  -5.590  1.00 41.46 LIG 0.16  HD
ENDROOT
BRANCH 1 5
ATOM      5  CA  ILE P   2       6.781  23.880  -3.431  1.00 41.22 LIG 0.18  C 
BRANCH 5 6
ATOM      6  CB  ILE P   2       5.975  24.844  -2.577  1.00 41.07 LIG 0.01  C 
ATOM      7  CG2 ILE P   2       5.374  24.125  -1.377  1.00 40.92 LIG 0.01  C 
BRANCH 6 8
ATOM      8  CG1 ILE P   2       6.868  25.990  -2.127  1.00 41.09 LIG 0.00  C 
ATOM      9  CD1 ILE P   2       7.664  25.686  -0.879  1.00 41.85 LIG 0.01  C 
ENDBRANCH 6 8
ENDBRANCH 5 6
BRANCH 5 10
ATOM     10  N   ILE P   2       7.551  24.651  -4.386  1.00 40.98 LIG-0.35  N 
ATOM     11  C   VAL P   1       8.838  24.333  -4.420  1.00 40.89 LIG 0.25  C 
ATOM     12 O    VAL P   1       9.299  23.381  -3.794  1.00 40.76 LIG-0.27  OA
ATOM     13 H    ILE P   2       7.140  25.244  -4.854  1.00 40.98 LIG 0.16  HD
BRANCH 11 14
ATOM     14  CA  VAL P   1       9.778  25.171  -5.286  1.00 40.81 LIG 0.28  C 
BRANCH 14 15
ATOM     15  CB  VAL P   1      10.663  24.247  -6.134  1.00 40.75 LIG 0.02  C 
ATOM     16  CG1 VAL P   1       9.833  23.137  -6.756  1.00 40.27 LIG 0.01  C 
ATOM     17  CG2 VAL P   1      11.378  25.033  -7.224  1.00 40.35 LIG 0.01  C 
ENDBRANCH 14 15
BRANCH 14 18
ATOM     18  N   VAL P   1      10.590  26.060  -4.481  1.00 41.10 LIG-0.07  N 
ATOM     19 H1   VAL P   1      10.082  26.715  -4.158  1.00 41.10 LIG 0.28  HD
ATOM     20 H3   VAL P   1      11.237  26.408  -4.983  1.00 41.10 LIG 0.28  HD
ATOM     21 H2   VAL P   1      10.951  25.604  -3.807  1.00 41.10 LIG 0.28  HD
ENDBRANCH 14 18
ENDBRANCH 11 14
ENDBRANCH 5 10
ENDBRANCH 1 5
BRANCH 3 22
ATOM     22  CA  ALA P   3       4.481  22.313  -6.002  1.00 41.49 LIG 0.17  C 
ATOM     23  CB  ALA P   3       5.178  22.045  -7.328  1.00 41.44 LIG 0.04  C 
BRANCH 22 24
ATOM     24  C   ALA P   3       3.957  21.015  -5.427  1.00 41.37 LIG 0.24  C 
ATOM     25 O    ALA P   3       2.763  20.802  -5.218  1.00 41.45 LIG-0.27  OA
ATOM     26  N   LYS P   4       4.943  20.117  -5.197  1.00 41.15 LIG-0.35  N 
ATOM     27 H    LYS P   4       5.749  20.281  -5.446  1.00 41.15 LIG 0.16  HD
BRANCH 26 28
ATOM     28  CA  LYS P   4       4.850  18.832  -4.550  1.00 40.89 LIG 0.16  C 
BRANCH 28 29
ATOM     29  CB  LYS P   4       4.864  17.768  -5.655  1.00 40.64 LIG 0.03  C 
BRANCH 29 30
ATOM     30  CG  LYS P   4       4.962  16.344  -5.128  1.00 49.46 LIG 0.00  C 
BRANCH 30 31
ATOM     31  CD  LYS P   4       3.993  16.091  -3.985  1.00 47.65 LIG 0.03  C 
BRANCH 31 32
ATOM     32  CE  LYS P   4       4.081  14.680  -3.421  1.00 46.32 LIG 0.23  C 
BRANCH 32 33
ATOM     33  NZ  LYS P   4       5.375  14.436  -2.735  1.00 44.97 LIG-0.08  N 
ATOM     34 HZ3  LYS P   4       5.919  15.125  -2.874  1.00 44.97 LIG 0.27  HD
ATOM     35 HZ1  LYS P   4       5.234  14.341  -1.861  1.00 44.97 LIG 0.27  HD
ATOM     36 HZ2  LYS P   4       5.748  13.694  -3.058  1.00 44.97 LIG 0.27  HD
ENDBRANCH 32 33
ENDBRANCH 31 32
ENDBRANCH 30 31
ENDBRANCH 29 30
ENDBRANCH 28 29
BRANCH 28 37
ATOM     37  C   LYS P   4       5.977  18.583  -3.553  1.00 40.96 LIG 0.22  C 
ATOM     38 O    LYS P   4       7.117  18.978  -3.790  1.00 40.89 LIG-0.29  OA
ENDBRANCH 28 37
ENDBRANCH 26 28
ENDBRANCH 22 24
ENDBRANCH 3 22
TORSDOF 16
ENDMDL
MODEL 50
USER: ADFR SOLUTION from run 105
USER: SCORE 13.235034 LL:  -1.883 LR: -12.275 RR:   0.000 FEB:  -7.502
USER: RMSD 1.813652
USER: SEED 104
USER: STATUS searching
USER: GENES 18
USER: genes 0 Translation |==|  0.48566 0.45058 0.51008
USER: genes 1 Rotation |==|  0.48147 0.68381 0.44010 0.96074
USER: genes 2 Torsion [N]-C--CA-[N] |==|  0.44437
USER: genes 3 Torsion [C]-CA--CB-[CG2] |==|  0.96101
USER: genes 4 Torsion [CA]-CB--CG1-[CD1] |==|  0.75069
USER: genes 5 Torsion [C]-CA--N-[C] |==|  0.71980
USER: genes 6 Torsion [N]-C--CA-[N] |==|  0.01350
USER: genes 7 Torsion [C]-CA--CB-[CG1] |==|  0.19678
USER: genes 8 Torsion [C]-CA--N-[H2] |==|  0.77659
USER: genes 9 Torsion [C]-N--CA-[CB] |==|  0.55000
USER: genes 10 Torsion [N]-CA--C-[N] |==|  0.70554
USER: genes 11 Torsion [C]-N--CA-[CB] |==|  0.48011
USER: genes 12 Torsion [N]-CA--CB-[CG] |==|  0.41342
USER: genes 13 Torsion [CA]-CB--CG-[CD] |==|  0.38427
USER: genes 14 Torsion [CB]-CG--CD-[CE] |==|  0.04693
USER: genes 15 Torsion [CG]-CD--CE-[NZ] |==|  0.28432
USER: genes 16 Torsion [CD]-CE--NZ-[HZ3] |==|  0.26711
USER: genes 17 Torsion [N]-CA--C-[O] |==|  0.37666
ROOT
ATOM      1  C   ILE P   2       5.320  19.327  -5.378  1.00 41.40 LIG 0.24  C 
ATOM      2 O    ILE P   2       5.911  18.844  -6.356  1.00 41.61 LIG-0.27  OA
ATOM      3  N   ALA P   3       4.712  20.513  -5.351  1.00 41.46 LIG-0.35  N 
ATOM      4 H    ALA P   3       4.278  20.766  -4.652  1.00 41.46 LIG 0.16  HD
ENDROOT
BRANCH 1 5
ATOM      5  CA  ILE P   2       5.231  18.612  -4.034  1.00 41.22 LIG 0.18  C 
BRANCH 5 6
ATOM      6  CB  ILE P   2       6.301  19.290  -3.196  1.00 41.07 LIG 0.01  C 
ATOM      7  CG2 ILE P   2       7.231  20.114  -4.074  1.00 40.92 LIG 0.01  C 
BRANCH 6 8
ATOM      8  CG1 ILE P   2       5.640  20.165  -2.141  1.00 41.09 LIG 0.00  C 
ATOM      9  CD1 ILE P   2       5.383  21.581  -2.602  1.00 41.85 LIG 0.01  C 
ENDBRANCH 6 8
ENDBRANCH 5 6
BRANCH 5 10
ATOM     10  N   ILE P   2       5.428  17.179  -3.953  1.00 40.98 LIG-0.35  N 
ATOM     11  C   VAL P   1       4.300  16.487  -3.864  1.00 40.89 LIG 0.25  C 
ATOM     12 O    VAL P   1       3.194  17.011  -3.977  1.00 40.76 LIG-0.27  OA
ATOM     13 H    ILE P   2       6.233  16.878  -3.967  1.00 40.98 LIG 0.16  HD
BRANCH 11 14
ATOM     14  CA  VAL P   1       4.380  14.979  -3.633  1.00 40.81 LIG 0.28  C 
BRANCH 14 15
ATOM     15  CB  VAL P   1       3.505  14.590  -2.433  1.00 40.75 LIG 0.02  C 
ATOM     16  CG1 VAL P   1       2.032  14.720  -2.783  1.00 40.27 LIG 0.01  C 
ATOM     17  CG2 VAL P   1       3.808  13.169  -1.980  1.00 40.35 LIG 0.01  C 
ENDBRANCH 14 15
BRANCH 14 18
ATOM     18  N   VAL P   1       5.748  14.545  -3.431  1.00 41.10 LIG-0.07  N 
ATOM     19 H1   VAL P   1       5.751  13.758  -3.017  1.00 41.10 LIG 0.28  HD
ATOM     20 H3   VAL P   1       6.179  15.144  -2.934  1.00 41.10 LIG 0.28  HD
ATOM     21 H2   VAL P   1       6.154  14.467  -4.219  1.00 41.10 LIG 0.28  HD
ENDBRANCH 14 18
ENDBRANCH 11 14
ENDBRANCH 5 10
ENDBRANCH 1 5
BRANCH 3 22
ATOM     22  CA  ALA P   3       4.663  21.521  -6.395  1.00 41.49 LIG 0.17  C 
ATOM     23  CB  ALA P   3       4.257  22.846  -5.766  1.00 41.44 LIG 0.04  C 
BRANCH 22 24
ATOM     24  C   ALA P   3       5.906  21.713  -7.237  1.00 41.37 LIG 0.24  C 
ATOM     25 O    ALA P   3       6.252  20.927  -8.119  1.00 41.45 LIG-0.27  OA
ATOM     26  N   LYS P   4       6.570  22.851  -6.926  1.00 41.15 LIG-0.35  N 
ATOM     27 H    LYS P   4       6.236  23.411  -6.366  1.00 41.15 LIG 0.16  HD
BRANCH 26 28
ATOM     28  CA  LYS P   4       7.844  23.307  -7.423  1.00 40.89 LIG 0.16  C 
BRANCH 28 29
ATOM     29  CB  LYS P   4       8.052  24.731  -6.893  1.00 40.64 LIG 0.03  C 
BRANCH 29 30
ATOM     30  CG  LYS P   4       9.512  25.085  -6.652  1.00 49.46 LIG 0.00  C 
BRANCH 30 31
ATOM     31  CD  LYS P   4       9.842  26.494  -7.117  1.00 47.65 LIG 0.03  C 
BRANCH 31 32
ATOM     32  CE  LYS P   4       8.608  27.362  -7.327  1.00 46.32 LIG 0.23  C 
BRANCH 32 33
ATOM     33  NZ  LYS P   4       8.398  28.310  -6.203  1.00 44.97 LIG-0.08  N 
ATOM     34 HZ3  LYS P   4       8.750  29.100  -6.412  1.00 44.97 LIG 0.27  HD
ATOM     35 HZ1  LYS P   4       7.526  28.404  -6.053  1.00 44.97 LIG 0.27  HD
ATOM     36 HZ2  LYS P   4       8.793  27.994  -5.470  1.00 44.97 LIG 0.27  HD
ENDBRANCH 32 33
ENDBRANCH 31 32
ENDBRANCH 30 31
ENDBRANCH 29 30
ENDBRANCH 28 29
BRANCH 28 37
ATOM     37  C   LYS P   4       9.003  22.407  -7.006  1.00 40.96 LIG 0.22  C 
ATOM     38 O    LYS P   4       9.865  22.084  -7.820  1.00 40.89 LIG-0.29  OA
ENDBRANCH 28 37
ENDBRANCH 26 28
ENDBRANCH 22 24
ENDBRANCH 3 22
TORSDOF 16
ENDMDL
MODEL 51
USER: ADFR SOLUTION from run 154
USER: SCORE 14.610463 LL:  -2.881 LR: -12.276 RR:   0.000 FEB:  -7.504
USER: RMSD 5.953342
USER: SEED 153
USER: STATUS no improvement in best 7 clusters for 5 generations
USER: GENES 18
USER: genes 0 Translation |==|  0.49257 0.59043 0.54382
USER: genes 1 Rotation |==|  0.71252 0.33421 0.39552 0.90796
USER: genes 2 Torsion [N]-C--CA-[N] |==|  0.35049
USER: genes 3 Torsion [C]-CA--CB-[CG2] |==|  0.74362
USER: genes 4 Torsion [CA]-CB--CG1-[CD1] |==|  0.66152
USER: genes 5 Torsion [C]-CA--N-[C] |==|  0.86987
USER: genes 6 Torsion [N]-C--CA-[N] |==|  0.42842
USER: genes 7 Torsion [C]-CA--CB-[CG1] |==|  0.49079
USER: genes 8 Torsion [C]-CA--N-[H2] |==|  0.81227
USER: genes 9 Torsion [C]-N--CA-[CB] |==|  0.81456
USER: genes 10 Torsion [N]-CA--C-[N] |==|  0.83333
USER: genes 11 Torsion [C]-N--CA-[CB] |==|  0.74341
USER: genes 12 Torsion [N]-CA--CB-[CG] |==|  0.14226
USER: genes 13 Torsion [CA]-CB--CG-[CD] |==|  0.24948
USER: genes 14 Torsion [CB]-CG--CD-[CE] |==|  0.58704
USER: genes 15 Torsion [CG]-CD--CE-[NZ] |==|  0.21260
USER: genes 16 Torsion [CD]-CE--NZ-[HZ3] |==|  0.71981
USER: genes 17 Torsion [N]-CA--C-[O] |==|  0.55793
ROOT
ATOM      1  C   ILE P   2       5.527  23.523  -4.365  1.00 41.40 LIG 0.24  C 
ATOM      2 O    ILE P   2       6.551  22.836  -4.225  1.00 41.61 LIG-0.27  OA
ATOM      3  N   ALA P   3       5.379  24.782  -3.956  1.00 41.46 LIG-0.35  N 
ATOM      4 H    ALA P   3       4.657  25.216  -4.130  1.00 41.46 LIG 0.16  HD
ENDROOT
BRANCH 1 5
ATOM      5  CA  ILE P   2       4.262  22.987  -5.026  1.00 41.22 LIG 0.18  C 
BRANCH 5 6
ATOM      6  CB  ILE P   2       3.778  21.918  -4.062  1.00 41.07 LIG 0.01  C 
ATOM      7  CG2 ILE P   2       4.336  20.555  -4.446  1.00 40.92 LIG 0.01  C 
BRANCH 6 8
ATOM      8  CG1 ILE P   2       4.192  22.290  -2.645  1.00 41.09 LIG 0.00  C 
ATOM      9  CD1 ILE P   2       5.050  21.246  -1.970  1.00 41.85 LIG 0.01  C 
ENDBRANCH 6 8
ENDBRANCH 5 6
BRANCH 5 10
ATOM     10  N   ILE P   2       4.317  22.412  -6.355  1.00 40.98 LIG-0.35  N 
ATOM     11  C   VAL P   1       4.999  23.142  -7.227  1.00 40.89 LIG 0.25  C 
ATOM     12 O    VAL P   1       5.636  24.140  -6.898  1.00 40.76 LIG-0.27  OA
ATOM     13 H    ILE P   2       3.918  21.663  -6.489  1.00 40.98 LIG 0.16  HD
BRANCH 11 14
ATOM     14  CA  VAL P   1       5.011  22.711  -8.693  1.00 40.81 LIG 0.28  C 
BRANCH 14 15
ATOM     15  CB  VAL P   1       6.073  21.624  -8.906  1.00 40.75 LIG 0.02  C 
ATOM     16  CG1 VAL P   1       6.045  21.124 -10.341  1.00 40.27 LIG 0.01  C 
ATOM     17  CG2 VAL P   1       7.461  22.149  -8.567  1.00 40.35 LIG 0.01  C 
ENDBRANCH 14 15
BRANCH 14 18
ATOM     18  N   VAL P   1       5.246  23.836  -9.575  1.00 41.10 LIG-0.07  N 
ATOM     19 H1   VAL P   1       5.358  23.543 -10.407  1.00 41.10 LIG 0.28  HD
ATOM     20 H3   VAL P   1       5.978  24.271  -9.313  1.00 41.10 LIG 0.28  HD
ATOM     21 H2   VAL P   1       4.548  24.388  -9.545  1.00 41.10 LIG 0.28  HD
ENDBRANCH 14 18
ENDBRANCH 11 14
ENDBRANCH 5 10
ENDBRANCH 1 5
BRANCH 3 22
ATOM     22  CA  ALA P   3       6.317  25.599  -3.205  1.00 41.49 LIG 0.17  C 
ATOM     23  CB  ALA P   3       6.464  25.004  -1.812  1.00 41.44 LIG 0.04  C 
BRANCH 22 24
ATOM     24  C   ALA P   3       7.684  25.826  -3.812  1.00 41.37 LIG 0.24  C 
ATOM     25 O    ALA P   3       8.131  26.944  -4.069  1.00 41.45 LIG-0.27  OA
ATOM     26  N   LYS P   4       8.359  24.671  -4.012  1.00 41.15 LIG-0.35  N 
ATOM     27 H    LYS P   4       8.039  23.924  -3.730  1.00 41.15 LIG 0.16  HD
BRANCH 26 28
ATOM     28  CA  LYS P   4       9.626  24.477  -4.674  1.00 40.89 LIG 0.16  C 
BRANCH 28 29
ATOM     29  CB  LYS P   4       9.325  24.172  -6.146  1.00 40.64 LIG 0.03  C 
BRANCH 29 30
ATOM     30  CG  LYS P   4       8.392  25.183  -6.798  1.00 49.46 LIG 0.00  C 
BRANCH 30 31
ATOM     31  CD  LYS P   4       9.153  26.338  -7.427  1.00 47.65 LIG 0.03  C 
BRANCH 31 32
ATOM     32  CE  LYS P   4       8.382  27.651  -7.402  1.00 46.32 LIG 0.23  C 
BRANCH 32 33
ATOM     33  NZ  LYS P   4       8.394  28.276  -6.055  1.00 44.97 LIG-0.08  N 
ATOM     34 HZ3  LYS P   4       7.621  28.114  -5.645  1.00 44.97 LIG 0.27  HD
ATOM     35 HZ1  LYS P   4       9.061  27.936  -5.575  1.00 44.97 LIG 0.27  HD
ATOM     36 HZ2  LYS P   4       8.506  29.156  -6.137  1.00 44.97 LIG 0.27  HD
ENDBRANCH 32 33
ENDBRANCH 31 32
ENDBRANCH 30 31
ENDBRANCH 29 30
ENDBRANCH 28 29
BRANCH 28 37
ATOM     37  C   LYS P   4      10.550  25.685  -4.555  1.00 40.96 LIG 0.22  C 
ATOM     38 O    LYS P   4      11.474  25.843  -5.351  1.00 40.89 LIG-0.29  OA
ENDBRANCH 28 37
ENDBRANCH 26 28
ENDBRANCH 22 24
ENDBRANCH 3 22
TORSDOF 16
ENDMDL
MODEL 52
USER: ADFR SOLUTION from run 33
USER: SCORE 14.289674 LL:  -2.702 LR: -12.225 RR:   0.000 FEB:  -7.452
USER: RMSD 5.159519
USER: SEED 32
USER: STATUS no improvement in best 3 clusters for 5 generations
USER: GENES 18
USER: genes 0 Translation |==|  0.55406 0.64348 0.52462
USER: genes 1 Rotation |==|  0.20481 0.36487 0.83780 0.67463
USER: genes 2 Torsion [N]-C--CA-[N] |==|  0.94413
USER: genes 3 Torsion [C]-CA--CB-[CG2] |==|  0.17386
USER: genes 4 Torsion [CA]-CB--CG1-[CD1] |==|  0.54628
USER: genes 5 Torsion [C]-CA--N-[C] |==|  0.82778
USER: genes 6 Torsion [N]-C--CA-[N] |==|  0.50488
USER: genes 7 Torsion [C]-CA--CB-[CG1] |==|  0.91946
USER: genes 8 Torsion [C]-CA--N-[H2] |==|  0.43262
USER: genes 9 Torsion [C]-N--CA-[CB] |==|  0.52478
USER: genes 10 Torsion [N]-CA--C-[N] |==|  0.28379
USER: genes 11 Torsion [C]-N--CA-[CB] |==|  0.54592
USER: genes 12 Torsion [N]-CA--CB-[CG] |==|  0.66999
USER: genes 13 Torsion [CA]-CB--CG-[CD] |==|  0.25426
USER: genes 14 Torsion [CB]-CG--CD-[CE] |==|  0.93221
USER: genes 15 Torsion [CG]-CD--CE-[NZ] |==|  0.65285
USER: genes 16 Torsion [CD]-CE--NZ-[HZ3] |==|  0.91989
USER: genes 17 Torsion [N]-CA--C-[O] |==|  0.72119
ROOT
ATOM      1  C   ILE P   2       7.372  25.114  -4.941  1.00 41.40 LIG 0.24  C 
ATOM      2 O    ILE P   2       7.625  26.163  -5.555  1.00 41.61 LIG-0.27  OA
ATOM      3  N   ALA P   3       7.674  23.885  -5.356  1.00 41.46 LIG-0.35  N 
ATOM      4 H    ALA P   3       7.513  23.203  -4.856  1.00 41.46 LIG 0.16  HD
ENDROOT
BRANCH 1 5
ATOM      5  CA  ILE P   2       6.641  25.100  -3.603  1.00 41.22 LIG 0.18  C 
BRANCH 5 6
ATOM      6  CB  ILE P   2       7.724  25.458  -2.600  1.00 41.07 LIG 0.01  C 
ATOM      7  CG2 ILE P   2       8.267  26.854  -2.869  1.00 40.92 LIG 0.01  C 
BRANCH 6 8
ATOM      8  CG1 ILE P   2       7.159  25.362  -1.190  1.00 41.09 LIG 0.00  C 
ATOM      9  CD1 ILE P   2       7.999  26.066  -0.150  1.00 41.85 LIG 0.01  C 
ENDBRANCH 6 8
ENDBRANCH 5 6
BRANCH 5 10
ATOM     10  N   ILE P   2       5.974  23.898  -3.146  1.00 40.98 LIG-0.35  N 
ATOM     11  C   VAL P   1       4.990  23.496  -3.939  1.00 40.89 LIG 0.25  C 
ATOM     12 O    VAL P   1       4.761  24.022  -5.026  1.00 40.76 LIG-0.27  OA
ATOM     13 H    ILE P   2       6.248  23.534  -2.417  1.00 40.98 LIG 0.16  HD
BRANCH 11 14
ATOM     14  CA  VAL P   1       4.121  22.321  -3.492  1.00 40.81 LIG 0.28  C 
BRANCH 14 15
ATOM     15  CB  VAL P   1       5.008  21.107  -3.185  1.00 40.75 LIG 0.02  C 
ATOM     16  CG1 VAL P   1       6.270  21.140  -4.031  1.00 40.27 LIG 0.01  C 
ATOM     17  CG2 VAL P   1       5.374  21.063  -1.708  1.00 40.35 LIG 0.01  C 
ENDBRANCH 14 15
BRANCH 14 18
ATOM     18  N   VAL P   1       3.125  21.988  -4.489  1.00 41.10 LIG-0.07  N 
ATOM     19 H1   VAL P   1       3.466  22.109  -5.302  1.00 41.10 LIG 0.28  HD
ATOM     20 H3   VAL P   1       2.414  22.513  -4.386  1.00 41.10 LIG 0.28  HD
ATOM     21 H2   VAL P   1       2.881  21.137  -4.393  1.00 41.10 LIG 0.28  HD
ENDBRANCH 14 18
ENDBRANCH 11 14
ENDBRANCH 5 10
ENDBRANCH 1 5
BRANCH 3 22
ATOM     22  CA  ALA P   3       8.279  23.484  -6.615  1.00 41.49 LIG 0.17  C 
ATOM     23  CB  ALA P   3       8.220  21.967  -6.715  1.00 41.44 LIG 0.04  C 
BRANCH 22 24
ATOM     24  C   ALA P   3       7.727  24.103  -7.881  1.00 41.37 LIG 0.24  C 
ATOM     25 O    ALA P   3       6.664  23.754  -8.395  1.00 41.45 LIG-0.27  OA
ATOM     26  N   LYS P   4       8.518  25.091  -8.360  1.00 41.15 LIG-0.35  N 
ATOM     27 H    LYS P   4       9.202  25.358  -7.912  1.00 41.15 LIG 0.16  HD
BRANCH 26 28
ATOM     28  CA  LYS P   4       8.387  25.823  -9.595  1.00 40.89 LIG 0.16  C 
BRANCH 28 29
ATOM     29  CB  LYS P   4       9.731  26.512  -9.857  1.00 40.64 LIG 0.03  C 
BRANCH 29 30
ATOM     30  CG  LYS P   4       9.637  28.031  -9.906  1.00 49.46 LIG 0.00  C 
BRANCH 30 31
ATOM     31  CD  LYS P   4       9.878  28.661  -8.545  1.00 47.65 LIG 0.03  C 
BRANCH 31 32
ATOM     32  CE  LYS P   4       9.575  27.722  -7.385  1.00 46.32 LIG 0.23  C 
BRANCH 32 33
ATOM     33  NZ  LYS P   4       8.601  28.314  -6.432  1.00 44.97 LIG-0.08  N 
ATOM     34 HZ3  LYS P   4       8.675  29.200  -6.444  1.00 44.97 LIG 0.27  HD
ATOM     35 HZ1  LYS P   4       7.776  28.082  -6.669  1.00 44.97 LIG 0.27  HD
ATOM     36 HZ2  LYS P   4       8.769  28.013  -5.611  1.00 44.97 LIG 0.27  HD
ENDBRANCH 32 33
ENDBRANCH 31 32
ENDBRANCH 30 31
ENDBRANCH 29 30
ENDBRANCH 28 29
BRANCH 28 37
ATOM     37  C   LYS P   4       8.001  24.936 -10.775  1.00 40.96 LIG 0.22  C 
ATOM     38 O    LYS P   4       8.854  24.560 -11.577  1.00 40.89 LIG-0.29  OA
ENDBRANCH 28 37
ENDBRANCH 26 28
ENDBRANCH 22 24
ENDBRANCH 3 22
TORSDOF 16
ENDMDL
MODEL 53
USER: ADFR SOLUTION from run 6
USER: SCORE 14.560271 LL:  -2.888 LR: -12.202 RR:   0.000 FEB:  -7.429
USER: RMSD 5.488914
USER: SEED 101247
USER: STATUS no improvement in best 6 clusters for 5 generations
USER: GENES 18
USER: genes 0 Translation |==|  0.55369 0.64452 0.53845
USER: genes 1 Rotation |==|  0.13020 0.28589 0.75614 0.54236
USER: genes 2 Torsion [N]-C--CA-[N] |==|  0.95858
USER: genes 3 Torsion [C]-CA--CB-[CG2] |==|  0.59138
USER: genes 4 Torsion [CA]-CB--CG1-[CD1] |==|  0.59163
USER: genes 5 Torsion [C]-CA--N-[C] |==|  0.71667
USER: genes 6 Torsion [N]-C--CA-[N] |==|  0.45338
USER: genes 7 Torsion [C]-CA--CB-[CG1] |==|  0.95781
USER: genes 8 Torsion [C]-CA--N-[H2] |==|  0.13870
USER: genes 9 Torsion [C]-N--CA-[CB] |==|  0.54063
USER: genes 10 Torsion [N]-CA--C-[N] |==|  0.36434
USER: genes 11 Torsion [C]-N--CA-[CB] |==|  0.33274
USER: genes 12 Torsion [N]-CA--CB-[CG] |==|  0.63581
USER: genes 13 Torsion [CA]-CB--CG-[CD] |==|  0.25363
USER: genes 14 Torsion [CB]-CG--CD-[CE] |==|  0.96436
USER: genes 15 Torsion [CG]-CD--CE-[NZ] |==|  0.27800
USER: genes 16 Torsion [CD]-CE--NZ-[HZ3] |==|  0.00926
USER: genes 17 Torsion [N]-CA--C-[O] |==|  0.15724
ROOT
ATOM      1  C   ILE P   2       7.361  25.145  -4.526  1.00 41.40 LIG 0.24  C 
ATOM      2 O    ILE P   2       7.625  26.218  -5.091  1.00 41.61 LIG-0.27  OA
ATOM      3  N   ALA P   3       8.191  24.111  -4.405  1.00 41.46 LIG-0.35  N 
ATOM      4 H    ALA P   3       7.959  23.414  -3.958  1.00 41.46 LIG 0.16  HD
ENDROOT
BRANCH 1 5
ATOM      5  CA  ILE P   2       6.001  24.859  -3.899  1.00 41.22 LIG 0.18  C 
BRANCH 5 6
ATOM      6  CB  ILE P   2       6.013  25.685  -2.625  1.00 41.07 LIG 0.01  C 
ATOM      7  CG2 ILE P   2       5.220  24.990  -1.527  1.00 40.92 LIG 0.01  C 
BRANCH 6 8
ATOM      8  CG1 ILE P   2       7.451  25.919  -2.186  1.00 41.09 LIG 0.00  C 
ATOM      9  CD1 ILE P   2       7.624  25.986  -0.687  1.00 41.85 LIG 0.01  C 
ENDBRANCH 6 8
ENDBRANCH 5 6
BRANCH 5 10
ATOM     10  N   ILE P   2       5.621  23.503  -3.561  1.00 40.98 LIG-0.35  N 
ATOM     11  C   VAL P   1       4.790  22.946  -4.431  1.00 40.89 LIG 0.25  C 
ATOM     12 O    VAL P   1       4.483  23.487  -5.491  1.00 40.76 LIG-0.27  OA
ATOM     13 H    ILE P   2       5.946  23.157  -2.845  1.00 40.98 LIG 0.16  HD
BRANCH 11 14
ATOM     14  CA  VAL P   1       4.208  21.569  -4.112  1.00 40.81 LIG 0.28  C 
BRANCH 14 15
ATOM     15  CB  VAL P   1       5.288  20.494  -4.295  1.00 40.75 LIG 0.02  C 
ATOM     16  CG1 VAL P   1       6.465  21.049  -5.079  1.00 40.27 LIG 0.01  C 
ATOM     17  CG2 VAL P   1       5.763  19.968  -2.948  1.00 40.35 LIG 0.01  C 
ENDBRANCH 14 15
BRANCH 14 18
ATOM     18  N   VAL P   1       3.051  21.278  -4.934  1.00 41.10 LIG-0.07  N 
ATOM     19 H1   VAL P   1       2.373  21.797  -4.685  1.00 41.10 LIG 0.28  HD
ATOM     20 H3   VAL P   1       2.823  20.424  -4.834  1.00 41.10 LIG 0.28  HD
ATOM     21 H2   VAL P   1       3.247  21.434  -5.788  1.00 41.10 LIG 0.28  HD
ENDBRANCH 14 18
ENDBRANCH 11 14
ENDBRANCH 5 10
ENDBRANCH 1 5
BRANCH 3 22
ATOM     22  CA  ALA P   3       9.529  23.964  -4.952  1.00 41.49 LIG 0.17  C 
ATOM     23  CB  ALA P   3       9.928  22.498  -4.861  1.00 41.44 LIG 0.04  C 
BRANCH 22 24
ATOM     24  C   ALA P   3       9.767  24.473  -6.357  1.00 41.37 LIG 0.24  C 
ATOM     25 O    ALA P   3       9.021  24.218  -7.303  1.00 41.45 LIG-0.27  OA
ATOM     26  N   LYS P   4      10.869  25.253  -6.445  1.00 41.15 LIG-0.35  N 
ATOM     27 H    LYS P   4      11.303  25.475  -5.736  1.00 41.15 LIG 0.16  HD
BRANCH 26 28
ATOM     28  CA  LYS P   4      11.477  25.814  -7.626  1.00 40.89 LIG 0.16  C 
BRANCH 28 29
ATOM     29  CB  LYS P   4      11.455  27.339  -7.465  1.00 40.64 LIG 0.03  C 
BRANCH 29 30
ATOM     30  CG  LYS P   4      10.915  28.072  -8.684  1.00 49.46 LIG 0.00  C 
BRANCH 30 31
ATOM     31  CD  LYS P   4       9.415  28.299  -8.594  1.00 47.65 LIG 0.03  C 
BRANCH 31 32
ATOM     32  CE  LYS P   4       8.749  27.491  -7.488  1.00 46.32 LIG 0.23  C 
BRANCH 32 33
ATOM     33  NZ  LYS P   4       8.500  28.310  -6.275  1.00 44.97 LIG-0.08  N 
ATOM     34 HZ3  LYS P   4       8.744  29.151  -6.429  1.00 44.97 LIG 0.27  HD
ATOM     35 HZ1  LYS P   4       7.634  28.285  -6.073  1.00 44.97 LIG 0.27  HD
ATOM     36 HZ2  LYS P   4       8.973  27.984  -5.594  1.00 44.97 LIG 0.27  HD
ENDBRANCH 32 33
ENDBRANCH 31 32
ENDBRANCH 30 31
ENDBRANCH 29 30
ENDBRANCH 28 29
BRANCH 28 37
ATOM     37  C   LYS P   4      12.903  25.320  -7.853  1.00 40.96 LIG 0.22  C 
ATOM     38 O    LYS P   4      13.138  24.117  -7.945  1.00 40.89 LIG-0.29  OA
ENDBRANCH 28 37
ENDBRANCH 26 28
ENDBRANCH 22 24
ENDBRANCH 3 22
TORSDOF 16
ENDMDL
MODEL 54
USER: ADFR SOLUTION from run 50
USER: SCORE 13.516508 LL:  -2.333 LR: -12.159 RR:   0.000 FEB:  -7.386
USER: RMSD 5.005837
USER: SEED 49
USER: STATUS no improvement in best 8 clusters for 5 generations
USER: GENES 18
USER: genes 0 Translation |==|  0.46025 0.39678 0.54594
USER: genes 1 Rotation |==|  0.50659 0.25090 0.59444 0.92307
USER: genes 2 Torsion [N]-C--CA-[N] |==|  0.43881
USER: genes 3 Torsion [C]-CA--CB-[CG2] |==|  0.37510
USER: genes 4 Torsion [CA]-CB--CG1-[CD1] |==|  0.59130
USER: genes 5 Torsion [C]-CA--N-[C] |==|  0.57516
USER: genes 6 Torsion [N]-C--CA-[N] |==|  0.91468
USER: genes 7 Torsion [C]-CA--CB-[CG1] |==|  0.76562
USER: genes 8 Torsion [C]-CA--N-[H2] |==|  0.81189
USER: genes 9 Torsion [C]-N--CA-[CB] |==|  0.48584
USER: genes 10 Torsion [N]-CA--C-[N] |==|  0.32223
USER: genes 11 Torsion [C]-N--CA-[CB] |==|  0.79883
USER: genes 12 Torsion [N]-CA--CB-[CG] |==|  0.69769
USER: genes 13 Torsion [CA]-CB--CG-[CD] |==|  0.69387
USER: genes 14 Torsion [CB]-CG--CD-[CE] |==|  0.44688
USER: genes 15 Torsion [CG]-CD--CE-[NZ] |==|  0.26301
USER: genes 16 Torsion [CD]-CE--NZ-[HZ3] |==|  0.75130
USER: genes 17 Torsion [N]-CA--C-[O] |==|  0.46529
ROOT
ATOM      1  C   ILE P   2       4.558  17.713  -4.302  1.00 41.40 LIG 0.24  C 
ATOM      2 O    ILE P   2       5.386  17.953  -3.410  1.00 41.61 LIG-0.27  OA
ATOM      3  N   ALA P   3       4.250  18.528  -5.310  1.00 41.46 LIG-0.35  N 
ATOM      4 H    ALA P   3       3.700  18.278  -5.923  1.00 41.46 LIG 0.16  HD
ENDROOT
BRANCH 1 5
ATOM      5  CA  ILE P   2       3.746  16.424  -4.345  1.00 41.22 LIG 0.18  C 
BRANCH 5 6
ATOM      6  CB  ILE P   2       2.413  16.818  -3.732  1.00 41.07 LIG 0.01  C 
ATOM      7  CG2 ILE P   2       1.258  16.265  -4.554  1.00 40.92 LIG 0.01  C 
BRANCH 6 8
ATOM      8  CG1 ILE P   2       2.346  16.310  -2.299  1.00 41.09 LIG 0.00  C 
ATOM      9  CD1 ILE P   2       0.954  15.921  -1.858  1.00 41.85 LIG 0.01  C 
ENDBRANCH 6 8
ENDBRANCH 5 6
BRANCH 5 10
ATOM     10  N   ILE P   2       4.225  15.234  -3.671  1.00 40.98 LIG-0.35  N 
ATOM     11  C   VAL P   1       3.793  14.102  -4.210  1.00 40.89 LIG 0.25  C 
ATOM     12 O    VAL P   1       3.159  14.071  -5.262  1.00 40.76 LIG-0.27  OA
ATOM     13 H    ILE P   2       4.739  15.333  -2.990  1.00 40.98 LIG 0.16  HD
BRANCH 11 14
ATOM     14  CA  VAL P   1       4.116  12.785  -3.505  1.00 40.81 LIG 0.28  C 
BRANCH 14 15
ATOM     15  CB  VAL P   1       2.973  12.414  -2.550  1.00 40.75 LIG 0.02  C 
ATOM     16  CG1 VAL P   1       3.147  13.114  -1.213  1.00 40.27 LIG 0.01  C 
ATOM     17  CG2 VAL P   1       1.624  12.776  -3.154  1.00 40.35 LIG 0.01  C 
ENDBRANCH 14 15
BRANCH 14 18
ATOM     18  N   VAL P   1       5.375  12.858  -2.793  1.00 41.10 LIG-0.07  N 
ATOM     19 H1   VAL P   1       5.483  12.123  -2.304  1.00 41.10 LIG 0.28  HD
ATOM     20 H3   VAL P   1       5.374  13.571  -2.260  1.00 41.10 LIG 0.28  HD
ATOM     21 H2   VAL P   1       6.043  12.926  -3.378  1.00 41.10 LIG 0.28  HD
ENDBRANCH 14 18
ENDBRANCH 11 14
ENDBRANCH 5 10
ENDBRANCH 1 5
BRANCH 3 22
ATOM     22  CA  ALA P   3       4.734  19.876  -5.556  1.00 41.49 LIG 0.17  C 
ATOM     23  CB  ALA P   3       4.192  20.344  -6.898  1.00 41.44 LIG 0.04  C 
BRANCH 22 24
ATOM     24  C   ALA P   3       4.453  20.921  -4.497  1.00 41.37 LIG 0.24  C 
ATOM     25 O    ALA P   3       3.316  21.271  -4.180  1.00 41.45 LIG-0.27  OA
ATOM     26  N   LYS P   4       5.585  21.399  -3.930  1.00 41.15 LIG-0.35  N 
ATOM     27 H    LYS P   4       6.348  21.054  -4.123  1.00 41.15 LIG 0.16  HD
BRANCH 26 28
ATOM     28  CA  LYS P   4       5.724  22.477  -2.982  1.00 40.89 LIG 0.16  C 
BRANCH 28 29
ATOM     29  CB  LYS P   4       5.474  23.784  -3.744  1.00 40.64 LIG 0.03  C 
BRANCH 29 30
ATOM     30  CG  LYS P   4       6.731  24.618  -3.951  1.00 49.46 LIG 0.00  C 
BRANCH 30 31
ATOM     31  CD  LYS P   4       6.712  25.890  -3.119  1.00 47.65 LIG 0.03  C 
BRANCH 31 32
ATOM     32  CE  LYS P   4       8.092  26.506  -2.931  1.00 46.32 LIG 0.23  C 
BRANCH 32 33
ATOM     33  NZ  LYS P   4       8.374  27.556  -3.942  1.00 44.97 LIG-0.08  N 
ATOM     34 HZ3  LYS P   4       8.753  27.186  -4.657  1.00 44.97 LIG 0.27  HD
ATOM     35 HZ1  LYS P   4       7.613  27.951  -4.180  1.00 44.97 LIG 0.27  HD
ATOM     36 HZ2  LYS P   4       8.927  28.162  -3.594  1.00 44.97 LIG 0.27  HD
ENDBRANCH 32 33
ENDBRANCH 31 32
ENDBRANCH 30 31
ENDBRANCH 29 30
ENDBRANCH 28 29
BRANCH 28 37
ATOM     37  C   LYS P   4       4.770  22.356  -1.798  1.00 40.96 LIG 0.22  C 
ATOM     38 O    LYS P   4       4.921  23.060  -0.802  1.00 40.89 LIG-0.29  OA
ENDBRANCH 28 37
ENDBRANCH 26 28
ENDBRANCH 22 24
ENDBRANCH 3 22
TORSDOF 16
ENDMDL
MODEL 55
USER: ADFR SOLUTION from run 128
USER: SCORE 14.046917 LL:  -2.368 LR: -12.139 RR:   0.000 FEB:  -7.366
USER: RMSD 9.291465
USER: SEED 127
USER: STATUS no improvement in best 7 clusters for 5 generations
USER: GENES 18
USER: genes 0 Translation |==|  0.54626 0.57889 0.48238
USER: genes 1 Rotation |==|  0.18770 0.83903 0.54888 0.68745
USER: genes 2 Torsion [N]-C--CA-[N] |==|  0.91952
USER: genes 3 Torsion [C]-CA--CB-[CG2] |==|  0.21635
USER: genes 4 Torsion [CA]-CB--CG1-[CD1] |==|  0.82038
USER: genes 5 Torsion [C]-CA--N-[C] |==|  0.70000
USER: genes 6 Torsion [N]-C--CA-[N] |==|  0.06132
USER: genes 7 Torsion [C]-CA--CB-[CG1] |==|  0.87424
USER: genes 8 Torsion [C]-CA--N-[H2] |==|  0.10513
USER: genes 9 Torsion [C]-N--CA-[CB] |==|  0.85483
USER: genes 10 Torsion [N]-CA--C-[N] |==|  0.86632
USER: genes 11 Torsion [C]-N--CA-[CB] |==|  0.28520
USER: genes 12 Torsion [N]-CA--CB-[CG] |==|  0.53666
USER: genes 13 Torsion [CA]-CB--CG-[CD] |==|  0.56810
USER: genes 14 Torsion [CB]-CG--CD-[CE] |==|  0.51127
USER: genes 15 Torsion [CG]-CD--CE-[NZ] |==|  0.80573
USER: genes 16 Torsion [CD]-CE--NZ-[HZ3] |==|  0.95242
USER: genes 17 Torsion [N]-CA--C-[O] |==|  0.62200
ROOT
ATOM      1  C   ILE P   2       7.138  23.177  -6.209  1.00 41.40 LIG 0.24  C 
ATOM      2 O    ILE P   2       7.281  22.039  -6.683  1.00 41.61 LIG-0.27  OA
ATOM      3  N   ALA P   3       5.986  23.701  -5.793  1.00 41.46 LIG-0.35  N 
ATOM      4 H    ALA P   3       5.966  24.480  -5.428  1.00 41.46 LIG 0.16  HD
ENDROOT
BRANCH 1 5
ATOM      5  CA  ILE P   2       8.296  24.157  -6.057  1.00 41.22 LIG 0.18  C 
BRANCH 5 6
ATOM      6  CB  ILE P   2       8.861  23.835  -4.684  1.00 41.07 LIG 0.01  C 
ATOM      7  CG2 ILE P   2       9.717  22.578  -4.736  1.00 40.92 LIG 0.01  C 
BRANCH 6 8
ATOM      8  CG1 ILE P   2       9.673  25.019  -4.180  1.00 41.09 LIG 0.00  C 
ATOM      9  CD1 ILE P   2      10.900  25.311  -5.011  1.00 41.85 LIG 0.01  C 
ENDBRANCH 6 8
ENDBRANCH 5 6
BRANCH 5 10
ATOM     10  N   ILE P   2       8.061  25.585  -6.130  1.00 40.98 LIG-0.35  N 
ATOM     11  C   VAL P   1       8.514  26.146  -7.243  1.00 40.89 LIG 0.25  C 
ATOM     12 O    VAL P   1       8.967  25.489  -8.177  1.00 40.76 LIG-0.27  OA
ATOM     13 H    ILE P   2       7.658  25.964  -5.473  1.00 40.98 LIG 0.16  HD
BRANCH 11 14
ATOM     14  CA  VAL P   1       8.451  27.667  -7.375  1.00 40.81 LIG 0.28  C 
BRANCH 14 15
ATOM     15  CB  VAL P   1       9.670  28.171  -8.160  1.00 40.75 LIG 0.02  C 
ATOM     16  CG1 VAL P   1      10.940  27.502  -7.661  1.00 40.27 LIG 0.01  C 
ATOM     17  CG2 VAL P   1       9.499  27.913  -9.650  1.00 40.35 LIG 0.01  C 
ENDBRANCH 14 15
BRANCH 14 18
ATOM     18  N   VAL P   1       8.375  28.310  -6.080  1.00 41.10 LIG-0.07  N 
ATOM     19 H1   VAL P   1       7.533  28.303  -5.793  1.00 41.10 LIG 0.28  HD
ATOM     20 H3   VAL P   1       8.657  29.152  -6.148  1.00 41.10 LIG 0.28  HD
ATOM     21 H2   VAL P   1       8.889  27.872  -5.500  1.00 41.10 LIG 0.28  HD
ENDBRANCH 14 18
ENDBRANCH 11 14
ENDBRANCH 5 10
ENDBRANCH 1 5
BRANCH 3 22
ATOM     22  CA  ALA P   3       4.656  23.119  -5.865  1.00 41.49 LIG 0.17  C 
ATOM     23  CB  ALA P   3       4.399  22.682  -7.300  1.00 41.44 LIG 0.04  C 
BRANCH 22 24
ATOM     24  C   ALA P   3       4.342  21.980  -4.919  1.00 41.37 LIG 0.24  C 
ATOM     25 O    ALA P   3       3.309  21.923  -4.251  1.00 41.45 LIG-0.27  OA
ATOM     26  N   LYS P   4       5.307  21.032  -4.914  1.00 41.15 LIG-0.35  N 
ATOM     27 H    LYS P   4       5.964  21.075  -5.467  1.00 41.15 LIG 0.16  HD
BRANCH 26 28
ATOM     28  CA  LYS P   4       5.418  19.873  -4.063  1.00 40.89 LIG 0.16  C 
BRANCH 28 29
ATOM     29  CB  LYS P   4       4.977  18.660  -4.892  1.00 40.64 LIG 0.03  C 
BRANCH 29 30
ATOM     30  CG  LYS P   4       4.731  17.410  -4.059  1.00 49.46 LIG 0.00  C 
BRANCH 30 31
ATOM     31  CD  LYS P   4       4.887  16.140  -4.879  1.00 47.65 LIG 0.03  C 
BRANCH 31 32
ATOM     32  CE  LYS P   4       4.552  14.876  -4.100  1.00 46.32 LIG 0.23  C 
BRANCH 32 33
ATOM     33  NZ  LYS P   4       5.565  14.582  -3.055  1.00 44.97 LIG-0.08  N 
ATOM     34 HZ3  LYS P   4       6.307  15.043  -3.224  1.00 44.97 LIG 0.27  HD
ATOM     35 HZ1  LYS P   4       5.246  14.816  -2.258  1.00 44.97 LIG 0.27  HD
ATOM     36 HZ2  LYS P   4       5.750  13.711  -3.057  1.00 44.97 LIG 0.27  HD
ENDBRANCH 32 33
ENDBRANCH 31 32
ENDBRANCH 30 31
ENDBRANCH 29 30
ENDBRANCH 28 29
BRANCH 28 37
ATOM     37  C   LYS P   4       6.828  19.666  -3.519  1.00 40.96 LIG 0.22  C 
ATOM     38 O    LYS P   4       7.333  18.545  -3.508  1.00 40.89 LIG-0.29  OA
ENDBRANCH 28 37
ENDBRANCH 26 28
ENDBRANCH 22 24
ENDBRANCH 3 22
TORSDOF 16
ENDMDL
MODEL 56
USER: ADFR SOLUTION from run 20
USER: SCORE 14.112662 LL:  -2.658 LR: -12.126 RR:   0.000 FEB:  -7.353
USER: RMSD 8.607481
USER: SEED 19
USER: STATUS no improvement in best 13 clusters for 5 generations
USER: GENES 18
USER: genes 0 Translation |==|  0.54849 0.59385 0.46267
USER: genes 1 Rotation |==|  0.39814 0.17040 0.15328 0.60378
USER: genes 2 Torsion [N]-C--CA-[N] |==|  0.94521
USER: genes 3 Torsion [C]-CA--CB-[CG2] |==|  0.57997
USER: genes 4 Torsion [CA]-CB--CG1-[CD1] |==|  0.60797
USER: genes 5 Torsion [C]-CA--N-[C] |==|  0.76400
USER: genes 6 Torsion [N]-C--CA-[N] |==|  0.40281
USER: genes 7 Torsion [C]-CA--CB-[CG1] |==|  0.08784
USER: genes 8 Torsion [C]-CA--N-[H2] |==|  0.74709
USER: genes 9 Torsion [C]-N--CA-[CB] |==|  0.65876
USER: genes 10 Torsion [N]-CA--C-[N] |==|  0.81459
USER: genes 11 Torsion [C]-N--CA-[CB] |==|  0.48530
USER: genes 12 Torsion [N]-CA--CB-[CG] |==|  0.10847
USER: genes 13 Torsion [CA]-CB--CG-[CD] |==|  0.67141
USER: genes 14 Torsion [CB]-CG--CD-[CE] |==|  0.33434
USER: genes 15 Torsion [CG]-CD--CE-[NZ] |==|  0.31689
USER: genes 16 Torsion [CD]-CE--NZ-[HZ3] |==|  0.24593
USER: genes 17 Torsion [N]-CA--C-[O] |==|  0.40562
ROOT
ATOM      1  C   ILE P   2       7.205  23.626  -6.800  1.00 41.40 LIG 0.24  C 
ATOM      2 O    ILE P   2       6.103  23.316  -6.320  1.00 41.61 LIG-0.27  OA
ATOM      3  N   ALA P   3       8.385  23.173  -6.379  1.00 41.46 LIG-0.35  N 
ATOM      4 H    ALA P   3       9.109  23.392  -6.790  1.00 41.46 LIG 0.16  HD
ENDROOT
BRANCH 1 5
ATOM      5  CA  ILE P   2       7.351  24.611  -7.954  1.00 41.22 LIG 0.18  C 
BRANCH 5 6
ATOM      6  CB  ILE P   2       7.012  23.780  -9.180  1.00 41.07 LIG 0.01  C 
ATOM      7  CG2 ILE P   2       7.743  24.308 -10.406  1.00 40.92 LIG 0.01  C 
BRANCH 6 8
ATOM      8  CG1 ILE P   2       7.372  22.325  -8.922  1.00 41.09 LIG 0.00  C 
ATOM      9  CD1 ILE P   2       7.967  21.625 -10.121  1.00 41.85 LIG 0.01  C 
ENDBRANCH 6 8
ENDBRANCH 5 6
BRANCH 5 10
ATOM     10  N   ILE P   2       8.616  25.278  -8.191  1.00 40.98 LIG-0.35  N 
ATOM     11  C   VAL P   1       8.786  26.376  -7.468  1.00 40.89 LIG 0.25  C 
ATOM     12 O    VAL P   1       8.000  26.714  -6.585  1.00 40.76 LIG-0.27  OA
ATOM     13 H    ILE P   2       9.155  24.933  -8.764  1.00 40.98 LIG 0.16  HD
BRANCH 11 14
ATOM     14  CA  VAL P   1      10.017  27.244  -7.730  1.00 40.81 LIG 0.28  C 
BRANCH 14 15
ATOM     15  CB  VAL P   1      11.163  26.811  -6.805  1.00 40.75 LIG 0.02  C 
ATOM     16  CG1 VAL P   1      11.082  25.321  -6.517  1.00 40.27 LIG 0.01  C 
ATOM     17  CG2 VAL P   1      12.513  27.147  -7.422  1.00 40.35 LIG 0.01  C 
ENDBRANCH 14 15
BRANCH 14 18
ATOM     18  N   VAL P   1       9.722  28.651  -7.555  1.00 41.10 LIG-0.07  N 
ATOM     19 H1   VAL P   1      10.450  29.073  -7.268  1.00 41.10 LIG 0.28  HD
ATOM     20 H3   VAL P   1       9.069  28.745  -6.957  1.00 41.10 LIG 0.28  HD
ATOM     21 H2   VAL P   1       9.464  28.999  -8.332  1.00 41.10 LIG 0.28  HD
ENDBRANCH 14 18
ENDBRANCH 11 14
ENDBRANCH 5 10
ENDBRANCH 1 5
BRANCH 3 22
ATOM     22  CA  ALA P   3       8.663  22.303  -5.250  1.00 41.49 LIG 0.17  C 
ATOM     23  CB  ALA P   3       9.635  23.016  -4.321  1.00 41.44 LIG 0.04  C 
BRANCH 22 24
ATOM     24  C   ALA P   3       7.480  21.791  -4.457  1.00 41.37 LIG 0.24  C 
ATOM     25 O    ALA P   3       7.164  20.602  -4.409  1.00 41.45 LIG-0.27  OA
ATOM     26  N   LYS P   4       6.835  22.779  -3.795  1.00 41.15 LIG-0.35  N 
ATOM     27 H    LYS P   4       7.152  23.578  -3.788  1.00 41.15 LIG 0.16  HD
BRANCH 26 28
ATOM     28  CA  LYS P   4       5.608  22.698  -3.042  1.00 40.89 LIG 0.16  C 
BRANCH 28 29
ATOM     29  CB  LYS P   4       5.390  24.067  -2.387  1.00 40.64 LIG 0.03  C 
BRANCH 29 30
ATOM     30  CG  LYS P   4       5.770  25.238  -3.282  1.00 49.46 LIG 0.00  C 
BRANCH 30 31
ATOM     31  CD  LYS P   4       6.891  26.072  -2.684  1.00 47.65 LIG 0.03  C 
BRANCH 31 32
ATOM     32  CE  LYS P   4       8.128  26.139  -3.569  1.00 46.32 LIG 0.23  C 
BRANCH 32 33
ATOM     33  NZ  LYS P   4       8.375  27.512  -4.076  1.00 44.97 LIG-0.08  N 
ATOM     34 HZ3  LYS P   4       8.879  27.957  -3.493  1.00 44.97 LIG 0.27  HD
ATOM     35 HZ1  LYS P   4       8.795  27.469  -4.859  1.00 44.97 LIG 0.27  HD
ATOM     36 HZ2  LYS P   4       7.598  27.935  -4.179  1.00 44.97 LIG 0.27  HD
ENDBRANCH 32 33
ENDBRANCH 31 32
ENDBRANCH 30 31
ENDBRANCH 29 30
ENDBRANCH 28 29
BRANCH 28 37
ATOM     37  C   LYS P   4       4.406  22.318  -3.901  1.00 40.96 LIG 0.22  C 
ATOM     38 O    LYS P   4       3.500  21.629  -3.435  1.00 40.89 LIG-0.29  OA
ENDBRANCH 28 37
ENDBRANCH 26 28
ENDBRANCH 22 24
ENDBRANCH 3 22
TORSDOF 16
ENDMDL
MODEL 57
USER: ADFR SOLUTION from run 80
USER: SCORE 12.350115 LL:  -1.856 LR: -12.116 RR:   0.000 FEB:  -7.343
USER: RMSD 5.763053
USER: SEED 79
USER: STATUS no improvement in best 11 clusters for 5 generations
USER: GENES 18
USER: genes 0 Translation |==|  0.48446 0.36037 0.52605
USER: genes 1 Rotation |==|  0.64908 0.63661 0.44477 0.95394
USER: genes 2 Torsion [N]-C--CA-[N] |==|  0.06314
USER: genes 3 Torsion [C]-CA--CB-[CG2] |==|  0.87268
USER: genes 4 Torsion [CA]-CB--CG1-[CD1] |==|  0.49090
USER: genes 5 Torsion [C]-CA--N-[C] |==|  0.60305
USER: genes 6 Torsion [N]-C--CA-[N] |==|  0.53494
USER: genes 7 Torsion [C]-CA--CB-[CG1] |==|  0.25266
USER: genes 8 Torsion [C]-CA--N-[H2] |==|  0.22686
USER: genes 9 Torsion [C]-N--CA-[CB] |==|  0.28889
USER: genes 10 Torsion [N]-CA--C-[N] |==|  0.56395
USER: genes 11 Torsion [C]-N--CA-[CB] |==|  0.47220
USER: genes 12 Torsion [N]-CA--CB-[CG] |==|  0.52123
USER: genes 13 Torsion [CA]-CB--CG-[CD] |==|  0.44700
USER: genes 14 Torsion [CB]-CG--CD-[CE] |==|  0.67130
USER: genes 15 Torsion [CG]-CD--CE-[NZ] |==|  0.48978
USER: genes 16 Torsion [CD]-CE--NZ-[HZ3] |==|  0.74169
USER: genes 17 Torsion [N]-CA--C-[O] |==|  0.39679
ROOT
ATOM      1  C   ILE P   2       5.284  16.621  -4.899  1.00 41.40 LIG 0.24  C 
ATOM      2 O    ILE P   2       6.065  16.594  -5.862  1.00 41.61 LIG-0.27  OA
ATOM      3  N   ALA P   3       4.866  17.721  -4.274  1.00 41.46 LIG-0.35  N 
ATOM      4 H    ALA P   3       4.284  17.670  -3.642  1.00 41.46 LIG 0.16  HD
ENDROOT
BRANCH 1 5
ATOM      5  CA  ILE P   2       4.703  15.357  -4.275  1.00 41.22 LIG 0.18  C 
BRANCH 5 6
ATOM      6  CB  ILE P   2       4.472  14.443  -5.467  1.00 41.07 LIG 0.01  C 
ATOM      7  CG2 ILE P   2       3.801  15.201  -6.603  1.00 40.92 LIG 0.01  C 
BRANCH 6 8
ATOM      8  CG1 ILE P   2       5.801  13.857  -5.920  1.00 41.09 LIG 0.00  C 
ATOM      9  CD1 ILE P   2       5.672  12.869  -7.055  1.00 41.85 LIG 0.01  C 
ENDBRANCH 6 8
ENDBRANCH 5 6
BRANCH 5 10
ATOM     10  N   ILE P   2       3.478  15.418  -3.503  1.00 40.98 LIG-0.35  N 
ATOM     11  C   VAL P   1       3.466  14.608  -2.453  1.00 40.89 LIG 0.25  C 
ATOM     12 O    VAL P   1       4.455  13.970  -2.099  1.00 40.76 LIG-0.27  OA
ATOM     13 H    ILE P   2       2.860  15.955  -3.764  1.00 40.98 LIG 0.16  HD
BRANCH 11 14
ATOM     14  CA  VAL P   1       2.178  14.479  -1.641  1.00 40.81 LIG 0.28  C 
BRANCH 14 15
ATOM     15  CB  VAL P   1       1.572  15.869  -1.404  1.00 40.75 LIG 0.02  C 
ATOM     16  CG1 VAL P   1       0.596  16.222  -2.514  1.00 40.27 LIG 0.01  C 
ATOM     17  CG2 VAL P   1       0.868  15.931  -0.056  1.00 40.35 LIG 0.01  C 
ENDBRANCH 14 15
BRANCH 14 18
ATOM     18  N   VAL P   1       2.409  13.800  -0.383  1.00 41.10 LIG-0.07  N 
ATOM     19 H1   VAL P   1       2.996  13.142  -0.504  1.00 41.10 LIG 0.28  HD
ATOM     20 H3   VAL P   1       1.643  13.462  -0.082  1.00 41.10 LIG 0.28  HD
ATOM     21 H2   VAL P   1       2.731  14.379   0.212  1.00 41.10 LIG 0.28  HD
ENDBRANCH 14 18
ENDBRANCH 11 14
ENDBRANCH 5 10
ENDBRANCH 1 5
BRANCH 3 22
ATOM     22  CA  ALA P   3       5.269  19.097  -4.509  1.00 41.49 LIG 0.17  C 
ATOM     23  CB  ALA P   3       4.156  19.800  -5.272  1.00 41.44 LIG 0.04  C 
BRANCH 22 24
ATOM     24  C   ALA P   3       5.666  19.922  -3.305  1.00 41.37 LIG 0.24  C 
ATOM     25 O    ALA P   3       6.078  19.429  -2.254  1.00 41.45 LIG-0.27  OA
ATOM     26  N   LYS P   4       5.541  21.252  -3.526  1.00 41.15 LIG-0.35  N 
ATOM     27 H    LYS P   4       5.337  21.546  -4.307  1.00 41.15 LIG 0.16  HD
BRANCH 26 28
ATOM     28  CA  LYS P   4       5.707  22.334  -2.588  1.00 40.89 LIG 0.16  C 
BRANCH 28 29
ATOM     29  CB  LYS P   4       5.705  23.637  -3.397  1.00 40.64 LIG 0.03  C 
BRANCH 29 30
ATOM     30  CG  LYS P   4       6.055  24.867  -2.571  1.00 49.46 LIG 0.00  C 
BRANCH 30 31
ATOM     31  CD  LYS P   4       6.496  26.031  -3.443  1.00 47.65 LIG 0.03  C 
BRANCH 31 32
ATOM     32  CE  LYS P   4       7.925  26.481  -3.169  1.00 46.32 LIG 0.23  C 
BRANCH 32 33
ATOM     33  NZ  LYS P   4       8.355  27.559  -4.094  1.00 44.97 LIG-0.08  N 
ATOM     34 HZ3  LYS P   4       8.764  27.201  -4.798  1.00 44.97 LIG 0.27  HD
ATOM     35 HZ1  LYS P   4       7.643  28.018  -4.367  1.00 44.97 LIG 0.27  HD
ATOM     36 HZ2  LYS P   4       8.916  28.107  -3.672  1.00 44.97 LIG 0.27  HD
ENDBRANCH 32 33
ENDBRANCH 31 32
ENDBRANCH 30 31
ENDBRANCH 29 30
ENDBRANCH 28 29
BRANCH 28 37
ATOM     37  C   LYS P   4       4.621  22.367  -1.517  1.00 40.96 LIG 0.22  C 
ATOM     38 O    LYS P   4       4.895  22.683  -0.361  1.00 40.89 LIG-0.29  OA
ENDBRANCH 28 37
ENDBRANCH 26 28
ENDBRANCH 22 24
ENDBRANCH 3 22
TORSDOF 16
ENDMDL
