MODEL 1
USER: ADFR SOLUTION from run 82
USER: SCORE 19.317479 LL:  -3.634 LR: -17.646 RR:   0.000 FEB: -11.382
USER: RMSD 8.650289
USER: SEED 81
USER: STATUS no improvement in best 5 clusters for 5 generations
USER: GENES 23
USER: genes 0 Translation |==|  0.33920 0.52946 0.47900
USER: genes 1 Rotation |==|  0.18412 0.63195 0.78601 0.72585
USER: genes 2 Torsion [C]-N--CA-[CB] |==|  0.29211
USER: genes 3 Torsion [N]-CA--CB-[CG] |==|  0.99235
USER: genes 4 Torsion [CA]-CB--CG-[CD2] |==|  0.24993
USER: genes 5 Torsion [CE2]-CZ--OH-[HH] |==|  0.00866
USER: genes 6 Torsion [N]-CA--C-[N] |==|  0.99186
USER: genes 7 Torsion [C]-N--CA-[CB] |==|  0.74025
USER: genes 8 Torsion [N]-CA--CB-[CG] |==|  0.99664
USER: genes 9 Torsion [CA]-CB--CG-[CD] |==|  0.75261
USER: genes 10 Torsion [CB]-CG--CD-[CE] |==|  0.62111
USER: genes 11 Torsion [CG]-CD--CE-[NZ] |==|  0.14764
USER: genes 12 Torsion [CD]-CE--NZ-[HZ1] |==|  0.11530
USER: genes 13 Torsion [N]-CA--C-[O] |==|  0.29043
USER: genes 14 Torsion [N]-C--CA-[N] |==|  0.48492
USER: genes 15 Torsion [C]-CA--CB-[CG1] |==|  0.18804
USER: genes 16 Torsion [C]-CA--N-[C] |==|  0.68019
USER: genes 17 Torsion [N]-C--CA-[N] |==|  0.82798
USER: genes 18 Torsion [C]-CA--N-[C] |==|  0.64109
USER: genes 19 Torsion [N]-C--CA-[N] |==|  0.06000
USER: genes 20 Torsion [C]-CA--N-[H1] |==|  0.00621
USER: genes 21 Torsion [C]-CA--CB-[CG] |==|  0.16819
USER: genes 22 Torsion [CA]-CB--CG-[CD2] |==|  0.57176
ROOT
ATOM      1  C   VAL P   3      29.736   5.844  -6.380  0.50 59.03 LIG 0.24  C 
ATOM      2 O    VAL P   3      28.879   4.942  -6.322  0.50 59.49 LIG-0.27  OA
ATOM      3  N   TYR P   4      29.987   6.474  -5.229  0.50 59.73 LIG-0.35  N 
ATOM      4 H    TYR P   4      30.381   7.206  -5.011  0.50 59.73 LIG 0.16  HD
ENDROOT
BRANCH 3 5
ATOM      5  CA  TYR P   4      29.409   5.594  -4.327  0.50 59.99 LIG 0.18  C 
BRANCH 5 6
ATOM      6  CB  TYR P   4      30.589   4.843  -3.633  0.50 59.48 LIG 0.07  C 
BRANCH 6 7
ATOM      7  CG  TYR P   4      32.030   5.156  -4.104  0.50 58.89 LIG-0.06  A 
ATOM      8  CD2 TYR P   4      32.784   6.180  -3.507  0.50 58.48 LIG 0.01  A 
ATOM      9  CE2 TYR P   4      34.125   6.342  -3.809  0.50 57.98 LIG 0.04  A 
ATOM     10  CZ  TYR P   4      34.720   5.533  -4.745  0.50 58.05 LIG 0.07  A 
ATOM     11  CE1 TYR P   4      33.962   4.560  -5.408  0.50 57.81 LIG 0.04  A 
ATOM     12  CD1 TYR P   4      32.608   4.376  -5.068  0.50 58.25 LIG 0.01  A 
BRANCH 10 13
ATOM     13 OH   TYR P   4      36.065   5.672  -5.010  0.50 58.00 LIG-0.36  OA
ATOM     14 HH   TYR P   4      36.393   6.253  -4.500  0.50 58.00 LIG 0.22  HD
ENDBRANCH 10 13
ENDBRANCH 6 7
ENDBRANCH 5 6
BRANCH 5 15
ATOM     15  C   TYR P   4      28.340   6.069  -3.441  0.50 60.88 LIG 0.24  C 
ATOM     16  N   LYS P   5      28.227   7.351  -3.711  0.50 60.84 LIG-0.35  N 
ATOM     17 H    LYS P   5      28.709   7.723  -4.318  0.50 60.84 LIG 0.16  HD
ATOM     18 O    TYR P   4      27.740   5.445  -2.568  0.50 61.26 LIG-0.27  OA
BRANCH 16 19
ATOM     19  CA  LYS P   5      27.331   8.296  -3.077  0.50 61.28 LIG 0.16  C 
BRANCH 19 20
ATOM     20  CB  LYS P   5      26.044   8.429  -3.842  0.50 60.15 LIG 0.03  C 
BRANCH 20 21
ATOM     21  CG  LYS P   5      26.090   7.546  -5.072  0.50 59.32 LIG 0.00  C 
BRANCH 21 22
ATOM     22  CD  LYS P   5      26.681   8.286  -6.254  0.50 58.12 LIG 0.03  C 
BRANCH 22 23
ATOM     23  CE  LYS P   5      25.905   8.044  -7.525  0.50 56.96 LIG 0.23  C 
BRANCH 23 24
ATOM     24  NZ  LYS P   5      24.454   8.335  -7.355  0.50 55.60 LIG-0.08  N 
ATOM     25 HZ2  LYS P   5      24.078   8.446  -8.153  0.50 55.60 LIG 0.27  HD
ATOM     26 HZ1  LYS P   5      24.355   9.078  -6.875  0.50 55.60 LIG 0.27  HD
ATOM     27 HZ3  LYS P   5      24.062   7.656  -6.934  0.50 55.60 LIG 0.27  HD
ENDBRANCH 23 24
ENDBRANCH 22 23
ENDBRANCH 21 22
ENDBRANCH 20 21
ENDBRANCH 19 20
BRANCH 19 28
ATOM     28  C   LYS P   5      27.065   7.867  -1.645  0.50 61.70 LIG 0.22  C 
ATOM     29 O    LYS P   5      27.606   8.458  -0.710  0.50 62.43 LIG-0.29  OA
ENDBRANCH 19 28
ENDBRANCH 16 19
ENDBRANCH 5 15
ENDBRANCH 3 5
BRANCH 1 30
ATOM     30  CA  VAL P   3      30.321   6.049  -7.771  0.50 58.35 LIG 0.18  C 
BRANCH 30 31
ATOM     31  CB  VAL P   3      29.930   7.492  -8.139  0.50 57.85 LIG 0.01  C 
ATOM     32  CG1 VAL P   3      30.645   8.509  -7.275  0.50 57.49 LIG 0.01  C 
ATOM     33  CG2 VAL P   3      30.211   7.765  -9.608  0.50 57.23 LIG 0.01  C 
ENDBRANCH 30 31
BRANCH 30 34
ATOM     34  N   VAL P   3      30.227   5.404  -9.063  0.50 58.27 LIG-0.35  N 
ATOM     35  C   LEU P   2      30.929   4.722  -9.990  0.50 58.43 LIG 0.24  C 
ATOM     36 O    LEU P   2      32.137   4.573 -10.090  0.50 58.37 LIG-0.27  OA
ATOM     37 H    VAL P   3      29.405   5.519  -9.291  0.50 58.27 LIG 0.16  HD
BRANCH 35 38
ATOM     38  CA  LEU P   2      29.827   4.253 -10.926  0.50 58.44 LIG 0.18  C 
BRANCH 38 39
ATOM     39  N   LEU P   2      28.755   3.366 -10.494  0.50 58.68 LIG-0.35  N 
ATOM     40 H    LEU P   2      28.254   3.474  -9.803  0.50 58.68 LIG 0.16  HD
ATOM     41  C   ALA P   1      28.872   2.484 -11.461  0.50 58.87 LIG 0.25  C 
ATOM     42 O    ALA P   1      29.783   2.667 -12.263  0.50 59.28 LIG-0.27  OA
BRANCH 41 43
ATOM     43  CA  ALA P   1      27.991   1.266 -11.686  0.50 58.66 LIG 0.27  C 
ATOM     44  CB  ALA P   1      27.745   0.976 -13.153  0.50 57.92 LIG 0.05  C 
BRANCH 43 45
ATOM     45  N   ALA P   1      26.689   1.478 -11.000  0.50 58.63 LIG-0.07  N 
ATOM     46 H1   ALA P   1      26.678   2.286 -10.626  0.50 58.63 LIG 0.28  HD
ATOM     47 H2   ALA P   1      26.027   1.418 -11.593  0.50 58.63 LIG 0.28  HD
ATOM     48 H3   ALA P   1      26.580   0.859 -10.370  0.50 58.63 LIG 0.28  HD
ENDBRANCH 43 45
ENDBRANCH 41 43
ENDBRANCH 38 39
BRANCH 38 49
ATOM     49  CB  LEU P   2      29.244   5.352 -11.824  0.50 58.10 LIG 0.04  C 
BRANCH 49 50
ATOM     50  CG  LEU P   2      30.234   6.031 -12.778  0.50 57.94 LIG-0.02  C 
ATOM     51  CD2 LEU P   2      29.772   7.426 -13.123  0.50 57.90 LIG 0.01  C 
ATOM     52  CD1 LEU P   2      30.402   5.210 -14.041  0.50 57.66 LIG 0.01  C 
ENDBRANCH 49 50
ENDBRANCH 38 49
ENDBRANCH 35 38
ENDBRANCH 30 34
ENDBRANCH 1 30
TORSDOF 21
ENDMDL
MODEL 2
USER: ADFR SOLUTION from run 69
USER: SCORE 19.694038 LL:  -3.930 LR: -17.421 RR:   0.000 FEB: -11.156
USER: RMSD 4.716669
USER: SEED 68
USER: STATUS no improvement in best 3 clusters for 5 generations
USER: GENES 23
USER: genes 0 Translation |==|  0.43129 0.48379 0.51561
USER: genes 1 Rotation |==|  0.01190 0.56030 0.42439 0.54904
USER: genes 2 Torsion [C]-N--CA-[CB] |==|  0.23765
USER: genes 3 Torsion [N]-CA--CB-[CG] |==|  0.33681
USER: genes 4 Torsion [CA]-CB--CG-[CD2] |==|  0.23296
USER: genes 5 Torsion [CE2]-CZ--OH-[HH] |==|  0.76570
USER: genes 6 Torsion [N]-CA--C-[N] |==|  0.87778
USER: genes 7 Torsion [C]-N--CA-[CB] |==|  0.38501
USER: genes 8 Torsion [N]-CA--CB-[CG] |==|  0.76547
USER: genes 9 Torsion [CA]-CB--CG-[CD] |==|  0.81291
USER: genes 10 Torsion [CB]-CG--CD-[CE] |==|  0.37614
USER: genes 11 Torsion [CG]-CD--CE-[NZ] |==|  0.34889
USER: genes 12 Torsion [CD]-CE--NZ-[HZ1] |==|  0.22322
USER: genes 13 Torsion [N]-CA--C-[O] |==|  0.39088
USER: genes 14 Torsion [N]-C--CA-[N] |==|  0.70268
USER: genes 15 Torsion [C]-CA--CB-[CG1] |==|  0.81218
USER: genes 16 Torsion [C]-CA--N-[C] |==|  0.17068
USER: genes 17 Torsion [N]-C--CA-[N] |==|  0.41466
USER: genes 18 Torsion [C]-CA--N-[C] |==|  0.63970
USER: genes 19 Torsion [N]-C--CA-[N] |==|  0.53152
USER: genes 20 Torsion [C]-CA--N-[H1] |==|  0.61402
USER: genes 21 Torsion [C]-CA--CB-[CG] |==|  0.86761
USER: genes 22 Torsion [CA]-CB--CG-[CD2] |==|  0.87641
ROOT
ATOM      1  C   VAL P   3      32.499   4.474  -5.282  0.50 59.03 LIG 0.24  C 
ATOM      2 O    VAL P   3      31.782   3.455  -5.301  0.50 59.49 LIG-0.27  OA
ATOM      3  N   TYR P   4      31.956   5.569  -5.820  0.50 59.73 LIG-0.35  N 
ATOM      4 H    TYR P   4      32.258   6.329  -6.085  0.50 59.73 LIG 0.16  HD
ENDROOT
BRANCH 3 5
ATOM      5  CA  TYR P   4      30.624   5.190  -5.876  0.50 59.99 LIG 0.18  C 
BRANCH 5 6
ATOM      6  CB  TYR P   4      30.014   5.532  -4.480  0.50 59.48 LIG 0.07  C 
BRANCH 6 7
ATOM      7  CG  TYR P   4      28.814   6.510  -4.428  0.50 58.89 LIG-0.06  A 
ATOM      8  CD2 TYR P   4      27.499   6.060  -4.636  0.50 58.48 LIG 0.01  A 
ATOM      9  CE2 TYR P   4      26.419   6.898  -4.419  0.50 57.98 LIG 0.04  A 
ATOM     10  CZ  TYR P   4      26.628   8.204  -4.050  0.50 58.05 LIG 0.07  A 
ATOM     11  CE1 TYR P   4      27.935   8.690  -3.916  0.50 57.81 LIG 0.04  A 
ATOM     12  CD1 TYR P   4      29.027   7.821  -4.103  0.50 58.25 LIG 0.01  A 
BRANCH 10 13
ATOM     13 OH   TYR P   4      25.549   9.021  -3.794  0.50 58.00 LIG-0.36  OA
ATOM     14 HH   TYR P   4      25.265   9.345  -4.515  0.50 58.00 LIG 0.22  HD
ENDBRANCH 10 13
ENDBRANCH 6 7
ENDBRANCH 5 6
BRANCH 5 15
ATOM     15  C   TYR P   4      29.815   5.569  -7.041  0.50 60.88 LIG 0.24  C 
ATOM     16  N   LYS P   5      30.125   6.825  -7.269  0.50 60.84 LIG-0.35  N 
ATOM     17 H    LYS P   5      30.713   7.234  -6.792  0.50 60.84 LIG 0.16  HD
ATOM     18 O    TYR P   4      28.962   4.904  -7.625  0.50 61.26 LIG-0.27  OA
BRANCH 16 19
ATOM     19  CA  LYS P   5      29.571   7.685  -8.295  0.50 61.28 LIG 0.16  C 
BRANCH 19 20
ATOM     20  CB  LYS P   5      29.308   9.068  -7.768  0.50 60.15 LIG 0.03  C 
BRANCH 20 21
ATOM     21  CG  LYS P   5      27.955   9.104  -7.087  0.50 59.32 LIG 0.00  C 
BRANCH 21 22
ATOM     22  CD  LYS P   5      26.835   8.914  -8.088  0.50 58.12 LIG 0.03  C 
BRANCH 22 23
ATOM     23  CE  LYS P   5      25.788   7.945  -7.596  0.50 56.96 LIG 0.23  C 
BRANCH 23 24
ATOM     24  NZ  LYS P   5      24.423   8.539  -7.625  0.50 55.60 LIG-0.08  N 
ATOM     25 HZ2  LYS P   5      23.889   8.086  -7.076  0.50 55.60 LIG 0.27  HD
ATOM     26 HZ1  LYS P   5      24.099   8.499  -8.453  0.50 55.60 LIG 0.27  HD
ATOM     27 HZ3  LYS P   5      24.462   9.389  -7.364  0.50 55.60 LIG 0.27  HD
ENDBRANCH 23 24
ENDBRANCH 22 23
ENDBRANCH 21 22
ENDBRANCH 20 21
ENDBRANCH 19 20
BRANCH 19 28
ATOM     28  C   LYS P   5      30.511   7.731  -9.487  0.50 61.70 LIG 0.22  C 
ATOM     29 O    LYS P   5      30.061   7.731 -10.632  0.50 62.43 LIG-0.29  OA
ENDBRANCH 19 28
ENDBRANCH 16 19
ENDBRANCH 5 15
ENDBRANCH 3 5
BRANCH 1 30
ATOM     30  CA  VAL P   3      33.866   4.254  -4.648  0.50 58.35 LIG 0.18  C 
BRANCH 30 31
ATOM     31  CB  VAL P   3      34.382   5.675  -4.355  0.50 57.85 LIG 0.01  C 
ATOM     32  CG1 VAL P   3      34.674   6.442  -5.628  0.50 57.49 LIG 0.01  C 
ATOM     33  CG2 VAL P   3      33.387   6.441  -3.499  0.50 57.23 LIG 0.01  C 
ENDBRANCH 30 31
BRANCH 30 34
ATOM     34  N   VAL P   3      35.099   3.585  -5.001  0.50 58.27 LIG-0.35  N 
ATOM     35  C   LEU P   2      36.105   3.565  -5.900  0.50 58.43 LIG 0.24  C 
ATOM     36 O    LEU P   2      36.181   4.115  -6.987  0.50 58.37 LIG-0.27  OA
ATOM     37 H    VAL P   3      35.192   2.987  -4.391  0.50 58.27 LIG 0.16  HD
BRANCH 35 38
ATOM     38  CA  LEU P   2      37.088   2.612  -5.239  0.50 58.44 LIG 0.18  C 
BRANCH 38 39
ATOM     39  N   LEU P   2      37.987   1.757  -6.002  0.50 58.68 LIG-0.35  N 
ATOM     40 H    LEU P   2      38.506   2.008  -6.641  0.50 58.68 LIG 0.16  HD
ATOM     41  C   ALA P   1      37.703   0.631  -5.387  0.50 58.87 LIG 0.25  C 
ATOM     42 O    ALA P   1      36.833   0.681  -4.523  0.50 59.28 LIG-0.27  OA
BRANCH 41 43
ATOM     43  CA  ALA P   1      38.349  -0.723  -5.636  0.50 58.66 LIG 0.27  C 
ATOM     44  CB  ALA P   1      38.450  -1.067  -7.108  0.50 57.92 LIG 0.05  C 
BRANCH 43 45
ATOM     45  N   ALA P   1      37.560  -1.771  -4.937  0.50 58.63 LIG-0.07  N 
ATOM     46 H1   ALA P   1      38.114  -2.358  -4.560  0.50 58.63 LIG 0.28  HD
ATOM     47 H2   ALA P   1      37.055  -1.394  -4.308  0.50 58.63 LIG 0.28  HD
ATOM     48 H3   ALA P   1      37.038  -2.191  -5.523  0.50 58.63 LIG 0.28  HD
ENDBRANCH 43 45
ENDBRANCH 41 43
ENDBRANCH 38 39
BRANCH 38 49
ATOM     49  CB  LEU P   2      37.848   3.208  -4.047  0.50 58.10 LIG 0.04  C 
BRANCH 49 50
ATOM     50  CG  LEU P   2      38.463   4.594  -4.272  0.50 57.94 LIG-0.02  C 
ATOM     51  CD2 LEU P   2      39.154   4.661  -5.612  0.50 57.90 LIG 0.01  C 
ATOM     52  CD1 LEU P   2      39.442   4.928  -3.163  0.50 57.66 LIG 0.01  C 
ENDBRANCH 49 50
ENDBRANCH 38 49
ENDBRANCH 35 38
ENDBRANCH 30 34
ENDBRANCH 1 30
TORSDOF 21
ENDMDL
MODEL 3
USER: ADFR SOLUTION from run 146
USER: SCORE 18.279827 LL:  -3.767 LR: -17.211 RR:   0.000 FEB: -10.946
USER: RMSD 10.112958
USER: SEED 145
USER: STATUS no improvement in best 12 clusters for 5 generations
USER: GENES 23
USER: genes 0 Translation |==|  0.44007 0.51796 0.53446
USER: genes 1 Rotation |==|  0.60127 0.47875 0.98300 0.57749
USER: genes 2 Torsion [C]-N--CA-[CB] |==|  0.24534
USER: genes 3 Torsion [N]-CA--CB-[CG] |==|  0.75967
USER: genes 4 Torsion [CA]-CB--CG-[CD2] |==|  0.79565
USER: genes 5 Torsion [CE2]-CZ--OH-[HH] |==|  0.34251
USER: genes 6 Torsion [N]-CA--C-[N] |==|  0.38957
USER: genes 7 Torsion [C]-N--CA-[CB] |==|  0.87933
USER: genes 8 Torsion [N]-CA--CB-[CG] |==|  0.38683
USER: genes 9 Torsion [CA]-CB--CG-[CD] |==|  0.68019
USER: genes 10 Torsion [CB]-CG--CD-[CE] |==|  0.93641
USER: genes 11 Torsion [CG]-CD--CE-[NZ] |==|  0.34896
USER: genes 12 Torsion [CD]-CE--NZ-[HZ1] |==|  0.90634
USER: genes 13 Torsion [N]-CA--C-[O] |==|  0.35732
USER: genes 14 Torsion [N]-C--CA-[N] |==|  0.35147
USER: genes 15 Torsion [C]-CA--CB-[CG1] |==|  0.49552
USER: genes 16 Torsion [C]-CA--N-[C] |==|  0.15730
USER: genes 17 Torsion [N]-C--CA-[N] |==|  0.51010
USER: genes 18 Torsion [C]-CA--N-[C] |==|  0.67336
USER: genes 19 Torsion [N]-C--CA-[N] |==|  0.08275
USER: genes 20 Torsion [C]-CA--N-[H1] |==|  0.57740
USER: genes 21 Torsion [C]-CA--CB-[CG] |==|  0.68250
USER: genes 22 Torsion [CA]-CB--CG-[CD2] |==|  0.75221
ROOT
ATOM      1  C   VAL P   3      32.762   5.499  -4.716  0.50 59.03 LIG 0.24  C 
ATOM      2 O    VAL P   3      32.614   4.377  -5.235  0.50 59.49 LIG-0.27  OA
ATOM      3  N   TYR P   4      34.024   5.928  -4.623  0.50 59.73 LIG-0.35  N 
ATOM      4 H    TYR P   4      34.423   6.550  -4.184  0.50 59.73 LIG 0.16  HD
ENDROOT
BRANCH 3 5
ATOM      5  CA  TYR P   4      34.654   5.053  -5.494  0.50 59.99 LIG 0.18  C 
BRANCH 5 6
ATOM      6  CB  TYR P   4      34.573   5.710  -6.908  0.50 59.48 LIG 0.07  C 
BRANCH 6 7
ATOM      7  CG  TYR P   4      33.307   5.452  -7.762  0.50 58.89 LIG-0.06  A 
ATOM      8  CD2 TYR P   4      33.085   4.207  -8.375  0.50 58.48 LIG 0.01  A 
ATOM      9  CE2 TYR P   4      31.877   3.925  -8.989  0.50 57.98 LIG 0.04  A 
ATOM     10  CZ  TYR P   4      30.899   4.886  -9.054  0.50 58.05 LIG 0.07  A 
ATOM     11  CE1 TYR P   4      31.136   6.158  -8.517  0.50 57.81 LIG 0.04  A 
ATOM     12  CD1 TYR P   4      32.352   6.425  -7.862  0.50 58.25 LIG 0.01  A 
BRANCH 10 13
ATOM     13 OH   TYR P   4      29.684   4.584  -9.629  0.50 58.00 LIG-0.36  OA
ATOM     14 HH   TYR P   4      29.068   4.733  -9.077  0.50 58.00 LIG 0.22  HD
ENDBRANCH 10 13
ENDBRANCH 6 7
ENDBRANCH 5 6
BRANCH 5 15
ATOM     15  C   TYR P   4      35.954   4.479  -5.125  0.50 60.88 LIG 0.24  C 
ATOM     16  N   LYS P   5      35.894   3.230  -5.528  0.50 60.84 LIG-0.35  N 
ATOM     17 H    LYS P   5      35.202   2.926  -5.937  0.50 60.84 LIG 0.16  HD
ATOM     18 O    TYR P   4      36.867   5.006  -4.493  0.50 61.26 LIG-0.27  OA
BRANCH 16 19
ATOM     19  CA  LYS P   5      36.916   2.216  -5.367  0.50 61.28 LIG 0.16  C 
BRANCH 19 20
ATOM     20  CB  LYS P   5      38.282   2.760  -5.676  0.50 60.15 LIG 0.03  C 
BRANCH 20 21
ATOM     21  CG  LYS P   5      39.282   2.224  -4.672  0.50 59.32 LIG 0.00  C 
BRANCH 21 22
ATOM     22  CD  LYS P   5      39.853   3.340  -3.821  0.50 58.12 LIG 0.03  C 
BRANCH 22 23
ATOM     23  CE  LYS P   5      39.745   4.684  -4.496  0.50 56.96 LIG 0.23  C 
BRANCH 23 24
ATOM     24  NZ  LYS P   5      39.049   5.683  -3.639  0.50 55.60 LIG-0.08  N 
ATOM     25 HZ2  LYS P   5      39.638   6.071  -3.096  0.50 55.60 LIG 0.27  HD
ATOM     26 HZ1  LYS P   5      38.424   5.275  -3.155  0.50 55.60 LIG 0.27  HD
ATOM     27 HZ3  LYS P   5      38.668   6.302  -4.153  0.50 55.60 LIG 0.27  HD
ENDBRANCH 23 24
ENDBRANCH 22 23
ENDBRANCH 21 22
ENDBRANCH 20 21
ENDBRANCH 19 20
BRANCH 19 28
ATOM     28  C   LYS P   5      36.863   1.658  -3.955  0.50 61.70 LIG 0.22  C 
ATOM     29 O    LYS P   5      36.809   0.442  -3.771  0.50 62.43 LIG-0.29  OA
ENDBRANCH 19 28
ENDBRANCH 16 19
ENDBRANCH 5 15
ENDBRANCH 3 5
BRANCH 1 30
ATOM     30  CA  VAL P   3      31.458   6.154  -4.282  0.50 58.35 LIG 0.18  C 
BRANCH 30 31
ATOM     31  CB  VAL P   3      30.989   5.311  -3.083  0.50 57.85 LIG 0.01  C 
ATOM     32  CG1 VAL P   3      29.704   5.846  -2.485  0.50 57.49 LIG 0.01  C 
ATOM     33  CG2 VAL P   3      30.810   3.856  -3.487  0.50 57.23 LIG 0.01  C 
ENDBRANCH 30 31
BRANCH 30 34
ATOM     34  N   VAL P   3      30.188   6.487  -4.892  0.50 58.27 LIG-0.35  N 
ATOM     35  C   LEU P   2      29.134   5.971  -5.555  0.50 58.43 LIG 0.24  C 
ATOM     36 O    LEU P   2      29.011   4.875  -6.080  0.50 58.37 LIG-0.27  OA
ATOM     37 H    VAL P   3      30.114   7.335  -4.764  0.50 58.27 LIG 0.16  HD
BRANCH 35 38
ATOM     38  CA  LEU P   2      28.164   7.141  -5.547  0.50 58.44 LIG 0.18  C 
BRANCH 38 39
ATOM     39  N   LEU P   2      26.815   7.048  -6.092  0.50 58.68 LIG-0.35  N 
ATOM     40 H    LEU P   2      26.189   6.531  -5.810  0.50 58.68 LIG 0.16  HD
ATOM     41  C   ALA P   1      26.959   7.949  -7.039  0.50 58.87 LIG 0.25  C 
ATOM     42 O    ALA P   1      28.073   8.450  -7.155  0.50 59.28 LIG-0.27  OA
BRANCH 41 43
ATOM     43  CA  ALA P   1      25.882   8.431  -7.997  0.50 58.66 LIG 0.27  C 
ATOM     44  CB  ALA P   1      26.105   9.855  -8.468  0.50 57.92 LIG 0.05  C 
BRANCH 43 45
ATOM     45  N   ALA P   1      24.559   8.335  -7.327  0.50 58.63 LIG-0.07  N 
ATOM     46 H1   ALA P   1      23.924   8.216  -7.939  0.50 58.63 LIG 0.28  HD
ATOM     47 H2   ALA P   1      24.560   7.645  -6.764  0.50 58.63 LIG 0.28  HD
ATOM     48 H3   ALA P   1      24.399   9.085  -6.875  0.50 58.63 LIG 0.28  HD
ENDBRANCH 43 45
ENDBRANCH 41 43
ENDBRANCH 38 39
BRANCH 38 49
ATOM     49  CB  LEU P   2      28.123   7.926  -4.229  0.50 58.10 LIG 0.04  C 
BRANCH 49 50
ATOM     50  CG  LEU P   2      26.804   7.858  -3.452  0.50 57.94 LIG-0.02  C 
ATOM     51  CD2 LEU P   2      25.870   8.961  -3.886  0.50 57.90 LIG 0.01  C 
ATOM     52  CD1 LEU P   2      27.060   7.949  -1.960  0.50 57.66 LIG 0.01  C 
ENDBRANCH 49 50
ENDBRANCH 38 49
ENDBRANCH 35 38
ENDBRANCH 30 34
ENDBRANCH 1 30
TORSDOF 21
ENDMDL
MODEL 4
USER: ADFR SOLUTION from run 32
USER: SCORE 19.714949 LL:  -3.846 LR: -17.063 RR:   0.000 FEB: -10.799
USER: RMSD 10.454305
USER: SEED 31
USER: STATUS no improvement in best 6 clusters for 5 generations
USER: GENES 23
USER: genes 0 Translation |==|  0.43409 0.51355 0.46192
USER: genes 1 Rotation |==|  0.52485 0.95733 0.33961 0.62045
USER: genes 2 Torsion [C]-N--CA-[CB] |==|  0.24607
USER: genes 3 Torsion [N]-CA--CB-[CG] |==|  0.95876
USER: genes 4 Torsion [CA]-CB--CG-[CD2] |==|  0.20840
USER: genes 5 Torsion [CE2]-CZ--OH-[HH] |==|  0.86833
USER: genes 6 Torsion [N]-CA--C-[N] |==|  0.82778
USER: genes 7 Torsion [C]-N--CA-[CB] |==|  0.24581
USER: genes 8 Torsion [N]-CA--CB-[CG] |==|  0.51929
USER: genes 9 Torsion [CA]-CB--CG-[CD] |==|  0.51353
USER: genes 10 Torsion [CB]-CG--CD-[CE] |==|  0.70346
USER: genes 11 Torsion [CG]-CD--CE-[NZ] |==|  0.27763
USER: genes 12 Torsion [CD]-CE--NZ-[HZ1] |==|  0.89976
USER: genes 13 Torsion [N]-CA--C-[O] |==|  0.71131
USER: genes 14 Torsion [N]-C--CA-[N] |==|  0.33867
USER: genes 15 Torsion [C]-CA--CB-[CG1] |==|  0.39997
USER: genes 16 Torsion [C]-CA--N-[C] |==|  0.69006
USER: genes 17 Torsion [N]-C--CA-[N] |==|  0.40011
USER: genes 18 Torsion [C]-CA--N-[C] |==|  0.64965
USER: genes 19 Torsion [N]-C--CA-[N] |==|  0.01659
USER: genes 20 Torsion [C]-CA--N-[H1] |==|  0.42750
USER: genes 21 Torsion [C]-CA--CB-[CG] |==|  0.72550
USER: genes 22 Torsion [CA]-CB--CG-[CD2] |==|  0.10188
ROOT
ATOM      1  C   VAL P   3      32.583   5.367  -6.892  0.50 59.03 LIG 0.24  C 
ATOM      2 O    VAL P   3      33.057   6.501  -7.086  0.50 59.49 LIG-0.27  OA
ATOM      3  N   TYR P   4      33.414   4.483  -6.333  0.50 59.73 LIG-0.35  N 
ATOM      4 H    TYR P   4      33.420   3.628  -6.241  0.50 59.73 LIG 0.16  HD
ENDROOT
BRANCH 3 5
ATOM      5  CA  TYR P   4      34.405   5.330  -5.863  0.50 59.99 LIG 0.18  C 
BRANCH 5 6
ATOM      6  CB  TYR P   4      33.966   5.761  -4.427  0.50 59.48 LIG 0.07  C 
BRANCH 6 7
ATOM      7  CG  TYR P   4      32.499   5.501  -4.005  0.50 58.89 LIG-0.06  A 
ATOM      8  CD2 TYR P   4      32.053   4.210  -3.679  0.50 58.48 LIG 0.01  A 
ATOM      9  CE2 TYR P   4      30.795   4.009  -3.137  0.50 57.98 LIG 0.04  A 
ATOM     10  CZ  TYR P   4      29.945   5.073  -2.966  0.50 58.05 LIG 0.07  A 
ATOM     11  CE1 TYR P   4      30.345   6.356  -3.360  0.50 57.81 LIG 0.04  A 
ATOM     12  CD1 TYR P   4      31.639   6.557  -3.875  0.50 58.25 LIG 0.01  A 
BRANCH 10 13
ATOM     13 OH   TYR P   4      28.711   4.873  -2.387  0.50 58.00 LIG-0.36  OA
ATOM     14 HH   TYR P   4      28.337   4.210  -2.745  0.50 58.00 LIG 0.22  HD
ENDBRANCH 10 13
ENDBRANCH 6 7
ENDBRANCH 5 6
BRANCH 5 15
ATOM     15  C   TYR P   4      35.814   4.947  -6.017  0.50 60.88 LIG 0.24  C 
ATOM     16  N   LYS P   5      35.936   3.838  -5.323  0.50 60.84 LIG-0.35  N 
ATOM     17 H    LYS P   5      35.261   3.483  -4.926  0.50 60.84 LIG 0.16  HD
ATOM     18 O    TYR P   4      36.714   5.565  -6.582  0.50 61.26 LIG-0.27  OA
BRANCH 16 19
ATOM     19  CA  LYS P   5      37.147   3.069  -5.121  0.50 61.28 LIG 0.16  C 
BRANCH 19 20
ATOM     20  CB  LYS P   5      37.907   3.551  -3.917  0.50 60.15 LIG 0.03  C 
BRANCH 20 21
ATOM     21  CG  LYS P   5      39.242   2.839  -3.840  0.50 59.32 LIG 0.00  C 
BRANCH 21 22
ATOM     22  CD  LYS P   5      39.987   3.211  -2.575  0.50 58.12 LIG 0.03  C 
BRANCH 22 23
ATOM     23  CE  LYS P   5      41.151   4.130  -2.847  0.50 56.96 LIG 0.23  C 
BRANCH 23 24
ATOM     24  NZ  LYS P   5      40.819   5.552  -2.553  0.50 55.60 LIG-0.08  N 
ATOM     25 HZ2  LYS P   5      40.933   5.710  -1.685  0.50 55.60 LIG 0.27  HD
ATOM     26 HZ1  LYS P   5      39.971   5.710  -2.773  0.50 55.60 LIG 0.27  HD
ATOM     27 HZ3  LYS P   5      41.352   6.086  -3.024  0.50 55.60 LIG 0.27  HD
ENDBRANCH 23 24
ENDBRANCH 22 23
ENDBRANCH 21 22
ENDBRANCH 20 21
ENDBRANCH 19 20
BRANCH 19 28
ATOM     28  C   LYS P   5      36.800   1.596  -4.987  0.50 61.70 LIG 0.22  C 
ATOM     29 O    LYS P   5      36.810   1.055  -3.881  0.50 62.43 LIG-0.29  OA
ENDBRANCH 19 28
ENDBRANCH 16 19
ENDBRANCH 5 15
ENDBRANCH 3 5
BRANCH 1 30
ATOM     30  CA  VAL P   3      31.137   5.217  -7.347  0.50 58.35 LIG 0.18  C 
BRANCH 30 31
ATOM     31  CB  VAL P   3      31.199   5.388  -8.876  0.50 57.85 LIG 0.01  C 
ATOM     32  CG1 VAL P   3      30.208   4.489  -9.585  0.50 57.49 LIG 0.01  C 
ATOM     33  CG2 VAL P   3      30.959   6.838  -9.263  0.50 57.23 LIG 0.01  C 
ENDBRANCH 30 31
BRANCH 30 34
ATOM     34  N   VAL P   3      29.867   5.847  -7.056  0.50 58.27 LIG-0.35  N 
ATOM     35  C   LEU P   2      28.661   5.647  -6.485  0.50 58.43 LIG 0.24  C 
ATOM     36 O    LEU P   2      28.139   4.603  -6.128  0.50 58.37 LIG-0.27  OA
ATOM     37 H    VAL P   3      29.950   6.639  -7.380  0.50 58.27 LIG 0.16  HD
BRANCH 35 38
ATOM     38  CA  LEU P   2      28.089   7.055  -6.476  0.50 58.44 LIG 0.18  C 
BRANCH 38 39
ATOM     39  N   LEU P   2      26.675   7.330  -6.694  0.50 58.68 LIG-0.35  N 
ATOM     40 H    LEU P   2      26.018   6.984  -6.260  0.50 58.68 LIG 0.16  HD
ATOM     41  C   ALA P   1      26.825   8.192  -7.675  0.50 58.87 LIG 0.25  C 
ATOM     42 O    ALA P   1      27.974   8.392  -8.059  0.50 59.28 LIG-0.27  OA
BRANCH 41 43
ATOM     43  CA  ALA P   1      25.720   8.965  -8.375  0.50 58.66 LIG 0.27  C 
ATOM     44  CB  ALA P   1      25.978  10.458  -8.415  0.50 57.92 LIG 0.05  C 
BRANCH 43 45
ATOM     45  N   ALA P   1      24.432   8.706  -7.679  0.50 58.63 LIG-0.07  N 
ATOM     46 H1   ALA P   1      23.881   9.394  -7.806  0.50 58.63 LIG 0.28  HD
ATOM     47 H2   ALA P   1      24.061   7.966  -8.005  0.50 58.63 LIG 0.28  HD
ATOM     48 H3   ALA P   1      24.581   8.603  -6.807  0.50 58.63 LIG 0.28  HD
ENDBRANCH 43 45
ENDBRANCH 41 43
ENDBRANCH 38 39
BRANCH 38 49
ATOM     49  CB  LEU P   2      28.608   7.945  -5.339  0.50 58.10 LIG 0.04  C 
BRANCH 49 50
ATOM     50  CG  LEU P   2      27.690   8.071  -4.117  0.50 57.94 LIG-0.02  C 
ATOM     51  CD2 LEU P   2      26.993   6.762  -3.835  0.50 57.90 LIG 0.01  C 
ATOM     52  CD1 LEU P   2      26.669   9.171  -4.331  0.50 57.66 LIG 0.01  C 
ENDBRANCH 49 50
ENDBRANCH 38 49
ENDBRANCH 35 38
ENDBRANCH 30 34
ENDBRANCH 1 30
TORSDOF 21
ENDMDL
MODEL 5
USER: ADFR SOLUTION from run 4
USER: SCORE 19.139659 LL:  -3.941 LR: -16.893 RR:   0.000 FEB: -10.629
USER: RMSD 4.348028
USER: SEED 19343
USER: STATUS 1 or 2 clusters left
USER: GENES 23
USER: genes 0 Translation |==|  0.44158 0.49140 0.51452
USER: genes 1 Rotation |==|  0.00815 0.52793 0.41912 0.52764
USER: genes 2 Torsion [C]-N--CA-[CB] |==|  0.22559
USER: genes 3 Torsion [N]-CA--CB-[CG] |==|  0.31492
USER: genes 4 Torsion [CA]-CB--CG-[CD2] |==|  0.26582
USER: genes 5 Torsion [CE2]-CZ--OH-[HH] |==|  0.66879
USER: genes 6 Torsion [N]-CA--C-[N] |==|  0.94174
USER: genes 7 Torsion [C]-N--CA-[CB] |==|  0.28697
USER: genes 8 Torsion [N]-CA--CB-[CG] |==|  0.84723
USER: genes 9 Torsion [CA]-CB--CG-[CD] |==|  0.64086
USER: genes 10 Torsion [CB]-CG--CD-[CE] |==|  0.43840
USER: genes 11 Torsion [CG]-CD--CE-[NZ] |==|  0.46628
USER: genes 12 Torsion [CD]-CE--NZ-[HZ1] |==|  0.90653
USER: genes 13 Torsion [N]-CA--C-[O] |==|  0.49739
USER: genes 14 Torsion [N]-C--CA-[N] |==|  0.78373
USER: genes 15 Torsion [C]-CA--CB-[CG1] |==|  0.81396
USER: genes 16 Torsion [C]-CA--N-[C] |==|  0.80865
USER: genes 17 Torsion [N]-C--CA-[N] |==|  0.42145
USER: genes 18 Torsion [C]-CA--N-[C] |==|  0.73786
USER: genes 19 Torsion [N]-C--CA-[N] |==|  0.45991
USER: genes 20 Torsion [C]-CA--N-[H1] |==|  0.33649
USER: genes 21 Torsion [C]-CA--CB-[CG] |==|  0.62810
USER: genes 22 Torsion [CA]-CB--CG-[CD2] |==|  0.67791
ROOT
ATOM      1  C   VAL P   3      32.807   4.702  -5.314  0.50 59.03 LIG 0.24  C 
ATOM      2 O    VAL P   3      32.210   3.612  -5.234  0.50 59.49 LIG-0.27  OA
ATOM      3  N   TYR P   4      32.160   5.665  -5.976  0.50 59.73 LIG-0.35  N 
ATOM      4 H    TYR P   4      32.382   6.423  -6.317  0.50 59.73 LIG 0.16  HD
ENDROOT
BRANCH 3 5
ATOM      5  CA  TYR P   4      30.881   5.134  -6.010  0.50 59.99 LIG 0.18  C 
BRANCH 5 6
ATOM      6  CB  TYR P   4      30.238   5.453  -4.623  0.50 59.48 LIG 0.07  C 
BRANCH 6 7
ATOM      7  CG  TYR P   4      29.044   6.437  -4.582  0.50 58.89 LIG-0.06  A 
ATOM      8  CD2 TYR P   4      27.718   5.973  -4.585  0.50 58.48 LIG 0.01  A 
ATOM      9  CE2 TYR P   4      26.661   6.842  -4.374  0.50 57.98 LIG 0.04  A 
ATOM     10  CZ  TYR P   4      26.899   8.185  -4.215  0.50 58.05 LIG 0.07  A 
ATOM     11  CE1 TYR P   4      28.209   8.674  -4.289  0.50 57.81 LIG 0.04  A 
ATOM     12  CD1 TYR P   4      29.281   7.779  -4.467  0.50 58.25 LIG 0.01  A 
BRANCH 10 13
ATOM     13 OH   TYR P   4      25.847   9.038  -3.963  0.50 58.00 LIG-0.36  OA
ATOM     14 HH   TYR P   4      25.793   9.607  -4.580  0.50 58.00 LIG 0.22  HD
ENDBRANCH 10 13
ENDBRANCH 6 7
ENDBRANCH 5 6
BRANCH 5 15
ATOM     15  C   TYR P   4      30.031   5.374  -7.182  0.50 60.88 LIG 0.24  C 
ATOM     16  N   LYS P   5      30.545   6.439  -7.755  0.50 60.84 LIG-0.35  N 
ATOM     17 H    LYS P   5      31.250   6.818  -7.440  0.50 60.84 LIG 0.16  HD
ATOM     18 O    TYR P   4      29.006   4.782  -7.515  0.50 61.26 LIG-0.27  OA
BRANCH 16 19
ATOM     19  CA  LYS P   5      30.051   7.114  -8.937  0.50 61.28 LIG 0.16  C 
BRANCH 19 20
ATOM     20  CB  LYS P   5      29.324   8.381  -8.581  0.50 60.15 LIG 0.03  C 
BRANCH 20 21
ATOM     21  CG  LYS P   5      28.222   8.073  -7.589  0.50 59.32 LIG 0.00  C 
BRANCH 21 22
ATOM     22  CD  LYS P   5      26.901   8.660  -8.041  0.50 58.12 LIG 0.03  C 
BRANCH 22 23
ATOM     23  CE  LYS P   5      25.721   7.960  -7.414  0.50 56.96 LIG 0.23  C 
BRANCH 23 24
ATOM     24  NZ  LYS P   5      24.452   8.710  -7.626  0.50 55.60 LIG-0.08  N 
ATOM     25 HZ2  LYS P   5      24.096   8.477  -8.407  0.50 55.60 LIG 0.27  HD
ATOM     26 HZ1  LYS P   5      24.620   9.584  -7.625  0.50 55.60 LIG 0.27  HD
ATOM     27 HZ3  LYS P   5      23.880   8.518  -6.971  0.50 55.60 LIG 0.27  HD
ENDBRANCH 23 24
ENDBRANCH 22 23
ENDBRANCH 21 22
ENDBRANCH 20 21
ENDBRANCH 19 20
BRANCH 19 28
ATOM     28  C   LYS P   5      31.205   7.402  -9.882  0.50 61.70 LIG 0.22  C 
ATOM     29 O    LYS P   5      30.999   7.958 -10.961  0.50 62.43 LIG-0.29  OA
ENDBRANCH 19 28
ENDBRANCH 16 19
ENDBRANCH 5 15
ENDBRANCH 3 5
BRANCH 1 30
ATOM     30  CA  VAL P   3      34.173   4.708  -4.640  0.50 58.35 LIG 0.18  C 
BRANCH 30 31
ATOM     31  CB  VAL P   3      34.197   6.023  -3.840  0.50 57.85 LIG 0.01  C 
ATOM     32  CG1 VAL P   3      34.201   7.236  -4.748  0.50 57.49 LIG 0.01  C 
ATOM     33  CG2 VAL P   3      33.017   6.091  -2.884  0.50 57.23 LIG 0.01  C 
ENDBRANCH 30 31
BRANCH 30 34
ATOM     34  N   VAL P   3      35.556   4.618  -5.056  0.50 58.27 LIG-0.35  N 
ATOM     35  C   LEU P   2      36.482   3.787  -5.577  0.50 58.43 LIG 0.24  C 
ATOM     36 O    LEU P   2      36.441   2.575  -5.719  0.50 58.37 LIG-0.27  OA
ATOM     37 H    VAL P   3      35.871   5.403  -4.896  0.50 58.27 LIG 0.16  HD
BRANCH 35 38
ATOM     38  CA  LEU P   2      37.624   4.746  -5.870  0.50 58.44 LIG 0.18  C 
BRANCH 38 39
ATOM     39  N   LEU P   2      39.020   4.328  -5.874  0.50 58.68 LIG-0.35  N 
ATOM     40 H    LEU P   2      39.445   3.983  -6.538  0.50 58.68 LIG 0.16  HD
ATOM     41  C   ALA P   1      39.292   4.656  -4.631  0.50 58.87 LIG 0.25  C 
ATOM     42 O    ALA P   1      38.361   5.094  -3.962  0.50 59.28 LIG-0.27  OA
BRANCH 41 43
ATOM     43  CA  ALA P   1      40.644   4.551  -3.944  0.50 58.66 LIG 0.27  C 
ATOM     44  CB  ALA P   1      41.041   3.120  -3.636  0.50 57.92 LIG 0.05  C 
BRANCH 43 45
ATOM     45  N   ALA P   1      40.608   5.335  -2.682  0.50 58.63 LIG-0.07  N 
ATOM     46 H1   ALA P   1      40.787   4.799  -1.994  0.50 58.63 LIG 0.28  HD
ATOM     47 H2   ALA P   1      41.217   5.984  -2.717  0.50 58.63 LIG 0.28  HD
ATOM     48 H3   ALA P   1      39.800   5.693  -2.577  0.50 58.63 LIG 0.28  HD
ENDBRANCH 43 45
ENDBRANCH 41 43
ENDBRANCH 38 39
BRANCH 38 49
ATOM     49  CB  LEU P   2      37.376   5.689  -7.056  0.50 58.10 LIG 0.04  C 
BRANCH 49 50
ATOM     50  CG  LEU P   2      38.532   5.826  -8.054  0.50 57.94 LIG-0.02  C 
ATOM     51  CD2 LEU P   2      39.064   7.238  -8.064  0.50 57.90 LIG 0.01  C 
ATOM     52  CD1 LEU P   2      38.082   5.428  -9.446  0.50 57.66 LIG 0.01  C 
ENDBRANCH 49 50
ENDBRANCH 38 49
ENDBRANCH 35 38
ENDBRANCH 30 34
ENDBRANCH 1 30
TORSDOF 21
ENDMDL
MODEL 6
USER: ADFR SOLUTION from run 95
USER: SCORE 18.452453 LL:  -3.558 LR: -16.878 RR:   0.000 FEB: -10.614
USER: RMSD 3.594583
USER: SEED 94
USER: STATUS no improvement in best 1 clusters for 5 generations
USER: GENES 23
USER: genes 0 Translation |==|  0.48491 0.52306 0.53709
USER: genes 1 Rotation |==|  0.82348 0.44742 0.44054 0.87291
USER: genes 2 Torsion [C]-N--CA-[CB] |==|  0.24204
USER: genes 3 Torsion [N]-CA--CB-[CG] |==|  0.22107
USER: genes 4 Torsion [CA]-CB--CG-[CD2] |==|  0.83086
USER: genes 5 Torsion [CE2]-CZ--OH-[HH] |==|  0.24435
USER: genes 6 Torsion [N]-CA--C-[N] |==|  0.50431
USER: genes 7 Torsion [C]-N--CA-[CB] |==|  0.86405
USER: genes 8 Torsion [N]-CA--CB-[CG] |==|  0.61210
USER: genes 9 Torsion [CA]-CB--CG-[CD] |==|  0.25907
USER: genes 10 Torsion [CB]-CG--CD-[CE] |==|  0.75714
USER: genes 11 Torsion [CG]-CD--CE-[NZ] |==|  0.76223
USER: genes 12 Torsion [CD]-CE--NZ-[HZ1] |==|  0.06558
USER: genes 13 Torsion [N]-CA--C-[O] |==|  0.87222
USER: genes 14 Torsion [N]-C--CA-[N] |==|  0.76600
USER: genes 15 Torsion [C]-CA--CB-[CG1] |==|  0.44902
USER: genes 16 Torsion [C]-CA--N-[C] |==|  0.60558
USER: genes 17 Torsion [N]-C--CA-[N] |==|  0.37505
USER: genes 18 Torsion [C]-CA--N-[C] |==|  0.64087
USER: genes 19 Torsion [N]-C--CA-[N] |==|  0.30867
USER: genes 20 Torsion [C]-CA--N-[H1] |==|  0.01655
USER: genes 21 Torsion [C]-CA--CB-[CG] |==|  0.70386
USER: genes 22 Torsion [CA]-CB--CG-[CD2] |==|  0.51493
ROOT
ATOM      1  C   VAL P   3      34.107   5.652  -4.637  0.50 59.03 LIG 0.24  C 
ATOM      2 O    VAL P   3      33.890   6.273  -3.581  0.50 59.49 LIG-0.27  OA
ATOM      3  N   TYR P   4      33.027   5.367  -5.370  0.50 59.73 LIG-0.35  N 
ATOM      4 H    TYR P   4      32.859   4.833  -6.022  0.50 59.73 LIG 0.16  HD
ENDROOT
BRANCH 3 5
ATOM      5  CA  TYR P   4      32.098   6.219  -4.793  0.50 59.99 LIG 0.18  C 
BRANCH 5 6
ATOM      6  CB  TYR P   4      32.236   7.584  -5.539  0.50 59.48 LIG 0.07  C 
BRANCH 6 7
ATOM      7  CG  TYR P   4      31.560   7.730  -6.924  0.50 58.89 LIG-0.06  A 
ATOM      8  CD2 TYR P   4      31.924   6.907  -8.002  0.50 58.48 LIG 0.01  A 
ATOM      9  CE2 TYR P   4      31.202   6.922  -9.183  0.50 57.98 LIG 0.04  A 
ATOM     10  CZ  TYR P   4      30.148   7.790  -9.331  0.50 58.05 LIG 0.07  A 
ATOM     11  CE1 TYR P   4      29.823   8.674  -8.294  0.50 57.81 LIG 0.04  A 
ATOM     12  CD1 TYR P   4      30.539   8.626  -7.084  0.50 58.25 LIG 0.01  A 
BRANCH 10 13
ATOM     13 OH   TYR P   4      29.407   7.771 -10.492  0.50 58.00 LIG-0.36  OA
ATOM     14 HH   TYR P   4      28.785   7.210 -10.418  0.50 58.00 LIG 0.22  HD
ENDBRANCH 10 13
ENDBRANCH 6 7
ENDBRANCH 5 6
BRANCH 5 15
ATOM     15  C   TYR P   4      30.727   5.745  -4.568  0.50 60.88 LIG 0.24  C 
ATOM     16  N   LYS P   5      30.098   6.777  -4.051  0.50 60.84 LIG-0.35  N 
ATOM     17 H    LYS P   5      30.496   7.531  -3.939  0.50 60.84 LIG 0.16  HD
ATOM     18 O    TYR P   4      30.276   4.613  -4.730  0.50 61.26 LIG-0.27  OA
BRANCH 16 19
ATOM     19  CA  LYS P   5      28.719   6.822  -3.612  0.50 61.28 LIG 0.16  C 
BRANCH 19 20
ATOM     20  CB  LYS P   5      27.793   6.261  -4.654  0.50 60.15 LIG 0.03  C 
BRANCH 20 21
ATOM     21  CG  LYS P   5      26.539   7.108  -4.729  0.50 59.32 LIG 0.00  C 
BRANCH 21 22
ATOM     22  CD  LYS P   5      26.666   8.179  -5.792  0.50 58.12 LIG 0.03  C 
BRANCH 22 23
ATOM     23  CE  LYS P   5      27.307   9.437  -5.259  0.50 56.96 LIG 0.23  C 
BRANCH 23 24
ATOM     24  NZ  LYS P   5      26.310  10.344  -4.625  0.50 55.60 LIG-0.08  N 
ATOM     25 HZ2  LYS P   5      26.677  10.742  -3.919  0.50 55.60 LIG 0.27  HD
ATOM     26 HZ1  LYS P   5      25.603   9.871  -4.363  0.50 55.60 LIG 0.27  HD
ATOM     27 HZ3  LYS P   5      26.053  10.960  -5.212  0.50 55.60 LIG 0.27  HD
ENDBRANCH 23 24
ENDBRANCH 22 23
ENDBRANCH 21 22
ENDBRANCH 20 21
ENDBRANCH 19 20
BRANCH 19 28
ATOM     28  C   LYS P   5      28.576   6.068  -2.301  0.50 61.70 LIG 0.22  C 
ATOM     29 O    LYS P   5      29.095   4.960  -2.163  0.50 62.43 LIG-0.29  OA
ENDBRANCH 19 28
ENDBRANCH 16 19
ENDBRANCH 5 15
ENDBRANCH 3 5
BRANCH 1 30
ATOM     30  CA  VAL P   3      35.577   5.333  -4.875  0.50 58.35 LIG 0.18  C 
BRANCH 30 31
ATOM     31  CB  VAL P   3      35.773   5.543  -6.387  0.50 57.85 LIG 0.01  C 
ATOM     32  CG1 VAL P   3      37.235   5.710  -6.749  0.50 57.49 LIG 0.01  C 
ATOM     33  CG2 VAL P   3      35.170   4.389  -7.171  0.50 57.23 LIG 0.01  C 
ENDBRANCH 30 31
BRANCH 30 34
ATOM     34  N   VAL P   3      36.468   4.217  -4.639  0.50 58.27 LIG-0.35  N 
ATOM     35  C   LEU P   2      37.724   3.889  -4.271  0.50 58.43 LIG 0.24  C 
ATOM     36 O    LEU P   2      38.712   4.599  -4.177  0.50 58.37 LIG-0.27  OA
ATOM     37 H    VAL P   3      35.982   3.527  -4.803  0.50 58.27 LIG 0.16  HD
BRANCH 35 38
ATOM     38  CA  LEU P   2      37.605   2.385  -4.082  0.50 58.44 LIG 0.18  C 
BRANCH 38 39
ATOM     39  N   LEU P   2      38.594   1.448  -4.598  0.50 58.68 LIG-0.35  N 
ATOM     40 H    LEU P   2      39.445   1.492  -4.481  0.50 58.68 LIG 0.16  HD
ATOM     41  C   ALA P   1      37.753   0.645  -5.212  0.50 58.87 LIG 0.25  C 
ATOM     42 O    ALA P   1      36.569   0.967  -5.188  0.50 59.28 LIG-0.27  OA
BRANCH 41 43
ATOM     43  CA  ALA P   1      38.103  -0.641  -5.943  0.50 58.66 LIG 0.27  C 
ATOM     44  CB  ALA P   1      37.568  -0.680  -7.360  0.50 57.92 LIG 0.05  C 
BRANCH 43 45
ATOM     45  N   ALA P   1      37.560  -1.795  -5.179  0.50 58.63 LIG-0.07  N 
ATOM     46 H1   ALA P   1      37.069  -1.496  -4.499  0.50 58.63 LIG 0.28  HD
ATOM     47 H2   ALA P   1      37.052  -2.294  -5.714  0.50 58.63 LIG 0.28  HD
ATOM     48 H3   ALA P   1      38.232  -2.287  -4.865  0.50 58.63 LIG 0.28  HD
ENDBRANCH 43 45
ENDBRANCH 41 43
ENDBRANCH 38 39
BRANCH 38 49
ATOM     49  CB  LEU P   2      37.185   1.953  -2.671  0.50 58.10 LIG 0.04  C 
BRANCH 49 50
ATOM     50  CG  LEU P   2      38.289   1.331  -1.808  0.50 57.94 LIG-0.02  C 
ATOM     51  CD2 LEU P   2      37.725   0.830  -0.500  0.50 57.90 LIG 0.01  C 
ATOM     52  CD1 LEU P   2      39.392   2.338  -1.549  0.50 57.66 LIG 0.01  C 
ENDBRANCH 49 50
ENDBRANCH 38 49
ENDBRANCH 35 38
ENDBRANCH 30 34
ENDBRANCH 1 30
TORSDOF 21
ENDMDL
MODEL 7
USER: ADFR SOLUTION from run 32
USER: SCORE 18.890994 LL:  -3.750 LR: -16.761 RR:   0.000 FEB: -10.497
USER: RMSD 10.267608
USER: SEED 31
USER: STATUS no improvement in best 6 clusters for 5 generations
USER: GENES 23
USER: genes 0 Translation |==|  0.43084 0.50944 0.45496
USER: genes 1 Rotation |==|  0.53565 0.95521 0.32820 0.60952
USER: genes 2 Torsion [C]-N--CA-[CB] |==|  0.24949
USER: genes 3 Torsion [N]-CA--CB-[CG] |==|  0.96666
USER: genes 4 Torsion [CA]-CB--CG-[CD2] |==|  0.18734
USER: genes 5 Torsion [CE2]-CZ--OH-[HH] |==|  0.83384
USER: genes 6 Torsion [N]-CA--C-[N] |==|  0.59426
USER: genes 7 Torsion [C]-N--CA-[CB] |==|  0.83424
USER: genes 8 Torsion [N]-CA--CB-[CG] |==|  0.89846
USER: genes 9 Torsion [CA]-CB--CG-[CD] |==|  0.38140
USER: genes 10 Torsion [CB]-CG--CD-[CE] |==|  0.28850
USER: genes 11 Torsion [CG]-CD--CE-[NZ] |==|  0.50546
USER: genes 12 Torsion [CD]-CE--NZ-[HZ1] |==|  0.90437
USER: genes 13 Torsion [N]-CA--C-[O] |==|  0.65344
USER: genes 14 Torsion [N]-C--CA-[N] |==|  0.32254
USER: genes 15 Torsion [C]-CA--CB-[CG1] |==|  0.36658
USER: genes 16 Torsion [C]-CA--N-[C] |==|  0.69965
USER: genes 17 Torsion [N]-C--CA-[N] |==|  0.39048
USER: genes 18 Torsion [C]-CA--N-[C] |==|  0.66283
USER: genes 19 Torsion [N]-C--CA-[N] |==|  0.00485
USER: genes 20 Torsion [C]-CA--N-[H1] |==|  0.42716
USER: genes 21 Torsion [C]-CA--CB-[CG] |==|  0.72713
USER: genes 22 Torsion [CA]-CB--CG-[CD2] |==|  0.10897
ROOT
ATOM      1  C   VAL P   3      32.485   5.243  -7.101  0.50 59.03 LIG 0.24  C 
ATOM      2 O    VAL P   3      33.026   6.338  -7.344  0.50 59.49 LIG-0.27  OA
ATOM      3  N   TYR P   4      33.273   4.325  -6.534  0.50 59.73 LIG-0.35  N 
ATOM      4 H    TYR P   4      33.226   3.475  -6.415  0.50 59.73 LIG 0.16  HD
ENDROOT
BRANCH 3 5
ATOM      5  CA  TYR P   4      34.329   5.120  -6.117  0.50 59.99 LIG 0.18  C 
BRANCH 5 6
ATOM      6  CB  TYR P   4      33.973   5.596  -4.674  0.50 59.48 LIG 0.07  C 
BRANCH 6 7
ATOM      7  CG  TYR P   4      32.528   5.369  -4.166  0.50 58.89 LIG-0.06  A 
ATOM      8  CD2 TYR P   4      32.035   4.075  -3.929  0.50 58.48 LIG 0.01  A 
ATOM      9  CE2 TYR P   4      30.810   3.883  -3.314  0.50 57.98 LIG 0.04  A 
ATOM     10  CZ  TYR P   4      30.034   4.965  -2.979  0.50 58.05 LIG 0.07  A 
ATOM     11  CE1 TYR P   4      30.476   6.259  -3.281  0.50 57.81 LIG 0.04  A 
ATOM     12  CD1 TYR P   4      31.739   6.447  -3.873  0.50 58.25 LIG 0.01  A 
BRANCH 10 13
ATOM     13 OH   TYR P   4      28.836   4.769  -2.329  0.50 58.00 LIG-0.36  OA
ATOM     14 HH   TYR P   4      28.333   4.293  -2.805  0.50 58.00 LIG 0.22  HD
ENDBRANCH 10 13
ENDBRANCH 6 7
ENDBRANCH 5 6
BRANCH 5 15
ATOM     15  C   TYR P   4      35.706   4.653  -6.319  0.50 60.88 LIG 0.24  C 
ATOM     16  N   LYS P   5      36.370   5.115  -5.283  0.50 60.84 LIG-0.35  N 
ATOM     17 H    LYS P   5      35.975   5.561  -4.663  0.50 60.84 LIG 0.16  HD
ATOM     18 O    TYR P   4      36.172   4.048  -7.283  0.50 61.26 LIG-0.27  OA
BRANCH 16 19
ATOM     19  CA  LYS P   5      37.787   4.964  -5.022  0.50 61.28 LIG 0.16  C 
BRANCH 19 20
ATOM     20  CB  LYS P   5      38.175   3.515  -4.925  0.50 60.15 LIG 0.03  C 
BRANCH 20 21
ATOM     21  CG  LYS P   5      37.065   2.736  -4.249  0.50 59.32 LIG 0.00  C 
BRANCH 21 22
ATOM     22  CD  LYS P   5      36.817   1.418  -4.953  0.50 58.12 LIG 0.03  C 
BRANCH 22 23
ATOM     23  CE  LYS P   5      37.394   0.248  -4.194  0.50 56.96 LIG 0.23  C 
BRANCH 23 24
ATOM     24  NZ  LYS P   5      37.188  -1.039  -4.914  0.50 55.60 LIG-0.08  N 
ATOM     25 HZ2  LYS P   5      37.846  -1.160  -5.500  0.50 55.60 LIG 0.27  HD
ATOM     26 HZ1  LYS P   5      36.409  -1.017  -5.344  0.50 55.60 LIG 0.27  HD
ATOM     27 HZ3  LYS P   5      37.185  -1.709  -4.329  0.50 55.60 LIG 0.27  HD
ENDBRANCH 23 24
ENDBRANCH 22 23
ENDBRANCH 21 22
ENDBRANCH 20 21
ENDBRANCH 19 20
BRANCH 19 28
ATOM     28  C   LYS P   5      38.584   5.664  -6.109  0.50 61.70 LIG 0.22  C 
ATOM     29 O    LYS P   5      39.434   5.046  -6.750  0.50 62.43 LIG-0.29  OA
ENDBRANCH 19 28
ENDBRANCH 16 19
ENDBRANCH 5 15
ENDBRANCH 3 5
BRANCH 1 30
ATOM     30  CA  VAL P   3      31.021   5.174  -7.514  0.50 58.35 LIG 0.18  C 
BRANCH 30 31
ATOM     31  CB  VAL P   3      31.040   5.443  -9.030  0.50 57.85 LIG 0.01  C 
ATOM     32  CG1 VAL P   3      30.210   4.431  -9.793  0.50 57.49 LIG 0.01  C 
ATOM     33  CG2 VAL P   3      30.552   6.851  -9.331  0.50 57.23 LIG 0.01  C 
ENDBRANCH 30 31
BRANCH 30 34
ATOM     34  N   VAL P   3      29.785   5.827  -7.139  0.50 58.27 LIG-0.35  N 
ATOM     35  C   LEU P   2      28.612   5.646  -6.499  0.50 58.43 LIG 0.24  C 
ATOM     36 O    LEU P   2      28.088   4.609  -6.123  0.50 58.37 LIG-0.27  OA
ATOM     37 H    VAL P   3      29.866   6.622  -7.458  0.50 58.27 LIG 0.16  HD
BRANCH 35 38
ATOM     38  CA  LEU P   2      28.073   7.066  -6.438  0.50 58.44 LIG 0.18  C 
BRANCH 38 39
ATOM     39  N   LEU P   2      26.665   7.382  -6.640  0.50 58.68 LIG-0.35  N 
ATOM     40 H    LEU P   2      26.006   7.079  -6.177  0.50 58.68 LIG 0.16  HD
ATOM     41  C   ALA P   1      26.824   8.193  -7.662  0.50 58.87 LIG 0.25  C 
ATOM     42 O    ALA P   1      27.970   8.334  -8.077  0.50 59.28 LIG-0.27  OA
BRANCH 41 43
ATOM     43  CA  ALA P   1      25.732   8.973  -8.374  0.50 58.66 LIG 0.27  C 
ATOM     44  CB  ALA P   1      25.992  10.466  -8.398  0.50 57.92 LIG 0.05  C 
BRANCH 43 45
ATOM     45  N   ALA P   1      24.432   8.710  -7.702  0.50 58.63 LIG-0.07  N 
ATOM     46 H1   ALA P   1      23.885   9.400  -7.832  0.50 58.63 LIG 0.28  HD
ATOM     47 H2   ALA P   1      24.065   7.974  -8.042  0.50 58.63 LIG 0.28  HD
ATOM     48 H3   ALA P   1      24.566   8.598  -6.829  0.50 58.63 LIG 0.28  HD
ENDBRANCH 43 45
ENDBRANCH 41 43
ENDBRANCH 38 39
BRANCH 38 49
ATOM     49  CB  LEU P   2      28.617   7.904  -5.273  0.50 58.10 LIG 0.04  C 
BRANCH 49 50
ATOM     50  CG  LEU P   2      27.713   7.997  -4.038  0.50 57.94 LIG-0.02  C 
ATOM     51  CD2 LEU P   2      27.046   6.671  -3.763  0.50 57.90 LIG 0.01  C 
ATOM     52  CD1 LEU P   2      26.668   9.079  -4.225  0.50 57.66 LIG 0.01  C 
ENDBRANCH 49 50
ENDBRANCH 38 49
ENDBRANCH 35 38
ENDBRANCH 30 34
ENDBRANCH 1 30
TORSDOF 21
ENDMDL
MODEL 8
USER: ADFR SOLUTION from run 31
USER: SCORE 18.527417 LL:  -3.189 LR: -16.734 RR:   0.000 FEB: -10.470
USER: RMSD 4.712225
USER: SEED 30
USER: STATUS 1 or 2 clusters left
USER: GENES 23
USER: genes 0 Translation |==|  0.47377 0.49764 0.49521
USER: genes 1 Rotation |==|  0.00095 0.53034 0.50511 0.50148
USER: genes 2 Torsion [C]-N--CA-[CB] |==|  0.23889
USER: genes 3 Torsion [N]-CA--CB-[CG] |==|  0.37826
USER: genes 4 Torsion [CA]-CB--CG-[CD2] |==|  0.31232
USER: genes 5 Torsion [CE2]-CZ--OH-[HH] |==|  0.80659
USER: genes 6 Torsion [N]-CA--C-[N] |==|  0.90216
USER: genes 7 Torsion [C]-N--CA-[CB] |==|  0.35446
USER: genes 8 Torsion [N]-CA--CB-[CG] |==|  0.56442
USER: genes 9 Torsion [CA]-CB--CG-[CD] |==|  0.23701
USER: genes 10 Torsion [CB]-CG--CD-[CE] |==|  0.49186
USER: genes 11 Torsion [CG]-CD--CE-[NZ] |==|  0.49607
USER: genes 12 Torsion [CD]-CE--NZ-[HZ1] |==|  0.59235
USER: genes 13 Torsion [N]-CA--C-[O] |==|  0.71145
USER: genes 14 Torsion [N]-C--CA-[N] |==|  0.48323
USER: genes 15 Torsion [C]-CA--CB-[CG1] |==|  0.61289
USER: genes 16 Torsion [C]-CA--N-[C] |==|  0.60430
USER: genes 17 Torsion [N]-C--CA-[N] |==|  0.30159
USER: genes 18 Torsion [C]-CA--N-[C] |==|  0.62187
USER: genes 19 Torsion [N]-C--CA-[N] |==|  0.39610
USER: genes 20 Torsion [C]-CA--N-[H1] |==|  0.35665
USER: genes 21 Torsion [C]-CA--CB-[CG] |==|  0.70575
USER: genes 22 Torsion [CA]-CB--CG-[CD2] |==|  0.51524
ROOT
ATOM      1  C   VAL P   3      33.773   4.889  -5.894  0.50 59.03 LIG 0.24  C 
ATOM      2 O    VAL P   3      33.250   3.822  -5.523  0.50 59.49 LIG-0.27  OA
ATOM      3  N   TYR P   4      32.929   5.808  -6.370  0.50 59.73 LIG-0.35  N 
ATOM      4 H    TYR P   4      33.014   6.531  -6.829  0.50 59.73 LIG 0.16  HD
ENDROOT
BRANCH 3 5
ATOM      5  CA  TYR P   4      31.721   5.302  -5.919  0.50 59.99 LIG 0.18  C 
BRANCH 5 6
ATOM      6  CB  TYR P   4      31.533   5.849  -4.468  0.50 59.48 LIG 0.07  C 
BRANCH 6 7
ATOM      7  CG  TYR P   4      30.138   6.388  -4.067  0.50 58.89 LIG-0.06  A 
ATOM      8  CD2 TYR P   4      29.348   5.723  -3.114  0.50 58.48 LIG 0.01  A 
ATOM      9  CE2 TYR P   4      28.184   6.298  -2.633  0.50 57.98 LIG 0.04  A 
ATOM     10  CZ  TYR P   4      27.760   7.506  -3.128  0.50 58.05 LIG 0.07  A 
ATOM     11  CE1 TYR P   4      28.495   8.143  -4.136  0.50 57.81 LIG 0.04  A 
ATOM     12  CD1 TYR P   4      29.697   7.570  -4.593  0.50 58.25 LIG 0.01  A 
BRANCH 10 13
ATOM     13 OH   TYR P   4      26.624   8.092  -2.614  0.50 58.00 LIG-0.36  OA
ATOM     14 HH   TYR P   4      25.950   7.646  -2.844  0.50 58.00 LIG 0.22  HD
ENDBRANCH 10 13
ENDBRANCH 6 7
ENDBRANCH 5 6
BRANCH 5 15
ATOM     15  C   TYR P   4      30.540   5.369  -6.788  0.50 60.88 LIG 0.24  C 
ATOM     16  N   LYS P   5      30.670   6.503  -7.441  0.50 60.84 LIG-0.35  N 
ATOM     17 H    LYS P   5      31.357   7.007  -7.326  0.50 60.84 LIG 0.16  HD
ATOM     18 O    TYR P   4      29.585   4.596  -6.838  0.50 61.26 LIG-0.27  OA
BRANCH 16 19
ATOM     19  CA  LYS P   5      29.744   7.062  -8.404  0.50 61.28 LIG 0.16  C 
BRANCH 19 20
ATOM     20  CB  LYS P   5      29.379   8.478  -8.055  0.50 60.15 LIG 0.03  C 
BRANCH 20 21
ATOM     21  CG  LYS P   5      28.048   8.830  -8.686  0.50 59.32 LIG 0.00  C 
BRANCH 21 22
ATOM     22  CD  LYS P   5      26.895   8.395  -7.804  0.50 58.12 LIG 0.03  C 
BRANCH 22 23
ATOM     23  CE  LYS P   5      25.558   8.797  -8.375  0.50 56.96 LIG 0.23  C 
BRANCH 23 24
ATOM     24  NZ  LYS P   5      24.428   8.338  -7.521  0.50 55.60 LIG-0.08  N 
ATOM     25 HZ2  LYS P   5      24.674   7.614  -7.065  0.50 55.60 LIG 0.27  HD
ATOM     26 HZ1  LYS P   5      23.729   8.140  -8.035  0.50 55.60 LIG 0.27  HD
ATOM     27 HZ3  LYS P   5      24.204   8.983  -6.951  0.50 55.60 LIG 0.27  HD
ENDBRANCH 23 24
ENDBRANCH 22 23
ENDBRANCH 21 22
ENDBRANCH 20 21
ENDBRANCH 19 20
BRANCH 19 28
ATOM     28  C   LYS P   5      30.346   6.987  -9.796  0.50 61.70 LIG 0.22  C 
ATOM     29 O    LYS P   5      30.807   7.997 -10.328  0.50 62.43 LIG-0.29  OA
ENDBRANCH 19 28
ENDBRANCH 16 19
ENDBRANCH 5 15
ENDBRANCH 3 5
BRANCH 1 30
ATOM     30  CA  VAL P   3      35.287   4.922  -5.733  0.50 58.35 LIG 0.18  C 
BRANCH 30 31
ATOM     31  CB  VAL P   3      35.820   5.071  -7.170  0.50 57.85 LIG 0.01  C 
ATOM     32  CG1 VAL P   3      37.044   4.211  -7.409  0.50 57.49 LIG 0.01  C 
ATOM     33  CG2 VAL P   3      34.737   4.731  -8.181  0.50 57.23 LIG 0.01  C 
ENDBRANCH 30 31
BRANCH 30 34
ATOM     34  N   VAL P   3      36.307   4.074  -5.152  0.50 58.27 LIG-0.35  N 
ATOM     35  C   LEU P   2      37.466   4.087  -4.464  0.50 58.43 LIG 0.24  C 
ATOM     36 O    LEU P   2      38.221   5.019  -4.237  0.50 58.37 LIG-0.27  OA
ATOM     37 H    VAL P   3      36.039   3.277  -5.333  0.50 58.27 LIG 0.16  HD
BRANCH 35 38
ATOM     38  CA  LEU P   2      37.630   2.617  -4.113  0.50 58.44 LIG 0.18  C 
BRANCH 38 39
ATOM     39  N   LEU P   2      38.637   1.767  -4.734  0.50 58.68 LIG-0.35  N 
ATOM     40 H    LEU P   2      39.459   1.976  -4.879  0.50 58.68 LIG 0.16  HD
ATOM     41  C   ALA P   1      37.866   0.722  -4.939  0.50 58.87 LIG 0.25  C 
ATOM     42 O    ALA P   1      36.686   0.841  -4.624  0.50 59.28 LIG-0.27  OA
BRANCH 41 43
ATOM     43  CA  ALA P   1      38.293  -0.615  -5.521  0.50 58.66 LIG 0.27  C 
ATOM     44  CB  ALA P   1      38.041  -0.718  -7.012  0.50 57.92 LIG 0.05  C 
BRANCH 43 45
ATOM     45  N   ALA P   1      37.560  -1.703  -4.822  0.50 58.63 LIG-0.07  N 
ATOM     46 H1   ALA P   1      37.174  -2.235  -5.422  0.50 58.63 LIG 0.28  HD
ATOM     47 H2   ALA P   1      38.131  -2.178  -4.330  0.50 58.63 LIG 0.28  HD
ATOM     48 H3   ALA P   1      36.937  -1.351  -4.294  0.50 58.63 LIG 0.28  HD
ENDBRANCH 43 45
ENDBRANCH 41 43
ENDBRANCH 38 39
BRANCH 38 49
ATOM     49  CB  LEU P   2      37.568   2.312  -2.610  0.50 58.10 LIG 0.04  C 
BRANCH 49 50
ATOM     50  CG  LEU P   2      38.907   1.977  -1.941  0.50 57.94 LIG-0.02  C 
ATOM     51  CD2 LEU P   2      38.698   1.568  -0.503  0.50 57.90 LIG 0.01  C 
ATOM     52  CD1 LEU P   2      39.849   3.163  -2.015  0.50 57.66 LIG 0.01  C 
ENDBRANCH 49 50
ENDBRANCH 38 49
ENDBRANCH 35 38
ENDBRANCH 30 34
ENDBRANCH 1 30
TORSDOF 21
ENDMDL
MODEL 9
USER: ADFR SOLUTION from run 146
USER: SCORE 17.592937 LL:  -3.189 LR: -16.600 RR:   0.000 FEB: -10.336
USER: RMSD 10.353361
USER: SEED 145
USER: STATUS no improvement in best 12 clusters for 5 generations
USER: GENES 23
USER: genes 0 Translation |==|  0.43363 0.51147 0.52944
USER: genes 1 Rotation |==|  0.56696 0.37683 0.96746 0.60874
USER: genes 2 Torsion [C]-N--CA-[CB] |==|  0.22222
USER: genes 3 Torsion [N]-CA--CB-[CG] |==|  0.46675
USER: genes 4 Torsion [CA]-CB--CG-[CD2] |==|  0.76022
USER: genes 5 Torsion [CE2]-CZ--OH-[HH] |==|  0.87749
USER: genes 6 Torsion [N]-CA--C-[N] |==|  0.83590
USER: genes 7 Torsion [C]-N--CA-[CB] |==|  0.97533
USER: genes 8 Torsion [N]-CA--CB-[CG] |==|  0.76965
USER: genes 9 Torsion [CA]-CB--CG-[CD] |==|  0.42138
USER: genes 10 Torsion [CB]-CG--CD-[CE] |==|  0.03379
USER: genes 11 Torsion [CG]-CD--CE-[NZ] |==|  0.51815
USER: genes 12 Torsion [CD]-CE--NZ-[HZ1] |==|  0.27020
USER: genes 13 Torsion [N]-CA--C-[O] |==|  0.67734
USER: genes 14 Torsion [N]-C--CA-[N] |==|  0.43211
USER: genes 15 Torsion [C]-CA--CB-[CG1] |==|  0.52712
USER: genes 16 Torsion [C]-CA--N-[C] |==|  0.15045
USER: genes 17 Torsion [N]-C--CA-[N] |==|  0.50171
USER: genes 18 Torsion [C]-CA--N-[C] |==|  0.68777
USER: genes 19 Torsion [N]-C--CA-[N] |==|  0.05650
USER: genes 20 Torsion [C]-CA--N-[H1] |==|  0.55750
USER: genes 21 Torsion [C]-CA--CB-[CG] |==|  0.69065
USER: genes 22 Torsion [CA]-CB--CG-[CD2] |==|  0.74329
ROOT
ATOM      1  C   VAL P   3      32.569   5.304  -4.867  0.50 59.03 LIG 0.24  C 
ATOM      2 O    VAL P   3      32.332   4.481  -5.770  0.50 59.49 LIG-0.27  OA
ATOM      3  N   TYR P   4      33.839   5.358  -4.456  0.50 59.73 LIG-0.35  N 
ATOM      4 H    TYR P   4      34.242   5.689  -3.773  0.50 59.73 LIG 0.16  HD
ENDROOT
BRANCH 3 5
ATOM      5  CA  TYR P   4      34.469   4.684  -5.490  0.50 59.99 LIG 0.18  C 
BRANCH 5 6
ATOM      6  CB  TYR P   4      34.617   5.712  -6.656  0.50 59.48 LIG 0.07  C 
BRANCH 6 7
ATOM      7  CG  TYR P   4      35.534   5.338  -7.846  0.50 58.89 LIG-0.06  A 
ATOM      8  CD2 TYR P   4      36.914   5.596  -7.810  0.50 58.48 LIG 0.01  A 
ATOM      9  CE2 TYR P   4      37.754   5.106  -8.796  0.50 57.98 LIG 0.04  A 
ATOM     10  CZ  TYR P   4      37.232   4.406  -9.855  0.50 58.05 LIG 0.07  A 
ATOM     11  CE1 TYR P   4      35.848   4.209  -9.947  0.50 57.81 LIG 0.04  A 
ATOM     12  CD1 TYR P   4      35.006   4.678  -8.921  0.50 58.25 LIG 0.01  A 
BRANCH 10 13
ATOM     13 OH   TYR P   4      38.077   3.885 -10.810  0.50 58.00 LIG-0.36  OA
ATOM     14 HH   TYR P   4      38.657   4.458 -11.014  0.50 58.00 LIG 0.22  HD
ENDBRANCH 10 13
ENDBRANCH 6 7
ENDBRANCH 5 6
BRANCH 5 15
ATOM     15  C   TYR P   4      35.652   3.865  -5.201  0.50 60.88 LIG 0.24  C 
ATOM     16  N   LYS P   5      36.519   4.703  -4.677  0.50 60.84 LIG-0.35  N 
ATOM     17 H    LYS P   5      36.319   5.529  -4.550  0.50 60.84 LIG 0.16  HD
ATOM     18 O    TYR P   4      35.844   2.681  -5.471  0.50 61.26 LIG-0.27  OA
BRANCH 16 19
ATOM     19  CA  LYS P   5      37.870   4.401  -4.251  0.50 61.28 LIG 0.16  C 
BRANCH 19 20
ATOM     20  CB  LYS P   5      38.135   2.922  -4.276  0.50 60.15 LIG 0.03  C 
BRANCH 20 21
ATOM     21  CG  LYS P   5      37.615   2.291  -3.001  0.50 59.32 LIG 0.00  C 
BRANCH 21 22
ATOM     22  CD  LYS P   5      37.219   0.847  -3.229  0.50 58.12 LIG 0.03  C 
BRANCH 22 23
ATOM     23  CE  LYS P   5      37.708   0.324  -4.558  0.50 56.96 LIG 0.23  C 
BRANCH 23 24
ATOM     24  NZ  LYS P   5      37.185  -1.040  -4.845  0.50 55.60 LIG-0.08  N 
ATOM     25 HZ2  LYS P   5      37.814  -1.518  -5.256  0.50 55.60 LIG 0.27  HD
ATOM     26 HZ1  LYS P   5      36.469  -0.979  -5.370  0.50 55.60 LIG 0.27  HD
ATOM     27 HZ3  LYS P   5      36.960  -1.439  -4.083  0.50 55.60 LIG 0.27  HD
ENDBRANCH 23 24
ENDBRANCH 22 23
ENDBRANCH 21 22
ENDBRANCH 20 21
ENDBRANCH 19 20
BRANCH 19 28
ATOM     28  C   LYS P   5      38.861   5.142  -5.132  0.50 61.70 LIG 0.22  C 
ATOM     29 O    LYS P   5      39.644   4.517  -5.847  0.50 62.43 LIG-0.29  OA
ENDBRANCH 19 28
ENDBRANCH 16 19
ENDBRANCH 5 15
ENDBRANCH 3 5
BRANCH 1 30
ATOM     30  CA  VAL P   3      31.344   6.083  -4.406  0.50 58.35 LIG 0.18  C 
BRANCH 30 31
ATOM     31  CB  VAL P   3      30.892   5.358  -3.125  0.50 57.85 LIG 0.01  C 
ATOM     32  CG1 VAL P   3      29.540   5.848  -2.647  0.50 57.49 LIG 0.01  C 
ATOM     33  CG2 VAL P   3      30.856   3.854  -3.344  0.50 57.23 LIG 0.01  C 
ENDBRANCH 30 31
BRANCH 30 34
ATOM     34  N   VAL P   3      30.066   6.468  -4.964  0.50 58.27 LIG-0.35  N 
ATOM     35  C   LEU P   2      28.952   5.993  -5.558  0.50 58.43 LIG 0.24  C 
ATOM     36 O    LEU P   2      28.744   4.891  -6.041  0.50 58.37 LIG-0.27  OA
ATOM     37 H    VAL P   3      30.044   7.322  -4.860  0.50 58.27 LIG 0.16  HD
BRANCH 35 38
ATOM     38  CA  LEU P   2      28.049   7.216  -5.541  0.50 58.44 LIG 0.18  C 
BRANCH 38 39
ATOM     39  N   LEU P   2      26.694   7.199  -6.075  0.50 58.68 LIG-0.35  N 
ATOM     40 H    LEU P   2      26.026   6.765  -5.751  0.50 58.68 LIG 0.16  HD
ATOM     41  C   ALA P   1      26.909   8.003  -7.093  0.50 58.87 LIG 0.25  C 
ATOM     42 O    ALA P   1      28.063   8.391  -7.251  0.50 59.28 LIG-0.27  OA
BRANCH 41 43
ATOM     43  CA  ALA P   1      25.872   8.499  -8.087  0.50 58.66 LIG 0.27  C 
ATOM     44  CB  ALA P   1      26.093   9.941  -8.501  0.50 57.92 LIG 0.05  C 
BRANCH 43 45
ATOM     45  N   ALA P   1      24.520   8.360  -7.486  0.50 58.63 LIG-0.07  N 
ATOM     46 H1   ALA P   1      23.906   8.356  -8.131  0.50 58.63 LIG 0.28  HD
ATOM     47 H2   ALA P   1      24.474   7.597  -7.029  0.50 58.63 LIG 0.28  HD
ATOM     48 H3   ALA P   1      24.367   9.044  -6.936  0.50 58.63 LIG 0.28  HD
ENDBRANCH 43 45
ENDBRANCH 41 43
ENDBRANCH 38 39
BRANCH 38 49
ATOM     49  CB  LEU P   2      28.063   7.999  -4.222  0.50 58.10 LIG 0.04  C 
BRANCH 49 50
ATOM     50  CG  LEU P   2      26.770   7.946  -3.400  0.50 57.94 LIG-0.02  C 
ATOM     51  CD2 LEU P   2      25.869   9.106  -3.745  0.50 57.90 LIG 0.01  C 
ATOM     52  CD1 LEU P   2      27.083   7.952  -1.916  0.50 57.66 LIG 0.01  C 
ENDBRANCH 49 50
ENDBRANCH 38 49
ENDBRANCH 35 38
ENDBRANCH 30 34
ENDBRANCH 1 30
TORSDOF 21
ENDMDL
MODEL 10
USER: ADFR SOLUTION from run 101
USER: SCORE 18.676903 LL:  -4.180 LR: -16.573 RR:   0.000 FEB: -10.309
USER: RMSD 4.465439
USER: SEED 100
USER: STATUS no improvement in best 3 clusters for 5 generations
USER: GENES 23
USER: genes 0 Translation |==|  0.43235 0.49360 0.51453
USER: genes 1 Rotation |==|  0.01896 0.52355 0.44556 0.62280
USER: genes 2 Torsion [C]-N--CA-[CB] |==|  0.26358
USER: genes 3 Torsion [N]-CA--CB-[CG] |==|  0.29583
USER: genes 4 Torsion [CA]-CB--CG-[CD2] |==|  0.75891
USER: genes 5 Torsion [CE2]-CZ--OH-[HH] |==|  0.71295
USER: genes 6 Torsion [N]-CA--C-[N] |==|  0.96681
USER: genes 7 Torsion [C]-N--CA-[CB] |==|  0.30354
USER: genes 8 Torsion [N]-CA--CB-[CG] |==|  0.84545
USER: genes 9 Torsion [CA]-CB--CG-[CD] |==|  0.68242
USER: genes 10 Torsion [CB]-CG--CD-[CE] |==|  0.31009
USER: genes 11 Torsion [CG]-CD--CE-[NZ] |==|  0.40028
USER: genes 12 Torsion [CD]-CE--NZ-[HZ1] |==|  0.95491
USER: genes 13 Torsion [N]-CA--C-[O] |==|  0.44586
USER: genes 14 Torsion [N]-C--CA-[N] |==|  0.70963
USER: genes 15 Torsion [C]-CA--CB-[CG1] |==|  0.81731
USER: genes 16 Torsion [C]-CA--N-[C] |==|  0.16145
USER: genes 17 Torsion [N]-C--CA-[N] |==|  0.82049
USER: genes 18 Torsion [C]-CA--N-[C] |==|  0.68761
USER: genes 19 Torsion [N]-C--CA-[N] |==|  0.91314
USER: genes 20 Torsion [C]-CA--N-[H1] |==|  0.53335
USER: genes 21 Torsion [C]-CA--CB-[CG] |==|  0.61821
USER: genes 22 Torsion [CA]-CB--CG-[CD2] |==|  0.53970
ROOT
ATOM      1  C   VAL P   3      32.530   4.768  -5.314  0.50 59.03 LIG 0.24  C 
ATOM      2 O    VAL P   3      32.016   3.674  -5.615  0.50 59.49 LIG-0.27  OA
ATOM      3  N   TYR P   4      31.764   5.841  -5.527  0.50 59.73 LIG-0.35  N 
ATOM      4 H    TYR P   4      31.904   6.688  -5.571  0.50 59.73 LIG 0.16  HD
ENDROOT
BRANCH 3 5
ATOM      5  CA  TYR P   4      30.525   5.241  -5.684  0.50 59.99 LIG 0.18  C 
BRANCH 5 6
ATOM      6  CB  TYR P   4      29.838   5.284  -4.283  0.50 59.48 LIG 0.07  C 
BRANCH 6 7
ATOM      7  CG  TYR P   4      28.680   6.289  -4.069  0.50 58.89 LIG-0.06  A 
ATOM      8  CD2 TYR P   4      28.929   7.613  -3.672  0.50 58.48 LIG 0.01  A 
ATOM      9  CE2 TYR P   4      27.911   8.552  -3.650  0.50 57.98 LIG 0.04  A 
ATOM     10  CZ  TYR P   4      26.628   8.179  -3.965  0.50 58.05 LIG 0.07  A 
ATOM     11  CE1 TYR P   4      26.349   6.844  -4.286  0.50 57.81 LIG 0.04  A 
ATOM     12  CD1 TYR P   4      27.396   5.905  -4.342  0.50 58.25 LIG 0.01  A 
BRANCH 10 13
ATOM     13 OH   TYR P   4      25.628   9.126  -3.983  0.50 58.00 LIG-0.36  OA
ATOM     14 HH   TYR P   4      25.160   9.053  -3.289  0.50 58.00 LIG 0.22  HD
ENDBRANCH 10 13
ENDBRANCH 6 7
ENDBRANCH 5 6
BRANCH 5 15
ATOM     15  C   TYR P   4      29.681   5.617  -6.825  0.50 60.88 LIG 0.24  C 
ATOM     16  N   LYS P   5      30.252   6.691  -7.324  0.50 60.84 LIG-0.35  N 
ATOM     17 H    LYS P   5      30.980   7.004  -6.990  0.50 60.84 LIG 0.16  HD
ATOM     18 O    TYR P   4      28.622   5.111  -7.189  0.50 61.26 LIG-0.27  OA
BRANCH 16 19
ATOM     19  CA  LYS P   5      29.788   7.479  -8.446  0.50 61.28 LIG 0.16  C 
BRANCH 19 20
ATOM     20  CB  LYS P   5      29.270   8.818  -7.999  0.50 60.15 LIG 0.03  C 
BRANCH 20 21
ATOM     21  CG  LYS P   5      28.186   8.621  -6.960  0.50 59.32 LIG 0.00  C 
BRANCH 21 22
ATOM     22  CD  LYS P   5      26.843   9.096  -7.476  0.50 58.12 LIG 0.03  C 
BRANCH 22 23
ATOM     23  CE  LYS P   5      25.881   7.955  -7.697  0.50 56.96 LIG 0.23  C 
BRANCH 23 24
ATOM     24  NZ  LYS P   5      24.481   8.335  -7.363  0.50 55.60 LIG-0.08  N 
ATOM     25 HZ2  LYS P   5      24.023   8.475  -8.113  0.50 55.60 LIG 0.27  HD
ATOM     26 HZ1  LYS P   5      24.484   9.080  -6.875  0.50 55.60 LIG 0.27  HD
ATOM     27 HZ3  LYS P   5      24.097   7.680  -6.900  0.50 55.60 LIG 0.27  HD
ENDBRANCH 23 24
ENDBRANCH 22 23
ENDBRANCH 21 22
ENDBRANCH 20 21
ENDBRANCH 19 20
BRANCH 19 28
ATOM     28  C   LYS P   5      30.913   7.646  -9.454  0.50 61.70 LIG 0.22  C 
ATOM     29 O    LYS P   5      30.661   7.958 -10.618  0.50 62.43 LIG-0.29  OA
ENDBRANCH 19 28
ENDBRANCH 16 19
ENDBRANCH 5 15
ENDBRANCH 3 5
BRANCH 1 30
ATOM     30  CA  VAL P   3      33.947   4.654  -4.767  0.50 58.35 LIG 0.18  C 
BRANCH 30 31
ATOM     31  CB  VAL P   3      34.182   5.989  -4.037  0.50 57.85 LIG 0.01  C 
ATOM     32  CG1 VAL P   3      34.195   7.162  -4.996  0.50 57.49 LIG 0.01  C 
ATOM     33  CG2 VAL P   3      33.129   6.205  -2.962  0.50 57.23 LIG 0.01  C 
ENDBRANCH 30 31
BRANCH 30 34
ATOM     34  N   VAL P   3      35.268   4.401  -5.301  0.50 58.27 LIG-0.35  N 
ATOM     35  C   LEU P   2      36.186   4.846  -6.183  0.50 58.43 LIG 0.24  C 
ATOM     36 O    LEU P   2      36.062   5.659  -7.085  0.50 58.37 LIG-0.27  OA
ATOM     37 H    VAL P   3      35.534   3.704  -4.874  0.50 58.27 LIG 0.16  HD
BRANCH 35 38
ATOM     38  CA  LEU P   2      37.399   4.007  -5.812  0.50 58.44 LIG 0.18  C 
BRANCH 38 39
ATOM     39  N   LEU P   2      38.064   4.116  -4.520  0.50 58.68 LIG-0.35  N 
ATOM     40 H    LEU P   2      37.736   3.886  -3.759  0.50 58.68 LIG 0.16  HD
ATOM     41  C   ALA P   1      39.191   4.631  -4.959  0.50 58.87 LIG 0.25  C 
ATOM     42 O    ALA P   1      39.255   4.868  -6.162  0.50 59.28 LIG-0.27  OA
BRANCH 41 43
ATOM     43  CA  ALA P   1      40.420   4.956  -4.127  0.50 58.66 LIG 0.27  C 
ATOM     44  CB  ALA P   1      41.401   3.803  -4.045  0.50 57.92 LIG 0.05  C 
BRANCH 43 45
ATOM     45  N   ALA P   1      39.990   5.335  -2.755  0.50 58.63 LIG-0.07  N 
ATOM     46 H1   ALA P   1      40.677   5.691  -2.316  0.50 58.63 LIG 0.28  HD
ATOM     47 H2   ALA P   1      39.330   5.930  -2.804  0.50 58.63 LIG 0.28  HD
ATOM     48 H3   ALA P   1      39.704   4.611  -2.322  0.50 58.63 LIG 0.28  HD
ENDBRANCH 43 45
ENDBRANCH 41 43
ENDBRANCH 38 39
BRANCH 38 49
ATOM     49  CB  LEU P   2      37.293   2.527  -6.203  0.50 58.10 LIG 0.04  C 
BRANCH 49 50
ATOM     50  CG  LEU P   2      37.785   1.522  -5.155  0.50 57.94 LIG-0.02  C 
ATOM     51  CD2 LEU P   2      37.959   0.154  -5.766  0.50 57.90 LIG 0.01  C 
ATOM     52  CD1 LEU P   2      36.817   1.454  -3.990  0.50 57.66 LIG 0.01  C 
ENDBRANCH 49 50
ENDBRANCH 38 49
ENDBRANCH 35 38
ENDBRANCH 30 34
ENDBRANCH 1 30
TORSDOF 21
ENDMDL
MODEL 11
USER: ADFR SOLUTION from run 28
USER: SCORE 17.082071 LL:  -3.328 LR: -16.402 RR:   0.000 FEB: -10.137
USER: RMSD 10.468534
USER: SEED 27
USER: STATUS no improvement in best 8 clusters for 5 generations
USER: GENES 23
USER: genes 0 Translation |==|  0.44162 0.51297 0.53431
USER: genes 1 Rotation |==|  0.56948 0.40984 0.97799 0.59257
USER: genes 2 Torsion [C]-N--CA-[CB] |==|  0.22124
USER: genes 3 Torsion [N]-CA--CB-[CG] |==|  0.43614
USER: genes 4 Torsion [CA]-CB--CG-[CD2] |==|  0.80936
USER: genes 5 Torsion [CE2]-CZ--OH-[HH] |==|  0.44348
USER: genes 6 Torsion [N]-CA--C-[N] |==|  0.36653
USER: genes 7 Torsion [C]-N--CA-[CB] |==|  0.85299
USER: genes 8 Torsion [N]-CA--CB-[CG] |==|  0.30769
USER: genes 9 Torsion [CA]-CB--CG-[CD] |==|  0.67016
USER: genes 10 Torsion [CB]-CG--CD-[CE] |==|  0.47978
USER: genes 11 Torsion [CG]-CD--CE-[NZ] |==|  0.56824
USER: genes 12 Torsion [CD]-CE--NZ-[HZ1] |==|  0.14901
USER: genes 13 Torsion [N]-CA--C-[O] |==|  0.36436
USER: genes 14 Torsion [N]-C--CA-[N] |==|  0.40523
USER: genes 15 Torsion [C]-CA--CB-[CG1] |==|  0.51063
USER: genes 16 Torsion [C]-CA--N-[C] |==|  0.15556
USER: genes 17 Torsion [N]-C--CA-[N] |==|  0.51098
USER: genes 18 Torsion [C]-CA--N-[C] |==|  0.65863
USER: genes 19 Torsion [N]-C--CA-[N] |==|  0.08382
USER: genes 20 Torsion [C]-CA--N-[H1] |==|  0.90088
USER: genes 21 Torsion [C]-CA--CB-[CG] |==|  0.70955
USER: genes 22 Torsion [CA]-CB--CG-[CD2] |==|  0.75137
ROOT
ATOM      1  C   VAL P   3      32.809   5.349  -4.721  0.50 59.03 LIG 0.24  C 
ATOM      2 O    VAL P   3      32.638   4.403  -5.512  0.50 59.49 LIG-0.27  OA
ATOM      3  N   TYR P   4      34.073   5.566  -4.348  0.50 59.73 LIG-0.35  N 
ATOM      4 H    TYR P   4      34.452   6.013  -3.719  0.50 59.73 LIG 0.16  HD
ENDROOT
BRANCH 3 5
ATOM      5  CA  TYR P   4      34.750   4.827  -5.305  0.50 59.99 LIG 0.18  C 
BRANCH 5 6
ATOM      6  CB  TYR P   4      34.783   5.709  -6.593  0.50 59.48 LIG 0.07  C 
BRANCH 6 7
ATOM      7  CG  TYR P   4      35.892   5.432  -7.638  0.50 58.89 LIG-0.06  A 
ATOM      8  CD2 TYR P   4      37.241   5.710  -7.360  0.50 58.48 LIG 0.01  A 
ATOM      9  CE2 TYR P   4      38.243   5.303  -8.223  0.50 57.98 LIG 0.04  A 
ATOM     10  CZ  TYR P   4      37.920   4.667  -9.397  0.50 58.05 LIG 0.07  A 
ATOM     11  CE1 TYR P   4      36.576   4.453  -9.727  0.50 57.81 LIG 0.04  A 
ATOM     12  CD1 TYR P   4      35.565   4.838  -8.826  0.50 58.25 LIG 0.01  A 
BRANCH 10 13
ATOM     13 OH   TYR P   4      38.923   4.226 -10.231  0.50 58.00 LIG-0.36  OA
ATOM     14 HH   TYR P   4      38.621   3.634 -10.745  0.50 58.00 LIG 0.22  HD
ENDBRANCH 10 13
ENDBRANCH 6 7
ENDBRANCH 5 6
BRANCH 5 15
ATOM     15  C   TYR P   4      36.010   4.165  -4.947  0.50 60.88 LIG 0.24  C 
ATOM     16  N   LYS P   5      35.882   2.937  -5.400  0.50 60.84 LIG-0.35  N 
ATOM     17 H    LYS P   5      35.178   2.690  -5.826  0.50 60.84 LIG 0.16  HD
ATOM     18 O    TYR P   4      36.945   4.612  -4.287  0.50 61.26 LIG-0.27  OA
BRANCH 16 19
ATOM     19  CA  LYS P   5      36.841   1.859  -5.269  0.50 61.28 LIG 0.16  C 
BRANCH 19 20
ATOM     20  CB  LYS P   5      38.199   2.271  -5.763  0.50 60.15 LIG 0.03  C 
BRANCH 20 21
ATOM     21  CG  LYS P   5      39.154   2.380  -4.592  0.50 59.32 LIG 0.00  C 
BRANCH 21 22
ATOM     22  CD  LYS P   5      39.688   3.791  -4.452  0.50 58.12 LIG 0.03  C 
BRANCH 22 23
ATOM     23  CE  LYS P   5      40.501   3.971  -3.195  0.50 56.96 LIG 0.23  C 
BRANCH 23 24
ATOM     24  NZ  LYS P   5      40.528   5.392  -2.748  0.50 55.60 LIG-0.08  N 
ATOM     25 HZ2  LYS P   5      40.935   5.448  -1.959  0.50 55.60 LIG 0.27  HD
ATOM     26 HZ1  LYS P   5      39.694   5.695  -2.673  0.50 55.60 LIG 0.27  HD
ATOM     27 HZ3  LYS P   5      40.969   5.883  -3.345  0.50 55.60 LIG 0.27  HD
ENDBRANCH 23 24
ENDBRANCH 22 23
ENDBRANCH 21 22
ENDBRANCH 20 21
ENDBRANCH 19 20
BRANCH 19 28
ATOM     28  C   LYS P   5      36.907   1.407  -3.820  0.50 61.70 LIG 0.22  C 
ATOM     29 O    LYS P   5      36.835   0.211  -3.540  0.50 62.43 LIG-0.29  OA
ENDBRANCH 19 28
ENDBRANCH 16 19
ENDBRANCH 5 15
ENDBRANCH 3 5
BRANCH 1 30
ATOM     30  CA  VAL P   3      31.524   6.067  -4.331  0.50 58.35 LIG 0.18  C 
BRANCH 30 31
ATOM     31  CB  VAL P   3      31.019   5.302  -3.094  0.50 57.85 LIG 0.01  C 
ATOM     32  CG1 VAL P   3      29.681   5.824  -2.614  0.50 57.49 LIG 0.01  C 
ATOM     33  CG2 VAL P   3      30.924   3.813  -3.386  0.50 57.23 LIG 0.01  C 
ENDBRANCH 30 31
BRANCH 30 34
ATOM     34  N   VAL P   3      30.269   6.408  -4.968  0.50 58.27 LIG-0.35  N 
ATOM     35  C   LEU P   2      29.207   5.893  -5.620  0.50 58.43 LIG 0.24  C 
ATOM     36 O    LEU P   2      29.059   4.780  -6.100  0.50 58.37 LIG-0.27  OA
ATOM     37 H    VAL P   3      30.217   7.262  -4.876  0.50 58.27 LIG 0.16  HD
BRANCH 35 38
ATOM     38  CA  LEU P   2      28.269   7.089  -5.671  0.50 58.44 LIG 0.18  C 
BRANCH 38 39
ATOM     39  N   LEU P   2      26.922   7.008  -6.219  0.50 58.68 LIG-0.35  N 
ATOM     40 H    LEU P   2      26.299   6.475  -5.958  0.50 58.68 LIG 0.16  HD
ATOM     41  C   ALA P   1      27.059   7.947  -7.129  0.50 58.87 LIG 0.25  C 
ATOM     42 O    ALA P   1      28.169   8.461  -7.225  0.50 59.28 LIG-0.27  OA
BRANCH 41 43
ATOM     43  CA  ALA P   1      25.978   8.459  -8.067  0.50 58.66 LIG 0.27  C 
ATOM     44  CB  ALA P   1      26.196   9.899  -8.488  0.50 57.92 LIG 0.05  C 
BRANCH 43 45
ATOM     45  N   ALA P   1      24.657   8.335  -7.398  0.50 58.63 LIG-0.07  N 
ATOM     46 H1   ALA P   1      24.644   7.598  -6.899  0.50 58.63 LIG 0.28  HD
ATOM     47 H2   ALA P   1      24.518   9.045  -6.879  0.50 58.63 LIG 0.28  HD
ATOM     48 H3   ALA P   1      24.015   8.288  -8.013  0.50 58.63 LIG 0.28  HD
ENDBRANCH 43 45
ENDBRANCH 41 43
ENDBRANCH 38 39
BRANCH 38 49
ATOM     49  CB  LEU P   2      28.244   7.933  -4.390  0.50 58.10 LIG 0.04  C 
BRANCH 49 50
ATOM     50  CG  LEU P   2      27.009   7.757  -3.498  0.50 57.94 LIG-0.02  C 
ATOM     51  CD2 LEU P   2      25.922   8.727  -3.893  0.50 57.90 LIG 0.01  C 
ATOM     52  CD1 LEU P   2      27.376   7.949  -2.040  0.50 57.66 LIG 0.01  C 
ENDBRANCH 49 50
ENDBRANCH 38 49
ENDBRANCH 35 38
ENDBRANCH 30 34
ENDBRANCH 1 30
TORSDOF 21
ENDMDL
MODEL 12
USER: ADFR SOLUTION from run 30
USER: SCORE 18.760468 LL:  -3.746 LR: -16.386 RR:   0.000 FEB: -10.121
USER: RMSD 10.362946
USER: SEED 29
USER: STATUS searching
USER: GENES 23
USER: genes 0 Translation |==|  0.42092 0.50905 0.45273
USER: genes 1 Rotation |==|  0.53188 0.93762 0.27990 0.59502
USER: genes 2 Torsion [C]-N--CA-[CB] |==|  0.23018
USER: genes 3 Torsion [N]-CA--CB-[CG] |==|  0.01963
USER: genes 4 Torsion [CA]-CB--CG-[CD2] |==|  0.67322
USER: genes 5 Torsion [CE2]-CZ--OH-[HH] |==|  0.24870
USER: genes 6 Torsion [N]-CA--C-[N] |==|  0.38383
USER: genes 7 Torsion [C]-N--CA-[CB] |==|  0.43363
USER: genes 8 Torsion [N]-CA--CB-[CG] |==|  0.33647
USER: genes 9 Torsion [CA]-CB--CG-[CD] |==|  0.56063
USER: genes 10 Torsion [CB]-CG--CD-[CE] |==|  0.39252
USER: genes 11 Torsion [CG]-CD--CE-[NZ] |==|  0.64724
USER: genes 12 Torsion [CD]-CE--NZ-[HZ1] |==|  0.92819
USER: genes 13 Torsion [N]-CA--C-[O] |==|  0.12743
USER: genes 14 Torsion [N]-C--CA-[N] |==|  0.30587
USER: genes 15 Torsion [C]-CA--CB-[CG1] |==|  0.77267
USER: genes 16 Torsion [C]-CA--N-[C] |==|  0.70224
USER: genes 17 Torsion [N]-C--CA-[N] |==|  0.36238
USER: genes 18 Torsion [C]-CA--N-[C] |==|  0.65481
USER: genes 19 Torsion [N]-C--CA-[N] |==|  0.02105
USER: genes 20 Torsion [C]-CA--N-[H1] |==|  0.43740
USER: genes 21 Torsion [C]-CA--CB-[CG] |==|  0.74461
USER: genes 22 Torsion [CA]-CB--CG-[CD2] |==|  0.09556
ROOT
ATOM      1  C   VAL P   3      32.188   5.231  -7.168  0.50 59.03 LIG 0.24  C 
ATOM      2 O    VAL P   3      32.765   6.223  -7.651  0.50 59.49 LIG-0.27  OA
ATOM      3  N   TYR P   4      32.964   4.398  -6.470  0.50 59.73 LIG-0.35  N 
ATOM      4 H    TYR P   4      32.884   3.592  -6.181  0.50 59.73 LIG 0.16  HD
ENDROOT
BRANCH 3 5
ATOM      5  CA  TYR P   4      34.080   5.195  -6.274  0.50 59.99 LIG 0.18  C 
BRANCH 5 6
ATOM      6  CB  TYR P   4      33.761   6.097  -5.040  0.50 59.48 LIG 0.07  C 
BRANCH 6 7
ATOM      7  CG  TYR P   4      32.459   5.817  -4.249  0.50 58.89 LIG-0.06  A 
ATOM      8  CD2 TYR P   4      31.441   6.780  -4.161  0.50 58.48 LIG 0.01  A 
ATOM      9  CE2 TYR P   4      30.213   6.465  -3.603  0.50 57.98 LIG 0.04  A 
ATOM     10  CZ  TYR P   4      29.999   5.216  -3.077  0.50 58.05 LIG 0.07  A 
ATOM     11  CE1 TYR P   4      31.032   4.270  -3.086  0.50 57.81 LIG 0.04  A 
ATOM     12  CD1 TYR P   4      32.265   4.586  -3.688  0.50 58.25 LIG 0.01  A 
BRANCH 10 13
ATOM     13 OH   TYR P   4      28.762   4.895  -2.563  0.50 58.00 LIG-0.36  OA
ATOM     14 HH   TYR P   4      28.279   4.575  -3.172  0.50 58.00 LIG 0.22  HD
ENDBRANCH 10 13
ENDBRANCH 6 7
ENDBRANCH 5 6
BRANCH 5 15
ATOM     15  C   TYR P   4      35.415   4.586  -6.297  0.50 60.88 LIG 0.24  C 
ATOM     16  N   LYS P   5      36.158   5.432  -6.975  0.50 60.84 LIG-0.35  N 
ATOM     17 H    LYS P   5      35.833   6.170  -7.272  0.50 60.84 LIG 0.16  HD
ATOM     18 O    TYR P   4      35.758   3.486  -5.867  0.50 61.26 LIG-0.27  OA
BRANCH 16 19
ATOM     19  CA  LYS P   5      37.557   5.279  -7.316  0.50 61.28 LIG 0.16  C 
BRANCH 19 20
ATOM     20  CB  LYS P   5      37.918   6.093  -8.527  0.50 60.15 LIG 0.03  C 
BRANCH 20 21
ATOM     21  CG  LYS P   5      39.014   7.076  -8.171  0.50 59.32 LIG 0.00  C 
BRANCH 21 22
ATOM     22  CD  LYS P   5      39.042   8.238  -9.143  0.50 58.12 LIG 0.03  C 
BRANCH 22 23
ATOM     23  CE  LYS P   5      39.332   9.549  -8.456  0.50 56.96 LIG 0.23  C 
BRANCH 23 24
ATOM     24  NZ  LYS P   5      38.310  10.583  -8.777  0.50 55.60 LIG-0.08  N 
ATOM     25 HZ2  LYS P   5      37.681  10.585  -8.147  0.50 55.60 LIG 0.27  HD
ATOM     26 HZ1  LYS P   5      37.940  10.400  -9.565  0.50 55.60 LIG 0.27  HD
ATOM     27 HZ3  LYS P   5      38.697  11.384  -8.810  0.50 55.60 LIG 0.27  HD
ENDBRANCH 23 24
ENDBRANCH 22 23
ENDBRANCH 21 22
ENDBRANCH 20 21
ENDBRANCH 19 20
BRANCH 19 28
ATOM     28  C   LYS P   5      38.418   5.670  -6.127  0.50 61.70 LIG 0.22  C 
ATOM     29 O    LYS P   5      38.142   5.260  -5.000  0.50 62.43 LIG-0.29  OA
ENDBRANCH 19 28
ENDBRANCH 16 19
ENDBRANCH 5 15
ENDBRANCH 3 5
BRANCH 1 30
ATOM     30  CA  VAL P   3      30.699   5.169  -7.484  0.50 58.35 LIG 0.18  C 
BRANCH 30 31
ATOM     31  CB  VAL P   3      30.630   5.289  -9.018  0.50 57.85 LIG 0.01  C 
ATOM     32  CG1 VAL P   3      30.722   6.730  -9.476  0.50 57.49 LIG 0.01  C 
ATOM     33  CG2 VAL P   3      31.727   4.462  -9.670  0.50 57.23 LIG 0.01  C 
ENDBRANCH 30 31
BRANCH 30 34
ATOM     34  N   VAL P   3      29.507   5.894  -7.102  0.50 58.27 LIG-0.35  N 
ATOM     35  C   LEU P   2      28.378   5.817  -6.368  0.50 58.43 LIG 0.24  C 
ATOM     36 O    LEU P   2      27.860   4.843  -5.845  0.50 58.37 LIG-0.27  OA
ATOM     37 H    VAL P   3      29.581   6.646  -7.513  0.50 58.27 LIG 0.16  HD
BRANCH 35 38
ATOM     38  CA  LEU P   2      27.873   7.250  -6.431  0.50 58.44 LIG 0.18  C 
BRANCH 38 39
ATOM     39  N   LEU P   2      26.500   7.585  -6.784  0.50 58.68 LIG-0.35  N 
ATOM     40 H    LEU P   2      25.790   7.294  -6.395  0.50 58.68 LIG 0.16  HD
ATOM     41  C   ALA P   1      26.781   8.390  -7.785  0.50 58.87 LIG 0.25  C 
ATOM     42 O    ALA P   1      27.967   8.513  -8.075  0.50 59.28 LIG-0.27  OA
BRANCH 41 43
ATOM     43  CA  ALA P   1      25.783   9.184  -8.613  0.50 58.66 LIG 0.27  C 
ATOM     44  CB  ALA P   1      26.145  10.651  -8.728  0.50 57.92 LIG 0.05  C 
BRANCH 43 45
ATOM     45  N   ALA P   1      24.435   9.055  -8.000  0.50 58.63 LIG-0.07  N 
ATOM     46 H1   ALA P   1      23.926   9.740  -8.254  0.50 58.63 LIG 0.28  HD
ATOM     47 H2   ALA P   1      24.058   8.293  -8.266  0.50 58.63 LIG 0.28  HD
ATOM     48 H3   ALA P   1      24.510   9.054  -7.113  0.50 58.63 LIG 0.28  HD
ENDBRANCH 43 45
ENDBRANCH 41 43
ENDBRANCH 38 39
BRANCH 38 49
ATOM     49  CB  LEU P   2      28.325   8.135  -5.262  0.50 58.10 LIG 0.04  C 
BRANCH 49 50
ATOM     50  CG  LEU P   2      27.373   8.192  -4.061  0.50 57.94 LIG-0.02  C 
ATOM     51  CD2 LEU P   2      26.686   6.863  -3.860  0.50 57.90 LIG 0.01  C 
ATOM     52  CD1 LEU P   2      26.343   9.288  -4.250  0.50 57.66 LIG 0.01  C 
ENDBRANCH 49 50
ENDBRANCH 38 49
ENDBRANCH 35 38
ENDBRANCH 30 34
ENDBRANCH 1 30
TORSDOF 21
ENDMDL
MODEL 13
USER: ADFR SOLUTION from run 85
USER: SCORE 17.691398 LL:  -3.586 LR: -16.259 RR:   0.000 FEB:  -9.995
USER: RMSD 10.732669
USER: SEED 84
USER: STATUS no improvement in best 10 clusters for 5 generations
USER: GENES 23
USER: genes 0 Translation |==|  0.45543 0.53836 0.52480
USER: genes 1 Rotation |==|  0.37662 0.04641 0.33448 0.54045
USER: genes 2 Torsion [C]-N--CA-[CB] |==|  0.23050
USER: genes 3 Torsion [N]-CA--CB-[CG] |==|  0.44849
USER: genes 4 Torsion [CA]-CB--CG-[CD2] |==|  0.31878
USER: genes 5 Torsion [CE2]-CZ--OH-[HH] |==|  0.64024
USER: genes 6 Torsion [N]-CA--C-[N] |==|  0.41317
USER: genes 7 Torsion [C]-N--CA-[CB] |==|  0.73834
USER: genes 8 Torsion [N]-CA--CB-[CG] |==|  0.72441
USER: genes 9 Torsion [CA]-CB--CG-[CD] |==|  0.15229
USER: genes 10 Torsion [CB]-CG--CD-[CE] |==|  0.41629
USER: genes 11 Torsion [CG]-CD--CE-[NZ] |==|  0.27083
USER: genes 12 Torsion [CD]-CE--NZ-[HZ1] |==|  0.90989
USER: genes 13 Torsion [N]-CA--C-[O] |==|  0.35230
USER: genes 14 Torsion [N]-C--CA-[N] |==|  0.93067
USER: genes 15 Torsion [C]-CA--CB-[CG1] |==|  0.48037
USER: genes 16 Torsion [C]-CA--N-[C] |==|  0.19444
USER: genes 17 Torsion [N]-C--CA-[N] |==|  0.50698
USER: genes 18 Torsion [C]-CA--N-[C] |==|  0.66509
USER: genes 19 Torsion [N]-C--CA-[N] |==|  0.10182
USER: genes 20 Torsion [C]-CA--N-[H1] |==|  0.56157
USER: genes 21 Torsion [C]-CA--CB-[CG] |==|  0.69840
USER: genes 22 Torsion [CA]-CB--CG-[CD2] |==|  0.73303
ROOT
ATOM      1  C   VAL P   3      33.223   6.111  -5.006  0.50 59.03 LIG 0.24  C 
ATOM      2 O    VAL P   3      34.123   6.457  -4.218  0.50 59.49 LIG-0.27  OA
ATOM      3  N   TYR P   4      33.638   5.528  -6.134  0.50 59.73 LIG-0.35  N 
ATOM      4 H    TYR P   4      33.277   5.349  -6.894  0.50 59.73 LIG 0.16  HD
ENDROOT
BRANCH 3 5
ATOM      5  CA  TYR P   4      34.948   5.227  -5.796  0.50 59.99 LIG 0.18  C 
BRANCH 5 6
ATOM      6  CB  TYR P   4      34.896   3.883  -5.003  0.50 59.48 LIG 0.07  C 
BRANCH 6 7
ATOM      7  CG  TYR P   4      36.204   3.065  -4.867  0.50 58.89 LIG-0.06  A 
ATOM      8  CD2 TYR P   4      36.810   2.866  -3.616  0.50 58.48 LIG 0.01  A 
ATOM      9  CE2 TYR P   4      37.877   1.995  -3.475  0.50 57.98 LIG 0.04  A 
ATOM     10  CZ  TYR P   4      38.391   1.356  -4.576  0.50 58.05 LIG 0.07  A 
ATOM     11  CE1 TYR P   4      37.848   1.606  -5.843  0.50 57.81 LIG 0.04  A 
ATOM     12  CD1 TYR P   4      36.740   2.464  -5.972  0.50 58.25 LIG 0.01  A 
BRANCH 10 13
ATOM     13 OH   TYR P   4      39.424   0.458  -4.423  0.50 58.00 LIG-0.36  OA
ATOM     14 HH   TYR P   4      40.041   0.645  -4.962  0.50 58.00 LIG 0.22  HD
ENDBRANCH 10 13
ENDBRANCH 6 7
ENDBRANCH 5 6
BRANCH 5 15
ATOM     15  C   TYR P   4      35.998   5.330  -6.817  0.50 60.88 LIG 0.24  C 
ATOM     16  N   LYS P   5      37.079   5.668  -6.150  0.50 60.84 LIG-0.35  N 
ATOM     17 H    LYS P   5      37.067   5.756  -5.295  0.50 60.84 LIG 0.16  HD
ATOM     18 O    TYR P   4      35.889   5.224  -8.037  0.50 61.26 LIG-0.27  OA
BRANCH 16 19
ATOM     19  CA  LYS P   5      38.392   5.934  -6.701  0.50 61.28 LIG 0.16  C 
BRANCH 19 20
ATOM     20  CB  LYS P   5      39.258   4.705  -6.672  0.50 60.15 LIG 0.03  C 
BRANCH 20 21
ATOM     21  CG  LYS P   5      40.186   4.766  -5.477  0.50 59.32 LIG 0.00  C 
BRANCH 21 22
ATOM     22  CD  LYS P   5      39.409   4.964  -4.192  0.50 58.12 LIG 0.03  C 
BRANCH 22 23
ATOM     23  CE  LYS P   5      40.098   4.334  -3.006  0.50 56.96 LIG 0.23  C 
BRANCH 23 24
ATOM     24  NZ  LYS P   5      40.893   5.327  -2.233  0.50 55.60 LIG-0.08  N 
ATOM     25 HZ2  LYS P   5      40.373   5.717  -1.625  0.50 55.60 LIG 0.27  HD
ATOM     26 HZ1  LYS P   5      41.215   5.945  -2.787  0.50 55.60 LIG 0.27  HD
ATOM     27 HZ3  LYS P   5      41.568   4.915  -1.825  0.50 55.60 LIG 0.27  HD
ENDBRANCH 23 24
ENDBRANCH 22 23
ENDBRANCH 21 22
ENDBRANCH 20 21
ENDBRANCH 19 20
BRANCH 19 28
ATOM     28  C   LYS P   5      38.254   6.463  -8.118  0.50 61.70 LIG 0.22  C 
ATOM     29 O    LYS P   5      38.797   7.520  -8.442  0.50 62.43 LIG-0.29  OA
ENDBRANCH 19 28
ENDBRANCH 16 19
ENDBRANCH 5 15
ENDBRANCH 3 5
BRANCH 1 30
ATOM     30  CA  VAL P   3      31.818   6.435  -4.517  0.50 58.35 LIG 0.18  C 
BRANCH 30 31
ATOM     31  CB  VAL P   3      31.475   5.285  -3.552  0.50 57.85 LIG 0.01  C 
ATOM     32  CG1 VAL P   3      30.167   5.527  -2.828  0.50 57.49 LIG 0.01  C 
ATOM     33  CG2 VAL P   3      31.425   3.959  -4.294  0.50 57.23 LIG 0.01  C 
ENDBRANCH 30 31
BRANCH 30 34
ATOM     34  N   VAL P   3      30.522   6.682  -5.114  0.50 58.27 LIG-0.35  N 
ATOM     35  C   LEU P   2      29.502   6.097  -5.774  0.50 58.43 LIG 0.24  C 
ATOM     36 O    LEU P   2      29.454   5.001  -6.310  0.50 58.37 LIG-0.27  OA
ATOM     37 H    VAL P   3      30.388   7.520  -4.976  0.50 58.27 LIG 0.16  HD
BRANCH 35 38
ATOM     38  CA  LEU P   2      28.450   7.195  -5.746  0.50 58.44 LIG 0.18  C 
BRANCH 38 39
ATOM     39  N   LEU P   2      27.115   7.019  -6.303  0.50 58.68 LIG-0.35  N 
ATOM     40 H    LEU P   2      26.538   6.428  -6.061  0.50 58.68 LIG 0.16  HD
ATOM     41  C   ALA P   1      27.174   7.994  -7.183  0.50 58.87 LIG 0.25  C 
ATOM     42 O    ALA P   1      28.238   8.601  -7.257  0.50 59.28 LIG-0.27  OA
BRANCH 41 43
ATOM     43  CA  ALA P   1      26.057   8.443  -8.109  0.50 58.66 LIG 0.27  C 
ATOM     44  CB  ALA P   1      26.238   9.863  -8.608  0.50 57.92 LIG 0.05  C 
BRANCH 43 45
ATOM     45  N   ALA P   1      24.759   8.335  -7.391  0.50 58.63 LIG-0.07  N 
ATOM     46 H1   ALA P   1      24.096   8.279  -7.982  0.50 58.63 LIG 0.28  HD
ATOM     47 H2   ALA P   1      24.762   7.606  -6.880  0.50 58.63 LIG 0.28  HD
ATOM     48 H3   ALA P   1      24.641   9.054  -6.881  0.50 58.63 LIG 0.28  HD
ENDBRANCH 43 45
ENDBRANCH 41 43
ENDBRANCH 38 39
BRANCH 38 49
ATOM     49  CB  LEU P   2      28.346   7.943  -4.411  0.50 58.10 LIG 0.04  C 
BRANCH 49 50
ATOM     50  CG  LEU P   2      27.090   7.656  -3.580  0.50 57.94 LIG-0.02  C 
ATOM     51  CD2 LEU P   2      26.034   8.706  -3.827  0.50 57.90 LIG 0.01  C 
ATOM     52  CD1 LEU P   2      27.430   7.596  -2.104  0.50 57.66 LIG 0.01  C 
ENDBRANCH 49 50
ENDBRANCH 38 49
ENDBRANCH 35 38
ENDBRANCH 30 34
ENDBRANCH 1 30
TORSDOF 21
ENDMDL
MODEL 14
USER: ADFR SOLUTION from run 68
USER: SCORE 19.082063 LL:  -4.678 LR: -16.238 RR:   0.000 FEB:  -9.973
USER: RMSD 10.044306
USER: SEED 67
USER: STATUS 1 or 2 clusters left
USER: GENES 23
USER: genes 0 Translation |==|  0.39506 0.53679 0.56054
USER: genes 1 Rotation |==|  0.61639 0.70282 0.93967 0.54481
USER: genes 2 Torsion [C]-N--CA-[CB] |==|  0.25000
USER: genes 3 Torsion [N]-CA--CB-[CG] |==|  0.03951
USER: genes 4 Torsion [CA]-CB--CG-[CD2] |==|  0.25522
USER: genes 5 Torsion [CE2]-CZ--OH-[HH] |==|  0.49742
USER: genes 6 Torsion [N]-CA--C-[N] |==|  0.52505
USER: genes 7 Torsion [C]-N--CA-[CB] |==|  0.32021
USER: genes 8 Torsion [N]-CA--CB-[CG] |==|  0.40776
USER: genes 9 Torsion [CA]-CB--CG-[CD] |==|  0.60083
USER: genes 10 Torsion [CB]-CG--CD-[CE] |==|  0.38252
USER: genes 11 Torsion [CG]-CD--CE-[NZ] |==|  0.51732
USER: genes 12 Torsion [CD]-CE--NZ-[HZ1] |==|  0.32665
USER: genes 13 Torsion [N]-CA--C-[O] |==|  0.97800
USER: genes 14 Torsion [N]-C--CA-[N] |==|  0.06340
USER: genes 15 Torsion [C]-CA--CB-[CG1] |==|  0.32603
USER: genes 16 Torsion [C]-CA--N-[C] |==|  0.59066
USER: genes 17 Torsion [N]-C--CA-[N] |==|  0.39991
USER: genes 18 Torsion [C]-CA--N-[C] |==|  0.66984
USER: genes 19 Torsion [N]-C--CA-[N] |==|  0.81519
USER: genes 20 Torsion [C]-CA--N-[H1] |==|  0.95099
USER: genes 21 Torsion [C]-CA--CB-[CG] |==|  0.22674
USER: genes 22 Torsion [CA]-CB--CG-[CD2] |==|  0.64987
ROOT
ATOM      1  C   VAL P   3      31.412   6.064  -3.934  0.50 59.03 LIG 0.24  C 
ATOM      2 O    VAL P   3      31.618   4.945  -3.428  0.50 59.49 LIG-0.27  OA
ATOM      3  N   TYR P   4      32.450   6.603  -4.579  0.50 59.73 LIG-0.35  N 
ATOM      4 H    TYR P   4      32.644   7.390  -4.864  0.50 59.73 LIG 0.16  HD
ENDROOT
BRANCH 3 5
ATOM      5  CA  TYR P   4      33.266   5.493  -4.719  0.50 59.99 LIG 0.18  C 
BRANCH 5 6
ATOM      6  CB  TYR P   4      32.871   4.829  -6.076  0.50 59.48 LIG 0.07  C 
BRANCH 6 7
ATOM      7  CG  TYR P   4      32.005   5.648  -7.063  0.50 58.89 LIG-0.06  A 
ATOM      8  CD2 TYR P   4      32.593   6.445  -8.059  0.50 58.48 LIG 0.01  A 
ATOM      9  CE2 TYR P   4      31.820   7.035  -9.044  0.50 57.98 LIG 0.04  A 
ATOM     10  CZ  TYR P   4      30.455   6.892  -9.023  0.50 58.05 LIG 0.07  A 
ATOM     11  CE1 TYR P   4      29.847   6.167  -7.991  0.50 57.81 LIG 0.04  A 
ATOM     12  CD1 TYR P   4      30.642   5.539  -7.014  0.50 58.25 LIG 0.01  A 
BRANCH 10 13
ATOM     13 OH   TYR P   4      29.696   7.446 -10.030  0.50 58.00 LIG-0.36  OA
ATOM     14 HH   TYR P   4      28.884   7.272  -9.898  0.50 58.00 LIG 0.22  HD
ENDBRANCH 10 13
ENDBRANCH 6 7
ENDBRANCH 5 6
BRANCH 5 15
ATOM     15  C   TYR P   4      34.706   5.619  -4.460  0.50 60.88 LIG 0.24  C 
ATOM     16  N   LYS P   5      35.219   4.478  -4.863  0.50 60.84 LIG-0.35  N 
ATOM     17 H    LYS P   5      34.727   3.867  -5.215  0.50 60.84 LIG 0.16  HD
ATOM     18 O    TYR P   4      35.302   6.538  -3.903  0.50 61.26 LIG-0.27  OA
BRANCH 16 19
ATOM     19  CA  LYS P   5      36.609   4.077  -4.791  0.50 61.28 LIG 0.16  C 
BRANCH 19 20
ATOM     20  CB  LYS P   5      36.793   2.904  -3.868  0.50 60.15 LIG 0.03  C 
BRANCH 20 21
ATOM     21  CG  LYS P   5      37.919   2.028  -4.379  0.50 59.32 LIG 0.00  C 
BRANCH 21 22
ATOM     22  CD  LYS P   5      37.623   0.563  -4.135  0.50 58.12 LIG 0.03  C 
BRANCH 22 23
ATOM     23  CE  LYS P   5      37.990  -0.297  -5.319  0.50 56.96 LIG 0.23  C 
BRANCH 23 24
ATOM     24  NZ  LYS P   5      37.561  -1.711  -5.133  0.50 55.60 LIG-0.08  N 
ATOM     25 HZ2  LYS P   5      38.269  -2.247  -5.198  0.50 55.60 LIG 0.27  HD
ATOM     26 HZ1  LYS P   5      36.969  -1.926  -5.761  0.50 55.60 LIG 0.27  HD
ATOM     27 HZ3  LYS P   5      37.190  -1.806  -4.330  0.50 55.60 LIG 0.27  HD
ENDBRANCH 23 24
ENDBRANCH 22 23
ENDBRANCH 21 22
ENDBRANCH 20 21
ENDBRANCH 19 20
BRANCH 19 28
ATOM     28  C   LYS P   5      37.120   3.753  -6.184  0.50 61.70 LIG 0.22  C 
ATOM     29 O    LYS P   5      36.341   3.711  -7.136  0.50 62.43 LIG-0.29  OA
ENDBRANCH 19 28
ENDBRANCH 16 19
ENDBRANCH 5 15
ENDBRANCH 3 5
BRANCH 1 30
ATOM     30  CA  VAL P   3      30.004   6.596  -3.702  0.50 58.35 LIG 0.18  C 
BRANCH 30 31
ATOM     31  CB  VAL P   3      29.115   5.338  -3.713  0.50 57.85 LIG 0.01  C 
ATOM     32  CG1 VAL P   3      28.425   5.123  -2.382  0.50 57.49 LIG 0.01  C 
ATOM     33  CG2 VAL P   3      28.085   5.420  -4.828  0.50 57.23 LIG 0.01  C 
ENDBRANCH 30 31
BRANCH 30 34
ATOM     34  N   VAL P   3      29.121   7.557  -4.327  0.50 58.27 LIG-0.35  N 
ATOM     35  C   LEU P   2      28.145   8.455  -4.082  0.50 58.43 LIG 0.24  C 
ATOM     36 O    LEU P   2      27.483   8.620  -3.070  0.50 58.37 LIG-0.27  OA
ATOM     37 H    VAL P   3      29.322   7.509  -5.162  0.50 58.27 LIG 0.16  HD
BRANCH 35 38
ATOM     38  CA  LEU P   2      28.031   9.158  -5.426  0.50 58.44 LIG 0.18  C 
BRANCH 38 39
ATOM     39  N   LEU P   2      26.759   9.620  -5.965  0.50 58.68 LIG-0.35  N 
ATOM     40 H    LEU P   2      26.238  10.203  -5.606  0.50 58.68 LIG 0.16  HD
ATOM     41  C   ALA P   1      26.764   8.881  -7.052  0.50 58.87 LIG 0.25  C 
ATOM     42 O    ALA P   1      27.705   8.104  -7.183  0.50 59.28 LIG-0.27  OA
BRANCH 41 43
ATOM     43  CA  ALA P   1      25.724   8.898  -8.160  0.50 58.66 LIG 0.27  C 
ATOM     44  CB  ALA P   1      25.512  10.278  -8.750  0.50 57.92 LIG 0.05  C 
BRANCH 43 45
ATOM     45  N   ALA P   1      24.435   8.389  -7.622  0.50 58.63 LIG-0.07  N 
ATOM     46 H1   ALA P   1      24.583   7.946  -6.864  0.50 58.63 LIG 0.28  HD
ATOM     47 H2   ALA P   1      23.888   9.073  -7.463  0.50 58.63 LIG 0.28  HD
ATOM     48 H3   ALA P   1      24.060   7.841  -8.216  0.50 58.63 LIG 0.28  HD
ENDBRANCH 43 45
ENDBRANCH 41 43
ENDBRANCH 38 39
BRANCH 38 49
ATOM     49  CB  LEU P   2      29.106  10.224  -5.679  0.50 58.10 LIG 0.04  C 
BRANCH 49 50
ATOM     50  CG  LEU P   2      30.460   9.702  -6.174  0.50 57.94 LIG-0.02  C 
ATOM     51  CD2 LEU P   2      31.578  10.198  -5.289  0.50 57.90 LIG 0.01  C 
ATOM     52  CD1 LEU P   2      30.702  10.129  -7.608  0.50 57.66 LIG 0.01  C 
ENDBRANCH 49 50
ENDBRANCH 38 49
ENDBRANCH 35 38
ENDBRANCH 30 34
ENDBRANCH 1 30
TORSDOF 21
ENDMDL
MODEL 15
USER: ADFR SOLUTION from run 144
USER: SCORE 17.381328 LL:  -3.248 LR: -16.229 RR:   0.000 FEB:  -9.964
USER: RMSD 10.823216
USER: SEED 143
USER: STATUS no improvement in best 12 clusters for 5 generations
USER: GENES 23
USER: genes 0 Translation |==|  0.45124 0.54128 0.51357
USER: genes 1 Rotation |==|  0.37772 0.03028 0.39681 0.56136
USER: genes 2 Torsion [C]-N--CA-[CB] |==|  0.21508
USER: genes 3 Torsion [N]-CA--CB-[CG] |==|  0.45184
USER: genes 4 Torsion [CA]-CB--CG-[CD2] |==|  0.19530
USER: genes 5 Torsion [CE2]-CZ--OH-[HH] |==|  0.97089
USER: genes 6 Torsion [N]-CA--C-[N] |==|  0.42222
USER: genes 7 Torsion [C]-N--CA-[CB] |==|  0.21938
USER: genes 8 Torsion [N]-CA--CB-[CG] |==|  0.40224
USER: genes 9 Torsion [CA]-CB--CG-[CD] |==|  0.52267
USER: genes 10 Torsion [CB]-CG--CD-[CE] |==|  0.31692
USER: genes 11 Torsion [CG]-CD--CE-[NZ] |==|  0.64725
USER: genes 12 Torsion [CD]-CE--NZ-[HZ1] |==|  0.31300
USER: genes 13 Torsion [N]-CA--C-[O] |==|  0.26750
USER: genes 14 Torsion [N]-C--CA-[N] |==|  0.88951
USER: genes 15 Torsion [C]-CA--CB-[CG1] |==|  0.47766
USER: genes 16 Torsion [C]-CA--N-[C] |==|  0.18443
USER: genes 17 Torsion [N]-C--CA-[N] |==|  0.50643
USER: genes 18 Torsion [C]-CA--N-[C] |==|  0.68926
USER: genes 19 Torsion [N]-C--CA-[N] |==|  0.06877
USER: genes 20 Torsion [C]-CA--N-[H1] |==|  0.57931
USER: genes 21 Torsion [C]-CA--CB-[CG] |==|  0.68741
USER: genes 22 Torsion [CA]-CB--CG-[CD2] |==|  0.76016
ROOT
ATOM      1  C   VAL P   3      33.097   6.198  -5.343  0.50 59.03 LIG 0.24  C 
ATOM      2 O    VAL P   3      34.055   6.762  -4.782  0.50 59.49 LIG-0.27  OA
ATOM      3  N   TYR P   4      33.419   5.396  -6.361  0.50 59.73 LIG-0.35  N 
ATOM      4 H    TYR P   4      32.984   5.029  -7.006  0.50 59.73 LIG 0.16  HD
ENDROOT
BRANCH 3 5
ATOM      5  CA  TYR P   4      34.780   5.248  -6.148  0.50 59.99 LIG 0.18  C 
BRANCH 5 6
ATOM      6  CB  TYR P   4      34.930   4.225  -4.978  0.50 59.48 LIG 0.07  C 
BRANCH 6 7
ATOM      7  CG  TYR P   4      36.307   3.546  -4.777  0.50 58.89 LIG-0.06  A 
ATOM      8  CD2 TYR P   4      37.414   4.271  -4.304  0.50 58.48 LIG 0.01  A 
ATOM      9  CE2 TYR P   4      38.590   3.627  -3.962  0.50 57.98 LIG 0.04  A 
ATOM     10  CZ  TYR P   4      38.705   2.270  -4.135  0.50 58.05 LIG 0.07  A 
ATOM     11  CE1 TYR P   4      37.638   1.544  -4.681  0.50 57.81 LIG 0.04  A 
ATOM     12  CD1 TYR P   4      36.432   2.201  -4.991  0.50 58.25 LIG 0.01  A 
BRANCH 10 13
ATOM     13 OH   TYR P   4      39.863   1.629  -3.753  0.50 58.00 LIG-0.36  OA
ATOM     14 HH   TYR P   4      40.452   2.200  -3.570  0.50 58.00 LIG 0.22  HD
ENDBRANCH 10 13
ENDBRANCH 6 7
ENDBRANCH 5 6
BRANCH 5 15
ATOM     15  C   TYR P   4      35.672   5.047  -7.297  0.50 60.88 LIG 0.24  C 
ATOM     16  N   LYS P   5      36.827   5.542  -6.912  0.50 60.84 LIG-0.35  N 
ATOM     17 H    LYS P   5      36.934   5.864  -6.122  0.50 60.84 LIG 0.16  HD
ATOM     18 O    TYR P   4      35.393   4.607  -8.410  0.50 61.26 LIG-0.27  OA
BRANCH 16 19
ATOM     19  CA  LYS P   5      38.042   5.623  -7.698  0.50 61.28 LIG 0.16  C 
BRANCH 19 20
ATOM     20  CB  LYS P   5      37.997   6.779  -8.658  0.50 60.15 LIG 0.03  C 
BRANCH 20 21
ATOM     21  CG  LYS P   5      39.381   7.377  -8.799  0.50 59.32 LIG 0.00  C 
BRANCH 21 22
ATOM     22  CD  LYS P   5      39.342   8.662  -9.599  0.50 58.12 LIG 0.03  C 
BRANCH 22 23
ATOM     23  CE  LYS P   5      39.715   9.864  -8.767  0.50 56.96 LIG 0.23  C 
BRANCH 23 24
ATOM     24  NZ  LYS P   5      38.685  10.937  -8.847  0.50 55.60 LIG-0.08  N 
ATOM     25 HZ2  LYS P   5      39.074  11.705  -9.073  0.50 55.60 LIG 0.27  HD
ATOM     26 HZ1  LYS P   5      38.289  11.028  -8.055  0.50 55.60 LIG 0.27  HD
ATOM     27 HZ3  LYS P   5      38.077  10.721  -9.460  0.50 55.60 LIG 0.27  HD
ENDBRANCH 23 24
ENDBRANCH 22 23
ENDBRANCH 21 22
ENDBRANCH 20 21
ENDBRANCH 19 20
BRANCH 19 28
ATOM     28  C   LYS P   5      39.242   5.736  -6.773  0.50 61.70 LIG 0.22  C 
ATOM     29 O    LYS P   5      39.886   4.732  -6.469  0.50 62.43 LIG-0.29  OA
ENDBRANCH 19 28
ENDBRANCH 16 19
ENDBRANCH 5 15
ENDBRANCH 3 5
BRANCH 1 30
ATOM     30  CA  VAL P   3      31.740   6.551  -4.750  0.50 58.35 LIG 0.18  C 
BRANCH 30 31
ATOM     31  CB  VAL P   3      31.442   5.402  -3.769  0.50 57.85 LIG 0.01  C 
ATOM     32  CG1 VAL P   3      30.211   5.679  -2.932  0.50 57.49 LIG 0.01  C 
ATOM     33  CG2 VAL P   3      31.281   4.088  -4.517  0.50 57.23 LIG 0.01  C 
ENDBRANCH 30 31
BRANCH 30 34
ATOM     34  N   VAL P   3      30.411   6.834  -5.247  0.50 58.27 LIG-0.35  N 
ATOM     35  C   LEU P   2      29.350   6.292  -5.879  0.50 58.43 LIG 0.24  C 
ATOM     36 O    LEU P   2      29.266   5.233  -6.480  0.50 58.37 LIG-0.27  OA
ATOM     37 H    VAL P   3      30.287   7.662  -5.047  0.50 58.27 LIG 0.16  HD
BRANCH 35 38
ATOM     38  CA  LEU P   2      28.304   7.384  -5.714  0.50 58.44 LIG 0.18  C 
BRANCH 38 39
ATOM     39  N   LEU P   2      26.938   7.243  -6.201  0.50 58.68 LIG-0.35  N 
ATOM     40 H    LEU P   2      26.342   6.705  -5.892  0.50 58.68 LIG 0.16  HD
ATOM     41  C   ALA P   1      27.009   8.147  -7.152  0.50 58.87 LIG 0.25  C 
ATOM     42 O    ALA P   1      28.099   8.687  -7.316  0.50 59.28 LIG-0.27  OA
BRANCH 41 43
ATOM     43  CA  ALA P   1      25.876   8.591  -8.063  0.50 58.66 LIG 0.27  C 
ATOM     44  CB  ALA P   1      25.963  10.055  -8.444  0.50 57.92 LIG 0.05  C 
BRANCH 43 45
ATOM     45  N   ALA P   1      24.579   8.335  -7.383  0.50 58.63 LIG-0.07  N 
ATOM     46 H1   ALA P   1      23.948   8.188  -7.992  0.50 58.63 LIG 0.28  HD
ATOM     47 H2   ALA P   1      24.655   7.620  -6.858  0.50 58.63 LIG 0.28  HD
ATOM     48 H3   ALA P   1      24.358   9.042  -6.890  0.50 58.63 LIG 0.28  HD
ENDBRANCH 43 45
ENDBRANCH 41 43
ENDBRANCH 38 39
BRANCH 38 49
ATOM     49  CB  LEU P   2      28.283   8.040  -4.328  0.50 58.10 LIG 0.04  C 
BRANCH 49 50
ATOM     50  CG  LEU P   2      27.033   7.772  -3.481  0.50 57.94 LIG-0.02  C 
ATOM     51  CD2 LEU P   2      25.946   8.769  -3.802  0.50 57.90 LIG 0.01  C 
ATOM     52  CD1 LEU P   2      27.370   7.825  -2.004  0.50 57.66 LIG 0.01  C 
ENDBRANCH 49 50
ENDBRANCH 38 49
ENDBRANCH 35 38
ENDBRANCH 30 34
ENDBRANCH 1 30
TORSDOF 21
ENDMDL
MODEL 16
USER: ADFR SOLUTION from run 146
USER: SCORE 16.778496 LL:  -3.230 LR: -16.221 RR:   0.000 FEB:  -9.957
USER: RMSD 9.933940
USER: SEED 145
USER: STATUS no improvement in best 12 clusters for 5 generations
USER: GENES 23
USER: genes 0 Translation |==|  0.44653 0.50772 0.52638
USER: genes 1 Rotation |==|  0.59775 0.44492 0.97536 0.60695
USER: genes 2 Torsion [C]-N--CA-[CB] |==|  0.24250
USER: genes 3 Torsion [N]-CA--CB-[CG] |==|  0.75378
USER: genes 4 Torsion [CA]-CB--CG-[CD2] |==|  0.76259
USER: genes 5 Torsion [CE2]-CZ--OH-[HH] |==|  0.36520
USER: genes 6 Torsion [N]-CA--C-[N] |==|  0.89392
USER: genes 7 Torsion [C]-N--CA-[CB] |==|  0.96581
USER: genes 8 Torsion [N]-CA--CB-[CG] |==|  0.72247
USER: genes 9 Torsion [CA]-CB--CG-[CD] |==|  0.40073
USER: genes 10 Torsion [CB]-CG--CD-[CE] |==|  0.01614
USER: genes 11 Torsion [CG]-CD--CE-[NZ] |==|  0.52535
USER: genes 12 Torsion [CD]-CE--NZ-[HZ1] |==|  0.65697
USER: genes 13 Torsion [N]-CA--C-[O] |==|  0.38160
USER: genes 14 Torsion [N]-C--CA-[N] |==|  0.39172
USER: genes 15 Torsion [C]-CA--CB-[CG1] |==|  0.51667
USER: genes 16 Torsion [C]-CA--N-[C] |==|  0.13991
USER: genes 17 Torsion [N]-C--CA-[N] |==|  0.49634
USER: genes 18 Torsion [C]-CA--N-[C] |==|  0.68957
USER: genes 19 Torsion [N]-C--CA-[N] |==|  0.06970
USER: genes 20 Torsion [C]-CA--N-[H1] |==|  0.55096
USER: genes 21 Torsion [C]-CA--CB-[CG] |==|  0.69343
USER: genes 22 Torsion [CA]-CB--CG-[CD2] |==|  0.76044
ROOT
ATOM      1  C   VAL P   3      32.956   5.192  -4.959  0.50 59.03 LIG 0.24  C 
ATOM      2 O    VAL P   3      32.664   4.163  -5.597  0.50 59.49 LIG-0.27  OA
ATOM      3  N   TYR P   4      34.263   5.418  -4.801  0.50 59.73 LIG-0.35  N 
ATOM      4 H    TYR P   4      34.734   5.926  -4.292  0.50 59.73 LIG 0.16  HD
ENDROOT
BRANCH 3 5
ATOM      5  CA  TYR P   4      34.787   4.555  -5.750  0.50 59.99 LIG 0.18  C 
BRANCH 5 6
ATOM      6  CB  TYR P   4      34.821   5.352  -7.093  0.50 59.48 LIG 0.07  C 
BRANCH 6 7
ATOM      7  CG  TYR P   4      33.566   5.310  -7.998  0.50 58.89 LIG-0.06  A 
ATOM      8  CD2 TYR P   4      33.370   4.270  -8.922  0.50 58.48 LIG 0.01  A 
ATOM      9  CE2 TYR P   4      32.171   4.142  -9.603  0.50 57.98 LIG 0.04  A 
ATOM     10  CZ  TYR P   4      31.177   5.071  -9.421  0.50 58.05 LIG 0.07  A 
ATOM     11  CE1 TYR P   4      31.387   6.159  -8.564  0.50 57.81 LIG 0.04  A 
ATOM     12  CD1 TYR P   4      32.595   6.261  -7.847  0.50 58.25 LIG 0.01  A 
BRANCH 10 13
ATOM     13 OH   TYR P   4      29.971   4.915 -10.069  0.50 58.00 LIG-0.36  OA
ATOM     14 HH   TYR P   4      29.343   5.014  -9.520  0.50 58.00 LIG 0.22  HD
ENDBRANCH 10 13
ENDBRANCH 6 7
ENDBRANCH 5 6
BRANCH 5 15
ATOM     15  C   TYR P   4      35.991   3.778  -5.433  0.50 60.88 LIG 0.24  C 
ATOM     16  N   LYS P   5      36.743   4.598  -4.733  0.50 60.84 LIG-0.35  N 
ATOM     17 H    LYS P   5      36.475   5.391  -4.537  0.50 60.84 LIG 0.16  HD
ATOM     18 O    TYR P   4      36.289   2.647  -5.810  0.50 61.26 LIG-0.27  OA
BRANCH 16 19
ATOM     19  CA  LYS P   5      38.064   4.328  -4.205  0.50 61.28 LIG 0.16  C 
BRANCH 19 20
ATOM     20  CB  LYS P   5      38.400   2.865  -4.290  0.50 60.15 LIG 0.03  C 
BRANCH 20 21
ATOM     21  CG  LYS P   5      38.181   2.215  -2.939  0.50 59.32 LIG 0.00  C 
BRANCH 21 22
ATOM     22  CD  LYS P   5      37.652   0.804  -3.093  0.50 58.12 LIG 0.03  C 
BRANCH 22 23
ATOM     23  CE  LYS P   5      37.613   0.363  -4.535  0.50 56.96 LIG 0.23  C 
BRANCH 23 24
ATOM     24  NZ  LYS P   5      36.894  -0.931  -4.702  0.50 55.60 LIG-0.08  N 
ATOM     25 HZ2  LYS P   5      36.656  -1.243  -3.903  0.50 55.60 LIG 0.27  HD
ATOM     26 HZ1  LYS P   5      37.430  -1.518  -5.102  0.50 55.60 LIG 0.27  HD
ATOM     27 HZ3  LYS P   5      36.168  -0.805  -5.200  0.50 55.60 LIG 0.27  HD
ENDBRANCH 23 24
ENDBRANCH 22 23
ENDBRANCH 21 22
ENDBRANCH 20 21
ENDBRANCH 19 20
BRANCH 19 28
ATOM     28  C   LYS P   5      39.092   5.161  -4.951  0.50 61.70 LIG 0.22  C 
ATOM     29 O    LYS P   5      39.998   5.725  -4.336  0.50 62.43 LIG-0.29  OA
ENDBRANCH 19 28
ENDBRANCH 16 19
ENDBRANCH 5 15
ENDBRANCH 3 5
BRANCH 1 30
ATOM     30  CA  VAL P   3      31.748   5.983  -4.477  0.50 58.35 LIG 0.18  C 
BRANCH 30 31
ATOM     31  CB  VAL P   3      31.347   5.300  -3.156  0.50 57.85 LIG 0.01  C 
ATOM     32  CG1 VAL P   3      30.059   5.868  -2.596  0.50 57.49 LIG 0.01  C 
ATOM     33  CG2 VAL P   3      31.216   3.798  -3.348  0.50 57.23 LIG 0.01  C 
ENDBRANCH 30 31
BRANCH 30 34
ATOM     34  N   VAL P   3      30.448   6.349  -4.998  0.50 58.27 LIG-0.35  N 
ATOM     35  C   LEU P   2      29.335   5.859  -5.581  0.50 58.43 LIG 0.24  C 
ATOM     36 O    LEU P   2      29.145   4.765  -6.089  0.50 58.37 LIG-0.27  OA
ATOM     37 H    VAL P   3      30.406   7.198  -4.871  0.50 58.27 LIG 0.16  HD
BRANCH 35 38
ATOM     38  CA  LEU P   2      28.401   7.056  -5.513  0.50 58.44 LIG 0.18  C 
BRANCH 38 39
ATOM     39  N   LEU P   2      27.049   7.030  -6.056  0.50 58.68 LIG-0.35  N 
ATOM     40 H    LEU P   2      26.388   6.570  -5.752  0.50 58.68 LIG 0.16  HD
ATOM     41  C   ALA P   1      27.252   7.874  -7.043  0.50 58.87 LIG 0.25  C 
ATOM     42 O    ALA P   1      28.398   8.292  -7.180  0.50 59.28 LIG-0.27  OA
BRANCH 41 43
ATOM     43  CA  ALA P   1      26.210   8.384  -8.025  0.50 58.66 LIG 0.27  C 
ATOM     44  CB  ALA P   1      26.468   9.808  -8.473  0.50 57.92 LIG 0.05  C 
BRANCH 43 45
ATOM     45  N   ALA P   1      24.867   8.301  -7.392  0.50 58.63 LIG-0.07  N 
ATOM     46 H1   ALA P   1      24.239   8.338  -8.022  0.50 58.63 LIG 0.28  HD
ATOM     47 H2   ALA P   1      24.795   7.533  -6.947  0.50 58.63 LIG 0.28  HD
ATOM     48 H3   ALA P   1      24.762   8.981  -6.828  0.50 58.63 LIG 0.28  HD
ENDBRANCH 43 45
ENDBRANCH 41 43
ENDBRANCH 38 39
BRANCH 38 49
ATOM     49  CB  LEU P   2      28.388   7.776  -4.159  0.50 58.10 LIG 0.04  C 
BRANCH 49 50
ATOM     50  CG  LEU P   2      27.101   7.632  -3.338  0.50 57.94 LIG-0.02  C 
ATOM     51  CD2 LEU P   2      26.092   8.682  -3.736  0.50 57.90 LIG 0.01  C 
ATOM     52  CD1 LEU P   2      27.402   7.734  -1.855  0.50 57.66 LIG 0.01  C 
ENDBRANCH 49 50
ENDBRANCH 38 49
ENDBRANCH 35 38
ENDBRANCH 30 34
ENDBRANCH 1 30
TORSDOF 21
ENDMDL
MODEL 17
USER: ADFR SOLUTION from run 70
USER: SCORE 17.953716 LL:  -4.015 LR: -16.207 RR:   0.000 FEB:  -9.943
USER: RMSD 8.422108
USER: SEED 69
USER: STATUS no improvement in best 5 clusters for 5 generations
USER: GENES 23
USER: genes 0 Translation |==|  0.33406 0.51185 0.46891
USER: genes 1 Rotation |==|  0.15467 0.68952 0.74661 0.68443
USER: genes 2 Torsion [C]-N--CA-[CB] |==|  0.26511
USER: genes 3 Torsion [N]-CA--CB-[CG] |==|  0.04452
USER: genes 4 Torsion [CA]-CB--CG-[CD2] |==|  0.20958
USER: genes 5 Torsion [CE2]-CZ--OH-[HH] |==|  0.91288
USER: genes 6 Torsion [N]-CA--C-[N] |==|  0.03645
USER: genes 7 Torsion [C]-N--CA-[CB] |==|  0.47387
USER: genes 8 Torsion [N]-CA--CB-[CG] |==|  0.09049
USER: genes 9 Torsion [CA]-CB--CG-[CD] |==|  0.29777
USER: genes 10 Torsion [CB]-CG--CD-[CE] |==|  0.69176
USER: genes 11 Torsion [CG]-CD--CE-[NZ] |==|  0.32147
USER: genes 12 Torsion [CD]-CE--NZ-[HZ1] |==|  0.98434
USER: genes 13 Torsion [N]-CA--C-[O] |==|  0.96247
USER: genes 14 Torsion [N]-C--CA-[N] |==|  0.78945
USER: genes 15 Torsion [C]-CA--CB-[CG1] |==|  0.46326
USER: genes 16 Torsion [C]-CA--N-[C] |==|  0.20006
USER: genes 17 Torsion [N]-C--CA-[N] |==|  0.12666
USER: genes 18 Torsion [C]-CA--N-[C] |==|  0.71437
USER: genes 19 Torsion [N]-C--CA-[N] |==|  0.70205
USER: genes 20 Torsion [C]-CA--N-[H1] |==|  0.67924
USER: genes 21 Torsion [C]-CA--CB-[CG] |==|  0.13899
USER: genes 22 Torsion [CA]-CB--CG-[CD2] |==|  0.48803
ROOT
ATOM      1  C   VAL P   3      29.582   5.315  -6.683  0.50 59.03 LIG 0.24  C 
ATOM      2 O    VAL P   3      28.645   4.560  -6.364  0.50 59.49 LIG-0.27  OA
ATOM      3  N   TYR P   4      29.885   6.263  -5.792  0.50 59.73 LIG-0.35  N 
ATOM      4 H    TYR P   4      30.345   6.990  -5.811  0.50 59.73 LIG 0.16  HD
ENDROOT
BRANCH 3 5
ATOM      5  CA  TYR P   4      29.225   5.780  -4.673  0.50 59.99 LIG 0.18  C 
BRANCH 5 6
ATOM      6  CB  TYR P   4      30.285   4.979  -3.853  0.50 59.48 LIG 0.07  C 
BRANCH 6 7
ATOM      7  CG  TYR P   4      31.781   5.198  -4.183  0.50 58.89 LIG-0.06  A 
ATOM      8  CD2 TYR P   4      32.455   6.360  -3.772  0.50 58.48 LIG 0.01  A 
ATOM      9  CE2 TYR P   4      33.827   6.474  -3.917  0.50 57.98 LIG 0.04  A 
ATOM     10  CZ  TYR P   4      34.539   5.467  -4.521  0.50 58.05 LIG 0.07  A 
ATOM     11  CE1 TYR P   4      33.871   4.337  -5.008  0.50 57.81 LIG 0.04  A 
ATOM     12  CD1 TYR P   4      32.481   4.212  -4.823  0.50 58.25 LIG 0.01  A 
BRANCH 10 13
ATOM     13 OH   TYR P   4      35.909   5.568  -4.624  0.50 58.00 LIG-0.36  OA
ATOM     14 HH   TYR P   4      36.126   6.377  -4.696  0.50 58.00 LIG 0.22  HD
ENDBRANCH 10 13
ENDBRANCH 6 7
ENDBRANCH 5 6
BRANCH 5 15
ATOM     15  C   TYR P   4      28.362   6.682  -3.901  0.50 60.88 LIG 0.24  C 
ATOM     16  N   LYS P   5      28.207   7.736  -4.669  0.50 60.84 LIG-0.35  N 
ATOM     17 H    LYS P   5      28.559   7.773  -5.453  0.50 60.84 LIG 0.16  HD
ATOM     18 O    TYR P   4      27.947   6.541  -2.752  0.50 61.26 LIG-0.27  OA
BRANCH 16 19
ATOM     19  CA  LYS P   5      27.466   8.940  -4.353  0.50 61.28 LIG 0.16  C 
BRANCH 19 20
ATOM     20  CB  LYS P   5      27.701  10.013  -5.379  0.50 60.15 LIG 0.03  C 
BRANCH 20 21
ATOM     21  CG  LYS P   5      27.917   9.379  -6.738  0.50 59.32 LIG 0.00  C 
BRANCH 21 22
ATOM     22  CD  LYS P   5      26.716   9.590  -7.636  0.50 58.12 LIG 0.03  C 
BRANCH 22 23
ATOM     23  CE  LYS P   5      25.972   8.306  -7.904  0.50 56.96 LIG 0.23  C 
BRANCH 23 24
ATOM     24  NZ  LYS P   5      24.592   8.335  -7.344  0.50 55.60 LIG-0.08  N 
ATOM     25 HZ2  LYS P   5      24.001   8.309  -8.009  0.50 55.60 LIG 0.27  HD
ATOM     26 HZ1  LYS P   5      24.478   9.083  -6.875  0.50 55.60 LIG 0.27  HD
ATOM     27 HZ3  LYS P   5      24.472   7.631  -6.813  0.50 55.60 LIG 0.27  HD
ENDBRANCH 23 24
ENDBRANCH 22 23
ENDBRANCH 21 22
ENDBRANCH 20 21
ENDBRANCH 19 20
BRANCH 19 28
ATOM     28  C   LYS P   5      25.986   8.615  -4.241  0.50 61.70 LIG 0.22  C 
ATOM     29 O    LYS P   5      25.556   7.537  -4.650  0.50 62.43 LIG-0.29  OA
ENDBRANCH 19 28
ENDBRANCH 16 19
ENDBRANCH 5 15
ENDBRANCH 3 5
BRANCH 1 30
ATOM     30  CA  VAL P   3      30.189   5.003  -8.044  0.50 58.35 LIG 0.18  C 
BRANCH 30 31
ATOM     31  CB  VAL P   3      31.708   4.999  -7.791  0.50 57.85 LIG 0.01  C 
ATOM     32  CG1 VAL P   3      32.471   4.395  -8.952  0.50 57.49 LIG 0.01  C 
ATOM     33  CG2 VAL P   3      32.209   6.407  -7.513  0.50 57.23 LIG 0.01  C 
ENDBRANCH 30 31
BRANCH 30 34
ATOM     34  N   VAL P   3      30.138   5.564  -9.377  0.50 58.27 LIG-0.35  N 
ATOM     35  C   LEU P   2      30.542   6.605 -10.134  0.50 58.43 LIG 0.24  C 
ATOM     36 O    LEU P   2      31.025   7.671  -9.787  0.50 58.37 LIG-0.27  OA
ATOM     37 H    VAL P   3      29.670   4.996  -9.822  0.50 58.27 LIG 0.16  HD
BRANCH 35 38
ATOM     38  CA  LEU P   2      30.162   6.135 -11.529  0.50 58.44 LIG 0.18  C 
BRANCH 38 39
ATOM     39  N   LEU P   2      28.871   5.533 -11.831  0.50 58.68 LIG-0.35  N 
ATOM     40 H    LEU P   2      28.125   5.951 -11.927  0.50 58.68 LIG 0.16  HD
ATOM     41  C   ALA P   1      29.281   4.285 -11.884  0.50 58.87 LIG 0.25  C 
ATOM     42 O    ALA P   1      30.465   4.085 -11.629  0.50 59.28 LIG-0.27  OA
BRANCH 41 43
ATOM     43  CA  ALA P   1      28.436   3.071 -12.235  0.50 58.66 LIG 0.27  C 
ATOM     44  CB  ALA P   1      27.110   3.437 -12.871  0.50 57.92 LIG 0.05  C 
BRANCH 43 45
ATOM     45  N   ALA P   1      28.190   2.280 -11.000  0.50 58.63 LIG-0.07  N 
ATOM     46 H1   ALA P   1      28.579   1.483 -11.075  0.50 58.63 LIG 0.28  HD
ATOM     47 H2   ALA P   1      28.529   2.711 -10.298  0.50 58.63 LIG 0.28  HD
ATOM     48 H3   ALA P   1      27.313   2.173 -10.886  0.50 58.63 LIG 0.28  HD
ENDBRANCH 43 45
ENDBRANCH 41 43
ENDBRANCH 38 39
BRANCH 38 49
ATOM     49  CB  LEU P   2      30.541   7.109 -12.653  0.50 58.10 LIG 0.04  C 
BRANCH 49 50
ATOM     50  CG  LEU P   2      31.989   7.614 -12.639  0.50 57.94 LIG-0.02  C 
ATOM     51  CD2 LEU P   2      32.266   8.476 -13.847  0.50 57.90 LIG 0.01  C 
ATOM     52  CD1 LEU P   2      32.958   6.449 -12.597  0.50 57.66 LIG 0.01  C 
ENDBRANCH 49 50
ENDBRANCH 38 49
ENDBRANCH 35 38
ENDBRANCH 30 34
ENDBRANCH 1 30
TORSDOF 21
ENDMDL
MODEL 18
USER: ADFR SOLUTION from run 38
USER: SCORE 17.343331 LL:  -3.476 LR: -16.181 RR:   0.000 FEB:  -9.916
USER: RMSD 3.505598
USER: SEED 37
USER: STATUS no improvement in best 2 clusters for 5 generations
USER: GENES 23
USER: genes 0 Translation |==|  0.53245 0.48348 0.52894
USER: genes 1 Rotation |==|  0.57070 0.40518 0.44732 0.98295
USER: genes 2 Torsion [C]-N--CA-[CB] |==|  0.37236
USER: genes 3 Torsion [N]-CA--CB-[CG] |==|  0.53209
USER: genes 4 Torsion [CA]-CB--CG-[CD2] |==|  0.51499
USER: genes 5 Torsion [CE2]-CZ--OH-[HH] |==|  0.10928
USER: genes 6 Torsion [N]-CA--C-[N] |==|  0.73930
USER: genes 7 Torsion [C]-N--CA-[CB] |==|  0.35293
USER: genes 8 Torsion [N]-CA--CB-[CG] |==|  0.59912
USER: genes 9 Torsion [CA]-CB--CG-[CD] |==|  0.55793
USER: genes 10 Torsion [CB]-CG--CD-[CE] |==|  0.72024
USER: genes 11 Torsion [CG]-CD--CE-[NZ] |==|  0.61632
USER: genes 12 Torsion [CD]-CE--NZ-[HZ1] |==|  0.15196
USER: genes 13 Torsion [N]-CA--C-[O] |==|  0.00999
USER: genes 14 Torsion [N]-C--CA-[N] |==|  0.91109
USER: genes 15 Torsion [C]-CA--CB-[CG1] |==|  0.03924
USER: genes 16 Torsion [C]-CA--N-[C] |==|  0.88765
USER: genes 17 Torsion [N]-C--CA-[N] |==|  0.97937
USER: genes 18 Torsion [C]-CA--N-[C] |==|  0.74234
USER: genes 19 Torsion [N]-C--CA-[N] |==|  0.43326
USER: genes 20 Torsion [C]-CA--N-[H1] |==|  0.60545
USER: genes 21 Torsion [C]-CA--CB-[CG] |==|  0.83046
USER: genes 22 Torsion [CA]-CB--CG-[CD2] |==|  0.60972
ROOT
ATOM      1  C   VAL P   3      35.533   4.464  -4.882  0.50 59.03 LIG 0.24  C 
ATOM      2 O    VAL P   3      35.487   5.704  -4.992  0.50 59.49 LIG-0.27  OA
ATOM      3  N   TYR P   4      34.364   3.831  -5.007  0.50 59.73 LIG-0.35  N 
ATOM      4 H    TYR P   4      34.077   3.042  -4.822  0.50 59.73 LIG 0.16  HD
ENDROOT
BRANCH 3 5
ATOM      5  CA  TYR P   4      33.592   4.834  -5.573  0.50 59.99 LIG 0.18  C 
BRANCH 5 6
ATOM      6  CB  TYR P   4      32.815   4.172  -6.755  0.50 59.48 LIG 0.07  C 
BRANCH 6 7
ATOM      7  CG  TYR P   4      32.076   5.098  -7.751  0.50 58.89 LIG-0.06  A 
ATOM      8  CD2 TYR P   4      31.265   4.572  -8.770  0.50 58.48 LIG 0.01  A 
ATOM      9  CE2 TYR P   4      30.472   5.400  -9.546  0.50 57.98 LIG 0.04  A 
ATOM     10  CZ  TYR P   4      30.515   6.760  -9.361  0.50 58.05 LIG 0.07  A 
ATOM     11  CE1 TYR P   4      31.377   7.306  -8.403  0.50 57.81 LIG 0.04  A 
ATOM     12  CD1 TYR P   4      32.153   6.455  -7.593  0.50 58.25 LIG 0.01  A 
BRANCH 10 13
ATOM     13 OH   TYR P   4      29.692   7.575 -10.107  0.50 58.00 LIG-0.36  OA
ATOM     14 HH   TYR P   4      28.938   7.212 -10.190  0.50 58.00 LIG 0.22  HD
ENDBRANCH 10 13
ENDBRANCH 6 7
ENDBRANCH 5 6
BRANCH 5 15
ATOM     15  C   TYR P   4      32.807   5.718  -4.703  0.50 60.88 LIG 0.24  C 
ATOM     16  N   LYS P   5      31.618   5.163  -4.648  0.50 60.84 LIG-0.35  N 
ATOM     17 H    LYS P   5      31.452   4.423  -5.053  0.50 60.84 LIG 0.16  HD
ATOM     18 O    TYR P   4      33.142   6.792  -4.208  0.50 61.26 LIG-0.27  OA
BRANCH 16 19
ATOM     19  CA  LYS P   5      30.456   5.667  -3.945  0.50 61.28 LIG 0.16  C 
BRANCH 19 20
ATOM     20  CB  LYS P   5      29.262   5.759  -4.854  0.50 60.15 LIG 0.03  C 
BRANCH 20 21
ATOM     21  CG  LYS P   5      28.435   6.974  -4.485  0.50 59.32 LIG 0.00  C 
BRANCH 21 22
ATOM     22  CD  LYS P   5      27.014   6.841  -4.993  0.50 58.12 LIG 0.03  C 
BRANCH 22 23
ATOM     23  CE  LYS P   5      26.785   7.628  -6.259  0.50 56.96 LIG 0.23  C 
BRANCH 23 24
ATOM     24  NZ  LYS P   5      25.475   8.335  -6.245  0.50 55.60 LIG-0.08  N 
ATOM     25 HZ2  LYS P   5      25.406   8.848  -6.969  0.50 55.60 LIG 0.27  HD
ATOM     26 HZ1  LYS P   5      25.419   8.842  -5.516  0.50 55.60 LIG 0.27  HD
ATOM     27 HZ3  LYS P   5      24.815   7.738  -6.242  0.50 55.60 LIG 0.27  HD
ENDBRANCH 23 24
ENDBRANCH 22 23
ENDBRANCH 21 22
ENDBRANCH 20 21
ENDBRANCH 19 20
BRANCH 19 28
ATOM     28  C   LYS P   5      30.156   4.777  -2.751  0.50 61.70 LIG 0.22  C 
ATOM     29 O    LYS P   5      30.903   3.838  -2.474  0.50 62.43 LIG-0.29  OA
ENDBRANCH 19 28
ENDBRANCH 16 19
ENDBRANCH 5 15
ENDBRANCH 3 5
BRANCH 1 30
ATOM     30  CA  VAL P   3      36.931   3.921  -4.616  0.50 58.35 LIG 0.18  C 
BRANCH 30 31
ATOM     31  CB  VAL P   3      37.525   3.695  -6.019  0.50 57.85 LIG 0.01  C 
ATOM     32  CG1 VAL P   3      36.710   4.383  -7.094  0.50 57.49 LIG 0.01  C 
ATOM     33  CG2 VAL P   3      38.968   4.170  -6.073  0.50 57.23 LIG 0.01  C 
ENDBRANCH 30 31
BRANCH 30 34
ATOM     34  N   VAL P   3      37.513   2.810  -3.894  0.50 58.27 LIG-0.35  N 
ATOM     35  C   LEU P   2      37.427   2.090  -2.757  0.50 58.43 LIG 0.24  C 
ATOM     36 O    LEU P   2      36.811   2.334  -1.732  0.50 58.37 LIG-0.27  OA
ATOM     37 H    VAL P   3      38.141   2.533  -4.412  0.50 58.27 LIG 0.16  HD
BRANCH 35 38
ATOM     38  CA  LEU P   2      38.365   0.931  -3.056  0.50 58.44 LIG 0.18  C 
BRANCH 38 39
ATOM     39  N   LEU P   2      38.962   0.723  -4.369  0.50 58.68 LIG-0.35  N 
ATOM     40 H    LEU P   2      39.697   1.068  -4.653  0.50 58.68 LIG 0.16  HD
ATOM     41  C   ALA P   1      38.040  -0.087  -4.841  0.50 58.87 LIG 0.25  C 
ATOM     42 O    ALA P   1      37.078  -0.308  -4.112  0.50 59.28 LIG-0.27  OA
BRANCH 41 43
ATOM     43  CA  ALA P   1      38.052  -0.776  -6.196  0.50 58.66 LIG 0.27  C 
ATOM     44  CB  ALA P   1      37.559   0.116  -7.317  0.50 57.92 LIG 0.05  C 
BRANCH 43 45
ATOM     45  N   ALA P   1      37.203  -1.995  -6.125  0.50 58.63 LIG-0.07  N 
ATOM     46 H1   ALA P   1      37.579  -2.647  -6.600  0.50 58.63 LIG 0.28  HD
ATOM     47 H2   ALA P   1      37.125  -2.255  -5.277  0.50 58.63 LIG 0.28  HD
ATOM     48 H3   ALA P   1      36.397  -1.815  -6.455  0.50 58.63 LIG 0.28  HD
ENDBRANCH 43 45
ENDBRANCH 41 43
ENDBRANCH 38 39
BRANCH 38 49
ATOM     49  CB  LEU P   2      39.421   0.671  -1.974  0.50 58.10 LIG 0.04  C 
BRANCH 49 50
ATOM     50  CG  LEU P   2      40.394   1.823  -1.699  0.50 57.94 LIG-0.02  C 
ATOM     51  CD2 LEU P   2      41.791   1.299  -1.467  0.50 57.90 LIG 0.01  C 
ATOM     52  CD1 LEU P   2      39.936   2.633  -0.503  0.50 57.66 LIG 0.01  C 
ENDBRANCH 49 50
ENDBRANCH 38 49
ENDBRANCH 35 38
ENDBRANCH 30 34
ENDBRANCH 1 30
TORSDOF 21
ENDMDL
MODEL 19
USER: ADFR SOLUTION from run 6
USER: SCORE 16.973058 LL:  -3.197 LR: -16.152 RR:   0.000 FEB:  -9.887
USER: RMSD 10.201688
USER: SEED 531795
USER: STATUS no improvement in best 8 clusters for 5 generations
USER: GENES 23
USER: genes 0 Translation |==|  0.37116 0.56701 0.43310
USER: genes 1 Rotation |==|  0.40760 0.08629 0.46911 0.76336
USER: genes 2 Torsion [C]-N--CA-[CB] |==|  0.29205
USER: genes 3 Torsion [N]-CA--CB-[CG] |==|  0.79144
USER: genes 4 Torsion [CA]-CB--CG-[CD2] |==|  0.21846
USER: genes 5 Torsion [CE2]-CZ--OH-[HH] |==|  0.44322
USER: genes 6 Torsion [N]-CA--C-[N] |==|  0.70210
USER: genes 7 Torsion [C]-N--CA-[CB] |==|  0.76506
USER: genes 8 Torsion [N]-CA--CB-[CG] |==|  0.94342
USER: genes 9 Torsion [CA]-CB--CG-[CD] |==|  0.77148
USER: genes 10 Torsion [CB]-CG--CD-[CE] |==|  0.35231
USER: genes 11 Torsion [CG]-CD--CE-[NZ] |==|  0.14699
USER: genes 12 Torsion [CD]-CE--NZ-[HZ1] |==|  0.48937
USER: genes 13 Torsion [N]-CA--C-[O] |==|  0.73701
USER: genes 14 Torsion [N]-C--CA-[N] |==|  0.77121
USER: genes 15 Torsion [C]-CA--CB-[CG1] |==|  0.42184
USER: genes 16 Torsion [C]-CA--N-[C] |==|  0.70516
USER: genes 17 Torsion [N]-C--CA-[N] |==|  0.95896
USER: genes 18 Torsion [C]-CA--N-[C] |==|  0.77455
USER: genes 19 Torsion [N]-C--CA-[N] |==|  0.19946
USER: genes 20 Torsion [C]-CA--N-[H1] |==|  0.03475
USER: genes 21 Torsion [C]-CA--CB-[CG] |==|  0.93572
USER: genes 22 Torsion [CA]-CB--CG-[CD2] |==|  0.80231
ROOT
ATOM      1  C   VAL P   3      30.695   6.970  -7.757  0.50 59.03 LIG 0.24  C 
ATOM      2 O    VAL P   3      31.573   7.801  -8.056  0.50 59.49 LIG-0.27  OA
ATOM      3  N   TYR P   4      30.324   6.146  -8.741  0.50 59.73 LIG-0.35  N 
ATOM      4 H    TYR P   4      29.661   5.615  -8.871  0.50 59.73 LIG 0.16  HD
ENDROOT
BRANCH 3 5
ATOM      5  CA  TYR P   4      31.363   6.340  -9.638  0.50 59.99 LIG 0.18  C 
BRANCH 5 6
ATOM      6  CB  TYR P   4      32.264   5.069  -9.544  0.50 59.48 LIG 0.07  C 
BRANCH 6 7
ATOM      7  CG  TYR P   4      33.183   4.917  -8.306  0.50 58.89 LIG-0.06  A 
ATOM      8  CD2 TYR P   4      32.675   4.483  -7.071  0.50 58.48 LIG 0.01  A 
ATOM      9  CE2 TYR P   4      33.524   4.184  -6.019  0.50 57.98 LIG 0.04  A 
ATOM     10  CZ  TYR P   4      34.878   4.364  -6.159  0.50 58.05 LIG 0.07  A 
ATOM     11  CE1 TYR P   4      35.394   4.872  -7.358  0.50 57.81 LIG 0.04  A 
ATOM     12  CD1 TYR P   4      34.527   5.138  -8.435  0.50 58.25 LIG 0.01  A 
BRANCH 10 13
ATOM     13 OH   TYR P   4      35.721   4.024  -5.124  0.50 58.00 LIG-0.36  OA
ATOM     14 HH   TYR P   4      36.499   3.915  -5.420  0.50 58.00 LIG 0.22  HD
ENDBRANCH 10 13
ENDBRANCH 6 7
ENDBRANCH 5 6
BRANCH 5 15
ATOM     15  C   TYR P   4      31.064   6.817 -10.994  0.50 60.88 LIG 0.24  C 
ATOM     16  N   LYS P   5      31.251   5.769 -11.765  0.50 60.84 LIG-0.35  N 
ATOM     17 H    LYS P   5      31.472   5.007 -11.436  0.50 60.84 LIG 0.16  HD
ATOM     18 O    TYR P   4      30.794   7.960 -11.357  0.50 61.26 LIG-0.27  OA
BRANCH 16 19
ATOM     19  CA  LYS P   5      31.123   5.718 -13.207  0.50 61.28 LIG 0.16  C 
BRANCH 19 20
ATOM     20  CB  LYS P   5      29.696   5.492 -13.623  0.50 60.15 LIG 0.03  C 
BRANCH 20 21
ATOM     21  CG  LYS P   5      28.918   4.896 -12.468  0.50 59.32 LIG 0.00  C 
BRANCH 21 22
ATOM     22  CD  LYS P   5      29.128   3.398 -12.385  0.50 58.12 LIG 0.03  C 
BRANCH 22 23
ATOM     23  CE  LYS P   5      29.579   2.960 -11.013  0.50 56.96 LIG 0.23  C 
BRANCH 23 24
ATOM     24  NZ  LYS P   5      28.671   3.460  -9.944  0.50 55.60 LIG-0.08  N 
ATOM     25 HZ2  LYS P   5      28.697   4.349  -9.923  0.50 55.60 LIG 0.27  HD
ATOM     26 HZ1  LYS P   5      28.935   3.138  -9.157  0.50 55.60 LIG 0.27  HD
ATOM     27 HZ3  LYS P   5      27.840   3.192 -10.110  0.50 55.60 LIG 0.27  HD
ENDBRANCH 23 24
ENDBRANCH 22 23
ENDBRANCH 21 22
ENDBRANCH 20 21
ENDBRANCH 19 20
BRANCH 19 28
ATOM     28  C   LYS P   5      31.665   7.001 -13.814  0.50 61.70 LIG 0.22  C 
ATOM     29 O    LYS P   5      30.905   7.935 -14.071  0.50 62.43 LIG-0.29  OA
ENDBRANCH 19 28
ENDBRANCH 16 19
ENDBRANCH 5 15
ENDBRANCH 3 5
BRANCH 1 30
ATOM     30  CA  VAL P   3      30.213   7.073  -6.316  0.50 58.35 LIG 0.18  C 
BRANCH 30 31
ATOM     31  CB  VAL P   3      30.074   5.610  -5.856  0.50 57.85 LIG 0.01  C 
ATOM     32  CG1 VAL P   3      30.275   5.467  -4.361  0.50 57.49 LIG 0.01  C 
ATOM     33  CG2 VAL P   3      28.719   5.049  -6.256  0.50 57.23 LIG 0.01  C 
ENDBRANCH 30 31
BRANCH 30 34
ATOM     34  N   VAL P   3      29.105   7.685  -5.613  0.50 58.27 LIG-0.35  N 
ATOM     35  C   LEU P   2      28.766   8.706  -4.801  0.50 58.43 LIG 0.24  C 
ATOM     36 O    LEU P   2      29.485   9.462  -4.167  0.50 58.37 LIG-0.27  OA
ATOM     37 H    VAL P   3      28.434   7.184  -5.811  0.50 58.27 LIG 0.16  HD
BRANCH 35 38
ATOM     38  CA  LEU P   2      27.248   8.621  -4.819  0.50 58.44 LIG 0.18  C 
BRANCH 38 39
ATOM     39  N   LEU P   2      26.517   7.838  -5.806  0.50 58.68 LIG-0.35  N 
ATOM     40 H    LEU P   2      26.195   7.048  -5.691  0.50 58.68 LIG 0.16  HD
ATOM     41  C   ALA P   1      26.558   8.721  -6.779  0.50 58.87 LIG 0.25  C 
ATOM     42 O    ALA P   1      27.182   9.754  -6.556  0.50 59.28 LIG-0.27  OA
BRANCH 41 43
ATOM     43  CA  ALA P   1      25.908   8.590  -8.146  0.50 58.66 LIG 0.27  C 
ATOM     44  CB  ALA P   1      26.410   9.618  -9.141  0.50 57.92 LIG 0.05  C 
BRANCH 43 45
ATOM     45  N   ALA P   1      24.435   8.727  -7.997  0.50 58.63 LIG-0.07  N 
ATOM     46 H1   ALA P   1      24.246   9.035  -7.183  0.50 58.63 LIG 0.28  HD
ATOM     47 H2   ALA P   1      24.126   9.297  -8.607  0.50 58.63 LIG 0.28  HD
ATOM     48 H3   ALA P   1      24.049   7.933  -8.110  0.50 58.63 LIG 0.28  HD
ENDBRANCH 43 45
ENDBRANCH 41 43
ENDBRANCH 38 39
BRANCH 38 49
ATOM     49  CB  LEU P   2      26.606   8.422  -3.440  0.50 58.10 LIG 0.04  C 
BRANCH 49 50
ATOM     50  CG  LEU P   2      27.508   7.801  -2.366  0.50 57.94 LIG-0.02  C 
ATOM     51  CD2 LEU P   2      27.758   6.341  -2.657  0.50 57.90 LIG 0.01  C 
ATOM     52  CD1 LEU P   2      26.886   7.960  -0.993  0.50 57.66 LIG 0.01  C 
ENDBRANCH 49 50
ENDBRANCH 38 49
ENDBRANCH 35 38
ENDBRANCH 30 34
ENDBRANCH 1 30
TORSDOF 21
ENDMDL
MODEL 20
USER: ADFR SOLUTION from run 30
USER: SCORE 18.030460 LL:  -3.982 LR: -16.115 RR:   0.000 FEB:  -9.851
USER: RMSD 9.964933
USER: SEED 29
USER: STATUS searching
USER: GENES 23
USER: genes 0 Translation |==|  0.43586 0.50626 0.46409
USER: genes 1 Rotation |==|  0.59153 0.90653 0.26175 0.63999
USER: genes 2 Torsion [C]-N--CA-[CB] |==|  0.24444
USER: genes 3 Torsion [N]-CA--CB-[CG] |==|  0.01893
USER: genes 4 Torsion [CA]-CB--CG-[CD2] |==|  0.70415
USER: genes 5 Torsion [CE2]-CZ--OH-[HH] |==|  0.36493
USER: genes 6 Torsion [N]-CA--C-[N] |==|  0.47399
USER: genes 7 Torsion [C]-N--CA-[CB] |==|  0.91131
USER: genes 8 Torsion [N]-CA--CB-[CG] |==|  0.28714
USER: genes 9 Torsion [CA]-CB--CG-[CD] |==|  0.53956
USER: genes 10 Torsion [CB]-CG--CD-[CE] |==|  0.42794
USER: genes 11 Torsion [CG]-CD--CE-[NZ] |==|  0.61014
USER: genes 12 Torsion [CD]-CE--NZ-[HZ1] |==|  0.84605
USER: genes 13 Torsion [N]-CA--C-[O] |==|  0.21283
USER: genes 14 Torsion [N]-C--CA-[N] |==|  0.25210
USER: genes 15 Torsion [C]-CA--CB-[CG1] |==|  0.14572
USER: genes 16 Torsion [C]-CA--N-[C] |==|  0.73348
USER: genes 17 Torsion [N]-C--CA-[N] |==|  0.74032
USER: genes 18 Torsion [C]-CA--N-[C] |==|  0.73797
USER: genes 19 Torsion [N]-C--CA-[N] |==|  0.42200
USER: genes 20 Torsion [C]-CA--N-[H1] |==|  0.07042
USER: genes 21 Torsion [C]-CA--CB-[CG] |==|  0.42146
USER: genes 22 Torsion [CA]-CB--CG-[CD2] |==|  0.23306
ROOT
ATOM      1  C   VAL P   3      32.636   5.148  -6.827  0.50 59.03 LIG 0.24  C 
ATOM      2 O    VAL P   3      33.474   5.995  -7.187  0.50 59.49 LIG-0.27  OA
ATOM      3  N   TYR P   4      33.049   4.293  -5.887  0.50 59.73 LIG-0.35  N 
ATOM      4 H    TYR P   4      32.765   3.541  -5.583  0.50 59.73 LIG 0.16  HD
ENDROOT
BRANCH 3 5
ATOM      5  CA  TYR P   4      34.183   4.946  -5.432  0.50 59.99 LIG 0.18  C 
BRANCH 5 6
ATOM      6  CB  TYR P   4      33.707   5.913  -4.303  0.50 59.48 LIG 0.07  C 
BRANCH 6 7
ATOM      7  CG  TYR P   4      32.231   5.828  -3.844  0.50 58.89 LIG-0.06  A 
ATOM      8  CD2 TYR P   4      31.300   6.819  -4.196  0.50 58.48 LIG 0.01  A 
ATOM      9  CE2 TYR P   4      29.952   6.653  -3.933  0.50 57.98 LIG 0.04  A 
ATOM     10  CZ  TYR P   4      29.515   5.533  -3.269  0.50 58.05 LIG 0.07  A 
ATOM     11  CE1 TYR P   4      30.440   4.572  -2.841  0.50 57.81 LIG 0.04  A 
ATOM     12  CD1 TYR P   4      31.805   4.731  -3.145  0.50 58.25 LIG 0.01  A 
BRANCH 10 13
ATOM     13 OH   TYR P   4      28.168   5.353  -3.048  0.50 58.00 LIG-0.36  OA
ATOM     14 HH   TYR P   4      27.947   4.575  -3.278  0.50 58.00 LIG 0.22  HD
ENDBRANCH 10 13
ENDBRANCH 6 7
ENDBRANCH 5 6
BRANCH 5 15
ATOM     15  C   TYR P   4      35.395   4.170  -5.145  0.50 60.88 LIG 0.24  C 
ATOM     16  N   LYS P   5      36.329   5.071  -4.940  0.50 60.84 LIG-0.35  N 
ATOM     17 H    LYS P   5      36.151   5.912  -4.966  0.50 60.84 LIG 0.16  HD
ATOM     18 O    TYR P   4      35.545   2.950  -5.179  0.50 61.26 LIG-0.27  OA
BRANCH 16 19
ATOM     19  CA  LYS P   5      37.727   4.825  -4.654  0.50 61.28 LIG 0.16  C 
BRANCH 19 20
ATOM     20  CB  LYS P   5      37.911   3.551  -3.876  0.50 60.15 LIG 0.03  C 
BRANCH 20 21
ATOM     21  CG  LYS P   5      38.418   2.461  -4.798  0.50 59.32 LIG 0.00  C 
BRANCH 21 22
ATOM     22  CD  LYS P   5      38.287   1.097  -4.152  0.50 58.12 LIG 0.03  C 
BRANCH 22 23
ATOM     23  CE  LYS P   5      38.170  -0.008  -5.172  0.50 56.96 LIG 0.23  C 
BRANCH 23 24
ATOM     24  NZ  LYS P   5      37.184  -1.045  -4.759  0.50 55.60 LIG-0.08  N 
ATOM     25 HZ2  LYS P   5      36.371  -0.685  -4.725  0.50 55.60 LIG 0.27  HD
ATOM     26 HZ1  LYS P   5      37.403  -1.359  -3.955  0.50 55.60 LIG 0.27  HD
ATOM     27 HZ3  LYS P   5      37.189  -1.711  -5.349  0.50 55.60 LIG 0.27  HD
ENDBRANCH 23 24
ENDBRANCH 22 23
ENDBRANCH 21 22
ENDBRANCH 20 21
ENDBRANCH 19 20
BRANCH 19 28
ATOM     28  C   LYS P   5      38.515   4.782  -5.952  0.50 61.70 LIG 0.22  C 
ATOM     29 O    LYS P   5      38.796   5.826  -6.542  0.50 62.43 LIG-0.29  OA
ENDBRANCH 19 28
ENDBRANCH 16 19
ENDBRANCH 5 15
ENDBRANCH 3 5
BRANCH 1 30
ATOM     30  CA  VAL P   3      31.299   5.258  -7.549  0.50 58.35 LIG 0.18  C 
BRANCH 30 31
ATOM     31  CB  VAL P   3      31.670   5.721  -8.969  0.50 57.85 LIG 0.01  C 
ATOM     32  CG1 VAL P   3      32.722   4.830  -9.597  0.50 57.49 LIG 0.01  C 
ATOM     33  CG2 VAL P   3      30.435   5.775  -9.855  0.50 57.23 LIG 0.01  C 
ENDBRANCH 30 31
BRANCH 30 34
ATOM     34  N   VAL P   3      30.047   5.958  -7.353  0.50 58.27 LIG-0.35  N 
ATOM     35  C   LEU P   2      28.801   5.834  -6.854  0.50 58.43 LIG 0.24  C 
ATOM     36 O    LEU P   2      28.204   4.829  -6.504  0.50 58.37 LIG-0.27  OA
ATOM     37 H    VAL P   3      30.191   6.735  -7.693  0.50 58.27 LIG 0.16  HD
BRANCH 35 38
ATOM     38  CA  LEU P   2      28.302   7.269  -6.917  0.50 58.44 LIG 0.18  C 
BRANCH 38 39
ATOM     39  N   LEU P   2      28.410   8.189  -5.793  0.50 58.68 LIG-0.35  N 
ATOM     40 H    LEU P   2      29.092   8.678  -5.601  0.50 58.68 LIG 0.16  HD
ATOM     41  C   ALA P   1      27.214   7.976  -5.291  0.50 58.87 LIG 0.25  C 
ATOM     42 O    ALA P   1      26.527   7.127  -5.851  0.50 59.28 LIG-0.27  OA
BRANCH 41 43
ATOM     43  CA  ALA P   1      26.598   8.680  -4.093  0.50 58.66 LIG 0.27  C 
ATOM     44  CB  ALA P   1      26.961   8.028  -2.774  0.50 57.92 LIG 0.05  C 
BRANCH 43 45
ATOM     45  N   ALA P   1      25.120   8.694  -4.247  0.50 58.63 LIG-0.07  N 
ATOM     46 H1   ALA P   1      24.868   8.014  -4.763  0.50 58.63 LIG 0.28  HD
ATOM     47 H2   ALA P   1      24.737   8.615  -3.447  0.50 58.63 LIG 0.28  HD
ATOM     48 H3   ALA P   1      24.867   9.460  -4.622  0.50 58.63 LIG 0.28  HD
ENDBRANCH 43 45
ENDBRANCH 41 43
ENDBRANCH 38 39
BRANCH 38 49
ATOM     49  CB  LEU P   2      28.658   8.010  -8.213  0.50 58.10 LIG 0.04  C 
BRANCH 49 50
ATOM     50  CG  LEU P   2      27.689   9.120  -8.636  0.50 57.94 LIG-0.02  C 
ATOM     51  CD2 LEU P   2      28.011  10.412  -7.924  0.50 57.90 LIG 0.01  C 
ATOM     52  CD1 LEU P   2      26.257   8.711  -8.352  0.50 57.66 LIG 0.01  C 
ENDBRANCH 49 50
ENDBRANCH 38 49
ENDBRANCH 35 38
ENDBRANCH 30 34
ENDBRANCH 1 30
TORSDOF 21
ENDMDL
MODEL 21
USER: ADFR SOLUTION from run 92
USER: SCORE 18.589359 LL:  -3.893 LR: -16.062 RR:   0.000 FEB:  -9.798
USER: RMSD 8.594298
USER: SEED 91
USER: STATUS no improvement in best 5 clusters for 5 generations
USER: GENES 23
USER: genes 0 Translation |==|  0.33874 0.53309 0.48591
USER: genes 1 Rotation |==|  0.19579 0.63333 0.78243 0.74477
USER: genes 2 Torsion [C]-N--CA-[CB] |==|  0.29408
USER: genes 3 Torsion [N]-CA--CB-[CG] |==|  0.99087
USER: genes 4 Torsion [CA]-CB--CG-[CD2] |==|  0.74108
USER: genes 5 Torsion [CE2]-CZ--OH-[HH] |==|  0.54374
USER: genes 6 Torsion [N]-CA--C-[N] |==|  0.99649
USER: genes 7 Torsion [C]-N--CA-[CB] |==|  0.71435
USER: genes 8 Torsion [N]-CA--CB-[CG] |==|  0.88849
USER: genes 9 Torsion [CA]-CB--CG-[CD] |==|  0.27618
USER: genes 10 Torsion [CB]-CG--CD-[CE] |==|  0.38922
USER: genes 11 Torsion [CG]-CD--CE-[NZ] |==|  0.77457
USER: genes 12 Torsion [CD]-CE--NZ-[HZ1] |==|  0.61385
USER: genes 13 Torsion [N]-CA--C-[O] |==|  0.33204
USER: genes 14 Torsion [N]-C--CA-[N] |==|  0.44689
USER: genes 15 Torsion [C]-CA--CB-[CG1] |==|  0.15721
USER: genes 16 Torsion [C]-CA--N-[C] |==|  0.76754
USER: genes 17 Torsion [N]-C--CA-[N] |==|  0.39168
USER: genes 18 Torsion [C]-CA--N-[C] |==|  0.70672
USER: genes 19 Torsion [N]-C--CA-[N] |==|  0.13933
USER: genes 20 Torsion [C]-CA--N-[H1] |==|  0.17941
USER: genes 21 Torsion [C]-CA--CB-[CG] |==|  0.58906
USER: genes 22 Torsion [CA]-CB--CG-[CD2] |==|  0.65673
ROOT
ATOM      1  C   VAL P   3      29.722   5.953  -6.173  0.50 59.03 LIG 0.24  C 
ATOM      2 O    VAL P   3      28.808   5.107  -6.168  0.50 59.49 LIG-0.27  OA
ATOM      3  N   TYR P   4      30.012   6.492  -4.985  0.50 59.73 LIG-0.35  N 
ATOM      4 H    TYR P   4      30.452   7.183  -4.723  0.50 59.73 LIG 0.16  HD
ENDROOT
BRANCH 3 5
ATOM      5  CA  TYR P   4      29.376   5.599  -4.139  0.50 59.99 LIG 0.18  C 
BRANCH 5 6
ATOM      6  CB  TYR P   4      30.504   4.742  -3.481  0.50 59.48 LIG 0.07  C 
BRANCH 6 7
ATOM      7  CG  TYR P   4      31.964   4.989  -3.933  0.50 58.89 LIG-0.06  A 
ATOM      8  CD2 TYR P   4      32.545   4.230  -4.963  0.50 58.48 LIG 0.01  A 
ATOM      9  CE2 TYR P   4      33.784   4.567  -5.480  0.50 57.98 LIG 0.04  A 
ATOM     10  CZ  TYR P   4      34.486   5.619  -4.948  0.50 58.05 LIG 0.07  A 
ATOM     11  CE1 TYR P   4      33.956   6.336  -3.868  0.50 57.81 LIG 0.04  A 
ATOM     12  CD1 TYR P   4      32.679   6.011  -3.372  0.50 58.25 LIG 0.01  A 
BRANCH 10 13
ATOM     13 OH   TYR P   4      35.700   5.975  -5.495  0.50 58.00 LIG-0.36  OA
ATOM     14 HH   TYR P   4      36.113   6.474  -4.960  0.50 58.00 LIG 0.22  HD
ENDBRANCH 10 13
ENDBRANCH 6 7
ENDBRANCH 5 6
BRANCH 5 15
ATOM     15  C   TYR P   4      28.327   6.084  -3.233  0.50 60.88 LIG 0.24  C 
ATOM     16  N   LYS P   5      28.265   7.378  -3.457  0.50 60.84 LIG-0.35  N 
ATOM     17 H    LYS P   5      28.761   7.752  -4.052  0.50 60.84 LIG 0.16  HD
ATOM     18 O    TYR P   4      27.704   5.454  -2.381  0.50 61.26 LIG-0.27  OA
BRANCH 16 19
ATOM     19  CA  LYS P   5      27.409   8.335  -2.788  0.50 61.28 LIG 0.16  C 
BRANCH 19 20
ATOM     20  CB  LYS P   5      26.237   8.717  -3.649  0.50 60.15 LIG 0.03  C 
BRANCH 20 21
ATOM     21  CG  LYS P   5      26.690   8.871  -5.086  0.50 59.32 LIG 0.00  C 
BRANCH 21 22
ATOM     22  CD  LYS P   5      26.366   7.632  -5.895  0.50 58.12 LIG 0.03  C 
BRANCH 22 23
ATOM     23  CE  LYS P   5      25.880   7.968  -7.283  0.50 56.96 LIG 0.23  C 
BRANCH 23 24
ATOM     24  NZ  LYS P   5      24.437   8.335  -7.293  0.50 55.60 LIG-0.08  N 
ATOM     25 HZ2  LYS P   5      24.048   8.034  -6.551  0.50 55.60 LIG 0.27  HD
ATOM     26 HZ1  LYS P   5      24.043   7.970  -8.003  0.50 55.60 LIG 0.27  HD
ATOM     27 HZ3  LYS P   5      24.355   9.220  -7.332  0.50 55.60 LIG 0.27  HD
ENDBRANCH 23 24
ENDBRANCH 22 23
ENDBRANCH 21 22
ENDBRANCH 20 21
ENDBRANCH 19 20
BRANCH 19 28
ATOM     28  C   LYS P   5      26.941   7.762  -1.462  0.50 61.70 LIG 0.22  C 
ATOM     29 O    LYS P   5      27.216   8.334  -0.407  0.50 62.43 LIG-0.29  OA
ENDBRANCH 19 28
ENDBRANCH 16 19
ENDBRANCH 5 15
ENDBRANCH 3 5
BRANCH 1 30
ATOM     30  CA  VAL P   3      30.322   6.205  -7.549  0.50 58.35 LIG 0.18  C 
BRANCH 30 31
ATOM     31  CB  VAL P   3      29.733   7.561  -7.979  0.50 57.85 LIG 0.01  C 
ATOM     32  CG1 VAL P   3      30.034   8.652  -6.972  0.50 57.49 LIG 0.01  C 
ATOM     33  CG2 VAL P   3      30.250   7.959  -9.352  0.50 57.23 LIG 0.01  C 
ENDBRANCH 30 31
BRANCH 30 34
ATOM     34  N   VAL P   3      30.375   5.517  -8.821  0.50 58.27 LIG-0.35  N 
ATOM     35  C   LEU P   2      31.036   4.570  -9.517  0.50 58.43 LIG 0.24  C 
ATOM     36 O    LEU P   2      32.106   4.035  -9.271  0.50 58.37 LIG-0.27  OA
ATOM     37 H    VAL P   3      29.732   5.868  -9.273  0.50 58.27 LIG 0.16  HD
BRANCH 35 38
ATOM     38  CA  LEU P   2      30.139   4.400 -10.733  0.50 58.44 LIG 0.18  C 
BRANCH 38 39
ATOM     39  N   LEU P   2      30.666   4.199 -12.076  0.50 58.68 LIG-0.35  N 
ATOM     40 H    LEU P   2      31.018   3.475 -12.381  0.50 58.68 LIG 0.16  HD
ATOM     41  C   ALA P   1      30.409   5.404 -12.534  0.50 58.87 LIG 0.25  C 
ATOM     42 O    ALA P   1      29.925   6.202 -11.738  0.50 59.28 LIG-0.27  OA
BRANCH 41 43
ATOM     43  CA  ALA P   1      30.648   5.902 -13.951  0.50 58.66 LIG 0.27  C 
ATOM     44  CB  ALA P   1      30.064   7.278 -14.199  0.50 57.92 LIG 0.05  C 
BRANCH 43 45
ATOM     45  N   ALA P   1      30.054   4.934 -14.910  0.50 58.63 LIG-0.07  N 
ATOM     46 H1   ALA P   1      29.170   4.914 -14.804  0.50 58.63 LIG 0.28  HD
ATOM     47 H2   ALA P   1      30.247   5.184 -15.743  0.50 58.63 LIG 0.28  HD
ATOM     48 H3   ALA P   1      30.389   4.123 -14.760  0.50 58.63 LIG 0.28  HD
ENDBRANCH 43 45
ENDBRANCH 41 43
ENDBRANCH 38 39
BRANCH 38 49
ATOM     49  CB  LEU P   2      28.942   3.465 -10.514  0.50 58.10 LIG 0.04  C 
BRANCH 49 50
ATOM     50  CG  LEU P   2      28.484   2.669 -11.742  0.50 57.94 LIG-0.02  C 
ATOM     51  CD2 LEU P   2      27.026   2.931 -12.034  0.50 57.90 LIG 0.01  C 
ATOM     52  CD1 LEU P   2      28.715   1.186 -11.530  0.50 57.66 LIG 0.01  C 
ENDBRANCH 49 50
ENDBRANCH 38 49
ENDBRANCH 35 38
ENDBRANCH 30 34
ENDBRANCH 1 30
TORSDOF 21
ENDMDL
MODEL 22
USER: ADFR SOLUTION from run 136
USER: SCORE 19.289281 LL:  -4.207 LR: -16.020 RR:   0.000 FEB:  -9.755
USER: RMSD 7.061403
USER: SEED 135
USER: STATUS no improvement in best 3 clusters for 5 generations
USER: GENES 23
USER: genes 0 Translation |==|  0.36786 0.54516 0.48636
USER: genes 1 Rotation |==|  0.14575 0.56482 0.73869 0.75166
USER: genes 2 Torsion [C]-N--CA-[CB] |==|  0.26665
USER: genes 3 Torsion [N]-CA--CB-[CG] |==|  0.95454
USER: genes 4 Torsion [CA]-CB--CG-[CD2] |==|  0.73589
USER: genes 5 Torsion [CE2]-CZ--OH-[HH] |==|  0.48526
USER: genes 6 Torsion [N]-CA--C-[N] |==|  0.96359
USER: genes 7 Torsion [C]-N--CA-[CB] |==|  0.78830
USER: genes 8 Torsion [N]-CA--CB-[CG] |==|  0.87124
USER: genes 9 Torsion [CA]-CB--CG-[CD] |==|  0.30362
USER: genes 10 Torsion [CB]-CG--CD-[CE] |==|  0.38777
USER: genes 11 Torsion [CG]-CD--CE-[NZ] |==|  0.74770
USER: genes 12 Torsion [CD]-CE--NZ-[HZ1] |==|  0.93315
USER: genes 13 Torsion [N]-CA--C-[O] |==|  0.32865
USER: genes 14 Torsion [N]-C--CA-[N] |==|  0.42313
USER: genes 15 Torsion [C]-CA--CB-[CG1] |==|  0.82248
USER: genes 16 Torsion [C]-CA--N-[C] |==|  0.76337
USER: genes 17 Torsion [N]-C--CA-[N] |==|  0.98427
USER: genes 18 Torsion [C]-CA--N-[C] |==|  0.74172
USER: genes 19 Torsion [N]-C--CA-[N] |==|  0.66911
USER: genes 20 Torsion [C]-CA--N-[H1] |==|  0.49458
USER: genes 21 Torsion [C]-CA--CB-[CG] |==|  0.16046
USER: genes 22 Torsion [CA]-CB--CG-[CD2] |==|  0.69341
ROOT
ATOM      1  C   VAL P   3      30.596   6.315  -6.159  0.50 59.03 LIG 0.24  C 
ATOM      2 O    VAL P   3      29.849   5.373  -6.485  0.50 59.49 LIG-0.27  OA
ATOM      3  N   TYR P   4      30.380   6.826  -4.944  0.50 59.73 LIG-0.35  N 
ATOM      4 H    TYR P   4      30.613   7.548  -4.539  0.50 59.73 LIG 0.16  HD
ENDROOT
BRANCH 3 5
ATOM      5  CA  TYR P   4      29.600   5.827  -4.384  0.50 59.99 LIG 0.18  C 
BRANCH 5 6
ATOM      6  CB  TYR P   4      30.574   4.917  -3.571  0.50 59.48 LIG 0.07  C 
BRANCH 6 7
ATOM      7  CG  TYR P   4      32.091   5.035  -3.856  0.50 58.89 LIG-0.06  A 
ATOM      8  CD2 TYR P   4      32.732   4.167  -4.757  0.50 58.48 LIG 0.01  A 
ATOM      9  CE2 TYR P   4      34.044   4.384  -5.139  0.50 57.98 LIG 0.04  A 
ATOM     10  CZ  TYR P   4      34.754   5.424  -4.594  0.50 58.05 LIG 0.07  A 
ATOM     11  CE1 TYR P   4      34.155   6.250  -3.635  0.50 57.81 LIG 0.04  A 
ATOM     12  CD1 TYR P   4      32.809   6.046  -3.279  0.50 58.25 LIG 0.01  A 
BRANCH 10 13
ATOM     13 OH   TYR P   4      36.046   5.660  -5.011  0.50 58.00 LIG-0.36  OA
ATOM     14 HH   TYR P   4      36.333   6.364  -4.652  0.50 58.00 LIG 0.22  HD
ENDBRANCH 10 13
ENDBRANCH 6 7
ENDBRANCH 5 6
BRANCH 5 15
ATOM     15  C   TYR P   4      28.344   6.184  -3.713  0.50 60.88 LIG 0.24  C 
ATOM     16  N   LYS P   5      28.402   7.489  -3.567  0.50 60.84 LIG-0.35  N 
ATOM     17 H    LYS P   5      29.070   7.942  -3.865  0.50 60.84 LIG 0.16  HD
ATOM     18 O    TYR P   4      27.467   5.434  -3.289  0.50 61.26 LIG-0.27  OA
BRANCH 16 19
ATOM     19  CA  LYS P   5      27.418   8.336  -2.924  0.50 61.28 LIG 0.16  C 
BRANCH 19 20
ATOM     20  CB  LYS P   5      26.219   8.550  -3.806  0.50 60.15 LIG 0.03  C 
BRANCH 20 21
ATOM     21  CG  LYS P   5      26.675   8.893  -5.209  0.50 59.32 LIG 0.00  C 
BRANCH 21 22
ATOM     22  CD  LYS P   5      26.395   7.754  -6.167  0.50 58.12 LIG 0.03  C 
BRANCH 22 23
ATOM     23  CE  LYS P   5      25.894   8.243  -7.503  0.50 56.96 LIG 0.23  C 
BRANCH 23 24
ATOM     24  NZ  LYS P   5      24.408   8.335  -7.540  0.50 55.60 LIG-0.08  N 
ATOM     25 HZ2  LYS P   5      24.157   9.169  -7.357  0.50 55.60 LIG 0.27  HD
ATOM     26 HZ1  LYS P   5      24.061   7.782  -6.936  0.50 55.60 LIG 0.27  HD
ATOM     27 HZ3  LYS P   5      24.116   8.109  -8.350  0.50 55.60 LIG 0.27  HD
ENDBRANCH 23 24
ENDBRANCH 22 23
ENDBRANCH 21 22
ENDBRANCH 20 21
ENDBRANCH 19 20
BRANCH 19 28
ATOM     28  C   LYS P   5      27.008   7.725  -1.595  0.50 61.70 LIG 0.22  C 
ATOM     29 O    LYS P   5      27.212   8.333  -0.544  0.50 62.43 LIG-0.29  OA
ENDBRANCH 19 28
ENDBRANCH 16 19
ENDBRANCH 5 15
ENDBRANCH 3 5
BRANCH 1 30
ATOM     30  CA  VAL P   3      31.608   6.698  -7.230  0.50 58.35 LIG 0.18  C 
BRANCH 30 31
ATOM     31  CB  VAL P   3      30.943   7.867  -7.981  0.50 57.85 LIG 0.01  C 
ATOM     32  CG1 VAL P   3      29.672   7.436  -8.683  0.50 57.49 LIG 0.01  C 
ATOM     33  CG2 VAL P   3      30.651   9.018  -7.032  0.50 57.23 LIG 0.01  C 
ENDBRANCH 30 31
BRANCH 30 34
ATOM     34  N   VAL P   3      32.299   6.037  -8.317  0.50 58.27 LIG-0.35  N 
ATOM     35  C   LEU P   2      33.382   5.293  -8.622  0.50 58.43 LIG 0.24  C 
ATOM     36 O    LEU P   2      34.376   5.064  -7.952  0.50 58.37 LIG-0.27  OA
ATOM     37 H    VAL P   3      31.808   6.200  -9.004  0.50 58.27 LIG 0.16  HD
BRANCH 35 38
ATOM     38  CA  LEU P   2      33.076   4.879 -10.052  0.50 58.44 LIG 0.18  C 
BRANCH 38 39
ATOM     39  N   LEU P   2      31.810   5.184 -10.705  0.50 58.68 LIG-0.35  N 
ATOM     40 H    LEU P   2      31.621   5.906 -11.133  0.50 58.68 LIG 0.16  HD
ATOM     41  C   ALA P   1      31.195   4.063 -10.403  0.50 58.87 LIG 0.25  C 
ATOM     42 O    ALA P   1      31.815   3.268  -9.704  0.50 59.28 LIG-0.27  OA
BRANCH 41 43
ATOM     43  CA  ALA P   1      29.797   3.653 -10.838  0.50 58.66 LIG 0.27  C 
ATOM     44  CB  ALA P   1      29.142   4.668 -11.754  0.50 57.92 LIG 0.05  C 
BRANCH 43 45
ATOM     45  N   ALA P   1      28.952   3.460  -9.631  0.50 58.63 LIG-0.07  N 
ATOM     46 H1   ALA P   1      28.123   3.247  -9.879  0.50 58.63 LIG 0.28  HD
ATOM     47 H2   ALA P   1      29.289   2.803  -9.133  0.50 58.63 LIG 0.28  HD
ATOM     48 H3   ALA P   1      28.935   4.213  -9.156  0.50 58.63 LIG 0.28  HD
ENDBRANCH 43 45
ENDBRANCH 41 43
ENDBRANCH 38 39
BRANCH 38 49
ATOM     49  CB  LEU P   2      34.225   5.113 -11.042  0.50 58.10 LIG 0.04  C 
BRANCH 49 50
ATOM     50  CG  LEU P   2      35.549   4.417 -10.706  0.50 57.94 LIG-0.02  C 
ATOM     51  CD2 LEU P   2      36.595   5.426 -10.299  0.50 57.90 LIG 0.01  C 
ATOM     52  CD1 LEU P   2      36.038   3.606 -11.889  0.50 57.66 LIG 0.01  C 
ENDBRANCH 49 50
ENDBRANCH 38 49
ENDBRANCH 35 38
ENDBRANCH 30 34
ENDBRANCH 1 30
TORSDOF 21
ENDMDL
MODEL 23
USER: ADFR SOLUTION from run 18
USER: SCORE 18.718085 LL:  -4.576 LR: -15.993 RR:   0.000 FEB:  -9.729
USER: RMSD 9.579106
USER: SEED 17
USER: STATUS no improvement in best 4 clusters for 5 generations
USER: GENES 23
USER: genes 0 Translation |==|  0.46626 0.53027 0.53846
USER: genes 1 Rotation |==|  0.62170 0.55260 0.97310 0.59272
USER: genes 2 Torsion [C]-N--CA-[CB] |==|  0.25583
USER: genes 3 Torsion [N]-CA--CB-[CG] |==|  0.79173
USER: genes 4 Torsion [CA]-CB--CG-[CD2] |==|  0.22810
USER: genes 5 Torsion [CE2]-CZ--OH-[HH] |==|  0.86196
USER: genes 6 Torsion [N]-CA--C-[N] |==|  0.36275
USER: genes 7 Torsion [C]-N--CA-[CB] |==|  0.22589
USER: genes 8 Torsion [N]-CA--CB-[CG] |==|  0.59613
USER: genes 9 Torsion [CA]-CB--CG-[CD] |==|  0.28776
USER: genes 10 Torsion [CB]-CG--CD-[CE] |==|  0.76885
USER: genes 11 Torsion [CG]-CD--CE-[NZ] |==|  0.37544
USER: genes 12 Torsion [CD]-CE--NZ-[HZ1] |==|  0.72282
USER: genes 13 Torsion [N]-CA--C-[O] |==|  0.66998
USER: genes 14 Torsion [N]-C--CA-[N] |==|  0.19102
USER: genes 15 Torsion [C]-CA--CB-[CG1] |==|  0.42263
USER: genes 16 Torsion [C]-CA--N-[C] |==|  0.81111
USER: genes 17 Torsion [N]-C--CA-[N] |==|  0.31587
USER: genes 18 Torsion [C]-CA--N-[C] |==|  0.71751
USER: genes 19 Torsion [N]-C--CA-[N] |==|  0.01984
USER: genes 20 Torsion [C]-CA--N-[H1] |==|  0.47796
USER: genes 21 Torsion [C]-CA--CB-[CG] |==|  0.44103
USER: genes 22 Torsion [CA]-CB--CG-[CD2] |==|  0.58373
ROOT
ATOM      1  C   VAL P   3      33.548   5.868  -4.596  0.50 59.03 LIG 0.24  C 
ATOM      2 O    VAL P   3      33.351   4.649  -4.756  0.50 59.49 LIG-0.27  OA
ATOM      3  N   TYR P   4      34.803   6.279  -4.796  0.50 59.73 LIG-0.35  N 
ATOM      4 H    TYR P   4      35.246   6.991  -4.606  0.50 59.73 LIG 0.16  HD
ENDROOT
BRANCH 3 5
ATOM      5  CA  TYR P   4      35.326   5.183  -5.463  0.50 59.99 LIG 0.18  C 
BRANCH 5 6
ATOM      6  CB  TYR P   4      35.133   5.466  -6.986  0.50 59.48 LIG 0.07  C 
BRANCH 6 7
ATOM      7  CG  TYR P   4      33.710   5.321  -7.580  0.50 58.89 LIG-0.06  A 
ATOM      8  CD2 TYR P   4      32.767   6.356  -7.471  0.50 58.48 LIG 0.01  A 
ATOM      9  CE2 TYR P   4      31.562   6.292  -8.149  0.50 57.98 LIG 0.04  A 
ATOM     10  CZ  TYR P   4      31.253   5.182  -8.896  0.50 58.05 LIG 0.07  A 
ATOM     11  CE1 TYR P   4      32.149   4.107  -8.950  0.50 57.81 LIG 0.04  A 
ATOM     12  CD1 TYR P   4      33.388   4.195  -8.288  0.50 58.25 LIG 0.01  A 
BRANCH 10 13
ATOM     13 OH   TYR P   4      30.071   5.143  -9.602  0.50 58.00 LIG-0.36  OA
ATOM     14 HH   TYR P   4      29.435   5.360  -9.098  0.50 58.00 LIG 0.22  HD
ENDBRANCH 10 13
ENDBRANCH 6 7
ENDBRANCH 5 6
BRANCH 5 15
ATOM     15  C   TYR P   4      36.638   4.657  -5.068  0.50 60.88 LIG 0.24  C 
ATOM     16  N   LYS P   5      36.452   3.364  -4.926  0.50 60.84 LIG-0.35  N 
ATOM     17 H    LYS P   5      35.687   3.004  -5.085  0.50 60.84 LIG 0.16  HD
ATOM     18 O    TYR P   4      37.668   5.284  -4.825  0.50 61.26 LIG-0.27  OA
BRANCH 16 19
ATOM     19  CA  LYS P   5      37.433   2.386  -4.507  0.50 61.28 LIG 0.16  C 
BRANCH 19 20
ATOM     20  CB  LYS P   5      37.584   2.366  -3.012  0.50 60.15 LIG 0.03  C 
BRANCH 20 21
ATOM     21  CG  LYS P   5      39.025   2.074  -2.650  0.50 59.32 LIG 0.00  C 
BRANCH 21 22
ATOM     22  CD  LYS P   5      39.741   3.334  -2.206  0.50 58.12 LIG 0.03  C 
BRANCH 22 23
ATOM     23  CE  LYS P   5      40.252   4.141  -3.374  0.50 56.96 LIG 0.23  C 
BRANCH 23 24
ATOM     24  NZ  LYS P   5      39.963   5.593  -3.215  0.50 55.60 LIG-0.08  N 
ATOM     25 HZ2  LYS P   5      39.810   5.774  -2.357  0.50 55.60 LIG 0.27  HD
ATOM     26 HZ1  LYS P   5      39.245   5.807  -3.695  0.50 55.60 LIG 0.27  HD
ATOM     27 HZ3  LYS P   5      40.660   6.068  -3.498  0.50 55.60 LIG 0.27  HD
ENDBRANCH 23 24
ENDBRANCH 22 23
ENDBRANCH 21 22
ENDBRANCH 20 21
ENDBRANCH 19 20
BRANCH 19 28
ATOM     28  C   LYS P   5      37.042   1.014  -5.029  0.50 61.70 LIG 0.22  C 
ATOM     29 O    LYS P   5      36.810   0.095  -4.243  0.50 62.43 LIG-0.29  OA
ENDBRANCH 19 28
ENDBRANCH 16 19
ENDBRANCH 5 15
ENDBRANCH 3 5
BRANCH 1 30
ATOM     30  CA  VAL P   3      32.302   6.646  -4.193  0.50 58.35 LIG 0.18  C 
BRANCH 30 31
ATOM     31  CB  VAL P   3      31.277   5.558  -3.824  0.50 57.85 LIG 0.01  C 
ATOM     32  CG1 VAL P   3      30.273   6.052  -2.803  0.50 57.49 LIG 0.01  C 
ATOM     33  CG2 VAL P   3      30.556   5.058  -5.066  0.50 57.23 LIG 0.01  C 
ENDBRANCH 30 31
BRANCH 30 34
ATOM     34  N   VAL P   3      31.438   7.641  -4.791  0.50 58.27 LIG-0.35  N 
ATOM     35  C   LEU P   2      31.385   8.923  -5.208  0.50 58.43 LIG 0.24  C 
ATOM     36 O    LEU P   2      32.166   9.837  -5.000  0.50 58.37 LIG-0.27  OA
ATOM     37 H    VAL P   3      30.695   7.225  -4.909  0.50 58.27 LIG 0.16  HD
BRANCH 35 38
ATOM     38  CA  LEU P   2      30.053   8.950  -5.941  0.50 58.44 LIG 0.18  C 
BRANCH 38 39
ATOM     39  N   LEU P   2      28.915   9.730  -5.473  0.50 58.68 LIG-0.35  N 
ATOM     40 H    LEU P   2      28.807  10.579  -5.568  0.50 58.68 LIG 0.16  HD
ATOM     41  C   ALA P   1      28.244   8.736  -4.937  0.50 58.87 LIG 0.25  C 
ATOM     42 O    ALA P   1      28.782   7.633  -4.963  0.50 59.28 LIG-0.27  OA
BRANCH 41 43
ATOM     43  CA  ALA P   1      26.869   8.816  -4.293  0.50 58.66 LIG 0.27  C 
ATOM     44  CB  ALA P   1      25.902   7.781  -4.833  0.50 57.92 LIG 0.05  C 
BRANCH 43 45
ATOM     45  N   ALA P   1      26.310  10.176  -4.514  0.50 58.63 LIG-0.07  N 
ATOM     46 H1   ALA P   1      25.463  10.197  -4.242  0.50 58.63 LIG 0.28  HD
ATOM     47 H2   ALA P   1      26.783  10.771  -4.051  0.50 58.63 LIG 0.28  HD
ATOM     48 H3   ALA P   1      26.349  10.376  -5.380  0.50 58.63 LIG 0.28  HD
ENDBRANCH 43 45
ENDBRANCH 41 43
ENDBRANCH 38 39
BRANCH 38 49
ATOM     49  CB  LEU P   2      30.168   9.088  -7.465  0.50 58.10 LIG 0.04  C 
BRANCH 49 50
ATOM     50  CG  LEU P   2      28.949   8.624  -8.271  0.50 57.94 LIG-0.02  C 
ATOM     51  CD2 LEU P   2      29.370   8.110  -9.627  0.50 57.90 LIG 0.01  C 
ATOM     52  CD1 LEU P   2      27.953   9.756  -8.428  0.50 57.66 LIG 0.01  C 
ENDBRANCH 49 50
ENDBRANCH 38 49
ENDBRANCH 35 38
ENDBRANCH 30 34
ENDBRANCH 1 30
TORSDOF 21
ENDMDL
MODEL 24
USER: ADFR SOLUTION from run 30
USER: SCORE 18.364869 LL:  -4.089 LR: -15.978 RR:   0.000 FEB:  -9.713
USER: RMSD 10.103566
USER: SEED 29
USER: STATUS searching
USER: GENES 23
USER: genes 0 Translation |==|  0.42977 0.50687 0.46339
USER: genes 1 Rotation |==|  0.52017 0.94733 0.30290 0.60313
USER: genes 2 Torsion [C]-N--CA-[CB] |==|  0.24425
USER: genes 3 Torsion [N]-CA--CB-[CG] |==|  0.95598
USER: genes 4 Torsion [CA]-CB--CG-[CD2] |==|  0.72356
USER: genes 5 Torsion [CE2]-CZ--OH-[HH] |==|  0.28101
USER: genes 6 Torsion [N]-CA--C-[N] |==|  0.81710
USER: genes 7 Torsion [C]-N--CA-[CB] |==|  0.22606
USER: genes 8 Torsion [N]-CA--CB-[CG] |==|  0.75939
USER: genes 9 Torsion [CA]-CB--CG-[CD] |==|  0.62401
USER: genes 10 Torsion [CB]-CG--CD-[CE] |==|  0.91933
USER: genes 11 Torsion [CG]-CD--CE-[NZ] |==|  0.67823
USER: genes 12 Torsion [CD]-CE--NZ-[HZ1] |==|  0.00444
USER: genes 13 Torsion [N]-CA--C-[O] |==|  0.30152
USER: genes 14 Torsion [N]-C--CA-[N] |==|  0.35270
USER: genes 15 Torsion [C]-CA--CB-[CG1] |==|  0.72980
USER: genes 16 Torsion [C]-CA--N-[C] |==|  0.64475
USER: genes 17 Torsion [N]-C--CA-[N] |==|  0.76368
USER: genes 18 Torsion [C]-CA--N-[C] |==|  0.72668
USER: genes 19 Torsion [N]-C--CA-[N] |==|  0.36191
USER: genes 20 Torsion [C]-CA--N-[H1] |==|  0.08712
USER: genes 21 Torsion [C]-CA--CB-[CG] |==|  0.40638
USER: genes 22 Torsion [CA]-CB--CG-[CD2] |==|  0.21409
ROOT
ATOM      1  C   VAL P   3      32.453   5.166  -6.848  0.50 59.03 LIG 0.24  C 
ATOM      2 O    VAL P   3      32.955   6.237  -7.239  0.50 59.49 LIG-0.27  OA
ATOM      3  N   TYR P   4      33.288   4.336  -6.218  0.50 59.73 LIG-0.35  N 
ATOM      4 H    TYR P   4      33.268   3.504  -6.000  0.50 59.73 LIG 0.16  HD
ENDROOT
BRANCH 3 5
ATOM      5  CA  TYR P   4      34.340   5.195  -5.943  0.50 59.99 LIG 0.18  C 
BRANCH 5 6
ATOM      6  CB  TYR P   4      34.011   5.863  -4.571  0.50 59.48 LIG 0.07  C 
BRANCH 6 7
ATOM      7  CG  TYR P   4      32.559   5.767  -4.042  0.50 58.89 LIG-0.06  A 
ATOM      8  CD2 TYR P   4      31.658   6.835  -4.189  0.50 58.48 LIG 0.01  A 
ATOM      9  CE2 TYR P   4      30.319   6.683  -3.874  0.50 57.98 LIG 0.04  A 
ATOM     10  CZ  TYR P   4      29.867   5.494  -3.356  0.50 58.05 LIG 0.07  A 
ATOM     11  CE1 TYR P   4      30.768   4.446  -3.129  0.50 57.81 LIG 0.04  A 
ATOM     12  CD1 TYR P   4      32.121   4.596  -3.487  0.50 58.25 LIG 0.01  A 
BRANCH 10 13
ATOM     13 OH   TYR P   4      28.526   5.335  -3.084  0.50 58.00 LIG-0.36  OA
ATOM     14 HH   TYR P   4      28.166   4.890  -3.699  0.50 58.00 LIG 0.22  HD
ENDBRANCH 10 13
ENDBRANCH 6 7
ENDBRANCH 5 6
BRANCH 5 15
ATOM     15  C   TYR P   4      35.720   4.723  -6.114  0.50 60.88 LIG 0.24  C 
ATOM     16  N   LYS P   5      35.867   3.785  -5.204  0.50 60.84 LIG-0.35  N 
ATOM     17 H    LYS P   5      35.217   3.557  -4.690  0.50 60.84 LIG 0.16  HD
ATOM     18 O    TYR P   4      36.587   5.161  -6.867  0.50 61.26 LIG-0.27  OA
BRANCH 16 19
ATOM     19  CA  LYS P   5      37.068   3.024  -4.929  0.50 61.28 LIG 0.16  C 
BRANCH 19 20
ATOM     20  CB  LYS P   5      38.017   3.795  -4.055  0.50 60.15 LIG 0.03  C 
BRANCH 20 21
ATOM     21  CG  LYS P   5      38.901   4.673  -4.917  0.50 59.32 LIG 0.00  C 
BRANCH 21 22
ATOM     22  CD  LYS P   5      40.348   4.592  -4.474  0.50 58.12 LIG 0.03  C 
BRANCH 22 23
ATOM     23  CE  LYS P   5      40.477   4.297  -3.000  0.50 56.96 LIG 0.23  C 
BRANCH 23 24
ATOM     24  NZ  LYS P   5      41.117   5.421  -2.262  0.50 55.60 LIG-0.08  N 
ATOM     25 HZ2  LYS P   5      40.567   5.710  -1.625  0.50 55.60 LIG 0.27  HD
ATOM     26 HZ1  LYS P   5      41.292   6.086  -2.827  0.50 55.60 LIG 0.27  HD
ATOM     27 HZ3  LYS P   5      41.876   5.140  -1.892  0.50 55.60 LIG 0.27  HD
ENDBRANCH 23 24
ENDBRANCH 22 23
ENDBRANCH 21 22
ENDBRANCH 20 21
ENDBRANCH 19 20
BRANCH 19 28
ATOM     28  C   LYS P   5      36.696   1.699  -4.284  0.50 61.70 LIG 0.22  C 
ATOM     29 O    LYS P   5      36.810   0.649  -4.915  0.50 62.43 LIG-0.29  OA
ENDBRANCH 19 28
ENDBRANCH 16 19
ENDBRANCH 5 15
ENDBRANCH 3 5
BRANCH 1 30
ATOM     30  CA  VAL P   3      30.975   5.020  -7.183  0.50 58.35 LIG 0.18  C 
BRANCH 30 31
ATOM     31  CB  VAL P   3      30.946   4.832  -8.711  0.50 57.85 LIG 0.01  C 
ATOM     32  CG1 VAL P   3      30.660   6.132  -9.434  0.50 57.49 LIG 0.01  C 
ATOM     33  CG2 VAL P   3      32.257   4.239  -9.202  0.50 57.23 LIG 0.01  C 
ENDBRANCH 30 31
BRANCH 30 34
ATOM     34  N   VAL P   3      29.765   5.789  -6.982  0.50 58.27 LIG-0.35  N 
ATOM     35  C   LEU P   2      28.503   5.724  -6.512  0.50 58.43 LIG 0.24  C 
ATOM     36 O    LEU P   2      27.838   4.745  -6.214  0.50 58.37 LIG-0.27  OA
ATOM     37 H    VAL P   3      29.963   6.569  -7.287  0.50 58.27 LIG 0.16  HD
BRANCH 35 38
ATOM     38  CA  LEU P   2      28.095   7.189  -6.526  0.50 58.44 LIG 0.18  C 
BRANCH 38 39
ATOM     39  N   LEU P   2      28.398   8.099  -5.429  0.50 58.68 LIG-0.35  N 
ATOM     40 H    LEU P   2      29.145   8.504  -5.298  0.50 58.68 LIG 0.16  HD
ATOM     41  C   ALA P   1      27.226   8.037  -4.836  0.50 58.87 LIG 0.25  C 
ATOM     42 O    ALA P   1      26.403   7.271  -5.328  0.50 59.28 LIG-0.27  OA
BRANCH 41 43
ATOM     43  CA  ALA P   1      26.792   8.821  -3.608  0.50 58.66 LIG 0.27  C 
ATOM     44  CB  ALA P   1      26.686   7.960  -2.365  0.50 57.92 LIG 0.05  C 
BRANCH 43 45
ATOM     45  N   ALA P   1      25.477   9.458  -3.881  0.50 58.63 LIG-0.07  N 
ATOM     46 H1   ALA P   1      25.009   8.946  -4.439  0.50 58.63 LIG 0.28  HD
ATOM     47 H2   ALA P   1      25.028   9.552  -3.118  0.50 58.63 LIG 0.28  HD
ATOM     48 H3   ALA P   1      25.605  10.258  -4.250  0.50 58.63 LIG 0.28  HD
ENDBRANCH 43 45
ENDBRANCH 41 43
ENDBRANCH 38 39
BRANCH 38 49
ATOM     49  CB  LEU P   2      28.341   7.905  -7.860  0.50 58.10 LIG 0.04  C 
BRANCH 49 50
ATOM     50  CG  LEU P   2      27.324   8.991  -8.233  0.50 57.94 LIG-0.02  C 
ATOM     51  CD2 LEU P   2      27.580  10.255  -7.448  0.50 57.90 LIG 0.01  C 
ATOM     52  CD1 LEU P   2      25.911   8.502  -7.988  0.50 57.66 LIG 0.01  C 
ENDBRANCH 49 50
ENDBRANCH 38 49
ENDBRANCH 35 38
ENDBRANCH 30 34
ENDBRANCH 1 30
TORSDOF 21
ENDMDL
MODEL 25
USER: ADFR SOLUTION from run 90
USER: SCORE 17.401729 LL:  -4.260 LR: -15.965 RR:   0.000 FEB:  -9.701
USER: RMSD 7.606005
USER: SEED 89
USER: STATUS no improvement in best 2 clusters for 5 generations
USER: GENES 23
USER: genes 0 Translation |==|  0.32980 0.63468 0.45542
USER: genes 1 Rotation |==|  0.11488 0.62126 0.48411 0.79449
USER: genes 2 Torsion [C]-N--CA-[CB] |==|  0.33416
USER: genes 3 Torsion [N]-CA--CB-[CG] |==|  0.83041
USER: genes 4 Torsion [CA]-CB--CG-[CD2] |==|  0.38663
USER: genes 5 Torsion [CE2]-CZ--OH-[HH] |==|  0.48303
USER: genes 6 Torsion [N]-CA--C-[N] |==|  0.35366
USER: genes 7 Torsion [C]-N--CA-[CB] |==|  0.89049
USER: genes 8 Torsion [N]-CA--CB-[CG] |==|  0.55650
USER: genes 9 Torsion [CA]-CB--CG-[CD] |==|  0.40310
USER: genes 10 Torsion [CB]-CG--CD-[CE] |==|  0.61919
USER: genes 11 Torsion [CG]-CD--CE-[NZ] |==|  0.28406
USER: genes 12 Torsion [CD]-CE--NZ-[HZ1] |==|  0.43289
USER: genes 13 Torsion [N]-CA--C-[O] |==|  0.17636
USER: genes 14 Torsion [N]-C--CA-[N] |==|  0.11117
USER: genes 15 Torsion [C]-CA--CB-[CG1] |==|  0.44405
USER: genes 16 Torsion [C]-CA--N-[C] |==|  0.82606
USER: genes 17 Torsion [N]-C--CA-[N] |==|  0.39186
USER: genes 18 Torsion [C]-CA--N-[C] |==|  0.70182
USER: genes 19 Torsion [N]-C--CA-[N] |==|  0.96323
USER: genes 20 Torsion [C]-CA--N-[H1] |==|  0.35799
USER: genes 21 Torsion [C]-CA--CB-[CG] |==|  0.39749
USER: genes 22 Torsion [CA]-CB--CG-[CD2] |==|  0.84956
ROOT
ATOM      1  C   VAL P   3      29.454   9.000  -7.087  0.50 59.03 LIG 0.24  C 
ATOM      2 O    VAL P   3      28.604   8.624  -7.916  0.50 59.49 LIG-0.27  OA
ATOM      3  N   TYR P   4      29.066   9.985  -6.272  0.50 59.73 LIG-0.35  N 
ATOM      4 H    TYR P   4      29.470  10.531  -5.745  0.50 59.73 LIG 0.16  HD
ENDROOT
BRANCH 3 5
ATOM      5  CA  TYR P   4      27.695   9.950  -6.466  0.50 59.99 LIG 0.18  C 
BRANCH 5 6
ATOM      6  CB  TYR P   4      27.063   9.660  -5.068  0.50 59.48 LIG 0.07  C 
BRANCH 6 7
ATOM      7  CG  TYR P   4      27.432   8.332  -4.362  0.50 58.89 LIG-0.06  A 
ATOM      8  CD2 TYR P   4      27.681   8.286  -2.980  0.50 58.48 LIG 0.01  A 
ATOM      9  CE2 TYR P   4      27.840   7.077  -2.327  0.50 57.98 LIG 0.04  A 
ATOM     10  CZ  TYR P   4      27.811   5.903  -3.039  0.50 58.05 LIG 0.07  A 
ATOM     11  CE1 TYR P   4      27.643   5.936  -4.430  0.50 57.81 LIG 0.04  A 
ATOM     12  CD1 TYR P   4      27.446   7.168  -5.081  0.50 58.25 LIG 0.01  A 
BRANCH 10 13
ATOM     13 OH   TYR P   4      27.926   4.701  -2.377  0.50 58.00 LIG-0.36  OA
ATOM     14 HH   TYR P   4      27.809   4.070  -2.920  0.50 58.00 LIG 0.22  HD
ENDBRANCH 10 13
ENDBRANCH 6 7
ENDBRANCH 5 6
BRANCH 5 15
ATOM     15  C   TYR P   4      27.051  11.007  -7.255  0.50 60.88 LIG 0.24  C 
ATOM     16  N   LYS P   5      26.353  10.366  -8.165  0.50 60.84 LIG-0.35  N 
ATOM     17 H    LYS P   5      26.327   9.507  -8.185  0.50 60.84 LIG 0.16  HD
ATOM     18 O    TYR P   4      27.198  12.224  -7.162  0.50 61.26 LIG-0.27  OA
BRANCH 16 19
ATOM     19  CA  LYS P   5      25.557  10.954  -9.223  0.50 61.28 LIG 0.16  C 
BRANCH 19 20
ATOM     20  CB  LYS P   5      24.821  12.173  -8.742  0.50 60.15 LIG 0.03  C 
BRANCH 20 21
ATOM     21  CG  LYS P   5      23.654  12.460  -9.665  0.50 59.32 LIG 0.00  C 
BRANCH 21 22
ATOM     22  CD  LYS P   5      22.474  13.015  -8.895  0.50 58.12 LIG 0.03  C 
BRANCH 22 23
ATOM     23  CE  LYS P   5      21.167  12.405  -9.337  0.50 56.96 LIG 0.23  C 
BRANCH 23 24
ATOM     24  NZ  LYS P   5      20.685  11.370  -8.380  0.50 55.60 LIG-0.08  N 
ATOM     25 HZ2  LYS P   5      21.074  10.591  -8.564  0.50 55.60 LIG 0.27  HD
ATOM     26 HZ1  LYS P   5      19.802  11.285  -8.455  0.50 55.60 LIG 0.27  HD
ATOM     27 HZ3  LYS P   5      20.890  11.615  -7.550  0.50 55.60 LIG 0.27  HD
ENDBRANCH 23 24
ENDBRANCH 22 23
ENDBRANCH 21 22
ENDBRANCH 20 21
ENDBRANCH 19 20
BRANCH 19 28
ATOM     28  C   LYS P   5      26.448  11.293 -10.405  0.50 61.70 LIG 0.22  C 
ATOM     29 O    LYS P   5      27.035  10.400 -11.016  0.50 62.43 LIG-0.29  OA
ENDBRANCH 19 28
ENDBRANCH 16 19
ENDBRANCH 5 15
ENDBRANCH 3 5
BRANCH 1 30
ATOM     30  CA  VAL P   3      30.779   8.256  -7.183  0.50 58.35 LIG 0.18  C 
BRANCH 30 31
ATOM     31  CB  VAL P   3      30.451   6.998  -8.007  0.50 57.85 LIG 0.01  C 
ATOM     32  CG1 VAL P   3      31.693   6.386  -8.622  0.50 57.49 LIG 0.01  C 
ATOM     33  CG2 VAL P   3      29.731   5.969  -7.151  0.50 57.23 LIG 0.01  C 
ENDBRANCH 30 31
BRANCH 30 34
ATOM     34  N   VAL P   3      31.763   7.728  -6.262  0.50 58.27 LIG-0.35  N 
ATOM     35  C   LEU P   2      32.647   8.071  -5.303  0.50 58.43 LIG 0.24  C 
ATOM     36 O    LEU P   2      33.068   9.176  -4.999  0.50 58.37 LIG-0.27  OA
ATOM     37 H    VAL P   3      31.751   6.881  -6.411  0.50 58.27 LIG 0.16  HD
BRANCH 35 38
ATOM     38  CA  LEU P   2      33.043   6.711  -4.751  0.50 58.44 LIG 0.18  C 
BRANCH 38 39
ATOM     39  N   LEU P   2      34.409   6.390  -4.357  0.50 58.68 LIG-0.35  N 
ATOM     40 H    LEU P   2      34.817   6.682  -3.658  0.50 58.68 LIG 0.16  HD
ATOM     41  C   ALA P   1      34.688   5.597  -5.367  0.50 58.87 LIG 0.25  C 
ATOM     42 O    ALA P   1      33.817   5.469  -6.222  0.50 59.28 LIG-0.27  OA
BRANCH 41 43
ATOM     43  CA  ALA P   1      35.978   4.822  -5.577  0.50 58.66 LIG 0.27  C 
ATOM     44  CB  ALA P   1      35.811   3.329  -5.372  0.50 57.92 LIG 0.05  C 
BRANCH 43 45
ATOM     45  N   ALA P   1      37.010   5.335  -4.637  0.50 58.63 LIG-0.07  N 
ATOM     46 H1   ALA P   1      37.373   4.654  -4.193  0.50 58.63 LIG 0.28  HD
ATOM     47 H2   ALA P   1      37.643   5.761  -5.094  0.50 58.63 LIG 0.28  HD
ATOM     48 H3   ALA P   1      36.632   5.897  -4.059  0.50 58.63 LIG 0.28  HD
ENDBRANCH 43 45
ENDBRANCH 41 43
ENDBRANCH 38 39
BRANCH 38 49
ATOM     49  CB  LEU P   2      32.070   6.138  -3.712  0.50 58.10 LIG 0.04  C 
BRANCH 49 50
ATOM     50  CG  LEU P   2      31.853   4.621  -3.766  0.50 57.94 LIG-0.02  C 
ATOM     51  CD2 LEU P   2      31.436   4.189  -5.150  0.50 57.90 LIG 0.01  C 
ATOM     52  CD1 LEU P   2      30.810   4.197  -2.750  0.50 57.66 LIG 0.01  C 
ENDBRANCH 49 50
ENDBRANCH 38 49
ENDBRANCH 35 38
ENDBRANCH 30 34
ENDBRANCH 1 30
TORSDOF 21
ENDMDL
MODEL 26
USER: ADFR SOLUTION from run 109
USER: SCORE 17.686391 LL:  -3.426 LR: -15.960 RR:   0.000 FEB:  -9.696
USER: RMSD 2.610191
USER: SEED 108
USER: STATUS 1 or 2 clusters left
USER: GENES 23
USER: genes 0 Translation |==|  0.48756 0.52524 0.54126
USER: genes 1 Rotation |==|  0.73456 0.43267 0.45246 0.93381
USER: genes 2 Torsion [C]-N--CA-[CB] |==|  0.21944
USER: genes 3 Torsion [N]-CA--CB-[CG] |==|  0.28394
USER: genes 4 Torsion [CA]-CB--CG-[CD2] |==|  0.25774
USER: genes 5 Torsion [CE2]-CZ--OH-[HH] |==|  0.78023
USER: genes 6 Torsion [N]-CA--C-[N] |==|  0.43286
USER: genes 7 Torsion [C]-N--CA-[CB] |==|  0.71835
USER: genes 8 Torsion [N]-CA--CB-[CG] |==|  0.26182
USER: genes 9 Torsion [CA]-CB--CG-[CD] |==|  0.39165
USER: genes 10 Torsion [CB]-CG--CD-[CE] |==|  0.31837
USER: genes 11 Torsion [CG]-CD--CE-[NZ] |==|  0.47158
USER: genes 12 Torsion [CD]-CE--NZ-[HZ1] |==|  0.64782
USER: genes 13 Torsion [N]-CA--C-[O] |==|  0.24429
USER: genes 14 Torsion [N]-C--CA-[N] |==|  0.84074
USER: genes 15 Torsion [C]-CA--CB-[CG1] |==|  0.47892
USER: genes 16 Torsion [C]-CA--N-[C] |==|  0.19065
USER: genes 17 Torsion [N]-C--CA-[N] |==|  0.96210
USER: genes 18 Torsion [C]-CA--N-[C] |==|  0.71120
USER: genes 19 Torsion [N]-C--CA-[N] |==|  0.90681
USER: genes 20 Torsion [C]-CA--N-[H1] |==|  0.03133
USER: genes 21 Torsion [C]-CA--CB-[CG] |==|  0.26561
USER: genes 22 Torsion [CA]-CB--CG-[CD2] |==|  0.17613
ROOT
ATOM      1  C   VAL P   3      34.187   5.717  -4.512  0.50 59.03 LIG 0.24  C 
ATOM      2 O    VAL P   3      33.972   6.731  -3.821  0.50 59.49 LIG-0.27  OA
ATOM      3  N   TYR P   4      33.106   5.159  -5.064  0.50 59.73 LIG-0.35  N 
ATOM      4 H    TYR P   4      32.935   4.400  -5.430  0.50 59.73 LIG 0.16  HD
ENDROOT
BRANCH 3 5
ATOM      5  CA  TYR P   4      32.186   6.183  -4.913  0.50 59.99 LIG 0.18  C 
BRANCH 5 6
ATOM      6  CB  TYR P   4      32.485   7.211  -6.050  0.50 59.48 LIG 0.07  C 
BRANCH 6 7
ATOM      7  CG  TYR P   4      31.559   7.215  -7.291  0.50 58.89 LIG-0.06  A 
ATOM      8  CD2 TYR P   4      30.440   8.061  -7.362  0.50 58.48 LIG 0.01  A 
ATOM      9  CE2 TYR P   4      29.719   8.187  -8.537  0.50 57.98 LIG 0.04  A 
ATOM     10  CZ  TYR P   4      30.060   7.437  -9.635  0.50 58.05 LIG 0.07  A 
ATOM     11  CE1 TYR P   4      31.124   6.529  -9.556  0.50 57.81 LIG 0.04  A 
ATOM     12  CD1 TYR P   4      31.875   6.434  -8.369  0.50 58.25 LIG 0.01  A 
BRANCH 10 13
ATOM     13 OH   TYR P   4      29.365   7.598 -10.813  0.50 58.00 LIG-0.36  OA
ATOM     14 HH   TYR P   4      28.636   7.183 -10.768  0.50 58.00 LIG 0.22  HD
ENDBRANCH 10 13
ENDBRANCH 6 7
ENDBRANCH 5 6
BRANCH 5 15
ATOM     15  C   TYR P   4      30.771   5.856  -4.698  0.50 60.88 LIG 0.24  C 
ATOM     16  N   LYS P   5      30.274   6.906  -4.085  0.50 60.84 LIG-0.35  N 
ATOM     17 H    LYS P   5      30.759   7.597  -3.919  0.50 60.84 LIG 0.16  HD
ATOM     18 O    TYR P   4      30.187   4.802  -4.943  0.50 61.26 LIG-0.27  OA
BRANCH 16 19
ATOM     19  CA  LYS P   5      28.915   7.075  -3.613  0.50 61.28 LIG 0.16  C 
BRANCH 19 20
ATOM     20  CB  LYS P   5      28.111   7.931  -4.552  0.50 60.15 LIG 0.03  C 
BRANCH 20 21
ATOM     21  CG  LYS P   5      27.361   7.049  -5.528  0.50 59.32 LIG 0.00  C 
BRANCH 21 22
ATOM     22  CD  LYS P   5      25.971   7.590  -5.795  0.50 58.12 LIG 0.03  C 
BRANCH 22 23
ATOM     23  CE  LYS P   5      25.798   8.036  -7.226  0.50 56.96 LIG 0.23  C 
BRANCH 23 24
ATOM     24  NZ  LYS P   5      24.375   8.335  -7.547  0.50 55.60 LIG-0.08  N 
ATOM     25 HZ2  LYS P   5      23.860   8.102  -6.860  0.50 55.60 LIG 0.27  HD
ATOM     26 HZ1  LYS P   5      24.131   7.876  -8.269  0.50 55.60 LIG 0.27  HD
ATOM     27 HZ3  LYS P   5      24.283   9.206  -7.705  0.50 55.60 LIG 0.27  HD
ENDBRANCH 23 24
ENDBRANCH 22 23
ENDBRANCH 21 22
ENDBRANCH 20 21
ENDBRANCH 19 20
BRANCH 19 28
ATOM     28  C   LYS P   5      28.264   5.714  -3.433  0.50 61.70 LIG 0.22  C 
ATOM     29 O    LYS P   5      28.375   5.110  -2.366  0.50 62.43 LIG-0.29  OA
ENDBRANCH 19 28
ENDBRANCH 16 19
ENDBRANCH 5 15
ENDBRANCH 3 5
BRANCH 1 30
ATOM     30  CA  VAL P   3      35.654   5.315  -4.578  0.50 58.35 LIG 0.18  C 
BRANCH 30 31
ATOM     31  CB  VAL P   3      36.042   5.530  -6.053  0.50 57.85 LIG 0.01  C 
ATOM     32  CG1 VAL P   3      37.530   5.354  -6.276  0.50 57.49 LIG 0.01  C 
ATOM     33  CG2 VAL P   3      35.263   4.588  -6.956  0.50 57.23 LIG 0.01  C 
ENDBRANCH 30 31
BRANCH 30 34
ATOM     34  N   VAL P   3      36.444   4.145  -4.259  0.50 58.27 LIG-0.35  N 
ATOM     35  C   LEU P   2      36.694   2.871  -4.623  0.50 58.43 LIG 0.24  C 
ATOM     36 O    LEU P   2      36.069   2.146  -5.381  0.50 58.37 LIG-0.27  OA
ATOM     37 H    VAL P   3      36.915   4.392  -3.583  0.50 58.27 LIG 0.16  HD
BRANCH 35 38
ATOM     38  CA  LEU P   2      37.916   2.545  -3.779  0.50 58.44 LIG 0.18  C 
BRANCH 38 39
ATOM     39  N   LEU P   2      38.691   3.568  -3.091  0.50 58.68 LIG-0.35  N 
ATOM     40 H    LEU P   2      38.465   3.975  -2.367  0.50 58.68 LIG 0.16  HD
ATOM     41  C   ALA P   1      39.710   3.589  -3.921  0.50 58.87 LIG 0.25  C 
ATOM     42 O    ALA P   1      39.629   2.862  -4.907  0.50 59.28 LIG-0.27  OA
BRANCH 41 43
ATOM     43  CA  ALA P   1      40.976   4.417  -3.778  0.50 58.66 LIG 0.27  C 
ATOM     44  CB  ALA P   1      42.053   3.717  -2.975  0.50 57.92 LIG 0.05  C 
BRANCH 43 45
ATOM     45  N   ALA P   1      40.637   5.710  -3.126  0.50 58.63 LIG-0.07  N 
ATOM     46 H1   ALA P   1      39.807   5.673  -2.807  0.50 58.63 LIG 0.28  HD
ATOM     47 H2   ALA P   1      41.204   5.864  -2.458  0.50 58.63 LIG 0.28  HD
ATOM     48 H3   ALA P   1      40.695   6.368  -3.723  0.50 58.63 LIG 0.28  HD
ENDBRANCH 43 45
ENDBRANCH 41 43
ENDBRANCH 38 39
BRANCH 38 49
ATOM     49  CB  LEU P   2      37.745   1.332  -2.855  0.50 58.10 LIG 0.04  C 
BRANCH 49 50
ATOM     50  CG  LEU P   2      38.264  -0.003  -3.401  0.50 57.94 LIG-0.02  C 
ATOM     51  CD2 LEU P   2      39.758   0.050  -3.613  0.50 57.90 LIG 0.01  C 
ATOM     52  CD1 LEU P   2      37.565  -0.353  -4.700  0.50 57.66 LIG 0.01  C 
ENDBRANCH 49 50
ENDBRANCH 38 49
ENDBRANCH 35 38
ENDBRANCH 30 34
ENDBRANCH 1 30
TORSDOF 21
ENDMDL
MODEL 27
USER: ADFR SOLUTION from run 85
USER: SCORE 17.775477 LL:  -3.499 LR: -15.814 RR:   0.000 FEB:  -9.550
USER: RMSD 10.063430
USER: SEED 84
USER: STATUS no improvement in best 10 clusters for 5 generations
USER: GENES 23
USER: genes 0 Translation |==|  0.44986 0.52211 0.49868
USER: genes 1 Rotation |==|  0.39126 0.02100 0.47720 0.59063
USER: genes 2 Torsion [C]-N--CA-[CB] |==|  0.24444
USER: genes 3 Torsion [N]-CA--CB-[CG] |==|  0.55304
USER: genes 4 Torsion [CA]-CB--CG-[CD2] |==|  0.02188
USER: genes 5 Torsion [CE2]-CZ--OH-[HH] |==|  0.14446
USER: genes 6 Torsion [N]-CA--C-[N] |==|  0.03735
USER: genes 7 Torsion [C]-N--CA-[CB] |==|  0.55171
USER: genes 8 Torsion [N]-CA--CB-[CG] |==|  0.78633
USER: genes 9 Torsion [CA]-CB--CG-[CD] |==|  0.35440
USER: genes 10 Torsion [CB]-CG--CD-[CE] |==|  0.70880
USER: genes 11 Torsion [CG]-CD--CE-[NZ] |==|  0.63063
USER: genes 12 Torsion [CD]-CE--NZ-[HZ1] |==|  0.94572
USER: genes 13 Torsion [N]-CA--C-[O] |==|  0.89311
USER: genes 14 Torsion [N]-C--CA-[N] |==|  0.83018
USER: genes 15 Torsion [C]-CA--CB-[CG1] |==|  0.47348
USER: genes 16 Torsion [C]-CA--N-[C] |==|  0.21219
USER: genes 17 Torsion [N]-C--CA-[N] |==|  0.48206
USER: genes 18 Torsion [C]-CA--N-[C] |==|  0.68441
USER: genes 19 Torsion [N]-C--CA-[N] |==|  0.06401
USER: genes 20 Torsion [C]-CA--N-[H1] |==|  0.59469
USER: genes 21 Torsion [C]-CA--CB-[CG] |==|  0.69367
USER: genes 22 Torsion [CA]-CB--CG-[CD2] |==|  0.74466
ROOT
ATOM      1  C   VAL P   3      33.056   5.623  -5.790  0.50 59.03 LIG 0.24  C 
ATOM      2 O    VAL P   3      33.996   6.413  -5.584  0.50 59.49 LIG-0.27  OA
ATOM      3  N   TYR P   4      33.330   4.602  -6.606  0.50 59.73 LIG-0.35  N 
ATOM      4 H    TYR P   4      32.860   4.028  -7.040  0.50 59.73 LIG 0.16  HD
ENDROOT
BRANCH 3 5
ATOM      5  CA  TYR P   4      34.715   4.655  -6.621  0.50 59.99 LIG 0.18  C 
BRANCH 5 6
ATOM      6  CB  TYR P   4      35.198   3.785  -5.418  0.50 59.48 LIG 0.07  C 
BRANCH 6 7
ATOM      7  CG  TYR P   4      36.640   3.999  -4.895  0.50 58.89 LIG-0.06  A 
ATOM      8  CD2 TYR P   4      37.437   5.054  -5.370  0.50 58.48 LIG 0.01  A 
ATOM      9  CE2 TYR P   4      38.654   5.345  -4.779  0.50 57.98 LIG 0.04  A 
ATOM     10  CZ  TYR P   4      39.122   4.564  -3.752  0.50 58.05 LIG 0.07  A 
ATOM     11  CE1 TYR P   4      38.376   3.460  -3.320  0.50 57.81 LIG 0.04  A 
ATOM     12  CD1 TYR P   4      37.122   3.193  -3.901  0.50 58.25 LIG 0.01  A 
BRANCH 10 13
ATOM     13 OH   TYR P   4      40.314   4.885  -3.140  0.50 58.00 LIG-0.36  OA
ATOM     14 HH   TYR P   4      40.298   5.691  -2.901  0.50 58.00 LIG 0.22  HD
ENDBRANCH 10 13
ENDBRANCH 6 7
ENDBRANCH 5 6
BRANCH 5 15
ATOM     15  C   TYR P   4      35.431   4.455  -7.887  0.50 60.88 LIG 0.24  C 
ATOM     16  N   LYS P   5      34.504   4.551  -8.814  0.50 60.84 LIG-0.35  N 
ATOM     17 H    LYS P   5      33.687   4.725  -8.611  0.50 60.84 LIG 0.16  HD
ATOM     18 O    TYR P   4      36.614   4.164  -8.056  0.50 61.26 LIG-0.27  OA
BRANCH 16 19
ATOM     19  CA  LYS P   5      34.685   4.392 -10.242  0.50 61.28 LIG 0.16  C 
BRANCH 19 20
ATOM     20  CB  LYS P   5      33.544   5.000 -11.009  0.50 60.15 LIG 0.03  C 
BRANCH 20 21
ATOM     21  CG  LYS P   5      32.340   4.082 -10.942  0.50 59.32 LIG 0.00  C 
BRANCH 21 22
ATOM     22  CD  LYS P   5      31.110   4.829 -10.470  0.50 58.12 LIG 0.03  C 
BRANCH 22 23
ATOM     23  CE  LYS P   5      30.759   4.505  -9.039  0.50 56.96 LIG 0.23  C 
BRANCH 23 24
ATOM     24  NZ  LYS P   5      29.309   4.208  -8.875  0.50 55.60 LIG-0.08  N 
ATOM     25 HZ2  LYS P   5      29.189   3.327  -8.839  0.50 55.60 LIG 0.27  HD
ATOM     26 HZ1  LYS P   5      28.858   4.540  -9.567  0.50 55.60 LIG 0.27  HD
ATOM     27 HZ3  LYS P   5      29.013   4.578  -8.123  0.50 55.60 LIG 0.27  HD
ENDBRANCH 23 24
ENDBRANCH 22 23
ENDBRANCH 21 22
ENDBRANCH 20 21
ENDBRANCH 19 20
BRANCH 19 28
ATOM     28  C   LYS P   5      36.007   5.010 -10.662  0.50 61.70 LIG 0.22  C 
ATOM     29 O    LYS P   5      36.392   6.060 -10.147  0.50 62.43 LIG-0.29  OA
ENDBRANCH 19 28
ENDBRANCH 16 19
ENDBRANCH 5 15
ENDBRANCH 3 5
BRANCH 1 30
ATOM     30  CA  VAL P   3      31.769   5.994  -5.065  0.50 58.35 LIG 0.18  C 
BRANCH 30 31
ATOM     31  CB  VAL P   3      31.510   4.809  -4.117  0.50 57.85 LIG 0.01  C 
ATOM     32  CG1 VAL P   3      30.390   5.101  -3.141  0.50 57.49 LIG 0.01  C 
ATOM     33  CG2 VAL P   3      31.198   3.548  -4.908  0.50 57.23 LIG 0.01  C 
ENDBRANCH 30 31
BRANCH 30 34
ATOM     34  N   VAL P   3      30.414   6.348  -5.432  0.50 58.27 LIG-0.35  N 
ATOM     35  C   LEU P   2      29.240   5.846  -5.865  0.50 58.43 LIG 0.24  C 
ATOM     36 O    LEU P   2      28.993   4.742  -6.322  0.50 58.37 LIG-0.27  OA
ATOM     37 H    VAL P   3      30.386   7.201  -5.318  0.50 58.27 LIG 0.16  HD
BRANCH 35 38
ATOM     38  CA  LEU P   2      28.318   7.045  -5.708  0.50 58.44 LIG 0.18  C 
BRANCH 38 39
ATOM     39  N   LEU P   2      26.940   7.043  -6.181  0.50 58.68 LIG-0.35  N 
ATOM     40 H    LEU P   2      26.298   6.560  -5.874  0.50 58.68 LIG 0.16  HD
ATOM     41  C   ALA P   1      27.088   7.950  -7.121  0.50 58.87 LIG 0.25  C 
ATOM     42 O    ALA P   1      28.223   8.385  -7.289  0.50 59.28 LIG-0.27  OA
BRANCH 41 43
ATOM     43  CA  ALA P   1      25.994   8.513  -8.014  0.50 58.66 LIG 0.27  C 
ATOM     44  CB  ALA P   1      26.196   9.979  -8.342  0.50 57.92 LIG 0.05  C 
BRANCH 43 45
ATOM     45  N   ALA P   1      24.681   8.335  -7.341  0.50 58.63 LIG-0.07  N 
ATOM     46 H1   ALA P   1      24.052   8.180  -7.952  0.50 58.63 LIG 0.28  HD
ATOM     47 H2   ALA P   1      24.725   7.644  -6.781  0.50 58.63 LIG 0.28  HD
ATOM     48 H3   ALA P   1      24.477   9.072  -6.886  0.50 58.63 LIG 0.28  HD
ENDBRANCH 43 45
ENDBRANCH 41 43
ENDBRANCH 38 39
BRANCH 38 49
ATOM     49  CB  LEU P   2      28.378   7.719  -4.331  0.50 58.10 LIG 0.04  C 
BRANCH 49 50
ATOM     50  CG  LEU P   2      27.135   7.551  -3.450  0.50 57.94 LIG-0.02  C 
ATOM     51  CD2 LEU P   2      26.173   8.694  -3.660  0.50 57.90 LIG 0.01  C 
ATOM     52  CD1 LEU P   2      27.528   7.462  -1.988  0.50 57.66 LIG 0.01  C 
ENDBRANCH 49 50
ENDBRANCH 38 49
ENDBRANCH 35 38
ENDBRANCH 30 34
ENDBRANCH 1 30
TORSDOF 21
ENDMDL
MODEL 28
USER: ADFR SOLUTION from run 52
USER: SCORE 18.977728 LL:  -4.192 LR: -15.727 RR:   0.000 FEB:  -9.462
USER: RMSD 7.997648
USER: SEED 51
USER: STATUS no improvement in best 5 clusters for 5 generations
USER: GENES 23
USER: genes 0 Translation |==|  0.30609 0.61247 0.46807
USER: genes 1 Rotation |==|  0.08417 0.46638 0.39883 0.75637
USER: genes 2 Torsion [C]-N--CA-[CB] |==|  0.23871
USER: genes 3 Torsion [N]-CA--CB-[CG] |==|  0.99042
USER: genes 4 Torsion [CA]-CB--CG-[CD2] |==|  0.72961
USER: genes 5 Torsion [CE2]-CZ--OH-[HH] |==|  0.10325
USER: genes 6 Torsion [N]-CA--C-[N] |==|  0.08777
USER: genes 7 Torsion [C]-N--CA-[CB] |==|  0.41573
USER: genes 8 Torsion [N]-CA--CB-[CG] |==|  0.74633
USER: genes 9 Torsion [CA]-CB--CG-[CD] |==|  0.12480
USER: genes 10 Torsion [CB]-CG--CD-[CE] |==|  0.18332
USER: genes 11 Torsion [CG]-CD--CE-[NZ] |==|  0.47932
USER: genes 12 Torsion [CD]-CE--NZ-[HZ1] |==|  0.91847
USER: genes 13 Torsion [N]-CA--C-[O] |==|  0.02215
USER: genes 14 Torsion [N]-C--CA-[N] |==|  0.42947
USER: genes 15 Torsion [C]-CA--CB-[CG1] |==|  0.99229
USER: genes 16 Torsion [C]-CA--N-[C] |==|  0.70911
USER: genes 17 Torsion [N]-C--CA-[N] |==|  0.99585
USER: genes 18 Torsion [C]-CA--N-[C] |==|  0.76910
USER: genes 19 Torsion [N]-C--CA-[N] |==|  0.64471
USER: genes 20 Torsion [C]-CA--N-[H1] |==|  0.23360
USER: genes 21 Torsion [C]-CA--CB-[CG] |==|  0.76241
USER: genes 22 Torsion [CA]-CB--CG-[CD2] |==|  0.11204
ROOT
ATOM      1  C   VAL P   3      28.743   8.334  -6.708  0.50 59.03 LIG 0.24  C 
ATOM      2 O    VAL P   3      28.640   7.527  -7.651  0.50 59.49 LIG-0.27  OA
ATOM      3  N   TYR P   4      27.765   9.240  -6.618  0.50 59.73 LIG-0.35  N 
ATOM      4 H    TYR P   4      27.663   9.983  -6.198  0.50 59.73 LIG 0.16  HD
ENDROOT
BRANCH 3 5
ATOM      5  CA  TYR P   4      26.814   8.669  -7.448  0.50 59.99 LIG 0.18  C 
BRANCH 5 6
ATOM      6  CB  TYR P   4      26.004   7.670  -6.562  0.50 59.48 LIG 0.07  C 
BRANCH 6 7
ATOM      7  CG  TYR P   4      26.448   7.475  -5.091  0.50 58.89 LIG-0.06  A 
ATOM      8  CD2 TYR P   4      27.266   6.397  -4.716  0.50 58.48 LIG 0.01  A 
ATOM      9  CE2 TYR P   4      27.801   6.323  -3.441  0.50 57.98 LIG 0.04  A 
ATOM     10  CZ  TYR P   4      27.487   7.280  -2.509  0.50 58.05 LIG 0.07  A 
ATOM     11  CE1 TYR P   4      26.608   8.318  -2.844  0.50 57.81 LIG 0.04  A 
ATOM     12  CD1 TYR P   4      26.098   8.407  -4.153  0.50 58.25 LIG 0.01  A 
BRANCH 10 13
ATOM     13 OH   TYR P   4      28.055   7.224  -1.255  0.50 58.00 LIG-0.36  OA
ATOM     14 HH   TYR P   4      28.851   6.960  -1.320  0.50 58.00 LIG 0.22  HD
ENDBRANCH 10 13
ENDBRANCH 6 7
ENDBRANCH 5 6
BRANCH 5 15
ATOM     15  C   TYR P   4      26.021   9.530  -8.335  0.50 60.88 LIG 0.24  C 
ATOM     16  N   LYS P   5      26.823  10.525  -8.639  0.50 60.84 LIG-0.35  N 
ATOM     17 H    LYS P   5      27.632  10.552  -8.347  0.50 60.84 LIG 0.16  HD
ATOM     18 O    TYR P   4      24.840   9.412  -8.654  0.50 61.26 LIG-0.27  OA
BRANCH 16 19
ATOM     19  CA  LYS P   5      26.509  11.674  -9.463  0.50 61.28 LIG 0.16  C 
BRANCH 19 20
ATOM     20  CB  LYS P   5      27.289  12.886  -9.036  0.50 60.15 LIG 0.03  C 
BRANCH 20 21
ATOM     21  CG  LYS P   5      26.490  13.671  -8.017  0.50 59.32 LIG 0.00  C 
BRANCH 21 22
ATOM     22  CD  LYS P   5      25.882  12.753  -6.976  0.50 58.12 LIG 0.03  C 
BRANCH 22 23
ATOM     23  CE  LYS P   5      26.930  12.085  -6.122  0.50 56.96 LIG 0.23  C 
BRANCH 23 24
ATOM     24  NZ  LYS P   5      26.327  11.326  -4.992  0.50 55.60 LIG-0.08  N 
ATOM     25 HZ2  LYS P   5      26.171  10.488  -5.246  0.50 55.60 LIG 0.27  HD
ATOM     26 HZ1  LYS P   5      25.560  11.710  -4.753  0.50 55.60 LIG 0.27  HD
ATOM     27 HZ3  LYS P   5      26.887  11.327  -4.300  0.50 55.60 LIG 0.27  HD
ENDBRANCH 23 24
ENDBRANCH 22 23
ENDBRANCH 21 22
ENDBRANCH 20 21
ENDBRANCH 19 20
BRANCH 19 28
ATOM     28  C   LYS P   5      26.778  11.345 -10.922  0.50 61.70 LIG 0.22  C 
ATOM     29 O    LYS P   5      27.060  10.194 -11.256  0.50 62.43 LIG-0.29  OA
ENDBRANCH 19 28
ENDBRANCH 16 19
ENDBRANCH 5 15
ENDBRANCH 3 5
BRANCH 1 30
ATOM     30  CA  VAL P   3      29.981   8.124  -5.848  0.50 58.35 LIG 0.18  C 
BRANCH 30 31
ATOM     31  CB  VAL P   3      30.997   9.150  -6.384  0.50 57.85 LIG 0.01  C 
ATOM     32  CG1 VAL P   3      30.449   9.919  -7.569  0.50 57.49 LIG 0.01  C 
ATOM     33  CG2 VAL P   3      31.417  10.113  -5.286  0.50 57.23 LIG 0.01  C 
ENDBRANCH 30 31
BRANCH 30 34
ATOM     34  N   VAL P   3      30.860   7.024  -5.511  0.50 58.27 LIG-0.35  N 
ATOM     35  C   LEU P   2      31.180   6.149  -4.537  0.50 58.43 LIG 0.24  C 
ATOM     36 O    LEU P   2      30.860   6.152  -3.358  0.50 58.37 LIG-0.27  OA
ATOM     37 H    VAL P   3      31.340   6.919  -6.218  0.50 58.27 LIG 0.16  HD
BRANCH 35 38
ATOM     38  CA  LEU P   2      32.111   5.198  -5.272  0.50 58.44 LIG 0.18  C 
BRANCH 38 39
ATOM     39  N   LEU P   2      32.425   5.343  -6.687  0.50 58.68 LIG-0.35  N 
ATOM     40 H    LEU P   2      33.120   5.728  -7.016  0.50 58.68 LIG 0.16  HD
ATOM     41  C   ALA P   1      31.359   4.731  -7.155  0.50 58.87 LIG 0.25  C 
ATOM     42 O    ALA P   1      30.538   4.349  -6.327  0.50 59.28 LIG-0.27  OA
BRANCH 41 43
ATOM     43  CA  ALA P   1      31.049   4.447  -8.615  0.50 58.66 LIG 0.27  C 
ATOM     44  CB  ALA P   1      32.047   5.079  -9.565  0.50 57.92 LIG 0.05  C 
BRANCH 43 45
ATOM     45  N   ALA P   1      29.685   4.949  -8.927  0.50 58.63 LIG-0.07  N 
ATOM     46 H1   ALA P   1      29.725   5.817  -9.120  0.50 58.63 LIG 0.28  HD
ATOM     47 H2   ALA P   1      29.357   4.506  -9.626  0.50 58.63 LIG 0.28  HD
ATOM     48 H3   ALA P   1      29.155   4.827  -8.223  0.50 58.63 LIG 0.28  HD
ENDBRANCH 43 45
ENDBRANCH 41 43
ENDBRANCH 38 39
BRANCH 38 49
ATOM     49  CB  LEU P   2      33.390   4.840  -4.504  0.50 58.10 LIG 0.04  C 
BRANCH 49 50
ATOM     50  CG  LEU P   2      34.560   5.819  -4.661  0.50 57.94 LIG-0.02  C 
ATOM     51  CD2 LEU P   2      34.067   7.246  -4.646  0.50 57.90 LIG 0.01  C 
ATOM     52  CD1 LEU P   2      35.316   5.542  -5.945  0.50 57.66 LIG 0.01  C 
ENDBRANCH 49 50
ENDBRANCH 38 49
ENDBRANCH 35 38
ENDBRANCH 30 34
ENDBRANCH 1 30
TORSDOF 21
ENDMDL
MODEL 29
USER: ADFR SOLUTION from run 69
USER: SCORE 18.004564 LL:  -4.154 LR: -15.725 RR:   0.000 FEB:  -9.461
USER: RMSD 5.106717
USER: SEED 68
USER: STATUS no improvement in best 3 clusters for 5 generations
USER: GENES 23
USER: genes 0 Translation |==|  0.43380 0.48518 0.51431
USER: genes 1 Rotation |==|  0.01056 0.54845 0.42514 0.54993
USER: genes 2 Torsion [C]-N--CA-[CB] |==|  0.23839
USER: genes 3 Torsion [N]-CA--CB-[CG] |==|  0.32766
USER: genes 4 Torsion [CA]-CB--CG-[CD2] |==|  0.21740
USER: genes 5 Torsion [CE2]-CZ--OH-[HH] |==|  0.75858
USER: genes 6 Torsion [N]-CA--C-[N] |==|  0.89911
USER: genes 7 Torsion [C]-N--CA-[CB] |==|  0.36430
USER: genes 8 Torsion [N]-CA--CB-[CG] |==|  0.79235
USER: genes 9 Torsion [CA]-CB--CG-[CD] |==|  0.76448
USER: genes 10 Torsion [CB]-CG--CD-[CE] |==|  0.38322
USER: genes 11 Torsion [CG]-CD--CE-[NZ] |==|  0.37292
USER: genes 12 Torsion [CD]-CE--NZ-[HZ1] |==|  0.21817
USER: genes 13 Torsion [N]-CA--C-[O] |==|  0.46456
USER: genes 14 Torsion [N]-C--CA-[N] |==|  0.75263
USER: genes 15 Torsion [C]-CA--CB-[CG1] |==|  0.79515
USER: genes 16 Torsion [C]-CA--N-[C] |==|  0.71975
USER: genes 17 Torsion [N]-C--CA-[N] |==|  0.93889
USER: genes 18 Torsion [C]-CA--N-[C] |==|  0.67411
USER: genes 19 Torsion [N]-C--CA-[N] |==|  0.50405
USER: genes 20 Torsion [C]-CA--N-[H1] |==|  0.61621
USER: genes 21 Torsion [C]-CA--CB-[CG] |==|  0.92094
USER: genes 22 Torsion [CA]-CB--CG-[CD2] |==|  0.61772
ROOT
ATOM      1  C   VAL P   3      32.574   4.515  -5.321  0.50 59.03 LIG 0.24  C 
ATOM      2 O    VAL P   3      31.907   3.464  -5.337  0.50 59.49 LIG-0.27  OA
ATOM      3  N   TYR P   4      31.980   5.581  -5.864  0.50 59.73 LIG-0.35  N 
ATOM      4 H    TYR P   4      32.246   6.354  -6.132  0.50 59.73 LIG 0.16  HD
ENDROOT
BRANCH 3 5
ATOM      5  CA  TYR P   4      30.668   5.140  -5.920  0.50 59.99 LIG 0.18  C 
BRANCH 5 6
ATOM      6  CB  TYR P   4      30.038   5.463  -4.528  0.50 59.48 LIG 0.07  C 
BRANCH 6 7
ATOM      7  CG  TYR P   4      28.841   6.445  -4.480  0.50 58.89 LIG-0.06  A 
ATOM      8  CD2 TYR P   4      27.545   6.029  -4.828  0.50 58.48 LIG 0.01  A 
ATOM      9  CE2 TYR P   4      26.455   6.855  -4.618  0.50 57.98 LIG 0.04  A 
ATOM     10  CZ  TYR P   4      26.639   8.120  -4.118  0.50 58.05 LIG 0.07  A 
ATOM     11  CE1 TYR P   4      27.933   8.579  -3.842  0.50 57.81 LIG 0.04  A 
ATOM     12  CD1 TYR P   4      29.033   7.719  -4.023  0.50 58.25 LIG 0.01  A 
BRANCH 10 13
ATOM     13 OH   TYR P   4      25.546   8.922  -3.873  0.50 58.00 LIG-0.36  OA
ATOM     14 HH   TYR P   4      25.341   9.339  -4.573  0.50 58.00 LIG 0.22  HD
ENDBRANCH 10 13
ENDBRANCH 6 7
ENDBRANCH 5 6
BRANCH 5 15
ATOM     15  C   TYR P   4      29.845   5.470  -7.090  0.50 60.88 LIG 0.24  C 
ATOM     16  N   LYS P   5      30.220   6.682  -7.431  0.50 60.84 LIG-0.35  N 
ATOM     17 H    LYS P   5      30.845   7.092  -7.006  0.50 60.84 LIG 0.16  HD
ATOM     18 O    TYR P   4      28.937   4.811  -7.593  0.50 61.26 LIG-0.27  OA
BRANCH 16 19
ATOM     19  CA  LYS P   5      29.684   7.487  -8.509  0.50 61.28 LIG 0.16  C 
BRANCH 19 20
ATOM     20  CB  LYS P   5      29.349   8.876  -8.043  0.50 60.15 LIG 0.03  C 
BRANCH 20 21
ATOM     21  CG  LYS P   5      28.080   8.843  -7.216  0.50 59.32 LIG 0.00  C 
BRANCH 21 22
ATOM     22  CD  LYS P   5      26.852   8.911  -8.099  0.50 58.12 LIG 0.03  C 
BRANCH 22 23
ATOM     23  CE  LYS P   5      25.771   7.960  -7.647  0.50 56.96 LIG 0.23  C 
BRANCH 23 24
ATOM     24  NZ  LYS P   5      24.431   8.611  -7.625  0.50 55.60 LIG-0.08  N 
ATOM     25 HZ2  LYS P   5      23.878   8.135  -7.116  0.50 55.60 LIG 0.27  HD
ATOM     26 HZ1  LYS P   5      24.109   8.653  -8.453  0.50 55.60 LIG 0.27  HD
ATOM     27 HZ3  LYS P   5      24.505   9.433  -7.293  0.50 55.60 LIG 0.27  HD
ENDBRANCH 23 24
ENDBRANCH 22 23
ENDBRANCH 21 22
ENDBRANCH 20 21
ENDBRANCH 19 20
BRANCH 19 28
ATOM     28  C   LYS P   5      30.676   7.528  -9.659  0.50 61.70 LIG 0.22  C 
ATOM     29 O    LYS P   5      30.331   7.955 -10.761  0.50 62.43 LIG-0.29  OA
ENDBRANCH 19 28
ENDBRANCH 16 19
ENDBRANCH 5 15
ENDBRANCH 3 5
BRANCH 1 30
ATOM     30  CA  VAL P   3      33.949   4.364  -4.684  0.50 58.35 LIG 0.18  C 
BRANCH 30 31
ATOM     31  CB  VAL P   3      34.196   5.714  -3.986  0.50 57.85 LIG 0.01  C 
ATOM     32  CG1 VAL P   3      34.510   6.813  -4.980  0.50 57.49 LIG 0.01  C 
ATOM     33  CG2 VAL P   3      32.999   6.105  -3.135  0.50 57.23 LIG 0.01  C 
ENDBRANCH 30 31
BRANCH 30 34
ATOM     34  N   VAL P   3      35.288   4.038  -5.126  0.50 58.27 LIG-0.35  N 
ATOM     35  C   LEU P   2      36.200   3.046  -5.189  0.50 58.43 LIG 0.24  C 
ATOM     36 O    LEU P   2      36.209   1.967  -4.619  0.50 58.37 LIG-0.27  OA
ATOM     37 H    VAL P   3      35.576   4.772  -5.471  0.50 58.27 LIG 0.16  HD
BRANCH 35 38
ATOM     38  CA  LEU P   2      37.257   3.658  -6.094  0.50 58.44 LIG 0.18  C 
BRANCH 38 39
ATOM     39  N   LEU P   2      36.966   4.749  -7.015  0.50 58.68 LIG-0.35  N 
ATOM     40 H    LEU P   2      36.702   5.539  -6.800  0.50 58.68 LIG 0.16  HD
ATOM     41  C   ALA P   1      37.241   4.103  -8.126  0.50 58.87 LIG 0.25  C 
ATOM     42 O    ALA P   1      37.553   2.921  -8.011  0.50 59.28 LIG-0.27  OA
BRANCH 41 43
ATOM     43  CA  ALA P   1      37.216   4.675  -9.534  0.50 58.66 LIG 0.27  C 
ATOM     44  CB  ALA P   1      35.875   5.276  -9.904  0.50 57.92 LIG 0.05  C 
BRANCH 43 45
ATOM     45  N   ALA P   1      37.556   3.598 -10.501  0.50 58.63 LIG-0.07  N 
ATOM     46 H1   ALA P   1      38.106   3.919 -11.123  0.50 58.63 LIG 0.28  HD
ATOM     47 H2   ALA P   1      37.955   2.928 -10.071  0.50 58.63 LIG 0.28  HD
ATOM     48 H3   ALA P   1      36.812   3.300 -10.888  0.50 58.63 LIG 0.28  HD
ENDBRANCH 43 45
ENDBRANCH 41 43
ENDBRANCH 38 39
BRANCH 38 49
ATOM     49  CB  LEU P   2      38.606   3.919  -5.411  0.50 58.10 LIG 0.04  C 
BRANCH 49 50
ATOM     50  CG  LEU P   2      38.550   4.192  -3.903  0.50 57.94 LIG-0.02  C 
ATOM     51  CD2 LEU P   2      39.475   5.325  -3.531  0.50 57.90 LIG 0.01  C 
ATOM     52  CD1 LEU P   2      38.914   2.944  -3.124  0.50 57.66 LIG 0.01  C 
ENDBRANCH 49 50
ENDBRANCH 38 49
ENDBRANCH 35 38
ENDBRANCH 30 34
ENDBRANCH 1 30
TORSDOF 21
ENDMDL
MODEL 30
USER: ADFR SOLUTION from run 28
USER: SCORE 16.464240 LL:  -3.035 LR: -15.646 RR:   0.000 FEB:  -9.382
USER: RMSD 10.398877
USER: SEED 27
USER: STATUS no improvement in best 8 clusters for 5 generations
USER: GENES 23
USER: genes 0 Translation |==|  0.43755 0.51743 0.51903
USER: genes 1 Rotation |==|  0.61462 0.45928 0.97594 0.59319
USER: genes 2 Torsion [C]-N--CA-[CB] |==|  0.22080
USER: genes 3 Torsion [N]-CA--CB-[CG] |==|  0.48687
USER: genes 4 Torsion [CA]-CB--CG-[CD2] |==|  0.30426
USER: genes 5 Torsion [CE2]-CZ--OH-[HH] |==|  0.10220
USER: genes 6 Torsion [N]-CA--C-[N] |==|  0.84871
USER: genes 7 Torsion [C]-N--CA-[CB] |==|  0.82913
USER: genes 8 Torsion [N]-CA--CB-[CG] |==|  0.45252
USER: genes 9 Torsion [CA]-CB--CG-[CD] |==|  0.51535
USER: genes 10 Torsion [CB]-CG--CD-[CE] |==|  0.76440
USER: genes 11 Torsion [CG]-CD--CE-[NZ] |==|  0.90410
USER: genes 12 Torsion [CD]-CE--NZ-[HZ1] |==|  0.46196
USER: genes 13 Torsion [N]-CA--C-[O] |==|  0.34636
USER: genes 14 Torsion [N]-C--CA-[N] |==|  0.37805
USER: genes 15 Torsion [C]-CA--CB-[CG1] |==|  0.49969
USER: genes 16 Torsion [C]-CA--N-[C] |==|  0.15557
USER: genes 17 Torsion [N]-C--CA-[N] |==|  0.49220
USER: genes 18 Torsion [C]-CA--N-[C] |==|  0.68930
USER: genes 19 Torsion [N]-C--CA-[N] |==|  0.06771
USER: genes 20 Torsion [C]-CA--N-[H1] |==|  0.89907
USER: genes 21 Torsion [C]-CA--CB-[CG] |==|  0.68005
USER: genes 22 Torsion [CA]-CB--CG-[CD2] |==|  0.74849
ROOT
ATOM      1  C   VAL P   3      32.687   5.483  -5.179  0.50 59.03 LIG 0.24  C 
ATOM      2 O    VAL P   3      32.426   4.417  -5.767  0.50 59.49 LIG-0.27  OA
ATOM      3  N   TYR P   4      33.982   5.806  -5.120  0.50 59.73 LIG-0.35  N 
ATOM      4 H    TYR P   4      34.449   6.361  -4.660  0.50 59.73 LIG 0.16  HD
ENDROOT
BRANCH 3 5
ATOM      5  CA  TYR P   4      34.500   4.952  -6.081  0.50 59.99 LIG 0.18  C 
BRANCH 5 6
ATOM      6  CB  TYR P   4      34.202   5.616  -7.462  0.50 59.48 LIG 0.07  C 
BRANCH 6 7
ATOM      7  CG  TYR P   4      34.767   4.938  -8.734  0.50 58.89 LIG-0.06  A 
ATOM      8  CD2 TYR P   4      33.922   4.291  -9.651  0.50 58.48 LIG 0.01  A 
ATOM      9  CE2 TYR P   4      34.406   3.840 -10.867  0.50 57.98 LIG 0.04  A 
ATOM     10  CZ  TYR P   4      35.739   3.971 -11.165  0.50 58.05 LIG 0.07  A 
ATOM     11  CE1 TYR P   4      36.610   4.541 -10.228  0.50 57.81 LIG 0.04  A 
ATOM     12  CD1 TYR P   4      36.103   5.031  -9.010  0.50 58.25 LIG 0.01  A 
BRANCH 10 13
ATOM     13 OH   TYR P   4      36.207   3.558 -12.393  0.50 58.00 LIG-0.36  OA
ATOM     14 HH   TYR P   4      35.633   3.729 -12.984  0.50 58.00 LIG 0.22  HD
ENDBRANCH 10 13
ENDBRANCH 6 7
ENDBRANCH 5 6
BRANCH 5 15
ATOM     15  C   TYR P   4      35.852   4.407  -5.908  0.50 60.88 LIG 0.24  C 
ATOM     16  N   LYS P   5      36.618   5.462  -5.741  0.50 60.84 LIG-0.35  N 
ATOM     17 H    LYS P   5      36.287   6.255  -5.725  0.50 60.84 LIG 0.16  HD
ATOM     18 O    TYR P   4      36.219   3.237  -5.994  0.50 61.26 LIG-0.27  OA
BRANCH 16 19
ATOM     19  CA  LYS P   5      38.055   5.472  -5.565  0.50 61.28 LIG 0.16  C 
BRANCH 19 20
ATOM     20  CB  LYS P   5      38.461   4.725  -4.325  0.50 60.15 LIG 0.03  C 
BRANCH 20 21
ATOM     21  CG  LYS P   5      39.938   4.394  -4.392  0.50 59.32 LIG 0.00  C 
BRANCH 21 22
ATOM     22  CD  LYS P   5      40.356   3.525  -3.224  0.50 58.12 LIG 0.03  C 
BRANCH 22 23
ATOM     23  CE  LYS P   5      40.683   4.337  -1.996  0.50 56.96 LIG 0.23  C 
BRANCH 23 24
ATOM     24  NZ  LYS P   5      41.312   5.641  -2.343  0.50 55.60 LIG-0.08  N 
ATOM     25 HZ2  LYS P   5      42.151   5.506  -2.608  0.50 55.60 LIG 0.27  HD
ATOM     26 HZ1  LYS P   5      41.310   6.172  -1.628  0.50 55.60 LIG 0.27  HD
ATOM     27 HZ3  LYS P   5      40.853   6.028  -3.000  0.50 55.60 LIG 0.27  HD
ENDBRANCH 23 24
ENDBRANCH 22 23
ENDBRANCH 21 22
ENDBRANCH 20 21
ENDBRANCH 19 20
BRANCH 19 28
ATOM     28  C   LYS P   5      38.725   4.882  -6.794  0.50 61.70 LIG 0.22  C 
ATOM     29 O    LYS P   5      39.579   5.525  -7.404  0.50 62.43 LIG-0.29  OA
ENDBRANCH 19 28
ENDBRANCH 16 19
ENDBRANCH 5 15
ENDBRANCH 3 5
BRANCH 1 30
ATOM     30  CA  VAL P   3      31.460   6.202  -4.635  0.50 58.35 LIG 0.18  C 
BRANCH 30 31
ATOM     31  CB  VAL P   3      31.126   5.453  -3.332  0.50 57.85 LIG 0.01  C 
ATOM     32  CG1 VAL P   3      29.914   6.040  -2.638  0.50 57.49 LIG 0.01  C 
ATOM     33  CG2 VAL P   3      30.905   3.974  -3.606  0.50 57.23 LIG 0.01  C 
ENDBRANCH 30 31
BRANCH 30 34
ATOM     34  N   VAL P   3      30.132   6.531  -5.106  0.50 58.27 LIG-0.35  N 
ATOM     35  C   LEU P   2      28.996   6.004  -5.607  0.50 58.43 LIG 0.24  C 
ATOM     36 O    LEU P   2      28.792   4.885  -6.048  0.50 58.37 LIG-0.27  OA
ATOM     37 H    VAL P   3      30.088   7.386  -5.020  0.50 58.27 LIG 0.16  HD
BRANCH 35 38
ATOM     38  CA  LEU P   2      28.054   7.197  -5.551  0.50 58.44 LIG 0.18  C 
BRANCH 38 39
ATOM     39  N   LEU P   2      26.687   7.142  -6.051  0.50 58.68 LIG-0.35  N 
ATOM     40 H    LEU P   2      26.040   6.687  -5.712  0.50 58.68 LIG 0.16  HD
ATOM     41  C   ALA P   1      26.853   7.955  -7.071  0.50 58.87 LIG 0.25  C 
ATOM     42 O    ALA P   1      27.990   8.378  -7.256  0.50 59.28 LIG-0.27  OA
BRANCH 41 43
ATOM     43  CA  ALA P   1      25.777   8.424  -8.036  0.50 58.66 LIG 0.27  C 
ATOM     44  CB  ALA P   1      25.999   9.841  -8.525  0.50 57.92 LIG 0.05  C 
BRANCH 43 45
ATOM     45  N   ALA P   1      24.453   8.335  -7.366  0.50 58.63 LIG-0.07  N 
ATOM     46 H1   ALA P   1      24.434   7.617  -6.840  0.50 58.63 LIG 0.28  HD
ATOM     47 H2   ALA P   1      24.318   9.065  -6.875  0.50 58.63 LIG 0.28  HD
ATOM     48 H3   ALA P   1      23.812   8.269  -7.981  0.50 58.63 LIG 0.28  HD
ENDBRANCH 43 45
ENDBRANCH 41 43
ENDBRANCH 38 39
BRANCH 38 49
ATOM     49  CB  LEU P   2      28.076   7.963  -4.222  0.50 58.10 LIG 0.04  C 
BRANCH 49 50
ATOM     50  CG  LEU P   2      26.775   7.932  -3.411  0.50 57.94 LIG-0.02  C 
ATOM     51  CD2 LEU P   2      25.886   9.093  -3.783  0.50 57.90 LIG 0.01  C 
ATOM     52  CD1 LEU P   2      27.074   7.959  -1.925  0.50 57.66 LIG 0.01  C 
ENDBRANCH 49 50
ENDBRANCH 38 49
ENDBRANCH 35 38
ENDBRANCH 30 34
ENDBRANCH 1 30
TORSDOF 21
ENDMDL
MODEL 31
USER: ADFR SOLUTION from run 151
USER: SCORE 17.527255 LL:  -3.504 LR: -15.647 RR:   0.000 FEB:  -9.383
USER: RMSD 10.070802
USER: SEED 150
USER: STATUS searching
USER: GENES 23
USER: genes 0 Translation |==|  0.48583 0.50965 0.51263
USER: genes 1 Rotation |==|  0.51211 0.56326 0.96833 0.66285
USER: genes 2 Torsion [C]-N--CA-[CB] |==|  0.22826
USER: genes 3 Torsion [N]-CA--CB-[CG] |==|  0.16686
USER: genes 4 Torsion [CA]-CB--CG-[CD2] |==|  0.58521
USER: genes 5 Torsion [CE2]-CZ--OH-[HH] |==|  0.80350
USER: genes 6 Torsion [N]-CA--C-[N] |==|  0.38606
USER: genes 7 Torsion [C]-N--CA-[CB] |==|  0.79518
USER: genes 8 Torsion [N]-CA--CB-[CG] |==|  0.69995
USER: genes 9 Torsion [CA]-CB--CG-[CD] |==|  0.25110
USER: genes 10 Torsion [CB]-CG--CD-[CE] |==|  0.42939
USER: genes 11 Torsion [CG]-CD--CE-[NZ] |==|  0.22172
USER: genes 12 Torsion [CD]-CE--NZ-[HZ1] |==|  0.51324
USER: genes 13 Torsion [N]-CA--C-[O] |==|  0.35610
USER: genes 14 Torsion [N]-C--CA-[N] |==|  0.50397
USER: genes 15 Torsion [C]-CA--CB-[CG1] |==|  0.90612
USER: genes 16 Torsion [C]-CA--N-[C] |==|  0.80534
USER: genes 17 Torsion [N]-C--CA-[N] |==|  0.47524
USER: genes 18 Torsion [C]-CA--N-[C] |==|  0.68795
USER: genes 19 Torsion [N]-C--CA-[N] |==|  0.28579
USER: genes 20 Torsion [C]-CA--N-[H1] |==|  0.50628
USER: genes 21 Torsion [C]-CA--CB-[CG] |==|  0.31965
USER: genes 22 Torsion [CA]-CB--CG-[CD2] |==|  0.56121
ROOT
ATOM      1  C   VAL P   3      34.135   5.250  -5.371  0.50 59.03 LIG 0.24  C 
ATOM      2 O    VAL P   3      33.724   4.076  -5.429  0.50 59.49 LIG-0.27  OA
ATOM      3  N   TYR P   4      35.425   5.392  -5.057  0.50 59.73 LIG-0.35  N 
ATOM      4 H    TYR P   4      35.918   6.046  -4.794  0.50 59.73 LIG 0.16  HD
ENDROOT
BRANCH 3 5
ATOM      5  CA  TYR P   4      35.882   4.101  -5.268  0.50 59.99 LIG 0.18  C 
BRANCH 5 6
ATOM      6  CB  TYR P   4      36.144   3.975  -6.802  0.50 59.48 LIG 0.07  C 
BRANCH 6 7
ATOM      7  CG  TYR P   4      37.180   4.930  -7.445  0.50 58.89 LIG-0.06  A 
ATOM      8  CD2 TYR P   4      37.050   5.353  -8.779  0.50 58.48 LIG 0.01  A 
ATOM      9  CE2 TYR P   4      37.876   6.337  -9.295  0.50 57.98 LIG 0.04  A 
ATOM     10  CZ  TYR P   4      38.873   6.872  -8.518  0.50 58.05 LIG 0.07  A 
ATOM     11  CE1 TYR P   4      39.066   6.404  -7.212  0.50 57.81 LIG 0.04  A 
ATOM     12  CD1 TYR P   4      38.199   5.430  -6.683  0.50 58.25 LIG 0.01  A 
BRANCH 10 13
ATOM     13 OH   TYR P   4      39.664   7.880  -9.024  0.50 58.00 LIG-0.36  OA
ATOM     14 HH   TYR P   4      40.171   7.569  -9.617  0.50 58.00 LIG 0.22  HD
ENDBRANCH 10 13
ENDBRANCH 6 7
ENDBRANCH 5 6
BRANCH 5 15
ATOM     15  C   TYR P   4      36.923   3.552  -4.391  0.50 60.88 LIG 0.24  C 
ATOM     16  N   LYS P   5      36.552   2.312  -4.167  0.50 60.84 LIG-0.35  N 
ATOM     17 H    LYS P   5      35.845   1.985  -4.531  0.50 60.84 LIG 0.16  HD
ATOM     18 O    TYR P   4      37.883   4.135  -3.890  0.50 61.26 LIG-0.27  OA
BRANCH 16 19
ATOM     19  CA  LYS P   5      37.223   1.343  -3.325  0.50 61.28 LIG 0.16  C 
BRANCH 19 20
ATOM     20  CB  LYS P   5      38.481   0.833  -3.971  0.50 60.15 LIG 0.03  C 
BRANCH 20 21
ATOM     21  CG  LYS P   5      38.274  -0.597  -4.427  0.50 59.32 LIG 0.00  C 
BRANCH 21 22
ATOM     22  CD  LYS P   5      37.754  -0.646  -5.849  0.50 58.12 LIG 0.03  C 
BRANCH 22 23
ATOM     23  CE  LYS P   5      38.104  -1.941  -6.540  0.50 56.96 LIG 0.23  C 
BRANCH 23 24
ATOM     24  NZ  LYS P   5      37.186  -3.046  -6.148  0.50 55.60 LIG-0.08  N 
ATOM     25 HZ2  LYS P   5      37.185  -3.132  -5.263  0.50 55.60 LIG 0.27  HD
ATOM     26 HZ1  LYS P   5      37.463  -3.807  -6.519  0.50 55.60 LIG 0.27  HD
ATOM     27 HZ3  LYS P   5      36.362  -2.862  -6.429  0.50 55.60 LIG 0.27  HD
ENDBRANCH 23 24
ENDBRANCH 22 23
ENDBRANCH 21 22
ENDBRANCH 20 21
ENDBRANCH 19 20
BRANCH 19 28
ATOM     28  C   LYS P   5      37.525   1.963  -1.972  0.50 61.70 LIG 0.22  C 
ATOM     29 O    LYS P   5      37.185   1.390  -0.937  0.50 62.43 LIG-0.29  OA
ENDBRANCH 19 28
ENDBRANCH 16 19
ENDBRANCH 5 15
ENDBRANCH 3 5
BRANCH 1 30
ATOM     30  CA  VAL P   3      33.065   6.293  -5.666  0.50 58.35 LIG 0.18  C 
BRANCH 30 31
ATOM     31  CB  VAL P   3      33.082   7.214  -4.433  0.50 57.85 LIG 0.01  C 
ATOM     32  CG1 VAL P   3      33.401   6.453  -3.163  0.50 57.49 LIG 0.01  C 
ATOM     33  CG2 VAL P   3      34.075   8.349  -4.625  0.50 57.23 LIG 0.01  C 
ENDBRANCH 30 31
BRANCH 30 34
ATOM     34  N   VAL P   3      31.654   6.297  -5.989  0.50 58.27 LIG-0.35  N 
ATOM     35  C   LEU P   2      30.760   5.993  -6.951  0.50 58.43 LIG 0.24  C 
ATOM     36 O    LEU P   2      30.949   5.728  -8.127  0.50 58.37 LIG-0.27  OA
ATOM     37 H    VAL P   3      31.282   6.619  -5.283  0.50 58.27 LIG 0.16  HD
BRANCH 35 38
ATOM     38  CA  LEU P   2      29.444   6.146  -6.205  0.50 58.44 LIG 0.18  C 
BRANCH 38 39
ATOM     39  N   LEU P   2      28.151   6.103  -6.875  0.50 58.68 LIG-0.35  N 
ATOM     40 H    LEU P   2      27.797   5.416  -7.253  0.50 58.68 LIG 0.16  HD
ATOM     41  C   ALA P   1      27.823   7.361  -6.679  0.50 58.87 LIG 0.25  C 
ATOM     42 O    ALA P   1      28.657   8.064  -6.116  0.50 59.28 LIG-0.27  OA
BRANCH 41 43
ATOM     43  CA  ALA P   1      26.516   8.026  -7.076  0.50 58.66 LIG 0.27  C 
ATOM     44  CB  ALA P   1      26.716   9.381  -7.726  0.50 57.92 LIG 0.05  C 
BRANCH 43 45
ATOM     45  N   ALA P   1      25.665   8.181  -5.867  0.50 58.63 LIG-0.07  N 
ATOM     46 H1   ALA P   1      24.883   8.540  -6.097  0.50 58.63 LIG 0.28  HD
ATOM     47 H2   ALA P   1      25.525   7.383  -5.497  0.50 58.63 LIG 0.28  HD
ATOM     48 H3   ALA P   1      26.074   8.711  -5.281  0.50 58.63 LIG 0.28  HD
ENDBRANCH 43 45
ENDBRANCH 41 43
ENDBRANCH 38 39
BRANCH 38 49
ATOM     49  CB  LEU P   2      29.360   5.352  -4.894  0.50 58.10 LIG 0.04  C 
BRANCH 49 50
ATOM     50  CG  LEU P   2      29.248   6.188  -3.613  0.50 57.94 LIG-0.02  C 
ATOM     51  CD2 LEU P   2      29.704   5.392  -2.414  0.50 57.90 LIG 0.01  C 
ATOM     52  CD1 LEU P   2      27.823   6.664  -3.412  0.50 57.66 LIG 0.01  C 
ENDBRANCH 49 50
ENDBRANCH 38 49
ENDBRANCH 35 38
ENDBRANCH 30 34
ENDBRANCH 1 30
TORSDOF 21
ENDMDL
