MODEL 1
USER: ADFR SOLUTION from run 1
USER: SCORE 18.077926 LL:  -2.112 LR: -17.392 RR:   0.000 FEB: -10.233
USER: RMSD 6.862326
USER: SEED 244723
USER: STATUS no improvement in best 5 clusters for 5 generations
USER: GENES 26
USER: genes 0 Translation |==|  0.54993 0.43042 0.58563
USER: genes 1 Rotation |==|  0.61566 0.84700 0.51036 0.84074
USER: genes 2 Torsion [N]-CA--C-[N] |==|  0.90370
USER: genes 3 Torsion [C]-N--CA-[C] |==|  0.75052
USER: genes 4 Torsion [N]-CA--C-[N] |==|  0.44982
USER: genes 5 Torsion [C]-N--CA-[C] |==|  0.63012
USER: genes 6 Torsion [N]-CA--C-[O] |==|  0.91071
USER: genes 7 Torsion [N]-CA--CB-[CG] |==|  0.59111
USER: genes 8 Torsion [CA]-CB--CG-[CD] |==|  0.48345
USER: genes 9 Torsion [CB]-CG--CD-[OE1] |==|  0.14746
USER: genes 10 Torsion [N]-CA--CB-[CG] |==|  0.95552
USER: genes 11 Torsion [CA]-CB--CG-[CD] |==|  0.40357
USER: genes 12 Torsion [CB]-CG--CD-[CE] |==|  0.79444
USER: genes 13 Torsion [CG]-CD--CE-[NZ] |==|  0.38838
USER: genes 14 Torsion [CD]-CE--NZ-[HZ3] |==|  0.47573
USER: genes 15 Torsion [C]-CA--CB-[CG2] |==|  0.90502
USER: genes 16 Torsion [CA]-CB--OG1-[HG1] |==|  0.29117
USER: genes 17 Torsion [C]-CA--N-[C] |==|  0.63474
USER: genes 18 Torsion [N]-C--CA-[N] |==|  0.53794
USER: genes 19 Torsion [C]-CA--N-[C] |==|  0.16667
USER: genes 20 Torsion [N]-C--CA-[N] |==|  0.19342
USER: genes 21 Torsion [C]-CA--N-[H1] |==|  0.40566
USER: genes 22 Torsion [C]-CA--CB-[CG] |==|  0.53235
USER: genes 23 Torsion [CA]-CB--CG-[CD] |==|  0.75934
USER: genes 24 Torsion [CB]-CG--CD-[NE] |==|  0.95788
USER: genes 25 Torsion [CG]-CD--NE-[HE] |==|  0.13066
ROOT
ATOM      1  CA  THR D   3      19.498 -18.927  19.079  1.00 16.13 LIG 0.20  C 
ENDROOT
BRANCH 1 2
ATOM      2  C   THR D   3      18.047 -18.551  19.417  1.00 16.95 LIG 0.24  C 
ATOM      3 O    THR D   3      17.237 -19.428  19.733  1.00 16.12 LIG-0.27  OA
ATOM      4  N   LYS D   4      17.740 -17.253  19.344  1.00 18.15 LIG-0.35  N 
ATOM      5 H    LYS D   4      18.323 -16.648  19.162  1.00 18.15 LIG 0.16  HD
BRANCH 4 6
ATOM      6  CA  LYS D   4      16.390 -16.710  19.562  1.00 19.65 LIG 0.18  C 
BRANCH 6 7
ATOM      7  C   LYS D   4      15.639 -16.671  18.248  1.00 20.62 LIG 0.24  C 
ATOM      8  N   GLN D   5      14.316 -16.564  18.321  1.00 21.55 LIG-0.35  N 
ATOM      9 H    GLN D   5      13.876 -16.515  19.059  1.00 21.55 LIG 0.16  HD
ATOM     10 O    LYS D   4      16.255 -16.725  17.179  1.00 20.86 LIG-0.27  OA
BRANCH 8 11
ATOM     11  CA  GLN D   5      13.483 -16.520  17.112  1.00 22.83 LIG 0.16  C 
BRANCH 11 12
ATOM     12  C   GLN D   5      12.445 -15.401  17.165  1.00 22.91 LIG 0.22  C 
ATOM     13 O    GLN D   5      11.944 -15.047  18.233  1.00 23.29 LIG-0.29  OA
ENDBRANCH 11 12
BRANCH 11 14
ATOM     14  CB  GLN D   5      12.803 -17.869  16.863  1.00 22.86 LIG 0.04  C 
BRANCH 14 15
ATOM     15  CG  GLN D   5      12.602 -18.213  15.397  1.00 24.40 LIG 0.10  C 
BRANCH 15 16
ATOM     16  CD  GLN D   5      12.059 -19.614  15.182  1.00 24.21 LIG 0.21  C 
ATOM     17  NE2 GLN D   5      12.750 -20.395  14.351  1.00 25.13 LIG-0.37  N 
ATOM     18 22HE GLN D   5      12.487 -21.199  14.199  1.00 25.13 LIG 0.16  HD
ATOM     19 21HE GLN D   5      13.459 -20.095  13.968  1.00 25.13 LIG 0.16  HD
ATOM     20 OE1  GLN D   5      11.033 -19.995  15.760  1.00 25.71 LIG-0.27  OA
ENDBRANCH 15 16
ENDBRANCH 14 15
ENDBRANCH 11 14
ENDBRANCH 8 11
ENDBRANCH 6 7
BRANCH 6 21
ATOM     21  CB  LYS D   4      16.455 -15.274  20.091  1.00 19.73 LIG 0.04  C 
BRANCH 21 22
ATOM     22  CG  LYS D   4      17.786 -14.832  20.635  1.00 20.49 LIG 0.00  C 
BRANCH 22 23
ATOM     23  CD  LYS D   4      18.000 -13.359  20.323  1.00 20.73 LIG 0.03  C 
BRANCH 23 24
ATOM     24  CE  LYS D   4      18.320 -13.164  18.860  1.00 20.46 LIG 0.23  C 
BRANCH 24 25
ATOM     25  NZ  LYS D   4      17.640 -11.965  18.316  1.00 20.02 LIG-0.08  N 
ATOM     26 HZ3  LYS D   4      17.942 -11.800  17.495  1.00 20.02 LIG 0.27  HD
ATOM     27 HZ1  LYS D   4      16.763 -12.109  18.286  1.00 20.02 LIG 0.27  HD
ATOM     28 HZ2  LYS D   4      17.808 -11.265  18.839  1.00 20.02 LIG 0.27  HD
ENDBRANCH 24 25
ENDBRANCH 23 24
ENDBRANCH 22 23
ENDBRANCH 21 22
ENDBRANCH 6 21
ENDBRANCH 4 6
ENDBRANCH 1 2
BRANCH 1 29
ATOM     29  CB  THR D   3      20.354 -18.925  20.360  1.00 15.86 LIG 0.15  C 
ATOM     30  CG2 THR D   3      19.878 -17.841  21.323  1.00 16.15 LIG 0.04  C 
BRANCH 29 31
ATOM     31 OG1  THR D   3      20.254 -20.199  21.007  1.00 16.19 LIG-0.39  OA
ATOM     32 HG1  THR D   3      20.960 -20.635  20.879  1.00 16.19 LIG 0.21  HD
ENDBRANCH 29 31
ENDBRANCH 1 29
BRANCH 1 33
ATOM     33  N   THR D   3      20.105 -18.099  18.026  1.00 15.75 LIG-0.34  N 
ATOM     34  C   ARG D   2      20.756 -18.633  16.992  1.00 15.31 LIG 0.24  C 
ATOM     35 O    ARG D   2      20.847 -19.846  16.810  1.00 15.17 LIG-0.27  OA
ATOM     36 H    THR D   3      20.002 -17.252  18.140  1.00 15.75 LIG 0.16  HD
BRANCH 34 37
ATOM     37  CA  ARG D   2      21.419 -17.655  16.021  1.00 15.15 LIG 0.18  C 
BRANCH 37 38
ATOM     38  N   ARG D   2      21.827 -18.299  14.768  1.00 15.89 LIG-0.35  N 
ATOM     39  C   ALA D   1      20.990 -18.911  13.928  1.00 16.91 LIG 0.25  C 
ATOM     40 O    ALA D   1      19.794 -19.110  14.178  1.00 17.32 LIG-0.27  OA
ATOM     41 H    ARG D   2      22.672 -18.245  14.620  1.00 15.89 LIG 0.16  HD
BRANCH 39 42
ATOM     42  CA  ALA D   1      21.596 -19.385  12.606  1.00 17.08 LIG 0.27  C 
ATOM     43  CB  ALA D   1      20.488 -19.783  11.605  1.00 17.48 LIG 0.05  C 
BRANCH 42 44
ATOM     44  N   ALA D   1      22.533 -20.526  12.824  1.00 17.36 LIG-0.07  N 
ATOM     45 H3   ALA D   1      22.302 -20.962  13.565  1.00 17.36 LIG 0.28  HD
ATOM     46 H2   ALA D   1      23.363 -20.216  12.907  1.00 17.36 LIG 0.28  HD
ATOM     47 H1   ALA D   1      22.492 -21.081  12.129  1.00 17.36 LIG 0.28  HD
ENDBRANCH 42 44
ENDBRANCH 39 42
ENDBRANCH 37 38
BRANCH 37 48
ATOM     48  CB  ARG D   2      20.442 -16.518  15.690  1.00 15.08 LIG 0.04  C 
BRANCH 48 49
ATOM     49  CG  ARG D   2      20.813 -15.596  14.536  1.00 14.63 LIG 0.02  C 
BRANCH 49 50
ATOM     50  CD  ARG D   2      21.709 -14.451  15.026  1.00 13.91 LIG 0.14  C 
BRANCH 50 51
ATOM     51  NE  ARG D   2      21.693 -14.319  16.482  1.00 10.79 LIG-0.23  N 
ATOM     52 HE   ARG D   2      21.788 -15.034  16.952  1.00 10.79 LIG 0.18  HD
ATOM     53  CZ  ARG D   2      21.539 -13.165  17.132  1.00 10.30 LIG 0.67  C 
ATOM     54  NH2 ARG D   2      21.400 -12.023  16.459  1.00  9.50 LIG-0.23  N 
ATOM     55  NH1 ARG D   2      21.522 -13.155  18.457  1.00  9.44 LIG-0.23  N 
ATOM     56 22HH ARG D   2      21.300 -11.283  16.885  1.00  9.50 LIG 0.17  HD
ATOM     57 21HH ARG D   2      21.408 -12.027  15.599  1.00  9.50 LIG 0.17  HD
ATOM     58 11HH ARG D   2      21.611 -13.890  18.894  1.00  9.44 LIG 0.17  HD
ATOM     59 12HH ARG D   2      21.424 -12.412  18.880  1.00  9.44 LIG 0.17  HD
ENDBRANCH 50 51
ENDBRANCH 49 50
ENDBRANCH 48 49
ENDBRANCH 37 48
ENDBRANCH 34 37
ENDBRANCH 1 33
TORSDOF 24
ENDMDL
MODEL 2
USER: ADFR SOLUTION from run 131
USER: SCORE 18.726900 LL:  -2.249 LR: -17.343 RR:   0.000 FEB: -10.184
USER: RMSD 9.491248
USER: SEED 130
USER: STATUS no improvement in best 7 clusters for 5 generations
USER: GENES 26
USER: genes 0 Translation |==|  0.53641 0.43078 0.49929
USER: genes 1 Rotation |==|  0.37212 0.06009 0.69889 0.52381
USER: genes 2 Torsion [N]-CA--C-[N] |==|  0.30564
USER: genes 3 Torsion [C]-N--CA-[C] |==|  0.64614
USER: genes 4 Torsion [N]-CA--C-[N] |==|  0.37525
USER: genes 5 Torsion [C]-N--CA-[C] |==|  0.57016
USER: genes 6 Torsion [N]-CA--C-[O] |==|  0.72424
USER: genes 7 Torsion [N]-CA--CB-[CG] |==|  0.51703
USER: genes 8 Torsion [CA]-CB--CG-[CD] |==|  0.67821
USER: genes 9 Torsion [CB]-CG--CD-[OE1] |==|  0.30607
USER: genes 10 Torsion [N]-CA--CB-[CG] |==|  0.84656
USER: genes 11 Torsion [CA]-CB--CG-[CD] |==|  0.87776
USER: genes 12 Torsion [CB]-CG--CD-[CE] |==|  0.60881
USER: genes 13 Torsion [CG]-CD--CE-[NZ] |==|  0.46506
USER: genes 14 Torsion [CD]-CE--NZ-[HZ3] |==|  0.08645
USER: genes 15 Torsion [C]-CA--CB-[CG2] |==|  0.77404
USER: genes 16 Torsion [CA]-CB--OG1-[HG1] |==|  0.07100
USER: genes 17 Torsion [C]-CA--N-[C] |==|  0.79345
USER: genes 18 Torsion [N]-C--CA-[N] |==|  0.12800
USER: genes 19 Torsion [C]-CA--N-[C] |==|  0.72915
USER: genes 20 Torsion [N]-C--CA-[N] |==|  0.08825
USER: genes 21 Torsion [C]-CA--N-[H1] |==|  0.59620
USER: genes 22 Torsion [C]-CA--CB-[CG] |==|  0.81744
USER: genes 23 Torsion [CA]-CB--CG-[CD] |==|  0.70377
USER: genes 24 Torsion [CB]-CG--CD-[NE] |==|  0.40956
USER: genes 25 Torsion [CG]-CD--NE-[HE] |==|  0.82347
ROOT
ATOM      1  CA  THR D   3      19.092 -18.917  16.489  1.00 16.13 LIG 0.20  C 
ENDROOT
BRANCH 1 2
ATOM      2  C   THR D   3      19.745 -17.992  17.528  1.00 16.95 LIG 0.24  C 
ATOM      3 O    THR D   3      20.512 -17.096  17.165  1.00 16.12 LIG-0.27  OA
ATOM      4  N   LYS D   4      19.429 -18.223  18.806  1.00 18.15 LIG-0.35  N 
ATOM      5 H    LYS D   4      18.862 -18.824  19.042  1.00 18.15 LIG 0.16  HD
BRANCH 4 6
ATOM      6  CA  LYS D   4      20.006 -17.491  19.944  1.00 19.65 LIG 0.18  C 
BRANCH 6 7
ATOM      7  C   LYS D   4      20.564 -18.474  20.952  1.00 20.62 LIG 0.24  C 
ATOM      8  N   GLN D   5      21.766 -18.199  21.450  1.00 21.55 LIG-0.35  N 
ATOM      9 H    GLN D   5      22.230 -17.508  21.235  1.00 21.55 LIG 0.16  HD
ATOM     10 O    LYS D   4      19.905 -19.464  21.283  1.00 20.86 LIG-0.27  OA
BRANCH 8 11
ATOM     11  CA  GLN D   5      22.408 -19.083  22.431  1.00 22.83 LIG 0.16  C 
BRANCH 11 12
ATOM     12  C   GLN D   5      23.417 -18.340  23.305  1.00 22.91 LIG 0.22  C 
ATOM     13 O    GLN D   5      24.625 -18.390  23.067  1.00 23.29 LIG-0.29  OA
ENDBRANCH 11 12
BRANCH 11 14
ATOM     14  CB  GLN D   5      23.074 -20.278  21.744  1.00 22.86 LIG 0.04  C 
BRANCH 14 15
ATOM     15  CG  GLN D   5      23.637 -21.320  22.695  1.00 24.40 LIG 0.10  C 
BRANCH 15 16
ATOM     16  CD  GLN D   5      25.145 -21.455  22.607  1.00 24.21 LIG 0.21  C 
ATOM     17  NE2 GLN D   5      25.627 -21.996  21.486  1.00 25.13 LIG-0.37  N 
ATOM     18 22HE GLN D   5      26.475 -22.090  21.385  1.00 25.13 LIG 0.16  HD
ATOM     19 21HE GLN D   5      25.088 -22.248  20.865  1.00 25.13 LIG 0.16  HD
ATOM     20 OE1  GLN D   5      25.873 -21.074  23.532  1.00 25.71 LIG-0.27  OA
ENDBRANCH 15 16
ENDBRANCH 14 15
ENDBRANCH 11 14
ENDBRANCH 8 11
ENDBRANCH 6 7
BRANCH 6 21
ATOM     21  CB  LYS D   4      18.937 -16.661  20.662  1.00 19.73 LIG 0.04  C 
BRANCH 21 22
ATOM     22  CG  LYS D   4      18.168 -15.695  19.804  1.00 20.49 LIG 0.00  C 
BRANCH 22 23
ATOM     23  CD  LYS D   4      19.126 -14.959  18.880  1.00 20.73 LIG 0.03  C 
BRANCH 23 24
ATOM     24  CE  LYS D   4      18.732 -13.508  18.747  1.00 20.46 LIG 0.23  C 
BRANCH 24 25
ATOM     25  NZ  LYS D   4      19.806 -12.715  18.105  1.00 20.02 LIG-0.08  N 
ATOM     26 HZ3  LYS D   4      20.254 -13.229  17.533  1.00 20.02 LIG 0.27  HD
ATOM     27 HZ1  LYS D   4      19.447 -12.029  17.667  1.00 20.02 LIG 0.27  HD
ATOM     28 HZ2  LYS D   4      20.364 -12.410  18.728  1.00 20.02 LIG 0.27  HD
ENDBRANCH 24 25
ENDBRANCH 23 24
ENDBRANCH 22 23
ENDBRANCH 21 22
ENDBRANCH 6 21
ENDBRANCH 4 6
ENDBRANCH 1 2
BRANCH 1 29
ATOM     29  CB  THR D   3      20.179 -19.594  15.632  1.00 15.86 LIG 0.15  C 
ATOM     30  CG2 THR D   3      20.656 -18.657  14.526  1.00 16.15 LIG 0.04  C 
BRANCH 29 31
ATOM     31 OG1  THR D   3      21.296 -19.943  16.460  1.00 16.19 LIG-0.39  OA
ATOM     32 HG1  THR D   3      21.036 -20.044  17.253  1.00 16.19 LIG 0.21  HD
ENDBRANCH 29 31
ENDBRANCH 1 29
BRANCH 1 33
ATOM     33  N   THR D   3      18.080 -18.259  15.648  1.00 15.75 LIG-0.34  N 
ATOM     34  C   ARG D   2      16.869 -17.946  16.113  1.00 15.31 LIG 0.24  C 
ATOM     35 O    ARG D   2      16.531 -18.128  17.280  1.00 15.17 LIG-0.27  OA
ATOM     36 H    THR D   3      18.339 -18.098  14.844  1.00 15.75 LIG 0.16  HD
BRANCH 34 37
ATOM     37  CA  ARG D   2      15.883 -17.351  15.107  1.00 15.15 LIG 0.18  C 
BRANCH 37 38
ATOM     38  N   ARG D   2      15.856 -18.092  13.842  1.00 15.89 LIG-0.35  N 
ATOM     39  C   ALA D   1      16.533 -17.740  12.747  1.00 16.91 LIG 0.25  C 
ATOM     40 O    ALA D   1      17.159 -16.677  12.643  1.00 17.32 LIG-0.27  OA
ATOM     41 H    ARG D   2      15.354 -18.790  13.870  1.00 15.89 LIG 0.16  HD
BRANCH 39 42
ATOM     42  CA  ALA D   1      16.486 -18.731  11.583  1.00 17.08 LIG 0.27  C 
ATOM     43  CB  ALA D   1      16.724 -18.010  10.237  1.00 17.48 LIG 0.05  C 
BRANCH 42 44
ATOM     44  N   ALA D   1      15.187 -19.465  11.556  1.00 17.36 LIG-0.07  N 
ATOM     45 H3   ALA D   1      14.624 -19.052  11.003  1.00 17.36 LIG 0.28  HD
ATOM     46 H2   ALA D   1      14.839 -19.483  12.375  1.00 17.36 LIG 0.28  HD
ATOM     47 H1   ALA D   1      15.322 -20.298  11.273  1.00 17.36 LIG 0.28  HD
ENDBRANCH 42 44
ENDBRANCH 39 42
ENDBRANCH 37 38
BRANCH 37 48
ATOM     48  CB  ARG D   2      14.470 -17.358  15.706  1.00 15.08 LIG 0.04  C 
BRANCH 48 49
ATOM     49  CG  ARG D   2      13.833 -18.715  15.971  1.00 14.63 LIG 0.02  C 
BRANCH 49 50
ATOM     50  CD  ARG D   2      12.732 -19.005  14.942  1.00 13.91 LIG 0.14  C 
BRANCH 50 51
ATOM     51  NE  ARG D   2      12.624 -20.432  14.635  1.00 10.79 LIG-0.23  N 
ATOM     52 HE   ARG D   2      13.299 -20.814  14.262  1.00 10.79 LIG 0.18  HD
ATOM     53  CZ  ARG D   2      11.550 -21.178  14.893  1.00 10.30 LIG 0.67  C 
ATOM     54  NH2 ARG D   2      10.480 -20.644  15.481  1.00  9.50 LIG-0.23  N 
ATOM     55  NH1 ARG D   2      11.547 -22.461  14.560  1.00  9.44 LIG-0.23  N 
ATOM     56 22HH ARG D   2       9.791 -21.131  15.644  1.00  9.50 LIG 0.17  HD
ATOM     57 21HH ARG D   2      10.478 -19.811  15.697  1.00  9.50 LIG 0.17  HD
ATOM     58 11HH ARG D   2      12.235 -22.808  14.180  1.00  9.44 LIG 0.17  HD
ATOM     59 12HH ARG D   2      10.856 -22.946  14.726  1.00  9.44 LIG 0.17  HD
ENDBRANCH 50 51
ENDBRANCH 49 50
ENDBRANCH 48 49
ENDBRANCH 37 48
ENDBRANCH 34 37
ENDBRANCH 1 33
TORSDOF 24
ENDMDL
MODEL 3
USER: ADFR SOLUTION from run 27
USER: SCORE 18.871311 LL:  -2.413 LR: -17.062 RR:   0.000 FEB:  -9.903
USER: RMSD 8.292693
USER: SEED 26
USER: STATUS no improvement in best 5 clusters for 5 generations
USER: GENES 26
USER: genes 0 Translation |==|  0.51547 0.54903 0.57505
USER: genes 1 Rotation |==|  0.31446 0.69365 0.82848 0.76490
USER: genes 2 Torsion [N]-CA--C-[N] |==|  0.25172
USER: genes 3 Torsion [C]-N--CA-[C] |==|  0.81899
USER: genes 4 Torsion [N]-CA--C-[N] |==|  0.94362
USER: genes 5 Torsion [C]-N--CA-[C] |==|  0.74626
USER: genes 6 Torsion [N]-CA--C-[O] |==|  0.94440
USER: genes 7 Torsion [N]-CA--CB-[CG] |==|  0.51839
USER: genes 8 Torsion [CA]-CB--CG-[CD] |==|  0.34331
USER: genes 9 Torsion [CB]-CG--CD-[OE1] |==|  0.72423
USER: genes 10 Torsion [N]-CA--CB-[CG] |==|  0.53452
USER: genes 11 Torsion [CA]-CB--CG-[CD] |==|  0.22885
USER: genes 12 Torsion [CB]-CG--CD-[CE] |==|  0.29155
USER: genes 13 Torsion [CG]-CD--CE-[NZ] |==|  0.15904
USER: genes 14 Torsion [CD]-CE--NZ-[HZ3] |==|  0.99319
USER: genes 15 Torsion [C]-CA--CB-[CG2] |==|  0.81871
USER: genes 16 Torsion [CA]-CB--OG1-[HG1] |==|  0.18135
USER: genes 17 Torsion [C]-CA--N-[C] |==|  0.59575
USER: genes 18 Torsion [N]-C--CA-[N] |==|  0.40665
USER: genes 19 Torsion [C]-CA--N-[C] |==|  0.71051
USER: genes 20 Torsion [N]-C--CA-[N] |==|  0.00620
USER: genes 21 Torsion [C]-CA--N-[H1] |==|  0.73370
USER: genes 22 Torsion [C]-CA--CB-[CG] |==|  0.74018
USER: genes 23 Torsion [CA]-CB--CG-[CD] |==|  0.27997
USER: genes 24 Torsion [CB]-CG--CD-[NE] |==|  0.80725
USER: genes 25 Torsion [CG]-CD--NE-[HE] |==|  0.93776
ROOT
ATOM      1  CA  THR D   3      18.464 -15.369  18.761  1.00 16.13 LIG 0.20  C 
ENDROOT
BRANCH 1 2
ATOM      2  C   THR D   3      18.594 -16.839  18.333  1.00 16.95 LIG 0.24  C 
ATOM      3 O    THR D   3      17.752 -17.667  18.697  1.00 16.12 LIG-0.27  OA
ATOM      4  N   LYS D   4      19.646 -17.141  17.566  1.00 18.15 LIG-0.35  N 
ATOM      5 H    LYS D   4      20.201 -16.548  17.286  1.00 18.15 LIG 0.16  HD
BRANCH 4 6
ATOM      6  CA  LYS D   4      19.975 -18.503  17.116  1.00 19.65 LIG 0.18  C 
BRANCH 6 7
ATOM      7  C   LYS D   4      20.332 -19.361  18.312  1.00 20.62 LIG 0.24  C 
ATOM      8  N   GLN D   5      20.697 -18.719  19.418  1.00 21.55 LIG-0.35  N 
ATOM      9 H    GLN D   5      20.738 -17.863  19.487  1.00 21.55 LIG 0.16  HD
ATOM     10 O    LYS D   4      20.265 -20.592  18.235  1.00 20.86 LIG-0.27  OA
BRANCH 8 11
ATOM     11  CA  GLN D   5      21.069 -19.447  20.638  1.00 22.83 LIG 0.16  C 
BRANCH 11 12
ATOM     12  C   GLN D   5      19.873 -19.676  21.561  1.00 22.91 LIG 0.22  C 
ATOM     13 O    GLN D   5      18.855 -18.988  21.468  1.00 23.29 LIG-0.29  OA
ENDBRANCH 11 12
BRANCH 11 14
ATOM     14  CB  GLN D   5      22.193 -18.728  21.388  1.00 22.86 LIG 0.04  C 
BRANCH 14 15
ATOM     15  CG  GLN D   5      22.748 -19.492  22.577  1.00 24.40 LIG 0.10  C 
BRANCH 15 16
ATOM     16  CD  GLN D   5      24.246 -19.722  22.493  1.00 24.21 LIG 0.21  C 
ATOM     17  NE2 GLN D   5      25.023 -18.702  22.863  1.00 25.13 LIG-0.37  N 
ATOM     18 22HE GLN D   5      25.878 -18.783  22.838  1.00 25.13 LIG 0.16  HD
ATOM     19 21HE GLN D   5      24.668 -17.965  23.128  1.00 25.13 LIG 0.16  HD
ATOM     20 OE1  GLN D   5      24.703 -20.804  22.105  1.00 25.71 LIG-0.27  OA
ENDBRANCH 15 16
ENDBRANCH 14 15
ENDBRANCH 11 14
ENDBRANCH 8 11
ENDBRANCH 6 7
BRANCH 6 21
ATOM     21  CB  LYS D   4      21.190 -18.494  16.184  1.00 19.73 LIG 0.04  C 
BRANCH 21 22
ATOM     22  CG  LYS D   4      21.450 -19.770  15.430  1.00 20.49 LIG 0.00  C 
BRANCH 22 23
ATOM     23  CD  LYS D   4      20.567 -19.820  14.193  1.00 20.73 LIG 0.03  C 
BRANCH 23 24
ATOM     24  CE  LYS D   4      21.374 -19.537  12.949  1.00 20.46 LIG 0.23  C 
BRANCH 24 25
ATOM     25  NZ  LYS D   4      22.500 -20.490  12.809  1.00 20.02 LIG-0.08  N 
ATOM     26 HZ3  LYS D   4      22.515 -21.039  13.510  1.00 20.02 LIG 0.27  HD
ATOM     27 HZ1  LYS D   4      22.396 -20.965  12.064  1.00 20.02 LIG 0.27  HD
ATOM     28 HZ2  LYS D   4      23.267 -20.040  12.768  1.00 20.02 LIG 0.27  HD
ENDBRANCH 24 25
ENDBRANCH 23 24
ENDBRANCH 22 23
ENDBRANCH 21 22
ENDBRANCH 6 21
ENDBRANCH 4 6
ENDBRANCH 1 2
BRANCH 1 29
ATOM     29  CB  THR D   3      17.916 -15.287  20.199  1.00 15.86 LIG 0.15  C 
ATOM     30  CG2 THR D   3      16.490 -15.826  20.263  1.00 16.15 LIG 0.04  C 
BRANCH 29 31
ATOM     31 OG1  THR D   3      18.746 -16.060  21.075  1.00 16.19 LIG-0.39  OA
ATOM     32 HG1  THR D   3      19.511 -15.715  21.113  1.00 16.19 LIG 0.21  HD
ENDBRANCH 29 31
ENDBRANCH 1 29
BRANCH 1 33
ATOM     33  N   THR D   3      17.674 -14.540  17.838  1.00 15.75 LIG-0.34  N 
ATOM     34  C   ARG D   2      17.964 -13.258  17.614  1.00 15.31 LIG 0.24  C 
ATOM     35 O    ARG D   2      18.937 -12.693  18.111  1.00 15.17 LIG-0.27  OA
ATOM     36 H    THR D   3      17.020 -14.954  17.463  1.00 15.75 LIG 0.16  HD
BRANCH 34 37
ATOM     37  CA  ARG D   2      17.007 -12.488  16.704  1.00 15.15 LIG 0.18  C 
BRANCH 37 38
ATOM     38  N   ARG D   2      16.874 -11.080  17.091  1.00 15.89 LIG-0.35  N 
ATOM     39  C   ALA D   1      15.819 -10.570  17.729  1.00 16.91 LIG 0.25  C 
ATOM     40 O    ALA D   1      14.781 -11.206  17.952  1.00 17.32 LIG-0.27  OA
ATOM     41 H    ARG D   2      17.553 -10.602  16.866  1.00 15.89 LIG 0.16  HD
BRANCH 39 42
ATOM     42  CA  ALA D   1      15.946  -9.112  18.174  1.00 17.08 LIG 0.27  C 
ATOM     43  CB  ALA D   1      14.773  -8.267  17.627  1.00 17.48 LIG 0.05  C 
BRANCH 42 44
ATOM     44  N   ALA D   1      17.250  -8.531  17.739  1.00 17.36 LIG-0.07  N 
ATOM     45 H3   ALA D   1      17.136  -7.676  17.519  1.00 17.36 LIG 0.28  HD
ATOM     46 H2   ALA D   1      17.555  -8.981  17.035  1.00 17.36 LIG 0.28  HD
ATOM     47 H1   ALA D   1      17.838  -8.589  18.405  1.00 17.36 LIG 0.28  HD
ENDBRANCH 42 44
ENDBRANCH 39 42
ENDBRANCH 37 38
BRANCH 37 48
ATOM     48  CB  ARG D   2      17.513 -12.550  15.255  1.00 15.08 LIG 0.04  C 
BRANCH 48 49
ATOM     49  CG  ARG D   2      18.392 -11.403  14.776  1.00 14.63 LIG 0.02  C 
BRANCH 49 50
ATOM     50  CD  ARG D   2      19.871 -11.811  14.795  1.00 13.91 LIG 0.14  C 
BRANCH 50 51
ATOM     51  NE  ARG D   2      20.384 -11.969  16.155  1.00 10.79 LIG-0.23  N 
ATOM     52 HE   ARG D   2      19.970 -11.562  16.791  1.00 10.79 LIG 0.18  HD
ATOM     53  CZ  ARG D   2      21.450 -12.702  16.477  1.00 10.30 LIG 0.67  C 
ATOM     54  NH2 ARG D   2      22.124 -13.366  15.538  1.00  9.50 LIG-0.23  N 
ATOM     55  NH1 ARG D   2      21.845 -12.768  17.741  1.00  9.44 LIG-0.23  N 
ATOM     56 22HH ARG D   2      22.811 -13.836  15.753  1.00  9.50 LIG 0.17  HD
ATOM     57 21HH ARG D   2      21.872 -13.323  14.716  1.00  9.50 LIG 0.17  HD
ATOM     58 11HH ARG D   2      21.413 -12.340  18.349  1.00  9.44 LIG 0.17  HD
ATOM     59 12HH ARG D   2      22.532 -13.240  17.952  1.00  9.44 LIG 0.17  HD
ENDBRANCH 50 51
ENDBRANCH 49 50
ENDBRANCH 48 49
ENDBRANCH 37 48
ENDBRANCH 34 37
ENDBRANCH 1 33
TORSDOF 24
ENDMDL
MODEL 4
USER: ADFR SOLUTION from run 129
USER: SCORE 19.302490 LL:  -2.913 LR: -17.016 RR:   0.000 FEB:  -9.857
USER: RMSD 7.693692
USER: SEED 128
USER: STATUS searching
USER: GENES 26
USER: genes 0 Translation |==|  0.57488 0.43229 0.48707
USER: genes 1 Rotation |==|  0.70172 0.94114 0.59775 0.57177
USER: genes 2 Torsion [N]-CA--C-[N] |==|  0.98619
USER: genes 3 Torsion [C]-N--CA-[C] |==|  0.67619
USER: genes 4 Torsion [N]-CA--C-[N] |==|  0.91930
USER: genes 5 Torsion [C]-N--CA-[C] |==|  0.12942
USER: genes 6 Torsion [N]-CA--C-[O] |==|  0.16649
USER: genes 7 Torsion [N]-CA--CB-[CG] |==|  0.66119
USER: genes 8 Torsion [CA]-CB--CG-[CD] |==|  0.65730
USER: genes 9 Torsion [CB]-CG--CD-[OE1] |==|  0.81706
USER: genes 10 Torsion [N]-CA--CB-[CG] |==|  0.84559
USER: genes 11 Torsion [CA]-CB--CG-[CD] |==|  0.73265
USER: genes 12 Torsion [CB]-CG--CD-[CE] |==|  0.53285
USER: genes 13 Torsion [CG]-CD--CE-[NZ] |==|  0.22620
USER: genes 14 Torsion [CD]-CE--NZ-[HZ3] |==|  0.16388
USER: genes 15 Torsion [C]-CA--CB-[CG2] |==|  0.28852
USER: genes 16 Torsion [CA]-CB--OG1-[HG1] |==|  0.60502
USER: genes 17 Torsion [C]-CA--N-[C] |==|  0.74934
USER: genes 18 Torsion [N]-C--CA-[N] |==|  0.85671
USER: genes 19 Torsion [C]-CA--N-[C] |==|  0.79074
USER: genes 20 Torsion [N]-C--CA-[N] |==|  0.20523
USER: genes 21 Torsion [C]-CA--N-[H1] |==|  0.94612
USER: genes 22 Torsion [C]-CA--CB-[CG] |==|  0.82374
USER: genes 23 Torsion [CA]-CB--CG-[CD] |==|  0.73898
USER: genes 24 Torsion [CB]-CG--CD-[NE] |==|  0.27965
USER: genes 25 Torsion [CG]-CD--NE-[HE] |==|  0.10376
ROOT
ATOM      1  CA  THR D   3      20.246 -18.871  16.122  1.00 16.13 LIG 0.20  C 
ENDROOT
BRANCH 1 2
ATOM      2  C   THR D   3      19.790 -19.385  17.496  1.00 16.95 LIG 0.24  C 
ATOM      3 O    THR D   3      19.892 -20.584  17.775  1.00 16.12 LIG-0.27  OA
ATOM      4  N   LYS D   4      19.294 -18.470  18.335  1.00 18.15 LIG-0.35  N 
ATOM      5 H    LYS D   4      19.266 -17.633  18.144  1.00 18.15 LIG 0.16  HD
BRANCH 4 6
ATOM      6  CA  LYS D   4      18.743 -18.781  19.663  1.00 19.65 LIG 0.18  C 
BRANCH 6 7
ATOM      7  C   LYS D   4      17.271 -18.425  19.700  1.00 20.62 LIG 0.24  C 
ATOM      8  N   GLN D   5      16.879 -17.432  18.906  1.00 21.55 LIG-0.35  N 
ATOM      9 H    GLN D   5      17.405 -16.995  18.385  1.00 21.55 LIG 0.16  HD
ATOM     10 O    LYS D   4      16.498 -19.052  20.430  1.00 20.86 LIG-0.27  OA
BRANCH 8 11
ATOM     11  CA  GLN D   5      15.477 -16.997  18.860  1.00 22.83 LIG 0.16  C 
BRANCH 11 12
ATOM     12  C   GLN D   5      14.879 -16.826  20.255  1.00 22.91 LIG 0.22  C 
ATOM     13 O    GLN D   5      15.360 -16.027  21.060  1.00 23.29 LIG-0.29  OA
ENDBRANCH 11 12
BRANCH 11 14
ATOM     14  CB  GLN D   5      14.628 -17.963  18.030  1.00 22.86 LIG 0.04  C 
BRANCH 14 15
ATOM     15  CG  GLN D   5      13.912 -17.323  16.853  1.00 24.40 LIG 0.10  C 
BRANCH 15 16
ATOM     16  CD  GLN D   5      12.409 -17.529  16.885  1.00 24.21 LIG 0.21  C 
ATOM     17  NE2 GLN D   5      11.665 -16.433  17.045  1.00 25.13 LIG-0.37  N 
ATOM     18 22HE GLN D   5      10.808 -16.495  17.065  1.00 25.13 LIG 0.16  HD
ATOM     19 21HE GLN D   5      12.044 -15.665  17.128  1.00 25.13 LIG 0.16  HD
ATOM     20 OE1  GLN D   5      11.918 -18.657  16.761  1.00 25.71 LIG-0.27  OA
ENDBRANCH 15 16
ENDBRANCH 14 15
ENDBRANCH 11 14
ENDBRANCH 8 11
ENDBRANCH 6 7
BRANCH 6 21
ATOM     21  CB  LYS D   4      19.437 -17.957  20.752  1.00 19.73 LIG 0.04  C 
BRANCH 21 22
ATOM     22  CG  LYS D   4      20.935 -18.080  20.815  1.00 20.49 LIG 0.00  C 
BRANCH 22 23
ATOM     23  CD  LYS D   4      21.318 -19.113  21.864  1.00 20.73 LIG 0.03  C 
BRANCH 23 24
ATOM     24  CE  LYS D   4      22.797 -19.054  22.156  1.00 20.46 LIG 0.23  C 
BRANCH 24 25
ATOM     25  NZ  LYS D   4      23.115 -17.965  23.110  1.00 20.02 LIG-0.08  N 
ATOM     26 HZ3  LYS D   4      22.669 -18.096  23.870  1.00 20.02 LIG 0.27  HD
ATOM     27 HZ1  LYS D   4      23.989 -17.961  23.276  1.00 20.02 LIG 0.27  HD
ATOM     28 HZ2  LYS D   4      22.877 -17.183  22.758  1.00 20.02 LIG 0.27  HD
ENDBRANCH 24 25
ENDBRANCH 23 24
ENDBRANCH 22 23
ENDBRANCH 21 22
ENDBRANCH 6 21
ENDBRANCH 4 6
ENDBRANCH 1 2
BRANCH 1 29
ATOM     29  CB  THR D   3      21.740 -19.187  15.912  1.00 15.86 LIG 0.15  C 
ATOM     30  CG2 THR D   3      21.912 -20.369  14.962  1.00 16.15 LIG 0.04  C 
BRANCH 29 31
ATOM     31 OG1  THR D   3      22.399 -18.042  15.355  1.00 16.19 LIG-0.39  OA
ATOM     32 HG1  THR D   3      22.972 -18.294  14.795  1.00 16.19 LIG 0.21  HD
ENDBRANCH 29 31
ENDBRANCH 1 29
BRANCH 1 33
ATOM     33  N   THR D   3      19.960 -17.448  15.886  1.00 15.75 LIG-0.34  N 
ATOM     34  C   ARG D   2      18.819 -17.038  15.332  1.00 15.31 LIG 0.24  C 
ATOM     35 O    ARG D   2      17.905 -17.804  15.033  1.00 15.17 LIG-0.27  OA
ATOM     36 H    THR D   3      20.589 -16.916  16.135  1.00 15.75 LIG 0.16  HD
BRANCH 34 37
ATOM     37  CA  ARG D   2      18.690 -15.539  15.058  1.00 15.15 LIG 0.18  C 
BRANCH 37 38
ATOM     38  N   ARG D   2      18.996 -14.725  16.239  1.00 15.89 LIG-0.35  N 
ATOM     39  C   ALA D   1      18.177 -14.573  17.282  1.00 16.91 LIG 0.25  C 
ATOM     40 O    ALA D   1      17.017 -15.004  17.309  1.00 17.32 LIG-0.27  OA
ATOM     41 H    ARG D   2      19.767 -14.346  16.198  1.00 15.89 LIG 0.16  HD
BRANCH 39 42
ATOM     42  CA  ALA D   1      18.748 -13.806  18.476  1.00 17.08 LIG 0.27  C 
ATOM     43  CB  ALA D   1      17.900 -14.053  19.744  1.00 17.48 LIG 0.05  C 
BRANCH 42 44
ATOM     44  N   ALA D   1      18.831 -12.345  18.183  1.00 17.36 LIG-0.07  N 
ATOM     45 H3   ALA D   1      19.593 -12.019  18.508  1.00 17.36 LIG 0.28  HD
ATOM     46 H2   ALA D   1      18.143 -11.926  18.564  1.00 17.36 LIG 0.28  HD
ATOM     47 H1   ALA D   1      18.805 -12.216  17.302  1.00 17.36 LIG 0.28  HD
ENDBRANCH 42 44
ENDBRANCH 39 42
ENDBRANCH 37 38
BRANCH 37 48
ATOM     48  CB  ARG D   2      19.650 -15.138  13.928  1.00 15.08 LIG 0.04  C 
BRANCH 48 49
ATOM     49  CG  ARG D   2      21.141 -15.307  14.189  1.00 14.63 LIG 0.02  C 
BRANCH 49 50
ATOM     50  CD  ARG D   2      21.749 -14.000  14.714  1.00 13.91 LIG 0.14  C 
BRANCH 50 51
ATOM     51  NE  ARG D   2      21.932 -14.018  16.165  1.00 10.79 LIG-0.23  N 
ATOM     52 HE   ARG D   2      22.178 -14.758  16.530  1.00 10.79 LIG 0.18  HD
ATOM     53  CZ  ARG D   2      21.744 -12.965  16.960  1.00 10.30 LIG 0.67  C 
ATOM     54  NH2 ARG D   2      21.376 -11.789  16.452  1.00  9.50 LIG-0.23  N 
ATOM     55  NH1 ARG D   2      21.921 -13.090  18.268  1.00  9.44 LIG-0.23  N 
ATOM     56 22HH ARG D   2      21.255 -11.115  16.971  1.00  9.50 LIG 0.17  HD
ATOM     57 21HH ARG D   2      21.258 -11.706  15.604  1.00  9.50 LIG 0.17  HD
ATOM     58 11HH ARG D   2      22.157 -13.847  18.600  1.00  9.44 LIG 0.17  HD
ATOM     59 12HH ARG D   2      21.801 -12.413  18.785  1.00  9.44 LIG 0.17  HD
ENDBRANCH 50 51
ENDBRANCH 49 50
ENDBRANCH 48 49
ENDBRANCH 37 48
ENDBRANCH 34 37
ENDBRANCH 1 33
TORSDOF 24
ENDMDL
MODEL 5
USER: ADFR SOLUTION from run 78
USER: SCORE 18.994234 LL:  -2.975 LR: -16.981 RR:   0.000 FEB:  -9.822
USER: RMSD 7.548891
USER: SEED 77
USER: STATUS no improvement in best 5 clusters for 5 generations
USER: GENES 26
USER: genes 0 Translation |==|  0.46495 0.53461 0.61334
USER: genes 1 Rotation |==|  0.18385 0.40277 0.71608 0.80644
USER: genes 2 Torsion [N]-CA--C-[N] |==|  0.17190
USER: genes 3 Torsion [C]-N--CA-[C] |==|  0.15670
USER: genes 4 Torsion [N]-CA--C-[N] |==|  0.08482
USER: genes 5 Torsion [C]-N--CA-[C] |==|  0.13554
USER: genes 6 Torsion [N]-CA--C-[O] |==|  0.74689
USER: genes 7 Torsion [N]-CA--CB-[CG] |==|  0.58090
USER: genes 8 Torsion [CA]-CB--CG-[CD] |==|  0.81189
USER: genes 9 Torsion [CB]-CG--CD-[OE1] |==|  0.23476
USER: genes 10 Torsion [N]-CA--CB-[CG] |==|  0.67526
USER: genes 11 Torsion [CA]-CB--CG-[CD] |==|  0.78436
USER: genes 12 Torsion [CB]-CG--CD-[CE] |==|  0.44395
USER: genes 13 Torsion [CG]-CD--CE-[NZ] |==|  0.96071
USER: genes 14 Torsion [CD]-CE--NZ-[HZ3] |==|  0.52129
USER: genes 15 Torsion [C]-CA--CB-[CG2] |==|  0.28284
USER: genes 16 Torsion [CA]-CB--OG1-[HG1] |==|  0.34502
USER: genes 17 Torsion [C]-CA--N-[C] |==|  0.16611
USER: genes 18 Torsion [N]-C--CA-[N] |==|  0.18036
USER: genes 19 Torsion [C]-CA--N-[C] |==|  0.15556
USER: genes 20 Torsion [N]-C--CA-[N] |==|  0.21727
USER: genes 21 Torsion [C]-CA--N-[H1] |==|  0.18006
USER: genes 22 Torsion [C]-CA--CB-[CG] |==|  0.43495
USER: genes 23 Torsion [CA]-CB--CG-[CD] |==|  0.21244
USER: genes 24 Torsion [CB]-CG--CD-[NE] |==|  0.73232
USER: genes 25 Torsion [CG]-CD--NE-[HE] |==|  0.12655
ROOT
ATOM      1  CA  THR D   3      16.949 -15.802  19.910  1.00 16.13 LIG 0.20  C 
ENDROOT
BRANCH 1 2
ATOM      2  C   THR D   3      18.002 -16.912  19.768  1.00 16.95 LIG 0.24  C 
ATOM      3 O    THR D   3      17.668 -18.036  19.383  1.00 16.12 LIG-0.27  OA
ATOM      4  N   LYS D   4      19.257 -16.579  20.082  1.00 18.15 LIG-0.35  N 
ATOM      5 H    LYS D   4      19.483 -15.782  20.310  1.00 18.15 LIG 0.16  HD
BRANCH 4 6
ATOM      6  CA  LYS D   4      20.387 -17.522  20.077  1.00 19.65 LIG 0.18  C 
BRANCH 6 7
ATOM      7  C   LYS D   4      20.507 -18.163  18.710  1.00 20.62 LIG 0.24  C 
ATOM      8  N   GLN D   5      20.118 -17.430  17.672  1.00 21.55 LIG-0.35  N 
ATOM      9 H    GLN D   5      19.811 -16.629  17.735  1.00 21.55 LIG 0.16  HD
ATOM     10 O    LYS D   4      20.960 -19.307  18.599  1.00 20.86 LIG-0.27  OA
BRANCH 8 11
ATOM     11  CA  GLN D   5      20.186 -17.949  16.300  1.00 22.83 LIG 0.16  C 
BRANCH 11 12
ATOM     12  C   GLN D   5      19.571 -19.342  16.178  1.00 22.91 LIG 0.22  C 
ATOM     13 O    GLN D   5      20.258 -20.356  16.317  1.00 23.29 LIG-0.29  OA
ENDBRANCH 11 12
BRANCH 11 14
ATOM     14  CB  GLN D   5      21.627 -17.954  15.783  1.00 22.86 LIG 0.04  C 
BRANCH 14 15
ATOM     15  CG  GLN D   5      21.759 -17.789  14.279  1.00 24.40 LIG 0.10  C 
BRANCH 15 16
ATOM     16  CD  GLN D   5      21.228 -18.978  13.499  1.00 24.21 LIG 0.21  C 
ATOM     17  NE2 GLN D   5      22.125 -19.900  13.143  1.00 25.13 LIG-0.37  N 
ATOM     18 22HE GLN D   5      21.875 -20.595  12.704  1.00 25.13 LIG 0.16  HD
ATOM     19 21HE GLN D   5      22.953 -19.798  13.353  1.00 25.13 LIG 0.16  HD
ATOM     20 OE1  GLN D   5      20.026 -19.074  13.224  1.00 25.71 LIG-0.27  OA
ENDBRANCH 15 16
ENDBRANCH 14 15
ENDBRANCH 11 14
ENDBRANCH 8 11
ENDBRANCH 6 7
BRANCH 6 21
ATOM     21  CB  LYS D   4      20.167 -18.649  21.090  1.00 19.73 LIG 0.04  C 
BRANCH 21 22
ATOM     22  CG  LYS D   4      21.162 -18.724  22.216  1.00 20.49 LIG 0.00  C 
BRANCH 22 23
ATOM     23  CD  LYS D   4      22.452 -19.354  21.716  1.00 20.73 LIG 0.03  C 
BRANCH 23 24
ATOM     24  CE  LYS D   4      23.604 -19.009  22.629  1.00 20.46 LIG 0.23  C 
BRANCH 24 25
ATOM     25  NZ  LYS D   4      23.250 -17.902  23.548  1.00 20.02 LIG-0.08  N 
ATOM     26 HZ3  LYS D   4      23.975 -17.644  23.996  1.00 20.02 LIG 0.27  HD
ATOM     27 HZ1  LYS D   4      22.933 -17.216  23.078  1.00 20.02 LIG 0.27  HD
ATOM     28 HZ2  LYS D   4      22.629 -18.180  24.123  1.00 20.02 LIG 0.27  HD
ENDBRANCH 24 25
ENDBRANCH 23 24
ENDBRANCH 22 23
ENDBRANCH 21 22
ENDBRANCH 6 21
ENDBRANCH 4 6
ENDBRANCH 1 2
BRANCH 1 29
ATOM     29  CB  THR D   3      15.538 -16.386  19.706  1.00 15.86 LIG 0.15  C 
ATOM     30  CG2 THR D   3      14.838 -16.586  21.048  1.00 16.15 LIG 0.04  C 
BRANCH 29 31
ATOM     31 OG1  THR D   3      14.758 -15.491  18.904  1.00 16.19 LIG-0.39  OA
ATOM     32 HG1  THR D   3      14.464 -15.901  18.232  1.00 16.19 LIG 0.21  HD
ENDBRANCH 29 31
ENDBRANCH 1 29
BRANCH 1 33
ATOM     33  N   THR D   3      17.178 -14.639  19.039  1.00 15.75 LIG-0.34  N 
ATOM     34  C   ARG D   2      17.220 -14.747  17.711  1.00 15.31 LIG 0.24  C 
ATOM     35 O    ARG D   2      17.013 -15.803  17.117  1.00 15.17 LIG-0.27  OA
ATOM     36 H    THR D   3      17.281 -13.896  19.462  1.00 15.75 LIG 0.16  HD
BRANCH 34 37
ATOM     37  CA  ARG D   2      17.559 -13.476  16.931  1.00 15.15 LIG 0.18  C 
BRANCH 37 38
ATOM     38  N   ARG D   2      18.920 -13.000  17.198  1.00 15.89 LIG-0.35  N 
ATOM     39  C   ALA D   1      20.022 -13.735  17.030  1.00 16.91 LIG 0.25  C 
ATOM     40 O    ALA D   1      20.003 -14.941  16.750  1.00 17.32 LIG-0.27  OA
ATOM     41 H    ARG D   2      18.945 -12.188  17.478  1.00 15.89 LIG 0.16  HD
BRANCH 39 42
ATOM     42  CA  ALA D   1      21.351 -13.003  17.222  1.00 17.08 LIG 0.27  C 
ATOM     43  CB  ALA D   1      22.499 -13.755  16.512  1.00 17.48 LIG 0.05  C 
BRANCH 42 44
ATOM     44  N   ALA D   1      21.662 -12.827  18.671  1.00 17.36 LIG-0.07  N 
ATOM     45 H3   ALA D   1      20.984 -12.414  19.072  1.00 17.36 LIG 0.28  HD
ATOM     46 H2   ALA D   1      22.402 -12.340  18.759  1.00 17.36 LIG 0.28  HD
ATOM     47 H1   ALA D   1      21.787 -13.625  19.047  1.00 17.36 LIG 0.28  HD
ENDBRANCH 42 44
ENDBRANCH 39 42
ENDBRANCH 37 38
BRANCH 37 48
ATOM     48  CB  ARG D   2      17.423 -13.744  15.425  1.00 15.08 LIG 0.04  C 
BRANCH 48 49
ATOM     49  CG  ARG D   2      17.176 -12.542  14.523  1.00 14.63 LIG 0.02  C 
BRANCH 49 50
ATOM     50  CD  ARG D   2      18.472 -11.747  14.317  1.00 13.91 LIG 0.14  C 
BRANCH 50 51
ATOM     51  NE  ARG D   2      18.576 -10.612  15.234  1.00 10.79 LIG-0.23  N 
ATOM     52 HE   ARG D   2      18.387 -10.746  16.063  1.00 10.79 LIG 0.18  HD
ATOM     53  CZ  ARG D   2      18.945  -9.384  14.872  1.00 10.30 LIG 0.67  C 
ATOM     54  NH2 ARG D   2      19.264  -9.117  13.605  1.00  9.50 LIG-0.23  N 
ATOM     55  NH1 ARG D   2      18.994  -8.418  15.779  1.00  9.44 LIG-0.23  N 
ATOM     56 22HH ARG D   2      19.500  -8.323  13.379  1.00  9.50 LIG 0.17  HD
ATOM     57 21HH ARG D   2      19.231  -9.741  13.014  1.00  9.50 LIG 0.17  HD
ATOM     58 11HH ARG D   2      18.788  -8.586  16.597  1.00  9.44 LIG 0.17  HD
ATOM     59 12HH ARG D   2      19.232  -7.624  15.550  1.00  9.44 LIG 0.17  HD
ENDBRANCH 50 51
ENDBRANCH 49 50
ENDBRANCH 48 49
ENDBRANCH 37 48
ENDBRANCH 34 37
ENDBRANCH 1 33
TORSDOF 24
ENDMDL
MODEL 6
USER: ADFR SOLUTION from run 159
USER: SCORE 19.462568 LL:  -3.319 LR: -16.784 RR:   0.000 FEB:  -9.625
USER: RMSD 7.925274
USER: SEED 158
USER: STATUS no improvement in best 7 clusters for 5 generations
USER: GENES 26
USER: genes 0 Translation |==|  0.44648 0.48556 0.58660
USER: genes 1 Rotation |==|  0.21643 0.65586 0.87688 0.55708
USER: genes 2 Torsion [N]-CA--C-[N] |==|  0.39926
USER: genes 3 Torsion [C]-N--CA-[C] |==|  0.15796
USER: genes 4 Torsion [N]-CA--C-[N] |==|  0.12778
USER: genes 5 Torsion [C]-N--CA-[C] |==|  0.84314
USER: genes 6 Torsion [N]-CA--C-[O] |==|  0.44657
USER: genes 7 Torsion [N]-CA--CB-[CG] |==|  0.68835
USER: genes 8 Torsion [CA]-CB--CG-[CD] |==|  0.72642
USER: genes 9 Torsion [CB]-CG--CD-[OE1] |==|  0.61998
USER: genes 10 Torsion [N]-CA--CB-[CG] |==|  0.71280
USER: genes 11 Torsion [CA]-CB--CG-[CD] |==|  0.65393
USER: genes 12 Torsion [CB]-CG--CD-[CE] |==|  0.36505
USER: genes 13 Torsion [CG]-CD--CE-[NZ] |==|  0.14657
USER: genes 14 Torsion [CD]-CE--NZ-[HZ3] |==|  0.43642
USER: genes 15 Torsion [C]-CA--CB-[CG2] |==|  0.35715
USER: genes 16 Torsion [CA]-CB--OG1-[HG1] |==|  0.27111
USER: genes 17 Torsion [C]-CA--N-[C] |==|  0.82970
USER: genes 18 Torsion [N]-C--CA-[N] |==|  0.19317
USER: genes 19 Torsion [C]-CA--N-[C] |==|  0.68469
USER: genes 20 Torsion [N]-C--CA-[N] |==|  0.72868
USER: genes 21 Torsion [C]-CA--N-[H1] |==|  0.10806
USER: genes 22 Torsion [C]-CA--CB-[CG] |==|  0.50866
USER: genes 23 Torsion [CA]-CB--CG-[CD] |==|  0.93680
USER: genes 24 Torsion [CB]-CG--CD-[NE] |==|  0.75911
USER: genes 25 Torsion [CG]-CD--NE-[HE] |==|  0.03993
ROOT
ATOM      1  CA  THR D   3      16.394 -17.273  19.108  1.00 16.13 LIG 0.20  C 
ENDROOT
BRANCH 1 2
ATOM      2  C   THR D   3      17.648 -18.161  19.090  1.00 16.95 LIG 0.24  C 
ATOM      3 O    THR D   3      17.542 -19.379  18.918  1.00 16.12 LIG-0.27  OA
ATOM      4  N   LYS D   4      18.817 -17.538  19.269  1.00 18.15 LIG-0.35  N 
ATOM      5 H    LYS D   4      18.880 -16.685  19.346  1.00 18.15 LIG 0.16  HD
BRANCH 4 6
ATOM      6  CA  LYS D   4      20.115 -18.226  19.352  1.00 19.65 LIG 0.18  C 
BRANCH 6 7
ATOM      7  C   LYS D   4      20.334 -19.052  18.102  1.00 20.62 LIG 0.24  C 
ATOM      8  N   GLN D   5      20.068 -18.459  16.942  1.00 21.55 LIG-0.35  N 
ATOM      9 H    GLN D   5      19.787 -17.650  16.868  1.00 21.55 LIG 0.16  HD
ATOM     10 O    LYS D   4      20.753 -20.211  18.189  1.00 20.86 LIG-0.27  OA
BRANCH 8 11
ATOM     11  CA  GLN D   5      20.241 -19.163  15.665  1.00 22.83 LIG 0.16  C 
BRANCH 11 12
ATOM     12  C   GLN D   5      21.661 -19.696  15.486  1.00 22.91 LIG 0.22  C 
ATOM     13 O    GLN D   5      21.908 -20.590  14.675  1.00 23.29 LIG-0.29  OA
ENDBRANCH 11 12
BRANCH 11 14
ATOM     14  CB  GLN D   5      19.853 -18.268  14.486  1.00 22.86 LIG 0.04  C 
BRANCH 14 15
ATOM     15  CG  GLN D   5      18.606 -18.711  13.740  1.00 24.40 LIG 0.10  C 
BRANCH 15 16
ATOM     16  CD  GLN D   5      18.912 -19.496  12.478  1.00 24.21 LIG 0.21  C 
ATOM     17  NE2 GLN D   5      19.870 -20.420  12.574  1.00 25.13 LIG-0.37  N 
ATOM     18 22HE GLN D   5      20.078 -20.896  11.889  1.00 25.13 LIG 0.16  HD
ATOM     19 21HE GLN D   5      20.278 -20.540  13.322  1.00 25.13 LIG 0.16  HD
ATOM     20 OE1  GLN D   5      18.292 -19.282  11.430  1.00 25.71 LIG-0.27  OA
ENDBRANCH 15 16
ENDBRANCH 14 15
ENDBRANCH 11 14
ENDBRANCH 8 11
ENDBRANCH 6 7
BRANCH 6 21
ATOM     21  CB  LYS D   4      20.152 -19.187  20.544  1.00 19.73 LIG 0.04  C 
BRANCH 21 22
ATOM     22  CG  LYS D   4      20.923 -18.715  21.746  1.00 20.49 LIG 0.00  C 
BRANCH 22 23
ATOM     23  CD  LYS D   4      21.981 -19.745  22.110  1.00 20.73 LIG 0.03  C 
BRANCH 23 24
ATOM     24  CE  LYS D   4      23.322 -19.083  22.314  1.00 20.46 LIG 0.23  C 
BRANCH 24 25
ATOM     25  NZ  LYS D   4      23.229 -17.965  23.283  1.00 20.02 LIG-0.08  N 
ATOM     26 HZ3  LYS D   4      24.031 -17.811  23.637  1.00 20.02 LIG 0.27  HD
ATOM     27 HZ1  LYS D   4      22.944 -17.233  22.865  1.00 20.02 LIG 0.27  HD
ATOM     28 HZ2  LYS D   4      22.655 -18.179  23.929  1.00 20.02 LIG 0.27  HD
ENDBRANCH 24 25
ENDBRANCH 23 24
ENDBRANCH 22 23
ENDBRANCH 21 22
ENDBRANCH 6 21
ENDBRANCH 4 6
ENDBRANCH 1 2
BRANCH 1 29
ATOM     29  CB  THR D   3      15.846 -17.167  20.544  1.00 15.86 LIG 0.15  C 
ATOM     30  CG2 THR D   3      15.635 -15.706  20.933  1.00 16.15 LIG 0.04  C 
BRANCH 29 31
ATOM     31 OG1  THR D   3      14.593 -17.858  20.633  1.00 16.19 LIG-0.39  OA
ATOM     32 HG1  THR D   3      14.719 -18.627  20.945  1.00 16.19 LIG 0.21  HD
ENDBRANCH 29 31
ENDBRANCH 1 29
BRANCH 1 33
ATOM     33  N   THR D   3      15.347 -17.691  18.163  1.00 15.75 LIG-0.34  N 
ATOM     34  C   ARG D   2      15.555 -17.727  16.847  1.00 15.31 LIG 0.24  C 
ATOM     35 O    ARG D   2      16.642 -17.473  16.332  1.00 15.17 LIG-0.27  OA
ATOM     36 H    THR D   3      14.602 -17.906  18.536  1.00 15.75 LIG 0.16  HD
BRANCH 34 37
ATOM     37  CA  ARG D   2      14.353 -18.090  15.974  1.00 15.15 LIG 0.18  C 
BRANCH 37 38
ATOM     38  N   ARG D   2      13.332 -17.037  15.959  1.00 15.89 LIG-0.35  N 
ATOM     39  C   ALA D   1      12.110 -17.165  16.479  1.00 16.91 LIG 0.25  C 
ATOM     40 O    ALA D   1      11.662 -18.232  16.920  1.00 17.32 LIG-0.27  OA
ATOM     41 H    ARG D   2      13.598 -16.314  15.577  1.00 15.89 LIG 0.16  HD
BRANCH 39 42
ATOM     42  CA  ALA D   1      11.252 -15.899  16.492  1.00 17.08 LIG 0.27  C 
ATOM     43  CB  ALA D   1      11.695 -14.924  15.379  1.00 17.48 LIG 0.05  C 
BRANCH 42 44
ATOM     44  N   ALA D   1      11.309 -15.227  17.824  1.00 17.36 LIG-0.07  N 
ATOM     45 H3   ALA D   1      10.748 -15.631  18.385  1.00 17.36 LIG 0.28  HD
ATOM     46 H2   ALA D   1      11.077 -14.373  17.736  1.00 17.36 LIG 0.28  HD
ATOM     47 H1   ALA D   1      12.138 -15.277  18.147  1.00 17.36 LIG 0.28  HD
ENDBRANCH 42 44
ENDBRANCH 39 42
ENDBRANCH 37 38
BRANCH 37 48
ATOM     48  CB  ARG D   2      14.820 -18.337  14.532  1.00 15.08 LIG 0.04  C 
BRANCH 48 49
ATOM     49  CG  ARG D   2      13.747 -18.641  13.495  1.00 14.63 LIG 0.02  C 
BRANCH 49 50
ATOM     50  CD  ARG D   2      12.483 -19.188  14.170  1.00 13.91 LIG 0.14  C 
BRANCH 50 51
ATOM     51  NE  ARG D   2      12.538 -20.638  14.358  1.00 10.79 LIG-0.23  N 
ATOM     52 HE   ARG D   2      13.301 -21.026  14.267  1.00 10.79 LIG 0.18  HD
ATOM     53  CZ  ARG D   2      11.486 -21.399  14.659  1.00 10.30 LIG 0.67  C 
ATOM     54  NH2 ARG D   2      10.281 -20.853  14.825  1.00  9.50 LIG-0.23  N 
ATOM     55  NH1 ARG D   2      11.640 -22.708  14.793  1.00  9.44 LIG-0.23  N 
ATOM     56 22HH ARG D   2       9.608 -21.350  15.019  1.00  9.50 LIG 0.17  HD
ATOM     57 21HH ARG D   2      10.178 -20.003  14.738  1.00  9.50 LIG 0.17  HD
ATOM     58 11HH ARG D   2      12.415 -23.064  14.685  1.00  9.44 LIG 0.17  HD
ATOM     59 12HH ARG D   2      10.963 -23.202  14.988  1.00  9.44 LIG 0.17  HD
ENDBRANCH 50 51
ENDBRANCH 49 50
ENDBRANCH 48 49
ENDBRANCH 37 48
ENDBRANCH 34 37
ENDBRANCH 1 33
TORSDOF 24
ENDMDL
MODEL 7
USER: ADFR SOLUTION from run 23
USER: SCORE 18.459062 LL:  -2.338 LR: -16.736 RR:   0.000 FEB:  -9.577
USER: RMSD 6.850461
USER: SEED 22
USER: STATUS no improvement in best 1 clusters for 5 generations
USER: GENES 26
USER: genes 0 Translation |==|  0.43369 0.50079 0.59137
USER: genes 1 Rotation |==|  0.60112 0.60312 0.45590 0.97665
USER: genes 2 Torsion [N]-CA--C-[N] |==|  0.42856
USER: genes 3 Torsion [C]-N--CA-[C] |==|  0.83111
USER: genes 4 Torsion [N]-CA--C-[N] |==|  0.30000
USER: genes 5 Torsion [C]-N--CA-[C] |==|  0.70586
USER: genes 6 Torsion [N]-CA--C-[O] |==|  0.43586
USER: genes 7 Torsion [N]-CA--CB-[CG] |==|  0.63265
USER: genes 8 Torsion [CA]-CB--CG-[CD] |==|  0.50684
USER: genes 9 Torsion [CB]-CG--CD-[OE1] |==|  0.41079
USER: genes 10 Torsion [N]-CA--CB-[CG] |==|  0.71468
USER: genes 11 Torsion [CA]-CB--CG-[CD] |==|  0.33232
USER: genes 12 Torsion [CB]-CG--CD-[CE] |==|  0.44394
USER: genes 13 Torsion [CG]-CD--CE-[NZ] |==|  0.65319
USER: genes 14 Torsion [CD]-CE--NZ-[HZ3] |==|  0.90164
USER: genes 15 Torsion [C]-CA--CB-[CG2] |==|  0.74989
USER: genes 16 Torsion [CA]-CB--OG1-[HG1] |==|  0.47293
USER: genes 17 Torsion [C]-CA--N-[C] |==|  0.70691
USER: genes 18 Torsion [N]-C--CA-[N] |==|  0.93290
USER: genes 19 Torsion [C]-CA--N-[C] |==|  0.78203
USER: genes 20 Torsion [N]-C--CA-[N] |==|  0.20543
USER: genes 21 Torsion [C]-CA--N-[H1] |==|  0.20288
USER: genes 22 Torsion [C]-CA--CB-[CG] |==|  0.08117
USER: genes 23 Torsion [CA]-CB--CG-[CD] |==|  0.47539
USER: genes 24 Torsion [CB]-CG--CD-[NE] |==|  0.00234
USER: genes 25 Torsion [CG]-CD--NE-[HE] |==|  0.18401
ROOT
ATOM      1  CA  THR D   3      16.011 -16.816  19.251  1.00 16.13 LIG 0.20  C 
ENDROOT
BRANCH 1 2
ATOM      2  C   THR D   3      15.262 -16.131  18.098  1.00 16.95 LIG 0.24  C 
ATOM      3 O    THR D   3      15.739 -15.128  17.558  1.00 16.12 LIG-0.27  OA
ATOM      4  N   LYS D   4      14.099 -16.683  17.737  1.00 18.15 LIG-0.35  N 
ATOM      5 H    LYS D   4      13.798 -17.404  18.094  1.00 18.15 LIG 0.16  HD
BRANCH 4 6
ATOM      6  CA  LYS D   4      13.208 -16.130  16.705  1.00 19.65 LIG 0.18  C 
BRANCH 6 7
ATOM      7  C   LYS D   4      12.758 -14.743  17.111  1.00 20.62 LIG 0.24  C 
ATOM      8  N   GLN D   5      13.277 -13.725  16.429  1.00 21.55 LIG-0.35  N 
ATOM      9 H    GLN D   5      13.839 -13.813  15.785  1.00 21.55 LIG 0.16  HD
ATOM     10 O    LYS D   4      11.940 -14.597  18.024  1.00 20.86 LIG-0.27  OA
BRANCH 8 11
ATOM     11  CA  GLN D   5      12.917 -12.335  16.737  1.00 22.83 LIG 0.16  C 
BRANCH 11 12
ATOM     12  C   GLN D   5      11.982 -11.734  15.689  1.00 22.91 LIG 0.22  C 
ATOM     13 O    GLN D   5      11.251 -10.780  15.960  1.00 23.29 LIG-0.29  OA
ENDBRANCH 11 12
BRANCH 11 14
ATOM     14  CB  GLN D   5      14.166 -11.465  16.900  1.00 22.86 LIG 0.04  C 
BRANCH 14 15
ATOM     15  CG  GLN D   5      14.166 -10.584  18.137  1.00 24.40 LIG 0.10  C 
BRANCH 15 16
ATOM     16  CD  GLN D   5      15.390  -9.693  18.235  1.00 24.21 LIG 0.21  C 
ATOM     17  NE2 GLN D   5      16.520 -10.182  17.723  1.00 25.13 LIG-0.37  N 
ATOM     18 22HE GLN D   5      17.241  -9.714  17.749  1.00 25.13 LIG 0.16  HD
ATOM     19 21HE GLN D   5      16.527 -10.964  17.365  1.00 25.13 LIG 0.16  HD
ATOM     20 OE1  GLN D   5      15.323  -8.575  18.760  1.00 25.71 LIG-0.27  OA
ENDBRANCH 15 16
ENDBRANCH 14 15
ENDBRANCH 11 14
ENDBRANCH 8 11
ENDBRANCH 6 7
BRANCH 6 21
ATOM     21  CB  LYS D   4      11.949 -16.988  16.549  1.00 19.73 LIG 0.04  C 
BRANCH 21 22
ATOM     22  CG  LYS D   4      11.919 -17.901  15.354  1.00 20.49 LIG 0.00  C 
BRANCH 22 23
ATOM     23  CD  LYS D   4      11.799 -19.344  15.818  1.00 20.73 LIG 0.03  C 
BRANCH 23 24
ATOM     24  CE  LYS D   4      11.281 -20.222  14.704  1.00 20.46 LIG 0.23  C 
BRANCH 24 25
ATOM     25  NZ  LYS D   4      10.069 -20.965  15.124  1.00 20.02 LIG-0.08  N 
ATOM     26 HZ3  LYS D   4      10.139 -21.187  15.983  1.00 20.02 LIG 0.27  HD
ATOM     27 HZ1  LYS D   4       9.351 -20.452  15.007  1.00 20.02 LIG 0.27  HD
ATOM     28 HZ2  LYS D   4       9.988 -21.703  14.633  1.00 20.02 LIG 0.27  HD
ENDBRANCH 24 25
ENDBRANCH 23 24
ENDBRANCH 22 23
ENDBRANCH 21 22
ENDBRANCH 6 21
ENDBRANCH 4 6
ENDBRANCH 1 2
BRANCH 1 29
ATOM     29  CB  THR D   3      15.395 -16.398  20.600  1.00 15.86 LIG 0.15  C 
ATOM     30  CG2 THR D   3      16.083 -15.148  21.142  1.00 16.15 LIG 0.04  C 
BRANCH 29 31
ATOM     31 OG1  THR D   3      13.999 -16.123  20.427  1.00 16.19 LIG-0.39  OA
ATOM     32 HG1  THR D   3      13.637 -16.025  21.178  1.00 16.19 LIG 0.21  HD
ENDBRANCH 29 31
ENDBRANCH 1 29
BRANCH 1 33
ATOM     33  N   THR D   3      17.466 -16.601  19.236  1.00 15.75 LIG-0.34  N 
ATOM     34  C   ARG D   2      18.319 -17.558  18.868  1.00 15.31 LIG 0.24  C 
ATOM     35 O    ARG D   2      17.956 -18.660  18.461  1.00 15.17 LIG-0.27  OA
ATOM     36 H    THR D   3      17.709 -15.814  19.484  1.00 15.75 LIG 0.16  HD
BRANCH 34 37
ATOM     37  CA  ARG D   2      19.808 -17.231  18.988  1.00 15.15 LIG 0.18  C 
BRANCH 37 38
ATOM     38  N   ARG D   2      20.070 -15.789  18.945  1.00 15.89 LIG-0.35  N 
ATOM     39  C   ALA D   1      20.087 -15.058  17.827  1.00 16.91 LIG 0.25  C 
ATOM     40 O    ALA D   1      20.006 -15.544  16.692  1.00 17.32 LIG-0.27  OA
ATOM     41 H    ARG D   2      20.215 -15.448  19.721  1.00 15.89 LIG 0.16  HD
BRANCH 39 42
ATOM     42  CA  ALA D   1      20.231 -13.548  18.017  1.00 17.08 LIG 0.27  C 
ATOM     43  CB  ALA D   1      19.820 -12.792  16.734  1.00 17.48 LIG 0.05  C 
BRANCH 42 44
ATOM     44  N   ALA D   1      21.626 -13.187  18.407  1.00 17.36 LIG-0.07  N 
ATOM     45 H3   ALA D   1      21.902 -13.728  19.058  1.00 17.36 LIG 0.28  HD
ATOM     46 H2   ALA D   1      21.646 -12.345  18.694  1.00 17.36 LIG 0.28  HD
ATOM     47 H1   ALA D   1      22.163 -13.273  17.703  1.00 17.36 LIG 0.28  HD
ENDBRANCH 42 44
ENDBRANCH 39 42
ENDBRANCH 37 38
BRANCH 37 48
ATOM     48  CB  ARG D   2      20.352 -17.786  20.312  1.00 15.08 LIG 0.04  C 
BRANCH 48 49
ATOM     49  CG  ARG D   2      19.675 -19.028  20.876  1.00 14.63 LIG 0.02  C 
BRANCH 49 50
ATOM     50  CD  ARG D   2      20.464 -19.579  22.070  1.00 13.91 LIG 0.14  C 
BRANCH 50 51
ATOM     51  NE  ARG D   2      21.644 -18.770  22.374  1.00 10.79 LIG-0.23  N 
ATOM     52 HE   ARG D   2      21.519 -17.968  22.659  1.00 10.79 LIG 0.18  HD
ATOM     53  CZ  ARG D   2      22.901 -19.193  22.241  1.00 10.30 LIG 0.67  C 
ATOM     54  NH2 ARG D   2      23.158 -20.430  21.817  1.00  9.50 LIG-0.23  N 
ATOM     55  NH1 ARG D   2      23.903 -18.374  22.529  1.00  9.44 LIG-0.23  N 
ATOM     56 22HH ARG D   2      23.971 -20.695  21.732  1.00  9.50 LIG 0.17  HD
ATOM     57 21HH ARG D   2      22.510 -20.963  21.627  1.00  9.50 LIG 0.17  HD
ATOM     58 11HH ARG D   2      23.741 -17.575  22.801  1.00  9.44 LIG 0.17  HD
ATOM     59 12HH ARG D   2      24.716 -18.644  22.444  1.00  9.44 LIG 0.17  HD
ENDBRANCH 50 51
ENDBRANCH 49 50
ENDBRANCH 48 49
ENDBRANCH 37 48
ENDBRANCH 34 37
ENDBRANCH 1 33
TORSDOF 24
ENDMDL
MODEL 8
USER: ADFR SOLUTION from run 71
USER: SCORE 18.142699 LL:  -2.689 LR: -16.679 RR:   0.000 FEB:  -9.520
USER: RMSD 10.435451
USER: SEED 70
USER: STATUS searching
USER: GENES 26
USER: genes 0 Translation |==|  0.60768 0.45034 0.39905
USER: genes 1 Rotation |==|  0.97458 0.58240 0.40129 0.59076
USER: genes 2 Torsion [N]-CA--C-[N] |==|  0.55612
USER: genes 3 Torsion [C]-N--CA-[C] |==|  0.70422
USER: genes 4 Torsion [N]-CA--C-[N] |==|  0.51111
USER: genes 5 Torsion [C]-N--CA-[C] |==|  0.62992
USER: genes 6 Torsion [N]-CA--C-[O] |==|  0.08180
USER: genes 7 Torsion [N]-CA--CB-[CG] |==|  0.31405
USER: genes 8 Torsion [CA]-CB--CG-[CD] |==|  0.60335
USER: genes 9 Torsion [CB]-CG--CD-[OE1] |==|  0.91115
USER: genes 10 Torsion [N]-CA--CB-[CG] |==|  0.70771
USER: genes 11 Torsion [CA]-CB--CG-[CD] |==|  0.20008
USER: genes 12 Torsion [CB]-CG--CD-[CE] |==|  0.61605
USER: genes 13 Torsion [CG]-CD--CE-[NZ] |==|  0.81694
USER: genes 14 Torsion [CD]-CE--NZ-[HZ3] |==|  0.84076
USER: genes 15 Torsion [C]-CA--CB-[CG2] |==|  0.49101
USER: genes 16 Torsion [CA]-CB--OG1-[HG1] |==|  0.79244
USER: genes 17 Torsion [C]-CA--N-[C] |==|  0.64245
USER: genes 18 Torsion [N]-C--CA-[N] |==|  0.24545
USER: genes 19 Torsion [C]-CA--N-[C] |==|  0.76534
USER: genes 20 Torsion [N]-C--CA-[N] |==|  0.56922
USER: genes 21 Torsion [C]-CA--N-[H1] |==|  0.07194
USER: genes 22 Torsion [C]-CA--CB-[CG] |==|  0.26704
USER: genes 23 Torsion [CA]-CB--CG-[CD] |==|  0.32264
USER: genes 24 Torsion [CB]-CG--CD-[NE] |==|  0.44203
USER: genes 25 Torsion [CG]-CD--NE-[HE] |==|  0.94380
ROOT
ATOM      1  CA  THR D   3      21.230 -18.330  13.482  1.00 16.13 LIG 0.20  C 
ENDROOT
BRANCH 1 2
ATOM      2  C   THR D   3      21.513 -17.789  14.892  1.00 16.95 LIG 0.24  C 
ATOM      3 O    THR D   3      22.625 -17.328  15.167  1.00 16.12 LIG-0.27  OA
ATOM      4  N   LYS D   4      20.503 -17.853  15.764  1.00 18.15 LIG-0.35  N 
ATOM      5 H    LYS D   4      19.721 -18.139  15.548  1.00 18.15 LIG 0.16  HD
BRANCH 4 6
ATOM      6  CA  LYS D   4      20.603 -17.451  17.175  1.00 19.65 LIG 0.18  C 
BRANCH 6 7
ATOM      7  C   LYS D   4      20.621 -18.683  18.055  1.00 20.62 LIG 0.24  C 
ATOM      8  N   GLN D   5      20.626 -18.476  19.369  1.00 21.55 LIG-0.35  N 
ATOM      9 H    GLN D   5      20.618 -17.698  19.735  1.00 21.55 LIG 0.16  HD
ATOM     10 O    LYS D   4      20.617 -19.809  17.548  1.00 20.86 LIG-0.27  OA
BRANCH 8 11
ATOM     11  CA  GLN D   5      20.646 -19.596  20.320  1.00 22.83 LIG 0.16  C 
BRANCH 11 12
ATOM     12  C   GLN D   5      19.620 -19.423  21.438  1.00 22.91 LIG 0.22  C 
ATOM     13 O    GLN D   5      18.573 -18.802  21.252  1.00 23.29 LIG-0.29  OA
ENDBRANCH 11 12
BRANCH 11 14
ATOM     14  CB  GLN D   5      22.046 -19.797  20.905  1.00 22.86 LIG 0.04  C 
BRANCH 14 15
ATOM     15  CG  GLN D   5      22.160 -19.495  22.389  1.00 24.40 LIG 0.10  C 
BRANCH 15 16
ATOM     16  CD  GLN D   5      23.473 -18.835  22.765  1.00 24.21 LIG 0.21  C 
ATOM     17  NE2 GLN D   5      23.434 -17.982  23.791  1.00 25.13 LIG-0.37  N 
ATOM     18 22HE GLN D   5      24.153 -17.585  24.047  1.00 25.13 LIG 0.16  HD
ATOM     19 21HE GLN D   5      22.691 -17.831  24.196  1.00 25.13 LIG 0.16  HD
ATOM     20 OE1  GLN D   5      24.514 -19.090  22.148  1.00 25.71 LIG-0.27  OA
ENDBRANCH 15 16
ENDBRANCH 14 15
ENDBRANCH 11 14
ENDBRANCH 8 11
ENDBRANCH 6 7
BRANCH 6 21
ATOM     21  CB  LYS D   4      19.393 -16.610  17.595  1.00 19.73 LIG 0.04  C 
BRANCH 21 22
ATOM     22  CG  LYS D   4      19.639 -15.134  17.748  1.00 20.49 LIG 0.00  C 
BRANCH 22 23
ATOM     23  CD  LYS D   4      19.824 -14.503  16.377  1.00 20.73 LIG 0.03  C 
BRANCH 23 24
ATOM     24  CE  LYS D   4      20.951 -13.500  16.398  1.00 20.46 LIG 0.23  C 
BRANCH 24 25
ATOM     25  NZ  LYS D   4      20.624 -12.340  17.261  1.00 20.02 LIG-0.08  N 
ATOM     26 HZ3  LYS D   4      19.871 -11.960  16.976  1.00 20.02 LIG 0.27  HD
ATOM     27 HZ1  LYS D   4      20.518 -12.615  18.100  1.00 20.02 LIG 0.27  HD
ATOM     28 HZ2  LYS D   4      21.287 -11.747  17.225  1.00 20.02 LIG 0.27  HD
ENDBRANCH 24 25
ENDBRANCH 23 24
ENDBRANCH 22 23
ENDBRANCH 21 22
ENDBRANCH 6 21
ENDBRANCH 4 6
ENDBRANCH 1 2
BRANCH 1 29
ATOM     29  CB  THR D   3      20.255 -19.520  13.561  1.00 15.86 LIG 0.15  C 
ATOM     30  CG2 THR D   3      19.900 -20.019  12.163  1.00 16.15 LIG 0.04  C 
BRANCH 29 31
ATOM     31 OG1  THR D   3      20.860 -20.589  14.298  1.00 16.19 LIG-0.39  OA
ATOM     32 HG1  THR D   3      21.441 -20.965  13.821  1.00 16.19 LIG 0.21  HD
ENDBRANCH 29 31
ENDBRANCH 1 29
BRANCH 1 33
ATOM     33  N   THR D   3      22.438 -18.676  12.716  1.00 15.75 LIG-0.34  N 
ATOM     34  C   ARG D   2      22.648 -18.220  11.481  1.00 15.31 LIG 0.24  C 
ATOM     35 O    ARG D   2      21.886 -17.438  10.916  1.00 15.17 LIG-0.27  OA
ATOM     36 H    THR D   3      22.985 -19.191  13.135  1.00 15.75 LIG 0.16  HD
BRANCH 34 37
ATOM     37  CA  ARG D   2      23.898 -18.733  10.765  1.00 15.15 LIG 0.18  C 
BRANCH 37 38
ATOM     38  N   ARG D   2      23.652 -19.978  10.030  1.00 15.89 LIG-0.35  N 
ATOM     39  C   ALA D   1      23.697 -21.196  10.574  1.00 16.91 LIG 0.25  C 
ATOM     40 O    ALA D   1      24.075 -21.413  11.732  1.00 17.32 LIG-0.27  OA
ATOM     41 H    ARG D   2      23.473 -19.849   9.199  1.00 15.89 LIG 0.16  HD
BRANCH 39 42
ATOM     42  CA  ALA D   1      23.263 -22.350   9.669  1.00 17.08 LIG 0.27  C 
ATOM     43  CB  ALA D   1      22.168 -21.890   8.680  1.00 17.48 LIG 0.05  C 
BRANCH 42 44
ATOM     44  N   ALA D   1      22.780 -23.509  10.475  1.00 17.36 LIG-0.07  N 
ATOM     45 H3   ALA D   1      23.450 -24.080  10.606  1.00 17.36 LIG 0.28  HD
ATOM     46 H2   ALA D   1      22.121 -23.920  10.039  1.00 17.36 LIG 0.28  HD
ATOM     47 H1   ALA D   1      22.479 -23.220  11.262  1.00 17.36 LIG 0.28  HD
ENDBRANCH 42 44
ENDBRANCH 39 42
ENDBRANCH 37 38
BRANCH 37 48
ATOM     48  CB  ARG D   2      24.395 -17.671   9.773  1.00 15.08 LIG 0.04  C 
BRANCH 48 49
ATOM     49  CG  ARG D   2      25.501 -16.739  10.248  1.00 14.63 LIG 0.02  C 
BRANCH 49 50
ATOM     50  CD  ARG D   2      26.773 -16.941   9.415  1.00 13.91 LIG 0.14  C 
BRANCH 50 51
ATOM     51  NE  ARG D   2      27.669 -15.786   9.484  1.00 10.79 LIG-0.23  N 
ATOM     52 HE   ARG D   2      27.334 -15.032   9.727  1.00 10.79 LIG 0.18  HD
ATOM     53  CZ  ARG D   2      28.970 -15.825   9.196  1.00 10.30 LIG 0.67  C 
ATOM     54  NH2 ARG D   2      29.548 -16.968   8.827  1.00  9.50 LIG-0.23  N 
ATOM     55  NH1 ARG D   2      29.693 -14.717   9.275  1.00  9.44 LIG-0.23  N 
ATOM     56 22HH ARG D   2      30.387 -16.984   8.642  1.00  9.50 LIG 0.17  HD
ATOM     57 21HH ARG D   2      29.081 -17.688   8.773  1.00  9.50 LIG 0.17  HD
ATOM     58 11HH ARG D   2      29.323 -13.978   9.511  1.00  9.44 LIG 0.17  HD
ATOM     59 12HH ARG D   2      30.533 -14.738   9.090  1.00  9.44 LIG 0.17  HD
ENDBRANCH 50 51
ENDBRANCH 49 50
ENDBRANCH 48 49
ENDBRANCH 37 48
ENDBRANCH 34 37
ENDBRANCH 1 33
TORSDOF 24
ENDMDL
MODEL 9
USER: ADFR SOLUTION from run 129
USER: SCORE 19.915004 LL:  -3.732 LR: -16.661 RR:   0.000 FEB:  -9.502
USER: RMSD 7.936115
USER: SEED 128
USER: STATUS searching
USER: GENES 26
USER: genes 0 Translation |==|  0.58405 0.43002 0.49475
USER: genes 1 Rotation |==|  0.71304 0.93610 0.59085 0.57858
USER: genes 2 Torsion [N]-CA--C-[N] |==|  0.01748
USER: genes 3 Torsion [C]-N--CA-[C] |==|  0.65556
USER: genes 4 Torsion [N]-CA--C-[N] |==|  0.91377
USER: genes 5 Torsion [C]-N--CA-[C] |==|  0.13467
USER: genes 6 Torsion [N]-CA--C-[O] |==|  0.14717
USER: genes 7 Torsion [N]-CA--CB-[CG] |==|  0.64898
USER: genes 8 Torsion [CA]-CB--CG-[CD] |==|  0.66736
USER: genes 9 Torsion [CB]-CG--CD-[OE1] |==|  0.82736
USER: genes 10 Torsion [N]-CA--CB-[CG] |==|  0.85355
USER: genes 11 Torsion [CA]-CB--CG-[CD] |==|  0.77004
USER: genes 12 Torsion [CB]-CG--CD-[CE] |==|  0.53366
USER: genes 13 Torsion [CG]-CD--CE-[NZ] |==|  0.18116
USER: genes 14 Torsion [CD]-CE--NZ-[HZ3] |==|  0.15693
USER: genes 15 Torsion [C]-CA--CB-[CG2] |==|  0.30444
USER: genes 16 Torsion [CA]-CB--OG1-[HG1] |==|  0.49954
USER: genes 17 Torsion [C]-CA--N-[C] |==|  0.69762
USER: genes 18 Torsion [N]-C--CA-[N] |==|  0.89733
USER: genes 19 Torsion [C]-CA--N-[C] |==|  0.82282
USER: genes 20 Torsion [N]-C--CA-[N] |==|  0.11904
USER: genes 21 Torsion [C]-CA--N-[H1] |==|  0.83103
USER: genes 22 Torsion [C]-CA--CB-[CG] |==|  0.88950
USER: genes 23 Torsion [CA]-CB--CG-[CD] |==|  0.34688
USER: genes 24 Torsion [CB]-CG--CD-[NE] |==|  0.62950
USER: genes 25 Torsion [CG]-CD--NE-[HE] |==|  0.86826
ROOT
ATOM      1  CA  THR D   3      20.522 -18.939  16.353  1.00 16.13 LIG 0.20  C 
ENDROOT
BRANCH 1 2
ATOM      2  C   THR D   3      20.028 -19.391  17.736  1.00 16.95 LIG 0.24  C 
ATOM      3 O    THR D   3      20.247 -20.542  18.126  1.00 16.12 LIG-0.27  OA
ATOM      4  N   LYS D   4      19.369 -18.479  18.456  1.00 18.15 LIG-0.35  N 
ATOM      5 H    LYS D   4      19.259 -17.669  18.190  1.00 18.15 LIG 0.16  HD
BRANCH 4 6
ATOM      6  CA  LYS D   4      18.761 -18.745  19.770  1.00 19.65 LIG 0.18  C 
BRANCH 6 7
ATOM      7  C   LYS D   4      17.289 -18.393  19.730  1.00 20.62 LIG 0.24  C 
ATOM      8  N   GLN D   5      16.936 -17.402  18.916  1.00 21.55 LIG-0.35  N 
ATOM      9 H    GLN D   5      17.487 -16.964  18.423  1.00 21.55 LIG 0.16  HD
ATOM     10 O    LYS D   4      16.481 -19.022  20.420  1.00 20.86 LIG-0.27  OA
BRANCH 8 11
ATOM     11  CA  GLN D   5      15.537 -16.972  18.797  1.00 22.83 LIG 0.16  C 
BRANCH 11 12
ATOM     12  C   GLN D   5      14.881 -16.756  20.160  1.00 22.91 LIG 0.22  C 
ATOM     13 O    GLN D   5      15.398 -16.026  21.007  1.00 23.29 LIG-0.29  OA
ENDBRANCH 11 12
BRANCH 11 14
ATOM     14  CB  GLN D   5      14.723 -17.965  17.964  1.00 22.86 LIG 0.04  C 
BRANCH 14 15
ATOM     15  CG  GLN D   5      13.972 -17.345  16.799  1.00 24.40 LIG 0.10  C 
BRANCH 15 16
ATOM     16  CD  GLN D   5      12.470 -17.541  16.885  1.00 24.21 LIG 0.21  C 
ATOM     17  NE2 GLN D   5      11.733 -16.431  16.970  1.00 25.13 LIG-0.37  N 
ATOM     18 22HE GLN D   5      10.877 -16.487  17.016  1.00 25.13 LIG 0.16  HD
ATOM     19 21HE GLN D   5      12.115 -15.661  16.977  1.00 25.13 LIG 0.16  HD
ATOM     20 OE1  GLN D   5      11.973 -18.673  16.870  1.00 25.71 LIG-0.27  OA
ENDBRANCH 15 16
ENDBRANCH 14 15
ENDBRANCH 11 14
ENDBRANCH 8 11
ENDBRANCH 6 7
BRANCH 6 21
ATOM     21  CB  LYS D   4      19.406 -17.882  20.858  1.00 19.73 LIG 0.04  C 
BRANCH 21 22
ATOM     22  CG  LYS D   4      20.906 -17.947  20.946  1.00 20.49 LIG 0.00  C 
BRANCH 22 23
ATOM     23  CD  LYS D   4      21.317 -19.166  21.756  1.00 20.73 LIG 0.03  C 
BRANCH 23 24
ATOM     24  CE  LYS D   4      22.783 -19.101  22.113  1.00 20.46 LIG 0.23  C 
BRANCH 24 25
ATOM     25  NZ  LYS D   4      23.066 -17.965  23.022  1.00 20.02 LIG-0.08  N 
ATOM     26 HZ3  LYS D   4      22.558 -18.033  23.750  1.00 20.02 LIG 0.27  HD
ATOM     27 HZ1  LYS D   4      23.924 -17.979  23.256  1.00 20.02 LIG 0.27  HD
ATOM     28 HZ2  LYS D   4      22.885 -17.199  22.605  1.00 20.02 LIG 0.27  HD
ENDBRANCH 24 25
ENDBRANCH 23 24
ENDBRANCH 22 23
ENDBRANCH 21 22
ENDBRANCH 6 21
ENDBRANCH 4 6
ENDBRANCH 1 2
BRANCH 1 29
ATOM     29  CB  THR D   3      21.996 -19.345  16.162  1.00 15.86 LIG 0.15  C 
ATOM     30  CG2 THR D   3      22.117 -20.467  15.134  1.00 16.15 LIG 0.04  C 
BRANCH 29 31
ATOM     31 OG1  THR D   3      22.751 -18.214  15.708  1.00 16.19 LIG-0.39  OA
ATOM     32 HG1  THR D   3      23.554 -18.436  15.607  1.00 16.19 LIG 0.21  HD
ENDBRANCH 29 31
ENDBRANCH 1 29
BRANCH 1 33
ATOM     33  N   THR D   3      20.319 -17.508  16.079  1.00 15.75 LIG-0.34  N 
ATOM     34  C   ARG D   2      19.410 -17.076  15.204  1.00 15.31 LIG 0.24  C 
ATOM     35 O    ARG D   2      18.641 -17.829  14.610  1.00 15.17 LIG-0.27  OA
ATOM     36 H    THR D   3      20.834 -16.987  16.530  1.00 15.75 LIG 0.16  HD
BRANCH 34 37
ATOM     37  CA  ARG D   2      19.369 -15.569  14.947  1.00 15.15 LIG 0.18  C 
BRANCH 37 38
ATOM     38  N   ARG D   2      19.625 -14.787  16.161  1.00 15.89 LIG-0.35  N 
ATOM     39  C   ALA D   1      18.838 -14.788  17.238  1.00 16.91 LIG 0.25  C 
ATOM     40 O    ALA D   1      17.739 -15.356  17.282  1.00 17.32 LIG-0.27  OA
ATOM     41 H    ARG D   2      20.344 -14.317  16.114  1.00 15.89 LIG 0.16  HD
BRANCH 39 42
ATOM     42  CA  ALA D   1      19.364 -14.020  18.452  1.00 17.08 LIG 0.27  C 
ATOM     43  CB  ALA D   1      18.240 -13.796  19.489  1.00 17.48 LIG 0.05  C 
BRANCH 42 44
ATOM     44  N   ALA D   1      19.960 -12.715  18.043  1.00 17.36 LIG-0.07  N 
ATOM     45 H3   ALA D   1      20.249 -12.280  18.765  1.00 17.36 LIG 0.28  HD
ATOM     46 H2   ALA D   1      19.345 -12.224  17.627  1.00 17.36 LIG 0.28  HD
ATOM     47 H1   ALA D   1      20.645 -12.860  17.492  1.00 17.36 LIG 0.28  HD
ENDBRANCH 42 44
ENDBRANCH 39 42
ENDBRANCH 37 38
BRANCH 37 48
ATOM     48  CB  ARG D   2      20.425 -15.198  13.895  1.00 15.08 LIG 0.04  C 
BRANCH 48 49
ATOM     49  CG  ARG D   2      21.770 -15.905  13.980  1.00 14.63 LIG 0.02  C 
BRANCH 49 50
ATOM     50  CD  ARG D   2      22.106 -16.589  12.648  1.00 13.91 LIG 0.14  C 
BRANCH 50 51
ATOM     51  NE  ARG D   2      22.578 -17.961  12.834  1.00 10.79 LIG-0.23  N 
ATOM     52 HE   ARG D   2      23.181 -18.101  13.432  1.00 10.79 LIG 0.18  HD
ATOM     53  CZ  ARG D   2      22.137 -19.010  12.140  1.00 10.30 LIG 0.67  C 
ATOM     54  NH2 ARG D   2      21.194 -18.858  11.209  1.00  9.50 LIG-0.23  N 
ATOM     55  NH1 ARG D   2      22.643 -20.213  12.374  1.00  9.44 LIG-0.23  N 
ATOM     56 22HH ARG D   2      20.916 -19.539  10.765  1.00  9.50 LIG 0.17  HD
ATOM     57 21HH ARG D   2      20.866 -18.079  11.053  1.00  9.50 LIG 0.17  HD
ATOM     58 11HH ARG D   2      23.252 -20.314  12.972  1.00  9.44 LIG 0.17  HD
ATOM     59 12HH ARG D   2      22.360 -20.892  11.928  1.00  9.44 LIG 0.17  HD
ENDBRANCH 50 51
ENDBRANCH 49 50
ENDBRANCH 48 49
ENDBRANCH 37 48
ENDBRANCH 34 37
ENDBRANCH 1 33
TORSDOF 24
ENDMDL
MODEL 10
USER: ADFR SOLUTION from run 136
USER: SCORE 18.984126 LL:  -3.379 LR: -16.578 RR:   0.000 FEB:  -9.418
USER: RMSD 7.739894
USER: SEED 135
USER: STATUS no improvement in best 6 clusters for 5 generations
USER: GENES 26
USER: genes 0 Translation |==|  0.46395 0.50903 0.61931
USER: genes 1 Rotation |==|  0.19548 0.42575 0.74424 0.80348
USER: genes 2 Torsion [N]-CA--C-[N] |==|  0.19223
USER: genes 3 Torsion [C]-N--CA-[C] |==|  0.15873
USER: genes 4 Torsion [N]-CA--C-[N] |==|  0.12698
USER: genes 5 Torsion [C]-N--CA-[C] |==|  0.85998
USER: genes 6 Torsion [N]-CA--C-[O] |==|  0.31099
USER: genes 7 Torsion [N]-CA--CB-[CG] |==|  0.19330
USER: genes 8 Torsion [CA]-CB--CG-[CD] |==|  0.32143
USER: genes 9 Torsion [CB]-CG--CD-[OE1] |==|  0.23829
USER: genes 10 Torsion [N]-CA--CB-[CG] |==|  0.70048
USER: genes 11 Torsion [CA]-CB--CG-[CD] |==|  0.86197
USER: genes 12 Torsion [CB]-CG--CD-[CE] |==|  0.48539
USER: genes 13 Torsion [CG]-CD--CE-[NZ] |==|  0.80512
USER: genes 14 Torsion [CD]-CE--NZ-[HZ3] |==|  0.91365
USER: genes 15 Torsion [C]-CA--CB-[CG2] |==|  0.40162
USER: genes 16 Torsion [CA]-CB--OG1-[HG1] |==|  0.19412
USER: genes 17 Torsion [C]-CA--N-[C] |==|  0.73890
USER: genes 18 Torsion [N]-C--CA-[N] |==|  0.66395
USER: genes 19 Torsion [C]-CA--N-[C] |==|  0.14488
USER: genes 20 Torsion [N]-C--CA-[N] |==|  0.95739
USER: genes 21 Torsion [C]-CA--N-[H1] |==|  0.97791
USER: genes 22 Torsion [C]-CA--CB-[CG] |==|  0.29361
USER: genes 23 Torsion [CA]-CB--CG-[CD] |==|  0.64297
USER: genes 24 Torsion [CB]-CG--CD-[NE] |==|  0.51391
USER: genes 25 Torsion [CG]-CD--NE-[HE] |==|  0.08262
ROOT
ATOM      1  CA  THR D   3      16.919 -16.569  20.089  1.00 16.13 LIG 0.20  C 
ENDROOT
BRANCH 1 2
ATOM      2  C   THR D   3      17.971 -17.660  19.839  1.00 16.95 LIG 0.24  C 
ATOM      3 O    THR D   3      17.626 -18.769  19.419  1.00 16.12 LIG-0.27  OA
ATOM      4  N   LYS D   4      19.239 -17.330  20.100  1.00 18.15 LIG-0.35  N 
ATOM      5 H    LYS D   4      19.470 -16.542  20.353  1.00 18.15 LIG 0.16  HD
BRANCH 4 6
ATOM      6  CA  LYS D   4      20.374 -18.260  19.989  1.00 19.65 LIG 0.18  C 
BRANCH 6 7
ATOM      7  C   LYS D   4      20.435 -18.823  18.585  1.00 20.62 LIG 0.24  C 
ATOM      8  N   GLN D   5      20.296 -17.953  17.589  1.00 21.55 LIG-0.35  N 
ATOM      9 H    GLN D   5      20.178 -17.108  17.699  1.00 21.55 LIG 0.16  HD
ATOM     10 O    LYS D   4      20.620 -20.031  18.407  1.00 20.86 LIG-0.27  OA
BRANCH 8 11
ATOM     11  CA  GLN D   5      20.335 -18.384  16.185  1.00 22.83 LIG 0.16  C 
BRANCH 11 12
ATOM     12  C   GLN D   5      21.554 -19.252  15.881  1.00 22.91 LIG 0.22  C 
ATOM     13 O    GLN D   5      21.432 -20.448  15.610  1.00 23.29 LIG-0.29  OA
ENDBRANCH 11 12
BRANCH 11 14
ATOM     14  CB  GLN D   5      20.286 -17.182  15.238  1.00 22.86 LIG 0.04  C 
BRANCH 14 15
ATOM     15  CG  GLN D   5      21.538 -16.323  15.242  1.00 24.40 LIG 0.10  C 
BRANCH 15 16
ATOM     16  CD  GLN D   5      22.267 -16.324  13.911  1.00 24.21 LIG 0.21  C 
ATOM     17  NE2 GLN D   5      23.251 -17.215  13.776  1.00 25.13 LIG-0.37  N 
ATOM     18 22HE GLN D   5      23.692 -17.260  13.039  1.00 25.13 LIG 0.16  HD
ATOM     19 21HE GLN D   5      23.443 -17.745  14.425  1.00 25.13 LIG 0.16  HD
ATOM     20 OE1  GLN D   5      21.948 -15.539  13.009  1.00 25.71 LIG-0.27  OA
ENDBRANCH 15 16
ENDBRANCH 14 15
ENDBRANCH 11 14
ENDBRANCH 8 11
ENDBRANCH 6 7
BRANCH 6 21
ATOM     21  CB  LYS D   4      20.209 -19.445  20.946  1.00 19.73 LIG 0.04  C 
BRANCH 21 22
ATOM     22  CG  LYS D   4      21.123 -19.458  22.141  1.00 20.49 LIG 0.00  C 
BRANCH 22 23
ATOM     23  CD  LYS D   4      22.557 -19.234  21.689  1.00 20.73 LIG 0.03  C 
BRANCH 23 24
ATOM     24  CE  LYS D   4      23.479 -19.113  22.877  1.00 20.46 LIG 0.23  C 
BRANCH 24 25
ATOM     25  NZ  LYS D   4      23.250 -17.846  23.611  1.00 20.02 LIG-0.08  N 
ATOM     26 HZ3  LYS D   4      22.984 -17.216  23.041  1.00 20.02 LIG 0.27  HD
ATOM     27 HZ1  LYS D   4      22.622 -17.970  24.229  1.00 20.02 LIG 0.27  HD
ATOM     28 HZ2  LYS D   4      24.006 -17.590  24.005  1.00 20.02 LIG 0.27  HD
ENDBRANCH 24 25
ENDBRANCH 23 24
ENDBRANCH 22 23
ENDBRANCH 21 22
ENDBRANCH 6 21
ENDBRANCH 4 6
ENDBRANCH 1 2
BRANCH 1 29
ATOM     29  CB  THR D   3      15.510 -17.193  20.116  1.00 15.86 LIG 0.15  C 
ATOM     30  CG2 THR D   3      14.625 -16.481  21.135  1.00 16.15 LIG 0.04  C 
BRANCH 29 31
ATOM     31 OG1  THR D   3      14.910 -17.080  18.819  1.00 16.19 LIG-0.39  OA
ATOM     32 HG1  THR D   3      15.304 -17.592  18.282  1.00 16.19 LIG 0.21  HD
ENDBRANCH 29 31
ENDBRANCH 1 29
BRANCH 1 33
ATOM     33  N   THR D   3      16.987 -15.439  19.150  1.00 15.75 LIG-0.34  N 
ATOM     34  C   ARG D   2      17.675 -14.330  19.426  1.00 15.31 LIG 0.24  C 
ATOM     35 O    ARG D   2      18.344 -14.193  20.448  1.00 15.17 LIG-0.27  OA
ATOM     36 H    THR D   3      16.549 -15.561  18.419  1.00 15.75 LIG 0.16  HD
BRANCH 34 37
ATOM     37  CA  ARG D   2      17.586 -13.197  18.403  1.00 15.15 LIG 0.18  C 
BRANCH 37 38
ATOM     38  N   ARG D   2      18.898 -12.825  17.863  1.00 15.89 LIG-0.35  N 
ATOM     39  C   ALA D   1      19.768 -13.687  17.334  1.00 16.91 LIG 0.25  C 
ATOM     40 O    ALA D   1      19.613 -14.915  17.356  1.00 17.32 LIG-0.27  OA
ATOM     41 H    ARG D   2      19.058 -11.981  17.919  1.00 15.89 LIG 0.16  HD
BRANCH 39 42
ATOM     42  CA  ALA D   1      21.013 -13.073  16.692  1.00 17.08 LIG 0.27  C 
ATOM     43  CB  ALA D   1      22.263 -13.328  17.565  1.00 17.48 LIG 0.05  C 
BRANCH 42 44
ATOM     44  N   ALA D   1      20.831 -11.610  16.462  1.00 17.36 LIG-0.07  N 
ATOM     45 H3   ALA D   1      21.021 -11.416  15.614  1.00 17.36 LIG 0.28  HD
ATOM     46 H2   ALA D   1      21.375 -11.154  17.000  1.00 17.36 LIG 0.28  HD
ATOM     47 H1   ALA D   1      19.987 -11.384  16.635  1.00 17.36 LIG 0.28  HD
ENDBRANCH 42 44
ENDBRANCH 39 42
ENDBRANCH 37 38
BRANCH 37 48
ATOM     48  CB  ARG D   2      16.683 -13.626  17.237  1.00 15.08 LIG 0.04  C 
BRANCH 48 49
ATOM     49  CG  ARG D   2      15.291 -13.013  17.173  1.00 14.63 LIG 0.02  C 
BRANCH 49 50
ATOM     50  CD  ARG D   2      14.224 -14.106  17.028  1.00 13.91 LIG 0.14  C 
BRANCH 50 51
ATOM     51  NE  ARG D   2      12.883 -13.551  16.846  1.00 10.79 LIG-0.23  N 
ATOM     52 HE   ARG D   2      12.815 -12.787  16.456  1.00 10.79 LIG 0.18  HD
ATOM     53  CZ  ARG D   2      11.761 -14.148  17.245  1.00 10.30 LIG 0.67  C 
ATOM     54  NH2 ARG D   2      11.803 -15.338  17.844  1.00  9.50 LIG-0.23  N 
ATOM     55  NH1 ARG D   2      10.593 -13.552  17.046  1.00  9.44 LIG-0.23  N 
ATOM     56 22HH ARG D   2      11.074 -15.717  18.099  1.00  9.50 LIG 0.17  HD
ATOM     57 21HH ARG D   2      12.559 -15.727  17.976  1.00  9.50 LIG 0.17  HD
ATOM     58 11HH ARG D   2      10.563 -12.784  16.662  1.00  9.44 LIG 0.17  HD
ATOM     59 12HH ARG D   2       9.867 -13.935  17.302  1.00  9.44 LIG 0.17  HD
ENDBRANCH 50 51
ENDBRANCH 49 50
ENDBRANCH 48 49
ENDBRANCH 37 48
ENDBRANCH 34 37
ENDBRANCH 1 33
TORSDOF 24
ENDMDL
MODEL 11
USER: ADFR SOLUTION from run 108
USER: SCORE 19.808108 LL:  -3.837 LR: -16.585 RR:   0.000 FEB:  -9.425
USER: RMSD 8.849620
USER: SEED 107
USER: STATUS no improvement in best 6 clusters for 5 generations
USER: GENES 26
USER: genes 0 Translation |==|  0.57726 0.43319 0.48788
USER: genes 1 Rotation |==|  0.65953 0.96903 0.55295 0.54190
USER: genes 2 Torsion [N]-CA--C-[N] |==|  0.93811
USER: genes 3 Torsion [C]-N--CA-[C] |==|  0.63271
USER: genes 4 Torsion [N]-CA--C-[N] |==|  0.79557
USER: genes 5 Torsion [C]-N--CA-[C] |==|  0.87157
USER: genes 6 Torsion [N]-CA--C-[O] |==|  0.34848
USER: genes 7 Torsion [N]-CA--CB-[CG] |==|  0.45689
USER: genes 8 Torsion [CA]-CB--CG-[CD] |==|  0.68952
USER: genes 9 Torsion [CB]-CG--CD-[OE1] |==|  0.39902
USER: genes 10 Torsion [N]-CA--CB-[CG] |==|  0.60994
USER: genes 11 Torsion [CA]-CB--CG-[CD] |==|  0.30911
USER: genes 12 Torsion [CB]-CG--CD-[CE] |==|  0.36992
USER: genes 13 Torsion [CG]-CD--CE-[NZ] |==|  0.92678
USER: genes 14 Torsion [CD]-CE--NZ-[HZ3] |==|  0.57910
USER: genes 15 Torsion [C]-CA--CB-[CG2] |==|  0.26047
USER: genes 16 Torsion [CA]-CB--OG1-[HG1] |==|  0.49778
USER: genes 17 Torsion [C]-CA--N-[C] |==|  0.83332
USER: genes 18 Torsion [N]-C--CA-[N] |==|  0.91709
USER: genes 19 Torsion [C]-CA--N-[C] |==|  0.81842
USER: genes 20 Torsion [N]-C--CA-[N] |==|  0.39115
USER: genes 21 Torsion [C]-CA--N-[H1] |==|  0.49718
USER: genes 22 Torsion [C]-CA--CB-[CG] |==|  0.01991
USER: genes 23 Torsion [CA]-CB--CG-[CD] |==|  0.72329
USER: genes 24 Torsion [CB]-CG--CD-[NE] |==|  0.51806
USER: genes 25 Torsion [CG]-CD--NE-[HE] |==|  0.14721
ROOT
ATOM      1  CA  THR D   3      20.318 -18.844  16.146  1.00 16.13 LIG 0.20  C 
ENDROOT
BRANCH 1 2
ATOM      2  C   THR D   3      20.178 -19.190  17.637  1.00 16.95 LIG 0.24  C 
ATOM      3 O    THR D   3      20.250 -20.365  18.010  1.00 16.12 LIG-0.27  OA
ATOM      4  N   LYS D   4      19.978 -18.161  18.467  1.00 18.15 LIG-0.35  N 
ATOM      5 H    LYS D   4      19.971 -17.345  18.199  1.00 18.15 LIG 0.16  HD
BRANCH 4 6
ATOM      6  CA  LYS D   4      19.752 -18.300  19.914  1.00 19.65 LIG 0.18  C 
BRANCH 6 7
ATOM      7  C   LYS D   4      18.560 -17.460  20.324  1.00 20.62 LIG 0.24  C 
ATOM      8  N   GLN D   5      18.744 -16.143  20.360  1.00 21.55 LIG-0.35  N 
ATOM      9 H    GLN D   5      19.485 -15.754  20.166  1.00 21.55 LIG 0.16  HD
ATOM     10 O    LYS D   4      17.482 -18.000  20.592  1.00 20.86 LIG-0.27  OA
BRANCH 8 11
ATOM     11  CA  GLN D   5      17.661 -15.230  20.747  1.00 22.83 LIG 0.16  C 
BRANCH 11 12
ATOM     12  C   GLN D   5      16.344 -15.566  20.049  1.00 22.91 LIG 0.22  C 
ATOM     13 O    GLN D   5      15.313 -15.764  20.695  1.00 23.29 LIG-0.29  OA
ENDBRANCH 11 12
BRANCH 11 14
ATOM     14  CB  GLN D   5      18.048 -13.773  20.484  1.00 22.86 LIG 0.04  C 
BRANCH 14 15
ATOM     15  CG  GLN D   5      16.885 -12.797  20.498  1.00 24.40 LIG 0.10  C 
BRANCH 15 16
ATOM     16  CD  GLN D   5      16.582 -12.208  19.133  1.00 24.21 LIG 0.21  C 
ATOM     17  NE2 GLN D   5      17.632 -11.965  18.347  1.00 25.13 LIG-0.37  N 
ATOM     18 22HE GLN D   5      17.514 -11.636  17.562  1.00 25.13 LIG 0.16  HD
ATOM     19 21HE GLN D   5      18.427 -12.138  18.626  1.00 25.13 LIG 0.16  HD
ATOM     20 OE1  GLN D   5      15.418 -11.979  18.783  1.00 25.71 LIG-0.27  OA
ENDBRANCH 15 16
ENDBRANCH 14 15
ENDBRANCH 11 14
ENDBRANCH 8 11
ENDBRANCH 6 7
BRANCH 6 21
ATOM     21  CB  LYS D   4      20.959 -17.795  20.710  1.00 19.73 LIG 0.04  C 
BRANCH 21 22
ATOM     22  CG  LYS D   4      21.333 -18.606  21.921  1.00 20.49 LIG 0.00  C 
BRANCH 22 23
ATOM     23  CD  LYS D   4      22.662 -19.303  21.676  1.00 20.73 LIG 0.03  C 
BRANCH 23 24
ATOM     24  CE  LYS D   4      23.582 -19.130  22.860  1.00 20.46 LIG 0.23  C 
BRANCH 24 25
ATOM     25  NZ  LYS D   4      23.264 -17.894  23.613  1.00 20.02 LIG-0.08  N 
ATOM     26 HZ3  LYS D   4      24.000 -17.590  24.011  1.00 20.02 LIG 0.27  HD
ATOM     27 HZ1  LYS D   4      22.953 -17.277  23.054  1.00 20.02 LIG 0.27  HD
ATOM     28 HZ2  LYS D   4      22.647 -18.073  24.230  1.00 20.02 LIG 0.27  HD
ENDBRANCH 24 25
ENDBRANCH 23 24
ENDBRANCH 22 23
ENDBRANCH 21 22
ENDBRANCH 6 21
ENDBRANCH 4 6
ENDBRANCH 1 2
BRANCH 1 29
ATOM     29  CB  THR D   3      21.798 -18.921  15.726  1.00 15.86 LIG 0.15  C 
ATOM     30  CG2 THR D   3      22.125 -20.299  15.156  1.00 16.15 LIG 0.04  C 
BRANCH 29 31
ATOM     31 OG1  THR D   3      22.066 -17.929  14.727  1.00 16.19 LIG-0.39  OA
ATOM     32 HG1  THR D   3      22.876 -17.965  14.506  1.00 16.19 LIG 0.21  HD
ENDBRANCH 29 31
ENDBRANCH 1 29
BRANCH 1 33
ATOM     33  N   THR D   3      19.719 -17.555  15.768  1.00 15.75 LIG-0.34  N 
ATOM     34  C   ARG D   2      18.421 -17.300  15.938  1.00 15.31 LIG 0.24  C 
ATOM     35 O    ARG D   2      17.646 -18.092  16.471  1.00 15.17 LIG-0.27  OA
ATOM     36 H    THR D   3      20.277 -16.992  15.433  1.00 15.75 LIG 0.16  HD
BRANCH 34 37
ATOM     37  CA  ARG D   2      17.913 -15.955  15.416  1.00 15.15 LIG 0.18  C 
BRANCH 37 38
ATOM     38  N   ARG D   2      18.945 -14.913  15.454  1.00 15.89 LIG-0.35  N 
ATOM     39  C   ALA D   1      19.486 -14.429  16.574  1.00 16.91 LIG 0.25  C 
ATOM     40 O    ALA D   1      19.085 -14.720  17.708  1.00 17.32 LIG-0.27  OA
ATOM     41 H    ARG D   2      19.175 -14.637  14.673  1.00 15.89 LIG 0.16  HD
BRANCH 39 42
ATOM     42  CA  ALA D   1      20.651 -13.456  16.388  1.00 17.08 LIG 0.27  C 
ATOM     43  CB  ALA D   1      22.005 -14.192  16.506  1.00 17.48 LIG 0.05  C 
BRANCH 42 44
ATOM     44  N   ALA D   1      20.580 -12.340  17.376  1.00 17.36 LIG-0.07  N 
ATOM     45 H3   ALA D   1      20.600 -12.672  18.202  1.00 17.36 LIG 0.28  HD
ATOM     46 H2   ALA D   1      19.824 -11.886  17.257  1.00 17.36 LIG 0.28  HD
ATOM     47 H1   ALA D   1      21.274 -11.795  17.260  1.00 17.36 LIG 0.28  HD
ENDBRANCH 42 44
ENDBRANCH 39 42
ENDBRANCH 37 38
BRANCH 37 48
ATOM     48  CB  ARG D   2      17.434 -16.114  13.966  1.00 15.08 LIG 0.04  C 
BRANCH 48 49
ATOM     49  CG  ARG D   2      17.386 -17.527  13.400  1.00 14.63 LIG 0.02  C 
BRANCH 49 50
ATOM     50  CD  ARG D   2      18.622 -17.805  12.534  1.00 13.91 LIG 0.14  C 
BRANCH 50 51
ATOM     51  NE  ARG D   2      18.539 -19.095  11.850  1.00 10.79 LIG-0.23  N 
ATOM     52 HE   ARG D   2      17.836 -19.257  11.381  1.00 10.79 LIG 0.18  HD
ATOM     53  CZ  ARG D   2      19.479 -20.038  11.906  1.00 10.30 LIG 0.67  C 
ATOM     54  NH2 ARG D   2      20.596 -19.840  12.606  1.00  9.50 LIG-0.23  N 
ATOM     55  NH1 ARG D   2      19.301 -21.183  11.261  1.00  9.44 LIG-0.23  N 
ATOM     56 22HH ARG D   2      21.198 -20.453  12.637  1.00  9.50 LIG 0.17  HD
ATOM     57 21HH ARG D   2      20.714 -19.099  13.027  1.00  9.50 LIG 0.17  HD
ATOM     58 11HH ARG D   2      18.582 -21.314  10.809  1.00  9.44 LIG 0.17  HD
ATOM     59 12HH ARG D   2      19.906 -21.793  11.294  1.00  9.44 LIG 0.17  HD
ENDBRANCH 50 51
ENDBRANCH 49 50
ENDBRANCH 48 49
ENDBRANCH 37 48
ENDBRANCH 34 37
ENDBRANCH 1 33
TORSDOF 24
ENDMDL
MODEL 12
USER: ADFR SOLUTION from run 35
USER: SCORE 19.249470 LL:  -3.721 LR: -16.521 RR:   0.000 FEB:  -9.361
USER: RMSD 7.182942
USER: SEED 34
USER: STATUS no improvement in best 1 clusters for 5 generations
USER: GENES 26
USER: genes 0 Translation |==|  0.48181 0.55792 0.57276
USER: genes 1 Rotation |==|  0.73529 0.50808 0.18519 0.80898
USER: genes 2 Torsion [N]-CA--C-[N] |==|  0.14417
USER: genes 3 Torsion [C]-N--CA-[C] |==|  0.73022
USER: genes 4 Torsion [N]-CA--C-[N] |==|  0.26111
USER: genes 5 Torsion [C]-N--CA-[C] |==|  0.67036
USER: genes 6 Torsion [N]-CA--C-[O] |==|  0.60836
USER: genes 7 Torsion [N]-CA--CB-[CG] |==|  0.04434
USER: genes 8 Torsion [CA]-CB--CG-[CD] |==|  0.36276
USER: genes 9 Torsion [CB]-CG--CD-[OE1] |==|  0.84929
USER: genes 10 Torsion [N]-CA--CB-[CG] |==|  0.71436
USER: genes 11 Torsion [CA]-CB--CG-[CD] |==|  0.11791
USER: genes 12 Torsion [CB]-CG--CD-[CE] |==|  0.72639
USER: genes 13 Torsion [CG]-CD--CE-[NZ] |==|  0.36222
USER: genes 14 Torsion [CD]-CE--NZ-[HZ3] |==|  0.06996
USER: genes 15 Torsion [C]-CA--CB-[CG2] |==|  0.42698
USER: genes 16 Torsion [CA]-CB--OG1-[HG1] |==|  0.17080
USER: genes 17 Torsion [C]-CA--N-[C] |==|  0.11365
USER: genes 18 Torsion [N]-C--CA-[N] |==|  0.35756
USER: genes 19 Torsion [C]-CA--N-[C] |==|  0.55566
USER: genes 20 Torsion [N]-C--CA-[N] |==|  0.50311
USER: genes 21 Torsion [C]-CA--N-[H1] |==|  0.86430
USER: genes 22 Torsion [C]-CA--CB-[CG] |==|  0.13868
USER: genes 23 Torsion [CA]-CB--CG-[CD] |==|  0.58278
USER: genes 24 Torsion [CB]-CG--CD-[NE] |==|  0.92088
USER: genes 25 Torsion [CG]-CD--NE-[HE] |==|  0.85823
ROOT
ATOM      1  CA  THR D   3      17.454 -15.102  18.693  1.00 16.13 LIG 0.20  C 
ENDROOT
BRANCH 1 2
ATOM      2  C   THR D   3      18.296 -14.014  18.008  1.00 16.95 LIG 0.24  C 
ATOM      3 O    THR D   3      18.736 -13.066  18.666  1.00 16.12 LIG-0.27  OA
ATOM      4  N   LYS D   4      18.506 -14.166  16.697  1.00 18.15 LIG-0.35  N 
ATOM      5 H    LYS D   4      18.229 -14.852  16.260  1.00 18.15 LIG 0.16  HD
BRANCH 4 6
ATOM      6  CA  LYS D   4      19.226 -13.195  15.858  1.00 19.65 LIG 0.18  C 
BRANCH 6 7
ATOM      7  C   LYS D   4      18.231 -12.296  15.155  1.00 20.62 LIG 0.24  C 
ATOM      8  N   GLN D   5      17.943 -11.144  15.753  1.00 21.55 LIG-0.35  N 
ATOM      9 H    GLN D   5      18.285 -10.890  16.500  1.00 21.55 LIG 0.16  HD
ATOM     10 O    LYS D   4      17.741 -12.638  14.074  1.00 20.86 LIG-0.27  OA
BRANCH 8 11
ATOM     11  CA  GLN D   5      16.989 -10.194  15.165  1.00 22.83 LIG 0.16  C 
BRANCH 11 12
ATOM     12  C   GLN D   5      17.638  -8.848  14.844  1.00 22.91 LIG 0.22  C 
ATOM     13 O    GLN D   5      17.035  -7.790  15.033  1.00 23.29 LIG-0.29  OA
ENDBRANCH 11 12
BRANCH 11 14
ATOM     14  CB  GLN D   5      15.774  -9.998  16.075  1.00 22.86 LIG 0.04  C 
BRANCH 14 15
ATOM     15  CG  GLN D   5      15.968 -10.486  17.500  1.00 24.40 LIG 0.10  C 
BRANCH 15 16
ATOM     16  CD  GLN D   5      15.561  -9.461  18.542  1.00 24.21 LIG 0.21  C 
ATOM     17  NE2 GLN D   5      14.682  -9.867  19.460  1.00 25.13 LIG-0.37  N 
ATOM     18 22HE GLN D   5      14.422  -9.326  20.076  1.00 25.13 LIG 0.16  HD
ATOM     19 21HE GLN D   5      14.376 -10.670  19.437  1.00 25.13 LIG 0.16  HD
ATOM     20 OE1  GLN D   5      16.033  -8.318  18.530  1.00 25.71 LIG-0.27  OA
ENDBRANCH 15 16
ENDBRANCH 14 15
ENDBRANCH 11 14
ENDBRANCH 8 11
ENDBRANCH 6 7
BRANCH 6 21
ATOM     21  CB  LYS D   4      20.043 -13.904  14.775  1.00 19.73 LIG 0.04  C 
BRANCH 21 22
ATOM     22  CG  LYS D   4      21.523 -14.002  15.026  1.00 20.49 LIG 0.00  C 
BRANCH 22 23
ATOM     23  CD  LYS D   4      21.771 -14.368  16.480  1.00 20.73 LIG 0.03  C 
BRANCH 23 24
ATOM     24  CE  LYS D   4      22.096 -13.138  17.293  1.00 20.46 LIG 0.23  C 
BRANCH 24 25
ATOM     25  NZ  LYS D   4      21.273 -13.072  18.523  1.00 20.02 LIG-0.08  N 
ATOM     26 HZ3  LYS D   4      21.018 -13.893  18.755  1.00 20.02 LIG 0.27  HD
ATOM     27 HZ1  LYS D   4      21.752 -12.714  19.182  1.00 20.02 LIG 0.27  HD
ATOM     28 HZ2  LYS D   4      20.554 -12.569  18.373  1.00 20.02 LIG 0.27  HD
ENDBRANCH 24 25
ENDBRANCH 23 24
ENDBRANCH 22 23
ENDBRANCH 21 22
ENDBRANCH 6 21
ENDBRANCH 4 6
ENDBRANCH 1 2
BRANCH 1 29
ATOM     29  CB  THR D   3      17.347 -14.813  20.202  1.00 15.86 LIG 0.15  C 
ATOM     30  CG2 THR D   3      16.073 -15.423  20.779  1.00 16.15 LIG 0.04  C 
BRANCH 29 31
ATOM     31 OG1  THR D   3      18.479 -15.371  20.880  1.00 16.19 LIG-0.39  OA
ATOM     32 HG1  THR D   3      19.183 -15.013  20.594  1.00 16.19 LIG 0.21  HD
ENDBRANCH 29 31
ENDBRANCH 1 29
BRANCH 1 33
ATOM     33  N   THR D   3      17.924 -16.474  18.442  1.00 15.75 LIG-0.34  N 
ATOM     34  C   ARG D   2      19.220 -16.788  18.436  1.00 15.31 LIG 0.24  C 
ATOM     35 O    ARG D   2      20.108 -15.979  18.696  1.00 15.17 LIG-0.27  OA
ATOM     36 H    THR D   3      17.293 -17.042  18.302  1.00 15.75 LIG 0.16  HD
BRANCH 34 37
ATOM     37  CA  ARG D   2      19.573 -18.230  18.070  1.00 15.15 LIG 0.18  C 
BRANCH 37 38
ATOM     38  N   ARG D   2      20.588 -18.308  17.014  1.00 15.89 LIG-0.35  N 
ATOM     39  C   ALA D   1      20.800 -19.382  16.250  1.00 16.91 LIG 0.25  C 
ATOM     40 O    ALA D   1      20.245 -20.472  16.434  1.00 17.32 LIG-0.27  OA
ATOM     41 H    ARG D   2      21.044 -17.584  16.930  1.00 15.89 LIG 0.16  HD
BRANCH 39 42
ATOM     42  CA  ALA D   1      21.802 -19.203  15.109  1.00 17.08 LIG 0.27  C 
ATOM     43  CB  ALA D   1      21.390 -18.027  14.195  1.00 17.48 LIG 0.05  C 
BRANCH 42 44
ATOM     44  N   ALA D   1      21.934 -20.458  14.311  1.00 17.36 LIG-0.07  N 
ATOM     45 H3   ALA D   1      22.631 -20.388  13.761  1.00 17.36 LIG 0.28  HD
ATOM     46 H2   ALA D   1      21.193 -20.588  13.836  1.00 17.36 LIG 0.28  HD
ATOM     47 H1   ALA D   1      22.059 -21.148  14.860  1.00 17.36 LIG 0.28  HD
ENDBRANCH 42 44
ENDBRANCH 39 42
ENDBRANCH 37 38
BRANCH 37 48
ATOM     48  CB  ARG D   2      20.103 -18.962  19.312  1.00 15.08 LIG 0.04  C 
BRANCH 48 49
ATOM     49  CG  ARG D   2      19.273 -18.864  20.584  1.00 14.63 LIG 0.02  C 
BRANCH 49 50
ATOM     50  CD  ARG D   2      20.171 -18.952  21.824  1.00 13.91 LIG 0.14  C 
BRANCH 50 51
ATOM     51  NE  ARG D   2      21.383 -19.733  21.576  1.00 10.79 LIG-0.23  N 
ATOM     52 HE   ARG D   2      21.293 -20.514  21.226  1.00 10.79 LIG 0.18  HD
ATOM     53  CZ  ARG D   2      22.618 -19.316  21.855  1.00 10.30 LIG 0.67  C 
ATOM     54  NH2 ARG D   2      22.821 -18.110  22.387  1.00  9.50 LIG-0.23  N 
ATOM     55  NH1 ARG D   2      23.651 -20.108  21.606  1.00  9.44 LIG-0.23  N 
ATOM     56 22HH ARG D   2      23.620 -17.848  22.565  1.00  9.50 LIG 0.17  HD
ATOM     57 21HH ARG D   2      22.153 -17.595  22.552  1.00  9.50 LIG 0.17  HD
ATOM     58 11HH ARG D   2      23.523 -20.886  21.264  1.00  9.44 LIG 0.17  HD
ATOM     59 12HH ARG D   2      24.449 -19.842  21.785  1.00  9.44 LIG 0.17  HD
ENDBRANCH 50 51
ENDBRANCH 49 50
ENDBRANCH 48 49
ENDBRANCH 37 48
ENDBRANCH 34 37
ENDBRANCH 1 33
TORSDOF 24
ENDMDL
MODEL 13
USER: ADFR SOLUTION from run 97
USER: SCORE 18.630187 LL:  -2.768 LR: -16.523 RR:   0.000 FEB:  -9.364
USER: RMSD 8.051696
USER: SEED 96
USER: STATUS no improvement in best 6 clusters for 5 generations
USER: GENES 26
USER: genes 0 Translation |==|  0.45756 0.50807 0.59381
USER: genes 1 Rotation |==|  0.12878 0.48798 0.69490 0.77215
USER: genes 2 Torsion [N]-CA--C-[N] |==|  0.09509
USER: genes 3 Torsion [C]-N--CA-[C] |==|  0.72435
USER: genes 4 Torsion [N]-CA--C-[N] |==|  0.49932
USER: genes 5 Torsion [C]-N--CA-[C] |==|  0.82262
USER: genes 6 Torsion [N]-CA--C-[O] |==|  0.14429
USER: genes 7 Torsion [N]-CA--CB-[CG] |==|  0.32905
USER: genes 8 Torsion [CA]-CB--CG-[CD] |==|  0.60364
USER: genes 9 Torsion [CB]-CG--CD-[OE1] |==|  0.00345
USER: genes 10 Torsion [N]-CA--CB-[CG] |==|  0.80000
USER: genes 11 Torsion [CA]-CB--CG-[CD] |==|  0.41286
USER: genes 12 Torsion [CB]-CG--CD-[CE] |==|  0.21582
USER: genes 13 Torsion [CG]-CD--CE-[NZ] |==|  0.34413
USER: genes 14 Torsion [CD]-CE--NZ-[HZ3] |==|  0.63338
USER: genes 15 Torsion [C]-CA--CB-[CG2] |==|  0.25345
USER: genes 16 Torsion [CA]-CB--OG1-[HG1] |==|  0.17122
USER: genes 17 Torsion [C]-CA--N-[C] |==|  0.13967
USER: genes 18 Torsion [N]-C--CA-[N] |==|  0.05511
USER: genes 19 Torsion [C]-CA--N-[C] |==|  0.19408
USER: genes 20 Torsion [N]-C--CA-[N] |==|  0.25438
USER: genes 21 Torsion [C]-CA--N-[H1] |==|  0.69392
USER: genes 22 Torsion [C]-CA--CB-[CG] |==|  0.43534
USER: genes 23 Torsion [CA]-CB--CG-[CD] |==|  0.37527
USER: genes 24 Torsion [CB]-CG--CD-[NE] |==|  0.96508
USER: genes 25 Torsion [CG]-CD--NE-[HE] |==|  0.91581
ROOT
ATOM      1  CA  THR D   3      16.727 -16.598  19.324  1.00 16.13 LIG 0.20  C 
ENDROOT
BRANCH 1 2
ATOM      2  C   THR D   3      17.470 -17.916  19.590  1.00 16.95 LIG 0.24  C 
ATOM      3 O    THR D   3      16.879 -18.866  20.113  1.00 16.12 LIG-0.27  OA
ATOM      4  N   LYS D   4      18.755 -17.955  19.227  1.00 18.15 LIG-0.35  N 
ATOM      5 H    LYS D   4      19.144 -17.301  18.826  1.00 18.15 LIG 0.16  HD
BRANCH 4 6
ATOM      6  CA  LYS D   4      19.647 -19.101  19.464  1.00 19.65 LIG 0.18  C 
BRANCH 6 7
ATOM      7  C   LYS D   4      20.495 -18.840  20.690  1.00 20.62 LIG 0.24  C 
ATOM      8  N   GLN D   5      21.352 -19.797  21.036  1.00 21.55 LIG-0.35  N 
ATOM      9 H    GLN D   5      21.448 -20.536  20.608  1.00 21.55 LIG 0.16  HD
ATOM     10 O    LYS D   4      20.382 -17.778  21.309  1.00 20.86 LIG-0.27  OA
BRANCH 8 11
ATOM     11  CA  GLN D   5      22.224 -19.655  22.210  1.00 22.83 LIG 0.16  C 
BRANCH 11 12
ATOM     12  C   GLN D   5      23.214 -18.501  22.059  1.00 22.91 LIG 0.22  C 
ATOM     13 O    GLN D   5      22.832 -17.370  21.755  1.00 23.29 LIG-0.29  OA
ENDBRANCH 11 12
BRANCH 11 14
ATOM     14  CB  GLN D   5      22.966 -20.961  22.505  1.00 22.86 LIG 0.04  C 
BRANCH 14 15
ATOM     15  CG  GLN D   5      24.479 -20.860  22.422  1.00 24.40 LIG 0.10  C 
BRANCH 15 16
ATOM     16  CD  GLN D   5      25.129 -22.098  21.832  1.00 24.21 LIG 0.21  C 
ATOM     17  NE2 GLN D   5      26.461 -22.090  21.760  1.00 25.13 LIG-0.37  N 
ATOM     18 22HE GLN D   5      26.878 -22.770  21.438  1.00 25.13 LIG 0.16  HD
ATOM     19 21HE GLN D   5      26.903 -21.405  22.036  1.00 25.13 LIG 0.16  HD
ATOM     20 OE1  GLN D   5      24.445 -23.056  21.450  1.00 25.71 LIG-0.27  OA
ENDBRANCH 15 16
ENDBRANCH 14 15
ENDBRANCH 11 14
ENDBRANCH 8 11
ENDBRANCH 6 7
BRANCH 6 21
ATOM     21  CB  LYS D   4      20.603 -19.306  18.285  1.00 19.73 LIG 0.04  C 
BRANCH 21 22
ATOM     22  CG  LYS D   4      19.987 -19.848  17.024  1.00 20.49 LIG 0.00  C 
BRANCH 22 23
ATOM     23  CD  LYS D   4      20.734 -19.305  15.817  1.00 20.73 LIG 0.03  C 
BRANCH 23 24
ATOM     24  CE  LYS D   4      22.038 -20.040  15.621  1.00 20.46 LIG 0.23  C 
BRANCH 24 25
ATOM     25  NZ  LYS D   4      22.125 -20.628  14.263  1.00 20.02 LIG-0.08  N 
ATOM     26 HZ3  LYS D   4      22.386 -21.477  14.323  1.00 20.02 LIG 0.27  HD
ATOM     27 HZ1  LYS D   4      21.327 -20.590  13.871  1.00 20.02 LIG 0.27  HD
ATOM     28 HZ2  LYS D   4      22.715 -20.170  13.778  1.00 20.02 LIG 0.27  HD
ENDBRANCH 24 25
ENDBRANCH 23 24
ENDBRANCH 22 23
ENDBRANCH 21 22
ENDBRANCH 6 21
ENDBRANCH 4 6
ENDBRANCH 1 2
BRANCH 1 29
ATOM     29  CB  THR D   3      15.206 -16.843  19.320  1.00 15.86 LIG 0.15  C 
ATOM     30  CG2 THR D   3      14.624 -16.641  20.717  1.00 16.15 LIG 0.04  C 
BRANCH 29 31
ATOM     31 OG1  THR D   3      14.574 -15.929  18.416  1.00 16.19 LIG-0.39  OA
ATOM     32 HG1  THR D   3      14.861 -16.061  17.638  1.00 16.19 LIG 0.21  HD
ENDBRANCH 29 31
ENDBRANCH 1 29
BRANCH 1 33
ATOM     33  N   THR D   3      17.160 -15.898  18.105  1.00 15.75 LIG-0.34  N 
ATOM     34  C   ARG D   2      17.248 -16.516  16.927  1.00 15.31 LIG 0.24  C 
ATOM     35 O    ARG D   2      16.921 -17.689  16.759  1.00 15.17 LIG-0.27  OA
ATOM     36 H    THR D   3      17.348 -15.066  18.224  1.00 15.75 LIG 0.16  HD
BRANCH 34 37
ATOM     37  CA  ARG D   2      17.801 -15.694  15.762  1.00 15.15 LIG 0.18  C 
BRANCH 37 38
ATOM     38  N   ARG D   2      18.567 -14.527  16.213  1.00 15.89 LIG-0.35  N 
ATOM     39  C   ALA D   1      19.757 -14.592  16.813  1.00 16.91 LIG 0.25  C 
ATOM     40 O    ALA D   1      20.287 -15.653  17.167  1.00 17.32 LIG-0.27  OA
ATOM     41 H    ARG D   2      18.170 -13.781  16.051  1.00 15.89 LIG 0.16  HD
BRANCH 39 42
ATOM     42  CA  ALA D   1      20.453 -13.254  17.066  1.00 17.08 LIG 0.27  C 
ATOM     43  CB  ALA D   1      21.985 -13.397  16.924  1.00 17.48 LIG 0.05  C 
BRANCH 42 44
ATOM     44  N   ALA D   1      20.104 -12.716  18.413  1.00 17.36 LIG-0.07  N 
ATOM     45 H3   ALA D   1      20.850 -12.490  18.845  1.00 17.36 LIG 0.28  HD
ATOM     46 H2   ALA D   1      19.669 -13.337  18.878  1.00 17.36 LIG 0.28  HD
ATOM     47 H1   ALA D   1      19.586 -11.997  18.322  1.00 17.36 LIG 0.28  HD
ENDBRANCH 42 44
ENDBRANCH 39 42
ENDBRANCH 37 38
BRANCH 37 48
ATOM     48  CB  ARG D   2      18.717 -16.575  14.900  1.00 15.08 LIG 0.04  C 
BRANCH 48 49
ATOM     49  CG  ARG D   2      18.926 -16.154  13.452  1.00 14.63 LIG 0.02  C 
BRANCH 49 50
ATOM     50  CD  ARG D   2      20.409 -16.246  13.070  1.00 13.91 LIG 0.14  C 
BRANCH 50 51
ATOM     51  NE  ARG D   2      21.271 -16.421  14.239  1.00 10.79 LIG-0.23  N 
ATOM     52 HE   ARG D   2      21.012 -16.078  14.984  1.00 10.79 LIG 0.18  HD
ATOM     53  CZ  ARG D   2      22.431 -17.077  14.226  1.00 10.30 LIG 0.67  C 
ATOM     54  NH2 ARG D   2      22.878 -17.642  13.104  1.00  9.50 LIG-0.23  N 
ATOM     55  NH1 ARG D   2      23.148 -17.167  15.338  1.00  9.44 LIG-0.23  N 
ATOM     56 22HH ARG D   2      23.627 -18.063  13.103  1.00  9.50 LIG 0.17  HD
ATOM     57 21HH ARG D   2      22.416 -17.584  12.380  1.00  9.50 LIG 0.17  HD
ATOM     58 11HH ARG D   2      22.863 -16.803  16.063  1.00  9.44 LIG 0.17  HD
ATOM     59 12HH ARG D   2      23.896 -17.590  15.333  1.00  9.44 LIG 0.17  HD
ENDBRANCH 50 51
ENDBRANCH 49 50
ENDBRANCH 48 49
ENDBRANCH 37 48
ENDBRANCH 34 37
ENDBRANCH 1 33
TORSDOF 24
ENDMDL
MODEL 14
USER: ADFR SOLUTION from run 72
USER: SCORE 19.038003 LL:  -3.402 LR: -16.503 RR:   0.000 FEB:  -9.344
USER: RMSD 8.704417
USER: SEED 71
USER: STATUS no improvement in best 8 clusters for 5 generations
USER: GENES 26
USER: genes 0 Translation |==|  0.54366 0.42879 0.49175
USER: genes 1 Rotation |==|  0.76454 0.91238 0.52529 0.59654
USER: genes 2 Torsion [N]-CA--C-[N] |==|  0.83407
USER: genes 3 Torsion [C]-N--CA-[C] |==|  0.75606
USER: genes 4 Torsion [N]-CA--C-[N] |==|  0.19695
USER: genes 5 Torsion [C]-N--CA-[C] |==|  0.61475
USER: genes 6 Torsion [N]-CA--C-[O] |==|  0.28197
USER: genes 7 Torsion [N]-CA--CB-[CG] |==|  0.65827
USER: genes 8 Torsion [CA]-CB--CG-[CD] |==|  0.02006
USER: genes 9 Torsion [CB]-CG--CD-[OE1] |==|  0.72615
USER: genes 10 Torsion [N]-CA--CB-[CG] |==|  0.81204
USER: genes 11 Torsion [CA]-CB--CG-[CD] |==|  0.63714
USER: genes 12 Torsion [CB]-CG--CD-[CE] |==|  0.72111
USER: genes 13 Torsion [CG]-CD--CE-[NZ] |==|  0.29618
USER: genes 14 Torsion [CD]-CE--NZ-[HZ3] |==|  0.13731
USER: genes 15 Torsion [C]-CA--CB-[CG2] |==|  0.64813
USER: genes 16 Torsion [CA]-CB--OG1-[HG1] |==|  0.74498
USER: genes 17 Torsion [C]-CA--N-[C] |==|  0.60790
USER: genes 18 Torsion [N]-C--CA-[N] |==|  0.00686
USER: genes 19 Torsion [C]-CA--N-[C] |==|  0.72749
USER: genes 20 Torsion [N]-C--CA-[N] |==|  0.44105
USER: genes 21 Torsion [C]-CA--N-[H1] |==|  0.79904
USER: genes 22 Torsion [C]-CA--CB-[CG] |==|  0.76853
USER: genes 23 Torsion [CA]-CB--CG-[CD] |==|  0.39752
USER: genes 24 Torsion [CB]-CG--CD-[NE] |==|  0.68480
USER: genes 25 Torsion [CG]-CD--NE-[HE] |==|  0.81176
ROOT
ATOM      1  CA  THR D   3      19.310 -18.976  16.262  1.00 16.13 LIG 0.20  C 
ENDROOT
BRANCH 1 2
ATOM      2  C   THR D   3      18.855 -18.993  17.730  1.00 16.95 LIG 0.24  C 
ATOM      3 O    THR D   3      17.799 -19.551  18.045  1.00 16.12 LIG-0.27  OA
ATOM      4  N   LYS D   4      19.657 -18.379  18.605  1.00 18.15 LIG-0.35  N 
ATOM      5 H    LYS D   4      20.409 -18.030  18.378  1.00 18.15 LIG 0.16  HD
BRANCH 4 6
ATOM      6  CA  LYS D   4      19.356 -18.230  20.037  1.00 19.65 LIG 0.18  C 
BRANCH 6 7
ATOM      7  C   LYS D   4      18.550 -16.967  20.258  1.00 20.62 LIG 0.24  C 
ATOM      8  N   GLN D   5      17.293 -16.979  19.824  1.00 21.55 LIG-0.35  N 
ATOM      9 H    GLN D   5      16.924 -17.652  19.436  1.00 21.55 LIG 0.16  HD
ATOM     10 O    LYS D   4      19.059 -15.997  20.828  1.00 20.86 LIG-0.27  OA
BRANCH 8 11
ATOM     11  CA  GLN D   5      16.418 -15.810  19.981  1.00 22.83 LIG 0.16  C 
BRANCH 11 12
ATOM     12  C   GLN D   5      15.000 -16.201  20.396  1.00 22.91 LIG 0.22  C 
ATOM     13 O    GLN D   5      14.626 -16.090  21.565  1.00 23.29 LIG-0.29  OA
ENDBRANCH 11 12
BRANCH 11 14
ATOM     14  CB  GLN D   5      16.387 -14.970  18.702  1.00 22.86 LIG 0.04  C 
BRANCH 14 15
ATOM     15  CG  GLN D   5      16.798 -13.519  18.890  1.00 24.40 LIG 0.10  C 
BRANCH 15 16
ATOM     16  CD  GLN D   5      17.327 -13.224  20.281  1.00 24.21 LIG 0.21  C 
ATOM     17  NE2 GLN D   5      18.605 -13.536  20.506  1.00 25.13 LIG-0.37  N 
ATOM     18 22HE GLN D   5      18.955 -13.385  21.277  1.00 25.13 LIG 0.16  HD
ATOM     19 21HE GLN D   5      19.078 -13.889  19.880  1.00 25.13 LIG 0.16  HD
ATOM     20 OE1  GLN D   5      16.602 -12.715  21.144  1.00 25.71 LIG-0.27  OA
ENDBRANCH 15 16
ENDBRANCH 14 15
ENDBRANCH 11 14
ENDBRANCH 8 11
ENDBRANCH 6 7
BRANCH 6 21
ATOM     21  CB  LYS D   4      20.642 -18.097  20.858  1.00 19.73 LIG 0.04  C 
BRANCH 21 22
ATOM     22  CG  LYS D   4      21.513 -19.322  20.919  1.00 20.49 LIG 0.00  C 
BRANCH 22 23
ATOM     23  CD  LYS D   4      21.885 -19.613  22.364  1.00 20.73 LIG 0.03  C 
BRANCH 23 24
ATOM     24  CE  LYS D   4      23.279 -19.121  22.666  1.00 20.46 LIG 0.23  C 
BRANCH 24 25
ATOM     25  NZ  LYS D   4      23.250 -17.901  23.508  1.00 20.02 LIG-0.08  N 
ATOM     26 HZ3  LYS D   4      22.713 -18.034  24.205  1.00 20.02 LIG 0.27  HD
ATOM     27 HZ1  LYS D   4      24.072 -17.720  23.797  1.00 20.02 LIG 0.27  HD
ATOM     28 HZ2  LYS D   4      22.948 -17.216  23.027  1.00 20.02 LIG 0.27  HD
ENDBRANCH 24 25
ENDBRANCH 23 24
ENDBRANCH 22 23
ENDBRANCH 21 22
ENDBRANCH 6 21
ENDBRANCH 4 6
ENDBRANCH 1 2
BRANCH 1 29
ATOM     29  CB  THR D   3      20.599 -19.805  16.102  1.00 15.86 LIG 0.15  C 
ATOM     30  CG2 THR D   3      21.686 -18.981  15.417  1.00 16.15 LIG 0.04  C 
BRANCH 29 31
ATOM     31 OG1  THR D   3      21.070 -20.215  17.392  1.00 16.19 LIG-0.39  OA
ATOM     32 HG1  THR D   3      21.612 -19.646  17.687  1.00 16.19 LIG 0.21  HD
ENDBRANCH 29 31
ENDBRANCH 1 29
BRANCH 1 33
ATOM     33  N   THR D   3      19.464 -17.628  15.695  1.00 15.75 LIG-0.34  N 
ATOM     34  C   ARG D   2      19.106 -17.342  14.442  1.00 15.31 LIG 0.24  C 
ATOM     35 O    ARG D   2      18.571 -18.158  13.695  1.00 15.17 LIG-0.27  OA
ATOM     36 H    THR D   3      19.802 -17.053  16.238  1.00 15.75 LIG 0.16  HD
BRANCH 34 37
ATOM     37  CA  ARG D   2      19.407 -15.926  13.950  1.00 15.15 LIG 0.18  C 
BRANCH 37 38
ATOM     38  N   ARG D   2      20.111 -15.121  14.955  1.00 15.89 LIG-0.35  N 
ATOM     39  C   ALA D   1      19.518 -14.246  15.769  1.00 16.91 LIG 0.25  C 
ATOM     40 O    ALA D   1      18.325 -13.927  15.679  1.00 17.32 LIG-0.27  OA
ATOM     41 H    ARG D   2      20.958 -15.268  14.972  1.00 15.89 LIG 0.16  HD
BRANCH 39 42
ATOM     42  CA  ALA D   1      20.409 -13.622  16.844  1.00 17.08 LIG 0.27  C 
ATOM     43  CB  ALA D   1      20.625 -14.605  18.017  1.00 17.48 LIG 0.05  C 
BRANCH 42 44
ATOM     44  N   ALA D   1      19.830 -12.340  17.342  1.00 17.36 LIG-0.07  N 
ATOM     45 H3   ALA D   1      20.260 -12.087  18.080  1.00 17.36 LIG 0.28  HD
ATOM     46 H2   ALA D   1      18.967 -12.455  17.526  1.00 17.36 LIG 0.28  HD
ATOM     47 H1   ALA D   1      19.919 -11.711  16.718  1.00 17.36 LIG 0.28  HD
ENDBRANCH 42 44
ENDBRANCH 39 42
ENDBRANCH 37 38
BRANCH 37 48
ATOM     48  CB  ARG D   2      20.275 -15.995  12.685  1.00 15.08 LIG 0.04  C 
BRANCH 48 49
ATOM     49  CG  ARG D   2      21.776 -16.155  12.879  1.00 14.63 LIG 0.02  C 
BRANCH 49 50
ATOM     50  CD  ARG D   2      22.368 -17.065  11.795  1.00 13.91 LIG 0.14  C 
BRANCH 50 51
ATOM     51  NE  ARG D   2      22.872 -18.324  12.343  1.00 10.79 LIG-0.23  N 
ATOM     52 HE   ARG D   2      23.563 -18.292  12.854  1.00 10.79 LIG 0.18  HD
ATOM     53  CZ  ARG D   2      22.332 -19.519  12.102  1.00 10.30 LIG 0.67  C 
ATOM     54  NH2 ARG D   2      21.252 -19.631  11.328  1.00  9.50 LIG-0.23  N 
ATOM     55  NH1 ARG D   2      22.875 -20.604  12.635  1.00  9.44 LIG-0.23  N 
ATOM     56 22HH ARG D   2      20.910 -20.405  11.177  1.00  9.50 LIG 0.17  HD
ATOM     57 21HH ARG D   2      20.899 -18.929  10.979  1.00  9.50 LIG 0.17  HD
ATOM     58 11HH ARG D   2      23.572 -20.536  13.134  1.00  9.44 LIG 0.17  HD
ATOM     59 12HH ARG D   2      22.529 -21.377  12.483  1.00  9.44 LIG 0.17  HD
ENDBRANCH 50 51
ENDBRANCH 49 50
ENDBRANCH 48 49
ENDBRANCH 37 48
ENDBRANCH 34 37
ENDBRANCH 1 33
TORSDOF 24
ENDMDL
MODEL 15
USER: ADFR SOLUTION from run 71
USER: SCORE 17.317455 LL:  -2.620 LR: -16.487 RR:   0.000 FEB:  -9.328
USER: RMSD 11.036573
USER: SEED 70
USER: STATUS searching
USER: GENES 26
USER: genes 0 Translation |==|  0.63537 0.43678 0.35361
USER: genes 1 Rotation |==|  0.97506 0.49922 0.42676 0.63768
USER: genes 2 Torsion [N]-CA--C-[N] |==|  0.68096
USER: genes 3 Torsion [C]-N--CA-[C] |==|  0.56062
USER: genes 4 Torsion [N]-CA--C-[N] |==|  0.55936
USER: genes 5 Torsion [C]-N--CA-[C] |==|  0.59539
USER: genes 6 Torsion [N]-CA--C-[O] |==|  0.94160
USER: genes 7 Torsion [N]-CA--CB-[CG] |==|  0.27201
USER: genes 8 Torsion [CA]-CB--CG-[CD] |==|  0.54131
USER: genes 9 Torsion [CB]-CG--CD-[OE1] |==|  0.87583
USER: genes 10 Torsion [N]-CA--CB-[CG] |==|  0.77021
USER: genes 11 Torsion [CA]-CB--CG-[CD] |==|  0.66840
USER: genes 12 Torsion [CB]-CG--CD-[CE] |==|  0.83165
USER: genes 13 Torsion [CG]-CD--CE-[NZ] |==|  0.59185
USER: genes 14 Torsion [CD]-CE--NZ-[HZ3] |==|  0.35197
USER: genes 15 Torsion [C]-CA--CB-[CG2] |==|  0.20796
USER: genes 16 Torsion [CA]-CB--OG1-[HG1] |==|  0.23873
USER: genes 17 Torsion [C]-CA--N-[C] |==|  0.63334
USER: genes 18 Torsion [N]-C--CA-[N] |==|  0.29212
USER: genes 19 Torsion [C]-CA--N-[C] |==|  0.58996
USER: genes 20 Torsion [N]-C--CA-[N] |==|  0.59613
USER: genes 21 Torsion [C]-CA--N-[H1] |==|  0.80552
USER: genes 22 Torsion [C]-CA--CB-[CG] |==|  0.38662
USER: genes 23 Torsion [CA]-CB--CG-[CD] |==|  0.31025
USER: genes 24 Torsion [CB]-CG--CD-[NE] |==|  0.46427
USER: genes 25 Torsion [CG]-CD--NE-[HE] |==|  0.26045
ROOT
ATOM      1  CA  THR D   3      22.061 -18.737  12.118  1.00 16.13 LIG 0.20  C 
ENDROOT
BRANCH 1 2
ATOM      2  C   THR D   3      22.260 -17.946  13.421  1.00 16.95 LIG 0.24  C 
ATOM      3 O    THR D   3      23.095 -17.038  13.473  1.00 16.12 LIG-0.27  OA
ATOM      4  N   LYS D   4      21.491 -18.303  14.453  1.00 18.15 LIG-0.35  N 
ATOM      5 H    LYS D   4      20.885 -18.910  14.392  1.00 18.15 LIG 0.16  HD
BRANCH 4 6
ATOM      6  CA  LYS D   4      21.586 -17.712  15.797  1.00 19.65 LIG 0.18  C 
BRANCH 6 7
ATOM      7  C   LYS D   4      20.994 -18.665  16.815  1.00 20.62 LIG 0.24  C 
ATOM      8  N   GLN D   5      20.603 -18.136  17.970  1.00 21.55 LIG-0.35  N 
ATOM      9 H    GLN D   5      20.666 -17.300  18.163  1.00 21.55 LIG 0.16  HD
ATOM     10 O    LYS D   4      20.883 -19.866  16.549  1.00 20.86 LIG-0.27  OA
BRANCH 8 11
ATOM     11  CA  GLN D   5      20.019 -18.964  19.033  1.00 22.83 LIG 0.16  C 
BRANCH 11 12
ATOM     12  C   GLN D   5      18.942 -18.219  19.821  1.00 22.91 LIG 0.22  C 
ATOM     13 O    GLN D   5      18.897 -16.988  19.829  1.00 23.29 LIG-0.29  OA
ENDBRANCH 11 12
BRANCH 11 14
ATOM     14  CB  GLN D   5      21.101 -19.494  19.976  1.00 22.86 LIG 0.04  C 
BRANCH 14 15
ATOM     15  CG  GLN D   5      21.272 -18.693  21.255  1.00 24.40 LIG 0.10  C 
BRANCH 15 16
ATOM     16  CD  GLN D   5      22.561 -19.010  21.990  1.00 24.21 LIG 0.21  C 
ATOM     17  NE2 GLN D   5      23.250 -17.965  22.453  1.00 25.13 LIG-0.37  N 
ATOM     18 22HE GLN D   5      23.985 -18.091  22.881  1.00 25.13 LIG 0.16  HD
ATOM     19 21HE GLN D   5      22.958 -17.166  22.325  1.00 25.13 LIG 0.16  HD
ATOM     20 OE1  GLN D   5      22.934 -20.179  22.148  1.00 25.71 LIG-0.27  OA
ENDBRANCH 15 16
ENDBRANCH 14 15
ENDBRANCH 11 14
ENDBRANCH 8 11
ENDBRANCH 6 7
BRANCH 6 21
ATOM     21  CB  LYS D   4      20.789 -16.407  15.881  1.00 19.73 LIG 0.04  C 
BRANCH 21 22
ATOM     22  CG  LYS D   4      21.488 -15.176  15.374  1.00 20.49 LIG 0.00  C 
BRANCH 22 23
ATOM     23  CD  LYS D   4      21.621 -14.164  16.501  1.00 20.73 LIG 0.03  C 
BRANCH 23 24
ATOM     24  CE  LYS D   4      20.262 -13.758  17.017  1.00 20.46 LIG 0.23  C 
BRANCH 24 25
ATOM     25  NZ  LYS D   4      20.257 -12.346  17.467  1.00 20.02 LIG-0.08  N 
ATOM     26 HZ3  LYS D   4      19.595 -11.908  17.063  1.00 20.02 LIG 0.27  HD
ATOM     27 HZ1  LYS D   4      20.138 -12.316  18.348  1.00 20.02 LIG 0.27  HD
ATOM     28 HZ2  LYS D   4      21.034 -11.965  17.260  1.00 20.02 LIG 0.27  HD
ENDBRANCH 24 25
ENDBRANCH 23 24
ENDBRANCH 22 23
ENDBRANCH 21 22
ENDBRANCH 6 21
ENDBRANCH 4 6
ENDBRANCH 1 2
BRANCH 1 29
ATOM     29  CB  THR D   3      20.794 -19.608  12.220  1.00 15.86 LIG 0.15  C 
ATOM     30  CG2 THR D   3      19.539 -18.750  12.088  1.00 16.15 LIG 0.04  C 
BRANCH 29 31
ATOM     31 OG1  THR D   3      20.800 -20.589  11.176  1.00 16.19 LIG-0.39  OA
ATOM     32 HG1  THR D   3      21.234 -21.263  11.427  1.00 16.19 LIG 0.21  HD
ENDBRANCH 29 31
ENDBRANCH 1 29
BRANCH 1 33
ATOM     33  N   THR D   3      23.229 -19.534  11.713  1.00 15.75 LIG-0.34  N 
ATOM     34  C   ARG D   2      23.707 -19.507  10.468  1.00 15.31 LIG 0.24  C 
ATOM     35 O    ARG D   2      23.250 -18.779   9.590  1.00 15.17 LIG-0.27  OA
ATOM     36 H    THR D   3      23.568 -20.010  12.345  1.00 15.75 LIG 0.16  HD
BRANCH 34 37
ATOM     37  CA  ARG D   2      24.867 -20.455  10.160  1.00 15.15 LIG 0.18  C 
BRANCH 37 38
ATOM     38  N   ARG D   2      24.448 -21.615   9.366  1.00 15.89 LIG-0.35  N 
ATOM     39  C   ALA D   1      24.994 -22.829   9.460  1.00 16.91 LIG 0.25  C 
ATOM     40 O    ALA D   1      25.998 -23.077  10.139  1.00 17.32 LIG-0.27  OA
ATOM     41 H    ARG D   2      23.804 -21.438   8.824  1.00 15.89 LIG 0.16  HD
BRANCH 39 42
ATOM     42  CA  ALA D   1      24.310 -23.934   8.653  1.00 17.08 LIG 0.27  C 
ATOM     43  CB  ALA D   1      22.843 -23.562   8.346  1.00 17.48 LIG 0.05  C 
BRANCH 42 44
ATOM     44  N   ALA D   1      24.375 -25.240   9.371  1.00 17.36 LIG-0.07  N 
ATOM     45 H3   ALA D   1      23.852 -25.832   8.960  1.00 17.36 LIG 0.28  HD
ATOM     46 H2   ALA D   1      24.098 -25.132  10.210  1.00 17.36 LIG 0.28  HD
ATOM     47 H1   ALA D   1      25.214 -25.538   9.373  1.00 17.36 LIG 0.28  HD
ENDBRANCH 42 44
ENDBRANCH 39 42
ENDBRANCH 37 38
BRANCH 37 48
ATOM     48  CB  ARG D   2      25.956 -19.700   9.384  1.00 15.08 LIG 0.04  C 
BRANCH 48 49
ATOM     49  CG  ARG D   2      27.403 -19.985   9.760  1.00 14.63 LIG 0.02  C 
BRANCH 49 50
ATOM     50  CD  ARG D   2      28.121 -20.725   8.625  1.00 13.91 LIG 0.14  C 
BRANCH 50 51
ATOM     51  NE  ARG D   2      29.572 -20.753   8.812  1.00 10.79 LIG-0.23  N 
ATOM     52 HE   ARG D   2      29.913 -21.437   9.207  1.00 10.79 LIG 0.18  HD
ATOM     53  CZ  ARG D   2      30.400 -19.788   8.413  1.00 10.30 LIG 0.67  C 
ATOM     54  NH2 ARG D   2      29.932 -18.709   7.785  1.00  9.50 LIG-0.23  N 
ATOM     55  NH1 ARG D   2      31.701 -19.900   8.646  1.00  9.44 LIG-0.23  N 
ATOM     56 22HH ARG D   2      30.472 -18.091   7.531  1.00  9.50 LIG 0.17  HD
ATOM     57 21HH ARG D   2      29.088 -18.632   7.635  1.00  9.50 LIG 0.17  HD
ATOM     58 11HH ARG D   2      32.006 -20.594   9.052  1.00  9.44 LIG 0.17  HD
ATOM     59 12HH ARG D   2      32.238 -19.280   8.389  1.00  9.44 LIG 0.17  HD
ENDBRANCH 50 51
ENDBRANCH 49 50
ENDBRANCH 48 49
ENDBRANCH 37 48
ENDBRANCH 34 37
ENDBRANCH 1 33
TORSDOF 24
ENDMDL
MODEL 16
USER: ADFR SOLUTION from run 64
USER: SCORE 20.251414 LL:  -4.203 LR: -16.451 RR:   0.000 FEB:  -9.292
USER: RMSD 8.840268
USER: SEED 63
USER: STATUS no improvement in best 5 clusters for 5 generations
USER: GENES 26
USER: genes 0 Translation |==|  0.55522 0.43029 0.47716
USER: genes 1 Rotation |==|  0.33574 0.03171 0.43964 0.50904
USER: genes 2 Torsion [N]-CA--C-[N] |==|  0.94444
USER: genes 3 Torsion [C]-N--CA-[C] |==|  0.68165
USER: genes 4 Torsion [N]-CA--C-[N] |==|  0.91336
USER: genes 5 Torsion [C]-N--CA-[C] |==|  0.73974
USER: genes 6 Torsion [N]-CA--C-[O] |==|  0.79322
USER: genes 7 Torsion [N]-CA--CB-[CG] |==|  0.85310
USER: genes 8 Torsion [CA]-CB--CG-[CD] |==|  0.43426
USER: genes 9 Torsion [CB]-CG--CD-[OE1] |==|  0.04813
USER: genes 10 Torsion [N]-CA--CB-[CG] |==|  0.54805
USER: genes 11 Torsion [CA]-CB--CG-[CD] |==|  0.23184
USER: genes 12 Torsion [CB]-CG--CD-[CE] |==|  0.34753
USER: genes 13 Torsion [CG]-CD--CE-[NZ] |==|  0.03704
USER: genes 14 Torsion [CD]-CE--NZ-[HZ3] |==|  0.49558
USER: genes 15 Torsion [C]-CA--CB-[CG2] |==|  0.81615
USER: genes 16 Torsion [CA]-CB--OG1-[HG1] |==|  0.27075
USER: genes 17 Torsion [C]-CA--N-[C] |==|  0.83849
USER: genes 18 Torsion [N]-C--CA-[N] |==|  0.90897
USER: genes 19 Torsion [C]-CA--N-[C] |==|  0.82680
USER: genes 20 Torsion [N]-C--CA-[N] |==|  0.32645
USER: genes 21 Torsion [C]-CA--N-[H1] |==|  0.30524
USER: genes 22 Torsion [C]-CA--CB-[CG] |==|  0.08201
USER: genes 23 Torsion [CA]-CB--CG-[CD] |==|  0.18018
USER: genes 24 Torsion [CB]-CG--CD-[NE] |==|  0.48691
USER: genes 25 Torsion [CG]-CD--NE-[HE] |==|  0.03691
ROOT
ATOM      1  CA  THR D   3      19.656 -18.931  15.825  1.00 16.13 LIG 0.20  C 
ENDROOT
BRANCH 1 2
ATOM      2  C   THR D   3      19.790 -19.417  17.277  1.00 16.95 LIG 0.24  C 
ATOM      3 O    THR D   3      19.968 -20.616  17.515  1.00 16.12 LIG-0.27  OA
ATOM      4  N   LYS D   4      19.702 -18.479  18.225  1.00 18.15 LIG-0.35  N 
ATOM      5 H    LYS D   4      19.619 -17.643  18.043  1.00 18.15 LIG 0.16  HD
BRANCH 4 6
ATOM      6  CA  LYS D   4      19.735 -18.759  19.669  1.00 19.65 LIG 0.18  C 
BRANCH 6 7
ATOM      7  C   LYS D   4      18.400 -18.402  20.287  1.00 20.62 LIG 0.24  C 
ATOM      8  N   GLN D   5      17.732 -17.399  19.724  1.00 21.55 LIG-0.35  N 
ATOM      9 H    GLN D   5      18.013 -16.955  19.043  1.00 21.55 LIG 0.16  HD
ATOM     10 O    LYS D   4      17.973 -19.039  21.255  1.00 20.86 LIG-0.27  OA
BRANCH 8 11
ATOM     11  CA  GLN D   5      16.428 -16.963  20.240  1.00 22.83 LIG 0.16  C 
BRANCH 11 12
ATOM     12  C   GLN D   5      15.265 -17.639  19.518  1.00 22.91 LIG 0.22  C 
ATOM     13 O    GLN D   5      14.946 -17.309  18.374  1.00 23.29 LIG-0.29  OA
ENDBRANCH 11 12
BRANCH 11 14
ATOM     14  CB  GLN D   5      16.289 -15.440  20.168  1.00 22.86 LIG 0.04  C 
BRANCH 14 15
ATOM     15  CG  GLN D   5      17.424 -14.670  20.820  1.00 24.40 LIG 0.10  C 
BRANCH 15 16
ATOM     16  CD  GLN D   5      17.583 -13.264  20.273  1.00 24.21 LIG 0.21  C 
ATOM     17  NE2 GLN D   5      18.750 -12.664  20.516  1.00 25.13 LIG-0.37  N 
ATOM     18 22HE GLN D   5      18.892 -11.868  20.223  1.00 25.13 LIG 0.16  HD
ATOM     19 21HE GLN D   5      19.359 -13.073  20.963  1.00 25.13 LIG 0.16  HD
ATOM     20 OE1  GLN D   5      16.673 -12.722  19.635  1.00 25.71 LIG-0.27  OA
ENDBRANCH 15 16
ENDBRANCH 14 15
ENDBRANCH 11 14
ENDBRANCH 8 11
ENDBRANCH 6 7
BRANCH 6 21
ATOM     21  CB  LYS D   4      20.801 -17.911  20.368  1.00 19.73 LIG 0.04  C 
BRANCH 21 22
ATOM     22  CG  LYS D   4      21.216 -18.375  21.738  1.00 20.49 LIG 0.00  C 
BRANCH 22 23
ATOM     23  CD  LYS D   4      22.274 -19.460  21.609  1.00 20.73 LIG 0.03  C 
BRANCH 23 24
ATOM     24  CE  LYS D   4      23.511 -19.096  22.394  1.00 20.46 LIG 0.23  C 
BRANCH 24 25
ATOM     25  NZ  LYS D   4      23.250 -17.965  23.316  1.00 20.02 LIG-0.08  N 
ATOM     26 HZ3  LYS D   4      23.987 -17.786  23.783  1.00 20.02 LIG 0.27  HD
ATOM     27 HZ1  LYS D   4      23.015 -17.247  22.847  1.00 20.02 LIG 0.27  HD
ATOM     28 HZ2  LYS D   4      22.591 -18.183  23.875  1.00 20.02 LIG 0.27  HD
ENDBRANCH 24 25
ENDBRANCH 23 24
ENDBRANCH 22 23
ENDBRANCH 21 22
ENDBRANCH 6 21
ENDBRANCH 4 6
ENDBRANCH 1 2
BRANCH 1 29
ATOM     29  CB  THR D   3      21.035 -18.948  15.136  1.00 15.86 LIG 0.15  C 
ATOM     30  CG2 THR D   3      21.967 -17.922  15.773  1.00 16.15 LIG 0.04  C 
BRANCH 29 31
ATOM     31 OG1  THR D   3      21.619 -20.250  15.262  1.00 16.19 LIG-0.39  OA
ATOM     32 HG1  THR D   3      21.477 -20.690  14.562  1.00 16.19 LIG 0.21  HD
ENDBRANCH 29 31
ENDBRANCH 1 29
BRANCH 1 33
ATOM     33  N   THR D   3      19.003 -17.621  15.686  1.00 15.75 LIG-0.34  N 
ATOM     34  C   ARG D   2      17.772 -17.391  16.145  1.00 15.31 LIG 0.24  C 
ATOM     35 O    ARG D   2      17.120 -18.229  16.765  1.00 15.17 LIG-0.27  OA
ATOM     36 H    THR D   3      19.483 -17.028  15.287  1.00 15.75 LIG 0.16  HD
BRANCH 34 37
ATOM     37  CA  ARG D   2      17.178 -16.013  15.852  1.00 15.15 LIG 0.18  C 
BRANCH 37 38
ATOM     38  N   ARG D   2      18.196 -14.958  15.823  1.00 15.89 LIG-0.35  N 
ATOM     39  C   ALA D   1      18.954 -14.613  16.866  1.00 16.91 LIG 0.25  C 
ATOM     40 O    ALA D   1      18.792 -15.063  18.007  1.00 17.32 LIG-0.27  OA
ATOM     41 H    ARG D   2      18.262 -14.573  15.056  1.00 15.89 LIG 0.16  HD
BRANCH 39 42
ATOM     42  CA  ALA D   1      20.058 -13.592  16.583  1.00 17.08 LIG 0.27  C 
ATOM     43  CB  ALA D   1      21.449 -14.188  16.895  1.00 17.48 LIG 0.05  C 
BRANCH 42 44
ATOM     44  N   ALA D   1      19.843 -12.340  17.366  1.00 17.36 LIG-0.07  N 
ATOM     45 H3   ALA D   1      19.036 -12.359  17.741  1.00 17.36 LIG 0.28  HD
ATOM     46 H2   ALA D   1      19.901 -11.637  16.823  1.00 17.36 LIG 0.28  HD
ATOM     47 H1   ALA D   1      20.463 -12.276  18.001  1.00 17.36 LIG 0.28  HD
ENDBRANCH 42 44
ENDBRANCH 39 42
ENDBRANCH 37 38
BRANCH 37 48
ATOM     48  CB  ARG D   2      16.464 -16.039  14.492  1.00 15.08 LIG 0.04  C 
BRANCH 48 49
ATOM     49  CG  ARG D   2      15.865 -17.366  14.047  1.00 14.63 LIG 0.02  C 
BRANCH 49 50
ATOM     50  CD  ARG D   2      14.728 -17.788  14.986  1.00 13.91 LIG 0.14  C 
BRANCH 50 51
ATOM     51  NE  ARG D   2      14.053 -19.003  14.528  1.00 10.79 LIG-0.23  N 
ATOM     52 HE   ARG D   2      14.434 -19.465  13.910  1.00 10.79 LIG 0.18  HD
ATOM     53  CZ  ARG D   2      12.888 -19.442  15.004  1.00 10.30 LIG 0.67  C 
ATOM     54  NH2 ARG D   2      12.257 -18.775  15.970  1.00  9.50 LIG-0.23  N 
ATOM     55  NH1 ARG D   2      12.352 -20.548  14.509  1.00  9.44 LIG-0.23  N 
ATOM     56 22HH ARG D   2      11.506 -19.064  16.272  1.00  9.50 LIG 0.17  HD
ATOM     57 21HH ARG D   2      12.601 -18.056  16.292  1.00  9.50 LIG 0.17  HD
ATOM     58 11HH ARG D   2      12.755 -20.980  13.885  1.00  9.44 LIG 0.17  HD
ATOM     59 12HH ARG D   2      11.600 -20.835  14.814  1.00  9.44 LIG 0.17  HD
ENDBRANCH 50 51
ENDBRANCH 49 50
ENDBRANCH 48 49
ENDBRANCH 37 48
ENDBRANCH 34 37
ENDBRANCH 1 33
TORSDOF 24
ENDMDL
MODEL 17
USER: ADFR SOLUTION from run 136
USER: SCORE 19.728731 LL:  -4.341 LR: -16.435 RR:   0.000 FEB:  -9.276
USER: RMSD 7.499769
USER: SEED 135
USER: STATUS no improvement in best 6 clusters for 5 generations
USER: GENES 26
USER: genes 0 Translation |==|  0.46577 0.50398 0.62435
USER: genes 1 Rotation |==|  0.19904 0.42800 0.74154 0.80967
USER: genes 2 Torsion [N]-CA--C-[N] |==|  0.17919
USER: genes 3 Torsion [C]-N--CA-[C] |==|  0.16210
USER: genes 4 Torsion [N]-CA--C-[N] |==|  0.10088
USER: genes 5 Torsion [C]-N--CA-[C] |==|  0.81123
USER: genes 6 Torsion [N]-CA--C-[O] |==|  0.16804
USER: genes 7 Torsion [N]-CA--CB-[CG] |==|  0.73332
USER: genes 8 Torsion [CA]-CB--CG-[CD] |==|  0.17531
USER: genes 9 Torsion [CB]-CG--CD-[OE1] |==|  0.74878
USER: genes 10 Torsion [N]-CA--CB-[CG] |==|  0.71249
USER: genes 11 Torsion [CA]-CB--CG-[CD] |==|  0.86294
USER: genes 12 Torsion [CB]-CG--CD-[CE] |==|  0.48959
USER: genes 13 Torsion [CG]-CD--CE-[NZ] |==|  0.80680
USER: genes 14 Torsion [CD]-CE--NZ-[HZ3] |==|  0.91678
USER: genes 15 Torsion [C]-CA--CB-[CG2] |==|  0.43854
USER: genes 16 Torsion [CA]-CB--OG1-[HG1] |==|  0.19449
USER: genes 17 Torsion [C]-CA--N-[C] |==|  0.72778
USER: genes 18 Torsion [N]-C--CA-[N] |==|  0.65965
USER: genes 19 Torsion [C]-CA--N-[C] |==|  0.14829
USER: genes 20 Torsion [N]-C--CA-[N] |==|  0.23008
USER: genes 21 Torsion [C]-CA--N-[H1] |==|  0.26233
USER: genes 22 Torsion [C]-CA--CB-[CG] |==|  0.47213
USER: genes 23 Torsion [CA]-CB--CG-[CD] |==|  0.23778
USER: genes 24 Torsion [CB]-CG--CD-[NE] |==|  0.70597
USER: genes 25 Torsion [CG]-CD--NE-[HE] |==|  0.08785
ROOT
ATOM      1  CA  THR D   3      16.973 -16.721  20.241  1.00 16.13 LIG 0.20  C 
ENDROOT
BRANCH 1 2
ATOM      2  C   THR D   3      17.999 -17.829  19.957  1.00 16.95 LIG 0.24  C 
ATOM      3 O    THR D   3      17.618 -18.949  19.601  1.00 16.12 LIG-0.27  OA
ATOM      4  N   LYS D   4      19.284 -17.502  20.120  1.00 18.15 LIG-0.35  N 
ATOM      5 H    LYS D   4      19.537 -16.707  20.329  1.00 18.15 LIG 0.16  HD
BRANCH 4 6
ATOM      6  CA  LYS D   4      20.403 -18.445  19.965  1.00 19.65 LIG 0.18  C 
BRANCH 6 7
ATOM      7  C   LYS D   4      20.382 -19.033  18.569  1.00 20.62 LIG 0.24  C 
ATOM      8  N   GLN D   5      20.006 -18.220  17.586  1.00 21.55 LIG-0.35  N 
ATOM      9 H    GLN D   5      19.783 -17.398  17.700  1.00 21.55 LIG 0.16  HD
ATOM     10 O    LYS D   4      20.715 -20.208  18.385  1.00 20.86 LIG-0.27  OA
BRANCH 8 11
ATOM     11  CA  GLN D   5      19.945 -18.681  16.193  1.00 22.83 LIG 0.16  C 
BRANCH 11 12
ATOM     12  C   GLN D   5      21.330 -18.981  15.622  1.00 22.91 LIG 0.22  C 
ATOM     13 O    GLN D   5      22.055 -19.840  16.127  1.00 23.29 LIG-0.29  OA
ENDBRANCH 11 12
BRANCH 11 14
ATOM     14  CB  GLN D   5      19.210 -17.670  15.310  1.00 22.86 LIG 0.04  C 
BRANCH 14 15
ATOM     15  CG  GLN D   5      17.738 -17.972  15.093  1.00 24.40 LIG 0.10  C 
BRANCH 15 16
ATOM     16  CD  GLN D   5      16.926 -17.936  16.374  1.00 24.21 LIG 0.21  C 
ATOM     17  NE2 GLN D   5      16.397 -16.756  16.706  1.00 25.13 LIG-0.37  N 
ATOM     18 22HE GLN D   5      15.924 -16.684  17.420  1.00 25.13 LIG 0.16  HD
ATOM     19 21HE GLN D   5      16.528 -16.070  16.204  1.00 25.13 LIG 0.16  HD
ATOM     20 OE1  GLN D   5      16.769 -18.954  17.058  1.00 25.71 LIG-0.27  OA
ENDBRANCH 15 16
ENDBRANCH 14 15
ENDBRANCH 11 14
ENDBRANCH 8 11
ENDBRANCH 6 7
BRANCH 6 21
ATOM     21  CB  LYS D   4      20.279 -19.610  20.951  1.00 19.73 LIG 0.04  C 
BRANCH 21 22
ATOM     22  CG  LYS D   4      21.188 -19.558  22.148  1.00 20.49 LIG 0.00  C 
BRANCH 22 23
ATOM     23  CD  LYS D   4      22.613 -19.282  21.695  1.00 20.73 LIG 0.03  C 
BRANCH 23 24
ATOM     24  CE  LYS D   4      23.532 -19.133  22.883  1.00 20.46 LIG 0.23  C 
BRANCH 24 25
ATOM     25  NZ  LYS D   4      23.250 -17.884  23.629  1.00 20.02 LIG-0.08  N 
ATOM     26 HZ3  LYS D   4      22.940 -17.266  23.068  1.00 20.02 LIG 0.27  HD
ATOM     27 HZ1  LYS D   4      22.642 -18.045  24.258  1.00 20.02 LIG 0.27  HD
ATOM     28 HZ2  LYS D   4      23.999 -17.590  24.010  1.00 20.02 LIG 0.27  HD
ENDBRANCH 24 25
ENDBRANCH 23 24
ENDBRANCH 22 23
ENDBRANCH 21 22
ENDBRANCH 6 21
ENDBRANCH 4 6
ENDBRANCH 1 2
BRANCH 1 29
ATOM     29  CB  THR D   3      15.551 -17.314  20.268  1.00 15.86 LIG 0.15  C 
ATOM     30  CG2 THR D   3      14.606 -16.412  21.056  1.00 16.15 LIG 0.04  C 
BRANCH 29 31
ATOM     31 OG1  THR D   3      15.060 -17.445  18.928  1.00 16.19 LIG-0.39  OA
ATOM     32 HG1  THR D   3      15.481 -18.055  18.533  1.00 16.19 LIG 0.21  HD
ENDBRANCH 29 31
ENDBRANCH 1 29
BRANCH 1 33
ATOM     33  N   THR D   3      17.058 -15.573  19.324  1.00 15.75 LIG-0.34  N 
ATOM     34  C   ARG D   2      17.708 -14.454  19.649  1.00 15.31 LIG 0.24  C 
ATOM     35 O    ARG D   2      18.328 -14.321  20.702  1.00 15.17 LIG-0.27  OA
ATOM     36 H    THR D   3      16.656 -15.691  18.573  1.00 15.75 LIG 0.16  HD
BRANCH 34 37
ATOM     37  CA  ARG D   2      17.639 -13.306  18.642  1.00 15.15 LIG 0.18  C 
BRANCH 37 38
ATOM     38  N   ARG D   2      18.966 -12.871  18.195  1.00 15.89 LIG-0.35  N 
ATOM     39  C   ALA D   1      19.895 -13.684  17.688  1.00 16.91 LIG 0.25  C 
ATOM     40 O    ALA D   1      19.780 -14.916  17.655  1.00 17.32 LIG-0.27  OA
ATOM     41 H    ARG D   2      19.095 -12.026  18.292  1.00 15.89 LIG 0.16  HD
BRANCH 39 42
ATOM     42  CA  ALA D   1      21.154 -13.006  17.144  1.00 17.08 LIG 0.27  C 
ATOM     43  CB  ALA D   1      21.821 -13.879  16.057  1.00 17.48 LIG 0.05  C 
BRANCH 42 44
ATOM     44  N   ALA D   1      22.121 -12.715  18.242  1.00 17.36 LIG-0.07  N 
ATOM     45 H3   ALA D   1      21.682 -12.635  19.012  1.00 17.36 LIG 0.28  HD
ATOM     46 H2   ALA D   1      22.551 -11.956  18.066  1.00 17.36 LIG 0.28  HD
ATOM     47 H1   ALA D   1      22.710 -13.380  18.304  1.00 17.36 LIG 0.28  HD
ENDBRANCH 42 44
ENDBRANCH 39 42
ENDBRANCH 37 38
BRANCH 37 48
ATOM     48  CB  ARG D   2      16.831 -13.747  17.413  1.00 15.08 LIG 0.04  C 
BRANCH 48 49
ATOM     49  CG  ARG D   2      16.452 -12.669  16.406  1.00 14.63 LIG 0.02  C 
BRANCH 49 50
ATOM     50  CD  ARG D   2      17.586 -12.451  15.396  1.00 13.91 LIG 0.14  C 
BRANCH 50 51
ATOM     51  NE  ARG D   2      18.311 -11.204  15.639  1.00 10.79 LIG-0.23  N 
ATOM     52 HE   ARG D   2      18.377 -10.929  16.452  1.00 10.79 LIG 0.18  HD
ATOM     53  CZ  ARG D   2      18.878 -10.465  14.685  1.00 10.30 LIG 0.67  C 
ATOM     54  NH2 ARG D   2      18.821 -10.846  13.409  1.00  9.50 LIG-0.23  N 
ATOM     55  NH1 ARG D   2      19.500  -9.340  15.009  1.00  9.44 LIG-0.23  N 
ATOM     56 22HH ARG D   2      19.188 -10.364  12.800  1.00  9.50 LIG 0.17  HD
ATOM     57 21HH ARG D   2      18.416 -11.575  13.196  1.00  9.50 LIG 0.17  HD
ATOM     58 11HH ARG D   2      19.537  -9.091  15.831  1.00  9.44 LIG 0.17  HD
ATOM     59 12HH ARG D   2      19.867  -8.860  14.396  1.00  9.44 LIG 0.17  HD
ENDBRANCH 50 51
ENDBRANCH 49 50
ENDBRANCH 48 49
ENDBRANCH 37 48
ENDBRANCH 34 37
ENDBRANCH 1 33
TORSDOF 24
ENDMDL
MODEL 18
USER: ADFR SOLUTION from run 98
USER: SCORE 17.966843 LL:  -2.919 LR: -16.433 RR:   0.000 FEB:  -9.274
USER: RMSD 8.759310
USER: SEED 97
USER: STATUS no improvement in best 5 clusters for 5 generations
USER: GENES 26
USER: genes 0 Translation |==|  0.44741 0.50587 0.58162
USER: genes 1 Rotation |==|  0.20799 0.44674 0.87565 0.64417
USER: genes 2 Torsion [N]-CA--C-[N] |==|  0.87577
USER: genes 3 Torsion [C]-N--CA-[C] |==|  0.20493
USER: genes 4 Torsion [N]-CA--C-[N] |==|  0.82781
USER: genes 5 Torsion [C]-N--CA-[C] |==|  0.64067
USER: genes 6 Torsion [N]-CA--C-[O] |==|  0.82768
USER: genes 7 Torsion [N]-CA--CB-[CG] |==|  0.44985
USER: genes 8 Torsion [CA]-CB--CG-[CD] |==|  0.58840
USER: genes 9 Torsion [CB]-CG--CD-[OE1] |==|  0.26950
USER: genes 10 Torsion [N]-CA--CB-[CG] |==|  0.86507
USER: genes 11 Torsion [CA]-CB--CG-[CD] |==|  0.35547
USER: genes 12 Torsion [CB]-CG--CD-[CE] |==|  0.40052
USER: genes 13 Torsion [CG]-CD--CE-[NZ] |==|  0.47535
USER: genes 14 Torsion [CD]-CE--NZ-[HZ3] |==|  0.33366
USER: genes 15 Torsion [C]-CA--CB-[CG2] |==|  0.03047
USER: genes 16 Torsion [CA]-CB--OG1-[HG1] |==|  0.53738
USER: genes 17 Torsion [C]-CA--N-[C] |==|  0.19948
USER: genes 18 Torsion [N]-C--CA-[N] |==|  0.37521
USER: genes 19 Torsion [C]-CA--N-[C] |==|  0.85548
USER: genes 20 Torsion [N]-C--CA-[N] |==|  0.97422
USER: genes 21 Torsion [C]-CA--N-[H1] |==|  0.22780
USER: genes 22 Torsion [C]-CA--CB-[CG] |==|  0.82830
USER: genes 23 Torsion [CA]-CB--CG-[CD] |==|  0.74221
USER: genes 24 Torsion [CB]-CG--CD-[NE] |==|  0.43487
USER: genes 25 Torsion [CG]-CD--NE-[HE] |==|  0.75196
ROOT
ATOM      1  CA  THR D   3      16.422 -16.664  18.959  1.00 16.13 LIG 0.20  C 
ENDROOT
BRANCH 1 2
ATOM      2  C   THR D   3      17.875 -17.086  18.691  1.00 16.95 LIG 0.24  C 
ATOM      3 O    THR D   3      18.789 -16.643  19.393  1.00 16.12 LIG-0.27  OA
ATOM      4  N   LYS D   4      18.067 -17.936  17.678  1.00 18.15 LIG-0.35  N 
ATOM      5 H    LYS D   4      17.418 -18.269  17.222  1.00 18.15 LIG 0.16  HD
BRANCH 4 6
ATOM      6  CA  LYS D   4      19.389 -18.398  17.226  1.00 19.65 LIG 0.18  C 
BRANCH 6 7
ATOM      7  C   LYS D   4      19.949 -19.390  18.223  1.00 20.62 LIG 0.24  C 
ATOM      8  N   GLN D   5      20.164 -18.939  19.456  1.00 21.55 LIG-0.35  N 
ATOM      9 H    GLN D   5      20.004 -18.133  19.708  1.00 21.55 LIG 0.16  HD
ATOM     10 O    LYS D   4      20.170 -20.556  17.882  1.00 20.86 LIG-0.27  OA
BRANCH 8 11
ATOM     11  CA  GLN D   5      20.708 -19.810  20.506  1.00 22.83 LIG 0.16  C 
BRANCH 11 12
ATOM     12  C   GLN D   5      19.875 -19.763  21.785  1.00 22.91 LIG 0.22  C 
ATOM     13 O    GLN D   5      19.742 -18.715  22.420  1.00 23.29 LIG-0.29  OA
ENDBRANCH 11 12
BRANCH 11 14
ATOM     14  CB  GLN D   5      22.169 -19.465  20.806  1.00 22.86 LIG 0.04  C 
BRANCH 14 15
ATOM     15  CG  GLN D   5      22.682 -19.992  22.135  1.00 24.40 LIG 0.10  C 
BRANCH 15 16
ATOM     16  CD  GLN D   5      23.730 -19.096  22.768  1.00 24.21 LIG 0.21  C 
ATOM     17  NE2 GLN D   5      24.981 -19.247  22.330  1.00 25.13 LIG-0.37  N 
ATOM     18 22HE GLN D   5      25.611 -18.760  22.653  1.00 25.13 LIG 0.16  HD
ATOM     19 21HE GLN D   5      25.156 -19.832  21.723  1.00 25.13 LIG 0.16  HD
ATOM     20 OE1  GLN D   5      23.421 -18.271  23.636  1.00 25.71 LIG-0.27  OA
ENDBRANCH 15 16
ENDBRANCH 14 15
ENDBRANCH 11 14
ENDBRANCH 8 11
ENDBRANCH 6 7
BRANCH 6 21
ATOM     21  CB  LYS D   4      20.378 -17.232  17.140  1.00 19.73 LIG 0.04  C 
BRANCH 21 22
ATOM     22  CG  LYS D   4      19.891 -16.008  16.415  1.00 20.49 LIG 0.00  C 
BRANCH 22 23
ATOM     23  CD  LYS D   4      20.094 -14.782  17.291  1.00 20.73 LIG 0.03  C 
BRANCH 23 24
ATOM     24  CE  LYS D   4      20.470 -13.584  16.454  1.00 20.46 LIG 0.23  C 
BRANCH 24 25
ATOM     25  NZ  LYS D   4      20.465 -12.340  17.260  1.00 20.02 LIG-0.08  N 
ATOM     26 HZ3  LYS D   4      21.276 -11.973  17.247  1.00 20.02 LIG 0.27  HD
ATOM     27 HZ1  LYS D   4      19.875 -11.768  16.919  1.00 20.02 LIG 0.27  HD
ATOM     28 HZ2  LYS D   4      20.240 -12.532  18.100  1.00 20.02 LIG 0.27  HD
ENDBRANCH 24 25
ENDBRANCH 23 24
ENDBRANCH 22 23
ENDBRANCH 21 22
ENDBRANCH 6 21
ENDBRANCH 4 6
ENDBRANCH 1 2
BRANCH 1 29
ATOM     29  CB  THR D   3      15.702 -17.750  19.782  1.00 15.86 LIG 0.15  C 
ATOM     30  CG2 THR D   3      16.701 -18.775  20.311  1.00 16.15 LIG 0.04  C 
BRANCH 29 31
ATOM     31 OG1  THR D   3      15.026 -17.143  20.890  1.00 16.19 LIG-0.39  OA
ATOM     32 HG1  THR D   3      14.792 -17.738  21.435  1.00 16.19 LIG 0.21  HD
ENDBRANCH 29 31
ENDBRANCH 1 29
BRANCH 1 33
ATOM     33  N   THR D   3      15.663 -16.317  17.747  1.00 15.75 LIG-0.34  N 
ATOM     34  C   ARG D   2      15.266 -17.241  16.872  1.00 15.31 LIG 0.24  C 
ATOM     35 O    ARG D   2      15.452 -18.445  17.037  1.00 15.17 LIG-0.27  OA
ATOM     36 H    THR D   3      15.502 -15.476  17.661  1.00 15.75 LIG 0.16  HD
BRANCH 34 37
ATOM     37  CA  ARG D   2      14.567 -16.734  15.610  1.00 15.15 LIG 0.18  C 
BRANCH 37 38
ATOM     38  N   ARG D   2      15.056 -17.391  14.394  1.00 15.89 LIG-0.35  N 
ATOM     39  C   ALA D   1      16.343 -17.483  14.053  1.00 16.91 LIG 0.25  C 
ATOM     40 O    ALA D   1      17.255 -16.913  14.665  1.00 17.32 LIG-0.27  OA
ATOM     41 H    ARG D   2      14.425 -17.720  13.911  1.00 15.89 LIG 0.16  HD
BRANCH 39 42
ATOM     42  CA  ALA D   1      16.650 -18.340  12.824  1.00 17.08 LIG 0.27  C 
ATOM     43  CB  ALA D   1      17.198 -17.469  11.671  1.00 17.48 LIG 0.05  C 
BRANCH 42 44
ATOM     44  N   ALA D   1      15.439 -19.090  12.377  1.00 17.36 LIG-0.07  N 
ATOM     45 H3   ALA D   1      14.981 -19.364  13.090  1.00 17.36 LIG 0.28  HD
ATOM     46 H2   ALA D   1      15.688 -19.795  11.895  1.00 17.36 LIG 0.28  HD
ATOM     47 H1   ALA D   1      14.926 -18.558  11.881  1.00 17.36 LIG 0.28  HD
ENDBRANCH 42 44
ENDBRANCH 39 42
ENDBRANCH 37 38
BRANCH 37 48
ATOM     48  CB  ARG D   2      13.056 -16.982  15.725  1.00 15.08 LIG 0.04  C 
BRANCH 48 49
ATOM     49  CG  ARG D   2      12.596 -18.428  15.846  1.00 14.63 LIG 0.02  C 
BRANCH 49 50
ATOM     50  CD  ARG D   2      12.272 -19.011  14.464  1.00 13.91 LIG 0.14  C 
BRANCH 50 51
ATOM     51  NE  ARG D   2      12.363 -20.470  14.443  1.00 10.79 LIG-0.23  N 
ATOM     52 HE   ARG D   2      13.125 -20.823  14.255  1.00 10.79 LIG 0.18  HD
ATOM     53  CZ  ARG D   2      11.344 -21.292  14.698  1.00 10.30 LIG 0.67  C 
ATOM     54  NH2 ARG D   2      10.143 -20.804  15.009  1.00  9.50 LIG-0.23  N 
ATOM     55  NH1 ARG D   2      11.527 -22.603  14.638  1.00  9.44 LIG-0.23  N 
ATOM     56 22HH ARG D   2       9.491 -21.340  15.171  1.00  9.50 LIG 0.17  HD
ATOM     57 21HH ARG D   2      10.021 -19.954  15.047  1.00  9.50 LIG 0.17  HD
ATOM     58 11HH ARG D   2      12.300 -22.921  14.436  1.00  9.44 LIG 0.17  HD
ATOM     59 12HH ARG D   2      10.872 -23.136  14.801  1.00  9.44 LIG 0.17  HD
ENDBRANCH 50 51
ENDBRANCH 49 50
ENDBRANCH 48 49
ENDBRANCH 37 48
ENDBRANCH 34 37
ENDBRANCH 1 33
TORSDOF 24
ENDMDL
MODEL 19
USER: ADFR SOLUTION from run 99
USER: SCORE 19.015999 LL:  -3.316 LR: -16.415 RR:   0.000 FEB:  -9.256
USER: RMSD 8.337447
USER: SEED 98
USER: STATUS no improvement in best 5 clusters for 5 generations
USER: GENES 26
USER: genes 0 Translation |==|  0.45053 0.50908 0.59846
USER: genes 1 Rotation |==|  0.23087 0.45742 0.70933 0.86323
USER: genes 2 Torsion [N]-CA--C-[N] |==|  0.02529
USER: genes 3 Torsion [C]-N--CA-[C] |==|  0.82997
USER: genes 4 Torsion [N]-CA--C-[N] |==|  0.93832
USER: genes 5 Torsion [C]-N--CA-[C] |==|  0.73973
USER: genes 6 Torsion [N]-CA--C-[O] |==|  0.36683
USER: genes 7 Torsion [N]-CA--CB-[CG] |==|  0.49292
USER: genes 8 Torsion [CA]-CB--CG-[CD] |==|  0.17663
USER: genes 9 Torsion [CB]-CG--CD-[OE1] |==|  0.30875
USER: genes 10 Torsion [N]-CA--CB-[CG] |==|  0.36980
USER: genes 11 Torsion [CA]-CB--CG-[CD] |==|  0.24764
USER: genes 12 Torsion [CB]-CG--CD-[CE] |==|  0.16475
USER: genes 13 Torsion [CG]-CD--CE-[NZ] |==|  0.39348
USER: genes 14 Torsion [CD]-CE--NZ-[HZ3] |==|  0.09573
USER: genes 15 Torsion [C]-CA--CB-[CG2] |==|  0.87043
USER: genes 16 Torsion [CA]-CB--OG1-[HG1] |==|  0.92301
USER: genes 17 Torsion [C]-CA--N-[C] |==|  0.69504
USER: genes 18 Torsion [N]-C--CA-[N] |==|  0.66092
USER: genes 19 Torsion [C]-CA--N-[C] |==|  0.12503
USER: genes 20 Torsion [N]-C--CA-[N] |==|  0.22245
USER: genes 21 Torsion [C]-CA--N-[H1] |==|  0.78066
USER: genes 22 Torsion [C]-CA--CB-[CG] |==|  0.57043
USER: genes 23 Torsion [CA]-CB--CG-[CD] |==|  0.79949
USER: genes 24 Torsion [CB]-CG--CD-[NE] |==|  0.50228
USER: genes 25 Torsion [CG]-CD--NE-[HE] |==|  0.32017
ROOT
ATOM      1  CA  THR D   3      16.516 -16.568  19.464  1.00 16.13 LIG 0.20  C 
ENDROOT
BRANCH 1 2
ATOM      2  C   THR D   3      17.223 -17.811  18.902  1.00 16.95 LIG 0.24  C 
ATOM      3 O    THR D   3      16.926 -18.934  19.319  1.00 16.12 LIG-0.27  OA
ATOM      4  N   LYS D   4      18.150 -17.591  17.964  1.00 18.15 LIG-0.35  N 
ATOM      5 H    LYS D   4      18.318 -16.807  17.654  1.00 18.15 LIG 0.16  HD
BRANCH 4 6
ATOM      6  CA  LYS D   4      18.980 -18.645  17.360  1.00 19.65 LIG 0.18  C 
BRANCH 6 7
ATOM      7  C   LYS D   4      19.815 -19.311  18.433  1.00 20.62 LIG 0.24  C 
ATOM      8  N   GLN D   5      20.029 -18.610  19.542  1.00 21.55 LIG-0.35  N 
ATOM      9 H    GLN D   5      19.724 -17.818  19.678  1.00 21.55 LIG 0.16  HD
ATOM     10 O    LYS D   4      20.250 -20.454  18.261  1.00 20.86 LIG-0.27  OA
BRANCH 8 11
ATOM     11  CA  GLN D   5      20.828 -19.153  20.649  1.00 22.83 LIG 0.16  C 
BRANCH 11 12
ATOM     12  C   GLN D   5      19.962 -19.840  21.704  1.00 22.91 LIG 0.22  C 
ATOM     13 O    GLN D   5      20.250 -20.957  22.135  1.00 23.29 LIG-0.29  OA
ENDBRANCH 11 12
BRANCH 11 14
ATOM     14  CB  GLN D   5      21.691 -18.065  21.291  1.00 22.86 LIG 0.04  C 
BRANCH 14 15
ATOM     15  CG  GLN D   5      22.506 -18.528  22.487  1.00 24.40 LIG 0.10  C 
BRANCH 15 16
ATOM     16  CD  GLN D   5      23.538 -19.583  22.133  1.00 24.21 LIG 0.21  C 
ATOM     17  NE2 GLN D   5      23.064 -20.778  21.776  1.00 25.13 LIG-0.37  N 
ATOM     18 22HE GLN D   5      23.608 -21.409  21.562  1.00 25.13 LIG 0.16  HD
ATOM     19 21HE GLN D   5      22.216 -20.917  21.760  1.00 25.13 LIG 0.16  HD
ATOM     20 OE1  GLN D   5      24.748 -19.328  22.173  1.00 25.71 LIG-0.27  OA
ENDBRANCH 15 16
ENDBRANCH 14 15
ENDBRANCH 11 14
ENDBRANCH 8 11
ENDBRANCH 6 7
BRANCH 6 21
ATOM     21  CB  LYS D   4      19.948 -18.058  16.329  1.00 19.73 LIG 0.04  C 
BRANCH 21 22
ATOM     22  CG  LYS D   4      21.375 -18.525  16.426  1.00 20.49 LIG 0.00  C 
BRANCH 22 23
ATOM     23  CD  LYS D   4      21.560 -19.778  15.584  1.00 20.73 LIG 0.03  C 
BRANCH 23 24
ATOM     24  CE  LYS D   4      21.220 -19.505  14.139  1.00 20.46 LIG 0.23  C 
BRANCH 24 25
ATOM     25  NZ  LYS D   4      22.146 -20.215  13.225  1.00 20.02 LIG-0.08  N 
ATOM     26 HZ3  LYS D   4      22.377 -20.996  13.583  1.00 20.02 LIG 0.27  HD
ATOM     27 HZ1  LYS D   4      21.743 -20.355  12.444  1.00 20.02 LIG 0.27  HD
ATOM     28 HZ2  LYS D   4      22.875 -19.720  13.098  1.00 20.02 LIG 0.27  HD
ENDBRANCH 24 25
ENDBRANCH 23 24
ENDBRANCH 22 23
ENDBRANCH 21 22
ENDBRANCH 6 21
ENDBRANCH 4 6
ENDBRANCH 1 2
BRANCH 1 29
ATOM     29  CB  THR D   3      14.998 -16.820  19.549  1.00 15.86 LIG 0.15  C 
ATOM     30  CG2 THR D   3      14.482 -17.440  18.253  1.00 16.15 LIG 0.04  C 
BRANCH 29 31
ATOM     31 OG1  THR D   3      14.719 -17.712  20.635  1.00 16.19 LIG-0.39  OA
ATOM     32 HG1  THR D   3      15.384 -18.207  20.769  1.00 16.19 LIG 0.21  HD
ENDBRANCH 29 31
ENDBRANCH 1 29
BRANCH 1 33
ATOM     33  N   THR D   3      16.813 -15.325  18.735  1.00 15.75 LIG-0.34  N 
ATOM     34  C   ARG D   2      17.555 -14.353  19.268  1.00 15.31 LIG 0.24  C 
ATOM     35 O    ARG D   2      18.091 -14.445  20.370  1.00 15.17 LIG-0.27  OA
ATOM     36 H    THR D   3      16.468 -15.286  17.948  1.00 15.75 LIG 0.16  HD
BRANCH 34 37
ATOM     37  CA  ARG D   2      17.708 -13.077  18.439  1.00 15.15 LIG 0.18  C 
BRANCH 37 38
ATOM     38  N   ARG D   2      19.111 -12.761  18.148  1.00 15.89 LIG-0.35  N 
ATOM     39  C   ALA D   1      20.014 -13.653  17.737  1.00 16.91 LIG 0.25  C 
ATOM     40 O    ALA D   1      19.795 -14.870  17.676  1.00 17.32 LIG-0.27  OA
ATOM     41 H    ARG D   2      19.302 -11.931  18.269  1.00 15.89 LIG 0.16  HD
BRANCH 39 42
ATOM     42  CA  ALA D   1      21.381 -13.090  17.346  1.00 17.08 LIG 0.27  C 
ATOM     43  CB  ALA D   1      22.115 -14.049  16.382  1.00 17.48 LIG 0.05  C 
BRANCH 42 44
ATOM     44  N   ALA D   1      22.218 -12.827  18.553  1.00 17.36 LIG-0.07  N 
ATOM     45 H3   ALA D   1      23.074 -12.768  18.315  1.00 17.36 LIG 0.28  HD
ATOM     46 H2   ALA D   1      22.117 -13.493  19.135  1.00 17.36 LIG 0.28  HD
ATOM     47 H1   ALA D   1      21.963 -12.062  18.931  1.00 17.36 LIG 0.28  HD
ENDBRANCH 42 44
ENDBRANCH 39 42
ENDBRANCH 37 38
BRANCH 37 48
ATOM     48  CB  ARG D   2      16.958 -13.234  17.108  1.00 15.08 LIG 0.04  C 
BRANCH 48 49
ATOM     49  CG  ARG D   2      17.440 -12.393  15.934  1.00 14.63 LIG 0.02  C 
BRANCH 49 50
ATOM     50  CD  ARG D   2      17.067 -10.918  16.136  1.00 13.91 LIG 0.14  C 
BRANCH 50 51
ATOM     51  NE  ARG D   2      17.497 -10.081  15.017  1.00 10.79 LIG-0.23  N 
ATOM     52 HE   ARG D   2      16.889  -9.699  14.543  1.00 10.79 LIG 0.18  HD
ATOM     53  CZ  ARG D   2      18.770  -9.869  14.681  1.00 10.30 LIG 0.67  C 
ATOM     54  NH2 ARG D   2      19.757 -10.423  15.385  1.00  9.50 LIG-0.23  N 
ATOM     55  NH1 ARG D   2      19.055  -9.104  13.637  1.00  9.44 LIG-0.23  N 
ATOM     56 22HH ARG D   2      20.575 -10.283  15.162  1.00  9.50 LIG 0.17  HD
ATOM     57 21HH ARG D   2      19.575 -10.922  16.062  1.00  9.50 LIG 0.17  HD
ATOM     58 11HH ARG D   2      18.421  -8.746  13.180  1.00  9.44 LIG 0.17  HD
ATOM     59 12HH ARG D   2      19.875  -8.965  13.417  1.00  9.44 LIG 0.17  HD
ENDBRANCH 50 51
ENDBRANCH 49 50
ENDBRANCH 48 49
ENDBRANCH 37 48
ENDBRANCH 34 37
ENDBRANCH 1 33
TORSDOF 24
ENDMDL
MODEL 20
USER: ADFR SOLUTION from run 159
USER: SCORE 18.653399 LL:  -3.034 LR: -16.372 RR:   0.000 FEB:  -9.213
USER: RMSD 7.969265
USER: SEED 158
USER: STATUS no improvement in best 7 clusters for 5 generations
USER: GENES 26
USER: genes 0 Translation |==|  0.51310 0.56553 0.60923
USER: genes 1 Rotation |==|  0.19500 0.62671 0.74776 0.78202
USER: genes 2 Torsion [N]-CA--C-[N] |==|  0.25788
USER: genes 3 Torsion [C]-N--CA-[C] |==|  0.17317
USER: genes 4 Torsion [N]-CA--C-[N] |==|  0.07273
USER: genes 5 Torsion [C]-N--CA-[C] |==|  0.82730
USER: genes 6 Torsion [N]-CA--C-[O] |==|  0.00374
USER: genes 7 Torsion [N]-CA--CB-[CG] |==|  0.27078
USER: genes 8 Torsion [CA]-CB--CG-[CD] |==|  0.84901
USER: genes 9 Torsion [CB]-CG--CD-[OE1] |==|  0.85128
USER: genes 10 Torsion [N]-CA--CB-[CG] |==|  0.66198
USER: genes 11 Torsion [CA]-CB--CG-[CD] |==|  0.94197
USER: genes 12 Torsion [CB]-CG--CD-[CE] |==|  0.42151
USER: genes 13 Torsion [CG]-CD--CE-[NZ] |==|  0.85118
USER: genes 14 Torsion [CD]-CE--NZ-[HZ3] |==|  0.87329
USER: genes 15 Torsion [C]-CA--CB-[CG2] |==|  0.47403
USER: genes 16 Torsion [CA]-CB--OG1-[HG1] |==|  0.14464
USER: genes 17 Torsion [C]-CA--N-[C] |==|  0.77028
USER: genes 18 Torsion [N]-C--CA-[N] |==|  0.15298
USER: genes 19 Torsion [C]-CA--N-[C] |==|  0.77749
USER: genes 20 Torsion [N]-C--CA-[N] |==|  0.90619
USER: genes 21 Torsion [C]-CA--N-[H1] |==|  0.92964
USER: genes 22 Torsion [C]-CA--CB-[CG] |==|  0.42043
USER: genes 23 Torsion [CA]-CB--CG-[CD] |==|  0.23646
USER: genes 24 Torsion [CB]-CG--CD-[NE] |==|  0.02306
USER: genes 25 Torsion [CG]-CD--NE-[HE] |==|  0.97498
ROOT
ATOM      1  CA  THR D   3      18.393 -14.874  19.787  1.00 16.13 LIG 0.20  C 
ENDROOT
BRANCH 1 2
ATOM      2  C   THR D   3      18.763 -16.366  19.793  1.00 16.95 LIG 0.24  C 
ATOM      3 O    THR D   3      17.878 -17.224  19.724  1.00 16.12 LIG-0.27  OA
ATOM      4  N   LYS D   4      20.066 -16.651  19.875  1.00 18.15 LIG-0.35  N 
ATOM      5 H    LYS D   4      20.674 -16.044  19.881  1.00 18.15 LIG 0.16  HD
BRANCH 4 6
ATOM      6  CA  LYS D   4      20.608 -18.017  19.964  1.00 19.65 LIG 0.18  C 
BRANCH 6 7
ATOM      7  C   LYS D   4      20.248 -18.789  18.713  1.00 20.62 LIG 0.24  C 
ATOM      8  N   GLN D   5      20.043 -18.075  17.610  1.00 21.55 LIG-0.35  N 
ATOM      9 H    GLN D   5      20.105 -17.218  17.573  1.00 21.55 LIG 0.16  HD
ATOM     10 O    LYS D   4      20.169 -20.021  18.745  1.00 20.86 LIG-0.27  OA
BRANCH 8 11
ATOM     11  CA  GLN D   5      19.685 -18.716  16.338  1.00 22.83 LIG 0.16  C 
BRANCH 11 12
ATOM     12  C   GLN D   5      20.777 -19.660  15.840  1.00 22.91 LIG 0.22  C 
ATOM     13 O    GLN D   5      21.808 -19.842  16.490  1.00 23.29 LIG-0.29  OA
ENDBRANCH 11 12
BRANCH 11 14
ATOM     14  CB  GLN D   5      19.352 -17.672  15.269  1.00 22.86 LIG 0.04  C 
BRANCH 14 15
ATOM     15  CG  GLN D   5      20.498 -17.346  14.327  1.00 24.40 LIG 0.10  C 
BRANCH 15 16
ATOM     16  CD  GLN D   5      21.763 -16.923  15.049  1.00 24.21 LIG 0.21  C 
ATOM     17  NE2 GLN D   5      22.875 -17.590  14.733  1.00 25.13 LIG-0.37  N 
ATOM     18 22HE GLN D   5      23.620 -17.386  15.110  1.00 25.13 LIG 0.16  HD
ATOM     19 21HE GLN D   5      22.847 -18.223  14.151  1.00 25.13 LIG 0.16  HD
ATOM     20 OE1  GLN D   5      21.748 -16.004  15.877  1.00 25.71 LIG-0.27  OA
ENDBRANCH 15 16
ENDBRANCH 14 15
ENDBRANCH 11 14
ENDBRANCH 8 11
ENDBRANCH 6 7
BRANCH 6 21
ATOM     21  CB  LYS D   4      20.005 -18.770  21.153  1.00 19.73 LIG 0.04  C 
BRANCH 21 22
ATOM     22  CG  LYS D   4      20.985 -19.284  22.172  1.00 20.49 LIG 0.00  C 
BRANCH 22 23
ATOM     23  CD  LYS D   4      22.366 -19.387  21.545  1.00 20.73 LIG 0.03  C 
BRANCH 23 24
ATOM     24  CE  LYS D   4      23.441 -19.217  22.590  1.00 20.46 LIG 0.23  C 
BRANCH 24 25
ATOM     25  NZ  LYS D   4      23.250 -17.965  23.361  1.00 20.02 LIG-0.08  N 
ATOM     26 HZ3  LYS D   4      23.072 -17.296  22.802  1.00 20.02 LIG 0.27  HD
ATOM     27 HZ1  LYS D   4      22.572 -18.066  23.927  1.00 20.02 LIG 0.27  HD
ATOM     28 HZ2  LYS D   4      23.992 -17.781  23.817  1.00 20.02 LIG 0.27  HD
ENDBRANCH 24 25
ENDBRANCH 23 24
ENDBRANCH 22 23
ENDBRANCH 21 22
ENDBRANCH 6 21
ENDBRANCH 4 6
ENDBRANCH 1 2
BRANCH 1 29
ATOM     29  CB  THR D   3      17.115 -14.646  20.616  1.00 15.86 LIG 0.15  C 
ATOM     30  CG2 THR D   3      16.860 -13.155  20.815  1.00 16.15 LIG 0.04  C 
BRANCH 29 31
ATOM     31 OG1  THR D   3      15.992 -15.224  19.938  1.00 16.19 LIG-0.39  OA
ATOM     32 HG1  THR D   3      16.163 -16.023  19.743  1.00 16.19 LIG 0.21  HD
ENDBRANCH 29 31
ENDBRANCH 1 29
BRANCH 1 33
ATOM     33  N   THR D   3      18.272 -14.289  18.443  1.00 15.75 LIG-0.34  N 
ATOM     34  C   ARG D   2      19.334 -13.865  17.757  1.00 15.31 LIG 0.24  C 
ATOM     35 O    ARG D   2      20.487 -13.982  18.166  1.00 15.17 LIG-0.27  OA
ATOM     36 H    THR D   3      17.465 -14.248  18.147  1.00 15.75 LIG 0.16  HD
BRANCH 34 37
ATOM     37  CA  ARG D   2      19.057 -13.192  16.412  1.00 15.15 LIG 0.18  C 
BRANCH 37 38
ATOM     38  N   ARG D   2      18.126 -12.065  16.530  1.00 15.89 LIG-0.35  N 
ATOM     39  C   ALA D   1      16.800 -12.187  16.613  1.00 16.91 LIG 0.25  C 
ATOM     40 O    ALA D   1      16.203 -13.263  16.474  1.00 17.32 LIG-0.27  OA
ATOM     41 H    ARG D   2      18.522 -11.301  16.541  1.00 15.89 LIG 0.16  HD
BRANCH 39 42
ATOM     42  CA  ALA D   1      16.024 -10.897  16.882  1.00 17.08 LIG 0.27  C 
ATOM     43  CB  ALA D   1      15.652 -10.195  15.557  1.00 17.48 LIG 0.05  C 
BRANCH 42 44
ATOM     44  N   ALA D   1      16.806  -9.974  17.756  1.00 17.36 LIG-0.07  N 
ATOM     45 H3   ALA D   1      16.250  -9.530  18.292  1.00 17.36 LIG 0.28  HD
ATOM     46 H2   ALA D   1      17.256  -9.397  17.251  1.00 17.36 LIG 0.28  HD
ATOM     47 H1   ALA D   1      17.378 -10.445  18.250  1.00 17.36 LIG 0.28  HD
ENDBRANCH 42 44
ENDBRANCH 39 42
ENDBRANCH 37 38
BRANCH 37 48
ATOM     48  CB  ARG D   2      20.374 -12.678  15.813  1.00 15.08 LIG 0.04  C 
BRANCH 48 49
ATOM     49  CG  ARG D   2      20.464 -12.601  14.295  1.00 14.63 LIG 0.02  C 
BRANCH 49 50
ATOM     50  CD  ARG D   2      19.877 -11.278  13.785  1.00 13.91 LIG 0.14  C 
BRANCH 50 51
ATOM     51  NE  ARG D   2      19.563 -10.355  14.875  1.00 10.79 LIG-0.23  N 
ATOM     52 HE   ARG D   2      19.612 -10.653  15.681  1.00 10.79 LIG 0.18  HD
ATOM     53  CZ  ARG D   2      19.206  -9.082  14.704  1.00 10.30 LIG 0.67  C 
ATOM     54  NH2 ARG D   2      19.125  -8.560  13.480  1.00  9.50 LIG-0.23  N 
ATOM     55  NH1 ARG D   2      18.926  -8.331  15.760  1.00  9.44 LIG-0.23  N 
ATOM     56 22HH ARG D   2      18.893  -7.738  13.378  1.00  9.50 LIG 0.17  HD
ATOM     57 21HH ARG D   2      19.304  -9.045  12.793  1.00  9.50 LIG 0.17  HD
ATOM     58 11HH ARG D   2      18.975  -8.665  16.551  1.00  9.44 LIG 0.17  HD
ATOM     59 12HH ARG D   2      18.695  -7.509  15.654  1.00  9.44 LIG 0.17  HD
ENDBRANCH 50 51
ENDBRANCH 49 50
ENDBRANCH 48 49
ENDBRANCH 37 48
ENDBRANCH 34 37
ENDBRANCH 1 33
TORSDOF 24
ENDMDL
MODEL 21
USER: ADFR SOLUTION from run 97
USER: SCORE 18.910671 LL:  -3.092 LR: -16.354 RR:   0.000 FEB:  -9.195
USER: RMSD 8.513376
USER: SEED 96
USER: STATUS no improvement in best 6 clusters for 5 generations
USER: GENES 26
USER: genes 0 Translation |==|  0.45703 0.50951 0.59675
USER: genes 1 Rotation |==|  0.12878 0.51214 0.71034 0.76039
USER: genes 2 Torsion [N]-CA--C-[N] |==|  0.09502
USER: genes 3 Torsion [C]-N--CA-[C] |==|  0.74677
USER: genes 4 Torsion [N]-CA--C-[N] |==|  0.50448
USER: genes 5 Torsion [C]-N--CA-[C] |==|  0.81416
USER: genes 6 Torsion [N]-CA--C-[O] |==|  0.14626
USER: genes 7 Torsion [N]-CA--CB-[CG] |==|  0.33384
USER: genes 8 Torsion [CA]-CB--CG-[CD] |==|  0.61248
USER: genes 9 Torsion [CB]-CG--CD-[OE1] |==|  0.99634
USER: genes 10 Torsion [N]-CA--CB-[CG] |==|  0.79800
USER: genes 11 Torsion [CA]-CB--CG-[CD] |==|  0.40607
USER: genes 12 Torsion [CB]-CG--CD-[CE] |==|  0.22003
USER: genes 13 Torsion [CG]-CD--CE-[NZ] |==|  0.33231
USER: genes 14 Torsion [CD]-CE--NZ-[HZ3] |==|  0.63325
USER: genes 15 Torsion [C]-CA--CB-[CG2] |==|  0.25333
USER: genes 16 Torsion [CA]-CB--OG1-[HG1] |==|  0.16723
USER: genes 17 Torsion [C]-CA--N-[C] |==|  0.14444
USER: genes 18 Torsion [N]-C--CA-[N] |==|  0.05579
USER: genes 19 Torsion [C]-CA--N-[C] |==|  0.16715
USER: genes 20 Torsion [N]-C--CA-[N] |==|  0.23846
USER: genes 21 Torsion [C]-CA--N-[H1] |==|  0.70907
USER: genes 22 Torsion [C]-CA--CB-[CG] |==|  0.45996
USER: genes 23 Torsion [CA]-CB--CG-[CD] |==|  0.79077
USER: genes 24 Torsion [CB]-CG--CD-[NE] |==|  0.99584
USER: genes 25 Torsion [CG]-CD--NE-[HE] |==|  0.17608
ROOT
ATOM      1  CA  THR D   3      16.711 -16.555  19.413  1.00 16.13 LIG 0.20  C 
ENDROOT
BRANCH 1 2
ATOM      2  C   THR D   3      17.455 -17.867  19.704  1.00 16.95 LIG 0.24  C 
ATOM      3 O    THR D   3      16.903 -18.762  20.351  1.00 16.12 LIG-0.27  OA
ATOM      4  N   LYS D   4      18.698 -17.962  19.221  1.00 18.15 LIG-0.35  N 
ATOM      5 H    LYS D   4      19.055 -17.348  18.737  1.00 18.15 LIG 0.16  HD
BRANCH 4 6
ATOM      6  CA  LYS D   4      19.589 -19.109  19.456  1.00 19.65 LIG 0.18  C 
BRANCH 6 7
ATOM      7  C   LYS D   4      20.422 -18.859  20.696  1.00 20.62 LIG 0.24  C 
ATOM      8  N   GLN D   5      21.305 -19.800  21.020  1.00 21.55 LIG-0.35  N 
ATOM      9 H    GLN D   5      21.425 -20.523  20.571  1.00 21.55 LIG 0.16  HD
ATOM     10 O    LYS D   4      20.274 -17.819  21.345  1.00 20.86 LIG-0.27  OA
BRANCH 8 11
ATOM     11  CA  GLN D   5      22.165 -19.667  22.203  1.00 22.83 LIG 0.16  C 
BRANCH 11 12
ATOM     12  C   GLN D   5      23.172 -18.527  22.062  1.00 22.91 LIG 0.22  C 
ATOM     13 O    GLN D   5      22.807 -17.389  21.763  1.00 23.29 LIG-0.29  OA
ENDBRANCH 11 12
BRANCH 11 14
ATOM     14  CB  GLN D   5      22.886 -20.982  22.510  1.00 22.86 LIG 0.04  C 
BRANCH 14 15
ATOM     15  CG  GLN D   5      24.402 -20.892  22.484  1.00 24.40 LIG 0.10  C 
BRANCH 15 16
ATOM     16  CD  GLN D   5      25.061 -22.095  21.834  1.00 24.21 LIG 0.21  C 
ATOM     17  NE2 GLN D   5      26.393 -22.071  21.760  1.00 25.13 LIG-0.37  N 
ATOM     18 22HE GLN D   5      26.815 -22.731  21.405  1.00 25.13 LIG 0.16  HD
ATOM     19 21HE GLN D   5      26.829 -21.397  22.068  1.00 25.13 LIG 0.16  HD
ATOM     20 OE1  GLN D   5      24.384 -23.038  21.408  1.00 25.71 LIG-0.27  OA
ENDBRANCH 15 16
ENDBRANCH 14 15
ENDBRANCH 11 14
ENDBRANCH 8 11
ENDBRANCH 6 7
BRANCH 6 21
ATOM     21  CB  LYS D   4      20.560 -19.298  18.287  1.00 19.73 LIG 0.04  C 
BRANCH 21 22
ATOM     22  CG  LYS D   4      19.964 -19.844  17.019  1.00 20.49 LIG 0.00  C 
BRANCH 22 23
ATOM     23  CD  LYS D   4      20.678 -19.240  15.819  1.00 20.73 LIG 0.03  C 
BRANCH 23 24
ATOM     24  CE  LYS D   4      21.997 -19.932  15.579  1.00 20.46 LIG 0.23  C 
BRANCH 24 25
ATOM     25  NZ  LYS D   4      22.040 -20.560  14.238  1.00 20.02 LIG-0.08  N 
ATOM     26 HZ3  LYS D   4      22.337 -21.396  14.310  1.00 20.02 LIG 0.27  HD
ATOM     27 HZ1  LYS D   4      21.223 -20.566  13.886  1.00 20.02 LIG 0.27  HD
ATOM     28 HZ2  LYS D   4      22.587 -20.096  13.710  1.00 20.02 LIG 0.27  HD
ENDBRANCH 24 25
ENDBRANCH 23 24
ENDBRANCH 22 23
ENDBRANCH 21 22
ENDBRANCH 6 21
ENDBRANCH 4 6
ENDBRANCH 1 2
BRANCH 1 29
ATOM     29  CB  THR D   3      15.193 -16.764  19.574  1.00 15.86 LIG 0.15  C 
ATOM     30  CG2 THR D   3      14.754 -16.448  21.001  1.00 16.15 LIG 0.04  C 
BRANCH 29 31
ATOM     31 OG1  THR D   3      14.490 -15.903  18.669  1.00 16.19 LIG-0.39  OA
ATOM     32 HG1  THR D   3      14.712 -16.084  17.880  1.00 16.19 LIG 0.21  HD
ENDBRANCH 29 31
ENDBRANCH 1 29
BRANCH 1 33
ATOM     33  N   THR D   3      17.034 -15.955  18.109  1.00 15.75 LIG-0.34  N 
ATOM     34  C   ARG D   2      16.964 -16.651  16.973  1.00 15.31 LIG 0.24  C 
ATOM     35 O    ARG D   2      16.572 -17.815  16.923  1.00 15.17 LIG-0.27  OA
ATOM     36 H    THR D   3      17.268 -15.128  18.149  1.00 15.75 LIG 0.16  HD
BRANCH 34 37
ATOM     37  CA  ARG D   2      17.417 -15.933  15.701  1.00 15.15 LIG 0.18  C 
BRANCH 37 38
ATOM     38  N   ARG D   2      18.281 -14.782  15.984  1.00 15.89 LIG-0.35  N 
ATOM     39  C   ALA D   1      19.451 -14.857  16.621  1.00 16.91 LIG 0.25  C 
ATOM     40 O    ALA D   1      19.876 -15.891  17.152  1.00 17.32 LIG-0.27  OA
ATOM     41 H    ARG D   2      17.958 -14.039  15.696  1.00 15.89 LIG 0.16  HD
BRANCH 39 42
ATOM     42  CA  ALA D   1      20.264 -13.563  16.680  1.00 17.08 LIG 0.27  C 
ATOM     43  CB  ALA D   1      21.777 -13.868  16.751  1.00 17.48 LIG 0.05  C 
BRANCH 42 44
ATOM     44  N   ALA D   1      19.850 -12.722  17.842  1.00 17.36 LIG-0.07  N 
ATOM     45 H3   ALA D   1      20.574 -12.412  18.258  1.00 17.36 LIG 0.28  HD
ATOM     46 H2   ALA D   1      19.370 -13.214  18.408  1.00 17.36 LIG 0.28  HD
ATOM     47 H1   ALA D   1      19.358 -12.038  17.554  1.00 17.36 LIG 0.28  HD
ENDBRANCH 42 44
ENDBRANCH 39 42
ENDBRANCH 37 38
BRANCH 37 48
ATOM     48  CB  ARG D   2      18.188 -16.913  14.804  1.00 15.08 LIG 0.04  C 
BRANCH 48 49
ATOM     49  CG  ARG D   2      18.427 -16.493  13.360  1.00 14.63 LIG 0.02  C 
BRANCH 49 50
ATOM     50  CD  ARG D   2      17.140 -16.631  12.536  1.00 13.91 LIG 0.14  C 
BRANCH 50 51
ATOM     51  NE  ARG D   2      16.030 -17.159  13.329  1.00 10.79 LIG-0.23  N 
ATOM     52 HE   ARG D   2      15.750 -16.688  13.992  1.00 10.79 LIG 0.18  HD
ATOM     53  CZ  ARG D   2      15.423 -18.322  13.093  1.00 10.30 LIG 0.67  C 
ATOM     54  NH2 ARG D   2      15.804 -19.090  12.072  1.00  9.50 LIG-0.23  N 
ATOM     55  NH1 ARG D   2      14.434 -18.719  13.881  1.00  9.44 LIG-0.23  N 
ATOM     56 22HH ARG D   2      15.409 -19.839  11.926  1.00  9.50 LIG 0.17  HD
ATOM     57 21HH ARG D   2      16.447 -18.836  11.559  1.00  9.50 LIG 0.17  HD
ATOM     58 11HH ARG D   2      14.187 -18.227  14.541  1.00  9.44 LIG 0.17  HD
ATOM     59 12HH ARG D   2      14.040 -19.469  13.732  1.00  9.44 LIG 0.17  HD
ENDBRANCH 50 51
ENDBRANCH 49 50
ENDBRANCH 48 49
ENDBRANCH 37 48
ENDBRANCH 34 37
ENDBRANCH 1 33
TORSDOF 24
ENDMDL
MODEL 22
USER: ADFR SOLUTION from run 48
USER: SCORE 18.807036 LL:  -2.983 LR: -16.275 RR:   0.000 FEB:  -9.116
USER: RMSD 7.214821
USER: SEED 47
USER: STATUS 1 or 2 clusters left
USER: GENES 26
USER: genes 0 Translation |==|  0.53883 0.43264 0.61441
USER: genes 1 Rotation |==|  0.59467 0.80739 0.53019 0.88163
USER: genes 2 Torsion [N]-CA--C-[N] |==|  0.87223
USER: genes 3 Torsion [C]-N--CA-[C] |==|  0.79416
USER: genes 4 Torsion [N]-CA--C-[N] |==|  0.32598
USER: genes 5 Torsion [C]-N--CA-[C] |==|  0.18009
USER: genes 6 Torsion [N]-CA--C-[O] |==|  0.76725
USER: genes 7 Torsion [N]-CA--CB-[CG] |==|  0.81092
USER: genes 8 Torsion [CA]-CB--CG-[CD] |==|  0.34410
USER: genes 9 Torsion [CB]-CG--CD-[OE1] |==|  0.99694
USER: genes 10 Torsion [N]-CA--CB-[CG] |==|  0.12900
USER: genes 11 Torsion [CA]-CB--CG-[CD] |==|  0.66358
USER: genes 12 Torsion [CB]-CG--CD-[CE] |==|  0.59384
USER: genes 13 Torsion [CG]-CD--CE-[NZ] |==|  0.76359
USER: genes 14 Torsion [CD]-CE--NZ-[HZ3] |==|  0.65972
USER: genes 15 Torsion [C]-CA--CB-[CG2] |==|  0.44861
USER: genes 16 Torsion [CA]-CB--OG1-[HG1] |==|  0.54326
USER: genes 17 Torsion [C]-CA--N-[C] |==|  0.85067
USER: genes 18 Torsion [N]-C--CA-[N] |==|  0.40526
USER: genes 19 Torsion [C]-CA--N-[C] |==|  0.85991
USER: genes 20 Torsion [N]-C--CA-[N] |==|  0.39948
USER: genes 21 Torsion [C]-CA--N-[H1] |==|  0.14094
USER: genes 22 Torsion [C]-CA--CB-[CG] |==|  0.26205
USER: genes 23 Torsion [CA]-CB--CG-[CD] |==|  0.31293
USER: genes 24 Torsion [CB]-CG--CD-[NE] |==|  0.26934
USER: genes 25 Torsion [CG]-CD--NE-[HE] |==|  0.17777
ROOT
ATOM      1  CA  THR D   3      19.165 -18.861  19.942  1.00 16.13 LIG 0.20  C 
ENDROOT
BRANCH 1 2
ATOM      2  C   THR D   3      17.653 -18.587  19.907  1.00 16.95 LIG 0.24  C 
ATOM      3 O    THR D   3      16.854 -19.527  19.851  1.00 16.12 LIG-0.27  OA
ATOM      4  N   LYS D   4      17.284 -17.303  19.941  1.00 18.15 LIG-0.35  N 
ATOM      5 H    LYS D   4      17.849 -16.660  20.022  1.00 18.15 LIG 0.16  HD
BRANCH 4 6
ATOM      6  CA  LYS D   4      15.890 -16.842  19.846  1.00 19.65 LIG 0.18  C 
BRANCH 6 7
ATOM      7  C   LYS D   4      15.404 -16.984  18.419  1.00 20.62 LIG 0.24  C 
ATOM      8  N   GLN D   5      14.388 -17.818  18.215  1.00 21.55 LIG-0.35  N 
ATOM      9 H    GLN D   5      14.002 -18.268  18.838  1.00 21.55 LIG 0.16  HD
ATOM     10 O    LYS D   4      15.937 -16.334  17.514  1.00 20.86 LIG-0.27  OA
BRANCH 8 11
ATOM     11  CA  GLN D   5      13.836 -18.038  16.873  1.00 22.83 LIG 0.16  C 
BRANCH 11 12
ATOM     12  C   GLN D   5      14.844 -18.699  15.934  1.00 22.91 LIG 0.22  C 
ATOM     13 O    GLN D   5      15.685 -18.031  15.330  1.00 23.29 LIG-0.29  OA
ENDBRANCH 11 12
BRANCH 11 14
ATOM     14  CB  GLN D   5      13.320 -16.730  16.268  1.00 22.86 LIG 0.04  C 
BRANCH 14 15
ATOM     15  CG  GLN D   5      12.094 -16.155  16.956  1.00 24.40 LIG 0.10  C 
BRANCH 15 16
ATOM     16  CD  GLN D   5      12.295 -14.733  17.444  1.00 24.21 LIG 0.21  C 
ATOM     17  NE2 GLN D   5      11.250 -14.161  18.045  1.00 25.13 LIG-0.37  N 
ATOM     18 22HE GLN D   5      11.314 -13.357  18.344  1.00 25.13 LIG 0.16  HD
ATOM     19 21HE GLN D   5      10.514 -14.596  18.134  1.00 25.13 LIG 0.16  HD
ATOM     20 OE1  GLN D   5      13.377 -14.154  17.290  1.00 25.71 LIG-0.27  OA
ENDBRANCH 15 16
ENDBRANCH 14 15
ENDBRANCH 11 14
ENDBRANCH 8 11
ENDBRANCH 6 7
BRANCH 6 21
ATOM     21  CB  LYS D   4      15.774 -15.362  20.220  1.00 19.73 LIG 0.04  C 
BRANCH 21 22
ATOM     22  CG  LYS D   4      16.789 -14.444  19.597  1.00 20.49 LIG 0.00  C 
BRANCH 22 23
ATOM     23  CD  LYS D   4      17.578 -13.739  20.689  1.00 20.73 LIG 0.03  C 
BRANCH 23 24
ATOM     24  CE  LYS D   4      17.953 -12.342  20.260  1.00 20.46 LIG 0.23  C 
BRANCH 24 25
ATOM     25  NZ  LYS D   4      19.205 -12.340  19.467  1.00 20.02 LIG-0.08  N 
ATOM     26 HZ3  LYS D   4      19.804 -11.811  19.858  1.00 20.02 LIG 0.27  HD
ATOM     27 HZ1  LYS D   4      19.528 -13.168  19.420  1.00 20.02 LIG 0.27  HD
ATOM     28 HZ2  LYS D   4      19.036 -12.041  18.646  1.00 20.02 LIG 0.27  HD
ENDBRANCH 24 25
ENDBRANCH 23 24
ENDBRANCH 22 23
ENDBRANCH 21 22
ENDBRANCH 6 21
ENDBRANCH 4 6
ENDBRANCH 1 2
BRANCH 1 29
ATOM     29  CB  THR D   3      19.685 -18.757  21.389  1.00 15.86 LIG 0.15  C 
ATOM     30  CG2 THR D   3      21.036 -19.453  21.527  1.00 16.15 LIG 0.04  C 
BRANCH 29 31
ATOM     31 OG1  THR D   3      19.832 -17.378  21.750  1.00 16.19 LIG-0.39  OA
ATOM     32 HG1  THR D   3      20.306 -17.318  22.440  1.00 16.19 LIG 0.21  HD
ENDBRANCH 29 31
ENDBRANCH 1 29
BRANCH 1 33
ATOM     33  N   THR D   3      19.951 -18.018  19.028  1.00 15.75 LIG-0.34  N 
ATOM     34  C   ARG D   2      19.671 -17.933  17.727  1.00 15.31 LIG 0.24  C 
ATOM     35 O    ARG D   2      18.711 -18.499  17.209  1.00 15.17 LIG-0.27  OA
ATOM     36 H    THR D   3      20.596 -17.593  19.407  1.00 15.75 LIG 0.16  HD
BRANCH 34 37
ATOM     37  CA  ARG D   2      20.625 -17.094  16.875  1.00 15.15 LIG 0.18  C 
BRANCH 37 38
ATOM     38  N   ARG D   2      20.786 -17.630  15.520  1.00 15.89 LIG-0.35  N 
ATOM     39  C   ALA D   1      21.080 -18.902  15.243  1.00 16.91 LIG 0.25  C 
ATOM     40 O    ALA D   1      21.372 -19.740  16.106  1.00 17.32 LIG-0.27  OA
ATOM     41 H    ARG D   2      20.670 -17.038  14.907  1.00 15.89 LIG 0.16  HD
BRANCH 39 42
ATOM     42  CA  ALA D   1      21.054 -19.288  13.763  1.00 17.08 LIG 0.27  C 
ATOM     43  CB  ALA D   1      19.670 -19.850  13.367  1.00 17.48 LIG 0.05  C 
BRANCH 42 44
ATOM     44  N   ALA D   1      22.125 -20.279  13.449  1.00 17.36 LIG-0.07  N 
ATOM     45 H3   ALA D   1      22.921 -19.885  13.509  1.00 17.36 LIG 0.28  HD
ATOM     46 H2   ALA D   1      22.009 -20.590  12.623  1.00 17.36 LIG 0.28  HD
ATOM     47 H1   ALA D   1      22.085 -20.954  14.028  1.00 17.36 LIG 0.28  HD
ENDBRANCH 42 44
ENDBRANCH 39 42
ENDBRANCH 37 38
BRANCH 37 48
ATOM     48  CB  ARG D   2      20.093 -15.657  16.771  1.00 15.08 LIG 0.04  C 
BRANCH 48 49
ATOM     49  CG  ARG D   2      20.626 -14.643  17.775  1.00 14.63 LIG 0.02  C 
BRANCH 49 50
ATOM     50  CD  ARG D   2      21.486 -13.586  17.070  1.00 13.91 LIG 0.14  C 
BRANCH 50 51
ATOM     51  NE  ARG D   2      20.732 -12.369  16.771  1.00 10.79 LIG-0.23  N 
ATOM     52 HE   ARG D   2      20.431 -11.910  17.433  1.00 10.79 LIG 0.18  HD
ATOM     53  CZ  ARG D   2      20.480 -11.924  15.540  1.00 10.30 LIG 0.67  C 
ATOM     54  NH2 ARG D   2      20.933 -12.585  14.475  1.00  9.50 LIG-0.23  N 
ATOM     55  NH1 ARG D   2      19.772 -10.815  15.375  1.00  9.44 LIG-0.23  N 
ATOM     56 22HH ARG D   2      20.766 -12.292  13.684  1.00  9.50 LIG 0.17  HD
ATOM     57 21HH ARG D   2      21.391 -13.306  14.578  1.00  9.50 LIG 0.17  HD
ATOM     58 11HH ARG D   2      19.478 -10.387  16.060  1.00  9.44 LIG 0.17  HD
ATOM     59 12HH ARG D   2      19.608 -10.525  14.582  1.00  9.44 LIG 0.17  HD
ENDBRANCH 50 51
ENDBRANCH 49 50
ENDBRANCH 48 49
ENDBRANCH 37 48
ENDBRANCH 34 37
ENDBRANCH 1 33
TORSDOF 24
ENDMDL
MODEL 23
USER: ADFR SOLUTION from run 159
USER: SCORE 19.104120 LL:  -3.572 LR: -16.231 RR:   0.000 FEB:  -9.072
USER: RMSD 7.962095
USER: SEED 158
USER: STATUS no improvement in best 7 clusters for 5 generations
USER: GENES 26
USER: genes 0 Translation |==|  0.44801 0.49047 0.58601
USER: genes 1 Rotation |==|  0.20146 0.63516 0.86646 0.59115
USER: genes 2 Torsion [N]-CA--C-[N] |==|  0.37610
USER: genes 3 Torsion [C]-N--CA-[C] |==|  0.15947
USER: genes 4 Torsion [N]-CA--C-[N] |==|  0.11927
USER: genes 5 Torsion [C]-N--CA-[C] |==|  0.84525
USER: genes 6 Torsion [N]-CA--C-[O] |==|  0.44726
USER: genes 7 Torsion [N]-CA--CB-[CG] |==|  0.69379
USER: genes 8 Torsion [CA]-CB--CG-[CD] |==|  0.73327
USER: genes 9 Torsion [CB]-CG--CD-[OE1] |==|  0.61445
USER: genes 10 Torsion [N]-CA--CB-[CG] |==|  0.70800
USER: genes 11 Torsion [CA]-CB--CG-[CD] |==|  0.67666
USER: genes 12 Torsion [CB]-CG--CD-[CE] |==|  0.35223
USER: genes 13 Torsion [CG]-CD--CE-[NZ] |==|  0.13807
USER: genes 14 Torsion [CD]-CE--NZ-[HZ3] |==|  0.41850
USER: genes 15 Torsion [C]-CA--CB-[CG2] |==|  0.37559
USER: genes 16 Torsion [CA]-CB--OG1-[HG1] |==|  0.28039
USER: genes 17 Torsion [C]-CA--N-[C] |==|  0.83925
USER: genes 18 Torsion [N]-C--CA-[N] |==|  0.56652
USER: genes 19 Torsion [C]-CA--N-[C] |==|  0.62344
USER: genes 20 Torsion [N]-C--CA-[N] |==|  0.21287
USER: genes 21 Torsion [C]-CA--N-[H1] |==|  0.03786
USER: genes 22 Torsion [C]-CA--CB-[CG] |==|  0.41693
USER: genes 23 Torsion [CA]-CB--CG-[CD] |==|  0.22441
USER: genes 24 Torsion [CB]-CG--CD-[NE] |==|  0.17360
USER: genes 25 Torsion [CG]-CD--NE-[HE] |==|  0.72129
ROOT
ATOM      1  CA  THR D   3      16.440 -17.126  19.090  1.00 16.13 LIG 0.20  C 
ENDROOT
BRANCH 1 2
ATOM      2  C   THR D   3      17.656 -18.066  19.112  1.00 16.95 LIG 0.24  C 
ATOM      3 O    THR D   3      17.504 -19.278  18.932  1.00 16.12 LIG-0.27  OA
ATOM      4  N   LYS D   4      18.843 -17.493  19.333  1.00 18.15 LIG-0.35  N 
ATOM      5 H    LYS D   4      18.939 -16.643  19.416  1.00 18.15 LIG 0.16  HD
BRANCH 4 6
ATOM      6  CA  LYS D   4      20.107 -18.235  19.458  1.00 19.65 LIG 0.18  C 
BRANCH 6 7
ATOM      7  C   LYS D   4      20.341 -19.057  18.208  1.00 20.62 LIG 0.24  C 
ATOM      8  N   GLN D   5      20.084 -18.460  17.047  1.00 21.55 LIG-0.35  N 
ATOM      9 H    GLN D   5      19.802 -17.652  16.973  1.00 21.55 LIG 0.16  HD
ATOM     10 O    LYS D   4      20.761 -20.214  18.295  1.00 20.86 LIG-0.27  OA
BRANCH 8 11
ATOM     11  CA  GLN D   5      20.271 -19.160  15.770  1.00 22.83 LIG 0.16  C 
BRANCH 11 12
ATOM     12  C   GLN D   5      21.690 -19.705  15.611  1.00 22.91 LIG 0.22  C 
ATOM     13 O    GLN D   5      21.943 -20.594  14.797  1.00 23.29 LIG-0.29  OA
ENDBRANCH 11 12
BRANCH 11 14
ATOM     14  CB  GLN D   5      19.910 -18.256  14.588  1.00 22.86 LIG 0.04  C 
BRANCH 14 15
ATOM     15  CG  GLN D   5      18.646 -18.657  13.849  1.00 24.40 LIG 0.10  C 
BRANCH 15 16
ATOM     16  CD  GLN D   5      18.915 -19.507  12.622  1.00 24.21 LIG 0.21  C 
ATOM     17  NE2 GLN D   5      19.849 -20.452  12.750  1.00 25.13 LIG-0.37  N 
ATOM     18 22HE GLN D   5      20.036 -20.964  12.085  1.00 25.13 LIG 0.16  HD
ATOM     19 21HE GLN D   5      20.262 -20.549  13.498  1.00 25.13 LIG 0.16  HD
ATOM     20 OE1  GLN D   5      18.290 -19.324  11.571  1.00 25.71 LIG-0.27  OA
ENDBRANCH 15 16
ENDBRANCH 14 15
ENDBRANCH 11 14
ENDBRANCH 8 11
ENDBRANCH 6 7
BRANCH 6 21
ATOM     21  CB  LYS D   4      20.057 -19.209  20.639  1.00 19.73 LIG 0.04  C 
BRANCH 21 22
ATOM     22  CG  LYS D   4      20.833 -18.801  21.862  1.00 20.49 LIG 0.00  C 
BRANCH 22 23
ATOM     23  CD  LYS D   4      21.949 -19.803  22.115  1.00 20.73 LIG 0.03  C 
BRANCH 23 24
ATOM     24  CE  LYS D   4      23.279 -19.100  22.237  1.00 20.46 LIG 0.23  C 
BRANCH 24 25
ATOM     25  NZ  LYS D   4      23.204 -17.965  23.187  1.00 20.02 LIG-0.08  N 
ATOM     26 HZ3  LYS D   4      24.000 -17.842  23.566  1.00 20.02 LIG 0.27  HD
ATOM     27 HZ1  LYS D   4      22.967 -17.227  22.750  1.00 20.02 LIG 0.27  HD
ATOM     28 HZ2  LYS D   4      22.600 -18.144  23.816  1.00 20.02 LIG 0.27  HD
ENDBRANCH 24 25
ENDBRANCH 23 24
ENDBRANCH 22 23
ENDBRANCH 21 22
ENDBRANCH 6 21
ENDBRANCH 4 6
ENDBRANCH 1 2
BRANCH 1 29
ATOM     29  CB  THR D   3      15.724 -17.161  20.454  1.00 15.86 LIG 0.15  C 
ATOM     30  CG2 THR D   3      15.371 -15.749  20.913  1.00 16.15 LIG 0.04  C 
BRANCH 29 31
ATOM     31 OG1  THR D   3      14.519 -17.930  20.344  1.00 16.19 LIG-0.39  OA
ATOM     32 HG1  THR D   3      14.648 -18.698  20.658  1.00 16.19 LIG 0.21  HD
ENDBRANCH 29 31
ENDBRANCH 1 29
BRANCH 1 33
ATOM     33  N   THR D   3      15.503 -17.379  17.985  1.00 15.75 LIG-0.34  N 
ATOM     34  C   ARG D   2      15.886 -17.336  16.709  1.00 15.31 LIG 0.24  C 
ATOM     35 O    ARG D   2      17.050 -17.143  16.364  1.00 15.17 LIG-0.27  OA
ATOM     36 H    THR D   3      14.699 -17.554  18.237  1.00 15.75 LIG 0.16  HD
BRANCH 34 37
ATOM     37  CA  ARG D   2      14.791 -17.526  15.658  1.00 15.15 LIG 0.18  C 
BRANCH 37 38
ATOM     38  N   ARG D   2      15.317 -18.018  14.381  1.00 15.89 LIG-0.35  N 
ATOM     39  C   ALA D   1      14.963 -17.541  13.186  1.00 16.91 LIG 0.25  C 
ATOM     40 O    ALA D   1      14.057 -16.715  13.021  1.00 17.32 LIG-0.27  OA
ATOM     41 H    ARG D   2      15.888 -18.655  14.474  1.00 15.89 LIG 0.16  HD
BRANCH 39 42
ATOM     42  CA  ALA D   1      15.742 -18.089  11.989  1.00 17.08 LIG 0.27  C 
ATOM     43  CB  ALA D   1      15.607 -17.149  10.770  1.00 17.48 LIG 0.05  C 
BRANCH 42 44
ATOM     44  N   ALA D   1      15.285 -19.465  11.637  1.00 17.36 LIG-0.07  N 
ATOM     45 H3   ALA D   1      15.900 -20.056  11.890  1.00 17.36 LIG 0.28  HD
ATOM     46 H2   ALA D   1      15.163 -19.521  10.757  1.00 17.36 LIG 0.28  HD
ATOM     47 H1   ALA D   1      14.517 -19.639  12.054  1.00 17.36 LIG 0.28  HD
ENDBRANCH 42 44
ENDBRANCH 39 42
ENDBRANCH 37 38
BRANCH 37 48
ATOM     48  CB  ARG D   2      13.751 -18.531  16.176  1.00 15.08 LIG 0.04  C 
BRANCH 48 49
ATOM     49  CG  ARG D   2      12.318 -18.361  15.690  1.00 14.63 LIG 0.02  C 
BRANCH 49 50
ATOM     50  CD  ARG D   2      12.146 -18.969  14.291  1.00 13.91 LIG 0.14  C 
BRANCH 50 51
ATOM     51  NE  ARG D   2      12.394 -20.411  14.280  1.00 10.79 LIG-0.23  N 
ATOM     52 HE   ARG D   2      13.160 -20.685  14.000  1.00 10.79 LIG 0.18  HD
ATOM     53  CZ  ARG D   2      11.512 -21.329  14.676  1.00 10.30 LIG 0.67  C 
ATOM     54  NH2 ARG D   2      10.314 -20.965  15.132  1.00  9.50 LIG-0.23  N 
ATOM     55  NH1 ARG D   2      11.829 -22.615  14.611  1.00  9.44 LIG-0.23  N 
ATOM     56 22HH ARG D   2       9.750 -21.563  15.385  1.00  9.50 LIG 0.17  HD
ATOM     57 21HH ARG D   2      10.104 -20.132  15.174  1.00  9.50 LIG 0.17  HD
ATOM     58 11HH ARG D   2      12.600 -22.853  14.316  1.00  9.44 LIG 0.17  HD
ATOM     59 12HH ARG D   2      11.263 -23.210  14.866  1.00  9.44 LIG 0.17  HD
ENDBRANCH 50 51
ENDBRANCH 49 50
ENDBRANCH 48 49
ENDBRANCH 37 48
ENDBRANCH 34 37
ENDBRANCH 1 33
TORSDOF 24
ENDMDL
MODEL 24
USER: ADFR SOLUTION from run 112
USER: SCORE 18.526639 LL:  -3.119 LR: -16.096 RR:   0.000 FEB:  -8.936
USER: RMSD 7.239810
USER: SEED 111
USER: STATUS no improvement in best 8 clusters for 5 generations
USER: GENES 26
USER: genes 0 Translation |==|  0.46652 0.51557 0.61249
USER: genes 1 Rotation |==|  0.17791 0.48252 0.75423 0.78516
USER: genes 2 Torsion [N]-CA--C-[N] |==|  0.19831
USER: genes 3 Torsion [C]-N--CA-[C] |==|  0.17778
USER: genes 4 Torsion [N]-CA--C-[N] |==|  0.09475
USER: genes 5 Torsion [C]-N--CA-[C] |==|  0.89234
USER: genes 6 Torsion [N]-CA--C-[O] |==|  0.90722
USER: genes 7 Torsion [N]-CA--CB-[CG] |==|  0.11627
USER: genes 8 Torsion [CA]-CB--CG-[CD] |==|  0.32798
USER: genes 9 Torsion [CB]-CG--CD-[OE1] |==|  0.31952
USER: genes 10 Torsion [N]-CA--CB-[CG] |==|  0.63613
USER: genes 11 Torsion [CA]-CB--CG-[CD] |==|  0.04626
USER: genes 12 Torsion [CB]-CG--CD-[CE] |==|  0.49259
USER: genes 13 Torsion [CG]-CD--CE-[NZ] |==|  0.71960
USER: genes 14 Torsion [CD]-CE--NZ-[HZ3] |==|  0.78605
USER: genes 15 Torsion [C]-CA--CB-[CG2] |==|  0.35844
USER: genes 16 Torsion [CA]-CB--OG1-[HG1] |==|  0.41382
USER: genes 17 Torsion [C]-CA--N-[C] |==|  0.63406
USER: genes 18 Torsion [N]-C--CA-[N] |==|  0.47395
USER: genes 19 Torsion [C]-CA--N-[C] |==|  0.77104
USER: genes 20 Torsion [N]-C--CA-[N] |==|  0.13788
USER: genes 21 Torsion [C]-CA--N-[H1] |==|  0.98479
USER: genes 22 Torsion [C]-CA--CB-[CG] |==|  0.40840
USER: genes 23 Torsion [CA]-CB--CG-[CD] |==|  0.37604
USER: genes 24 Torsion [CB]-CG--CD-[NE] |==|  0.15333
USER: genes 25 Torsion [CG]-CD--NE-[HE] |==|  0.25002
ROOT
ATOM      1  CA  THR D   3      16.996 -16.373  19.885  1.00 16.13 LIG 0.20  C 
ENDROOT
BRANCH 1 2
ATOM      2  C   THR D   3      17.922 -17.592  19.755  1.00 16.95 LIG 0.24  C 
ATOM      3 O    THR D   3      17.445 -18.716  19.574  1.00 16.12 LIG-0.27  OA
ATOM      4  N   LYS D   4      19.233 -17.351  19.851  1.00 18.15 LIG-0.35  N 
ATOM      5 H    LYS D   4      19.554 -16.558  19.936  1.00 18.15 LIG 0.16  HD
BRANCH 4 6
ATOM      6  CA  LYS D   4      20.269 -18.396  19.822  1.00 19.65 LIG 0.18  C 
BRANCH 6 7
ATOM      7  C   LYS D   4      20.257 -19.087  18.475  1.00 20.62 LIG 0.24  C 
ATOM      8  N   GLN D   5      19.955 -18.333  17.421  1.00 21.55 LIG-0.35  N 
ATOM      9 H    GLN D   5      19.772 -17.494  17.466  1.00 21.55 LIG 0.16  HD
ATOM     10 O    LYS D   4      20.531 -20.288  18.390  1.00 20.86 LIG-0.27  OA
BRANCH 8 11
ATOM     11  CA  GLN D   5      19.909 -18.896  16.066  1.00 22.83 LIG 0.16  C 
BRANCH 11 12
ATOM     12  C   GLN D   5      21.021 -19.915  15.825  1.00 22.91 LIG 0.22  C 
ATOM     13 O    GLN D   5      22.125 -19.792  16.358  1.00 23.29 LIG-0.29  OA
ENDBRANCH 11 12
BRANCH 11 14
ATOM     14  CB  GLN D   5      19.960 -17.790  15.008  1.00 22.86 LIG 0.04  C 
BRANCH 14 15
ATOM     15  CG  GLN D   5      20.948 -16.676  15.306  1.00 24.40 LIG 0.10  C 
BRANCH 15 16
ATOM     16  CD  GLN D   5      22.043 -16.554  14.262  1.00 24.21 LIG 0.21  C 
ATOM     17  NE2 GLN D   5      22.877 -17.591  14.156  1.00 25.13 LIG-0.37  N 
ATOM     18 22HE GLN D   5      23.511 -17.573  13.576  1.00 25.13 LIG 0.16  HD
ATOM     19 21HE GLN D   5      22.779 -18.276  14.666  1.00 25.13 LIG 0.16  HD
ATOM     20 OE1  GLN D   5      22.138 -15.545  13.554  1.00 25.71 LIG-0.27  OA
ENDBRANCH 15 16
ENDBRANCH 14 15
ENDBRANCH 11 14
ENDBRANCH 8 11
ENDBRANCH 6 7
BRANCH 6 21
ATOM     21  CB  LYS D   4      19.999 -19.466  20.884  1.00 19.73 LIG 0.04  C 
BRANCH 21 22
ATOM     22  CG  LYS D   4      21.166 -19.832  21.760  1.00 20.49 LIG 0.00  C 
BRANCH 22 23
ATOM     23  CD  LYS D   4      22.239 -18.760  21.654  1.00 20.73 LIG 0.03  C 
BRANCH 23 24
ATOM     24  CE  LYS D   4      23.396 -19.070  22.574  1.00 20.46 LIG 0.23  C 
BRANCH 24 25
ATOM     25  NZ  LYS D   4      23.328 -18.262  23.814  1.00 20.02 LIG-0.08  N 
ATOM     26 HZ3  LYS D   4      23.598 -17.431  23.644  1.00 20.02 LIG 0.27  HD
ATOM     27 HZ1  LYS D   4      22.490 -18.245  24.113  1.00 20.02 LIG 0.27  HD
ATOM     28 HZ2  LYS D   4      23.856 -18.624  24.433  1.00 20.02 LIG 0.27  HD
ENDBRANCH 24 25
ENDBRANCH 23 24
ENDBRANCH 22 23
ENDBRANCH 21 22
ENDBRANCH 6 21
ENDBRANCH 4 6
ENDBRANCH 1 2
BRANCH 1 29
ATOM     29  CB  THR D   3      15.558 -16.835  20.191  1.00 15.86 LIG 0.15  C 
ATOM     30  CG2 THR D   3      14.999 -16.091  21.400  1.00 16.15 LIG 0.04  C 
BRANCH 29 31
ATOM     31 OG1  THR D   3      14.719 -16.579  19.057  1.00 16.19 LIG-0.39  OA
ATOM     32 HG1  THR D   3      14.112 -17.158  19.021  1.00 16.19 LIG 0.21  HD
ENDBRANCH 29 31
ENDBRANCH 1 29
BRANCH 1 33
ATOM     33  N   THR D   3      17.032 -15.463  18.729  1.00 15.75 LIG-0.34  N 
ATOM     34  C   ARG D   2      17.168 -14.144  18.871  1.00 15.31 LIG 0.24  C 
ATOM     35 O    ARG D   2      17.331 -13.600  19.961  1.00 15.17 LIG-0.27  OA
ATOM     36 H    THR D   3      16.959 -15.857  17.968  1.00 15.75 LIG 0.16  HD
BRANCH 34 37
ATOM     37  CA  ARG D   2      17.097 -13.307  17.593  1.00 15.15 LIG 0.18  C 
BRANCH 37 38
ATOM     38  N   ARG D   2      17.036 -11.868  17.868  1.00 15.89 LIG-0.35  N 
ATOM     39  C   ALA D   1      15.919 -11.207  18.179  1.00 16.91 LIG 0.25  C 
ATOM     40 O    ALA D   1      14.792 -11.716  18.146  1.00 17.32 LIG-0.27  OA
ATOM     41 H    ARG D   2      17.802 -11.481  17.809  1.00 15.89 LIG 0.16  HD
BRANCH 39 42
ATOM     42  CA  ALA D   1      16.098  -9.740  18.575  1.00 17.08 LIG 0.27  C 
ATOM     43  CB  ALA D   1      14.728  -9.043  18.731  1.00 17.48 LIG 0.05  C 
BRANCH 42 44
ATOM     44  N   ALA D   1      16.940  -9.015  17.578  1.00 17.36 LIG-0.07  N 
ATOM     45 H3   ALA D   1      17.624  -8.626  17.994  1.00 17.36 LIG 0.28  HD
ATOM     46 H2   ALA D   1      16.449  -8.395  17.170  1.00 17.36 LIG 0.28  HD
ATOM     47 H1   ALA D   1      17.249  -9.592  16.975  1.00 17.36 LIG 0.28  HD
ENDBRANCH 42 44
ENDBRANCH 39 42
ENDBRANCH 37 38
BRANCH 37 48
ATOM     48  CB  ARG D   2      18.333 -13.587  16.725  1.00 15.08 LIG 0.04  C 
BRANCH 48 49
ATOM     49  CG  ARG D   2      18.150 -13.527  15.215  1.00 14.63 LIG 0.02  C 
BRANCH 49 50
ATOM     50  CD  ARG D   2      19.303 -12.753  14.561  1.00 13.91 LIG 0.14  C 
BRANCH 50 51
ATOM     51  NE  ARG D   2      20.610 -13.306  14.914  1.00 10.79 LIG-0.23  N 
ATOM     52 HE   ARG D   2      20.937 -13.920  14.407  1.00 10.79 LIG 0.18  HD
ATOM     53  CZ  ARG D   2      21.330 -12.923  15.969  1.00 10.30 LIG 0.67  C 
ATOM     54  NH2 ARG D   2      20.881 -11.967  16.783  1.00  9.50 LIG-0.23  N 
ATOM     55  NH1 ARG D   2      22.499 -13.498  16.211  1.00  9.44 LIG-0.23  N 
ATOM     56 22HH ARG D   2      21.351 -11.726  17.462  1.00  9.50 LIG 0.17  HD
ATOM     57 21HH ARG D   2      20.122 -11.593  16.630  1.00  9.50 LIG 0.17  HD
ATOM     58 11HH ARG D   2      22.790 -14.116  15.688  1.00  9.44 LIG 0.17  HD
ATOM     59 12HH ARG D   2      22.966 -13.253  16.890  1.00  9.44 LIG 0.17  HD
ENDBRANCH 50 51
ENDBRANCH 49 50
ENDBRANCH 48 49
ENDBRANCH 37 48
ENDBRANCH 34 37
ENDBRANCH 1 33
TORSDOF 24
ENDMDL
MODEL 25
USER: ADFR SOLUTION from run 129
USER: SCORE 19.350377 LL:  -3.779 LR: -16.085 RR:   0.000 FEB:  -8.926
USER: RMSD 8.300212
USER: SEED 128
USER: STATUS searching
USER: GENES 26
USER: genes 0 Translation |==|  0.57164 0.42932 0.48288
USER: genes 1 Rotation |==|  0.65381 0.96233 0.58450 0.57381
USER: genes 2 Torsion [N]-CA--C-[N] |==|  0.96642
USER: genes 3 Torsion [C]-N--CA-[C] |==|  0.66234
USER: genes 4 Torsion [N]-CA--C-[N] |==|  0.91469
USER: genes 5 Torsion [C]-N--CA-[C] |==|  0.12527
USER: genes 6 Torsion [N]-CA--C-[O] |==|  0.16620
USER: genes 7 Torsion [N]-CA--CB-[CG] |==|  0.66882
USER: genes 8 Torsion [CA]-CB--CG-[CD] |==|  0.64905
USER: genes 9 Torsion [CB]-CG--CD-[OE1] |==|  0.82077
USER: genes 10 Torsion [N]-CA--CB-[CG] |==|  0.82973
USER: genes 11 Torsion [CA]-CB--CG-[CD] |==|  0.73323
USER: genes 12 Torsion [CB]-CG--CD-[CE] |==|  0.53747
USER: genes 13 Torsion [CG]-CD--CE-[NZ] |==|  0.22594
USER: genes 14 Torsion [CD]-CE--NZ-[HZ3] |==|  0.16595
USER: genes 15 Torsion [C]-CA--CB-[CG2] |==|  0.28365
USER: genes 16 Torsion [CA]-CB--OG1-[HG1] |==|  0.56580
USER: genes 17 Torsion [C]-CA--N-[C] |==|  0.82532
USER: genes 18 Torsion [N]-C--CA-[N] |==|  0.94712
USER: genes 19 Torsion [C]-CA--N-[C] |==|  0.75293
USER: genes 20 Torsion [N]-C--CA-[N] |==|  0.44872
USER: genes 21 Torsion [C]-CA--N-[H1] |==|  0.92779
USER: genes 22 Torsion [C]-CA--CB-[CG] |==|  0.00422
USER: genes 23 Torsion [CA]-CB--CG-[CD] |==|  0.37134
USER: genes 24 Torsion [CB]-CG--CD-[NE] |==|  0.71300
USER: genes 25 Torsion [CG]-CD--NE-[HE] |==|  0.76619
ROOT
ATOM      1  CA  THR D   3      20.149 -18.960  15.996  1.00 16.13 LIG 0.20  C 
ENDROOT
BRANCH 1 2
ATOM      2  C   THR D   3      19.773 -19.423  17.413  1.00 16.95 LIG 0.24  C 
ATOM      3 O    THR D   3      19.980 -20.590  17.759  1.00 16.12 LIG-0.27  OA
ATOM      4  N   LYS D   4      19.225 -18.502  18.210  1.00 18.15 LIG-0.35  N 
ATOM      5 H    LYS D   4      19.123 -17.683  17.971  1.00 18.15 LIG 0.16  HD
BRANCH 4 6
ATOM      6  CA  LYS D   4      18.736 -18.773  19.571  1.00 19.65 LIG 0.18  C 
BRANCH 6 7
ATOM      7  C   LYS D   4      17.267 -18.417  19.664  1.00 20.62 LIG 0.24  C 
ATOM      8  N   GLN D   5      16.843 -17.427  18.884  1.00 21.55 LIG-0.35  N 
ATOM      9 H    GLN D   5      17.349 -16.990  18.343  1.00 21.55 LIG 0.16  HD
ATOM     10 O    LYS D   4      16.523 -19.044  20.425  1.00 20.86 LIG-0.27  OA
BRANCH 8 11
ATOM     11  CA  GLN D   5      15.440 -16.993  18.892  1.00 22.83 LIG 0.16  C 
BRANCH 11 12
ATOM     12  C   GLN D   5      14.886 -16.855  20.309  1.00 22.91 LIG 0.22  C 
ATOM     13 O    GLN D   5      15.392 -16.075  21.118  1.00 23.29 LIG-0.29  OA
ENDBRANCH 11 12
BRANCH 11 14
ATOM     14  CB  GLN D   5      14.566 -17.941  18.067  1.00 22.86 LIG 0.04  C 
BRANCH 14 15
ATOM     15  CG  GLN D   5      13.865 -17.288  16.889  1.00 24.40 LIG 0.10  C 
BRANCH 15 16
ATOM     16  CD  GLN D   5      12.365 -17.517  16.885  1.00 24.21 LIG 0.21  C 
ATOM     17  NE2 GLN D   5      11.601 -16.432  17.024  1.00 25.13 LIG-0.37  N 
ATOM     18 22HE GLN D   5      10.744 -16.507  17.024  1.00 25.13 LIG 0.16  HD
ATOM     19 21HE GLN D   5      11.965 -15.658  17.113  1.00 25.13 LIG 0.16  HD
ATOM     20 OE1  GLN D   5      11.895 -18.653  16.753  1.00 25.71 LIG-0.27  OA
ENDBRANCH 15 16
ENDBRANCH 14 15
ENDBRANCH 11 14
ENDBRANCH 8 11
ENDBRANCH 6 7
BRANCH 6 21
ATOM     21  CB  LYS D   4      19.477 -17.916  20.602  1.00 19.73 LIG 0.04  C 
BRANCH 21 22
ATOM     22  CG  LYS D   4      20.963 -18.133  20.692  1.00 20.49 LIG 0.00  C 
BRANCH 22 23
ATOM     23  CD  LYS D   4      21.268 -19.109  21.816  1.00 20.73 LIG 0.03  C 
BRANCH 23 24
ATOM     24  CE  LYS D   4      22.741 -19.097  22.149  1.00 20.46 LIG 0.23  C 
BRANCH 24 25
ATOM     25  NZ  LYS D   4      23.083 -17.961  23.036  1.00 20.02 LIG-0.08  N 
ATOM     26 HZ3  LYS D   4      22.620 -18.025  23.794  1.00 20.02 LIG 0.27  HD
ATOM     27 HZ1  LYS D   4      23.954 -17.979  23.219  1.00 20.02 LIG 0.27  HD
ATOM     28 HZ2  LYS D   4      22.882 -17.195  22.630  1.00 20.02 LIG 0.27  HD
ENDBRANCH 24 25
ENDBRANCH 23 24
ENDBRANCH 22 23
ENDBRANCH 21 22
ENDBRANCH 6 21
ENDBRANCH 4 6
ENDBRANCH 1 2
BRANCH 1 29
ATOM     29  CB  THR D   3      21.680 -18.999  15.820  1.00 15.86 LIG 0.15  C 
ATOM     30  CG2 THR D   3      22.099 -20.231  15.024  1.00 16.15 LIG 0.04  C 
BRANCH 29 31
ATOM     31 OG1  THR D   3      22.113 -17.824  15.123  1.00 16.19 LIG-0.39  OA
ATOM     32 HG1  THR D   3      22.848 -17.977  14.746  1.00 16.19 LIG 0.21  HD
ENDBRANCH 29 31
ENDBRANCH 1 29
BRANCH 1 33
ATOM     33  N   THR D   3      19.599 -17.647  15.626  1.00 15.75 LIG-0.34  N 
ATOM     34  C   ARG D   2      18.287 -17.427  15.545  1.00 15.31 LIG 0.24  C 
ATOM     35 O    ARG D   2      17.445 -18.277  15.827  1.00 15.17 LIG-0.27  OA
ATOM     36 H    THR D   3      20.195 -17.047  15.470  1.00 15.75 LIG 0.16  HD
BRANCH 34 37
ATOM     37  CA  ARG D   2      17.854 -16.043  15.059  1.00 15.15 LIG 0.18  C 
BRANCH 37 38
ATOM     38  N   ARG D   2      18.922 -15.046  15.181  1.00 15.89 LIG-0.35  N 
ATOM     39  C   ALA D   1      19.136 -14.300  16.267  1.00 16.91 LIG 0.25  C 
ATOM     40 O    ALA D   1      18.376 -14.281  17.244  1.00 17.32 LIG-0.27  OA
ATOM     41 H    ARG D   2      19.409 -14.985  14.475  1.00 15.89 LIG 0.16  HD
BRANCH 39 42
ATOM     42  CA  ALA D   1      20.394 -13.430  16.244  1.00 17.08 LIG 0.27  C 
ATOM     43  CB  ALA D   1      21.658 -14.286  16.478  1.00 17.48 LIG 0.05  C 
BRANCH 42 44
ATOM     44  N   ALA D   1      20.310 -12.340  17.260  1.00 17.36 LIG-0.07  N 
ATOM     45 H3   ALA D   1      20.720 -11.613  16.951  1.00 17.36 LIG 0.28  HD
ATOM     46 H2   ALA D   1      20.703 -12.605  18.013  1.00 17.36 LIG 0.28  HD
ATOM     47 H1   ALA D   1      19.455 -12.150  17.423  1.00 17.36 LIG 0.28  HD
ENDBRANCH 42 44
ENDBRANCH 39 42
ENDBRANCH 37 38
BRANCH 37 48
ATOM     48  CB  ARG D   2      17.429 -16.125  13.585  1.00 15.08 LIG 0.04  C 
BRANCH 48 49
ATOM     49  CG  ARG D   2      17.477 -17.495  12.923  1.00 14.63 LIG 0.02  C 
BRANCH 49 50
ATOM     50  CD  ARG D   2      16.189 -17.758  12.132  1.00 13.91 LIG 0.14  C 
BRANCH 50 51
ATOM     51  NE  ARG D   2      15.286 -18.670  12.833  1.00 10.79 LIG-0.23  N 
ATOM     52 HE   ARG D   2      15.418 -19.516  12.743  1.00 10.79 LIG 0.18  HD
ATOM     53  CZ  ARG D   2      14.270 -18.279  13.603  1.00 10.30 LIG 0.67  C 
ATOM     54  NH2 ARG D   2      14.023 -16.983  13.791  1.00  9.50 LIG-0.23  N 
ATOM     55  NH1 ARG D   2      13.498 -19.187  14.183  1.00  9.44 LIG-0.23  N 
ATOM     56 22HH ARG D   2      13.366 -16.738  14.288  1.00  9.50 LIG 0.17  HD
ATOM     57 21HH ARG D   2      14.521 -16.391  13.414  1.00  9.50 LIG 0.17  HD
ATOM     58 11HH ARG D   2      13.654 -20.024  14.063  1.00  9.44 LIG 0.17  HD
ATOM     59 12HH ARG D   2      12.842 -18.939  14.681  1.00  9.44 LIG 0.17  HD
ENDBRANCH 50 51
ENDBRANCH 49 50
ENDBRANCH 48 49
ENDBRANCH 37 48
ENDBRANCH 34 37
ENDBRANCH 1 33
TORSDOF 24
ENDMDL
MODEL 26
USER: ADFR SOLUTION from run 50
USER: SCORE 20.020180 LL:  -4.014 LR: -16.061 RR:   0.000 FEB:  -8.901
USER: RMSD 8.598484
USER: SEED 49
USER: STATUS no improvement in best 3 clusters for 5 generations
USER: GENES 26
USER: genes 0 Translation |==|  0.57542 0.43696 0.47821
USER: genes 1 Rotation |==|  0.67606 0.95481 0.60101 0.54415
USER: genes 2 Torsion [N]-CA--C-[N] |==|  0.93226
USER: genes 3 Torsion [C]-N--CA-[C] |==|  0.71850
USER: genes 4 Torsion [N]-CA--C-[N] |==|  0.01609
USER: genes 5 Torsion [C]-N--CA-[C] |==|  0.54966
USER: genes 6 Torsion [N]-CA--C-[O] |==|  0.13707
USER: genes 7 Torsion [N]-CA--CB-[CG] |==|  0.10036
USER: genes 8 Torsion [CA]-CB--CG-[CD] |==|  0.63013
USER: genes 9 Torsion [CB]-CG--CD-[OE1] |==|  0.89436
USER: genes 10 Torsion [N]-CA--CB-[CG] |==|  0.62401
USER: genes 11 Torsion [CA]-CB--CG-[CD] |==|  0.26005
USER: genes 12 Torsion [CB]-CG--CD-[CE] |==|  0.42534
USER: genes 13 Torsion [CG]-CD--CE-[NZ] |==|  0.82459
USER: genes 14 Torsion [CD]-CE--NZ-[HZ3] |==|  0.63576
USER: genes 15 Torsion [C]-CA--CB-[CG2] |==|  0.22417
USER: genes 16 Torsion [CA]-CB--OG1-[HG1] |==|  0.52067
USER: genes 17 Torsion [C]-CA--N-[C] |==|  0.82569
USER: genes 18 Torsion [N]-C--CA-[N] |==|  0.93071
USER: genes 19 Torsion [C]-CA--N-[C] |==|  0.80575
USER: genes 20 Torsion [N]-C--CA-[N] |==|  0.47961
USER: genes 21 Torsion [C]-CA--N-[H1] |==|  0.51278
USER: genes 22 Torsion [C]-CA--CB-[CG] |==|  0.40472
USER: genes 23 Torsion [CA]-CB--CG-[CD] |==|  0.04045
USER: genes 24 Torsion [CB]-CG--CD-[NE] |==|  0.28248
USER: genes 25 Torsion [CG]-CD--NE-[HE] |==|  0.10467
ROOT
ATOM      1  CA  THR D   3      20.263 -18.731  15.856  1.00 16.13 LIG 0.20  C 
ENDROOT
BRANCH 1 2
ATOM      2  C   THR D   3      19.994 -19.337  17.243  1.00 16.95 LIG 0.24  C 
ATOM      3 O    THR D   3      19.932 -20.562  17.382  1.00 16.12 LIG-0.27  OA
ATOM      4  N   LYS D   4      19.838 -18.469  18.247  1.00 18.15 LIG-0.35  N 
ATOM      5 H    LYS D   4      19.924 -17.620  18.144  1.00 18.15 LIG 0.16  HD
BRANCH 4 6
ATOM      6  CA  LYS D   4      19.505 -18.855  19.627  1.00 19.65 LIG 0.18  C 
BRANCH 6 7
ATOM      7  C   LYS D   4      18.031 -18.616  19.881  1.00 20.62 LIG 0.24  C 
ATOM      8  N   GLN D   5      17.301 -18.238  18.836  1.00 21.55 LIG-0.35  N 
ATOM      9 H    GLN D   5      17.615 -18.127  18.043  1.00 21.55 LIG 0.16  HD
ATOM     10 O    LYS D   4      17.559 -18.786  21.009  1.00 20.86 LIG-0.27  OA
BRANCH 8 11
ATOM     11  CA  GLN D   5      15.862 -17.975  18.963  1.00 22.83 LIG 0.16  C 
BRANCH 11 12
ATOM     12  C   GLN D   5      15.150 -17.985  17.611  1.00 22.91 LIG 0.22  C 
ATOM     13 O    GLN D   5      15.314 -18.910  16.813  1.00 23.29 LIG-0.29  OA
ENDBRANCH 11 12
BRANCH 11 14
ATOM     14  CB  GLN D   5      15.606 -16.653  19.691  1.00 22.86 LIG 0.04  C 
BRANCH 14 15
ATOM     15  CG  GLN D   5      16.609 -15.556  19.380  1.00 24.40 LIG 0.10  C 
BRANCH 15 16
ATOM     16  CD  GLN D   5      17.123 -14.847  20.619  1.00 24.21 LIG 0.21  C 
ATOM     17  NE2 GLN D   5      18.411 -14.501  20.612  1.00 25.13 LIG-0.37  N 
ATOM     18 22HE GLN D   5      18.750 -14.092  21.288  1.00 25.13 LIG 0.16  HD
ATOM     19 21HE GLN D   5      18.902 -14.685  19.930  1.00 25.13 LIG 0.16  HD
ATOM     20 OE1  GLN D   5      16.371 -14.606  21.572  1.00 25.71 LIG-0.27  OA
ENDBRANCH 15 16
ENDBRANCH 14 15
ENDBRANCH 11 14
ENDBRANCH 8 11
ENDBRANCH 6 7
BRANCH 6 21
ATOM     21  CB  LYS D   4      20.283 -18.007  20.638  1.00 19.73 LIG 0.04  C 
BRANCH 21 22
ATOM     22  CG  LYS D   4      20.901 -18.756  21.787  1.00 20.49 LIG 0.00  C 
BRANCH 22 23
ATOM     23  CD  LYS D   4      22.338 -19.118  21.445  1.00 20.73 LIG 0.03  C 
BRANCH 23 24
ATOM     24  CE  LYS D   4      23.168 -19.252  22.699  1.00 20.46 LIG 0.23  C 
BRANCH 24 25
ATOM     25  NZ  LYS D   4      23.250 -17.965  23.431  1.00 20.02 LIG-0.08  N 
ATOM     26 HZ3  LYS D   4      24.099 -17.794  23.636  1.00 20.02 LIG 0.27  HD
ATOM     27 HZ1  LYS D   4      22.932 -17.311  22.918  1.00 20.02 LIG 0.27  HD
ATOM     28 HZ2  LYS D   4      22.769 -18.017  24.178  1.00 20.02 LIG 0.27  HD
ENDBRANCH 24 25
ENDBRANCH 23 24
ENDBRANCH 22 23
ENDBRANCH 21 22
ENDBRANCH 6 21
ENDBRANCH 4 6
ENDBRANCH 1 2
BRANCH 1 29
ATOM     29  CB  THR D   3      21.763 -18.834  15.520  1.00 15.86 LIG 0.15  C 
ATOM     30  CG2 THR D   3      22.106 -20.231  15.012  1.00 16.15 LIG 0.04  C 
BRANCH 29 31
ATOM     31 OG1  THR D   3      22.095 -17.876  14.507  1.00 16.19 LIG-0.39  OA
ATOM     32 HG1  THR D   3      22.885 -18.000  14.252  1.00 16.19 LIG 0.21  HD
ENDBRANCH 29 31
ENDBRANCH 1 29
BRANCH 1 33
ATOM     33  N   THR D   3      19.770 -17.355  15.695  1.00 15.75 LIG-0.34  N 
ATOM     34  C   ARG D   2      18.473 -17.053  15.777  1.00 15.31 LIG 0.24  C 
ATOM     35 O    ARG D   2      17.608 -17.882  16.050  1.00 15.17 LIG-0.27  OA
ATOM     36 H    THR D   3      20.387 -16.774  15.544  1.00 15.75 LIG 0.16  HD
BRANCH 34 37
ATOM     37  CA  ARG D   2      18.089 -15.600  15.496  1.00 15.15 LIG 0.18  C 
BRANCH 37 38
ATOM     38  N   ARG D   2      19.194 -14.669  15.750  1.00 15.89 LIG-0.35  N 
ATOM     39  C   ALA D   1      19.668 -14.374  16.962  1.00 16.91 LIG 0.25  C 
ATOM     40 O    ALA D   1      19.143 -14.760  18.014  1.00 17.32 LIG-0.27  OA
ATOM     41 H    ARG D   2      19.516 -14.323  15.031  1.00 15.89 LIG 0.16  HD
BRANCH 39 42
ATOM     42  CA  ALA D   1      20.921 -13.497  16.996  1.00 17.08 LIG 0.27  C 
ATOM     43  CB  ALA D   1      22.120 -14.227  16.350  1.00 17.48 LIG 0.05  C 
BRANCH 42 44
ATOM     44  N   ALA D   1      21.252 -13.090  18.393  1.00 17.36 LIG-0.07  N 
ATOM     45 H3   ALA D   1      21.464 -13.811  18.870  1.00 17.36 LIG 0.28  HD
ATOM     46 H2   ALA D   1      20.548 -12.688  18.760  1.00 17.36 LIG 0.28  HD
ATOM     47 H1   ALA D   1      21.942 -12.528  18.383  1.00 17.36 LIG 0.28  HD
ENDBRANCH 42 44
ENDBRANCH 39 42
ENDBRANCH 37 38
BRANCH 37 48
ATOM     48  CB  ARG D   2      17.657 -15.456  14.030  1.00 15.08 LIG 0.04  C 
BRANCH 48 49
ATOM     49  CG  ARG D   2      16.554 -14.452  13.726  1.00 14.63 LIG 0.02  C 
BRANCH 49 50
ATOM     50  CD  ARG D   2      16.332 -13.513  14.919  1.00 13.91 LIG 0.14  C 
BRANCH 50 51
ATOM     51  NE  ARG D   2      16.955 -12.205  14.716  1.00 10.79 LIG-0.23  N 
ATOM     52 HE   ARG D   2      16.933 -11.867  13.925  1.00 10.79 LIG 0.18  HD
ATOM     53  CZ  ARG D   2      17.556 -11.500  15.675  1.00 10.30 LIG 0.67  C 
ATOM     54  NH2 ARG D   2      17.611 -11.966  16.924  1.00  9.50 LIG-0.23  N 
ATOM     55  NH1 ARG D   2      18.105 -10.330  15.385  1.00  9.44 LIG-0.23  N 
ATOM     56 22HH ARG D   2      18.000 -11.506  17.537  1.00  9.50 LIG 0.17  HD
ATOM     57 21HH ARG D   2      17.257 -12.726  17.115  1.00  9.50 LIG 0.17  HD
ATOM     58 11HH ARG D   2      18.073 -10.027  14.581  1.00  9.44 LIG 0.17  HD
ATOM     59 12HH ARG D   2      18.493  -9.872  16.001  1.00  9.44 LIG 0.17  HD
ENDBRANCH 50 51
ENDBRANCH 49 50
ENDBRANCH 48 49
ENDBRANCH 37 48
ENDBRANCH 34 37
ENDBRANCH 1 33
TORSDOF 24
ENDMDL
MODEL 27
USER: ADFR SOLUTION from run 136
USER: SCORE 19.604423 LL:  -4.620 LR: -15.984 RR:   0.000 FEB:  -8.825
USER: RMSD 7.628622
USER: SEED 135
USER: STATUS no improvement in best 6 clusters for 5 generations
USER: GENES 26
USER: genes 0 Translation |==|  0.46555 0.50457 0.62366
USER: genes 1 Rotation |==|  0.20196 0.43260 0.74976 0.80700
USER: genes 2 Torsion [N]-CA--C-[N] |==|  0.19084
USER: genes 3 Torsion [C]-N--CA-[C] |==|  0.15344
USER: genes 4 Torsion [N]-CA--C-[N] |==|  0.10439
USER: genes 5 Torsion [C]-N--CA-[C] |==|  0.81108
USER: genes 6 Torsion [N]-CA--C-[O] |==|  0.16762
USER: genes 7 Torsion [N]-CA--CB-[CG] |==|  0.72697
USER: genes 8 Torsion [CA]-CB--CG-[CD] |==|  0.18129
USER: genes 9 Torsion [CB]-CG--CD-[OE1] |==|  0.75591
USER: genes 10 Torsion [N]-CA--CB-[CG] |==|  0.71654
USER: genes 11 Torsion [CA]-CB--CG-[CD] |==|  0.86041
USER: genes 12 Torsion [CB]-CG--CD-[CE] |==|  0.49661
USER: genes 13 Torsion [CG]-CD--CE-[NZ] |==|  0.81174
USER: genes 14 Torsion [CD]-CE--NZ-[HZ3] |==|  0.91406
USER: genes 15 Torsion [C]-CA--CB-[CG2] |==|  0.43902
USER: genes 16 Torsion [CA]-CB--OG1-[HG1] |==|  0.19419
USER: genes 17 Torsion [C]-CA--N-[C] |==|  0.73333
USER: genes 18 Torsion [N]-C--CA-[N] |==|  0.66579
USER: genes 19 Torsion [C]-CA--N-[C] |==|  0.14470
USER: genes 20 Torsion [N]-C--CA-[N] |==|  0.95520
USER: genes 21 Torsion [C]-CA--N-[H1] |==|  0.97785
USER: genes 22 Torsion [C]-CA--CB-[CG] |==|  0.30070
USER: genes 23 Torsion [CA]-CB--CG-[CD] |==|  0.63823
USER: genes 24 Torsion [CB]-CG--CD-[NE] |==|  0.51706
USER: genes 25 Torsion [CG]-CD--NE-[HE] |==|  0.08089
ROOT
ATOM      1  CA  THR D   3      16.967 -16.703  20.220  1.00 16.13 LIG 0.20  C 
ENDROOT
BRANCH 1 2
ATOM      2  C   THR D   3      18.000 -17.799  19.914  1.00 16.95 LIG 0.24  C 
ATOM      3 O    THR D   3      17.628 -18.905  19.511  1.00 16.12 LIG-0.27  OA
ATOM      4  N   LYS D   4      19.281 -17.475  20.111  1.00 18.15 LIG-0.35  N 
ATOM      5 H    LYS D   4      19.529 -16.689  20.353  1.00 18.15 LIG 0.16  HD
BRANCH 4 6
ATOM      6  CA  LYS D   4      20.404 -18.410  19.941  1.00 19.65 LIG 0.18  C 
BRANCH 6 7
ATOM      7  C   LYS D   4      20.364 -19.006  18.549  1.00 20.62 LIG 0.24  C 
ATOM      8  N   GLN D   5      19.990 -18.194  17.565  1.00 21.55 LIG-0.35  N 
ATOM      9 H    GLN D   5      19.777 -17.368  17.676  1.00 21.55 LIG 0.16  HD
ATOM     10 O    LYS D   4      20.681 -20.186  18.369  1.00 20.86 LIG-0.27  OA
BRANCH 8 11
ATOM     11  CA  GLN D   5      19.911 -18.662  16.175  1.00 22.83 LIG 0.16  C 
BRANCH 11 12
ATOM     12  C   GLN D   5      21.286 -18.981  15.593  1.00 22.91 LIG 0.22  C 
ATOM     13 O    GLN D   5      22.007 -19.843  16.098  1.00 23.29 LIG-0.29  OA
ENDBRANCH 11 12
BRANCH 11 14
ATOM     14  CB  GLN D   5      19.179 -17.647  15.293  1.00 22.86 LIG 0.04  C 
BRANCH 14 15
ATOM     15  CG  GLN D   5      17.714 -17.964  15.047  1.00 24.40 LIG 0.10  C 
BRANCH 15 16
ATOM     16  CD  GLN D   5      16.871 -17.903  16.306  1.00 24.21 LIG 0.21  C 
ATOM     17  NE2 GLN D   5      16.283 -16.734  16.569  1.00 25.13 LIG-0.37  N 
ATOM     18 22HE GLN D   5      15.790 -16.649  17.268  1.00 25.13 LIG 0.16  HD
ATOM     19 21HE GLN D   5      16.397 -16.067  16.038  1.00 25.13 LIG 0.16  HD
ATOM     20 OE1  GLN D   5      16.740 -18.895  17.034  1.00 25.71 LIG-0.27  OA
ENDBRANCH 15 16
ENDBRANCH 14 15
ENDBRANCH 11 14
ENDBRANCH 8 11
ENDBRANCH 6 7
BRANCH 6 21
ATOM     21  CB  LYS D   4      20.308 -19.571  20.935  1.00 19.73 LIG 0.04  C 
BRANCH 21 22
ATOM     22  CG  LYS D   4      21.213 -19.488  22.134  1.00 20.49 LIG 0.00  C 
BRANCH 22 23
ATOM     23  CD  LYS D   4      22.636 -19.203  21.679  1.00 20.73 LIG 0.03  C 
BRANCH 23 24
ATOM     24  CE  LYS D   4      23.562 -19.085  22.866  1.00 20.46 LIG 0.23  C 
BRANCH 24 25
ATOM     25  NZ  LYS D   4      23.257 -17.876  23.668  1.00 20.02 LIG-0.08  N 
ATOM     26 HZ3  LYS D   4      22.942 -17.237  23.135  1.00 20.02 LIG 0.27  HD
ATOM     27 HZ1  LYS D   4      22.648 -18.075  24.285  1.00 20.02 LIG 0.27  HD
ATOM     28 HZ2  LYS D   4      24.000 -17.590  24.067  1.00 20.02 LIG 0.27  HD
ENDBRANCH 24 25
ENDBRANCH 23 24
ENDBRANCH 22 23
ENDBRANCH 21 22
ENDBRANCH 6 21
ENDBRANCH 4 6
ENDBRANCH 1 2
BRANCH 1 29
ATOM     29  CB  THR D   3      15.556 -17.318  20.305  1.00 15.86 LIG 0.15  C 
ATOM     30  CG2 THR D   3      14.624 -16.419  21.111  1.00 16.15 LIG 0.04  C 
BRANCH 29 31
ATOM     31 OG1  THR D   3      15.022 -17.479  18.985  1.00 16.19 LIG-0.39  OA
ATOM     32 HG1  THR D   3      15.441 -18.087  18.585  1.00 16.19 LIG 0.21  HD
ENDBRANCH 29 31
ENDBRANCH 1 29
BRANCH 1 33
ATOM     33  N   THR D   3      17.001 -15.566  19.287  1.00 15.75 LIG-0.34  N 
ATOM     34  C   ARG D   2      17.675 -14.448  19.558  1.00 15.31 LIG 0.24  C 
ATOM     35 O    ARG D   2      18.361 -14.306  20.568  1.00 15.17 LIG-0.27  OA
ATOM     36 H    THR D   3      16.552 -15.690  18.563  1.00 15.75 LIG 0.16  HD
BRANCH 34 37
ATOM     37  CA  ARG D   2      17.550 -13.310  18.544  1.00 15.15 LIG 0.18  C 
BRANCH 37 38
ATOM     38  N   ARG D   2      18.844 -12.924  17.972  1.00 15.89 LIG-0.35  N 
ATOM     39  C   ALA D   1      19.707 -13.776  17.416  1.00 16.91 LIG 0.25  C 
ATOM     40 O    ALA D   1      19.564 -15.006  17.436  1.00 17.32 LIG-0.27  OA
ATOM     41 H    ARG D   2      18.999 -12.080  18.027  1.00 15.89 LIG 0.16  HD
BRANCH 39 42
ATOM     42  CA  ALA D   1      20.930 -13.149  16.745  1.00 17.08 LIG 0.27  C 
ATOM     43  CB  ALA D   1      22.201 -13.380  17.593  1.00 17.48 LIG 0.05  C 
BRANCH 42 44
ATOM     44  N   ALA D   1      20.722 -11.690  16.509  1.00 17.36 LIG-0.07  N 
ATOM     45 H3   ALA D   1      20.892 -11.499  15.656  1.00 17.36 LIG 0.28  HD
ATOM     46 H2   ALA D   1      21.270 -11.223  17.033  1.00 17.36 LIG 0.28  HD
ATOM     47 H1   ALA D   1      19.878 -11.475  16.698  1.00 17.36 LIG 0.28  HD
ENDBRANCH 42 44
ENDBRANCH 39 42
ENDBRANCH 37 38
BRANCH 37 48
ATOM     48  CB  ARG D   2      16.620 -13.741  17.400  1.00 15.08 LIG 0.04  C 
BRANCH 48 49
ATOM     49  CG  ARG D   2      15.243 -13.094  17.342  1.00 14.63 LIG 0.02  C 
BRANCH 49 50
ATOM     50  CD  ARG D   2      14.150 -14.160  17.193  1.00 13.91 LIG 0.14  C 
BRANCH 50 51
ATOM     51  NE  ARG D   2      12.826 -13.571  16.990  1.00 10.79 LIG-0.23  N 
ATOM     52 HE   ARG D   2      12.783 -12.805  16.600  1.00 10.79 LIG 0.18  HD
ATOM     53  CZ  ARG D   2      11.683 -14.141  17.369  1.00 10.30 LIG 0.67  C 
ATOM     54  NH2 ARG D   2      11.686 -15.334  17.966  1.00  9.50 LIG-0.23  N 
ATOM     55  NH1 ARG D   2      10.534 -13.517  17.152  1.00  9.44 LIG-0.23  N 
ATOM     56 22HH ARG D   2      10.944 -15.695  18.207  1.00  9.50 LIG 0.17  HD
ATOM     57 21HH ARG D   2      12.430 -15.741  18.109  1.00  9.50 LIG 0.17  HD
ATOM     58 11HH ARG D   2      10.529 -12.747  16.769  1.00  9.44 LIG 0.17  HD
ATOM     59 12HH ARG D   2       9.794 -13.882  17.395  1.00  9.44 LIG 0.17  HD
ENDBRANCH 50 51
ENDBRANCH 49 50
ENDBRANCH 48 49
ENDBRANCH 37 48
ENDBRANCH 34 37
ENDBRANCH 1 33
TORSDOF 24
ENDMDL
MODEL 28
USER: ADFR SOLUTION from run 97
USER: SCORE 18.207711 LL:  -2.692 LR: -15.971 RR:   0.000 FEB:  -8.812
USER: RMSD 8.024663
USER: SEED 96
USER: STATUS no improvement in best 6 clusters for 5 generations
USER: GENES 26
USER: genes 0 Translation |==|  0.45676 0.50690 0.59814
USER: genes 1 Rotation |==|  0.13209 0.45765 0.68014 0.78355
USER: genes 2 Torsion [N]-CA--C-[N] |==|  0.06875
USER: genes 3 Torsion [C]-N--CA-[C] |==|  0.73341
USER: genes 4 Torsion [N]-CA--C-[N] |==|  0.49360
USER: genes 5 Torsion [C]-N--CA-[C] |==|  0.82063
USER: genes 6 Torsion [N]-CA--C-[O] |==|  0.14633
USER: genes 7 Torsion [N]-CA--CB-[CG] |==|  0.33801
USER: genes 8 Torsion [CA]-CB--CG-[CD] |==|  0.61916
USER: genes 9 Torsion [CB]-CG--CD-[OE1] |==|  0.99683
USER: genes 10 Torsion [N]-CA--CB-[CG] |==|  0.78313
USER: genes 11 Torsion [CA]-CB--CG-[CD] |==|  0.40532
USER: genes 12 Torsion [CB]-CG--CD-[CE] |==|  0.22280
USER: genes 13 Torsion [CG]-CD--CE-[NZ] |==|  0.32338
USER: genes 14 Torsion [CD]-CE--NZ-[HZ3] |==|  0.64286
USER: genes 15 Torsion [C]-CA--CB-[CG2] |==|  0.24849
USER: genes 16 Torsion [CA]-CB--OG1-[HG1] |==|  0.16516
USER: genes 17 Torsion [C]-CA--N-[C] |==|  0.15556
USER: genes 18 Torsion [N]-C--CA-[N] |==|  0.95850
USER: genes 19 Torsion [C]-CA--N-[C] |==|  0.80812
USER: genes 20 Torsion [N]-C--CA-[N] |==|  0.28502
USER: genes 21 Torsion [C]-CA--N-[H1] |==|  0.87834
USER: genes 22 Torsion [C]-CA--CB-[CG] |==|  0.46552
USER: genes 23 Torsion [CA]-CB--CG-[CD] |==|  0.32480
USER: genes 24 Torsion [CB]-CG--CD-[NE] |==|  0.97474
USER: genes 25 Torsion [CG]-CD--NE-[HE] |==|  0.17146
ROOT
ATOM      1  CA  THR D   3      16.703 -16.633  19.454  1.00 16.13 LIG 0.20  C 
ENDROOT
BRANCH 1 2
ATOM      2  C   THR D   3      17.474 -17.943  19.681  1.00 16.95 LIG 0.24  C 
ATOM      3 O    THR D   3      16.916 -18.905  20.217  1.00 16.12 LIG-0.27  OA
ATOM      4  N   LYS D   4      18.745 -17.960  19.268  1.00 18.15 LIG-0.35  N 
ATOM      5 H    LYS D   4      19.108 -17.297  18.859  1.00 18.15 LIG 0.16  HD
BRANCH 4 6
ATOM      6  CA  LYS D   4      19.660 -19.096  19.462  1.00 19.65 LIG 0.18  C 
BRANCH 6 7
ATOM      7  C   LYS D   4      20.495 -18.869  20.704  1.00 20.62 LIG 0.24  C 
ATOM      8  N   GLN D   5      21.342 -19.839  21.038  1.00 21.55 LIG-0.35  N 
ATOM      9 H    GLN D   5      21.438 -20.569  20.593  1.00 21.55 LIG 0.16  HD
ATOM     10 O    LYS D   4      20.382 -17.821  21.346  1.00 20.86 LIG-0.27  OA
BRANCH 8 11
ATOM     11  CA  GLN D   5      22.200 -19.732  22.224  1.00 22.83 LIG 0.16  C 
BRANCH 11 12
ATOM     12  C   GLN D   5      23.211 -18.593  22.105  1.00 22.91 LIG 0.22  C 
ATOM     13 O    GLN D   5      22.851 -17.448  21.828  1.00 23.29 LIG-0.29  OA
ENDBRANCH 11 12
BRANCH 11 14
ATOM     14  CB  GLN D   5      22.917 -21.054  22.508  1.00 22.86 LIG 0.04  C 
BRANCH 14 15
ATOM     15  CG  GLN D   5      24.432 -20.962  22.522  1.00 24.40 LIG 0.10  C 
BRANCH 15 16
ATOM     16  CD  GLN D   5      25.108 -22.113  21.802  1.00 24.21 LIG 0.21  C 
ATOM     17  NE2 GLN D   5      26.441 -22.086  21.761  1.00 25.13 LIG-0.37  N 
ATOM     18 22HE GLN D   5      26.872 -22.718  21.369  1.00 25.13 LIG 0.16  HD
ATOM     19 21HE GLN D   5      26.869 -21.436  22.129  1.00 25.13 LIG 0.16  HD
ATOM     20 OE1  GLN D   5      24.443 -23.023  21.291  1.00 25.71 LIG-0.27  OA
ENDBRANCH 15 16
ENDBRANCH 14 15
ENDBRANCH 11 14
ENDBRANCH 8 11
ENDBRANCH 6 7
BRANCH 6 21
ATOM     21  CB  LYS D   4      20.628 -19.228  18.282  1.00 19.73 LIG 0.04  C 
BRANCH 21 22
ATOM     22  CG  LYS D   4      20.066 -19.861  17.038  1.00 20.49 LIG 0.00  C 
BRANCH 22 23
ATOM     23  CD  LYS D   4      20.699 -19.224  15.811  1.00 20.73 LIG 0.03  C 
BRANCH 23 24
ATOM     24  CE  LYS D   4      22.065 -19.810  15.550  1.00 20.46 LIG 0.23  C 
BRANCH 24 25
ATOM     25  NZ  LYS D   4      22.105 -20.524  14.251  1.00 20.02 LIG-0.08  N 
ATOM     26 HZ3  LYS D   4      22.434 -21.342  14.371  1.00 20.02 LIG 0.27  HD
ATOM     27 HZ1  LYS D   4      21.282 -20.582  13.919  1.00 20.02 LIG 0.27  HD
ATOM     28 HZ2  LYS D   4      22.623 -20.076  13.682  1.00 20.02 LIG 0.27  HD
ENDBRANCH 24 25
ENDBRANCH 23 24
ENDBRANCH 22 23
ENDBRANCH 21 22
ENDBRANCH 6 21
ENDBRANCH 4 6
ENDBRANCH 1 2
BRANCH 1 29
ATOM     29  CB  THR D   3      15.202 -16.931  19.269  1.00 15.86 LIG 0.15  C 
ATOM     30  CG2 THR D   3      14.482 -16.922  20.614  1.00 16.15 LIG 0.04  C 
BRANCH 29 31
ATOM     31 OG1  THR D   3      14.616 -15.937  18.420  1.00 16.19 LIG-0.39  OA
ATOM     32 HG1  THR D   3      15.002 -15.942  17.674  1.00 16.19 LIG 0.21  HD
ENDBRANCH 29 31
ENDBRANCH 1 29
BRANCH 1 33
ATOM     33  N   THR D   3      17.226 -15.809  18.354  1.00 15.75 LIG-0.34  N 
ATOM     34  C   ARG D   2      17.355 -16.283  17.114  1.00 15.31 LIG 0.24  C 
ATOM     35 O    ARG D   2      16.997 -17.413  16.787  1.00 15.17 LIG-0.27  OA
ATOM     36 H    THR D   3      17.436 -15.007  18.583  1.00 15.75 LIG 0.16  HD
BRANCH 34 37
ATOM     37  CA  ARG D   2      17.999 -15.350  16.088  1.00 15.15 LIG 0.18  C 
BRANCH 37 38
ATOM     38  N   ARG D   2      18.053 -13.960  16.551  1.00 15.89 LIG-0.35  N 
ATOM     39  C   ALA D   1      16.985 -13.175  16.707  1.00 16.91 LIG 0.25  C 
ATOM     40 O    ALA D   1      15.843 -13.498  16.357  1.00 17.32 LIG-0.27  OA
ATOM     41 H    ARG D   2      18.853 -13.690  16.717  1.00 15.89 LIG 0.16  HD
BRANCH 39 42
ATOM     42  CA  ALA D   1      17.246 -11.808  17.343  1.00 17.08 LIG 0.27  C 
ATOM     43  CB  ALA D   1      16.195 -11.501  18.434  1.00 17.48 LIG 0.05  C 
BRANCH 42 44
ATOM     44  N   ALA D   1      17.253 -10.730  16.312  1.00 17.36 LIG-0.07  N 
ATOM     45 H3   ALA D   1      17.631  -9.998  16.650  1.00 17.36 LIG 0.28  HD
ATOM     46 H2   ALA D   1      16.417 -10.547  16.067  1.00 17.36 LIG 0.28  HD
ATOM     47 H1   ALA D   1      17.717 -11.001  15.601  1.00 17.36 LIG 0.28  HD
ENDBRANCH 42 44
ENDBRANCH 39 42
ENDBRANCH 37 38
BRANCH 37 48
ATOM     48  CB  ARG D   2      19.430 -15.822  15.790  1.00 15.08 LIG 0.04  C 
BRANCH 48 49
ATOM     49  CG  ARG D   2      20.130 -15.202  14.588  1.00 14.63 LIG 0.02  C 
BRANCH 49 50
ATOM     50  CD  ARG D   2      21.369 -14.413  15.032  1.00 13.91 LIG 0.14  C 
BRANCH 50 51
ATOM     51  NE  ARG D   2      21.445 -14.274  16.486  1.00 10.79 LIG-0.23  N 
ATOM     52 HE   ARG D   2      21.510 -14.992  16.955  1.00 10.79 LIG 0.18  HD
ATOM     53  CZ  ARG D   2      21.420 -13.109  17.133  1.00 10.30 LIG 0.67  C 
ATOM     54  NH2 ARG D   2      21.334 -11.962  16.460  1.00  9.50 LIG-0.23  N 
ATOM     55  NH1 ARG D   2      21.479 -13.092  18.457  1.00  9.44 LIG-0.23  N 
ATOM     56 22HH ARG D   2      21.318 -11.215  16.884  1.00  9.50 LIG 0.17  HD
ATOM     57 21HH ARG D   2      21.294 -11.969  15.601  1.00  9.50 LIG 0.17  HD
ATOM     58 11HH ARG D   2      21.533 -13.830  18.895  1.00  9.44 LIG 0.17  HD
ATOM     59 12HH ARG D   2      21.464 -12.342  18.878  1.00  9.44 LIG 0.17  HD
ENDBRANCH 50 51
ENDBRANCH 49 50
ENDBRANCH 48 49
ENDBRANCH 37 48
ENDBRANCH 34 37
ENDBRANCH 1 33
TORSDOF 24
ENDMDL
MODEL 29
USER: ADFR SOLUTION from run 117
USER: SCORE 17.738974 LL:  -2.986 LR: -15.970 RR:   0.000 FEB:  -8.810
USER: RMSD 6.233358
USER: SEED 116
USER: STATUS no improvement in best 9 clusters for 5 generations
USER: GENES 26
USER: genes 0 Translation |==|  0.52625 0.43071 0.60097
USER: genes 1 Rotation |==|  0.65978 0.86341 0.46083 0.80144
USER: genes 2 Torsion [N]-CA--C-[N] |==|  0.90328
USER: genes 3 Torsion [C]-N--CA-[C] |==|  0.79794
USER: genes 4 Torsion [N]-CA--C-[N] |==|  0.90559
USER: genes 5 Torsion [C]-N--CA-[C] |==|  0.13696
USER: genes 6 Torsion [N]-CA--C-[O] |==|  0.17528
USER: genes 7 Torsion [N]-CA--CB-[CG] |==|  0.65293
USER: genes 8 Torsion [CA]-CB--CG-[CD] |==|  0.60060
USER: genes 9 Torsion [CB]-CG--CD-[OE1] |==|  0.04153
USER: genes 10 Torsion [N]-CA--CB-[CG] |==|  0.21339
USER: genes 11 Torsion [CA]-CB--CG-[CD] |==|  0.44199
USER: genes 12 Torsion [CB]-CG--CD-[CE] |==|  0.57831
USER: genes 13 Torsion [CG]-CD--CE-[NZ] |==|  0.77749
USER: genes 14 Torsion [CD]-CE--NZ-[HZ3] |==|  0.98733
USER: genes 15 Torsion [C]-CA--CB-[CG2] |==|  0.79992
USER: genes 16 Torsion [CA]-CB--OG1-[HG1] |==|  0.65603
USER: genes 17 Torsion [C]-CA--N-[C] |==|  0.85383
USER: genes 18 Torsion [N]-C--CA-[N] |==|  0.75093
USER: genes 19 Torsion [C]-CA--N-[C] |==|  0.14545
USER: genes 20 Torsion [N]-C--CA-[N] |==|  0.49362
USER: genes 21 Torsion [C]-CA--N-[H1] |==|  0.65221
USER: genes 22 Torsion [C]-CA--CB-[CG] |==|  0.14763
USER: genes 23 Torsion [CA]-CB--CG-[CD] |==|  0.41390
USER: genes 24 Torsion [CB]-CG--CD-[NE] |==|  0.70735
USER: genes 25 Torsion [CG]-CD--NE-[HE] |==|  0.82644
ROOT
ATOM      1  CA  THR D   3      18.788 -18.919  19.539  1.00 16.13 LIG 0.20  C 
ENDROOT
BRANCH 1 2
ATOM      2  C   THR D   3      17.565 -18.227  20.162  1.00 16.95 LIG 0.24  C 
ATOM      3 O    THR D   3      16.648 -18.903  20.640  1.00 16.12 LIG-0.27  OA
ATOM      4  N   LYS D   4      17.569 -16.891  20.147  1.00 18.15 LIG-0.35  N 
ATOM      5 H    LYS D   4      18.232 -16.433  19.848  1.00 18.15 LIG 0.16  HD
BRANCH 4 6
ATOM      6  CA  LYS D   4      16.458 -16.056  20.631  1.00 19.65 LIG 0.18  C 
BRANCH 6 7
ATOM      7  C   LYS D   4      15.304 -16.128  19.654  1.00 20.62 LIG 0.24  C 
ATOM      8  N   GLN D   5      15.620 -16.247  18.367  1.00 21.55 LIG-0.35  N 
ATOM      9 H    GLN D   5      16.426 -16.285  18.070  1.00 21.55 LIG 0.16  HD
ATOM     10 O    LYS D   4      14.140 -16.090  20.063  1.00 20.86 LIG-0.27  OA
BRANCH 8 11
ATOM     11  CA  GLN D   5      14.584 -16.322  17.329  1.00 22.83 LIG 0.16  C 
BRANCH 11 12
ATOM     12  C   GLN D   5      13.539 -15.217  17.473  1.00 22.91 LIG 0.22  C 
ATOM     13 O    GLN D   5      13.848 -14.030  17.362  1.00 23.29 LIG-0.29  OA
ENDBRANCH 11 12
BRANCH 11 14
ATOM     14  CB  GLN D   5      13.911 -17.697  17.322  1.00 22.86 LIG 0.04  C 
BRANCH 14 15
ATOM     15  CG  GLN D   5      13.939 -18.407  15.980  1.00 24.40 LIG 0.10  C 
BRANCH 15 16
ATOM     16  CD  GLN D   5      12.679 -19.205  15.699  1.00 24.21 LIG 0.21  C 
ATOM     17  NE2 GLN D   5      12.751 -20.096  14.709  1.00 25.13 LIG-0.37  N 
ATOM     18 22HE GLN D   5      12.066 -20.577  14.513  1.00 25.13 LIG 0.16  HD
ATOM     19 21HE GLN D   5      13.483 -20.190  14.267  1.00 25.13 LIG 0.16  HD
ATOM     20 OE1  GLN D   5      11.653 -19.029  16.367  1.00 25.71 LIG-0.27  OA
ENDBRANCH 15 16
ENDBRANCH 14 15
ENDBRANCH 11 14
ENDBRANCH 8 11
ENDBRANCH 6 7
BRANCH 6 21
ATOM     21  CB  LYS D   4      16.878 -14.587  20.731  1.00 19.73 LIG 0.04  C 
BRANCH 21 22
ATOM     22  CG  LYS D   4      16.947 -13.833  19.431  1.00 20.49 LIG 0.00  C 
BRANCH 22 23
ATOM     23  CD  LYS D   4      16.860 -12.339  19.703  1.00 20.73 LIG 0.03  C 
BRANCH 23 24
ATOM     24  CE  LYS D   4      16.251 -11.617  18.527  1.00 20.46 LIG 0.23  C 
BRANCH 24 25
ATOM     25  NZ  LYS D   4      17.250 -11.395  17.455  1.00 20.02 LIG-0.08  N 
ATOM     26 HZ3  LYS D   4      18.049 -11.673  17.731  1.00 20.02 LIG 0.27  HD
ATOM     27 HZ1  LYS D   4      17.013 -11.851  16.729  1.00 20.02 LIG 0.27  HD
ATOM     28 HZ2  LYS D   4      17.289 -10.527  17.260  1.00 20.02 LIG 0.27  HD
ENDBRANCH 24 25
ENDBRANCH 23 24
ENDBRANCH 22 23
ENDBRANCH 21 22
ENDBRANCH 6 21
ENDBRANCH 4 6
ENDBRANCH 1 2
BRANCH 1 29
ATOM     29  CB  THR D   3      19.857 -19.170  20.620  1.00 15.86 LIG 0.15  C 
ATOM     30  CG2 THR D   3      20.520 -17.860  21.036  1.00 16.15 LIG 0.04  C 
BRANCH 29 31
ATOM     31 OG1  THR D   3      19.246 -19.769  21.770  1.00 16.19 LIG-0.39  OA
ATOM     32 HG1  THR D   3      19.404 -19.300  22.448  1.00 16.19 LIG 0.21  HD
ENDBRANCH 29 31
ENDBRANCH 1 29
BRANCH 1 33
ATOM     33  N   THR D   3      19.353 -18.212  18.379  1.00 15.75 LIG-0.34  N 
ATOM     34  C   ARG D   2      18.604 -17.850  17.337  1.00 15.31 LIG 0.24  C 
ATOM     35 O    ARG D   2      17.388 -18.024  17.292  1.00 15.17 LIG-0.27  OA
ATOM     36 H    THR D   3      20.198 -18.058  18.438  1.00 15.75 LIG 0.16  HD
BRANCH 34 37
ATOM     37  CA  ARG D   2      19.336 -17.206  16.159  1.00 15.15 LIG 0.18  C 
BRANCH 37 38
ATOM     38  N   ARG D   2      19.429 -15.748  16.286  1.00 15.89 LIG-0.35  N 
ATOM     39  C   ALA D   1      19.904 -15.114  17.360  1.00 16.91 LIG 0.25  C 
ATOM     40 O    ALA D   1      20.201 -15.686  18.416  1.00 17.32 LIG-0.27  OA
ATOM     41 H    ARG D   2      19.145 -15.330  15.590  1.00 15.89 LIG 0.16  HD
BRANCH 39 42
ATOM     42  CA  ALA D   1      20.055 -13.597  17.230  1.00 17.08 LIG 0.27  C 
ATOM     43  CB  ALA D   1      21.011 -13.239  16.070  1.00 17.48 LIG 0.05  C 
BRANCH 42 44
ATOM     44  N   ALA D   1      20.539 -12.996  18.507  1.00 17.36 LIG-0.07  N 
ATOM     45 H3   ALA D   1      21.349 -12.648  18.383  1.00 17.36 LIG 0.28  HD
ATOM     46 H2   ALA D   1      20.579 -13.625  19.135  1.00 17.36 LIG 0.28  HD
ATOM     47 H1   ALA D   1      19.978 -12.354  18.765  1.00 17.36 LIG 0.28  HD
ENDBRANCH 42 44
ENDBRANCH 39 42
ENDBRANCH 37 38
BRANCH 37 48
ATOM     48  CB  ARG D   2      20.758 -17.779  16.061  1.00 15.08 LIG 0.04  C 
BRANCH 48 49
ATOM     49  CG  ARG D   2      20.895 -19.294  16.009  1.00 14.63 LIG 0.02  C 
BRANCH 49 50
ATOM     50  CD  ARG D   2      22.125 -19.698  15.186  1.00 13.91 LIG 0.14  C 
BRANCH 50 51
ATOM     51  NE  ARG D   2      21.763 -20.218  13.867  1.00 10.79 LIG-0.23  N 
ATOM     52 HE   ARG D   2      21.289 -20.936  13.835  1.00 10.79 LIG 0.18  HD
ATOM     53  CZ  ARG D   2      22.117 -19.655  12.713  1.00 10.30 LIG 0.67  C 
ATOM     54  NH2 ARG D   2      22.840 -18.535  12.699  1.00  9.50 LIG-0.23  N 
ATOM     55  NH1 ARG D   2      21.751 -20.215  11.569  1.00  9.44 LIG-0.23  N 
ATOM     56 22HH ARG D   2      23.065 -18.177  11.951  1.00  9.50 LIG 0.17  HD
ATOM     57 21HH ARG D   2      23.081 -18.170  13.440  1.00  9.50 LIG 0.17  HD
ATOM     58 11HH ARG D   2      21.286 -20.938  11.574  1.00  9.44 LIG 0.17  HD
ATOM     59 12HH ARG D   2      21.978 -19.854  10.821  1.00  9.44 LIG 0.17  HD
ENDBRANCH 50 51
ENDBRANCH 49 50
ENDBRANCH 48 49
ENDBRANCH 37 48
ENDBRANCH 34 37
ENDBRANCH 1 33
TORSDOF 24
ENDMDL
MODEL 30
USER: ADFR SOLUTION from run 9
USER: SCORE 18.691139 LL:  -3.165 LR: -15.960 RR:   0.000 FEB:  -8.801
USER: RMSD 8.330244
USER: SEED 96922
USER: STATUS no improvement in best 6 clusters for 5 generations
USER: GENES 26
USER: genes 0 Translation |==|  0.55965 0.44255 0.47559
USER: genes 1 Rotation |==|  0.71713 0.93175 0.51581 0.62725
USER: genes 2 Torsion [N]-CA--C-[N] |==|  0.92859
USER: genes 3 Torsion [C]-N--CA-[C] |==|  0.18895
USER: genes 4 Torsion [N]-CA--C-[N] |==|  0.01852
USER: genes 5 Torsion [C]-N--CA-[C] |==|  0.16352
USER: genes 6 Torsion [N]-CA--C-[O] |==|  0.75487
USER: genes 7 Torsion [N]-CA--CB-[CG] |==|  0.45796
USER: genes 8 Torsion [CA]-CB--CG-[CD] |==|  0.21121
USER: genes 9 Torsion [CB]-CG--CD-[OE1] |==|  0.76489
USER: genes 10 Torsion [N]-CA--CB-[CG] |==|  0.70749
USER: genes 11 Torsion [CA]-CB--CG-[CD] |==|  0.81384
USER: genes 12 Torsion [CB]-CG--CD-[CE] |==|  0.25305
USER: genes 13 Torsion [CG]-CD--CE-[NZ] |==|  0.68021
USER: genes 14 Torsion [CD]-CE--NZ-[HZ3] |==|  0.20710
USER: genes 15 Torsion [C]-CA--CB-[CG2] |==|  0.71967
USER: genes 16 Torsion [CA]-CB--OG1-[HG1] |==|  0.40887
USER: genes 17 Torsion [C]-CA--N-[C] |==|  0.81695
USER: genes 18 Torsion [N]-C--CA-[N] |==|  0.86759
USER: genes 19 Torsion [C]-CA--N-[C] |==|  0.83653
USER: genes 20 Torsion [N]-C--CA-[N] |==|  0.40549
USER: genes 21 Torsion [C]-CA--N-[H1] |==|  0.32628
USER: genes 22 Torsion [C]-CA--CB-[CG] |==|  0.03885
USER: genes 23 Torsion [CA]-CB--CG-[CD] |==|  0.62178
USER: genes 24 Torsion [CB]-CG--CD-[NE] |==|  0.36324
USER: genes 25 Torsion [CG]-CD--NE-[HE] |==|  0.17940
ROOT
ATOM      1  CA  THR D   3      19.789 -18.564  15.778  1.00 16.13 LIG 0.20  C 
ENDROOT
BRANCH 1 2
ATOM      2  C   THR D   3      19.217 -18.476  17.201  1.00 16.95 LIG 0.24  C 
ATOM      3 O    THR D   3      18.754 -19.482  17.746  1.00 16.12 LIG-0.27  OA
ATOM      4  N   LYS D   4      19.258 -17.273  17.782  1.00 18.15 LIG-0.35  N 
ATOM      5 H    LYS D   4      19.620 -16.589  17.408  1.00 18.15 LIG 0.16  HD
BRANCH 4 6
ATOM      6  CA  LYS D   4      18.696 -16.977  19.109  1.00 19.65 LIG 0.18  C 
BRANCH 6 7
ATOM      7  C   LYS D   4      19.503 -17.692  20.173  1.00 20.62 LIG 0.24  C 
ATOM      8  N   GLN D   5      20.606 -18.314  19.767  1.00 21.55 LIG-0.35  N 
ATOM      9 H    GLN D   5      20.878 -18.329  18.951  1.00 21.55 LIG 0.16  HD
ATOM     10 O    LYS D   4      19.135 -17.669  21.352  1.00 20.86 LIG-0.27  OA
BRANCH 8 11
ATOM     11  CA  GLN D   5      21.465 -19.042  20.709  1.00 22.83 LIG 0.16  C 
BRANCH 11 12
ATOM     12  C   GLN D   5      20.714 -20.159  21.432  1.00 22.91 LIG 0.22  C 
ATOM     13 O    GLN D   5      20.107 -19.941  22.482  1.00 23.29 LIG-0.29  OA
ENDBRANCH 11 12
BRANCH 11 14
ATOM     14  CB  GLN D   5      22.108 -18.089  21.719  1.00 22.86 LIG 0.04  C 
BRANCH 14 15
ATOM     15  CG  GLN D   5      22.712 -18.770  22.935  1.00 24.40 LIG 0.10  C 
BRANCH 15 16
ATOM     16  CD  GLN D   5      24.038 -19.446  22.643  1.00 24.21 LIG 0.21  C 
ATOM     17  NE2 GLN D   5      25.136 -18.740  22.920  1.00 25.13 LIG-0.37  N 
ATOM     18 22HE GLN D   5      25.912 -19.080  22.777  1.00 25.13 LIG 0.16  HD
ATOM     19 21HE GLN D   5      25.066 -17.946  23.242  1.00 25.13 LIG 0.16  HD
ATOM     20 OE1  GLN D   5      24.080 -20.592  22.179  1.00 25.71 LIG-0.27  OA
ENDBRANCH 15 16
ENDBRANCH 14 15
ENDBRANCH 11 14
ENDBRANCH 8 11
ENDBRANCH 6 7
BRANCH 6 21
ATOM     21  CB  LYS D   4      17.253 -17.479  19.220  1.00 19.73 LIG 0.04  C 
BRANCH 21 22
ATOM     22  CG  LYS D   4      16.184 -16.423  19.163  1.00 20.49 LIG 0.00  C 
BRANCH 22 23
ATOM     23  CD  LYS D   4      16.270 -15.544  20.401  1.00 20.73 LIG 0.03  C 
BRANCH 23 24
ATOM     24  CE  LYS D   4      17.167 -14.356  20.150  1.00 20.46 LIG 0.23  C 
BRANCH 24 25
ATOM     25  NZ  LYS D   4      18.375 -14.404  21.008  1.00 20.02 LIG-0.08  N 
ATOM     26 HZ3  LYS D   4      18.936 -15.020  20.698  1.00 20.02 LIG 0.27  HD
ATOM     27 HZ1  LYS D   4      18.775 -13.609  21.002  1.00 20.02 LIG 0.27  HD
ATOM     28 HZ2  LYS D   4      18.139 -14.610  21.842  1.00 20.02 LIG 0.27  HD
ENDBRANCH 24 25
ENDBRANCH 23 24
ENDBRANCH 22 23
ENDBRANCH 21 22
ENDBRANCH 6 21
ENDBRANCH 4 6
ENDBRANCH 1 2
BRANCH 1 29
ATOM     29  CB  THR D   3      21.214 -19.149  15.819  1.00 15.86 LIG 0.15  C 
ATOM     30  CG2 THR D   3      22.255 -18.039  15.696  1.00 16.15 LIG 0.04  C 
BRANCH 29 31
ATOM     31 OG1  THR D   3      21.414 -19.840  17.058  1.00 16.19 LIG-0.39  OA
ATOM     32 HG1  THR D   3      21.930 -20.491  16.936  1.00 16.19 LIG 0.21  HD
ENDBRANCH 29 31
ENDBRANCH 1 29
BRANCH 1 33
ATOM     33  N   THR D   3      19.752 -17.295  15.034  1.00 15.75 LIG-0.34  N 
ATOM     34  C   ARG D   2      18.604 -16.717  14.679  1.00 15.31 LIG 0.24  C 
ATOM     35 O    ARG D   2      17.502 -17.163  14.993  1.00 15.17 LIG-0.27  OA
ATOM     36 H    THR D   3      20.527 -16.968  14.854  1.00 15.75 LIG 0.16  HD
BRANCH 34 37
ATOM     37  CA  ARG D   2      18.710 -15.450  13.829  1.00 15.15 LIG 0.18  C 
BRANCH 37 38
ATOM     38  N   ARG D   2      19.681 -14.493  14.368  1.00 15.89 LIG-0.35  N 
ATOM     39  C   ALA D   1      19.614 -13.956  15.588  1.00 16.91 LIG 0.25  C 
ATOM     40 O    ALA D   1      18.653 -14.113  16.351  1.00 17.32 LIG-0.27  OA
ATOM     41 H    ARG D   2      20.313 -14.305  13.814  1.00 15.89 LIG 0.16  HD
BRANCH 39 42
ATOM     42  CA  ALA D   1      20.808 -13.097  16.008  1.00 17.08 LIG 0.27  C 
ATOM     43  CB  ALA D   1      21.871 -13.953  16.732  1.00 17.48 LIG 0.05  C 
BRANCH 42 44
ATOM     44  N   ALA D   1      20.373 -11.965  16.878  1.00 17.36 LIG-0.07  N 
ATOM     45 H3   ALA D   1      19.487 -11.978  16.962  1.00 17.36 LIG 0.28  HD
ATOM     46 H2   ALA D   1      20.625 -11.195  16.511  1.00 17.36 LIG 0.28  HD
ATOM     47 H1   ALA D   1      20.748 -12.046  17.682  1.00 17.36 LIG 0.28  HD
ENDBRANCH 42 44
ENDBRANCH 39 42
ENDBRANCH 37 38
BRANCH 37 48
ATOM     48  CB  ARG D   2      19.132 -15.823  12.400  1.00 15.08 LIG 0.04  C 
BRANCH 48 49
ATOM     49  CG  ARG D   2      19.042 -17.291  12.009  1.00 14.63 LIG 0.02  C 
BRANCH 49 50
ATOM     50  CD  ARG D   2      20.295 -17.724  11.237  1.00 13.91 LIG 0.14  C 
BRANCH 50 51
ATOM     51  NE  ARG D   2      20.871 -18.960  11.765  1.00 10.79 LIG-0.23  N 
ATOM     52 HE   ARG D   2      20.402 -19.679  11.706  1.00 10.79 LIG 0.18  HD
ATOM     53  CZ  ARG D   2      22.074 -19.048  12.333  1.00 10.30 LIG 0.67  C 
ATOM     54  NH2 ARG D   2      22.851 -17.970  12.442  1.00  9.50 LIG-0.23  N 
ATOM     55  NH1 ARG D   2      22.498 -20.215  12.796  1.00  9.44 LIG-0.23  N 
ATOM     56 22HH ARG D   2      23.625 -18.034  12.810  1.00  9.50 LIG 0.17  HD
ATOM     57 21HH ARG D   2      22.578 -17.211  12.144  1.00  9.50 LIG 0.17  HD
ATOM     58 11HH ARG D   2      21.999 -20.912  12.728  1.00  9.44 LIG 0.17  HD
ATOM     59 12HH ARG D   2      23.274 -20.275  13.162  1.00  9.44 LIG 0.17  HD
ENDBRANCH 50 51
ENDBRANCH 49 50
ENDBRANCH 48 49
ENDBRANCH 37 48
ENDBRANCH 34 37
ENDBRANCH 1 33
TORSDOF 24
ENDMDL
MODEL 31
USER: ADFR SOLUTION from run 131
USER: SCORE 18.080835 LL:  -2.619 LR: -15.958 RR:   0.000 FEB:  -8.799
USER: RMSD 9.339752
USER: SEED 130
USER: STATUS no improvement in best 7 clusters for 5 generations
USER: GENES 26
USER: genes 0 Translation |==|  0.53937 0.43323 0.49720
USER: genes 1 Rotation |==|  0.38911 0.05187 0.68852 0.53661
USER: genes 2 Torsion [N]-CA--C-[N] |==|  0.27408
USER: genes 3 Torsion [C]-N--CA-[C] |==|  0.66336
USER: genes 4 Torsion [N]-CA--C-[N] |==|  0.38062
USER: genes 5 Torsion [C]-N--CA-[C] |==|  0.56911
USER: genes 6 Torsion [N]-CA--C-[O] |==|  0.72596
USER: genes 7 Torsion [N]-CA--CB-[CG] |==|  0.51876
USER: genes 8 Torsion [CA]-CB--CG-[CD] |==|  0.67707
USER: genes 9 Torsion [CB]-CG--CD-[OE1] |==|  0.29610
USER: genes 10 Torsion [N]-CA--CB-[CG] |==|  0.85649
USER: genes 11 Torsion [CA]-CB--CG-[CD] |==|  0.87822
USER: genes 12 Torsion [CB]-CG--CD-[CE] |==|  0.64804
USER: genes 13 Torsion [CG]-CD--CE-[NZ] |==|  0.47958
USER: genes 14 Torsion [CD]-CE--NZ-[HZ3] |==|  0.70528
USER: genes 15 Torsion [C]-CA--CB-[CG2] |==|  0.79391
USER: genes 16 Torsion [CA]-CB--OG1-[HG1] |==|  0.17683
USER: genes 17 Torsion [C]-CA--N-[C] |==|  0.75973
USER: genes 18 Torsion [N]-C--CA-[N] |==|  0.40556
USER: genes 19 Torsion [C]-CA--N-[C] |==|  0.60583
USER: genes 20 Torsion [N]-C--CA-[N] |==|  0.73465
USER: genes 21 Torsion [C]-CA--N-[H1] |==|  0.48460
USER: genes 22 Torsion [C]-CA--CB-[CG] |==|  0.90334
USER: genes 23 Torsion [CA]-CB--CG-[CD] |==|  0.72523
USER: genes 24 Torsion [CB]-CG--CD-[NE] |==|  0.01311
USER: genes 25 Torsion [CG]-CD--NE-[HE] |==|  0.04033
ROOT
ATOM      1  CA  THR D   3      19.181 -18.843  16.426  1.00 16.13 LIG 0.20  C 
ENDROOT
BRANCH 1 2
ATOM      2  C   THR D   3      19.855 -17.957  17.485  1.00 16.95 LIG 0.24  C 
ATOM      3 O    THR D   3      20.719 -17.141  17.152  1.00 16.12 LIG-0.27  OA
ATOM      4  N   LYS D   4      19.449 -18.131  18.747  1.00 18.15 LIG-0.35  N 
ATOM      5 H    LYS D   4      18.818 -18.674  18.960  1.00 18.15 LIG 0.16  HD
BRANCH 4 6
ATOM      6  CA  LYS D   4      20.025 -17.428  19.904  1.00 19.65 LIG 0.18  C 
BRANCH 6 7
ATOM      7  C   LYS D   4      20.573 -18.436  20.891  1.00 20.62 LIG 0.24  C 
ATOM      8  N   GLN D   5      21.757 -18.159  21.430  1.00 21.55 LIG-0.35  N 
ATOM      9 H    GLN D   5      22.214 -17.453  21.252  1.00 21.55 LIG 0.16  HD
ATOM     10 O    LYS D   4      19.923 -19.449  21.170  1.00 20.86 LIG-0.27  OA
BRANCH 8 11
ATOM     11  CA  GLN D   5      22.389 -19.066  22.397  1.00 22.83 LIG 0.16  C 
BRANCH 11 12
ATOM     12  C   GLN D   5      23.368 -18.340  23.317  1.00 22.91 LIG 0.22  C 
ATOM     13 O    GLN D   5      24.580 -18.358  23.097  1.00 23.29 LIG-0.29  OA
ENDBRANCH 11 12
BRANCH 11 14
ATOM     14  CB  GLN D   5      23.085 -20.230  21.687  1.00 22.86 LIG 0.04  C 
BRANCH 14 15
ATOM     15  CG  GLN D   5      23.627 -21.303  22.615  1.00 24.40 LIG 0.10  C 
BRANCH 15 16
ATOM     16  CD  GLN D   5      25.138 -21.431  22.562  1.00 24.21 LIG 0.21  C 
ATOM     17  NE2 GLN D   5      25.645 -21.999  21.466  1.00 25.13 LIG-0.37  N 
ATOM     18 22HE GLN D   5      26.496 -22.091  21.385  1.00 25.13 LIG 0.16  HD
ATOM     19 21HE GLN D   5      25.121 -22.272  20.842  1.00 25.13 LIG 0.16  HD
ATOM     20 OE1  GLN D   5      25.845 -21.020  23.490  1.00 25.71 LIG-0.27  OA
ENDBRANCH 15 16
ENDBRANCH 14 15
ENDBRANCH 11 14
ENDBRANCH 8 11
ENDBRANCH 6 7
BRANCH 6 21
ATOM     21  CB  LYS D   4      18.957 -16.609  20.636  1.00 19.73 LIG 0.04  C 
BRANCH 21 22
ATOM     22  CG  LYS D   4      18.140 -15.680  19.782  1.00 20.49 LIG 0.00  C 
BRANCH 22 23
ATOM     23  CD  LYS D   4      19.052 -14.944  18.812  1.00 20.73 LIG 0.03  C 
BRANCH 23 24
ATOM     24  CE  LYS D   4      18.848 -13.452  18.915  1.00 20.46 LIG 0.23  C 
BRANCH 24 25
ATOM     25  NZ  LYS D   4      19.849 -12.715  18.108  1.00 20.02 LIG-0.08  N 
ATOM     26 HZ3  LYS D   4      20.450 -12.342  18.647  1.00 20.02 LIG 0.27  HD
ATOM     27 HZ1  LYS D   4      20.257 -13.279  17.554  1.00 20.02 LIG 0.27  HD
ATOM     28 HZ2  LYS D   4      19.440 -12.081  17.635  1.00 20.02 LIG 0.27  HD
ENDBRANCH 24 25
ENDBRANCH 23 24
ENDBRANCH 22 23
ENDBRANCH 21 22
ENDBRANCH 6 21
ENDBRANCH 4 6
ENDBRANCH 1 2
BRANCH 1 29
ATOM     29  CB  THR D   3      20.242 -19.411  15.464  1.00 15.86 LIG 0.15  C 
ATOM     30  CG2 THR D   3      20.737 -18.329  14.508  1.00 16.15 LIG 0.04  C 
BRANCH 29 31
ATOM     31 OG1  THR D   3      21.354 -19.912  16.217  1.00 16.19 LIG-0.39  OA
ATOM     32 HG1  THR D   3      21.102 -20.553  16.696  1.00 16.19 LIG 0.21  HD
ENDBRANCH 29 31
ENDBRANCH 1 29
BRANCH 1 33
ATOM     33  N   THR D   3      18.091 -18.181  15.692  1.00 15.75 LIG-0.34  N 
ATOM     34  C   ARG D   2      16.838 -18.167  16.148  1.00 15.31 LIG 0.24  C 
ATOM     35 O    ARG D   2      16.513 -18.648  17.231  1.00 15.17 LIG-0.27  OA
ATOM     36 H    THR D   3      18.336 -17.812  14.955  1.00 15.75 LIG 0.16  HD
BRANCH 34 37
ATOM     37  CA  ARG D   2      15.787 -17.526  15.241  1.00 15.15 LIG 0.18  C 
BRANCH 37 38
ATOM     38  N   ARG D   2      14.481 -18.184  15.343  1.00 15.89 LIG-0.35  N 
ATOM     39  C   ALA D   1      13.658 -18.392  14.313  1.00 16.91 LIG 0.25  C 
ATOM     40 O    ALA D   1      13.856 -17.939  13.178  1.00 17.32 LIG-0.27  OA
ATOM     41 H    ARG D   2      14.289 -18.430  16.145  1.00 15.89 LIG 0.16  HD
BRANCH 39 42
ATOM     42  CA  ALA D   1      12.413 -19.230  14.609  1.00 17.08 LIG 0.27  C 
ATOM     43  CB  ALA D   1      12.001 -19.095  16.092  1.00 17.48 LIG 0.05  C 
BRANCH 42 44
ATOM     44  N   ALA D   1      12.637 -20.663  14.260  1.00 17.36 LIG-0.07  N 
ATOM     45 H3   ALA D   1      13.364 -20.961  14.678  1.00 17.36 LIG 0.28  HD
ATOM     46 H2   ALA D   1      12.747 -20.741  13.380  1.00 17.36 LIG 0.28  HD
ATOM     47 H1   ALA D   1      11.932 -21.145  14.514  1.00 17.36 LIG 0.28  HD
ENDBRANCH 42 44
ENDBRANCH 39 42
ENDBRANCH 37 38
BRANCH 37 48
ATOM     48  CB  ARG D   2      15.618 -16.046  15.615  1.00 15.08 LIG 0.04  C 
BRANCH 48 49
ATOM     49  CG  ARG D   2      15.757 -15.681  17.087  1.00 14.63 LIG 0.02  C 
BRANCH 49 50
ATOM     50  CD  ARG D   2      14.377 -15.542  17.742  1.00 13.91 LIG 0.14  C 
BRANCH 50 51
ATOM     51  NE  ARG D   2      13.292 -15.900  16.828  1.00 10.79 LIG-0.23  N 
ATOM     52 HE   ARG D   2      13.496 -16.325  16.109  1.00 10.79 LIG 0.18  HD
ATOM     53  CZ  ARG D   2      12.007 -15.612  17.036  1.00 10.30 LIG 0.67  C 
ATOM     54  NH2 ARG D   2      11.627 -14.966  18.138  1.00  9.50 LIG-0.23  N 
ATOM     55  NH1 ARG D   2      11.101 -15.967  16.136  1.00  9.44 LIG-0.23  N 
ATOM     56 22HH ARG D   2      10.797 -14.783  18.265  1.00  9.50 LIG 0.17  HD
ATOM     57 21HH ARG D   2      12.213 -14.732  18.723  1.00  9.50 LIG 0.17  HD
ATOM     58 11HH ARG D   2      11.342 -16.383  15.423  1.00  9.44 LIG 0.17  HD
ATOM     59 12HH ARG D   2      10.271 -15.783  16.267  1.00  9.44 LIG 0.17  HD
ENDBRANCH 50 51
ENDBRANCH 49 50
ENDBRANCH 48 49
ENDBRANCH 37 48
ENDBRANCH 34 37
ENDBRANCH 1 33
TORSDOF 24
ENDMDL
MODEL 32
USER: ADFR SOLUTION from run 76
USER: SCORE 18.082026 LL:  -2.483 LR: -15.955 RR:   0.000 FEB:  -8.796
USER: RMSD 8.060284
USER: SEED 75
USER: STATUS 1 or 2 clusters left
USER: GENES 26
USER: genes 0 Translation |==|  0.43810 0.49301 0.57524
USER: genes 1 Rotation |==|  0.54217 0.61986 0.34622 0.95848
USER: genes 2 Torsion [N]-CA--C-[N] |==|  0.42778
USER: genes 3 Torsion [C]-N--CA-[C] |==|  0.74716
USER: genes 4 Torsion [N]-CA--C-[N] |==|  0.20778
USER: genes 5 Torsion [C]-N--CA-[C] |==|  0.76635
USER: genes 6 Torsion [N]-CA--C-[O] |==|  0.34992
USER: genes 7 Torsion [N]-CA--CB-[CG] |==|  0.39631
USER: genes 8 Torsion [CA]-CB--CG-[CD] |==|  0.38040
USER: genes 9 Torsion [CB]-CG--CD-[OE1] |==|  0.31267
USER: genes 10 Torsion [N]-CA--CB-[CG] |==|  0.92828
USER: genes 11 Torsion [CA]-CB--CG-[CD] |==|  0.69020
USER: genes 12 Torsion [CB]-CG--CD-[CE] |==|  0.70515
USER: genes 13 Torsion [CG]-CD--CE-[NZ] |==|  0.66604
USER: genes 14 Torsion [CD]-CE--NZ-[HZ3] |==|  0.25258
USER: genes 15 Torsion [C]-CA--CB-[CG2] |==|  0.28997
USER: genes 16 Torsion [CA]-CB--OG1-[HG1] |==|  0.24087
USER: genes 17 Torsion [C]-CA--N-[C] |==|  0.61484
USER: genes 18 Torsion [N]-C--CA-[N] |==|  0.38866
USER: genes 19 Torsion [C]-CA--N-[C] |==|  0.82147
USER: genes 20 Torsion [N]-C--CA-[N] |==|  0.87636
USER: genes 21 Torsion [C]-CA--N-[H1] |==|  0.41864
USER: genes 22 Torsion [C]-CA--CB-[CG] |==|  0.34067
USER: genes 23 Torsion [CA]-CB--CG-[CD] |==|  0.62345
USER: genes 24 Torsion [CB]-CG--CD-[NE] |==|  0.63984
USER: genes 25 Torsion [CG]-CD--NE-[HE] |==|  0.33774
ROOT
ATOM      1  CA  THR D   3      16.143 -17.050  18.767  1.00 16.13 LIG 0.20  C 
ENDROOT
BRANCH 1 2
ATOM      2  C   THR D   3      15.406 -16.446  17.562  1.00 16.95 LIG 0.24  C 
ATOM      3 O    THR D   3      16.040 -15.864  16.676  1.00 16.12 LIG-0.27  OA
ATOM      4  N   LYS D   4      14.078 -16.592  17.547  1.00 18.15 LIG-0.35  N 
ATOM      5 H    LYS D   4      13.653 -17.035  18.149  1.00 18.15 LIG 0.16  HD
BRANCH 4 6
ATOM      6  CA  LYS D   4      13.196 -16.023  16.515  1.00 19.65 LIG 0.18  C 
BRANCH 6 7
ATOM      7  C   LYS D   4      12.731 -14.648  16.946  1.00 20.62 LIG 0.24  C 
ATOM      8  N   GLN D   5      13.622 -13.664  16.861  1.00 21.55 LIG-0.35  N 
ATOM      9 H    GLN D   5      14.428 -13.767  16.579  1.00 21.55 LIG 0.16  HD
ATOM     10 O    LYS D   4      11.573 -14.479  17.340  1.00 20.86 LIG-0.27  OA
BRANCH 8 11
ATOM     11  CA  GLN D   5      13.285 -12.290  17.255  1.00 22.83 LIG 0.16  C 
BRANCH 11 12
ATOM     12  C   GLN D   5      12.592 -11.520  16.132  1.00 22.91 LIG 0.22  C 
ATOM     13 O    GLN D   5      11.506 -10.969  16.314  1.00 23.29 LIG-0.29  OA
ENDBRANCH 11 12
BRANCH 11 14
ATOM     14  CB  GLN D   5      14.526 -11.534  17.735  1.00 22.86 LIG 0.04  C 
BRANCH 14 15
ATOM     15  CG  GLN D   5      14.569 -10.070  17.333  1.00 24.40 LIG 0.10  C 
BRANCH 15 16
ATOM     16  CD  GLN D   5      15.028  -9.156  18.453  1.00 24.21 LIG 0.21  C 
ATOM     17  NE2 GLN D   5      14.209  -9.047  19.501  1.00 25.13 LIG-0.37  N 
ATOM     18 22HE GLN D   5      14.425  -8.545  20.164  1.00 25.13 LIG 0.16  HD
ATOM     19 21HE GLN D   5      13.465  -9.479  19.512  1.00 25.13 LIG 0.16  HD
ATOM     20 OE1  GLN D   5      16.109  -8.558  18.385  1.00 25.71 LIG-0.27  OA
ENDBRANCH 15 16
ENDBRANCH 14 15
ENDBRANCH 11 14
ENDBRANCH 8 11
ENDBRANCH 6 7
BRANCH 6 21
ATOM     21  CB  LYS D   4      11.946 -16.886  16.324  1.00 19.73 LIG 0.04  C 
BRANCH 21 22
ATOM     22  CG  LYS D   4      12.088 -18.340  16.685  1.00 20.49 LIG 0.00  C 
BRANCH 22 23
ATOM     23  CD  LYS D   4      12.014 -19.187  15.425  1.00 20.73 LIG 0.03  C 
BRANCH 23 24
ATOM     24  CE  LYS D   4      10.689 -19.906  15.342  1.00 20.46 LIG 0.23  C 
BRANCH 24 25
ATOM     25  NZ  LYS D   4      10.875 -21.376  15.305  1.00 20.02 LIG-0.08  N 
ATOM     26 HZ3  LYS D   4      10.860 -21.698  16.135  1.00 20.02 LIG 0.27  HD
ATOM     27 HZ1  LYS D   4      10.219 -21.746  14.832  1.00 20.02 LIG 0.27  HD
ATOM     28 HZ2  LYS D   4      11.658 -21.567  14.927  1.00 20.02 LIG 0.27  HD
ENDBRANCH 24 25
ENDBRANCH 23 24
ENDBRANCH 22 23
ENDBRANCH 21 22
ENDBRANCH 6 21
ENDBRANCH 4 6
ENDBRANCH 1 2
BRANCH 1 29
ATOM     29  CB  THR D   3      16.032 -16.105  19.979  1.00 15.86 LIG 0.15  C 
ATOM     30  CG2 THR D   3      15.020 -16.641  20.989  1.00 16.15 LIG 0.04  C 
BRANCH 29 31
ATOM     31 OG1  THR D   3      17.310 -15.989  20.617  1.00 16.19 LIG-0.39  OA
ATOM     32 HG1  THR D   3      17.753 -15.379  20.248  1.00 16.19 LIG 0.21  HD
ENDBRANCH 29 31
ENDBRANCH 1 29
BRANCH 1 33
ATOM     33  N   THR D   3      17.543 -17.413  18.497  1.00 15.75 LIG-0.34  N 
ATOM     34  C   ARG D   2      18.083 -18.542  18.957  1.00 15.31 LIG 0.24  C 
ATOM     35 O    ARG D   2      17.444 -19.384  19.584  1.00 15.17 LIG-0.27  OA
ATOM     36 H    THR D   3      17.971 -16.837  18.022  1.00 15.75 LIG 0.16  HD
BRANCH 34 37
ATOM     37  CA  ARG D   2      19.572 -18.751  18.681  1.00 15.15 LIG 0.18  C 
BRANCH 37 38
ATOM     38  N   ARG D   2      20.277 -19.339  19.825  1.00 15.89 LIG-0.35  N 
ATOM     39  C   ALA D   1      20.422 -18.742  21.010  1.00 16.91 LIG 0.25  C 
ATOM     40 O    ALA D   1      20.084 -17.572  21.231  1.00 17.32 LIG-0.27  OA
ATOM     41 H    ARG D   2      20.595 -20.121  19.660  1.00 15.89 LIG 0.16  HD
BRANCH 39 42
ATOM     42  CA  ALA D   1      21.059 -19.589  22.113  1.00 17.08 LIG 0.27  C 
ATOM     43  CB  ALA D   1      22.592 -19.656  21.937  1.00 17.48 LIG 0.05  C 
BRANCH 42 44
ATOM     44  N   ALA D   1      20.478 -20.963  22.135  1.00 17.36 LIG-0.07  N 
ATOM     45 H3   ALA D   1      20.235 -21.196  21.311  1.00 17.36 LIG 0.28  HD
ATOM     46 H2   ALA D   1      19.767 -20.977  22.670  1.00 17.36 LIG 0.28  HD
ATOM     47 H1   ALA D   1      21.087 -21.539  22.438  1.00 17.36 LIG 0.28  HD
ENDBRANCH 42 44
ENDBRANCH 39 42
ENDBRANCH 37 38
BRANCH 37 48
ATOM     48  CB  ARG D   2      19.747 -19.679  17.471  1.00 15.08 LIG 0.04  C 
BRANCH 48 49
ATOM     49  CG  ARG D   2      20.549 -19.143  16.293  1.00 14.63 LIG 0.02  C 
BRANCH 49 50
ATOM     50  CD  ARG D   2      19.846 -19.464  14.968  1.00 13.91 LIG 0.14  C 
BRANCH 50 51
ATOM     51  NE  ARG D   2      20.747 -20.090  14.000  1.00 10.79 LIG-0.23  N 
ATOM     52 HE   ARG D   2      20.536 -20.867  13.698  1.00 10.79 LIG 0.18  HD
ATOM     53  CZ  ARG D   2      21.875 -19.536  13.556  1.00 10.30 LIG 0.67  C 
ATOM     54  NH2 ARG D   2      22.249 -18.328  13.978  1.00  9.50 LIG-0.23  N 
ATOM     55  NH1 ARG D   2      22.633 -20.193  12.689  1.00  9.44 LIG-0.23  N 
ATOM     56 22HH ARG D   2      22.978 -17.978  13.687  1.00  9.50 LIG 0.17  HD
ATOM     57 21HH ARG D   2      21.761 -17.900  14.542  1.00  9.50 LIG 0.17  HD
ATOM     58 11HH ARG D   2      22.395 -20.973  12.415  1.00  9.44 LIG 0.17  HD
ATOM     59 12HH ARG D   2      23.361 -19.839  12.399  1.00  9.44 LIG 0.17  HD
ENDBRANCH 50 51
ENDBRANCH 49 50
ENDBRANCH 48 49
ENDBRANCH 37 48
ENDBRANCH 34 37
ENDBRANCH 1 33
TORSDOF 24
ENDMDL
MODEL 33
USER: ADFR SOLUTION from run 126
USER: SCORE 17.262797 LL:  -2.947 LR: -15.881 RR:   0.000 FEB:  -8.722
USER: RMSD 6.538507
USER: SEED 125
USER: STATUS 1 or 2 clusters left
USER: GENES 26
USER: genes 0 Translation |==|  0.55833 0.42641 0.58248
USER: genes 1 Rotation |==|  0.57433 0.81964 0.53289 0.87580
USER: genes 2 Torsion [N]-CA--C-[N] |==|  0.79017
USER: genes 3 Torsion [C]-N--CA-[C] |==|  0.82189
USER: genes 4 Torsion [N]-CA--C-[N] |==|  0.37582
USER: genes 5 Torsion [C]-N--CA-[C] |==|  0.56493
USER: genes 6 Torsion [N]-CA--C-[O] |==|  0.84879
USER: genes 7 Torsion [N]-CA--CB-[CG] |==|  0.66494
USER: genes 8 Torsion [CA]-CB--CG-[CD] |==|  0.27353
USER: genes 9 Torsion [CB]-CG--CD-[OE1] |==|  0.04082
USER: genes 10 Torsion [N]-CA--CB-[CG] |==|  0.04721
USER: genes 11 Torsion [CA]-CB--CG-[CD] |==|  0.29409
USER: genes 12 Torsion [CB]-CG--CD-[CE] |==|  0.39169
USER: genes 13 Torsion [CG]-CD--CE-[NZ] |==|  0.39285
USER: genes 14 Torsion [CD]-CE--NZ-[HZ3] |==|  0.73379
USER: genes 15 Torsion [C]-CA--CB-[CG2] |==|  0.09664
USER: genes 16 Torsion [CA]-CB--OG1-[HG1] |==|  0.78466
USER: genes 17 Torsion [C]-CA--N-[C] |==|  0.72126
USER: genes 18 Torsion [N]-C--CA-[N] |==|  0.49437
USER: genes 19 Torsion [C]-CA--N-[C] |==|  0.16667
USER: genes 20 Torsion [N]-C--CA-[N] |==|  0.19668
USER: genes 21 Torsion [C]-CA--N-[H1] |==|  0.05428
USER: genes 22 Torsion [C]-CA--CB-[CG] |==|  0.02070
USER: genes 23 Torsion [CA]-CB--CG-[CD] |==|  0.36590
USER: genes 24 Torsion [CB]-CG--CD-[NE] |==|  0.84558
USER: genes 25 Torsion [CG]-CD--NE-[HE] |==|  0.89206
ROOT
ATOM      1  CA  THR D   3      19.750 -19.048  18.984  1.00 16.13 LIG 0.20  C 
ENDROOT
BRANCH 1 2
ATOM      2  C   THR D   3      18.223 -18.879  19.005  1.00 16.95 LIG 0.24  C 
ATOM      3 O    THR D   3      17.497 -19.744  18.506  1.00 16.12 LIG-0.27  OA
ATOM      4  N   LYS D   4      17.758 -17.767  19.583  1.00 18.15 LIG-0.35  N 
ATOM      5 H    LYS D   4      18.273 -17.193  19.963  1.00 18.15 LIG 0.16  HD
BRANCH 4 6
ATOM      6  CA  LYS D   4      16.335 -17.397  19.637  1.00 19.65 LIG 0.18  C 
BRANCH 6 7
ATOM      7  C   LYS D   4      15.818 -17.161  18.234  1.00 20.62 LIG 0.24  C 
ATOM      8  N   GLN D   5      14.637 -17.697  17.937  1.00 21.55 LIG-0.35  N 
ATOM      9 H    GLN D   5      14.164 -18.158  18.488  1.00 21.55 LIG 0.16  HD
ATOM     10 O    LYS D   4      16.476 -16.489  17.434  1.00 20.86 LIG-0.27  OA
BRANCH 8 11
ATOM     11  CA  GLN D   5      14.038 -17.537  16.606  1.00 22.83 LIG 0.16  C 
BRANCH 11 12
ATOM     12  C   GLN D   5      12.519 -17.704  16.631  1.00 22.91 LIG 0.22  C 
ATOM     13 O    GLN D   5      11.998 -18.715  17.105  1.00 23.29 LIG-0.29  OA
ENDBRANCH 11 12
BRANCH 11 14
ATOM     14  CB  GLN D   5      14.665 -18.504  15.599  1.00 22.86 LIG 0.04  C 
BRANCH 14 15
ATOM     15  CG  GLN D   5      15.326 -17.835  14.407  1.00 24.40 LIG 0.10  C 
BRANCH 15 16
ATOM     16  CD  GLN D   5      16.830 -17.702  14.554  1.00 24.21 LIG 0.21  C 
ATOM     17  NE2 GLN D   5      17.435 -16.863  13.712  1.00 25.13 LIG-0.37  N 
ATOM     18 22HE GLN D   5      18.286 -16.748  13.758  1.00 25.13 LIG 0.16  HD
ATOM     19 21HE GLN D   5      16.974 -16.436  13.125  1.00 25.13 LIG 0.16  HD
ATOM     20 OE1  GLN D   5      17.443 -18.340  15.418  1.00 25.71 LIG-0.27  OA
ENDBRANCH 15 16
ENDBRANCH 14 15
ENDBRANCH 11 14
ENDBRANCH 8 11
ENDBRANCH 6 7
BRANCH 6 21
ATOM     21  CB  LYS D   4      16.135 -16.096  20.420  1.00 19.73 LIG 0.04  C 
BRANCH 21 22
ATOM     22  CG  LYS D   4      17.366 -15.256  20.626  1.00 20.49 LIG 0.00  C 
BRANCH 22 23
ATOM     23  CD  LYS D   4      17.310 -14.039  19.716  1.00 20.73 LIG 0.03  C 
BRANCH 23 24
ATOM     24  CE  LYS D   4      17.839 -12.817  20.425  1.00 20.46 LIG 0.23  C 
BRANCH 24 25
ATOM     25  NZ  LYS D   4      18.635 -11.965  19.510  1.00 20.02 LIG-0.08  N 
ATOM     26 HZ3  LYS D   4      19.499 -12.159  19.599  1.00 20.02 LIG 0.27  HD
ATOM     27 HZ1  LYS D   4      18.383 -12.115  18.670  1.00 20.02 LIG 0.27  HD
ATOM     28 HZ2  LYS D   4      18.501 -11.108  19.711  1.00 20.02 LIG 0.27  HD
ENDBRANCH 24 25
ENDBRANCH 23 24
ENDBRANCH 22 23
ENDBRANCH 21 22
ENDBRANCH 6 21
ENDBRANCH 4 6
ENDBRANCH 1 2
BRANCH 1 29
ATOM     29  CB  THR D   3      20.323 -18.829  20.398  1.00 15.86 LIG 0.15  C 
ATOM     30  CG2 THR D   3      19.356 -19.350  21.457  1.00 16.15 LIG 0.04  C 
BRANCH 29 31
ATOM     31 OG1  THR D   3      21.570 -19.524  20.524  1.00 16.19 LIG-0.39  OA
ATOM     32 HG1  THR D   3      21.424 -20.343  20.636  1.00 16.19 LIG 0.21  HD
ENDBRANCH 29 31
ENDBRANCH 1 29
BRANCH 1 33
ATOM     33  N   THR D   3      20.435 -18.205  17.992  1.00 15.75 LIG-0.34  N 
ATOM     34  C   ARG D   2      20.844 -18.686  16.817  1.00 15.31 LIG 0.24  C 
ATOM     35 O    ARG D   2      20.629 -19.841  16.453  1.00 15.17 LIG-0.27  OA
ATOM     36 H    THR D   3      20.545 -17.388  18.238  1.00 15.75 LIG 0.16  HD
BRANCH 34 37
ATOM     37  CA  ARG D   2      21.625 -17.726  15.919  1.00 15.15 LIG 0.18  C 
BRANCH 37 38
ATOM     38  N   ARG D   2      22.070 -18.360  14.673  1.00 15.89 LIG-0.35  N 
ATOM     39  C   ALA D   1      21.251 -18.895  13.765  1.00 16.91 LIG 0.25  C 
ATOM     40 O    ALA D   1      20.032 -19.025  13.936  1.00 17.32 LIG-0.27  OA
ATOM     41 H    ARG D   2      22.925 -18.356  14.579  1.00 15.89 LIG 0.16  HD
BRANCH 39 42
ATOM     42  CA  ALA D   1      21.908 -19.370  12.468  1.00 17.08 LIG 0.27  C 
ATOM     43  CB  ALA D   1      20.844 -19.642  11.381  1.00 17.48 LIG 0.05  C 
BRANCH 42 44
ATOM     44  N   ALA D   1      22.735 -20.590  12.702  1.00 17.36 LIG-0.07  N 
ATOM     45 H3   ALA D   1      23.593 -20.361  12.760  1.00 17.36 LIG 0.28  HD
ATOM     46 H2   ALA D   1      22.624 -21.158  12.026  1.00 17.36 LIG 0.28  HD
ATOM     47 H1   ALA D   1      22.481 -20.980  13.461  1.00 17.36 LIG 0.28  HD
ENDBRANCH 42 44
ENDBRANCH 39 42
ENDBRANCH 37 38
BRANCH 37 48
ATOM     48  CB  ARG D   2      20.742 -16.520  15.564  1.00 15.08 LIG 0.04  C 
BRANCH 48 49
ATOM     49  CG  ARG D   2      19.399 -16.409  16.272  1.00 14.63 LIG 0.02  C 
BRANCH 49 50
ATOM     50  CD  ARG D   2      19.198 -14.995  16.832  1.00 13.91 LIG 0.14  C 
BRANCH 50 51
ATOM     51  NE  ARG D   2      20.290 -14.590  17.717  1.00 10.79 LIG-0.23  N 
ATOM     52 HE   ARG D   2      20.618 -15.182  18.247  1.00 10.79 LIG 0.18  HD
ATOM     53  CZ  ARG D   2      20.809 -13.363  17.759  1.00 10.30 LIG 0.67  C 
ATOM     54  NH2 ARG D   2      20.351 -12.405  16.952  1.00  9.50 LIG-0.23  N 
ATOM     55  NH1 ARG D   2      21.788 -13.092  18.611  1.00  9.44 LIG-0.23  N 
ATOM     56 22HH ARG D   2      20.691 -11.617  16.985  1.00  9.50 LIG 0.17  HD
ATOM     57 21HH ARG D   2      19.714 -12.577  16.400  1.00  9.50 LIG 0.17  HD
ATOM     58 11HH ARG D   2      22.085 -13.707  19.133  1.00  9.44 LIG 0.17  HD
ATOM     59 12HH ARG D   2      22.126 -12.302  18.640  1.00  9.44 LIG 0.17  HD
ENDBRANCH 50 51
ENDBRANCH 49 50
ENDBRANCH 48 49
ENDBRANCH 37 48
ENDBRANCH 34 37
ENDBRANCH 1 33
TORSDOF 24
ENDMDL
MODEL 34
USER: ADFR SOLUTION from run 120
USER: SCORE 19.253317 LL:  -3.670 LR: -15.863 RR:   0.000 FEB:  -8.704
USER: RMSD 8.911963
USER: SEED 119
USER: STATUS no improvement in best 6 clusters for 5 generations
USER: GENES 26
USER: genes 0 Translation |==|  0.57732 0.41870 0.49563
USER: genes 1 Rotation |==|  0.62502 0.97753 0.43579 0.54702
USER: genes 2 Torsion [N]-CA--C-[N] |==|  0.37531
USER: genes 3 Torsion [C]-N--CA-[C] |==|  0.15636
USER: genes 4 Torsion [N]-CA--C-[N] |==|  0.08206
USER: genes 5 Torsion [C]-N--CA-[C] |==|  0.51627
USER: genes 6 Torsion [N]-CA--C-[O] |==|  0.39054
USER: genes 7 Torsion [N]-CA--CB-[CG] |==|  0.45861
USER: genes 8 Torsion [CA]-CB--CG-[CD] |==|  0.45417
USER: genes 9 Torsion [CB]-CG--CD-[OE1] |==|  0.55101
USER: genes 10 Torsion [N]-CA--CB-[CG] |==|  0.57461
USER: genes 11 Torsion [CA]-CB--CG-[CD] |==|  0.40227
USER: genes 12 Torsion [CB]-CG--CD-[CE] |==|  0.37747
USER: genes 13 Torsion [CG]-CD--CE-[NZ] |==|  0.63712
USER: genes 14 Torsion [CD]-CE--NZ-[HZ3] |==|  0.67949
USER: genes 15 Torsion [C]-CA--CB-[CG2] |==|  0.44909
USER: genes 16 Torsion [CA]-CB--OG1-[HG1] |==|  0.57140
USER: genes 17 Torsion [C]-CA--N-[C] |==|  0.85328
USER: genes 18 Torsion [N]-C--CA-[N] |==|  0.42638
USER: genes 19 Torsion [C]-CA--N-[C] |==|  0.71509
USER: genes 20 Torsion [N]-C--CA-[N] |==|  0.58105
USER: genes 21 Torsion [C]-CA--N-[H1] |==|  0.56178
USER: genes 22 Torsion [C]-CA--CB-[CG] |==|  0.07471
USER: genes 23 Torsion [CA]-CB--CG-[CD] |==|  0.73095
USER: genes 24 Torsion [CB]-CG--CD-[NE] |==|  0.52728
USER: genes 25 Torsion [CG]-CD--NE-[HE] |==|  0.69966
ROOT
ATOM      1  CA  THR D   3      20.320 -19.279  16.379  1.00 16.13 LIG 0.20  C 
ENDROOT
BRANCH 1 2
ATOM      2  C   THR D   3      20.361 -18.920  17.872  1.00 16.95 LIG 0.24  C 
ATOM      3 O    THR D   3      20.562 -17.753  18.224  1.00 16.12 LIG-0.27  OA
ATOM      4  N   LYS D   4      20.171 -19.928  18.729  1.00 18.15 LIG-0.35  N 
ATOM      5 H    LYS D   4      19.991 -20.728  18.471  1.00 18.15 LIG 0.16  HD
BRANCH 4 6
ATOM      6  CA  LYS D   4      20.244 -19.794  20.192  1.00 19.65 LIG 0.18  C 
BRANCH 6 7
ATOM      7  C   LYS D   4      19.274 -18.727  20.654  1.00 20.62 LIG 0.24  C 
ATOM      8  N   GLN D   5      18.182 -18.555  19.915  1.00 21.55 LIG-0.35  N 
ATOM      9 H    GLN D   5      18.003 -19.009  19.206  1.00 21.55 LIG 0.16  HD
ATOM     10 O    LYS D   4      19.506 -18.077  21.678  1.00 20.86 LIG-0.27  OA
BRANCH 8 11
ATOM     11  CA  GLN D   5      17.172 -17.548  20.264  1.00 22.83 LIG 0.16  C 
BRANCH 11 12
ATOM     12  C   GLN D   5      15.942 -17.625  19.361  1.00 22.91 LIG 0.22  C 
ATOM     13 O    GLN D   5      14.807 -17.469  19.816  1.00 23.29 LIG-0.29  OA
ENDBRANCH 11 12
BRANCH 11 14
ATOM     14  CB  GLN D   5      17.767 -16.138  20.237  1.00 22.86 LIG 0.04  C 
BRANCH 14 15
ATOM     15  CG  GLN D   5      16.741 -15.019  20.233  1.00 24.40 LIG 0.10  C 
BRANCH 15 16
ATOM     16  CD  GLN D   5      17.328 -13.669  20.603  1.00 24.21 LIG 0.21  C 
ATOM     17  NE2 GLN D   5      18.653 -13.552  20.500  1.00 25.13 LIG-0.37  N 
ATOM     18 22HE GLN D   5      19.034 -12.806  20.693  1.00 25.13 LIG 0.16  HD
ATOM     19 21HE GLN D   5      19.125 -14.222  20.239  1.00 25.13 LIG 0.16  HD
ATOM     20 OE1  GLN D   5      16.601 -12.739  20.972  1.00 25.71 LIG-0.27  OA
ENDBRANCH 15 16
ENDBRANCH 14 15
ENDBRANCH 11 14
ENDBRANCH 8 11
ENDBRANCH 6 7
BRANCH 6 21
ATOM     21  CB  LYS D   4      21.644 -19.356  20.634  1.00 19.73 LIG 0.04  C 
BRANCH 21 22
ATOM     22  CG  LYS D   4      22.055 -19.768  22.021  1.00 20.49 LIG 0.00  C 
BRANCH 22 23
ATOM     23  CD  LYS D   4      23.543 -20.081  22.040  1.00 20.73 LIG 0.03  C 
BRANCH 23 24
ATOM     24  CE  LYS D   4      24.201 -19.474  23.255  1.00 20.46 LIG 0.23  C 
BRANCH 24 25
ATOM     25  NZ  LYS D   4      25.420 -18.715  22.885  1.00 20.02 LIG-0.08  N 
ATOM     26 HZ3  LYS D   4      26.134 -19.106  23.244  1.00 20.02 LIG 0.27  HD
ATOM     27 HZ1  LYS D   4      25.503 -18.701  21.999  1.00 20.02 LIG 0.27  HD
ATOM     28 HZ2  LYS D   4      25.354 -17.881  23.189  1.00 20.02 LIG 0.27  HD
ENDBRANCH 24 25
ENDBRANCH 23 24
ENDBRANCH 22 23
ENDBRANCH 21 22
ENDBRANCH 6 21
ENDBRANCH 4 6
ENDBRANCH 1 2
BRANCH 1 29
ATOM     29  CB  THR D   3      21.753 -19.437  15.836  1.00 15.86 LIG 0.15  C 
ATOM     30  CG2 THR D   3      21.749 -20.215  14.523  1.00 16.15 LIG 0.04  C 
BRANCH 29 31
ATOM     31 OG1  THR D   3      22.326 -18.143  15.609  1.00 16.19 LIG-0.39  OA
ATOM     32 HG1  THR D   3      22.919 -18.199  15.017  1.00 16.19 LIG 0.21  HD
ENDBRANCH 29 31
ENDBRANCH 1 29
BRANCH 1 33
ATOM     33  N   THR D   3      19.534 -18.346  15.557  1.00 15.75 LIG-0.34  N 
ATOM     34  C   ARG D   2      18.275 -18.024  15.858  1.00 15.31 LIG 0.24  C 
ATOM     35 O    ARG D   2      17.701 -18.432  16.865  1.00 15.17 LIG-0.27  OA
ATOM     36 H    THR D   3      19.958 -18.033  14.876  1.00 15.75 LIG 0.16  HD
BRANCH 34 37
ATOM     37  CA  ARG D   2      17.545 -17.116  14.867  1.00 15.15 LIG 0.18  C 
BRANCH 37 38
ATOM     38  N   ARG D   2      16.091 -17.303  14.902  1.00 15.89 LIG-0.35  N 
ATOM     39  C   ALA D   1      15.398 -17.993  13.994  1.00 16.91 LIG 0.25  C 
ATOM     40 O    ALA D   1      15.894 -18.445  12.954  1.00 17.32 LIG-0.27  OA
ATOM     41 H    ARG D   2      15.718 -16.920  15.575  1.00 15.89 LIG 0.16  HD
BRANCH 39 42
ATOM     42  CA  ALA D   1      13.912 -18.193  14.296  1.00 17.08 LIG 0.27  C 
ATOM     43  CB  ALA D   1      13.657 -18.186  15.820  1.00 17.48 LIG 0.05  C 
BRANCH 42 44
ATOM     44  N   ALA D   1      13.409 -19.462  13.692  1.00 17.36 LIG-0.07  N 
ATOM     45 H3   ALA D   1      13.609 -20.145  14.227  1.00 17.36 LIG 0.28  HD
ATOM     46 H2   ALA D   1      13.791 -19.585  12.898  1.00 17.36 LIG 0.28  HD
ATOM     47 H1   ALA D   1      12.526 -19.414  13.591  1.00 17.36 LIG 0.28  HD
ENDBRANCH 42 44
ENDBRANCH 39 42
ENDBRANCH 37 38
BRANCH 37 48
ATOM     48  CB  ARG D   2      17.856 -15.647  15.190  1.00 15.08 LIG 0.04  C 
BRANCH 48 49
ATOM     49  CG  ARG D   2      19.180 -15.353  15.882  1.00 14.63 LIG 0.02  C 
BRANCH 49 50
ATOM     50  CD  ARG D   2      18.982 -15.226  17.398  1.00 13.91 LIG 0.14  C 
BRANCH 50 51
ATOM     51  NE  ARG D   2      20.177 -14.720  18.073  1.00 10.79 LIG-0.23  N 
ATOM     52 HE   ARG D   2      20.631 -15.270  18.553  1.00 10.79 LIG 0.18  HD
ATOM     53  CZ  ARG D   2      20.610 -13.461  17.992  1.00 10.30 LIG 0.67  C 
ATOM     54  NH2 ARG D   2      19.955 -12.566  17.252  1.00  9.50 LIG-0.23  N 
ATOM     55  NH1 ARG D   2      21.698 -13.097  18.656  1.00  9.44 LIG-0.23  N 
ATOM     56 22HH ARG D   2      20.240 -11.756  17.206  1.00  9.50 LIG 0.17  HD
ATOM     57 21HH ARG D   2      19.248 -12.798  16.822  1.00  9.50 LIG 0.17  HD
ATOM     58 11HH ARG D   2      22.121 -13.672  19.135  1.00  9.44 LIG 0.17  HD
ATOM     59 12HH ARG D   2      21.980 -12.287  18.606  1.00  9.44 LIG 0.17  HD
ENDBRANCH 50 51
ENDBRANCH 49 50
ENDBRANCH 48 49
ENDBRANCH 37 48
ENDBRANCH 34 37
ENDBRANCH 1 33
TORSDOF 24
ENDMDL
MODEL 35
USER: ADFR SOLUTION from run 99
USER: SCORE 18.788603 LL:  -3.592 LR: -15.847 RR:   0.000 FEB:  -8.688
USER: RMSD 8.253322
USER: SEED 98
USER: STATUS no improvement in best 5 clusters for 5 generations
USER: GENES 26
USER: genes 0 Translation |==|  0.45176 0.51025 0.60460
USER: genes 1 Rotation |==|  0.23852 0.45937 0.71803 0.86392
USER: genes 2 Torsion [N]-CA--C-[N] |==|  0.02361
USER: genes 3 Torsion [C]-N--CA-[C] |==|  0.83876
USER: genes 4 Torsion [N]-CA--C-[N] |==|  0.93333
USER: genes 5 Torsion [C]-N--CA-[C] |==|  0.74122
USER: genes 6 Torsion [N]-CA--C-[O] |==|  0.37904
USER: genes 7 Torsion [N]-CA--CB-[CG] |==|  0.48243
USER: genes 8 Torsion [CA]-CB--CG-[CD] |==|  0.19414
USER: genes 9 Torsion [CB]-CG--CD-[OE1] |==|  0.30169
USER: genes 10 Torsion [N]-CA--CB-[CG] |==|  0.36098
USER: genes 11 Torsion [CA]-CB--CG-[CD] |==|  0.23605
USER: genes 12 Torsion [CB]-CG--CD-[CE] |==|  0.15923
USER: genes 13 Torsion [CG]-CD--CE-[NZ] |==|  0.40269
USER: genes 14 Torsion [CD]-CE--NZ-[HZ3] |==|  0.11666
USER: genes 15 Torsion [C]-CA--CB-[CG2] |==|  0.88990
USER: genes 16 Torsion [CA]-CB--OG1-[HG1] |==|  0.87325
USER: genes 17 Torsion [C]-CA--N-[C] |==|  0.71004
USER: genes 18 Torsion [N]-C--CA-[N] |==|  0.66054
USER: genes 19 Torsion [C]-CA--N-[C] |==|  0.14850
USER: genes 20 Torsion [N]-C--CA-[N] |==|  0.88940
USER: genes 21 Torsion [C]-CA--N-[H1] |==|  0.68645
USER: genes 22 Torsion [C]-CA--CB-[CG] |==|  0.20544
USER: genes 23 Torsion [CA]-CB--CG-[CD] |==|  0.60134
USER: genes 24 Torsion [CB]-CG--CD-[NE] |==|  0.44586
USER: genes 25 Torsion [CG]-CD--NE-[HE] |==|  0.05775
ROOT
ATOM      1  CA  THR D   3      16.553 -16.533  19.648  1.00 16.13 LIG 0.20  C 
ENDROOT
BRANCH 1 2
ATOM      2  C   THR D   3      17.266 -17.749  19.038  1.00 16.95 LIG 0.24  C 
ATOM      3 O    THR D   3      17.018 -18.885  19.453  1.00 16.12 LIG-0.27  OA
ATOM      4  N   LYS D   4      18.142 -17.493  18.062  1.00 18.15 LIG-0.35  N 
ATOM      5 H    LYS D   4      18.275 -16.702  17.754  1.00 18.15 LIG 0.16  HD
BRANCH 4 6
ATOM      6  CA  LYS D   4      18.971 -18.517  17.407  1.00 19.65 LIG 0.18  C 
BRANCH 6 7
ATOM      7  C   LYS D   4      19.815 -19.228  18.443  1.00 20.62 LIG 0.24  C 
ATOM      8  N   GLN D   5      20.066 -18.560  19.566  1.00 21.55 LIG-0.35  N 
ATOM      9 H    GLN D   5      19.779 -17.767  19.729  1.00 21.55 LIG 0.16  HD
ATOM     10 O    LYS D   4      20.224 -20.374  18.232  1.00 20.86 LIG-0.27  OA
BRANCH 8 11
ATOM     11  CA  GLN D   5      20.877 -19.148  20.641  1.00 22.83 LIG 0.16  C 
BRANCH 11 12
ATOM     12  C   GLN D   5      20.021 -19.857  21.689  1.00 22.91 LIG 0.22  C 
ATOM     13 O    GLN D   5      20.347 -20.957  22.139  1.00 23.29 LIG-0.29  OA
ENDBRANCH 11 12
BRANCH 11 14
ATOM     14  CB  GLN D   5      21.765 -18.090  21.302  1.00 22.86 LIG 0.04  C 
BRANCH 14 15
ATOM     15  CG  GLN D   5      22.525 -18.578  22.522  1.00 24.40 LIG 0.10  C 
BRANCH 15 16
ATOM     16  CD  GLN D   5      23.628 -19.564  22.184  1.00 24.21 LIG 0.21  C 
ATOM     17  NE2 GLN D   5      23.236 -20.777  21.790  1.00 25.13 LIG-0.37  N 
ATOM     18 22HE GLN D   5      23.822 -21.371  21.582  1.00 25.13 LIG 0.16  HD
ATOM     19 21HE GLN D   5      22.398 -20.964  21.742  1.00 25.13 LIG 0.16  HD
ATOM     20 OE1  GLN D   5      24.819 -19.241  22.269  1.00 25.71 LIG-0.27  OA
ENDBRANCH 15 16
ENDBRANCH 14 15
ENDBRANCH 11 14
ENDBRANCH 8 11
ENDBRANCH 6 7
BRANCH 6 21
ATOM     21  CB  LYS D   4      19.930 -17.883  16.395  1.00 19.73 LIG 0.04  C 
BRANCH 21 22
ATOM     22  CG  LYS D   4      21.373 -18.294  16.510  1.00 20.49 LIG 0.00  C 
BRANCH 22 23
ATOM     23  CD  LYS D   4      21.597 -19.588  15.745  1.00 20.73 LIG 0.03  C 
BRANCH 23 24
ATOM     24  CE  LYS D   4      21.195 -19.430  14.298  1.00 20.46 LIG 0.23  C 
BRANCH 24 25
ATOM     25  NZ  LYS D   4      22.080 -20.214  13.404  1.00 20.02 LIG-0.08  N 
ATOM     26 HZ3  LYS D   4      22.237 -21.011  13.767  1.00 20.02 LIG 0.27  HD
ATOM     27 HZ1  LYS D   4      21.685 -20.320  12.615  1.00 20.02 LIG 0.27  HD
ATOM     28 HZ2  LYS D   4      22.850 -19.781  13.295  1.00 20.02 LIG 0.27  HD
ENDBRANCH 24 25
ENDBRANCH 23 24
ENDBRANCH 22 23
ENDBRANCH 21 22
ENDBRANCH 6 21
ENDBRANCH 4 6
ENDBRANCH 1 2
BRANCH 1 29
ATOM     29  CB  THR D   3      15.045 -16.821  19.785  1.00 15.86 LIG 0.15  C 
ATOM     30  CG2 THR D   3      14.531 -17.586  18.569  1.00 16.15 LIG 0.04  C 
BRANCH 29 31
ATOM     31 OG1  THR D   3      14.811 -17.604  20.962  1.00 16.19 LIG-0.39  OA
ATOM     32 HG1  THR D   3      15.370 -18.229  20.999  1.00 16.19 LIG 0.21  HD
ENDBRANCH 29 31
ENDBRANCH 1 29
BRANCH 1 33
ATOM     33  N   THR D   3      16.795 -15.271  18.931  1.00 15.75 LIG-0.34  N 
ATOM     34  C   ARG D   2      17.619 -14.335  19.404  1.00 15.31 LIG 0.24  C 
ATOM     35 O    ARG D   2      18.277 -14.478  20.433  1.00 15.17 LIG-0.27  OA
ATOM     36 H    THR D   3      16.361 -15.196  18.192  1.00 15.75 LIG 0.16  HD
BRANCH 34 37
ATOM     37  CA  ARG D   2      17.707 -13.034  18.607  1.00 15.15 LIG 0.18  C 
BRANCH 37 38
ATOM     38  N   ARG D   2      19.074 -12.737  18.166  1.00 15.89 LIG-0.35  N 
ATOM     39  C   ALA D   1      19.845 -13.583  17.480  1.00 16.91 LIG 0.25  C 
ATOM     40 O    ALA D   1      19.533 -14.758  17.249  1.00 17.32 LIG-0.27  OA
ATOM     41 H    ARG D   2      19.339 -11.951  18.395  1.00 15.89 LIG 0.16  HD
BRANCH 39 42
ATOM     42  CA  ALA D   1      21.181 -13.022  16.988  1.00 17.08 LIG 0.27  C 
ATOM     43  CB  ALA D   1      22.248 -13.090  18.103  1.00 17.48 LIG 0.05  C 
BRANCH 42 44
ATOM     44  N   ALA D   1      21.027 -11.620  16.502  1.00 17.36 LIG-0.07  N 
ATOM     45 H3   ALA D   1      21.621 -11.097  16.909  1.00 17.36 LIG 0.28  HD
ATOM     46 H2   ALA D   1      20.204 -11.332  16.682  1.00 17.36 LIG 0.28  HD
ATOM     47 H1   ALA D   1      21.163 -11.594  15.622  1.00 17.36 LIG 0.28  HD
ENDBRANCH 42 44
ENDBRANCH 39 42
ENDBRANCH 37 38
BRANCH 37 48
ATOM     48  CB  ARG D   2      16.805 -13.128  17.367  1.00 15.08 LIG 0.04  C 
BRANCH 48 49
ATOM     49  CG  ARG D   2      15.302 -13.029  17.592  1.00 14.63 LIG 0.02  C 
BRANCH 49 50
ATOM     50  CD  ARG D   2      14.549 -13.960  16.632  1.00 13.91 LIG 0.14  C 
BRANCH 50 51
ATOM     51  NE  ARG D   2      13.191 -14.249  17.092  1.00 10.79 LIG-0.23  N 
ATOM     52 HE   ARG D   2      12.833 -13.705  17.655  1.00 10.79 LIG 0.18  HD
ATOM     53  CZ  ARG D   2      12.471 -15.298  16.698  1.00 10.30 LIG 0.67  C 
ATOM     54  NH2 ARG D   2      12.966 -16.169  15.818  1.00  9.50 LIG-0.23  N 
ATOM     55  NH1 ARG D   2      11.252 -15.480  17.188  1.00  9.44 LIG-0.23  N 
ATOM     56 22HH ARG D   2      12.496 -16.843  15.569  1.00  9.50 LIG 0.17  HD
ATOM     57 21HH ARG D   2      13.758 -16.055  15.500  1.00  9.50 LIG 0.17  HD
ATOM     58 11HH ARG D   2      10.930 -14.921  17.756  1.00  9.44 LIG 0.17  HD
ATOM     59 12HH ARG D   2      10.784 -16.156  16.935  1.00  9.44 LIG 0.17  HD
ENDBRANCH 50 51
ENDBRANCH 49 50
ENDBRANCH 48 49
ENDBRANCH 37 48
ENDBRANCH 34 37
ENDBRANCH 1 33
TORSDOF 24
ENDMDL
MODEL 36
USER: ADFR SOLUTION from run 77
USER: SCORE 17.144041 LL:  -3.116 LR: -15.827 RR:   0.000 FEB:  -8.668
USER: RMSD 8.511534
USER: SEED 76
USER: STATUS no improvement in best 5 clusters for 5 generations
USER: GENES 26
USER: genes 0 Translation |==|  0.40122 0.52222 0.57683
USER: genes 1 Rotation |==|  0.28797 0.48560 0.94704 0.57061
USER: genes 2 Torsion [N]-CA--C-[N] |==|  0.36339
USER: genes 3 Torsion [C]-N--CA-[C] |==|  0.76666
USER: genes 4 Torsion [N]-CA--C-[N] |==|  0.21698
USER: genes 5 Torsion [C]-N--CA-[C] |==|  0.60283
USER: genes 6 Torsion [N]-CA--C-[O] |==|  0.04687
USER: genes 7 Torsion [N]-CA--CB-[CG] |==|  0.67871
USER: genes 8 Torsion [CA]-CB--CG-[CD] |==|  0.84336
USER: genes 9 Torsion [CB]-CG--CD-[OE1] |==|  0.37163
USER: genes 10 Torsion [N]-CA--CB-[CG] |==|  0.59325
USER: genes 11 Torsion [CA]-CB--CG-[CD] |==|  0.75340
USER: genes 12 Torsion [CB]-CG--CD-[CE] |==|  0.76713
USER: genes 13 Torsion [CG]-CD--CE-[NZ] |==|  0.20288
USER: genes 14 Torsion [CD]-CE--NZ-[HZ3] |==|  0.81642
USER: genes 15 Torsion [C]-CA--CB-[CG2] |==|  0.03332
USER: genes 16 Torsion [CA]-CB--OG1-[HG1] |==|  0.38043
USER: genes 17 Torsion [C]-CA--N-[C] |==|  0.16689
USER: genes 18 Torsion [N]-C--CA-[N] |==|  0.00438
USER: genes 19 Torsion [C]-CA--N-[C] |==|  0.19829
USER: genes 20 Torsion [N]-C--CA-[N] |==|  0.94680
USER: genes 21 Torsion [C]-CA--N-[H1] |==|  0.00203
USER: genes 22 Torsion [C]-CA--CB-[CG] |==|  0.37359
USER: genes 23 Torsion [CA]-CB--CG-[CD] |==|  0.84915
USER: genes 24 Torsion [CB]-CG--CD-[NE] |==|  0.69114
USER: genes 25 Torsion [CG]-CD--NE-[HE] |==|  0.17474
ROOT
ATOM      1  CA  THR D   3      15.037 -16.173  18.815  1.00 16.13 LIG 0.20  C 
ENDROOT
BRANCH 1 2
ATOM      2  C   THR D   3      16.336 -16.368  18.019  1.00 16.95 LIG 0.24  C 
ATOM      3 O    THR D   3      16.472 -17.353  17.286  1.00 16.12 LIG-0.27  OA
ATOM      4  N   LYS D   4      17.272 -15.428  18.174  1.00 18.15 LIG-0.35  N 
ATOM      5 H    LYS D   4      17.149 -14.727  18.656  1.00 18.15 LIG 0.16  HD
BRANCH 4 6
ATOM      6  CA  LYS D   4      18.605 -15.477  17.552  1.00 19.65 LIG 0.18  C 
BRANCH 6 7
ATOM      7  C   LYS D   4      19.534 -16.314  18.406  1.00 20.62 LIG 0.24  C 
ATOM      8  N   GLN D   5      19.405 -17.634  18.309  1.00 21.55 LIG-0.35  N 
ATOM      9 H    GLN D   5      18.837 -18.027  17.797  1.00 21.55 LIG 0.16  HD
ATOM     10 O    LYS D   4      20.367 -15.768  19.135  1.00 20.86 LIG-0.27  OA
BRANCH 8 11
ATOM     11  CA  GLN D   5      20.250 -18.545  19.092  1.00 22.83 LIG 0.16  C 
BRANCH 11 12
ATOM     12  C   GLN D   5      20.632 -19.799  18.307  1.00 22.91 LIG 0.22  C 
ATOM     13 O    GLN D   5      20.517 -19.842  17.081  1.00 23.29 LIG-0.29  OA
ENDBRANCH 11 12
BRANCH 11 14
ATOM     14  CB  GLN D   5      19.574 -18.926  20.411  1.00 22.86 LIG 0.04  C 
BRANCH 14 15
ATOM     15  CG  GLN D   5      20.302 -18.447  21.656  1.00 24.40 LIG 0.10  C 
BRANCH 15 16
ATOM     16  CD  GLN D   5      21.740 -18.926  21.728  1.00 24.21 LIG 0.21  C 
ATOM     17  NE2 GLN D   5      21.948 -20.215  21.451  1.00 25.13 LIG-0.37  N 
ATOM     18 22HE GLN D   5      22.746 -20.535  21.473  1.00 25.13 LIG 0.16  HD
ATOM     19 21HE GLN D   5      21.285 -20.724  21.250  1.00 25.13 LIG 0.16  HD
ATOM     20 OE1  GLN D   5      22.656 -18.149  22.022  1.00 25.71 LIG-0.27  OA
ENDBRANCH 15 16
ENDBRANCH 14 15
ENDBRANCH 11 14
ENDBRANCH 8 11
ENDBRANCH 6 7
BRANCH 6 21
ATOM     21  CB  LYS D   4      19.217 -14.077  17.451  1.00 19.73 LIG 0.04  C 
BRANCH 21 22
ATOM     22  CG  LYS D   4      20.088 -13.825  16.251  1.00 20.49 LIG 0.00  C 
BRANCH 22 23
ATOM     23  CD  LYS D   4      21.522 -14.215  16.572  1.00 20.73 LIG 0.03  C 
BRANCH 23 24
ATOM     24  CE  LYS D   4      22.236 -13.090  17.281  1.00 20.46 LIG 0.23  C 
BRANCH 24 25
ATOM     25  NZ  LYS D   4      21.764 -12.950  18.680  1.00 20.02 LIG-0.08  N 
ATOM     26 HZ3  LYS D   4      20.913 -12.691  18.682  1.00 20.02 LIG 0.27  HD
ATOM     27 HZ1  LYS D   4      21.837 -13.732  19.097  1.00 20.02 LIG 0.27  HD
ATOM     28 HZ2  LYS D   4      22.260 -12.342  19.101  1.00 20.02 LIG 0.27  HD
ENDBRANCH 24 25
ENDBRANCH 23 24
ENDBRANCH 22 23
ENDBRANCH 21 22
ENDBRANCH 6 21
ENDBRANCH 4 6
ENDBRANCH 1 2
BRANCH 1 29
ATOM     29  CB  THR D   3      15.022 -17.112  20.037  1.00 15.86 LIG 0.15  C 
ATOM     30  CG2 THR D   3      16.401 -17.728  20.259  1.00 16.15 LIG 0.04  C 
BRANCH 29 31
ATOM     31 OG1  THR D   3      14.648 -16.373  21.206  1.00 16.19 LIG-0.39  OA
ATOM     32 HG1  THR D   3      14.104 -16.824  21.660  1.00 16.19 LIG 0.21  HD
ENDBRANCH 29 31
ENDBRANCH 1 29
BRANCH 1 33
ATOM     33  N   THR D   3      13.812 -16.318  18.013  1.00 15.75 LIG-0.34  N 
ATOM     34  C   ARG D   2      13.515 -17.449  17.372  1.00 15.31 LIG 0.24  C 
ATOM     35 O    ARG D   2      14.203 -18.464  17.449  1.00 15.17 LIG-0.27  OA
ATOM     36 H    THR D   3      13.315 -15.615  17.998  1.00 15.75 LIG 0.16  HD
BRANCH 34 37
ATOM     37  CA  ARG D   2      12.258 -17.431  16.500  1.00 15.15 LIG 0.18  C 
BRANCH 37 38
ATOM     38  N   ARG D   2      11.599 -16.122  16.493  1.00 15.89 LIG-0.35  N 
ATOM     39  C   ALA D   1      12.082 -15.038  15.882  1.00 16.91 LIG 0.25  C 
ATOM     40 O    ALA D   1      13.203 -14.989  15.361  1.00 17.32 LIG-0.27  OA
ATOM     41 H    ARG D   2      10.856 -16.116  16.927  1.00 15.89 LIG 0.16  HD
BRANCH 39 42
ATOM     42  CA  ALA D   1      11.165 -13.813  15.868  1.00 17.08 LIG 0.27  C 
ATOM     43  CB  ALA D   1      11.636 -12.764  16.900  1.00 17.48 LIG 0.05  C 
BRANCH 42 44
ATOM     44  N   ALA D   1       9.749 -14.201  16.132  1.00 17.36 LIG-0.07  N 
ATOM     45 H3   ALA D   1       9.244 -13.975  15.435  1.00 17.36 LIG 0.28  HD
ATOM     46 H2   ALA D   1       9.456 -13.779  16.859  1.00 17.36 LIG 0.28  HD
ATOM     47 H1   ALA D   1       9.700 -15.081  16.261  1.00 17.36 LIG 0.28  HD
ENDBRANCH 42 44
ENDBRANCH 39 42
ENDBRANCH 37 38
BRANCH 37 48
ATOM     48  CB  ARG D   2      12.630 -17.799  15.056  1.00 15.08 LIG 0.04  C 
BRANCH 48 49
ATOM     49  CG  ARG D   2      11.738 -18.807  14.343  1.00 14.63 LIG 0.02  C 
BRANCH 49 50
ATOM     50  CD  ARG D   2      11.611 -20.094  15.168  1.00 13.91 LIG 0.14  C 
BRANCH 50 51
ATOM     51  NE  ARG D   2      12.284 -21.227  14.532  1.00 10.79 LIG-0.23  N 
ATOM     52 HE   ARG D   2      13.136 -21.179  14.425  1.00 10.79 LIG 0.18  HD
ATOM     53  CZ  ARG D   2      11.665 -22.329  14.109  1.00 10.30 LIG 0.67  C 
ATOM     54  NH2 ARG D   2      10.347 -22.466  14.260  1.00  9.50 LIG-0.23  N 
ATOM     55  NH1 ARG D   2      12.365 -23.294  13.529  1.00  9.44 LIG-0.23  N 
ATOM     56 22HH ARG D   2       9.955 -23.179  13.984  1.00  9.50 LIG 0.17  HD
ATOM     57 21HH ARG D   2       9.890 -21.841  14.634  1.00  9.50 LIG 0.17  HD
ATOM     58 11HH ARG D   2      13.214 -23.208  13.429  1.00  9.44 LIG 0.17  HD
ATOM     59 12HH ARG D   2      11.969 -24.006  13.255  1.00  9.44 LIG 0.17  HD
ENDBRANCH 50 51
ENDBRANCH 49 50
ENDBRANCH 48 49
ENDBRANCH 37 48
ENDBRANCH 34 37
ENDBRANCH 1 33
TORSDOF 24
ENDMDL
MODEL 37
USER: ADFR SOLUTION from run 109
USER: SCORE 19.314785 LL:  -3.956 LR: -15.789 RR:   0.000 FEB:  -8.630
USER: RMSD 3.315124
USER: SEED 108
USER: STATUS 1 or 2 clusters left
USER: GENES 26
USER: genes 0 Translation |==|  0.43423 0.46619 0.56811
USER: genes 1 Rotation |==|  0.43960 0.48327 0.48341 0.99578
USER: genes 2 Torsion [N]-CA--C-[N] |==|  0.96600
USER: genes 3 Torsion [C]-N--CA-[C] |==|  0.63018
USER: genes 4 Torsion [N]-CA--C-[N] |==|  0.98220
USER: genes 5 Torsion [C]-N--CA-[C] |==|  0.56803
USER: genes 6 Torsion [N]-CA--C-[O] |==|  0.14356
USER: genes 7 Torsion [N]-CA--CB-[CG] |==|  0.62754
USER: genes 8 Torsion [CA]-CB--CG-[CD] |==|  0.07474
USER: genes 9 Torsion [CB]-CG--CD-[OE1] |==|  0.19594
USER: genes 10 Torsion [N]-CA--CB-[CG] |==|  0.64441
USER: genes 11 Torsion [CA]-CB--CG-[CD] |==|  0.74369
USER: genes 12 Torsion [CB]-CG--CD-[CE] |==|  0.25244
USER: genes 13 Torsion [CG]-CD--CE-[NZ] |==|  0.15053
USER: genes 14 Torsion [CD]-CE--NZ-[HZ3] |==|  0.11546
USER: genes 15 Torsion [C]-CA--CB-[CG2] |==|  0.47921
USER: genes 16 Torsion [CA]-CB--OG1-[HG1] |==|  0.59859
USER: genes 17 Torsion [C]-CA--N-[C] |==|  0.81444
USER: genes 18 Torsion [N]-C--CA-[N] |==|  0.94860
USER: genes 19 Torsion [C]-CA--N-[C] |==|  0.82461
USER: genes 20 Torsion [N]-C--CA-[N] |==|  0.39630
USER: genes 21 Torsion [C]-CA--N-[H1] |==|  0.04252
USER: genes 22 Torsion [C]-CA--CB-[CG] |==|  0.21749
USER: genes 23 Torsion [CA]-CB--CG-[CD] |==|  0.48336
USER: genes 24 Torsion [CB]-CG--CD-[NE] |==|  0.77611
USER: genes 25 Torsion [CG]-CD--NE-[HE] |==|  0.27103
ROOT
ATOM      1  CA  THR D   3      16.027 -17.854  18.553  1.00 16.13 LIG 0.20  C 
ENDROOT
BRANCH 1 2
ATOM      2  C   THR D   3      15.881 -18.182  17.059  1.00 16.95 LIG 0.24  C 
ATOM      3 O    THR D   3      14.929 -18.861  16.663  1.00 16.12 LIG-0.27  OA
ATOM      4  N   LYS D   4      16.828 -17.694  16.252  1.00 18.15 LIG-0.35  N 
ATOM      5 H    LYS D   4      17.463 -17.188  16.534  1.00 18.15 LIG 0.16  HD
BRANCH 4 6
ATOM      6  CA  LYS D   4      16.897 -17.958  14.806  1.00 19.65 LIG 0.18  C 
BRANCH 6 7
ATOM      7  C   LYS D   4      18.313 -18.340  14.426  1.00 20.62 LIG 0.24  C 
ATOM      8  N   GLN D   5      19.232 -18.243  15.382  1.00 21.55 LIG-0.35  N 
ATOM      9 H    GLN D   5      19.068 -17.982  16.185  1.00 21.55 LIG 0.16  HD
ATOM     10 O    LYS D   4      18.565 -18.731  13.283  1.00 20.86 LIG-0.27  OA
BRANCH 8 11
ATOM     11  CA  GLN D   5      20.638 -18.583  15.129  1.00 22.83 LIG 0.16  C 
BRANCH 11 12
ATOM     12  C   GLN D   5      21.377 -18.979  16.406  1.00 22.91 LIG 0.22  C 
ATOM     13 O    GLN D   5      20.925 -19.840  17.162  1.00 23.29 LIG-0.29  OA
ENDBRANCH 11 12
BRANCH 11 14
ATOM     14  CB  GLN D   5      21.365 -17.433  14.426  1.00 22.86 LIG 0.04  C 
BRANCH 14 15
ATOM     15  CG  GLN D   5      22.224 -17.856  13.247  1.00 24.40 LIG 0.10  C 
BRANCH 15 16
ATOM     16  CD  GLN D   5      21.741 -19.132  12.583  1.00 24.21 LIG 0.21  C 
ATOM     17  NE2 GLN D   5      22.500 -20.215  12.760  1.00 25.13 LIG-0.37  N 
ATOM     18 22HE GLN D   5      22.268 -20.964  12.409  1.00 25.13 LIG 0.16  HD
ATOM     19 21HE GLN D   5      23.221 -20.163  13.227  1.00 25.13 LIG 0.16  HD
ATOM     20 OE1  GLN D   5      20.695 -19.150  11.923  1.00 25.71 LIG-0.27  OA
ENDBRANCH 15 16
ENDBRANCH 14 15
ENDBRANCH 11 14
ENDBRANCH 8 11
ENDBRANCH 6 7
BRANCH 6 21
ATOM     21  CB  LYS D   4      16.532 -16.708  14.000  1.00 19.73 LIG 0.04  C 
BRANCH 21 22
ATOM     22  CG  LYS D   4      15.470 -16.889  12.951  1.00 20.49 LIG 0.00  C 
BRANCH 22 23
ATOM     23  CD  LYS D   4      16.121 -17.222  11.618  1.00 20.73 LIG 0.03  C 
BRANCH 23 24
ATOM     24  CE  LYS D   4      16.260 -18.716  11.449  1.00 20.46 LIG 0.23  C 
BRANCH 24 25
ATOM     25  NZ  LYS D   4      14.958 -19.401  11.629  1.00 20.02 LIG-0.08  N 
ATOM     26 HZ3  LYS D   4      14.317 -18.933  11.225  1.00 20.02 LIG 0.27  HD
ATOM     27 HZ1  LYS D   4      14.999 -20.215  11.272  1.00 20.02 LIG 0.27  HD
ATOM     28 HZ2  LYS D   4      14.774 -19.467  12.497  1.00 20.02 LIG 0.27  HD
ENDBRANCH 24 25
ENDBRANCH 23 24
ENDBRANCH 22 23
ENDBRANCH 21 22
ENDBRANCH 6 21
ENDBRANCH 4 6
ENDBRANCH 1 2
BRANCH 1 29
ATOM     29  CB  THR D   3      14.873 -16.939  19.006  1.00 15.86 LIG 0.15  C 
ATOM     30  CG2 THR D   3      14.895 -16.753  20.520  1.00 16.15 LIG 0.04  C 
BRANCH 29 31
ATOM     31 OG1  THR D   3      15.001 -15.657  18.378  1.00 16.19 LIG-0.39  OA
ATOM     32 HG1  THR D   3      14.749 -15.058  18.909  1.00 16.19 LIG 0.21  HD
ENDBRANCH 29 31
ENDBRANCH 1 29
BRANCH 1 33
ATOM     33  N   THR D   3      17.335 -17.291  18.922  1.00 15.75 LIG-0.34  N 
ATOM     34  C   ARG D   2      18.459 -18.005  18.849  1.00 15.31 LIG 0.24  C 
ATOM     35 O    ARG D   2      18.496 -19.155  18.418  1.00 15.17 LIG-0.27  OA
ATOM     36 H    THR D   3      17.305 -16.472  19.184  1.00 15.75 LIG 0.16  HD
BRANCH 34 37
ATOM     37  CA  ARG D   2      19.734 -17.326  19.351  1.00 15.15 LIG 0.18  C 
BRANCH 37 38
ATOM     38  N   ARG D   2      19.600 -15.868  19.430  1.00 15.89 LIG-0.35  N 
ATOM     39  C   ALA D   1      19.384 -15.073  18.380  1.00 16.91 LIG 0.25  C 
ATOM     40 O    ALA D   1      19.399 -15.469  17.208  1.00 17.32 LIG-0.27  OA
ATOM     41 H    ARG D   2      19.674 -15.565  20.232  1.00 15.89 LIG 0.16  HD
BRANCH 39 42
ATOM     42  CA  ALA D   1      19.125 -13.599  18.698  1.00 17.08 LIG 0.27  C 
ATOM     43  CB  ALA D   1      17.609 -13.317  18.793  1.00 17.48 LIG 0.05  C 
BRANCH 42 44
ATOM     44  N   ALA D   1      19.755 -12.712  17.677  1.00 17.36 LIG-0.07  N 
ATOM     45 H3   ALA D   1      20.488 -12.340  18.019  1.00 17.36 LIG 0.28  HD
ATOM     46 H2   ALA D   1      19.180 -12.074  17.442  1.00 17.36 LIG 0.28  HD
ATOM     47 H1   ALA D   1      19.973 -13.192  16.960  1.00 17.36 LIG 0.28  HD
ENDBRANCH 42 44
ENDBRANCH 39 42
ENDBRANCH 37 38
BRANCH 37 48
ATOM     48  CB  ARG D   2      20.086 -17.860  20.747  1.00 15.08 LIG 0.04  C 
BRANCH 48 49
ATOM     49  CG  ARG D   2      20.752 -19.227  20.821  1.00 14.63 LIG 0.02  C 
BRANCH 49 50
ATOM     50  CD  ARG D   2      21.170 -19.547  22.263  1.00 13.91 LIG 0.14  C 
BRANCH 50 51
ATOM     51  NE  ARG D   2      22.429 -18.900  22.631  1.00 10.79 LIG-0.23  N 
ATOM     52 HE   ARG D   2      22.388 -18.160  23.068  1.00 10.79 LIG 0.18  HD
ATOM     53  CZ  ARG D   2      23.637 -19.379  22.334  1.00 10.30 LIG 0.67  C 
ATOM     54  NH2 ARG D   2      23.765 -20.528  21.670  1.00  9.50 LIG-0.23  N 
ATOM     55  NH1 ARG D   2      24.719 -18.707  22.699  1.00  9.44 LIG-0.23  N 
ATOM     56 22HH ARG D   2      24.547 -20.831  21.481  1.00  9.50 LIG 0.17  HD
ATOM     57 21HH ARG D   2      23.065 -20.966  21.429  1.00  9.50 LIG 0.17  HD
ATOM     58 11HH ARG D   2      24.640 -17.965  23.127  1.00  9.44 LIG 0.17  HD
ATOM     59 12HH ARG D   2      25.500 -19.013  22.510  1.00  9.44 LIG 0.17  HD
ENDBRANCH 50 51
ENDBRANCH 49 50
ENDBRANCH 48 49
ENDBRANCH 37 48
ENDBRANCH 34 37
ENDBRANCH 1 33
TORSDOF 24
ENDMDL
MODEL 38
USER: ADFR SOLUTION from run 66
USER: SCORE 18.193728 LL:  -3.210 LR: -15.790 RR:   0.000 FEB:  -8.631
USER: RMSD 6.112748
USER: SEED 65
USER: STATUS no improvement in best 6 clusters for 5 generations
USER: GENES 26
USER: genes 0 Translation |==|  0.59022 0.42164 0.43223
USER: genes 1 Rotation |==|  0.49025 0.27645 0.65670 0.91878
USER: genes 2 Torsion [N]-CA--C-[N] |==|  0.43232
USER: genes 3 Torsion [C]-N--CA-[C] |==|  0.73424
USER: genes 4 Torsion [N]-CA--C-[N] |==|  0.91024
USER: genes 5 Torsion [C]-N--CA-[C] |==|  0.81718
USER: genes 6 Torsion [N]-CA--C-[O] |==|  0.90844
USER: genes 7 Torsion [N]-CA--CB-[CG] |==|  0.19232
USER: genes 8 Torsion [CA]-CB--CG-[CD] |==|  0.36692
USER: genes 9 Torsion [CB]-CG--CD-[OE1] |==|  0.98893
USER: genes 10 Torsion [N]-CA--CB-[CG] |==|  0.50904
USER: genes 11 Torsion [CA]-CB--CG-[CD] |==|  0.64181
USER: genes 12 Torsion [CB]-CG--CD-[CE] |==|  0.16590
USER: genes 13 Torsion [CG]-CD--CE-[NZ] |==|  0.66314
USER: genes 14 Torsion [CD]-CE--NZ-[HZ3] |==|  0.13772
USER: genes 15 Torsion [C]-CA--CB-[CG2] |==|  0.83344
USER: genes 16 Torsion [CA]-CB--OG1-[HG1] |==|  0.94693
USER: genes 17 Torsion [C]-CA--N-[C] |==|  0.60589
USER: genes 18 Torsion [N]-C--CA-[N] |==|  0.06065
USER: genes 19 Torsion [C]-CA--N-[C] |==|  0.60000
USER: genes 20 Torsion [N]-C--CA-[N] |==|  0.44492
USER: genes 21 Torsion [C]-CA--N-[H1] |==|  0.39487
USER: genes 22 Torsion [C]-CA--CB-[CG] |==|  0.31895
USER: genes 23 Torsion [CA]-CB--CG-[CD] |==|  0.67485
USER: genes 24 Torsion [CB]-CG--CD-[NE] |==|  0.29372
USER: genes 25 Torsion [CG]-CD--NE-[HE] |==|  0.70808
ROOT
ATOM      1  CA  THR D   3      20.707 -19.191  14.477  1.00 16.13 LIG 0.20  C 
ENDROOT
BRANCH 1 2
ATOM      2  C   THR D   3      21.753 -18.922  13.384  1.00 16.95 LIG 0.24  C 
ATOM      3 O    THR D   3      22.113 -17.766  13.142  1.00 16.12 LIG-0.27  OA
ATOM      4  N   LYS D   4      22.224 -19.994  12.739  1.00 18.15 LIG-0.35  N 
ATOM      5 H    LYS D   4      21.995 -20.796  12.945  1.00 18.15 LIG 0.16  HD
BRANCH 4 6
ATOM      6  CA  LYS D   4      23.175 -19.931  11.619  1.00 19.65 LIG 0.18  C 
BRANCH 6 7
ATOM      7  C   LYS D   4      22.419 -19.976  10.307  1.00 20.62 LIG 0.24  C 
ATOM      8  N   GLN D   5      21.293 -20.684  10.293  1.00 21.55 LIG-0.35  N 
ATOM      9 H    GLN D   5      20.980 -21.106  10.974  1.00 21.55 LIG 0.16  HD
ATOM     10 O    LYS D   4      22.846 -19.364   9.323  1.00 20.86 LIG-0.27  OA
BRANCH 8 11
ATOM     11  CA  GLN D   5      20.479 -20.802   9.076  1.00 22.83 LIG 0.16  C 
BRANCH 11 12
ATOM     12  C   GLN D   5      19.871 -19.465   8.656  1.00 22.91 LIG 0.22  C 
ATOM     13 O    GLN D   5      19.541 -18.624   9.493  1.00 23.29 LIG-0.29  OA
ENDBRANCH 11 12
BRANCH 11 14
ATOM     14  CB  GLN D   5      19.383 -21.856   9.247  1.00 22.86 LIG 0.04  C 
BRANCH 14 15
ATOM     15  CG  GLN D   5      18.284 -21.473  10.223  1.00 24.40 LIG 0.10  C 
BRANCH 15 16
ATOM     16  CD  GLN D   5      16.889 -21.707   9.673  1.00 24.21 LIG 0.21  C 
ATOM     17  NE2 GLN D   5      15.876 -21.462  10.507  1.00 25.13 LIG-0.37  N 
ATOM     18 22HE GLN D   5      15.066 -21.575  10.242  1.00 25.13 LIG 0.16  HD
ATOM     19 21HE GLN D   5      16.034 -21.192  11.308  1.00 25.13 LIG 0.16  HD
ATOM     20 OE1  GLN D   5      16.719 -22.097   8.512  1.00 25.71 LIG-0.27  OA
ENDBRANCH 15 16
ENDBRANCH 14 15
ENDBRANCH 11 14
ENDBRANCH 8 11
ENDBRANCH 6 7
BRANCH 6 21
ATOM     21  CB  LYS D   4      24.125 -21.132  11.637  1.00 19.73 LIG 0.04  C 
BRANCH 21 22
ATOM     22  CG  LYS D   4      25.196 -21.140  10.580  1.00 20.49 LIG 0.00  C 
BRANCH 22 23
ATOM     23  CD  LYS D   4      25.186 -22.476   9.854  1.00 20.73 LIG 0.03  C 
BRANCH 23 24
ATOM     24  CE  LYS D   4      23.847 -22.718   9.200  1.00 20.46 LIG 0.23  C 
BRANCH 24 25
ATOM     25  NZ  LYS D   4      23.221 -23.965   9.700  1.00 20.02 LIG-0.08  N 
ATOM     26 HZ3  LYS D   4      23.236 -23.969  10.590  1.00 20.02 LIG 0.27  HD
ATOM     27 HZ1  LYS D   4      22.379 -24.007   9.418  1.00 20.02 LIG 0.27  HD
ATOM     28 HZ2  LYS D   4      23.672 -24.668   9.392  1.00 20.02 LIG 0.27  HD
ENDBRANCH 24 25
ENDBRANCH 23 24
ENDBRANCH 22 23
ENDBRANCH 21 22
ENDBRANCH 6 21
ENDBRANCH 4 6
ENDBRANCH 1 2
BRANCH 1 29
ATOM     29  CB  THR D   3      19.329 -19.447  13.835  1.00 15.86 LIG 0.15  C 
ATOM     30  CG2 THR D   3      18.882 -18.238  13.019  1.00 16.15 LIG 0.04  C 
BRANCH 29 31
ATOM     31 OG1  THR D   3      19.406 -20.589  12.972  1.00 16.19 LIG-0.39  OA
ATOM     32 HG1  THR D   3      20.209 -20.738  12.776  1.00 16.19 LIG 0.21  HD
ENDBRANCH 29 31
ENDBRANCH 1 29
BRANCH 1 33
ATOM     33  N   THR D   3      20.631 -18.145  15.509  1.00 15.75 LIG-0.34  N 
ATOM     34  C   ARG D   2      20.432 -18.434  16.795  1.00 15.31 LIG 0.24  C 
ATOM     35 O    ARG D   2      20.357 -19.584  17.221  1.00 15.17 LIG-0.27  OA
ATOM     36 H    THR D   3      20.726 -17.345  15.207  1.00 15.75 LIG 0.16  HD
BRANCH 34 37
ATOM     37  CA  ARG D   2      20.282 -17.246  17.748  1.00 15.15 LIG 0.18  C 
BRANCH 37 38
ATOM     38  N   ARG D   2      19.876 -16.019  17.054  1.00 15.89 LIG-0.35  N 
ATOM     39  C   ALA D   1      20.296 -14.795  17.380  1.00 16.91 LIG 0.25  C 
ATOM     40 O    ALA D   1      20.978 -14.551  18.384  1.00 17.32 LIG-0.27  OA
ATOM     41 H    ARG D   2      19.331 -16.163  16.405  1.00 15.89 LIG 0.16  HD
BRANCH 39 42
ATOM     42  CA  ALA D   1      19.872 -13.669  16.436  1.00 17.08 LIG 0.27  C 
ATOM     43  CB  ALA D   1      20.727 -13.680  15.149  1.00 17.48 LIG 0.05  C 
BRANCH 42 44
ATOM     44  N   ALA D   1      19.968 -12.341  17.111  1.00 17.36 LIG-0.07  N 
ATOM     45 H3   ALA D   1      20.536 -12.395  17.794  1.00 17.36 LIG 0.28  HD
ATOM     46 H2   ALA D   1      19.165 -12.101  17.411  1.00 17.36 LIG 0.28  HD
ATOM     47 H1   ALA D   1      20.260 -11.732  16.530  1.00 17.36 LIG 0.28  HD
ENDBRANCH 42 44
ENDBRANCH 39 42
ENDBRANCH 37 38
BRANCH 37 48
ATOM     48  CB  ARG D   2      19.228 -17.574  18.816  1.00 15.08 LIG 0.04  C 
BRANCH 48 49
ATOM     49  CG  ARG D   2      19.708 -17.679  20.257  1.00 14.63 LIG 0.02  C 
BRANCH 49 50
ATOM     50  CD  ARG D   2      19.491 -19.098  20.798  1.00 13.91 LIG 0.14  C 
BRANCH 50 51
ATOM     51  NE  ARG D   2      20.742 -19.850  20.896  1.00 10.79 LIG-0.23  N 
ATOM     52 HE   ARG D   2      20.892 -20.460  20.307  1.00 10.79 LIG 0.18  HD
ATOM     53  CZ  ARG D   2      21.666 -19.655  21.836  1.00 10.30 LIG 0.67  C 
ATOM     54  NH2 ARG D   2      21.497 -18.716  22.767  1.00  9.50 LIG-0.23  N 
ATOM     55  NH1 ARG D   2      22.761 -20.402  21.847  1.00  9.44 LIG-0.23  N 
ATOM     56 22HH ARG D   2      22.096 -18.596  23.371  1.00  9.50 LIG 0.17  HD
ATOM     57 21HH ARG D   2      20.786 -18.230  22.764  1.00  9.50 LIG 0.17  HD
ATOM     58 11HH ARG D   2      22.873 -21.009  21.249  1.00  9.44 LIG 0.17  HD
ATOM     59 12HH ARG D   2      23.360 -20.278  22.452  1.00  9.44 LIG 0.17  HD
ENDBRANCH 50 51
ENDBRANCH 49 50
ENDBRANCH 48 49
ENDBRANCH 37 48
ENDBRANCH 34 37
ENDBRANCH 1 33
TORSDOF 24
ENDMDL
MODEL 39
USER: ADFR SOLUTION from run 27
USER: SCORE 18.606798 LL:  -3.040 LR: -15.780 RR:   0.000 FEB:  -8.621
USER: RMSD 8.424239
USER: SEED 26
USER: STATUS no improvement in best 5 clusters for 5 generations
USER: GENES 26
USER: genes 0 Translation |==|  0.49032 0.54240 0.56585
USER: genes 1 Rotation |==|  0.33767 0.71366 0.88043 0.68242
USER: genes 2 Torsion [N]-CA--C-[N] |==|  0.35338
USER: genes 3 Torsion [C]-N--CA-[C] |==|  0.76886
USER: genes 4 Torsion [N]-CA--C-[N] |==|  0.95224
USER: genes 5 Torsion [C]-N--CA-[C] |==|  0.73676
USER: genes 6 Torsion [N]-CA--C-[O] |==|  0.95452
USER: genes 7 Torsion [N]-CA--CB-[CG] |==|  0.51203
USER: genes 8 Torsion [CA]-CB--CG-[CD] |==|  0.26106
USER: genes 9 Torsion [CB]-CG--CD-[OE1] |==|  0.78528
USER: genes 10 Torsion [N]-CA--CB-[CG] |==|  0.53050
USER: genes 11 Torsion [CA]-CB--CG-[CD] |==|  0.22292
USER: genes 12 Torsion [CB]-CG--CD-[CE] |==|  0.29864
USER: genes 13 Torsion [CG]-CD--CE-[NZ] |==|  0.20861
USER: genes 14 Torsion [CD]-CE--NZ-[HZ3] |==|  0.99571
USER: genes 15 Torsion [C]-CA--CB-[CG2] |==|  0.81225
USER: genes 16 Torsion [CA]-CB--OG1-[HG1] |==|  0.19953
USER: genes 17 Torsion [C]-CA--N-[C] |==|  0.81137
USER: genes 18 Torsion [N]-C--CA-[N] |==|  0.86673
USER: genes 19 Torsion [C]-CA--N-[C] |==|  0.82518
USER: genes 20 Torsion [N]-C--CA-[N] |==|  0.12389
USER: genes 21 Torsion [C]-CA--N-[H1] |==|  0.73906
USER: genes 22 Torsion [C]-CA--CB-[CG] |==|  0.82532
USER: genes 23 Torsion [CA]-CB--CG-[CD] |==|  0.38711
USER: genes 24 Torsion [CB]-CG--CD-[NE] |==|  0.76665
USER: genes 25 Torsion [CG]-CD--NE-[HE] |==|  0.28513
ROOT
ATOM      1  CA  THR D   3      17.710 -15.568  18.486  1.00 16.13 LIG 0.20  C 
ENDROOT
BRANCH 1 2
ATOM      2  C   THR D   3      18.088 -16.991  18.044  1.00 16.95 LIG 0.24  C 
ATOM      3 O    THR D   3      17.256 -17.901  18.107  1.00 16.12 LIG-0.27  OA
ATOM      4  N   LYS D   4      19.338 -17.161  17.604  1.00 18.15 LIG-0.35  N 
ATOM      5 H    LYS D   4      19.895 -16.510  17.526  1.00 18.15 LIG 0.16  HD
BRANCH 4 6
ATOM      6  CA  LYS D   4      19.904 -18.459  17.206  1.00 19.65 LIG 0.18  C 
BRANCH 6 7
ATOM      7  C   LYS D   4      20.391 -19.200  18.433  1.00 20.62 LIG 0.24  C 
ATOM      8  N   GLN D   5      20.565 -18.476  19.535  1.00 21.55 LIG-0.35  N 
ATOM      9 H    GLN D   5      20.418 -17.630  19.585  1.00 21.55 LIG 0.16  HD
ATOM     10 O    LYS D   4      20.594 -20.417  18.385  1.00 20.86 LIG-0.27  OA
BRANCH 8 11
ATOM     11  CA  GLN D   5      21.038 -19.086  20.785  1.00 22.83 LIG 0.16  C 
BRANCH 11 12
ATOM     12  C   GLN D   5      19.886 -19.476  21.709  1.00 22.91 LIG 0.22  C 
ATOM     13 O    GLN D   5      18.753 -19.022  21.541  1.00 23.29 LIG-0.29  OA
ENDBRANCH 11 12
BRANCH 11 14
ATOM     14  CB  GLN D   5      22.017 -18.162  21.513  1.00 22.86 LIG 0.04  C 
BRANCH 14 15
ATOM     15  CG  GLN D   5      22.636 -18.758  22.766  1.00 24.40 LIG 0.10  C 
BRANCH 15 16
ATOM     16  CD  GLN D   5      23.976 -19.422  22.512  1.00 24.21 LIG 0.21  C 
ATOM     17  NE2 GLN D   5      25.057 -18.735  22.888  1.00 25.13 LIG-0.37  N 
ATOM     18 22HE GLN D   5      25.840 -19.069  22.770  1.00 25.13 LIG 0.16  HD
ATOM     19 21HE GLN D   5      24.969 -17.959  23.248  1.00 25.13 LIG 0.16  HD
ATOM     20 OE1  GLN D   5      24.044 -20.541  21.989  1.00 25.71 LIG-0.27  OA
ENDBRANCH 15 16
ENDBRANCH 14 15
ENDBRANCH 11 14
ENDBRANCH 8 11
ENDBRANCH 6 7
BRANCH 6 21
ATOM     21  CB  LYS D   4      21.109 -18.273  16.279  1.00 19.73 LIG 0.04  C 
BRANCH 21 22
ATOM     22  CG  LYS D   4      21.616 -19.516  15.600  1.00 20.49 LIG 0.00  C 
BRANCH 22 23
ATOM     23  CD  LYS D   4      20.744 -19.829  14.395  1.00 20.73 LIG 0.03  C 
BRANCH 23 24
ATOM     24  CE  LYS D   4      21.479 -19.529  13.111  1.00 20.46 LIG 0.23  C 
BRANCH 24 25
ATOM     25  NZ  LYS D   4      22.500 -20.564  12.821  1.00 20.02 LIG-0.08  N 
ATOM     26 HZ3  LYS D   4      22.507 -21.167  13.475  1.00 20.02 LIG 0.27  HD
ATOM     27 HZ1  LYS D   4      22.305 -20.965  12.051  1.00 20.02 LIG 0.27  HD
ATOM     28 HZ2  LYS D   4      23.302 -20.182  12.761  1.00 20.02 LIG 0.27  HD
ENDBRANCH 24 25
ENDBRANCH 23 24
ENDBRANCH 22 23
ENDBRANCH 21 22
ENDBRANCH 6 21
ENDBRANCH 4 6
ENDBRANCH 1 2
BRANCH 1 29
ATOM     29  CB  THR D   3      17.610 -15.503  20.022  1.00 15.86 LIG 0.15  C 
ATOM     30  CG2 THR D   3      16.426 -16.327  20.520  1.00 16.15 LIG 0.04  C 
BRANCH 29 31
ATOM     31 OG1  THR D   3      18.814 -16.019  20.603  1.00 16.19 LIG-0.39  OA
ATOM     32 HG1  THR D   3      19.440 -15.473  20.482  1.00 16.19 LIG 0.21  HD
ENDBRANCH 29 31
ENDBRANCH 1 29
BRANCH 1 33
ATOM     33  N   THR D   3      16.493 -15.043  17.847  1.00 15.75 LIG-0.34  N 
ATOM     34  C   ARG D   2      16.444 -14.757  16.545  1.00 15.31 LIG 0.24  C 
ATOM     35 O    ARG D   2      17.382 -14.965  15.777  1.00 15.17 LIG-0.27  OA
ATOM     36 H    THR D   3      15.829 -14.939  18.384  1.00 15.75 LIG 0.16  HD
BRANCH 34 37
ATOM     37  CA  ARG D   2      15.148 -14.130  16.030  1.00 15.15 LIG 0.18  C 
BRANCH 37 38
ATOM     38  N   ARG D   2      13.956 -14.849  16.491  1.00 15.89 LIG-0.35  N 
ATOM     39  C   ALA D   1      13.672 -16.115  16.181  1.00 16.91 LIG 0.25  C 
ATOM     40 O    ALA D   1      14.323 -16.783  15.368  1.00 17.32 LIG-0.27  OA
ATOM     41 H    ARG D   2      13.445 -14.369  16.990  1.00 15.89 LIG 0.16  HD
BRANCH 39 42
ATOM     42  CA  ALA D   1      12.458 -16.721  16.888  1.00 17.08 LIG 0.27  C 
ATOM     43  CB  ALA D   1      12.051 -18.058  16.229  1.00 17.48 LIG 0.05  C 
BRANCH 42 44
ATOM     44  N   ALA D   1      11.308 -15.770  16.886  1.00 17.36 LIG-0.07  N 
ATOM     45 H3   ALA D   1      10.545 -16.226  16.823  1.00 17.36 LIG 0.28  HD
ATOM     46 H2   ALA D   1      11.380 -15.218  16.192  1.00 17.36 LIG 0.28  HD
ATOM     47 H1   ALA D   1      11.310 -15.299  17.641  1.00 17.36 LIG 0.28  HD
ENDBRANCH 42 44
ENDBRANCH 39 42
ENDBRANCH 37 38
BRANCH 37 48
ATOM     48  CB  ARG D   2      15.056 -12.674  16.507  1.00 15.08 LIG 0.04  C 
BRANCH 48 49
ATOM     49  CG  ARG D   2      14.984 -12.438  18.010  1.00 14.63 LIG 0.02  C 
BRANCH 49 50
ATOM     50  CD  ARG D   2      15.845 -11.232  18.410  1.00 13.91 LIG 0.14  C 
BRANCH 50 51
ATOM     51  NE  ARG D   2      17.250 -11.593  18.597  1.00 10.79 LIG-0.23  N 
ATOM     52 HE   ARG D   2      17.804 -11.391  17.970  1.00 10.79 LIG 0.18  HD
ATOM     53  CZ  ARG D   2      17.730 -12.215  19.674  1.00 10.30 LIG 0.67  C 
ATOM     54  NH2 ARG D   2      16.923 -12.542  20.683  1.00  9.50 LIG-0.23  N 
ATOM     55  NH1 ARG D   2      19.020 -12.513  19.740  1.00  9.44 LIG-0.23  N 
ATOM     56 22HH ARG D   2      17.239 -12.944  21.374  1.00  9.50 LIG 0.17  HD
ATOM     57 21HH ARG D   2      16.085 -12.352  20.643  1.00  9.50 LIG 0.17  HD
ATOM     58 11HH ARG D   2      19.543 -12.304  19.091  1.00  9.44 LIG 0.17  HD
ATOM     59 12HH ARG D   2      19.333 -12.914  20.434  1.00  9.44 LIG 0.17  HD
ENDBRANCH 50 51
ENDBRANCH 49 50
ENDBRANCH 48 49
ENDBRANCH 37 48
ENDBRANCH 34 37
ENDBRANCH 1 33
TORSDOF 24
ENDMDL
MODEL 40
USER: ADFR SOLUTION from run 79
USER: SCORE 18.485696 LL:  -3.104 LR: -15.736 RR:   0.000 FEB:  -8.577
USER: RMSD 5.238928
USER: SEED 78
USER: STATUS no improvement in best 1 clusters for 5 generations
USER: GENES 26
USER: genes 0 Translation |==|  0.60177 0.46524 0.43764
USER: genes 1 Rotation |==|  0.28375 0.28447 0.12508 0.62733
USER: genes 2 Torsion [N]-CA--C-[N] |==|  0.40773
USER: genes 3 Torsion [C]-N--CA-[C] |==|  0.66497
USER: genes 4 Torsion [N]-CA--C-[N] |==|  0.36667
USER: genes 5 Torsion [C]-N--CA-[C] |==|  0.71963
USER: genes 6 Torsion [N]-CA--C-[O] |==|  0.04137
USER: genes 7 Torsion [N]-CA--CB-[CG] |==|  0.93664
USER: genes 8 Torsion [CA]-CB--CG-[CD] |==|  0.81433
USER: genes 9 Torsion [CB]-CG--CD-[OE1] |==|  0.83320
USER: genes 10 Torsion [N]-CA--CB-[CG] |==|  0.46741
USER: genes 11 Torsion [CA]-CB--CG-[CD] |==|  0.66749
USER: genes 12 Torsion [CB]-CG--CD-[CE] |==|  0.72263
USER: genes 13 Torsion [CG]-CD--CE-[NZ] |==|  0.14598
USER: genes 14 Torsion [CD]-CE--NZ-[HZ3] |==|  0.26294
USER: genes 15 Torsion [C]-CA--CB-[CG2] |==|  0.31141
USER: genes 16 Torsion [CA]-CB--OG1-[HG1] |==|  0.41260
USER: genes 17 Torsion [C]-CA--N-[C] |==|  0.80266
USER: genes 18 Torsion [N]-C--CA-[N] |==|  0.33343
USER: genes 19 Torsion [C]-CA--N-[C] |==|  0.84073
USER: genes 20 Torsion [N]-C--CA-[N] |==|  0.45983
USER: genes 21 Torsion [C]-CA--N-[H1] |==|  0.63750
USER: genes 22 Torsion [C]-CA--CB-[CG] |==|  0.53191
USER: genes 23 Torsion [CA]-CB--CG-[CD] |==|  0.72208
USER: genes 24 Torsion [CB]-CG--CD-[NE] |==|  0.29228
USER: genes 25 Torsion [CG]-CD--NE-[HE] |==|  0.09024
ROOT
ATOM      1  CA  THR D   3      21.053 -17.883  14.639  1.00 16.13 LIG 0.20  C 
ENDROOT
BRANCH 1 2
ATOM      2  C   THR D   3      20.540 -19.210  14.059  1.00 16.95 LIG 0.24  C 
ATOM      3 O    THR D   3      20.709 -20.264  14.679  1.00 16.12 LIG-0.27  OA
ATOM      4  N   LYS D   4      19.920 -19.138  12.877  1.00 18.15 LIG-0.35  N 
ATOM      5 H    LYS D   4      19.772 -18.393  12.476  1.00 18.15 LIG 0.16  HD
BRANCH 4 6
ATOM      6  CA  LYS D   4      19.423 -20.307  12.133  1.00 19.65 LIG 0.18  C 
BRANCH 6 7
ATOM      7  C   LYS D   4      20.092 -20.366  10.776  1.00 20.62 LIG 0.24  C 
ATOM      8  N   GLN D   5      20.594 -21.543  10.411  1.00 21.55 LIG-0.35  N 
ATOM      9 H    GLN D   5      20.558 -22.253  10.893  1.00 21.55 LIG 0.16  HD
ATOM     10 O    LYS D   4      20.141 -19.360  10.063  1.00 20.86 LIG-0.27  OA
BRANCH 8 11
ATOM     11  CA  GLN D   5      21.269 -21.719   9.118  1.00 22.83 LIG 0.16  C 
BRANCH 11 12
ATOM     12  C   GLN D   5      20.365 -22.381   8.080  1.00 22.91 LIG 0.22  C 
ATOM     13 O    GLN D   5      19.148 -22.463   8.254  1.00 23.29 LIG-0.29  OA
ENDBRANCH 11 12
BRANCH 11 14
ATOM     14  CB  GLN D   5      22.569 -22.511   9.278  1.00 22.86 LIG 0.04  C 
BRANCH 14 15
ATOM     15  CG  GLN D   5      23.164 -22.471  10.675  1.00 24.40 LIG 0.10  C 
BRANCH 15 16
ATOM     16  CD  GLN D   5      23.660 -21.094  11.074  1.00 24.21 LIG 0.21  C 
ATOM     17  NE2 GLN D   5      23.095 -20.553  12.156  1.00 25.13 LIG-0.37  N 
ATOM     18 22HE GLN D   5      23.344 -19.776  12.427  1.00 25.13 LIG 0.16  HD
ATOM     19 21HE GLN D   5      22.484 -20.983  12.582  1.00 25.13 LIG 0.16  HD
ATOM     20 OE1  GLN D   5      24.543 -20.522  10.424  1.00 25.71 LIG-0.27  OA
ENDBRANCH 15 16
ENDBRANCH 14 15
ENDBRANCH 11 14
ENDBRANCH 8 11
ENDBRANCH 6 7
BRANCH 6 21
ATOM     21  CB  LYS D   4      17.915 -20.204  11.892  1.00 19.73 LIG 0.04  C 
BRANCH 21 22
ATOM     22  CG  LYS D   4      17.336 -21.190  10.914  1.00 20.49 LIG 0.00  C 
BRANCH 22 23
ATOM     23  CD  LYS D   4      16.698 -20.442   9.754  1.00 20.73 LIG 0.03  C 
BRANCH 23 24
ATOM     24  CE  LYS D   4      15.201 -20.359   9.930  1.00 20.46 LIG 0.23  C 
BRANCH 24 25
ATOM     25  NZ  LYS D   4      14.845 -19.810  11.260  1.00 20.02 LIG-0.08  N 
ATOM     26 HZ3  LYS D   4      14.713 -18.932  11.193  1.00 20.02 LIG 0.27  HD
ATOM     27 HZ1  LYS D   4      14.102 -20.200  11.553  1.00 20.02 LIG 0.27  HD
ATOM     28 HZ2  LYS D   4      15.508 -19.967  11.833  1.00 20.02 LIG 0.27  HD
ENDBRANCH 24 25
ENDBRANCH 23 24
ENDBRANCH 22 23
ENDBRANCH 21 22
ENDBRANCH 6 21
ENDBRANCH 4 6
ENDBRANCH 1 2
BRANCH 1 29
ATOM     29  CB  THR D   3      22.468 -17.588  14.106  1.00 15.86 LIG 0.15  C 
ATOM     30  CG2 THR D   3      22.452 -16.378  13.176  1.00 16.15 LIG 0.04  C 
BRANCH 29 31
ATOM     31 OG1  THR D   3      23.350 -17.321  15.204  1.00 16.19 LIG-0.39  OA
ATOM     32 HG1  THR D   3      24.125 -17.578  15.010  1.00 16.19 LIG 0.21  HD
ENDBRANCH 29 31
ENDBRANCH 1 29
BRANCH 1 33
ATOM     33  N   THR D   3      21.007 -17.810  16.108  1.00 15.75 LIG-0.34  N 
ATOM     34  C   ARG D   2      19.857 -17.710  16.776  1.00 15.31 LIG 0.24  C 
ATOM     35 O    ARG D   2      18.758 -17.730  16.226  1.00 15.17 LIG-0.27  OA
ATOM     36 H    THR D   3      21.779 -17.838  16.487  1.00 15.75 LIG 0.16  HD
BRANCH 34 37
ATOM     37  CA  ARG D   2      19.959 -17.548  18.293  1.00 15.15 LIG 0.18  C 
BRANCH 37 38
ATOM     38  N   ARG D   2      19.349 -16.302  18.767  1.00 15.89 LIG-0.35  N 
ATOM     39  C   ALA D   1      19.701 -15.084  18.351  1.00 16.91 LIG 0.25  C 
ATOM     40 O    ALA D   1      20.670 -14.868  17.611  1.00 17.32 LIG-0.27  OA
ATOM     41 H    ARG D   2      18.729 -16.430  19.349  1.00 15.89 LIG 0.16  HD
BRANCH 39 42
ATOM     42  CA  ALA D   1      18.838 -13.927  18.857  1.00 17.08 LIG 0.27  C 
ATOM     43  CB  ALA D   1      17.448 -13.944  18.182  1.00 17.48 LIG 0.05  C 
BRANCH 42 44
ATOM     44  N   ALA D   1      19.510 -12.615  18.625  1.00 17.36 LIG-0.07  N 
ATOM     45 H3   ALA D   1      19.080 -12.170  17.986  1.00 17.36 LIG 0.28  HD
ATOM     46 H2   ALA D   1      20.353 -12.754  18.375  1.00 17.36 LIG 0.28  HD
ATOM     47 H1   ALA D   1      19.499 -12.139  19.377  1.00 17.36 LIG 0.28  HD
ENDBRANCH 42 44
ENDBRANCH 39 42
ENDBRANCH 37 38
BRANCH 37 48
ATOM     48  CB  ARG D   2      19.260 -18.728  18.984  1.00 15.08 LIG 0.04  C 
BRANCH 48 49
ATOM     49  CG  ARG D   2      19.020 -18.613  20.483  1.00 14.63 LIG 0.02  C 
BRANCH 49 50
ATOM     50  CD  ARG D   2      20.082 -19.398  21.263  1.00 13.91 LIG 0.14  C 
BRANCH 50 51
ATOM     51  NE  ARG D   2      21.070 -18.521  21.890  1.00 10.79 LIG-0.23  N 
ATOM     52 HE   ARG D   2      20.807 -17.747  22.158  1.00 10.79 LIG 0.18  HD
ATOM     53  CZ  ARG D   2      22.352 -18.839  22.073  1.00 10.30 LIG 0.67  C 
ATOM     54  NH2 ARG D   2      22.815 -20.029  21.689  1.00  9.50 LIG-0.23  N 
ATOM     55  NH1 ARG D   2      23.172 -17.965  22.638  1.00  9.44 LIG-0.23  N 
ATOM     56 22HH ARG D   2      23.643 -20.227  21.810  1.00  9.50 LIG 0.17  HD
ATOM     57 21HH ARG D   2      22.286 -20.598  21.320  1.00  9.50 LIG 0.17  HD
ATOM     58 11HH ARG D   2      22.877 -17.196  22.885  1.00  9.44 LIG 0.17  HD
ATOM     59 12HH ARG D   2      23.999 -18.167  22.758  1.00  9.44 LIG 0.17  HD
ENDBRANCH 50 51
ENDBRANCH 49 50
ENDBRANCH 48 49
ENDBRANCH 37 48
ENDBRANCH 34 37
ENDBRANCH 1 33
TORSDOF 24
ENDMDL
MODEL 41
USER: ADFR SOLUTION from run 110
USER: SCORE 16.988942 LL:  -3.032 LR: -15.730 RR:   0.000 FEB:  -8.571
USER: RMSD 7.251059
USER: SEED 109
USER: STATUS no improvement in best 8 clusters for 5 generations
USER: GENES 26
USER: genes 0 Translation |==|  0.45884 0.51561 0.60577
USER: genes 1 Rotation |==|  0.13924 0.40042 0.79527 0.65082
USER: genes 2 Torsion [N]-CA--C-[N] |==|  0.85030
USER: genes 3 Torsion [C]-N--CA-[C] |==|  0.56675
USER: genes 4 Torsion [N]-CA--C-[N] |==|  0.08717
USER: genes 5 Torsion [C]-N--CA-[C] |==|  0.10113
USER: genes 6 Torsion [N]-CA--C-[O] |==|  0.71380
USER: genes 7 Torsion [N]-CA--CB-[CG] |==|  0.57851
USER: genes 8 Torsion [CA]-CB--CG-[CD] |==|  0.89378
USER: genes 9 Torsion [CB]-CG--CD-[OE1] |==|  0.28749
USER: genes 10 Torsion [N]-CA--CB-[CG] |==|  0.73449
USER: genes 11 Torsion [CA]-CB--CG-[CD] |==|  0.67409
USER: genes 12 Torsion [CB]-CG--CD-[CE] |==|  0.27580
USER: genes 13 Torsion [CG]-CD--CE-[NZ] |==|  0.21480
USER: genes 14 Torsion [CD]-CE--NZ-[HZ3] |==|  0.69161
USER: genes 15 Torsion [C]-CA--CB-[CG2] |==|  0.00581
USER: genes 16 Torsion [CA]-CB--OG1-[HG1] |==|  0.61926
USER: genes 17 Torsion [C]-CA--N-[C] |==|  0.19728
USER: genes 18 Torsion [N]-C--CA-[N] |==|  0.17943
USER: genes 19 Torsion [C]-CA--N-[C] |==|  0.79796
USER: genes 20 Torsion [N]-C--CA-[N] |==|  0.49145
USER: genes 21 Torsion [C]-CA--N-[H1] |==|  0.69105
USER: genes 22 Torsion [C]-CA--CB-[CG] |==|  0.27971
USER: genes 23 Torsion [CA]-CB--CG-[CD] |==|  0.80076
USER: genes 24 Torsion [CB]-CG--CD-[NE] |==|  0.65741
USER: genes 25 Torsion [CG]-CD--NE-[HE] |==|  0.11233
ROOT
ATOM      1  CA  THR D   3      16.765 -16.372  19.683  1.00 16.13 LIG 0.20  C 
ENDROOT
BRANCH 1 2
ATOM      2  C   THR D   3      18.187 -16.848  20.021  1.00 16.95 LIG 0.24  C 
ATOM      3 O    THR D   3      18.772 -16.396  21.010  1.00 16.12 LIG-0.27  OA
ATOM      4  N   LYS D   4      18.720 -17.753  19.195  1.00 18.15 LIG-0.35  N 
ATOM      5 H    LYS D   4      18.286 -18.089  18.534  1.00 18.15 LIG 0.16  HD
BRANCH 4 6
ATOM      6  CA  LYS D   4      20.090 -18.274  19.315  1.00 19.65 LIG 0.18  C 
BRANCH 6 7
ATOM      7  C   LYS D   4      20.561 -18.779  17.967  1.00 20.62 LIG 0.24  C 
ATOM      8  N   GLN D   5      20.080 -18.156  16.896  1.00 21.55 LIG-0.35  N 
ATOM      9 H    GLN D   5      19.530 -17.496  16.929  1.00 21.55 LIG 0.16  HD
ATOM     10 O    LYS D   4      21.363 -19.717  17.901  1.00 20.86 LIG-0.27  OA
BRANCH 8 11
ATOM     11  CA  GLN D   5      20.464 -18.562  15.537  1.00 22.83 LIG 0.16  C 
BRANCH 11 12
ATOM     12  C   GLN D   5      20.634 -20.075  15.412  1.00 22.91 LIG 0.22  C 
ATOM     13 O    GLN D   5      21.753 -20.590  15.384  1.00 23.29 LIG-0.29  OA
ENDBRANCH 11 12
BRANCH 11 14
ATOM     14  CB  GLN D   5      21.737 -17.842  15.086  1.00 22.86 LIG 0.04  C 
BRANCH 14 15
ATOM     15  CG  GLN D   5      21.852 -17.641  13.586  1.00 24.40 LIG 0.10  C 
BRANCH 15 16
ATOM     16  CD  GLN D   5      21.336 -18.822  12.784  1.00 24.21 LIG 0.21  C 
ATOM     17  NE2 GLN D   5      22.129 -19.893  12.731  1.00 25.13 LIG-0.37  N 
ATOM     18 22HE GLN D   5      21.881 -20.590  12.293  1.00 25.13 LIG 0.16  HD
ATOM     19 21HE GLN D   5      22.889 -19.886  13.135  1.00 25.13 LIG 0.16  HD
ATOM     20 OE1  GLN D   5      20.234 -18.777  12.222  1.00 25.71 LIG-0.27  OA
ENDBRANCH 15 16
ENDBRANCH 14 15
ENDBRANCH 11 14
ENDBRANCH 8 11
ENDBRANCH 6 7
BRANCH 6 21
ATOM     21  CB  LYS D   4      20.146 -19.454  20.288  1.00 19.73 LIG 0.04  C 
BRANCH 21 22
ATOM     22  CG  LYS D   4      20.534 -19.123  21.703  1.00 20.49 LIG 0.00  C 
BRANCH 22 23
ATOM     23  CD  LYS D   4      21.835 -19.828  22.054  1.00 20.73 LIG 0.03  C 
BRANCH 23 24
ATOM     24  CE  LYS D   4      23.005 -18.883  21.930  1.00 20.46 LIG 0.23  C 
BRANCH 24 25
ATOM     25  NZ  LYS D   4      23.081 -17.965  23.091  1.00 20.02 LIG-0.08  N 
ATOM     26 HZ3  LYS D   4      22.886 -17.137  22.829  1.00 20.02 LIG 0.27  HD
ATOM     27 HZ1  LYS D   4      22.500 -18.224  23.713  1.00 20.02 LIG 0.27  HD
ATOM     28 HZ2  LYS D   4      23.904 -17.982  23.430  1.00 20.02 LIG 0.27  HD
ENDBRANCH 24 25
ENDBRANCH 23 24
ENDBRANCH 22 23
ENDBRANCH 21 22
ENDBRANCH 6 21
ENDBRANCH 4 6
ENDBRANCH 1 2
BRANCH 1 29
ATOM     29  CB  THR D   3      15.750 -17.491  19.985  1.00 15.86 LIG 0.15  C 
ATOM     30  CG2 THR D   3      16.452 -18.710  20.575  1.00 16.15 LIG 0.04  C 
BRANCH 29 31
ATOM     31 OG1  THR D   3      14.776 -17.015  20.923  1.00 16.19 LIG-0.39  OA
ATOM     32 HG1  THR D   3      14.629 -17.608  21.499  1.00 16.19 LIG 0.21  HD
ENDBRANCH 29 31
ENDBRANCH 1 29
BRANCH 1 33
ATOM     33  N   THR D   3      16.611 -15.863  18.311  1.00 15.75 LIG-0.34  N 
ATOM     34  C   ARG D   2      16.643 -16.670  17.250  1.00 15.31 LIG 0.24  C 
ATOM     35 O    ARG D   2      16.743 -17.892  17.339  1.00 15.17 LIG-0.27  OA
ATOM     36 H    THR D   3      16.501 -15.011  18.261  1.00 15.75 LIG 0.16  HD
BRANCH 34 37
ATOM     37  CA  ARG D   2      16.564 -15.999  15.878  1.00 15.15 LIG 0.18  C 
BRANCH 37 38
ATOM     38  N   ARG D   2      17.725 -15.147  15.602  1.00 15.89 LIG-0.35  N 
ATOM     39  C   ALA D   1      17.947 -13.966  16.182  1.00 16.91 LIG 0.25  C 
ATOM     40 O    ALA D   1      17.131 -13.404  16.924  1.00 17.32 LIG-0.27  OA
ATOM     41 H    ARG D   2      18.261 -15.485  15.021  1.00 15.89 LIG 0.16  HD
BRANCH 39 42
ATOM     42  CA  ALA D   1      19.292 -13.308  15.867  1.00 17.08 LIG 0.27  C 
ATOM     43  CB  ALA D   1      20.463 -14.210  16.318  1.00 17.48 LIG 0.05  C 
BRANCH 42 44
ATOM     44  N   ALA D   1      19.394 -11.965  16.510  1.00 17.36 LIG-0.07  N 
ATOM     45 H3   ALA D   1      20.156 -11.912  16.969  1.00 17.36 LIG 0.28  HD
ATOM     46 H2   ALA D   1      18.706 -11.846  17.062  1.00 17.36 LIG 0.28  HD
ATOM     47 H1   ALA D   1      19.383 -11.333  15.883  1.00 17.36 LIG 0.28  HD
ENDBRANCH 42 44
ENDBRANCH 39 42
ENDBRANCH 37 38
BRANCH 37 48
ATOM     48  CB  ARG D   2      16.477 -17.074  14.784  1.00 15.08 LIG 0.04  C 
BRANCH 48 49
ATOM     49  CG  ARG D   2      15.101 -17.362  14.199  1.00 14.63 LIG 0.02  C 
BRANCH 49 50
ATOM     50  CD  ARG D   2      14.226 -18.107  15.216  1.00 13.91 LIG 0.14  C 
BRANCH 50 51
ATOM     51  NE  ARG D   2      13.729 -19.378  14.691  1.00 10.79 LIG-0.23  N 
ATOM     52 HE   ARG D   2      14.268 -19.859  14.224  1.00 10.79 LIG 0.18  HD
ATOM     53  CZ  ARG D   2      12.495 -19.843  14.888  1.00 10.30 LIG 0.67  C 
ATOM     54  NH2 ARG D   2      11.618 -19.149  15.614  1.00  9.50 LIG-0.23  N 
ATOM     55  NH1 ARG D   2      12.136 -21.002  14.355  1.00  9.44 LIG-0.23  N 
ATOM     56 22HH ARG D   2      10.824 -19.455  15.736  1.00  9.50 LIG 0.17  HD
ATOM     57 21HH ARG D   2      11.847 -18.395  15.960  1.00  9.50 LIG 0.17  HD
ATOM     58 11HH ARG D   2      12.699 -21.451  13.885  1.00  9.44 LIG 0.17  HD
ATOM     59 12HH ARG D   2      11.341 -21.305  14.480  1.00  9.44 LIG 0.17  HD
ENDBRANCH 50 51
ENDBRANCH 49 50
ENDBRANCH 48 49
ENDBRANCH 37 48
ENDBRANCH 34 37
ENDBRANCH 1 33
TORSDOF 24
ENDMDL
MODEL 42
USER: ADFR SOLUTION from run 131
USER: SCORE 17.423312 LL:  -2.220 LR: -15.710 RR:   0.000 FEB:  -8.551
USER: RMSD 9.239318
USER: SEED 130
USER: STATUS no improvement in best 7 clusters for 5 generations
USER: GENES 26
USER: genes 0 Translation |==|  0.53920 0.43580 0.50163
USER: genes 1 Rotation |==|  0.37970 0.05696 0.69595 0.52906
USER: genes 2 Torsion [N]-CA--C-[N] |==|  0.29620
USER: genes 3 Torsion [C]-N--CA-[C] |==|  0.64461
USER: genes 4 Torsion [N]-CA--C-[N] |==|  0.35707
USER: genes 5 Torsion [C]-N--CA-[C] |==|  0.59598
USER: genes 6 Torsion [N]-CA--C-[O] |==|  0.72564
USER: genes 7 Torsion [N]-CA--CB-[CG] |==|  0.52205
USER: genes 8 Torsion [CA]-CB--CG-[CD] |==|  0.67842
USER: genes 9 Torsion [CB]-CG--CD-[OE1] |==|  0.28992
USER: genes 10 Torsion [N]-CA--CB-[CG] |==|  0.88578
USER: genes 11 Torsion [CA]-CB--CG-[CD] |==|  0.85357
USER: genes 12 Torsion [CB]-CG--CD-[CE] |==|  0.69717
USER: genes 13 Torsion [CG]-CD--CE-[NZ] |==|  0.44758
USER: genes 14 Torsion [CD]-CE--NZ-[HZ3] |==|  0.37491
USER: genes 15 Torsion [C]-CA--CB-[CG2] |==|  0.79217
USER: genes 16 Torsion [CA]-CB--OG1-[HG1] |==|  0.13327
USER: genes 17 Torsion [C]-CA--N-[C] |==|  0.76108
USER: genes 18 Torsion [N]-C--CA-[N] |==|  0.40058
USER: genes 19 Torsion [C]-CA--N-[C] |==|  0.59461
USER: genes 20 Torsion [N]-C--CA-[N] |==|  0.76526
USER: genes 21 Torsion [C]-CA--N-[H1] |==|  0.43057
USER: genes 22 Torsion [C]-CA--CB-[CG] |==|  0.12934
USER: genes 23 Torsion [CA]-CB--CG-[CD] |==|  0.35616
USER: genes 24 Torsion [CB]-CG--CD-[NE] |==|  0.27047
USER: genes 25 Torsion [CG]-CD--NE-[HE] |==|  0.79777
ROOT
ATOM      1  CA  THR D   3      19.176 -18.766  16.559  1.00 16.13 LIG 0.20  C 
ENDROOT
BRANCH 1 2
ATOM      2  C   THR D   3      19.837 -17.850  17.601  1.00 16.95 LIG 0.24  C 
ATOM      3 O    THR D   3      20.625 -16.970  17.242  1.00 16.12 LIG-0.27  OA
ATOM      4  N   LYS D   4      19.507 -18.072  18.877  1.00 18.15 LIG-0.35  N 
ATOM      5 H    LYS D   4      18.926 -18.660  19.110  1.00 18.15 LIG 0.16  HD
BRANCH 4 6
ATOM      6  CA  LYS D   4      20.087 -17.346  20.018  1.00 19.65 LIG 0.18  C 
BRANCH 6 7
ATOM      7  C   LYS D   4      20.605 -18.337  21.039  1.00 20.62 LIG 0.24  C 
ATOM      8  N   GLN D   5      21.858 -18.167  21.452  1.00 21.55 LIG-0.35  N 
ATOM      9 H    GLN D   5      22.375 -17.538  21.176  1.00 21.55 LIG 0.16  HD
ATOM     10 O    LYS D   4      19.872 -19.238  21.459  1.00 20.86 LIG-0.27  OA
BRANCH 8 11
ATOM     11  CA  GLN D   5      22.468 -19.069  22.437  1.00 22.83 LIG 0.16  C 
BRANCH 11 12
ATOM     12  C   GLN D   5      23.439 -18.340  23.365  1.00 22.91 LIG 0.22  C 
ATOM     13 O    GLN D   5      24.655 -18.371  23.165  1.00 23.29 LIG-0.29  OA
ENDBRANCH 11 12
BRANCH 11 14
ATOM     14  CB  GLN D   5      23.166 -20.245  21.750  1.00 22.86 LIG 0.04  C 
BRANCH 14 15
ATOM     15  CG  GLN D   5      23.661 -21.326  22.696  1.00 24.40 LIG 0.10  C 
BRANCH 15 16
ATOM     16  CD  GLN D   5      25.171 -21.472  22.698  1.00 24.21 LIG 0.21  C 
ATOM     17  NE2 GLN D   5      25.708 -22.085  21.642  1.00 25.13 LIG-0.37  N 
ATOM     18 22HE GLN D   5      26.560 -22.189  21.592  1.00 25.13 LIG 0.16  HD
ATOM     19 21HE GLN D   5      25.202 -22.376  21.010  1.00 25.13 LIG 0.16  HD
ATOM     20 OE1  GLN D   5      25.852 -21.034  23.634  1.00 25.71 LIG-0.27  OA
ENDBRANCH 15 16
ENDBRANCH 14 15
ENDBRANCH 11 14
ENDBRANCH 8 11
ENDBRANCH 6 7
BRANCH 6 21
ATOM     21  CB  LYS D   4      19.032 -16.484  20.716  1.00 19.73 LIG 0.04  C 
BRANCH 21 22
ATOM     22  CG  LYS D   4      18.079 -15.750  19.812  1.00 20.49 LIG 0.00  C 
BRANCH 22 23
ATOM     23  CD  LYS D   4      18.865 -14.948  18.787  1.00 20.73 LIG 0.03  C 
BRANCH 23 24
ATOM     24  CE  LYS D   4      18.765 -13.470  19.074  1.00 20.46 LIG 0.23  C 
BRANCH 24 25
ATOM     25  NZ  LYS D   4      19.847 -12.715  18.399  1.00 20.02 LIG-0.08  N 
ATOM     26 HZ3  LYS D   4      19.507 -11.989  18.012  1.00 20.02 LIG 0.27  HD
ATOM     27 HZ1  LYS D   4      20.458 -12.473  18.998  1.00 20.02 LIG 0.27  HD
ATOM     28 HZ2  LYS D   4      20.227 -13.230  17.780  1.00 20.02 LIG 0.27  HD
ENDBRANCH 24 25
ENDBRANCH 23 24
ENDBRANCH 22 23
ENDBRANCH 21 22
ENDBRANCH 6 21
ENDBRANCH 4 6
ENDBRANCH 1 2
BRANCH 1 29
ATOM     29  CB  THR D   3      20.253 -19.401  15.659  1.00 15.86 LIG 0.15  C 
ATOM     30  CG2 THR D   3      20.795 -18.379  14.664  1.00 16.15 LIG 0.04  C 
BRANCH 29 31
ATOM     31 OG1  THR D   3      21.334 -19.882  16.468  1.00 16.19 LIG-0.39  OA
ATOM     32 HG1  THR D   3      21.026 -20.329  17.109  1.00 16.19 LIG 0.21  HD
ENDBRANCH 29 31
ENDBRANCH 1 29
BRANCH 1 33
ATOM     33  N   THR D   3      18.128 -18.112  15.761  1.00 15.75 LIG-0.34  N 
ATOM     34  C   ARG D   2      16.863 -18.039  16.177  1.00 15.31 LIG 0.24  C 
ATOM     35 O    ARG D   2      16.493 -18.455  17.273  1.00 15.17 LIG-0.27  OA
ATOM     36 H    THR D   3      18.404 -17.787  15.014  1.00 15.75 LIG 0.16  HD
BRANCH 34 37
ATOM     37  CA  ARG D   2      15.858 -17.414  15.208  1.00 15.15 LIG 0.18  C 
BRANCH 37 38
ATOM     38  N   ARG D   2      14.542 -18.057  15.274  1.00 15.89 LIG-0.35  N 
ATOM     39  C   ALA D   1      13.728 -18.218  14.229  1.00 16.91 LIG 0.25  C 
ATOM     40 O    ALA D   1      13.945 -17.729  13.112  1.00 17.32 LIG-0.27  OA
ATOM     41 H    ARG D   2      14.337 -18.327  16.065  1.00 15.89 LIG 0.16  HD
BRANCH 39 42
ATOM     42  CA  ALA D   1      12.468 -19.048  14.482  1.00 17.08 LIG 0.27  C 
ATOM     43  CB  ALA D   1      11.884 -18.745  15.880  1.00 17.48 LIG 0.05  C 
BRANCH 42 44
ATOM     44  N   ALA D   1      12.750 -20.506  14.342  1.00 17.36 LIG-0.07  N 
ATOM     45 H3   ALA D   1      13.572 -20.680  14.635  1.00 17.36 LIG 0.28  HD
ATOM     46 H2   ALA D   1      12.685 -20.740  13.485  1.00 17.36 LIG 0.28  HD
ATOM     47 H1   ALA D   1      12.161 -20.971  14.821  1.00 17.36 LIG 0.28  HD
ENDBRANCH 42 44
ENDBRANCH 39 42
ENDBRANCH 37 38
BRANCH 37 48
ATOM     48  CB  ARG D   2      15.689 -15.923  15.533  1.00 15.08 LIG 0.04  C 
BRANCH 48 49
ATOM     49  CG  ARG D   2      16.958 -15.112  15.756  1.00 14.63 LIG 0.02  C 
BRANCH 49 50
ATOM     50  CD  ARG D   2      16.958 -13.853  14.879  1.00 13.91 LIG 0.14  C 
BRANCH 50 51
ATOM     51  NE  ARG D   2      16.502 -12.670  15.609  1.00 10.79 LIG-0.23  N 
ATOM     52 HE   ARG D   2      15.664 -12.610  15.794  1.00 10.79 LIG 0.18  HD
ATOM     53  CZ  ARG D   2      17.298 -11.678  16.006  1.00 10.30 LIG 0.67  C 
ATOM     54  NH2 ARG D   2      18.608 -11.721  15.760  1.00  9.50 LIG-0.23  N 
ATOM     55  NH1 ARG D   2      16.783 -10.639  16.649  1.00  9.44 LIG-0.23  N 
ATOM     56 22HH ARG D   2      19.115 -11.077  16.019  1.00  9.50 LIG 0.17  HD
ATOM     57 21HH ARG D   2      18.945 -12.392  15.341  1.00  9.50 LIG 0.17  HD
ATOM     58 11HH ARG D   2      15.939 -10.608  16.808  1.00  9.44 LIG 0.17  HD
ATOM     59 12HH ARG D   2      17.294  -9.998  16.907  1.00  9.44 LIG 0.17  HD
ENDBRANCH 50 51
ENDBRANCH 49 50
ENDBRANCH 48 49
ENDBRANCH 37 48
ENDBRANCH 34 37
ENDBRANCH 1 33
TORSDOF 24
ENDMDL
MODEL 43
USER: ADFR SOLUTION from run 26
USER: SCORE 17.946257 LL:  -3.066 LR: -15.700 RR:   0.000 FEB:  -8.541
USER: RMSD 8.783784
USER: SEED 25
USER: STATUS no improvement in best 8 clusters for 5 generations
USER: GENES 26
USER: genes 0 Translation |==|  0.51488 0.43948 0.51834
USER: genes 1 Rotation |==|  0.45383 0.07117 0.75151 0.52680
USER: genes 2 Torsion [N]-CA--C-[N] |==|  0.89704
USER: genes 3 Torsion [C]-N--CA-[C] |==|  0.76348
USER: genes 4 Torsion [N]-CA--C-[N] |==|  0.36816
USER: genes 5 Torsion [C]-N--CA-[C] |==|  0.18777
USER: genes 6 Torsion [N]-CA--C-[O] |==|  0.93744
USER: genes 7 Torsion [N]-CA--CB-[CG] |==|  0.91934
USER: genes 8 Torsion [CA]-CB--CG-[CD] |==|  0.41363
USER: genes 9 Torsion [CB]-CG--CD-[OE1] |==|  0.04095
USER: genes 10 Torsion [N]-CA--CB-[CG] |==|  0.77691
USER: genes 11 Torsion [CA]-CB--CG-[CD] |==|  0.69426
USER: genes 12 Torsion [CB]-CG--CD-[CE] |==|  0.28309
USER: genes 13 Torsion [CG]-CD--CE-[NZ] |==|  0.73453
USER: genes 14 Torsion [CD]-CE--NZ-[HZ3] |==|  0.34362
USER: genes 15 Torsion [C]-CA--CB-[CG2] |==|  0.87399
USER: genes 16 Torsion [CA]-CB--OG1-[HG1] |==|  0.59822
USER: genes 17 Torsion [C]-CA--N-[C] |==|  0.83598
USER: genes 18 Torsion [N]-C--CA-[N] |==|  0.65329
USER: genes 19 Torsion [C]-CA--N-[C] |==|  0.65461
USER: genes 20 Torsion [N]-C--CA-[N] |==|  0.56196
USER: genes 21 Torsion [C]-CA--N-[H1] |==|  0.34819
USER: genes 22 Torsion [C]-CA--CB-[CG] |==|  0.48444
USER: genes 23 Torsion [CA]-CB--CG-[CD] |==|  0.91251
USER: genes 24 Torsion [CB]-CG--CD-[NE] |==|  0.75789
USER: genes 25 Torsion [CG]-CD--NE-[HE] |==|  0.03798
ROOT
ATOM      1  CA  THR D   3      18.446 -18.656  17.060  1.00 16.13 LIG 0.20  C 
ENDROOT
BRANCH 1 2
ATOM      2  C   THR D   3      18.961 -17.398  17.778  1.00 16.95 LIG 0.24  C 
ATOM      3 O    THR D   3      19.546 -17.499  18.861  1.00 16.12 LIG-0.27  OA
ATOM      4  N   LYS D   4      18.737 -16.233  17.164  1.00 18.15 LIG-0.35  N 
ATOM      5 H    LYS D   4      18.365 -16.180  16.391  1.00 18.15 LIG 0.16  HD
BRANCH 4 6
ATOM      6  CA  LYS D   4      19.092 -14.921  17.727  1.00 19.65 LIG 0.18  C 
BRANCH 6 7
ATOM      7  C   LYS D   4      17.982 -14.442  18.639  1.00 20.62 LIG 0.24  C 
ATOM      8  N   GLN D   5      18.348 -13.980  19.831  1.00 21.55 LIG-0.35  N 
ATOM      9 H    GLN D   5      19.162 -13.938  20.103  1.00 21.55 LIG 0.16  HD
ATOM     10 O    LYS D   4      16.807 -14.480  18.260  1.00 20.86 LIG-0.27  OA
BRANCH 8 11
ATOM     11  CA  GLN D   5      17.357 -13.492  20.800  1.00 22.83 LIG 0.16  C 
BRANCH 11 12
ATOM     12  C   GLN D   5      16.467 -14.613  21.331  1.00 22.91 LIG 0.22  C 
ATOM     13 O    GLN D   5      16.312 -15.658  20.697  1.00 23.29 LIG-0.29  OA
ENDBRANCH 11 12
BRANCH 11 14
ATOM     14  CB  GLN D   5      16.504 -12.372  20.199  1.00 22.86 LIG 0.04  C 
BRANCH 14 15
ATOM     15  CG  GLN D   5      17.206 -11.544  19.136  1.00 24.40 LIG 0.10  C 
BRANCH 15 16
ATOM     16  CD  GLN D   5      16.261 -11.009  18.076  1.00 24.21 LIG 0.21  C 
ATOM     17  NE2 GLN D   5      16.826 -10.547  16.959  1.00 25.13 LIG-0.37  N 
ATOM     18 22HE GLN D   5      16.334 -10.236  16.326  1.00 25.13 LIG 0.16  HD
ATOM     19 21HE GLN D   5      17.681 -10.560  16.872  1.00 25.13 LIG 0.16  HD
ATOM     20 OE1  GLN D   5      15.037 -11.014  18.253  1.00 25.71 LIG-0.27  OA
ENDBRANCH 15 16
ENDBRANCH 14 15
ENDBRANCH 11 14
ENDBRANCH 8 11
ENDBRANCH 6 7
BRANCH 6 21
ATOM     21  CB  LYS D   4      19.255 -13.874  16.622  1.00 19.73 LIG 0.04  C 
BRANCH 21 22
ATOM     22  CG  LYS D   4      20.569 -13.889  15.890  1.00 20.49 LIG 0.00  C 
BRANCH 22 23
ATOM     23  CD  LYS D   4      21.372 -12.652  16.259  1.00 20.73 LIG 0.03  C 
BRANCH 23 24
ATOM     24  CE  LYS D   4      22.447 -12.992  17.264  1.00 20.46 LIG 0.23  C 
BRANCH 24 25
ATOM     25  NZ  LYS D   4      21.993 -12.723  18.649  1.00 20.02 LIG-0.08  N 
ATOM     26 HZ3  LYS D   4      22.065 -13.465  19.135  1.00 20.02 LIG 0.27  HD
ATOM     27 HZ1  LYS D   4      22.498 -12.084  19.008  1.00 20.02 LIG 0.27  HD
ATOM     28 HZ2  LYS D   4      21.144 -12.457  18.637  1.00 20.02 LIG 0.27  HD
ENDBRANCH 24 25
ENDBRANCH 23 24
ENDBRANCH 22 23
ENDBRANCH 21 22
ENDBRANCH 6 21
ENDBRANCH 4 6
ENDBRANCH 1 2
BRANCH 1 29
ATOM     29  CB  THR D   3      19.526 -19.193  16.101  1.00 15.86 LIG 0.15  C 
ATOM     30  CG2 THR D   3      20.141 -18.055  15.291  1.00 16.15 LIG 0.04  C 
BRANCH 29 31
ATOM     31 OG1  THR D   3      20.559 -19.840  16.854  1.00 16.19 LIG-0.39  OA
ATOM     32 HG1  THR D   3      21.301 -19.705  16.485  1.00 16.19 LIG 0.21  HD
ENDBRANCH 29 31
ENDBRANCH 1 29
BRANCH 1 33
ATOM     33  N   THR D   3      17.160 -18.471  16.371  1.00 15.75 LIG-0.34  N 
ATOM     34  C   ARG D   2      16.057 -18.096  17.020  1.00 15.31 LIG 0.24  C 
ATOM     35 O    ARG D   2      16.044 -17.821  18.218  1.00 15.17 LIG-0.27  OA
ATOM     36 H    THR D   3      17.187 -18.626  15.525  1.00 15.75 LIG 0.16  HD
BRANCH 34 37
ATOM     37  CA  ARG D   2      14.768 -18.033  16.199  1.00 15.15 LIG 0.18  C 
BRANCH 37 38
ATOM     38  N   ARG D   2      14.119 -16.720  16.274  1.00 15.89 LIG-0.35  N 
ATOM     39  C   ALA D   1      12.858 -16.523  16.663  1.00 16.91 LIG 0.25  C 
ATOM     40 O    ALA D   1      12.060 -17.443  16.884  1.00 17.32 LIG-0.27  OA
ATOM     41 H    ARG D   2      14.637 -16.074  16.040  1.00 15.89 LIG 0.16  HD
BRANCH 39 42
ATOM     42  CA  ALA D   1      12.424 -15.064  16.815  1.00 17.08 LIG 0.27  C 
ATOM     43  CB  ALA D   1      13.593 -14.194  17.328  1.00 17.48 LIG 0.05  C 
BRANCH 42 44
ATOM     44  N   ALA D   1      11.250 -14.947  17.730  1.00 17.36 LIG-0.07  N 
ATOM     45 H3   ALA D   1      11.066 -15.745  18.081  1.00 17.36 LIG 0.28  HD
ATOM     46 H2   ALA D   1      10.545 -14.655  17.272  1.00 17.36 LIG 0.28  HD
ATOM     47 H1   ALA D   1      11.438 -14.372  18.383  1.00 17.36 LIG 0.28  HD
ENDBRANCH 42 44
ENDBRANCH 39 42
ENDBRANCH 37 38
BRANCH 37 48
ATOM     48  CB  ARG D   2      15.080 -18.339  14.727  1.00 15.08 LIG 0.04  C 
BRANCH 48 49
ATOM     49  CG  ARG D   2      13.898 -18.452  13.775  1.00 14.63 LIG 0.02  C 
BRANCH 49 50
ATOM     50  CD  ARG D   2      12.664 -18.999  14.505  1.00 13.91 LIG 0.14  C 
BRANCH 50 51
ATOM     51  NE  ARG D   2      12.628 -20.461  14.512  1.00 10.79 LIG-0.23  N 
ATOM     52 HE   ARG D   2      13.345 -20.882  14.289  1.00 10.79 LIG 0.18  HD
ATOM     53  CZ  ARG D   2      11.559 -21.186  14.840  1.00 10.30 LIG 0.67  C 
ATOM     54  NH2 ARG D   2      10.423 -20.590  15.206  1.00  9.50 LIG-0.23  N 
ATOM     55  NH1 ARG D   2      11.624 -22.509  14.799  1.00  9.44 LIG-0.23  N 
ATOM     56 22HH ARG D   2       9.738 -21.064  15.416  1.00  9.50 LIG 0.17  HD
ATOM     57 21HH ARG D   2      10.377 -19.732  15.232  1.00  9.50 LIG 0.17  HD
ATOM     58 11HH ARG D   2      12.354 -22.896  14.562  1.00  9.44 LIG 0.17  HD
ATOM     59 12HH ARG D   2      10.936 -22.980  15.010  1.00  9.44 LIG 0.17  HD
ENDBRANCH 50 51
ENDBRANCH 49 50
ENDBRANCH 48 49
ENDBRANCH 37 48
ENDBRANCH 34 37
ENDBRANCH 1 33
TORSDOF 24
ENDMDL
MODEL 44
USER: ADFR SOLUTION from run 5
USER: SCORE 17.346068 LL:  -2.655 LR: -15.628 RR:   0.000 FEB:  -8.469
USER: RMSD 6.510295
USER: SEED 590941
USER: STATUS no improvement in best 6 clusters for 5 generations
USER: GENES 26
USER: genes 0 Translation |==|  0.41896 0.47734 0.56231
USER: genes 1 Rotation |==|  0.47402 0.55551 0.43274 0.99165
USER: genes 2 Torsion [N]-CA--C-[N] |==|  0.51665
USER: genes 3 Torsion [C]-N--CA-[C] |==|  0.63990
USER: genes 4 Torsion [N]-CA--C-[N] |==|  0.09430
USER: genes 5 Torsion [C]-N--CA-[C] |==|  0.86469
USER: genes 6 Torsion [N]-CA--C-[O] |==|  0.87273
USER: genes 7 Torsion [N]-CA--CB-[CG] |==|  0.18357
USER: genes 8 Torsion [CA]-CB--CG-[CD] |==|  0.27787
USER: genes 9 Torsion [CB]-CG--CD-[OE1] |==|  0.99086
USER: genes 10 Torsion [N]-CA--CB-[CG] |==|  0.56128
USER: genes 11 Torsion [CA]-CB--CG-[CD] |==|  0.56822
USER: genes 12 Torsion [CB]-CG--CD-[CE] |==|  0.73989
USER: genes 13 Torsion [CG]-CD--CE-[NZ] |==|  0.35396
USER: genes 14 Torsion [CD]-CE--NZ-[HZ3] |==|  0.28734
USER: genes 15 Torsion [C]-CA--CB-[CG2] |==|  0.40370
USER: genes 16 Torsion [CA]-CB--OG1-[HG1] |==|  0.47055
USER: genes 17 Torsion [C]-CA--N-[C] |==|  0.59808
USER: genes 18 Torsion [N]-C--CA-[N] |==|  0.03901
USER: genes 19 Torsion [C]-CA--N-[C] |==|  0.18052
USER: genes 20 Torsion [N]-C--CA-[N] |==|  0.59061
USER: genes 21 Torsion [C]-CA--N-[H1] |==|  0.34595
USER: genes 22 Torsion [C]-CA--CB-[CG] |==|  0.39290
USER: genes 23 Torsion [CA]-CB--CG-[CD] |==|  0.77070
USER: genes 24 Torsion [CB]-CG--CD-[NE] |==|  0.44598
USER: genes 25 Torsion [CG]-CD--NE-[HE] |==|  0.64418
ROOT
ATOM      1  CA  THR D   3      15.569 -17.520  18.379  1.00 16.13 LIG 0.20  C 
ENDROOT
BRANCH 1 2
ATOM      2  C   THR D   3      15.000 -17.538  16.952  1.00 16.95 LIG 0.24  C 
ATOM      3 O    THR D   3      15.762 -17.500  15.981  1.00 16.12 LIG-0.27  OA
ATOM      4  N   LYS D   4      13.669 -17.596  16.846  1.00 18.15 LIG-0.35  N 
ATOM      5 H    LYS D   4      13.153 -17.664  17.529  1.00 18.15 LIG 0.16  HD
BRANCH 4 6
ATOM      6  CA  LYS D   4      12.940 -17.552  15.568  1.00 19.65 LIG 0.18  C 
BRANCH 6 7
ATOM      7  C   LYS D   4      11.846 -16.508  15.644  1.00 20.62 LIG 0.24  C 
ATOM      8  N   GLN D   5      12.104 -15.427  16.374  1.00 21.55 LIG-0.35  N 
ATOM      9 H    GLN D   5      12.842 -15.294  16.794  1.00 21.55 LIG 0.16  HD
ATOM     10 O    LYS D   4      10.785 -16.676  15.035  1.00 20.86 LIG-0.27  OA
BRANCH 8 11
ATOM     11  CA  GLN D   5      11.116 -14.350  16.522  1.00 22.83 LIG 0.16  C 
BRANCH 11 12
ATOM     12  C   GLN D   5      10.532 -13.913  15.180  1.00 22.91 LIG 0.22  C 
ATOM     13 O    GLN D   5      11.257 -13.713  14.205  1.00 23.29 LIG-0.29  OA
ENDBRANCH 11 12
BRANCH 11 14
ATOM     14  CB  GLN D   5      11.715 -13.150  17.260  1.00 22.86 LIG 0.04  C 
BRANCH 14 15
ATOM     15  CG  GLN D   5      12.822 -12.434  16.507  1.00 24.40 LIG 0.10  C 
BRANCH 15 16
ATOM     16  CD  GLN D   5      12.350 -11.171  15.811  1.00 24.21 LIG 0.21  C 
ATOM     17  NE2 GLN D   5      13.286 -10.458  15.180  1.00 25.13 LIG-0.37  N 
ATOM     18 22HE GLN D   5      13.069  -9.737  14.766  1.00 25.13 LIG 0.16  HD
ATOM     19 21HE GLN D   5      14.104 -10.722  15.187  1.00 25.13 LIG 0.16  HD
ATOM     20 OE1  GLN D   5      11.159 -10.840  15.832  1.00 25.71 LIG-0.27  OA
ENDBRANCH 15 16
ENDBRANCH 14 15
ENDBRANCH 11 14
ENDBRANCH 8 11
ENDBRANCH 6 7
BRANCH 6 21
ATOM     21  CB  LYS D   4      12.267 -18.895  15.273  1.00 19.73 LIG 0.04  C 
BRANCH 21 22
ATOM     22  CG  LYS D   4      11.942 -19.165  13.830  1.00 20.49 LIG 0.00  C 
BRANCH 22 23
ATOM     23  CD  LYS D   4      10.797 -20.163  13.743  1.00 20.73 LIG 0.03  C 
BRANCH 23 24
ATOM     24  CE  LYS D   4      11.324 -21.571  13.613  1.00 20.46 LIG 0.23  C 
BRANCH 24 25
ATOM     25  NZ  LYS D   4      10.730 -22.465  14.635  1.00 20.02 LIG-0.08  N 
ATOM     26 HZ3  LYS D   4      10.105 -22.975  14.257  1.00 20.02 LIG 0.27  HD
ATOM     27 HZ1  LYS D   4      11.365 -22.983  14.982  1.00 20.02 LIG 0.27  HD
ATOM     28 HZ2  LYS D   4      10.362 -21.975  15.281  1.00 20.02 LIG 0.27  HD
ENDBRANCH 24 25
ENDBRANCH 23 24
ENDBRANCH 22 23
ENDBRANCH 21 22
ENDBRANCH 6 21
ENDBRANCH 4 6
ENDBRANCH 1 2
BRANCH 1 29
ATOM     29  CB  THR D   3      14.816 -16.480  19.231  1.00 15.86 LIG 0.15  C 
ATOM     30  CG2 THR D   3      14.688 -16.958  20.675  1.00 16.15 LIG 0.04  C 
BRANCH 29 31
ATOM     31 OG1  THR D   3      15.530 -15.237  19.214  1.00 16.19 LIG-0.39  OA
ATOM     32 HG1  THR D   3      15.053 -14.635  19.554  1.00 16.19 LIG 0.21  HD
ENDBRANCH 29 31
ENDBRANCH 1 29
BRANCH 1 33
ATOM     33  N   THR D   3      17.024 -17.316  18.445  1.00 15.75 LIG-0.34  N 
ATOM     34  C   ARG D   2      17.781 -17.909  19.370  1.00 15.31 LIG 0.24  C 
ATOM     35 O    ARG D   2      17.334 -18.708  20.190  1.00 15.17 LIG-0.27  OA
ATOM     36 H    THR D   3      17.334 -16.787  17.842  1.00 15.75 LIG 0.16  HD
BRANCH 34 37
ATOM     37  CA  ARG D   2      19.264 -17.537  19.382  1.00 15.15 LIG 0.18  C 
BRANCH 37 38
ATOM     38  N   ARG D   2      19.549 -16.340  18.583  1.00 15.89 LIG-0.35  N 
ATOM     39  C   ALA D   1      19.093 -15.118  18.866  1.00 16.91 LIG 0.25  C 
ATOM     40 O    ALA D   1      18.276 -14.885  19.767  1.00 17.32 LIG-0.27  OA
ATOM     41 H    ARG D   2      20.047 -16.501  17.901  1.00 15.89 LIG 0.16  HD
BRANCH 39 42
ATOM     42  CA  ALA D   1      19.630 -13.984  17.992  1.00 17.08 LIG 0.27  C 
ATOM     43  CB  ALA D   1      20.998 -14.362  17.382  1.00 17.48 LIG 0.05  C 
BRANCH 42 44
ATOM     44  N   ALA D   1      19.740 -12.715  18.769  1.00 17.36 LIG-0.07  N 
ATOM     45 H3   ALA D   1      19.534 -12.870  19.621  1.00 17.36 LIG 0.28  HD
ATOM     46 H2   ALA D   1      19.180 -12.111  18.433  1.00 17.36 LIG 0.28  HD
ATOM     47 H1   ALA D   1      20.574 -12.406  18.717  1.00 17.36 LIG 0.28  HD
ENDBRANCH 42 44
ENDBRANCH 39 42
ENDBRANCH 37 38
BRANCH 37 48
ATOM     48  CB  ARG D   2      19.717 -17.278  20.827  1.00 15.08 LIG 0.04  C 
BRANCH 48 49
ATOM     49  CG  ARG D   2      21.105 -17.765  21.218  1.00 14.63 LIG 0.02  C 
BRANCH 49 50
ATOM     50  CD  ARG D   2      21.072 -19.255  21.582  1.00 13.91 LIG 0.14  C 
BRANCH 50 51
ATOM     51  NE  ARG D   2      22.399 -19.869  21.520  1.00 10.79 LIG-0.23  N 
ATOM     52 HE   ARG D   2      22.487 -20.588  21.056  1.00 10.79 LIG 0.18  HD
ATOM     53  CZ  ARG D   2      23.479 -19.389  22.135  1.00 10.30 LIG 0.67  C 
ATOM     54  NH2 ARG D   2      23.407 -18.271  22.858  1.00  9.50 LIG-0.23  N 
ATOM     55  NH1 ARG D   2      24.635 -20.030  22.029  1.00  9.44 LIG-0.23  N 
ATOM     56 22HH ARG D   2      24.108 -17.968  23.252  1.00  9.50 LIG 0.17  HD
ATOM     57 21HH ARG D   2      22.659 -17.854  22.930  1.00  9.50 LIG 0.17  HD
ATOM     58 11HH ARG D   2      24.685 -20.752  21.565  1.00  9.44 LIG 0.17  HD
ATOM     59 12HH ARG D   2      25.334 -19.723  22.424  1.00  9.44 LIG 0.17  HD
ENDBRANCH 50 51
ENDBRANCH 49 50
ENDBRANCH 48 49
ENDBRANCH 37 48
ENDBRANCH 34 37
ENDBRANCH 1 33
TORSDOF 24
ENDMDL
MODEL 45
USER: ADFR SOLUTION from run 97
USER: SCORE 18.367123 LL:  -3.617 LR: -15.627 RR:   0.000 FEB:  -8.467
USER: RMSD 8.407778
USER: SEED 96
USER: STATUS no improvement in best 6 clusters for 5 generations
USER: GENES 26
USER: genes 0 Translation |==|  0.45235 0.49491 0.58657
USER: genes 1 Rotation |==|  0.12378 0.56384 0.74460 0.71108
USER: genes 2 Torsion [N]-CA--C-[N] |==|  0.11823
USER: genes 3 Torsion [C]-N--CA-[C] |==|  0.77252
USER: genes 4 Torsion [N]-CA--C-[N] |==|  0.51462
USER: genes 5 Torsion [C]-N--CA-[C] |==|  0.81190
USER: genes 6 Torsion [N]-CA--C-[O] |==|  0.15319
USER: genes 7 Torsion [N]-CA--CB-[CG] |==|  0.28318
USER: genes 8 Torsion [CA]-CB--CG-[CD] |==|  0.58787
USER: genes 9 Torsion [CB]-CG--CD-[OE1] |==|  0.04945
USER: genes 10 Torsion [N]-CA--CB-[CG] |==|  0.85528
USER: genes 11 Torsion [CA]-CB--CG-[CD] |==|  0.41083
USER: genes 12 Torsion [CB]-CG--CD-[CE] |==|  0.23142
USER: genes 13 Torsion [CG]-CD--CE-[NZ] |==|  0.34513
USER: genes 14 Torsion [CD]-CE--NZ-[HZ3] |==|  0.87985
USER: genes 15 Torsion [C]-CA--CB-[CG2] |==|  0.25515
USER: genes 16 Torsion [CA]-CB--OG1-[HG1] |==|  0.40468
USER: genes 17 Torsion [C]-CA--N-[C] |==|  0.77192
USER: genes 18 Torsion [N]-C--CA-[N] |==|  0.00314
USER: genes 19 Torsion [C]-CA--N-[C] |==|  0.75332
USER: genes 20 Torsion [N]-C--CA-[N] |==|  0.43867
USER: genes 21 Torsion [C]-CA--N-[H1] |==|  0.37531
USER: genes 22 Torsion [C]-CA--CB-[CG] |==|  0.35643
USER: genes 23 Torsion [CA]-CB--CG-[CD] |==|  0.80089
USER: genes 24 Torsion [CB]-CG--CD-[NE] |==|  0.94033
USER: genes 25 Torsion [CG]-CD--NE-[HE] |==|  0.19020
ROOT
ATOM      1  CA  THR D   3      16.571 -16.993  19.107  1.00 16.13 LIG 0.20  C 
ENDROOT
BRANCH 1 2
ATOM      2  C   THR D   3      17.392 -18.215  19.544  1.00 16.95 LIG 0.24  C 
ATOM      3 O    THR D   3      16.935 -19.004  20.376  1.00 16.12 LIG-0.27  OA
ATOM      4  N   LYS D   4      18.594 -18.354  18.976  1.00 18.15 LIG-0.35  N 
ATOM      5 H    LYS D   4      18.884 -17.820  18.368  1.00 18.15 LIG 0.16  HD
BRANCH 4 6
ATOM      6  CA  LYS D   4      19.551 -19.419  19.317  1.00 19.65 LIG 0.18  C 
BRANCH 6 7
ATOM      7  C   LYS D   4      20.317 -19.033  20.565  1.00 20.62 LIG 0.24  C 
ATOM      8  N   GLN D   5      21.298 -19.849  20.938  1.00 21.55 LIG-0.35  N 
ATOM      9 H    GLN D   5      21.515 -20.566  20.516  1.00 21.55 LIG 0.16  HD
ATOM     10 O    LYS D   4      20.030 -17.998  21.175  1.00 20.86 LIG-0.27  OA
BRANCH 8 11
ATOM     11  CA  GLN D   5      22.107 -19.578  22.133  1.00 22.83 LIG 0.16  C 
BRANCH 11 12
ATOM     12  C   GLN D   5      22.988 -18.341  21.967  1.00 22.91 LIG 0.22  C 
ATOM     13 O    GLN D   5      22.503 -17.251  21.658  1.00 23.29 LIG-0.29  OA
ENDBRANCH 11 12
BRANCH 11 14
ATOM     14  CB  GLN D   5      22.958 -20.793  22.510  1.00 22.86 LIG 0.04  C 
BRANCH 14 15
ATOM     15  CG  GLN D   5      24.418 -20.692  22.106  1.00 24.40 LIG 0.10  C 
BRANCH 15 16
ATOM     16  CD  GLN D   5      25.039 -22.035  21.769  1.00 24.21 LIG 0.21  C 
ATOM     17  NE2 GLN D   5      26.373 -22.087  21.772  1.00 25.13 LIG-0.37  N 
ATOM     18 22HE GLN D   5      26.774 -22.826  21.593  1.00 25.13 LIG 0.16  HD
ATOM     19 21HE GLN D   5      26.830 -21.382  21.955  1.00 25.13 LIG 0.16  HD
ATOM     20 OE1  GLN D   5      24.333 -23.017  21.514  1.00 25.71 LIG-0.27  OA
ENDBRANCH 15 16
ENDBRANCH 14 15
ENDBRANCH 11 14
ENDBRANCH 8 11
ENDBRANCH 6 7
BRANCH 6 21
ATOM     21  CB  LYS D   4      20.576 -19.616  18.197  1.00 19.73 LIG 0.04  C 
BRANCH 21 22
ATOM     22  CG  LYS D   4      20.012 -19.819  16.817  1.00 20.49 LIG 0.00  C 
BRANCH 22 23
ATOM     23  CD  LYS D   4      20.962 -19.230  15.786  1.00 20.73 LIG 0.03  C 
BRANCH 23 24
ATOM     24  CE  LYS D   4      22.063 -20.208  15.454  1.00 20.46 LIG 0.23  C 
BRANCH 24 25
ATOM     25  NZ  LYS D   4      22.120 -20.480  13.998  1.00 20.02 LIG-0.08  N 
ATOM     26 HZ3  LYS D   4      21.295 -20.590  13.683  1.00 20.02 LIG 0.27  HD
ATOM     27 HZ1  LYS D   4      22.506 -19.794  13.583  1.00 20.02 LIG 0.27  HD
ATOM     28 HZ2  LYS D   4      22.594 -21.219  13.853  1.00 20.02 LIG 0.27  HD
ENDBRANCH 24 25
ENDBRANCH 23 24
ENDBRANCH 22 23
ENDBRANCH 21 22
ENDBRANCH 6 21
ENDBRANCH 4 6
ENDBRANCH 1 2
BRANCH 1 29
ATOM     29  CB  THR D   3      15.123 -17.122  19.619  1.00 15.86 LIG 0.15  C 
ATOM     30  CG2 THR D   3      14.972 -16.452  20.981  1.00 16.15 LIG 0.04  C 
BRANCH 29 31
ATOM     31 OG1  THR D   3      14.228 -16.497  18.690  1.00 16.19 LIG-0.39  OA
ATOM     32 HG1  THR D   3      13.503 -16.921  18.671  1.00 16.19 LIG 0.21  HD
ENDBRANCH 29 31
ENDBRANCH 1 29
BRANCH 1 33
ATOM     33  N   THR D   3      16.607 -16.728  17.660  1.00 15.75 LIG-0.34  N 
ATOM     34  C   ARG D   2      17.614 -16.070  17.086  1.00 15.31 LIG 0.24  C 
ATOM     35 O    ARG D   2      18.606 -15.690  17.705  1.00 15.17 LIG-0.27  OA
ATOM     36 H    THR D   3      15.928 -17.033  17.229  1.00 15.75 LIG 0.16  HD
BRANCH 34 37
ATOM     37  CA  ARG D   2      17.480 -15.783  15.590  1.00 15.15 LIG 0.18  C 
BRANCH 37 38
ATOM     38  N   ARG D   2      16.214 -16.274  15.036  1.00 15.89 LIG-0.35  N 
ATOM     39  C   ALA D   1      16.033 -17.501  14.544  1.00 16.91 LIG 0.25  C 
ATOM     40 O    ALA D   1      16.951 -18.318  14.387  1.00 17.32 LIG-0.27  OA
ATOM     41 H    ARG D   2      15.586 -15.688  15.058  1.00 15.89 LIG 0.16  HD
BRANCH 39 42
ATOM     42  CA  ALA D   1      14.599 -17.862  14.155  1.00 17.08 LIG 0.27  C 
ATOM     43  CB  ALA D   1      13.768 -18.234  15.403  1.00 17.48 LIG 0.05  C 
BRANCH 42 44
ATOM     44  N   ALA D   1      14.577 -18.979  13.165  1.00 17.36 LIG-0.07  N 
ATOM     45 H3   ALA D   1      15.374 -19.375  13.146  1.00 17.36 LIG 0.28  HD
ATOM     46 H2   ALA D   1      14.386 -18.656  12.358  1.00 17.36 LIG 0.28  HD
ATOM     47 H1   ALA D   1      13.956 -19.573  13.400  1.00 17.36 LIG 0.28  HD
ENDBRANCH 42 44
ENDBRANCH 39 42
ENDBRANCH 37 38
BRANCH 37 48
ATOM     48  CB  ARG D   2      17.563 -14.268  15.348  1.00 15.08 LIG 0.04  C 
BRANCH 48 49
ATOM     49  CG  ARG D   2      18.561 -13.785  14.304  1.00 14.63 LIG 0.02  C 
BRANCH 49 50
ATOM     50  CD  ARG D   2      19.998 -13.938  14.818  1.00 13.91 LIG 0.14  C 
BRANCH 50 51
ATOM     51  NE  ARG D   2      20.059 -14.012  16.278  1.00 10.79 LIG-0.23  N 
ATOM     52 HE   ARG D   2      19.735 -14.712  16.659  1.00 10.79 LIG 0.18  HD
ATOM     53  CZ  ARG D   2      20.583 -13.066  17.058  1.00 10.30 LIG 0.67  C 
ATOM     54  NH2 ARG D   2      21.113 -11.965  16.525  1.00  9.50 LIG-0.23  N 
ATOM     55  NH1 ARG D   2      20.575 -13.222  18.374  1.00  9.44 LIG-0.23  N 
ATOM     56 22HH ARG D   2      21.448 -11.360  17.034  1.00  9.50 LIG 0.17  HD
ATOM     57 21HH ARG D   2      21.117 -11.860  15.671  1.00  9.50 LIG 0.17  HD
ATOM     58 11HH ARG D   2      20.234 -13.930  18.721  1.00  9.44 LIG 0.17  HD
ATOM     59 12HH ARG D   2      20.913 -12.614  18.881  1.00  9.44 LIG 0.17  HD
ENDBRANCH 50 51
ENDBRANCH 49 50
ENDBRANCH 48 49
ENDBRANCH 37 48
ENDBRANCH 34 37
ENDBRANCH 1 33
TORSDOF 24
ENDMDL
MODEL 46
USER: ADFR SOLUTION from run 92
USER: SCORE 17.928820 LL:  -2.930 LR: -15.619 RR:   0.000 FEB:  -8.460
USER: RMSD 4.058381
USER: SEED 91
USER: STATUS no improvement in best 8 clusters for 5 generations
USER: GENES 26
USER: genes 0 Translation |==|  0.42360 0.46803 0.55548
USER: genes 1 Rotation |==|  0.40479 0.52034 0.48461 0.99019
USER: genes 2 Torsion [N]-CA--C-[N] |==|  0.52222
USER: genes 3 Torsion [C]-N--CA-[C] |==|  0.84393
USER: genes 4 Torsion [N]-CA--C-[N] |==|  0.35077
USER: genes 5 Torsion [C]-N--CA-[C] |==|  0.70268
USER: genes 6 Torsion [N]-CA--C-[O] |==|  0.06793
USER: genes 7 Torsion [N]-CA--CB-[CG] |==|  0.03530
USER: genes 8 Torsion [CA]-CB--CG-[CD] |==|  0.26696
USER: genes 9 Torsion [CB]-CG--CD-[OE1] |==|  0.32299
USER: genes 10 Torsion [N]-CA--CB-[CG] |==|  0.44047
USER: genes 11 Torsion [CA]-CB--CG-[CD] |==|  0.19943
USER: genes 12 Torsion [CB]-CG--CD-[CE] |==|  0.06506
USER: genes 13 Torsion [CG]-CD--CE-[NZ] |==|  0.21435
USER: genes 14 Torsion [CD]-CE--NZ-[HZ3] |==|  0.69876
USER: genes 15 Torsion [C]-CA--CB-[CG2] |==|  0.43277
USER: genes 16 Torsion [CA]-CB--OG1-[HG1] |==|  0.83721
USER: genes 17 Torsion [C]-CA--N-[C] |==|  0.62523
USER: genes 18 Torsion [N]-C--CA-[N] |==|  0.14987
USER: genes 19 Torsion [C]-CA--N-[C] |==|  0.14770
USER: genes 20 Torsion [N]-C--CA-[N] |==|  0.99847
USER: genes 21 Torsion [C]-CA--N-[H1] |==|  0.02612
USER: genes 22 Torsion [C]-CA--CB-[CG] |==|  0.20844
USER: genes 23 Torsion [CA]-CB--CG-[CD] |==|  0.54815
USER: genes 24 Torsion [CB]-CG--CD-[NE] |==|  0.74610
USER: genes 25 Torsion [CG]-CD--NE-[HE] |==|  0.27925
ROOT
ATOM      1  CA  THR D   3      15.708 -17.799  18.174  1.00 16.13 LIG 0.20  C 
ENDROOT
BRANCH 1 2
ATOM      2  C   THR D   3      15.334 -18.319  16.778  1.00 16.95 LIG 0.24  C 
ATOM      3 O    THR D   3      16.189 -18.374  15.888  1.00 16.12 LIG-0.27  OA
ATOM      4  N   LYS D   4      14.063 -18.693  16.606  1.00 18.15 LIG-0.35  N 
ATOM      5 H    LYS D   4      13.488 -18.688  17.245  1.00 18.15 LIG 0.16  HD
BRANCH 4 6
ATOM      6  CA  LYS D   4      13.502 -19.149  15.324  1.00 19.65 LIG 0.18  C 
BRANCH 6 7
ATOM      7  C   LYS D   4      13.724 -18.089  14.266  1.00 20.62 LIG 0.24  C 
ATOM      8  N   GLN D   5      14.331 -18.481  13.149  1.00 21.55 LIG-0.35  N 
ATOM      9 H    GLN D   5      14.596 -19.285  13.001  1.00 21.55 LIG 0.16  HD
ATOM     10 O    LYS D   4      13.337 -16.932  14.455  1.00 20.86 LIG-0.27  OA
BRANCH 8 11
ATOM     11  CA  GLN D   5      14.603 -17.539  12.056  1.00 22.83 LIG 0.16  C 
BRANCH 11 12
ATOM     12  C   GLN D   5      13.685 -17.766  10.856  1.00 22.91 LIG 0.22  C 
ATOM     13 O    GLN D   5      12.584 -18.304  10.989  1.00 23.29 LIG-0.29  OA
ENDBRANCH 11 12
BRANCH 11 14
ATOM     14  CB  GLN D   5      16.070 -17.603  11.625  1.00 22.86 LIG 0.04  C 
BRANCH 14 15
ATOM     15  CG  GLN D   5      16.838 -18.793  12.173  1.00 24.40 LIG 0.10  C 
BRANCH 15 16
ATOM     16  CD  GLN D   5      16.903 -19.959  11.206  1.00 24.21 LIG 0.21  C 
ATOM     17  NE2 GLN D   5      15.739 -20.527  10.885  1.00 25.13 LIG-0.37  N 
ATOM     18 22HE GLN D   5      15.721 -21.189  10.337  1.00 25.13 LIG 0.16  HD
ATOM     19 21HE GLN D   5      15.008 -20.231  11.226  1.00 25.13 LIG 0.16  HD
ATOM     20 OE1  GLN D   5      17.984 -20.345  10.745  1.00 25.71 LIG-0.27  OA
ENDBRANCH 15 16
ENDBRANCH 14 15
ENDBRANCH 11 14
ENDBRANCH 8 11
ENDBRANCH 6 7
BRANCH 6 21
ATOM     21  CB  LYS D   4      11.991 -19.373  15.434  1.00 19.73 LIG 0.04  C 
BRANCH 21 22
ATOM     22  CG  LYS D   4      11.227 -19.347  14.139  1.00 20.49 LIG 0.00  C 
BRANCH 22 23
ATOM     23  CD  LYS D   4      11.536 -20.603  13.339  1.00 20.73 LIG 0.03  C 
BRANCH 23 24
ATOM     24  CE  LYS D   4      12.008 -21.712  14.248  1.00 20.46 LIG 0.23  C 
BRANCH 24 25
ATOM     25  NZ  LYS D   4      10.875 -22.335  14.972  1.00 20.02 LIG-0.08  N 
ATOM     26 HZ3  LYS D   4      10.906 -22.102  15.830  1.00 20.02 LIG 0.27  HD
ATOM     27 HZ1  LYS D   4      10.108 -22.057  14.617  1.00 20.02 LIG 0.27  HD
ATOM     28 HZ2  LYS D   4      10.930 -23.221  14.903  1.00 20.02 LIG 0.27  HD
ENDBRANCH 24 25
ENDBRANCH 23 24
ENDBRANCH 22 23
ENDBRANCH 21 22
ENDBRANCH 6 21
ENDBRANCH 4 6
ENDBRANCH 1 2
BRANCH 1 29
ATOM     29  CB  THR D   3      14.644 -16.799  18.665  1.00 15.86 LIG 0.15  C 
ATOM     30  CG2 THR D   3      14.635 -16.726  20.189  1.00 16.15 LIG 0.04  C 
BRANCH 29 31
ATOM     31 OG1  THR D   3      14.929 -15.497  18.139  1.00 16.19 LIG-0.39  OA
ATOM     32 HG1  THR D   3      15.695 -15.257  18.385  1.00 16.19 LIG 0.21  HD
ENDBRANCH 29 31
ENDBRANCH 1 29
BRANCH 1 33
ATOM     33  N   THR D   3      17.061 -17.229  18.263  1.00 15.75 LIG-0.34  N 
ATOM     34  C   ARG D   2      17.886 -17.519  19.270  1.00 15.31 LIG 0.24  C 
ATOM     35 O    ARG D   2      17.605 -18.320  20.159  1.00 15.17 LIG-0.27  OA
ATOM     36 H    THR D   3      17.265 -16.701  17.615  1.00 15.75 LIG 0.16  HD
BRANCH 34 37
ATOM     37  CA  ARG D   2      19.228 -16.785  19.287  1.00 15.15 LIG 0.18  C 
BRANCH 37 38
ATOM     38  N   ARG D   2      19.071 -15.328  19.223  1.00 15.89 LIG-0.35  N 
ATOM     39  C   ALA D   1      18.304 -14.615  20.049  1.00 16.91 LIG 0.25  C 
ATOM     40 O    ALA D   1      17.542 -15.122  20.883  1.00 17.32 LIG-0.27  OA
ATOM     41 H    ARG D   2      19.529 -14.967  18.590  1.00 15.89 LIG 0.16  HD
BRANCH 39 42
ATOM     42  CA  ALA D   1      18.398 -13.095  19.906  1.00 17.08 LIG 0.27  C 
ATOM     43  CB  ALA D   1      17.011 -12.485  19.605  1.00 17.48 LIG 0.05  C 
BRANCH 42 44
ATOM     44  N   ALA D   1      19.374 -12.717  18.843  1.00 17.36 LIG-0.07  N 
ATOM     45 H3   ALA D   1      20.090 -12.342  19.216  1.00 17.36 LIG 0.28  HD
ATOM     46 H2   ALA D   1      18.994 -12.138  18.283  1.00 17.36 LIG 0.28  HD
ATOM     47 H1   ALA D   1      19.621 -13.444  18.393  1.00 17.36 LIG 0.28  HD
ENDBRANCH 42 44
ENDBRANCH 39 42
ENDBRANCH 37 38
BRANCH 37 48
ATOM     48  CB  ARG D   2      19.990 -17.137  20.574  1.00 15.08 LIG 0.04  C 
BRANCH 48 49
ATOM     49  CG  ARG D   2      20.633 -18.515  20.646  1.00 14.63 LIG 0.02  C 
BRANCH 49 50
ATOM     50  CD  ARG D   2      20.969 -18.879  22.098  1.00 13.91 LIG 0.14  C 
BRANCH 50 51
ATOM     51  NE  ARG D   2      22.326 -18.477  22.469  1.00 10.79 LIG-0.23  N 
ATOM     52 HE   ARG D   2      22.419 -17.753  22.926  1.00 10.79 LIG 0.18  HD
ATOM     53  CZ  ARG D   2      23.427 -19.156  22.148  1.00 10.30 LIG 0.67  C 
ATOM     54  NH2 ARG D   2      23.344 -20.290  21.453  1.00  9.50 LIG-0.23  N 
ATOM     55  NH1 ARG D   2      24.613 -18.697  22.520  1.00  9.44 LIG-0.23  N 
ATOM     56 22HH ARG D   2      24.059 -20.722  21.249  1.00  9.50 LIG 0.17  HD
ATOM     57 21HH ARG D   2      22.576 -20.590  21.208  1.00  9.50 LIG 0.17  HD
ATOM     58 11HH ARG D   2      24.670 -17.965  22.967  1.00  9.44 LIG 0.17  HD
ATOM     59 12HH ARG D   2      25.326 -19.132  22.314  1.00  9.44 LIG 0.17  HD
ENDBRANCH 50 51
ENDBRANCH 49 50
ENDBRANCH 48 49
ENDBRANCH 37 48
ENDBRANCH 34 37
ENDBRANCH 1 33
TORSDOF 24
ENDMDL
MODEL 47
USER: ADFR SOLUTION from run 110
USER: SCORE 16.569644 LL:  -2.797 LR: -15.622 RR:   0.000 FEB:  -8.463
USER: RMSD 6.924469
USER: SEED 109
USER: STATUS no improvement in best 8 clusters for 5 generations
USER: GENES 26
USER: genes 0 Translation |==|  0.46640 0.52733 0.61459
USER: genes 1 Rotation |==|  0.14915 0.40715 0.79974 0.66863
USER: genes 2 Torsion [N]-CA--C-[N] |==|  0.82778
USER: genes 3 Torsion [C]-N--CA-[C] |==|  0.58385
USER: genes 4 Torsion [N]-CA--C-[N] |==|  0.12542
USER: genes 5 Torsion [C]-N--CA-[C] |==|  0.09691
USER: genes 6 Torsion [N]-CA--C-[O] |==|  0.72265
USER: genes 7 Torsion [N]-CA--CB-[CG] |==|  0.57134
USER: genes 8 Torsion [CA]-CB--CG-[CD] |==|  0.87553
USER: genes 9 Torsion [CB]-CG--CD-[OE1] |==|  0.28008
USER: genes 10 Torsion [N]-CA--CB-[CG] |==|  0.74794
USER: genes 11 Torsion [CA]-CB--CG-[CD] |==|  0.67571
USER: genes 12 Torsion [CB]-CG--CD-[CE] |==|  0.25652
USER: genes 13 Torsion [CG]-CD--CE-[NZ] |==|  0.14287
USER: genes 14 Torsion [CD]-CE--NZ-[HZ3] |==|  0.60913
USER: genes 15 Torsion [C]-CA--CB-[CG2] |==|  0.38621
USER: genes 16 Torsion [CA]-CB--OG1-[HG1] |==|  0.71426
USER: genes 17 Torsion [C]-CA--N-[C] |==|  0.65010
USER: genes 18 Torsion [N]-C--CA-[N] |==|  0.29752
USER: genes 19 Torsion [C]-CA--N-[C] |==|  0.89944
USER: genes 20 Torsion [N]-C--CA-[N] |==|  0.51963
USER: genes 21 Torsion [C]-CA--N-[H1] |==|  0.65423
USER: genes 22 Torsion [C]-CA--CB-[CG] |==|  0.31377
USER: genes 23 Torsion [CA]-CB--CG-[CD] |==|  0.87178
USER: genes 24 Torsion [CB]-CG--CD-[NE] |==|  0.71804
USER: genes 25 Torsion [CG]-CD--NE-[HE] |==|  0.87686
ROOT
ATOM      1  CA  THR D   3      16.992 -16.020  19.948  1.00 16.13 LIG 0.20  C 
ENDROOT
BRANCH 1 2
ATOM      2  C   THR D   3      18.405 -16.577  20.180  1.00 16.95 LIG 0.24  C 
ATOM      3 O    THR D   3      19.125 -16.093  21.059  1.00 16.12 LIG-0.27  OA
ATOM      4  N   LYS D   4      18.781 -17.586  19.389  1.00 18.15 LIG-0.35  N 
ATOM      5 H    LYS D   4      18.255 -17.941  18.809  1.00 18.15 LIG 0.16  HD
BRANCH 4 6
ATOM      6  CA  LYS D   4      20.117 -18.202  19.414  1.00 19.65 LIG 0.18  C 
BRANCH 6 7
ATOM      7  C   LYS D   4      20.464 -18.720  18.034  1.00 20.62 LIG 0.24  C 
ATOM      8  N   GLN D   5      20.207 -17.909  17.012  1.00 21.55 LIG-0.35  N 
ATOM      9 H    GLN D   5      19.864 -17.124  17.093  1.00 21.55 LIG 0.16  HD
ATOM     10 O    LYS D   4      20.971 -19.838  17.899  1.00 20.86 LIG-0.27  OA
BRANCH 8 11
ATOM     11  CA  GLN D   5      20.499 -18.305  15.628  1.00 22.83 LIG 0.16  C 
BRANCH 11 12
ATOM     12  C   GLN D   5      20.276 -19.799  15.395  1.00 22.91 LIG 0.22  C 
ATOM     13 O    GLN D   5      21.220 -20.590  15.388  1.00 23.29 LIG-0.29  OA
ENDBRANCH 11 12
BRANCH 11 14
ATOM     14  CB  GLN D   5      21.923 -17.910  15.230  1.00 22.86 LIG 0.04  C 
BRANCH 14 15
ATOM     15  CG  GLN D   5      22.128 -17.701  13.740  1.00 24.40 LIG 0.10  C 
BRANCH 15 16
ATOM     16  CD  GLN D   5      21.493 -18.788  12.892  1.00 24.21 LIG 0.21  C 
ATOM     17  NE2 GLN D   5      22.165 -19.938  12.804  1.00 25.13 LIG-0.37  N 
ATOM     18 22HE GLN D   5      21.846 -20.587  12.340  1.00 25.13 LIG 0.16  HD
ATOM     19 21HE GLN D   5      22.916 -20.029  13.212  1.00 25.13 LIG 0.16  HD
ATOM     20 OE1  GLN D   5      20.409 -18.603  12.327  1.00 25.71 LIG-0.27  OA
ENDBRANCH 15 16
ENDBRANCH 14 15
ENDBRANCH 11 14
ENDBRANCH 8 11
ENDBRANCH 6 7
BRANCH 6 21
ATOM     21  CB  LYS D   4      20.153 -19.398  20.370  1.00 19.73 LIG 0.04  C 
BRANCH 21 22
ATOM     22  CG  LYS D   4      20.544 -19.093  21.790  1.00 20.49 LIG 0.00  C 
BRANCH 22 23
ATOM     23  CD  LYS D   4      21.840 -19.813  22.127  1.00 20.73 LIG 0.03  C 
BRANCH 23 24
ATOM     24  CE  LYS D   4      23.030 -18.925  21.856  1.00 20.46 LIG 0.23  C 
BRANCH 24 25
ATOM     25  NZ  LYS D   4      22.875 -17.602  22.506  1.00 20.02 LIG-0.08  N 
ATOM     26 HZ3  LYS D   4      23.181 -16.966  21.964  1.00 20.02 LIG 0.27  HD
ATOM     27 HZ1  LYS D   4      22.015 -17.456  22.678  1.00 20.02 LIG 0.27  HD
ATOM     28 HZ2  LYS D   4      23.336 -17.590  23.268  1.00 20.02 LIG 0.27  HD
ENDBRANCH 24 25
ENDBRANCH 23 24
ENDBRANCH 22 23
ENDBRANCH 21 22
ENDBRANCH 6 21
ENDBRANCH 4 6
ENDBRANCH 1 2
BRANCH 1 29
ATOM     29  CB  THR D   3      15.941 -17.103  20.262  1.00 15.86 LIG 0.15  C 
ATOM     30  CG2 THR D   3      14.754 -16.501  21.008  1.00 16.15 LIG 0.04  C 
BRANCH 29 31
ATOM     31 OG1  THR D   3      15.475 -17.689  19.040  1.00 16.19 LIG-0.39  OA
ATOM     32 HG1  THR D   3      14.718 -17.379  18.852  1.00 16.19 LIG 0.21  HD
ENDBRANCH 29 31
ENDBRANCH 1 29
BRANCH 1 33
ATOM     33  N   THR D   3      16.784 -15.444  18.610  1.00 15.75 LIG-0.34  N 
ATOM     34  C   ARG D   2      16.329 -14.202  18.438  1.00 15.31 LIG 0.24  C 
ATOM     35 O    ARG D   2      16.106 -13.434  19.371  1.00 15.17 LIG-0.27  OA
ATOM     36 H    THR D   3      16.982 -15.975  17.963  1.00 15.75 LIG 0.16  HD
BRANCH 34 37
ATOM     37  CA  ARG D   2      16.071 -13.762  16.996  1.00 15.15 LIG 0.18  C 
BRANCH 37 38
ATOM     38  N   ARG D   2      14.640 -13.678  16.683  1.00 15.89 LIG-0.35  N 
ATOM     39  C   ALA D   1      13.714 -14.513  17.159  1.00 16.91 LIG 0.25  C 
ATOM     40 O    ALA D   1      13.981 -15.526  17.818  1.00 17.32 LIG-0.27  OA
ATOM     41 H    ARG D   2      14.449 -13.028  16.153  1.00 15.89 LIG 0.16  HD
BRANCH 39 42
ATOM     42  CA  ALA D   1      12.263 -14.160  16.830  1.00 17.08 LIG 0.27  C 
ATOM     43  CB  ALA D   1      11.966 -12.683  17.173  1.00 17.48 LIG 0.05  C 
BRANCH 42 44
ATOM     44  N   ALA D   1      11.316 -15.060  17.552  1.00 17.36 LIG-0.07  N 
ATOM     45 H3   ALA D   1      10.833 -14.583  18.128  1.00 17.36 LIG 0.28  HD
ATOM     46 H2   ALA D   1      11.775 -15.682  17.993  1.00 17.36 LIG 0.28  HD
ATOM     47 H1   ALA D   1      10.774 -15.453  16.965  1.00 17.36 LIG 0.28  HD
ENDBRANCH 42 44
ENDBRANCH 39 42
ENDBRANCH 37 38
BRANCH 37 48
ATOM     48  CB  ARG D   2      16.704 -12.383  16.758  1.00 15.08 LIG 0.04  C 
BRANCH 48 49
ATOM     49  CG  ARG D   2      17.880 -12.315  15.793  1.00 14.63 LIG 0.02  C 
BRANCH 49 50
ATOM     50  CD  ARG D   2      18.885 -13.437  16.086  1.00 13.91 LIG 0.14  C 
BRANCH 50 51
ATOM     51  NE  ARG D   2      20.049 -12.956  16.831  1.00 10.79 LIG-0.23  N 
ATOM     52 HE   ARG D   2      20.410 -12.217  16.580  1.00 10.79 LIG 0.18  HD
ATOM     53  CZ  ARG D   2      20.587 -13.588  17.874  1.00 10.30 LIG 0.67  C 
ATOM     54  NH2 ARG D   2      20.064 -14.731  18.318  1.00  9.50 LIG-0.23  N 
ATOM     55  NH1 ARG D   2      21.654 -13.076  18.473  1.00  9.44 LIG-0.23  N 
ATOM     56 22HH ARG D   2      20.417 -15.132  18.991  1.00  9.50 LIG 0.17  HD
ATOM     57 21HH ARG D   2      19.373 -15.066  17.931  1.00  9.50 LIG 0.17  HD
ATOM     58 11HH ARG D   2      21.994 -12.340  18.188  1.00  9.44 LIG 0.17  HD
ATOM     59 12HH ARG D   2      22.004 -13.481  19.146  1.00  9.44 LIG 0.17  HD
ENDBRANCH 50 51
ENDBRANCH 49 50
ENDBRANCH 48 49
ENDBRANCH 37 48
ENDBRANCH 34 37
ENDBRANCH 1 33
TORSDOF 24
ENDMDL
MODEL 48
USER: ADFR SOLUTION from run 112
USER: SCORE 18.284393 LL:  -3.333 LR: -15.610 RR:   0.000 FEB:  -8.451
USER: RMSD 6.776000
USER: SEED 111
USER: STATUS no improvement in best 8 clusters for 5 generations
USER: GENES 26
USER: genes 0 Translation |==|  0.46733 0.51945 0.61229
USER: genes 1 Rotation |==|  0.16794 0.47810 0.73867 0.78686
USER: genes 2 Torsion [N]-CA--C-[N] |==|  0.18847
USER: genes 3 Torsion [C]-N--CA-[C] |==|  0.17645
USER: genes 4 Torsion [N]-CA--C-[N] |==|  0.07222
USER: genes 5 Torsion [C]-N--CA-[C] |==|  0.78014
USER: genes 6 Torsion [N]-CA--C-[O] |==|  0.24849
USER: genes 7 Torsion [N]-CA--CB-[CG] |==|  0.95316
USER: genes 8 Torsion [CA]-CB--CG-[CD] |==|  0.67612
USER: genes 9 Torsion [CB]-CG--CD-[OE1] |==|  0.31113
USER: genes 10 Torsion [N]-CA--CB-[CG] |==|  0.65218
USER: genes 11 Torsion [CA]-CB--CG-[CD] |==|  0.00376
USER: genes 12 Torsion [CB]-CG--CD-[CE] |==|  0.50024
USER: genes 13 Torsion [CG]-CD--CE-[NZ] |==|  0.73267
USER: genes 14 Torsion [CD]-CE--NZ-[HZ3] |==|  0.86903
USER: genes 15 Torsion [C]-CA--CB-[CG2] |==|  0.33169
USER: genes 16 Torsion [CA]-CB--OG1-[HG1] |==|  0.10443
USER: genes 17 Torsion [C]-CA--N-[C] |==|  0.65062
USER: genes 18 Torsion [N]-C--CA-[N] |==|  0.43623
USER: genes 19 Torsion [C]-CA--N-[C] |==|  0.79668
USER: genes 20 Torsion [N]-C--CA-[N] |==|  0.12235
USER: genes 21 Torsion [C]-CA--N-[H1] |==|  0.00536
USER: genes 22 Torsion [C]-CA--CB-[CG] |==|  0.16957
USER: genes 23 Torsion [CA]-CB--CG-[CD] |==|  0.67666
USER: genes 24 Torsion [CB]-CG--CD-[NE] |==|  0.96399
USER: genes 25 Torsion [CG]-CD--NE-[HE] |==|  0.27858
ROOT
ATOM      1  CA  THR D   3      17.020 -16.257  19.879  1.00 16.13 LIG 0.20  C 
ENDROOT
BRANCH 1 2
ATOM      2  C   THR D   3      17.917 -17.503  19.822  1.00 16.95 LIG 0.24  C 
ATOM      3 O    THR D   3      17.415 -18.622  19.680  1.00 16.12 LIG-0.27  OA
ATOM      4  N   LYS D   4      19.232 -17.290  19.934  1.00 18.15 LIG-0.35  N 
ATOM      5 H    LYS D   4      19.571 -16.503  19.992  1.00 18.15 LIG 0.16  HD
BRANCH 4 6
ATOM      6  CA  LYS D   4      20.241 -18.361  19.973  1.00 19.65 LIG 0.18  C 
BRANCH 6 7
ATOM      7  C   LYS D   4      20.230 -19.118  18.662  1.00 20.62 LIG 0.24  C 
ATOM      8  N   GLN D   5      19.801 -18.452  17.594  1.00 21.55 LIG-0.35  N 
ATOM      9 H    GLN D   5      19.538 -17.633  17.609  1.00 21.55 LIG 0.16  HD
ATOM     10 O    LYS D   4      20.619 -20.289  18.617  1.00 20.86 LIG-0.27  OA
BRANCH 8 11
ATOM     11  CA  GLN D   5      19.743 -19.085  16.270  1.00 22.83 LIG 0.16  C 
BRANCH 11 12
ATOM     12  C   GLN D   5      21.113 -19.138  15.594  1.00 22.91 LIG 0.22  C 
ATOM     13 O    GLN D   5      21.869 -20.096  15.762  1.00 23.29 LIG-0.29  OA
ENDBRANCH 11 12
BRANCH 11 14
ATOM     14  CB  GLN D   5      18.729 -18.380  15.366  1.00 22.86 LIG 0.04  C 
BRANCH 14 15
ATOM     15  CG  GLN D   5      17.740 -17.490  16.099  1.00 24.40 LIG 0.10  C 
BRANCH 15 16
ATOM     16  CD  GLN D   5      16.303 -17.957  15.965  1.00 24.21 LIG 0.21  C 
ATOM     17  NE2 GLN D   5      15.763 -17.870  14.748  1.00 25.13 LIG-0.37  N 
ATOM     18 22HE GLN D   5      14.953 -18.126  14.618  1.00 25.13 LIG 0.16  HD
ATOM     19 21HE GLN D   5      16.226 -17.558  14.094  1.00 25.13 LIG 0.16  HD
ATOM     20 OE1  GLN D   5      15.684 -18.399  16.941  1.00 25.71 LIG-0.27  OA
ENDBRANCH 15 16
ENDBRANCH 14 15
ENDBRANCH 11 14
ENDBRANCH 8 11
ENDBRANCH 6 7
BRANCH 6 21
ATOM     21  CB  LYS D   4      19.929 -19.369  21.083  1.00 19.73 LIG 0.04  C 
BRANCH 21 22
ATOM     22  CG  LYS D   4      21.032 -19.619  22.074  1.00 20.49 LIG 0.00  C 
BRANCH 22 23
ATOM     23  CD  LYS D   4      22.229 -18.745  21.735  1.00 20.73 LIG 0.03  C 
BRANCH 23 24
ATOM     24  CE  LYS D   4      23.354 -18.977  22.715  1.00 20.46 LIG 0.23  C 
BRANCH 24 25
ATOM     25  NZ  LYS D   4      23.343 -17.965  23.798  1.00 20.02 LIG-0.08  N 
ATOM     26 HZ3  LYS D   4      23.249 -17.153  23.446  1.00 20.02 LIG 0.27  HD
ATOM     27 HZ1  LYS D   4      22.664 -18.129  24.350  1.00 20.02 LIG 0.27  HD
ATOM     28 HZ2  LYS D   4      24.109 -18.005  24.250  1.00 20.02 LIG 0.27  HD
ENDBRANCH 24 25
ENDBRANCH 23 24
ENDBRANCH 22 23
ENDBRANCH 21 22
ENDBRANCH 6 21
ENDBRANCH 4 6
ENDBRANCH 1 2
BRANCH 1 29
ATOM     29  CB  THR D   3      15.551 -16.675  20.085  1.00 15.86 LIG 0.15  C 
ATOM     30  CG2 THR D   3      15.002 -16.090  21.384  1.00 16.15 LIG 0.04  C 
BRANCH 29 31
ATOM     31 OG1  THR D   3      14.758 -16.203  18.989  1.00 16.19 LIG-0.39  OA
ATOM     32 HG1  THR D   3      15.198 -16.268  18.277  1.00 16.19 LIG 0.21  HD
ENDBRANCH 29 31
ENDBRANCH 1 29
BRANCH 1 33
ATOM     33  N   THR D   3      17.164 -15.358  18.723  1.00 15.75 LIG-0.34  N 
ATOM     34  C   ARG D   2      17.444 -14.062  18.865  1.00 15.31 LIG 0.24  C 
ATOM     35 O    ARG D   2      17.659 -13.538  19.956  1.00 15.17 LIG-0.27  OA
ATOM     36 H    THR D   3      17.052 -15.742  17.961  1.00 15.75 LIG 0.16  HD
BRANCH 34 37
ATOM     37  CA  ARG D   2      17.473 -13.224  17.586  1.00 15.15 LIG 0.18  C 
BRANCH 37 38
ATOM     38  N   ARG D   2      17.250 -11.798  17.845  1.00 15.89 LIG-0.35  N 
ATOM     39  C   ALA D   1      16.071 -11.266  18.173  1.00 16.91 LIG 0.25  C 
ATOM     40 O    ALA D   1      15.010 -11.904  18.172  1.00 17.32 LIG-0.27  OA
ATOM     41 H    ARG D   2      17.964 -11.324  17.765  1.00 15.89 LIG 0.16  HD
BRANCH 39 42
ATOM     42  CA  ALA D   1      16.085  -9.784  18.548  1.00 17.08 LIG 0.27  C 
ATOM     43  CB  ALA D   1      14.650  -9.214  18.589  1.00 17.48 LIG 0.05  C 
BRANCH 42 44
ATOM     44  N   ALA D   1      16.928  -8.999  17.598  1.00 17.36 LIG-0.07  N 
ATOM     45 H3   ALA D   1      17.605  -8.627  18.039  1.00 17.36 LIG 0.28  HD
ATOM     46 H2   ALA D   1      16.434  -8.362  17.220  1.00 17.36 LIG 0.28  HD
ATOM     47 H1   ALA D   1      17.246  -9.540  16.966  1.00 17.36 LIG 0.28  HD
ENDBRANCH 42 44
ENDBRANCH 39 42
ENDBRANCH 37 38
BRANCH 37 48
ATOM     48  CB  ARG D   2      18.835 -13.387  16.895  1.00 15.08 LIG 0.04  C 
BRANCH 48 49
ATOM     49  CG  ARG D   2      19.223 -14.789  16.445  1.00 14.63 LIG 0.02  C 
BRANCH 49 50
ATOM     50  CD  ARG D   2      20.467 -15.274  17.201  1.00 13.91 LIG 0.14  C 
BRANCH 50 51
ATOM     51  NE  ARG D   2      21.137 -14.190  17.918  1.00 10.79 LIG-0.23  N 
ATOM     52 HE   ARG D   2      20.994 -14.118  18.763  1.00 10.79 LIG 0.18  HD
ATOM     53  CZ  ARG D   2      21.954 -13.303  17.349  1.00 10.30 LIG 0.67  C 
ATOM     54  NH2 ARG D   2      22.224 -13.370  16.045  1.00  9.50 LIG-0.23  N 
ATOM     55  NH1 ARG D   2      22.500 -12.346  18.086  1.00  9.44 LIG-0.23  N 
ATOM     56 22HH ARG D   2      22.752 -12.795  15.686  1.00  9.50 LIG 0.17  HD
ATOM     57 21HH ARG D   2      21.870 -13.989  15.564  1.00  9.50 LIG 0.17  HD
ATOM     58 11HH ARG D   2      22.327 -12.299  18.927  1.00  9.44 LIG 0.17  HD
ATOM     59 12HH ARG D   2      23.028 -11.772  17.722  1.00  9.44 LIG 0.17  HD
ENDBRANCH 50 51
ENDBRANCH 49 50
ENDBRANCH 48 49
ENDBRANCH 37 48
ENDBRANCH 34 37
ENDBRANCH 1 33
TORSDOF 24
ENDMDL
MODEL 49
USER: ADFR SOLUTION from run 12
USER: SCORE 18.320573 LL:  -3.351 LR: -15.614 RR:   0.000 FEB:  -8.455
USER: RMSD 9.531536
USER: SEED 153357
USER: STATUS no improvement in best 6 clusters for 5 generations
USER: GENES 26
USER: genes 0 Translation |==|  0.51148 0.61496 0.55727
USER: genes 1 Rotation |==|  0.64261 0.95730 0.64308 0.50850
USER: genes 2 Torsion [N]-CA--C-[N] |==|  0.40730
USER: genes 3 Torsion [C]-N--CA-[C] |==|  0.66189
USER: genes 4 Torsion [N]-CA--C-[N] |==|  0.36011
USER: genes 5 Torsion [C]-N--CA-[C] |==|  0.73042
USER: genes 6 Torsion [N]-CA--C-[O] |==|  0.00093
USER: genes 7 Torsion [N]-CA--CB-[CG] |==|  0.32363
USER: genes 8 Torsion [CA]-CB--CG-[CD] |==|  0.29004
USER: genes 9 Torsion [CB]-CG--CD-[OE1] |==|  0.69933
USER: genes 10 Torsion [N]-CA--CB-[CG] |==|  0.97210
USER: genes 11 Torsion [CA]-CB--CG-[CD] |==|  0.78654
USER: genes 12 Torsion [CB]-CG--CD-[CE] |==|  0.95115
USER: genes 13 Torsion [CG]-CD--CE-[NZ] |==|  0.29870
USER: genes 14 Torsion [CD]-CE--NZ-[HZ3] |==|  0.34825
USER: genes 15 Torsion [C]-CA--CB-[CG2] |==|  0.16627
USER: genes 16 Torsion [CA]-CB--OG1-[HG1] |==|  0.17252
USER: genes 17 Torsion [C]-CA--N-[C] |==|  0.80686
USER: genes 18 Torsion [N]-C--CA-[N] |==|  0.13421
USER: genes 19 Torsion [C]-CA--N-[C] |==|  0.60822
USER: genes 20 Torsion [N]-C--CA-[N] |==|  0.83913
USER: genes 21 Torsion [C]-CA--N-[H1] |==|  0.12229
USER: genes 22 Torsion [C]-CA--CB-[CG] |==|  0.77645
USER: genes 23 Torsion [CA]-CB--CG-[CD] |==|  0.42261
USER: genes 24 Torsion [CB]-CG--CD-[NE] |==|  0.82967
USER: genes 25 Torsion [CG]-CD--NE-[HE] |==|  0.98442
ROOT
ATOM      1  CA  THR D   3      18.345 -13.391  18.228  1.00 16.13 LIG 0.20  C 
ENDROOT
BRANCH 1 2
ATOM      2  C   THR D   3      18.262 -14.279  19.480  1.00 16.95 LIG 0.24  C 
ATOM      3 O    THR D   3      18.214 -13.765  20.602  1.00 16.12 LIG-0.27  OA
ATOM      4  N   LYS D   4      18.246 -15.598  19.269  1.00 18.15 LIG-0.35  N 
ATOM      5 H    LYS D   4      18.239 -15.942  18.482  1.00 18.15 LIG 0.16  HD
BRANCH 4 6
ATOM      6  CA  LYS D   4      18.241 -16.606  20.342  1.00 19.65 LIG 0.18  C 
BRANCH 6 7
ATOM      7  C   LYS D   4      19.443 -17.513  20.193  1.00 20.62 LIG 0.24  C 
ATOM      8  N   GLN D   5      20.189 -17.697  21.278  1.00 21.55 LIG-0.35  N 
ATOM      9 H    GLN D   5      20.026 -17.337  22.042  1.00 21.55 LIG 0.16  HD
ATOM     10 O    LYS D   4      19.685 -18.051  19.108  1.00 20.86 LIG-0.27  OA
BRANCH 8 11
ATOM     11  CA  GLN D   5      21.382 -18.554  21.252  1.00 22.83 LIG 0.16  C 
BRANCH 11 12
ATOM     12  C   GLN D   5      21.092 -19.964  21.762  1.00 22.91 LIG 0.22  C 
ATOM     13 O    GLN D   5      19.963 -20.287  22.134  1.00 23.29 LIG-0.29  OA
ENDBRANCH 11 12
BRANCH 11 14
ATOM     14  CB  GLN D   5      22.530 -17.924  22.044  1.00 22.86 LIG 0.04  C 
BRANCH 14 15
ATOM     15  CG  GLN D   5      22.972 -18.723  23.258  1.00 24.40 LIG 0.10  C 
BRANCH 15 16
ATOM     16  CD  GLN D   5      24.279 -19.463  23.042  1.00 24.21 LIG 0.21  C 
ATOM     17  NE2 GLN D   5      25.383 -18.715  23.000  1.00 25.13 LIG-0.37  N 
ATOM     18 22HE GLN D   5      26.150 -19.087  22.885  1.00 25.13 LIG 0.16  HD
ATOM     19 21HE GLN D   5      25.328 -17.861  23.089  1.00 25.13 LIG 0.16  HD
ATOM     20 OE1  GLN D   5      24.301 -20.694  22.920  1.00 25.71 LIG-0.27  OA
ENDBRANCH 15 16
ENDBRANCH 14 15
ENDBRANCH 11 14
ENDBRANCH 8 11
ENDBRANCH 6 7
BRANCH 6 21
ATOM     21  CB  LYS D   4      16.992 -17.488  20.260  1.00 19.73 LIG 0.04  C 
BRANCH 21 22
ATOM     22  CG  LYS D   4      15.928 -17.036  19.298  1.00 20.49 LIG 0.00  C 
BRANCH 22 23
ATOM     23  CD  LYS D   4      15.154 -15.875  19.903  1.00 20.73 LIG 0.03  C 
BRANCH 23 24
ATOM     24  CE  LYS D   4      15.374 -15.807  21.395  1.00 20.46 LIG 0.23  C 
BRANCH 24 25
ATOM     25  NZ  LYS D   4      16.239 -14.660  21.760  1.00 20.02 LIG-0.08  N 
ATOM     26 HZ3  LYS D   4      15.825 -14.156  22.365  1.00 20.02 LIG 0.27  HD
ATOM     27 HZ1  LYS D   4      17.004 -14.962  22.100  1.00 20.02 LIG 0.27  HD
ATOM     28 HZ2  LYS D   4      16.409 -14.174  21.034  1.00 20.02 LIG 0.27  HD
ENDBRANCH 24 25
ENDBRANCH 23 24
ENDBRANCH 22 23
ENDBRANCH 21 22
ENDBRANCH 6 21
ENDBRANCH 4 6
ENDBRANCH 1 2
BRANCH 1 29
ATOM     29  CB  THR D   3      19.818 -13.171  17.836  1.00 15.86 LIG 0.15  C 
ATOM     30  CG2 THR D   3      20.501 -14.503  17.539  1.00 16.15 LIG 0.04  C 
BRANCH 29 31
ATOM     31 OG1  THR D   3      19.887 -12.342  16.670  1.00 16.19 LIG-0.39  OA
ATOM     32 HG1  THR D   3      19.553 -11.590  16.840  1.00 16.19 LIG 0.21  HD
ENDBRANCH 29 31
ENDBRANCH 1 29
BRANCH 1 33
ATOM     33  N   THR D   3      17.624 -12.114  18.347  1.00 15.75 LIG-0.34  N 
ATOM     34  C   ARG D   2      16.293 -12.053  18.389  1.00 15.31 LIG 0.24  C 
ATOM     35 O    ARG D   2      15.576 -13.052  18.391  1.00 15.17 LIG-0.27  OA
ATOM     36 H    THR D   3      18.136 -11.423  18.386  1.00 15.75 LIG 0.16  HD
BRANCH 34 37
ATOM     37  CA  ARG D   2      15.672 -10.656  18.419  1.00 15.15 LIG 0.18  C 
BRANCH 37 38
ATOM     38  N   ARG D   2      16.236  -9.769  17.396  1.00 15.89 LIG-0.35  N 
ATOM     39  C   ALA D   1      16.500  -8.475  17.583  1.00 16.91 LIG 0.25  C 
ATOM     40 O    ALA D   1      16.179  -7.852  18.604  1.00 17.32 LIG-0.27  OA
ATOM     41 H    ARG D   2      16.385 -10.168  16.649  1.00 15.89 LIG 0.16  HD
BRANCH 39 42
ATOM     42  CA  ALA D   1      17.225  -7.767  16.438  1.00 17.08 LIG 0.27  C 
ATOM     43  CB  ALA D   1      16.338  -7.720  15.173  1.00 17.48 LIG 0.05  C 
BRANCH 42 44
ATOM     44  N   ALA D   1      18.526  -8.432  16.135  1.00 17.36 LIG-0.07  N 
ATOM     45 H3   ALA D   1      19.123  -8.215  16.759  1.00 17.36 LIG 0.28  HD
ATOM     46 H2   ALA D   1      18.818  -8.165  15.338  1.00 17.36 LIG 0.28  HD
ATOM     47 H1   ALA D   1      18.414  -9.316  16.128  1.00 17.36 LIG 0.28  HD
ENDBRANCH 42 44
ENDBRANCH 39 42
ENDBRANCH 37 38
BRANCH 37 48
ATOM     48  CB  ARG D   2      14.157 -10.762  18.192  1.00 15.08 LIG 0.04  C 
BRANCH 48 49
ATOM     49  CG  ARG D   2      13.678 -10.919  16.756  1.00 14.63 LIG 0.02  C 
BRANCH 49 50
ATOM     50  CD  ARG D   2      12.342 -11.673  16.710  1.00 13.91 LIG 0.14  C 
BRANCH 50 51
ATOM     51  NE  ARG D   2      12.451 -13.024  17.260  1.00 10.79 LIG-0.23  N 
ATOM     52 HE   ARG D   2      13.232 -13.305  17.484  1.00 10.79 LIG 0.18  HD
ATOM     53  CZ  ARG D   2      11.419 -13.849  17.437  1.00 10.30 LIG 0.67  C 
ATOM     54  NH2 ARG D   2      10.182 -13.465  17.120  1.00  9.50 LIG-0.23  N 
ATOM     55  NH1 ARG D   2      11.625 -15.063  17.929  1.00  9.44 LIG-0.23  N 
ATOM     56 22HH ARG D   2       9.522 -14.003  17.237  1.00  9.50 LIG 0.17  HD
ATOM     57 21HH ARG D   2      10.045 -12.679  16.799  1.00  9.50 LIG 0.17  HD
ATOM     58 11HH ARG D   2      12.421 -15.314  18.133  1.00  9.44 LIG 0.17  HD
ATOM     59 12HH ARG D   2      10.962 -15.598  18.045  1.00  9.44 LIG 0.17  HD
ENDBRANCH 50 51
ENDBRANCH 49 50
ENDBRANCH 48 49
ENDBRANCH 37 48
ENDBRANCH 34 37
ENDBRANCH 1 33
TORSDOF 24
ENDMDL
MODEL 50
USER: ADFR SOLUTION from run 95
USER: SCORE 17.942383 LL:  -3.037 LR: -15.587 RR:   0.000 FEB:  -8.428
USER: RMSD 8.871189
USER: SEED 94
USER: STATUS no improvement in best 5 clusters for 5 generations
USER: GENES 26
USER: genes 0 Translation |==|  0.47264 0.51895 0.59393
USER: genes 1 Rotation |==|  0.21685 0.72144 0.79407 0.68525
USER: genes 2 Torsion [N]-CA--C-[N] |==|  0.16979
USER: genes 3 Torsion [C]-N--CA-[C] |==|  0.77772
USER: genes 4 Torsion [N]-CA--C-[N] |==|  0.20065
USER: genes 5 Torsion [C]-N--CA-[C] |==|  0.16616
USER: genes 6 Torsion [N]-CA--C-[O] |==|  0.03707
USER: genes 7 Torsion [N]-CA--CB-[CG] |==|  0.37782
USER: genes 8 Torsion [CA]-CB--CG-[CD] |==|  0.52703
USER: genes 9 Torsion [CB]-CG--CD-[OE1] |==|  0.90755
USER: genes 10 Torsion [N]-CA--CB-[CG] |==|  0.11437
USER: genes 11 Torsion [CA]-CB--CG-[CD] |==|  0.40910
USER: genes 12 Torsion [CB]-CG--CD-[CE] |==|  0.36836
USER: genes 13 Torsion [CG]-CD--CE-[NZ] |==|  0.55242
USER: genes 14 Torsion [CD]-CE--NZ-[HZ3] |==|  0.39733
USER: genes 15 Torsion [C]-CA--CB-[CG2] |==|  0.41683
USER: genes 16 Torsion [CA]-CB--OG1-[HG1] |==|  0.05607
USER: genes 17 Torsion [C]-CA--N-[C] |==|  0.12509
USER: genes 18 Torsion [N]-C--CA-[N] |==|  0.08896
USER: genes 19 Torsion [C]-CA--N-[C] |==|  0.16217
USER: genes 20 Torsion [N]-C--CA-[N] |==|  0.13766
USER: genes 21 Torsion [C]-CA--N-[H1] |==|  0.72927
USER: genes 22 Torsion [C]-CA--CB-[CG] |==|  0.29719
USER: genes 23 Torsion [CA]-CB--CG-[CD] |==|  0.36699
USER: genes 24 Torsion [CB]-CG--CD-[NE] |==|  0.24769
USER: genes 25 Torsion [CG]-CD--NE-[HE] |==|  0.76594
ROOT
ATOM      1  CA  THR D   3      17.179 -16.271  19.328  1.00 16.13 LIG 0.20  C 
ENDROOT
BRANCH 1 2
ATOM      2  C   THR D   3      17.687 -17.693  19.617  1.00 16.95 LIG 0.24  C 
ATOM      3 O    THR D   3      17.323 -18.284  20.638  1.00 16.12 LIG-0.27  OA
ATOM      4  N   LYS D   4      18.520 -18.219  18.714  1.00 18.15 LIG-0.35  N 
ATOM      5 H    LYS D   4      18.733 -17.812  17.988  1.00 18.15 LIG 0.16  HD
BRANCH 4 6
ATOM      6  CA  LYS D   4      19.163 -19.535  18.853  1.00 19.65 LIG 0.18  C 
BRANCH 6 7
ATOM      7  C   LYS D   4      20.361 -19.421  19.772  1.00 20.62 LIG 0.24  C 
ATOM      8  N   GLN D   5      20.104 -19.252  21.066  1.00 21.55 LIG-0.35  N 
ATOM      9 H    GLN D   5      19.313 -19.207  21.399  1.00 21.55 LIG 0.16  HD
ATOM     10 O    LYS D   4      21.505 -19.499  19.314  1.00 20.86 LIG-0.27  OA
BRANCH 8 11
ATOM     11  CA  GLN D   5      21.187 -19.126  22.051  1.00 22.83 LIG 0.16  C 
BRANCH 11 12
ATOM     12  C   GLN D   5      22.096 -17.933  21.761  1.00 22.91 LIG 0.22  C 
ATOM     13 O    GLN D   5      21.765 -17.061  20.955  1.00 23.29 LIG-0.29  OA
ENDBRANCH 11 12
BRANCH 11 14
ATOM     14  CB  GLN D   5      22.008 -20.415  22.135  1.00 22.86 LIG 0.04  C 
BRANCH 14 15
ATOM     15  CG  GLN D   5      23.511 -20.205  22.177  1.00 24.40 LIG 0.10  C 
BRANCH 15 16
ATOM     16  CD  GLN D   5      24.299 -21.493  22.024  1.00 24.21 LIG 0.21  C 
ATOM     17  NE2 GLN D   5      25.470 -21.398  21.393  1.00 25.13 LIG-0.37  N 
ATOM     18 22HE GLN D   5      25.957 -22.099  21.284  1.00 25.13 LIG 0.16  HD
ATOM     19 21HE GLN D   5      25.738 -20.637  21.096  1.00 25.13 LIG 0.16  HD
ATOM     20 OE1  GLN D   5      23.865 -22.561  22.472  1.00 25.71 LIG-0.27  OA
ENDBRANCH 15 16
ENDBRANCH 14 15
ENDBRANCH 11 14
ENDBRANCH 8 11
ENDBRANCH 6 7
BRANCH 6 21
ATOM     21  CB  LYS D   4      19.675 -20.041  17.501  1.00 19.73 LIG 0.04  C 
BRANCH 21 22
ATOM     22  CG  LYS D   4      20.331 -19.014  16.619  1.00 20.49 LIG 0.00  C 
BRANCH 22 23
ATOM     23  CD  LYS D   4      21.431 -19.672  15.801  1.00 20.73 LIG 0.03  C 
BRANCH 23 24
ATOM     24  CE  LYS D   4      21.329 -19.272  14.349  1.00 20.46 LIG 0.23  C 
BRANCH 24 25
ATOM     25  NZ  LYS D   4      22.070 -20.215  13.478  1.00 20.02 LIG-0.08  N 
ATOM     26 HZ3  LYS D   4      21.624 -20.329  12.716  1.00 20.02 LIG 0.27  HD
ATOM     27 HZ1  LYS D   4      22.877 -19.885  13.302  1.00 20.02 LIG 0.27  HD
ATOM     28 HZ2  LYS D   4      22.154 -20.998  13.892  1.00 20.02 LIG 0.27  HD
ENDBRANCH 24 25
ENDBRANCH 23 24
ENDBRANCH 22 23
ENDBRANCH 21 22
ENDBRANCH 6 21
ENDBRANCH 4 6
ENDBRANCH 1 2
BRANCH 1 29
ATOM     29  CB  THR D   3      16.381 -15.742  20.535  1.00 15.86 LIG 0.15  C 
ATOM     30  CG2 THR D   3      16.498 -14.224  20.634  1.00 16.15 LIG 0.04  C 
BRANCH 29 31
ATOM     31 OG1  THR D   3      15.000 -16.094  20.389  1.00 16.19 LIG-0.39  OA
ATOM     32 HG1  THR D   3      14.929 -16.733  19.849  1.00 16.19 LIG 0.21  HD
ENDBRANCH 29 31
ENDBRANCH 1 29
BRANCH 1 33
ATOM     33  N   THR D   3      16.409 -16.150  18.080  1.00 15.75 LIG-0.34  N 
ATOM     34  C   ARG D   2      15.466 -17.030  17.742  1.00 15.31 LIG 0.24  C 
ATOM     35 O    ARG D   2      15.132 -17.966  18.465  1.00 15.17 LIG-0.27  OA
ATOM     36 H    THR D   3      16.621 -15.468  17.600  1.00 15.75 LIG 0.16  HD
BRANCH 34 37
ATOM     37  CA  ARG D   2      14.808 -16.837  16.375  1.00 15.15 LIG 0.18  C 
BRANCH 37 38
ATOM     38  N   ARG D   2      15.728 -16.265  15.386  1.00 15.89 LIG-0.35  N 
ATOM     39  C   ALA D   1      16.886 -16.820  15.024  1.00 16.91 LIG 0.25  C 
ATOM     40 O    ALA D   1      17.369 -17.816  15.577  1.00 17.32 LIG-0.27  OA
ATOM     41 H    ARG D   2      15.446 -15.523  15.053  1.00 15.89 LIG 0.16  HD
BRANCH 39 42
ATOM     42  CA  ALA D   1      17.622 -16.140  13.868  1.00 17.08 LIG 0.27  C 
ATOM     43  CB  ALA D   1      19.024 -16.759  13.671  1.00 17.48 LIG 0.05  C 
BRANCH 42 44
ATOM     44  N   ALA D   1      17.732 -14.669  14.094  1.00 17.36 LIG-0.07  N 
ATOM     45 H3   ALA D   1      18.522 -14.382  13.803  1.00 17.36 LIG 0.28  HD
ATOM     46 H2   ALA D   1      17.655 -14.496  14.964  1.00 17.36 LIG 0.28  HD
ATOM     47 H1   ALA D   1      17.083 -14.251  13.651  1.00 17.36 LIG 0.28  HD
ENDBRANCH 42 44
ENDBRANCH 39 42
ENDBRANCH 37 38
BRANCH 37 48
ATOM     48  CB  ARG D   2      14.306 -18.190  15.850  1.00 15.08 LIG 0.04  C 
BRANCH 48 49
ATOM     49  CG  ARG D   2      12.803 -18.426  15.862  1.00 14.63 LIG 0.02  C 
BRANCH 49 50
ATOM     50  CD  ARG D   2      12.331 -18.979  14.511  1.00 13.91 LIG 0.14  C 
BRANCH 50 51
ATOM     51  NE  ARG D   2      12.381 -20.440  14.463  1.00 10.79 LIG-0.23  N 
ATOM     52 HE   ARG D   2      13.131 -20.810  14.260  1.00 10.79 LIG 0.18  HD
ATOM     53  CZ  ARG D   2      11.343 -21.238  14.713  1.00 10.30 LIG 0.67  C 
ATOM     54  NH2 ARG D   2      10.159 -20.724  15.046  1.00  9.50 LIG-0.23  N 
ATOM     55  NH1 ARG D   2      11.489 -22.552  14.627  1.00  9.44 LIG-0.23  N 
ATOM     56 22HH ARG D   2       9.494 -21.244  15.205  1.00  9.50 LIG 0.17  HD
ATOM     57 21HH ARG D   2      10.060 -19.871  15.100  1.00  9.50 LIG 0.17  HD
ATOM     58 11HH ARG D   2      12.251 -22.887  14.411  1.00  9.44 LIG 0.17  HD
ATOM     59 12HH ARG D   2      10.821 -23.070  14.788  1.00  9.44 LIG 0.17  HD
ENDBRANCH 50 51
ENDBRANCH 49 50
ENDBRANCH 48 49
ENDBRANCH 37 48
ENDBRANCH 34 37
ENDBRANCH 1 33
TORSDOF 24
ENDMDL
MODEL 51
USER: ADFR SOLUTION from run 77
USER: SCORE 16.718118 LL:  -2.833 LR: -15.558 RR:   0.000 FEB:  -8.399
USER: RMSD 7.234693
USER: SEED 76
USER: STATUS no improvement in best 5 clusters for 5 generations
USER: GENES 26
USER: genes 0 Translation |==|  0.50824 0.60937 0.55842
USER: genes 1 Rotation |==|  0.26783 0.65804 0.69175 0.86654
USER: genes 2 Torsion [N]-CA--C-[N] |==|  0.60880
USER: genes 3 Torsion [C]-N--CA-[C] |==|  0.14729
USER: genes 4 Torsion [N]-CA--C-[N] |==|  0.05814
USER: genes 5 Torsion [C]-N--CA-[C] |==|  0.12604
USER: genes 6 Torsion [N]-CA--C-[O] |==|  0.59449
USER: genes 7 Torsion [N]-CA--CB-[CG] |==|  0.60175
USER: genes 8 Torsion [CA]-CB--CG-[CD] |==|  0.26353
USER: genes 9 Torsion [CB]-CG--CD-[OE1] |==|  0.63631
USER: genes 10 Torsion [N]-CA--CB-[CG] |==|  0.87884
USER: genes 11 Torsion [CA]-CB--CG-[CD] |==|  0.77382
USER: genes 12 Torsion [CB]-CG--CD-[CE] |==|  0.45292
USER: genes 13 Torsion [CG]-CD--CE-[NZ] |==|  0.43444
USER: genes 14 Torsion [CD]-CE--NZ-[HZ3] |==|  0.76839
USER: genes 15 Torsion [C]-CA--CB-[CG2] |==|  0.26199
USER: genes 16 Torsion [CA]-CB--OG1-[HG1] |==|  0.91381
USER: genes 17 Torsion [C]-CA--N-[C] |==|  0.11266
USER: genes 18 Torsion [N]-C--CA-[N] |==|  0.85104
USER: genes 19 Torsion [C]-CA--N-[C] |==|  0.64025
USER: genes 20 Torsion [N]-C--CA-[N] |==|  0.93975
USER: genes 21 Torsion [C]-CA--N-[H1] |==|  0.57974
USER: genes 22 Torsion [C]-CA--CB-[CG] |==|  0.10248
USER: genes 23 Torsion [CA]-CB--CG-[CD] |==|  0.63393
USER: genes 24 Torsion [CB]-CG--CD-[NE] |==|  0.23215
USER: genes 25 Torsion [CG]-CD--NE-[HE] |==|  0.23649
ROOT
ATOM      1  CA  THR D   3      18.247 -13.559  18.263  1.00 16.13 LIG 0.20  C 
ENDROOT
BRANCH 1 2
ATOM      2  C   THR D   3      17.941 -15.017  17.885  1.00 16.95 LIG 0.24  C 
ATOM      3 O    THR D   3      18.542 -15.554  16.949  1.00 16.12 LIG-0.27  OA
ATOM      4  N   LYS D   4      17.011 -15.635  18.618  1.00 18.15 LIG-0.35  N 
ATOM      5 H    LYS D   4      16.629 -15.263  19.293  1.00 18.15 LIG 0.16  HD
BRANCH 4 6
ATOM      6  CA  LYS D   4      16.534 -17.004  18.364  1.00 19.65 LIG 0.18  C 
BRANCH 6 7
ATOM      7  C   LYS D   4      17.715 -17.948  18.292  1.00 20.62 LIG 0.24  C 
ATOM      8  N   GLN D   5      18.842 -17.538  18.868  1.00 21.55 LIG-0.35  N 
ATOM      9 H    GLN D   5      18.931 -16.783  19.269  1.00 21.55 LIG 0.16  HD
ATOM     10 O    LYS D   4      17.602 -19.043  17.733  1.00 20.86 LIG-0.27  OA
BRANCH 8 11
ATOM     11  CA  GLN D   5      20.053 -18.368  18.858  1.00 22.83 LIG 0.16  C 
BRANCH 11 12
ATOM     12  C   GLN D   5      20.330 -18.971  17.481  1.00 22.91 LIG 0.22  C 
ATOM     13 O    GLN D   5      20.836 -20.088  17.365  1.00 23.29 LIG-0.29  OA
ENDBRANCH 11 12
BRANCH 11 14
ATOM     14  CB  GLN D   5      19.974 -19.471  19.917  1.00 22.86 LIG 0.04  C 
BRANCH 14 15
ATOM     15  CG  GLN D   5      21.293 -19.786  20.601  1.00 24.40 LIG 0.10  C 
BRANCH 15 16
ATOM     16  CD  GLN D   5      21.482 -19.038  21.907  1.00 24.21 LIG 0.21  C 
ATOM     17  NE2 GLN D   5      20.466 -19.090  22.771  1.00 25.13 LIG-0.37  N 
ATOM     18 22HE GLN D   5      20.525 -18.687  23.528  1.00 25.13 LIG 0.16  HD
ATOM     19 21HE GLN D   5      19.753 -19.527  22.571  1.00 25.13 LIG 0.16  HD
ATOM     20 OE1  GLN D   5      22.529 -18.425  22.144  1.00 25.71 LIG-0.27  OA
ENDBRANCH 15 16
ENDBRANCH 14 15
ENDBRANCH 11 14
ENDBRANCH 8 11
ENDBRANCH 6 7
BRANCH 6 21
ATOM     21  CB  LYS D   4      15.801 -17.090  17.022  1.00 19.73 LIG 0.04  C 
BRANCH 21 22
ATOM     22  CG  LYS D   4      14.841 -15.971  16.724  1.00 20.49 LIG 0.00  C 
BRANCH 22 23
ATOM     23  CD  LYS D   4      13.519 -16.233  17.428  1.00 20.73 LIG 0.03  C 
BRANCH 23 24
ATOM     24  CE  LYS D   4      12.693 -14.972  17.499  1.00 20.46 LIG 0.23  C 
BRANCH 24 25
ATOM     25  NZ  LYS D   4      11.250 -15.280  17.642  1.00 20.02 LIG-0.08  N 
ATOM     26 HZ3  LYS D   4      10.899 -15.443  16.841  1.00 20.02 LIG 0.27  HD
ATOM     27 HZ1  LYS D   4      11.150 -15.996  18.161  1.00 20.02 LIG 0.27  HD
ATOM     28 HZ2  LYS D   4      10.833 -14.586  18.013  1.00 20.02 LIG 0.27  HD
ENDBRANCH 24 25
ENDBRANCH 23 24
ENDBRANCH 22 23
ENDBRANCH 21 22
ENDBRANCH 6 21
ENDBRANCH 4 6
ENDBRANCH 1 2
BRANCH 1 29
ATOM     29  CB  THR D   3      17.140 -13.011  19.184  1.00 15.86 LIG 0.15  C 
ATOM     30  CG2 THR D   3      17.531 -13.173  20.650  1.00 16.15 LIG 0.04  C 
BRANCH 29 31
ATOM     31 OG1  THR D   3      16.930 -11.620  18.908  1.00 16.19 LIG-0.39  OA
ATOM     32 HG1  THR D   3      17.652 -11.273  18.657  1.00 16.19 LIG 0.21  HD
ENDBRANCH 29 31
ENDBRANCH 1 29
BRANCH 1 33
ATOM     33  N   THR D   3      18.473 -12.673  17.110  1.00 15.75 LIG-0.34  N 
ATOM     34  C   ARG D   2      17.736 -12.752  16.002  1.00 15.31 LIG 0.24  C 
ATOM     35 O    ARG D   2      16.785 -13.521  15.882  1.00 15.17 LIG-0.27  OA
ATOM     36 H    THR D   3      19.115 -12.110  17.219  1.00 15.75 LIG 0.16  HD
BRANCH 34 37
ATOM     37  CA  ARG D   2      18.138 -11.835  14.846  1.00 15.15 LIG 0.18  C 
BRANCH 37 38
ATOM     38  N   ARG D   2      18.226 -10.428  15.250  1.00 15.89 LIG-0.35  N 
ATOM     39  C   ALA D   1      17.634  -9.420  14.606  1.00 16.91 LIG 0.25  C 
ATOM     40 O    ALA D   1      17.049  -9.551  13.523  1.00 17.32 LIG-0.27  OA
ATOM     41 H    ARG D   2      18.703 -10.309  15.956  1.00 15.89 LIG 0.16  HD
BRANCH 39 42
ATOM     42  CA  ALA D   1      17.727  -8.049  15.278  1.00 17.08 LIG 0.27  C 
ATOM     43  CB  ALA D   1      18.817  -7.182  14.609  1.00 17.48 LIG 0.05  C 
BRANCH 42 44
ATOM     44  N   ALA D   1      17.998  -8.187  16.739  1.00 17.36 LIG-0.07  N 
ATOM     45 H3   ALA D   1      18.878  -8.214  16.877  1.00 17.36 LIG 0.28  HD
ATOM     46 H2   ALA D   1      17.627  -8.937  17.041  1.00 17.36 LIG 0.28  HD
ATOM     47 H1   ALA D   1      17.653  -7.490  17.173  1.00 17.36 LIG 0.28  HD
ENDBRANCH 42 44
ENDBRANCH 39 42
ENDBRANCH 37 38
BRANCH 37 48
ATOM     48  CB  ARG D   2      19.504 -12.270  14.295  1.00 15.08 LIG 0.04  C 
BRANCH 48 49
ATOM     49  CG  ARG D   2      19.792 -13.765  14.252  1.00 14.63 LIG 0.02  C 
BRANCH 49 50
ATOM     50  CD  ARG D   2      21.172 -14.067  14.851  1.00 13.91 LIG 0.14  C 
BRANCH 50 51
ATOM     51  NE  ARG D   2      21.132 -14.171  16.310  1.00 10.79 LIG-0.23  N 
ATOM     52 HE   ARG D   2      20.919 -14.931  16.653  1.00 10.79 LIG 0.18  HD
ATOM     53  CZ  ARG D   2      21.402 -13.166  17.143  1.00 10.30 LIG 0.67  C 
ATOM     54  NH2 ARG D   2      21.750 -11.969  16.671  1.00  9.50 LIG-0.23  N 
ATOM     55  NH1 ARG D   2      21.321 -13.359  18.452  1.00  9.44 LIG-0.23  N 
ATOM     56 22HH ARG D   2      21.922 -11.326  17.215  1.00  9.50 LIG 0.17  HD
ATOM     57 21HH ARG D   2      21.801 -11.840  15.822  1.00  9.50 LIG 0.17  HD
ATOM     58 11HH ARG D   2      21.096 -14.130  18.760  1.00  9.44 LIG 0.17  HD
ATOM     59 12HH ARG D   2      21.495 -12.714  18.993  1.00  9.44 LIG 0.17  HD
ENDBRANCH 50 51
ENDBRANCH 49 50
ENDBRANCH 48 49
ENDBRANCH 37 48
ENDBRANCH 34 37
ENDBRANCH 1 33
TORSDOF 24
ENDMDL
MODEL 52
USER: ADFR SOLUTION from run 98
USER: SCORE 17.817360 LL:  -3.900 LR: -15.507 RR:   0.000 FEB:  -8.348
USER: RMSD 8.004108
USER: SEED 97
USER: STATUS no improvement in best 5 clusters for 5 generations
USER: GENES 26
USER: genes 0 Translation |==|  0.43488 0.49551 0.57313
USER: genes 1 Rotation |==|  0.18638 0.45044 0.88290 0.55072
USER: genes 2 Torsion [N]-CA--C-[N] |==|  0.92798
USER: genes 3 Torsion [C]-N--CA-[C] |==|  0.22456
USER: genes 4 Torsion [N]-CA--C-[N] |==|  0.83576
USER: genes 5 Torsion [C]-N--CA-[C] |==|  0.55601
USER: genes 6 Torsion [N]-CA--C-[O] |==|  0.99003
USER: genes 7 Torsion [N]-CA--CB-[CG] |==|  0.45154
USER: genes 8 Torsion [CA]-CB--CG-[CD] |==|  0.63751
USER: genes 9 Torsion [CB]-CG--CD-[OE1] |==|  0.22800
USER: genes 10 Torsion [N]-CA--CB-[CG] |==|  0.72956
USER: genes 11 Torsion [CA]-CB--CG-[CD] |==|  0.49498
USER: genes 12 Torsion [CB]-CG--CD-[CE] |==|  0.59964
USER: genes 13 Torsion [CG]-CD--CE-[NZ] |==|  0.39146
USER: genes 14 Torsion [CD]-CE--NZ-[HZ3] |==|  0.42597
USER: genes 15 Torsion [C]-CA--CB-[CG2] |==|  0.97898
USER: genes 16 Torsion [CA]-CB--OG1-[HG1] |==|  0.57070
USER: genes 17 Torsion [C]-CA--N-[C] |==|  0.18819
USER: genes 18 Torsion [N]-C--CA-[N] |==|  0.89455
USER: genes 19 Torsion [C]-CA--N-[C] |==|  0.80779
USER: genes 20 Torsion [N]-C--CA-[N] |==|  0.72726
USER: genes 21 Torsion [C]-CA--N-[H1] |==|  0.78477
USER: genes 22 Torsion [C]-CA--CB-[CG] |==|  0.02804
USER: genes 23 Torsion [CA]-CB--CG-[CD] |==|  0.35533
USER: genes 24 Torsion [CB]-CG--CD-[NE] |==|  0.62144
USER: genes 25 Torsion [CG]-CD--NE-[HE] |==|  0.97439
ROOT
ATOM      1  CA  THR D   3      16.047 -16.975  18.704  1.00 16.13 LIG 0.20  C 
ENDROOT
BRANCH 1 2
ATOM      2  C   THR D   3      17.580 -17.030  18.626  1.00 16.95 LIG 0.24  C 
ATOM      3 O    THR D   3      18.265 -16.446  19.471  1.00 16.12 LIG-0.27  OA
ATOM      4  N   LYS D   4      18.096 -17.730  17.611  1.00 18.15 LIG-0.35  N 
ATOM      5 H    LYS D   4      17.608 -18.166  17.054  1.00 18.15 LIG 0.16  HD
BRANCH 4 6
ATOM      6  CA  LYS D   4      19.536 -17.839  17.331  1.00 19.65 LIG 0.18  C 
BRANCH 6 7
ATOM      7  C   LYS D   4      20.153 -18.883  18.238  1.00 20.62 LIG 0.24  C 
ATOM      8  N   GLN D   5      20.040 -18.677  19.547  1.00 21.55 LIG-0.35  N 
ATOM      9 H    GLN D   5      19.644 -17.998  19.895  1.00 21.55 LIG 0.16  HD
ATOM     10 O    LYS D   4      20.714 -19.872  17.755  1.00 20.86 LIG-0.27  OA
BRANCH 8 11
ATOM     11  CA  GLN D   5      20.603 -19.620  20.522  1.00 22.83 LIG 0.16  C 
BRANCH 11 12
ATOM     12  C   GLN D   5      19.962 -19.477  21.901  1.00 22.91 LIG 0.22  C 
ATOM     13 O    GLN D   5      19.125 -18.602  22.127  1.00 23.29 LIG-0.29  OA
ENDBRANCH 11 12
BRANCH 11 14
ATOM     14  CB  GLN D   5      22.123 -19.470  20.620  1.00 22.86 LIG 0.04  C 
BRANCH 14 15
ATOM     15  CG  GLN D   5      22.739 -20.084  21.865  1.00 24.40 LIG 0.10  C 
BRANCH 15 16
ATOM     16  CD  GLN D   5      23.678 -19.140  22.594  1.00 24.21 LIG 0.21  C 
ATOM     17  NE2 GLN D   5      24.980 -19.287  22.338  1.00 25.13 LIG-0.37  N 
ATOM     18 22HE GLN D   5      25.553 -18.774  22.722  1.00 25.13 LIG 0.16  HD
ATOM     19 21HE GLN D   5      25.244 -19.894  21.790  1.00 25.13 LIG 0.16  HD
ATOM     20 OE1  GLN D   5      23.243 -18.284  23.373  1.00 25.71 LIG-0.27  OA
ENDBRANCH 15 16
ENDBRANCH 14 15
ENDBRANCH 11 14
ENDBRANCH 8 11
ENDBRANCH 6 7
BRANCH 6 21
ATOM     21  CB  LYS D   4      20.252 -16.514  17.611  1.00 19.73 LIG 0.04  C 
BRANCH 21 22
ATOM     22  CG  LYS D   4      20.493 -15.632  16.416  1.00 20.49 LIG 0.00  C 
BRANCH 22 23
ATOM     23  CD  LYS D   4      21.167 -14.344  16.862  1.00 20.73 LIG 0.03  C 
BRANCH 23 24
ATOM     24  CE  LYS D   4      20.676 -13.174  16.045  1.00 20.46 LIG 0.23  C 
BRANCH 24 25
ATOM     25  NZ  LYS D   4      20.503 -11.965  16.885  1.00 20.02 LIG-0.08  N 
ATOM     26 HZ3  LYS D   4      20.597 -11.237  16.382  1.00 20.02 LIG 0.27  HD
ATOM     27 HZ1  LYS D   4      19.692 -11.971  17.250  1.00 20.02 LIG 0.27  HD
ATOM     28 HZ2  LYS D   4      21.117 -11.961  17.529  1.00 20.02 LIG 0.27  HD
ENDBRANCH 24 25
ENDBRANCH 23 24
ENDBRANCH 22 23
ENDBRANCH 21 22
ENDBRANCH 6 21
ENDBRANCH 4 6
ENDBRANCH 1 2
BRANCH 1 29
ATOM     29  CB  THR D   3      15.537 -17.985  19.750  1.00 15.86 LIG 0.15  C 
ATOM     30  CG2 THR D   3      16.680 -18.862  20.254  1.00 16.15 LIG 0.04  C 
BRANCH 29 31
ATOM     31 OG1  THR D   3      14.965 -17.282  20.859  1.00 16.19 LIG-0.39  OA
ATOM     32 HG1  THR D   3      15.008 -17.761  21.547  1.00 16.19 LIG 0.21  HD
ENDBRANCH 29 31
ENDBRANCH 1 29
BRANCH 1 33
ATOM     33  N   THR D   3      15.371 -17.155  17.410  1.00 15.75 LIG-0.34  N 
ATOM     34  C   ARG D   2      15.396 -18.315  16.753  1.00 15.31 LIG 0.24  C 
ATOM     35 O    ARG D   2      15.930 -19.328  17.202  1.00 15.17 LIG-0.27  OA
ATOM     36 H    THR D   3      14.965 -16.452  17.123  1.00 15.75 LIG 0.16  HD
BRANCH 34 37
ATOM     37  CA  ARG D   2      14.732 -18.338  15.376  1.00 15.15 LIG 0.18  C 
BRANCH 37 38
ATOM     38  N   ARG D   2      13.509 -17.530  15.330  1.00 15.89 LIG-0.35  N 
ATOM     39  C   ALA D   1      12.376 -17.840  15.963  1.00 16.91 LIG 0.25  C 
ATOM     40 O    ALA D   1      12.196 -18.911  16.557  1.00 17.32 LIG-0.27  OA
ATOM     41 H    ARG D   2      13.591 -16.822  14.848  1.00 15.89 LIG 0.16  HD
BRANCH 39 42
ATOM     42  CA  ALA D   1      11.268 -16.788  15.907  1.00 17.08 LIG 0.27  C 
ATOM     43  CB  ALA D   1      11.432 -15.883  14.665  1.00 17.48 LIG 0.05  C 
BRANCH 42 44
ATOM     44  N   ALA D   1      11.250 -15.963  17.151  1.00 17.36 LIG-0.07  N 
ATOM     45 H3   ALA D   1      10.789 -15.215  17.005  1.00 17.36 LIG 0.28  HD
ATOM     46 H2   ALA D   1      12.084 -15.757  17.383  1.00 17.36 LIG 0.28  HD
ATOM     47 H1   ALA D   1      10.866 -16.424  17.808  1.00 17.36 LIG 0.28  HD
ENDBRANCH 42 44
ENDBRANCH 39 42
ENDBRANCH 37 38
BRANCH 37 48
ATOM     48  CB  ARG D   2      15.713 -17.800  14.323  1.00 15.08 LIG 0.04  C 
BRANCH 48 49
ATOM     49  CG  ARG D   2      17.156 -17.589  14.760  1.00 14.63 LIG 0.02  C 
BRANCH 49 50
ATOM     50  CD  ARG D   2      18.121 -18.290  13.795  1.00 13.91 LIG 0.14  C 
BRANCH 50 51
ATOM     51  NE  ARG D   2      19.184 -19.007  14.499  1.00 10.79 LIG-0.23  N 
ATOM     52 HE   ARG D   2      19.259 -18.883  15.347  1.00 10.79 LIG 0.18  HD
ATOM     53  CZ  ARG D   2      20.046 -19.838  13.914  1.00 10.30 LIG 0.67  C 
ATOM     54  NH2 ARG D   2      19.972 -20.080  12.605  1.00  9.50 LIG-0.23  N 
ATOM     55  NH1 ARG D   2      20.986 -20.428  14.640  1.00  9.44 LIG-0.23  N 
ATOM     56 22HH ARG D   2      20.532 -20.617  12.235  1.00  9.50 LIG 0.17  HD
ATOM     57 21HH ARG D   2      19.365 -19.697  12.131  1.00  9.50 LIG 0.17  HD
ATOM     58 11HH ARG D   2      21.037 -20.273  15.484  1.00  9.44 LIG 0.17  HD
ATOM     59 12HH ARG D   2      21.544 -20.965  14.266  1.00  9.44 LIG 0.17  HD
ENDBRANCH 50 51
ENDBRANCH 49 50
ENDBRANCH 48 49
ENDBRANCH 37 48
ENDBRANCH 34 37
ENDBRANCH 1 33
TORSDOF 24
ENDMDL
MODEL 53
USER: ADFR SOLUTION from run 100
USER: SCORE 18.211388 LL:  -3.348 LR: -15.494 RR:   0.000 FEB:  -8.335
USER: RMSD 7.659713
USER: SEED 99
USER: STATUS no improvement in best 12 clusters for 5 generations
USER: GENES 26
USER: genes 0 Translation |==|  0.49594 0.56816 0.60298
USER: genes 1 Rotation |==|  0.28350 0.76306 0.83481 0.64774
USER: genes 2 Torsion [N]-CA--C-[N] |==|  0.40781
USER: genes 3 Torsion [C]-N--CA-[C] |==|  0.17821
USER: genes 4 Torsion [N]-CA--C-[N] |==|  0.08202
USER: genes 5 Torsion [C]-N--CA-[C] |==|  0.86903
USER: genes 6 Torsion [N]-CA--C-[O] |==|  0.87966
USER: genes 7 Torsion [N]-CA--CB-[CG] |==|  0.08794
USER: genes 8 Torsion [CA]-CB--CG-[CD] |==|  0.33723
USER: genes 9 Torsion [CB]-CG--CD-[OE1] |==|  0.31836
USER: genes 10 Torsion [N]-CA--CB-[CG] |==|  0.60553
USER: genes 11 Torsion [CA]-CB--CG-[CD] |==|  0.99779
USER: genes 12 Torsion [CB]-CG--CD-[CE] |==|  0.41976
USER: genes 13 Torsion [CG]-CD--CE-[NZ] |==|  0.77468
USER: genes 14 Torsion [CD]-CE--NZ-[HZ3] |==|  0.25887
USER: genes 15 Torsion [C]-CA--CB-[CG2] |==|  0.48416
USER: genes 16 Torsion [CA]-CB--OG1-[HG1] |==|  0.49437
USER: genes 17 Torsion [C]-CA--N-[C] |==|  0.81046
USER: genes 18 Torsion [N]-C--CA-[N] |==|  0.83881
USER: genes 19 Torsion [C]-CA--N-[C] |==|  0.64444
USER: genes 20 Torsion [N]-C--CA-[N] |==|  0.25659
USER: genes 21 Torsion [C]-CA--N-[H1] |==|  0.20627
USER: genes 22 Torsion [C]-CA--CB-[CG] |==|  0.10275
USER: genes 23 Torsion [CA]-CB--CG-[CD] |==|  0.10120
USER: genes 24 Torsion [CB]-CG--CD-[NE] |==|  0.61091
USER: genes 25 Torsion [CG]-CD--NE-[HE] |==|  0.96036
ROOT
ATOM      1  CA  THR D   3      17.878 -14.795  19.599  1.00 16.13 LIG 0.20  C 
ENDROOT
BRANCH 1 2
ATOM      2  C   THR D   3      18.370 -16.246  19.714  1.00 16.95 LIG 0.24  C 
ATOM      3 O    THR D   3      17.564 -17.180  19.664  1.00 16.12 LIG-0.27  OA
ATOM      4  N   LYS D   4      19.687 -16.414  19.867  1.00 18.15 LIG-0.35  N 
ATOM      5 H    LYS D   4      20.242 -15.758  19.859  1.00 18.15 LIG 0.16  HD
BRANCH 4 6
ATOM      6  CA  LYS D   4      20.336 -17.720  20.064  1.00 19.65 LIG 0.18  C 
BRANCH 6 7
ATOM      7  C   LYS D   4      20.137 -18.577  18.832  1.00 20.62 LIG 0.24  C 
ATOM      8  N   GLN D   5      20.023 -17.936  17.672  1.00 21.55 LIG-0.35  N 
ATOM      9 H    GLN D   5      20.057 -17.081  17.589  1.00 21.55 LIG 0.16  HD
ATOM     10 O    LYS D   4      20.101 -19.808  18.931  1.00 20.86 LIG-0.27  OA
BRANCH 8 11
ATOM     11  CA  GLN D   5      19.823 -18.664  16.412  1.00 22.83 LIG 0.16  C 
BRANCH 11 12
ATOM     12  C   GLN D   5      20.789 -19.838  16.263  1.00 22.91 LIG 0.22  C 
ATOM     13 O    GLN D   5      21.980 -19.724  16.556  1.00 23.29 LIG-0.29  OA
ENDBRANCH 11 12
BRANCH 11 14
ATOM     14  CB  GLN D   5      19.936 -17.723  15.210  1.00 22.86 LIG 0.04  C 
BRANCH 14 15
ATOM     15  CG  GLN D   5      20.899 -16.565  15.402  1.00 24.40 LIG 0.10  C 
BRANCH 15 16
ATOM     16  CD  GLN D   5      22.012 -16.536  14.371  1.00 24.21 LIG 0.21  C 
ATOM     17  NE2 GLN D   5      22.871 -17.557  14.400  1.00 25.13 LIG-0.37  N 
ATOM     18 22HE GLN D   5      23.517 -17.591  13.833  1.00 25.13 LIG 0.16  HD
ATOM     19 21HE GLN D   5      22.777 -18.182  14.983  1.00 25.13 LIG 0.16  HD
ATOM     20 OE1  GLN D   5      22.099 -15.612  13.553  1.00 25.71 LIG-0.27  OA
ENDBRANCH 15 16
ENDBRANCH 14 15
ENDBRANCH 11 14
ENDBRANCH 8 11
ENDBRANCH 6 7
BRANCH 6 21
ATOM     21  CB  LYS D   4      19.713 -18.470  21.245  1.00 19.73 LIG 0.04  C 
BRANCH 21 22
ATOM     22  CG  LYS D   4      20.668 -19.254  22.104  1.00 20.49 LIG 0.00  C 
BRANCH 22 23
ATOM     23  CD  LYS D   4      22.078 -19.118  21.553  1.00 20.73 LIG 0.03  C 
BRANCH 23 24
ATOM     24  CE  LYS D   4      23.098 -19.243  22.659  1.00 20.46 LIG 0.23  C 
BRANCH 24 25
ATOM     25  NZ  LYS D   4      23.253 -17.966  23.395  1.00 20.02 LIG-0.08  N 
ATOM     26 HZ3  LYS D   4      22.712 -17.962  24.102  1.00 20.02 LIG 0.27  HD
ATOM     27 HZ1  LYS D   4      24.096 -17.881  23.667  1.00 20.02 LIG 0.27  HD
ATOM     28 HZ2  LYS D   4      23.045 -17.286  22.859  1.00 20.02 LIG 0.27  HD
ENDBRANCH 24 25
ENDBRANCH 23 24
ENDBRANCH 22 23
ENDBRANCH 21 22
ENDBRANCH 6 21
ENDBRANCH 4 6
ENDBRANCH 1 2
BRANCH 1 29
ATOM     29  CB  THR D   3      17.618 -14.216  21.003  1.00 15.86 LIG 0.15  C 
ATOM     30  CG2 THR D   3      17.264 -12.734  20.917  1.00 16.15 LIG 0.04  C 
BRANCH 29 31
ATOM     31 OG1  THR D   3      16.532 -14.919  21.619  1.00 16.19 LIG-0.39  OA
ATOM     32 HG1  THR D   3      16.409 -14.620  22.395  1.00 16.19 LIG 0.21  HD
ENDBRANCH 29 31
ENDBRANCH 1 29
BRANCH 1 33
ATOM     33  N   THR D   3      16.709 -14.623  18.723  1.00 15.75 LIG-0.34  N 
ATOM     34  C   ARG D   2      16.782 -14.801  17.403  1.00 15.31 LIG 0.24  C 
ATOM     35 O    ARG D   2      17.804 -15.175  16.832  1.00 15.17 LIG-0.27  OA
ATOM     36 H    THR D   3      15.988 -14.401  19.136  1.00 15.75 LIG 0.16  HD
BRANCH 34 37
ATOM     37  CA  ARG D   2      15.516 -14.499  16.601  1.00 15.15 LIG 0.18  C 
BRANCH 37 38
ATOM     38  N   ARG D   2      14.369 -15.300  17.040  1.00 15.89 LIG-0.35  N 
ATOM     39  C   ALA D   1      13.605 -16.032  16.227  1.00 16.91 LIG 0.25  C 
ATOM     40 O    ALA D   1      13.706 -16.014  14.994  1.00 17.32 LIG-0.27  OA
ATOM     41 H    ARG D   2      14.231 -15.255  17.888  1.00 15.89 LIG 0.16  HD
BRANCH 39 42
ATOM     42  CA  ALA D   1      12.554 -16.911  16.907  1.00 17.08 LIG 0.27  C 
ATOM     43  CB  ALA D   1      12.373 -18.242  16.142  1.00 17.48 LIG 0.05  C 
BRANCH 42 44
ATOM     44  N   ALA D   1      11.249 -16.196  17.020  1.00 17.36 LIG-0.07  N 
ATOM     45 H3   ALA D   1      11.389 -15.368  17.316  1.00 17.36 LIG 0.28  HD
ATOM     46 H2   ALA D   1      10.721 -16.630  17.590  1.00 17.36 LIG 0.28  HD
ATOM     47 H1   ALA D   1      10.858 -16.163  16.220  1.00 17.36 LIG 0.28  HD
ENDBRANCH 42 44
ENDBRANCH 39 42
ENDBRANCH 37 38
BRANCH 37 48
ATOM     48  CB  ARG D   2      15.157 -13.013  16.746  1.00 15.08 LIG 0.04  C 
BRANCH 48 49
ATOM     49  CG  ARG D   2      16.311 -12.021  16.798  1.00 14.63 LIG 0.02  C 
BRANCH 49 50
ATOM     50  CD  ARG D   2      17.446 -12.462  15.864  1.00 13.91 LIG 0.14  C 
BRANCH 50 51
ATOM     51  NE  ARG D   2      18.766 -12.237  16.453  1.00 10.79 LIG-0.23  N 
ATOM     52 HE   ARG D   2      18.815 -11.728  17.145  1.00 10.79 LIG 0.18  HD
ATOM     53  CZ  ARG D   2      19.897 -12.767  15.989  1.00 10.30 LIG 0.67  C 
ATOM     54  NH2 ARG D   2      19.882 -13.574  14.928  1.00  9.50 LIG-0.23  N 
ATOM     55  NH1 ARG D   2      21.047 -12.488  16.586  1.00  9.44 LIG-0.23  N 
ATOM     56 22HH ARG D   2      20.615 -13.911  14.634  1.00  9.50 LIG 0.17  HD
ATOM     57 21HH ARG D   2      19.137 -13.756  14.537  1.00  9.50 LIG 0.17  HD
ATOM     58 11HH ARG D   2      21.061 -11.967  17.270  1.00  9.44 LIG 0.17  HD
ATOM     59 12HH ARG D   2      21.779 -12.828  16.290  1.00  9.44 LIG 0.17  HD
ENDBRANCH 50 51
ENDBRANCH 49 50
ENDBRANCH 48 49
ENDBRANCH 37 48
ENDBRANCH 34 37
ENDBRANCH 1 33
TORSDOF 24
ENDMDL
MODEL 54
USER: ADFR SOLUTION from run 117
USER: SCORE 17.813154 LL:  -2.939 LR: -15.440 RR:   0.000 FEB:  -8.281
USER: RMSD 7.137273
USER: SEED 116
USER: STATUS no improvement in best 9 clusters for 5 generations
USER: GENES 26
USER: genes 0 Translation |==|  0.54623 0.43898 0.59155
USER: genes 1 Rotation |==|  0.61007 0.86296 0.53351 0.82406
USER: genes 2 Torsion [N]-CA--C-[N] |==|  0.89886
USER: genes 3 Torsion [C]-N--CA-[C] |==|  0.77185
USER: genes 4 Torsion [N]-CA--C-[N] |==|  0.05769
USER: genes 5 Torsion [C]-N--CA-[C] |==|  0.18059
USER: genes 6 Torsion [N]-CA--C-[O] |==|  0.27870
USER: genes 7 Torsion [N]-CA--CB-[CG] |==|  0.45792
USER: genes 8 Torsion [CA]-CB--CG-[CD] |==|  0.33099
USER: genes 9 Torsion [CB]-CG--CD-[OE1] |==|  0.25822
USER: genes 10 Torsion [N]-CA--CB-[CG] |==|  0.98724
USER: genes 11 Torsion [CA]-CB--CG-[CD] |==|  0.29896
USER: genes 12 Torsion [CB]-CG--CD-[CE] |==|  0.46401
USER: genes 13 Torsion [CG]-CD--CE-[NZ] |==|  0.34426
USER: genes 14 Torsion [CD]-CE--NZ-[HZ3] |==|  0.87495
USER: genes 15 Torsion [C]-CA--CB-[CG2] |==|  0.05482
USER: genes 16 Torsion [CA]-CB--OG1-[HG1] |==|  0.99258
USER: genes 17 Torsion [C]-CA--N-[C] |==|  0.82790
USER: genes 18 Torsion [N]-C--CA-[N] |==|  0.34780
USER: genes 19 Torsion [C]-CA--N-[C] |==|  0.83540
USER: genes 20 Torsion [N]-C--CA-[N] |==|  0.50959
USER: genes 21 Torsion [C]-CA--N-[H1] |==|  0.80965
USER: genes 22 Torsion [C]-CA--CB-[CG] |==|  0.35364
USER: genes 23 Torsion [CA]-CB--CG-[CD] |==|  0.49790
USER: genes 24 Torsion [CB]-CG--CD-[NE] |==|  0.48841
USER: genes 25 Torsion [CG]-CD--NE-[HE] |==|  0.77122
ROOT
ATOM      1  CA  THR D   3      19.387 -18.671  19.256  1.00 16.13 LIG 0.20  C 
ENDROOT
BRANCH 1 2
ATOM      2  C   THR D   3      17.935 -18.457  19.712  1.00 16.95 LIG 0.24  C 
ATOM      3 O    THR D   3      17.224 -19.428  19.991  1.00 16.12 LIG-0.27  OA
ATOM      4  N   LYS D   4      17.516 -17.190  19.780  1.00 18.15 LIG-0.35  N 
ATOM      5 H    LYS D   4      18.034 -16.522  19.622  1.00 18.15 LIG 0.16  HD
BRANCH 4 6
ATOM      6  CA  LYS D   4      16.143 -16.791  20.126  1.00 19.65 LIG 0.18  C 
BRANCH 6 7
ATOM      7  C   LYS D   4      15.261 -16.886  18.899  1.00 20.62 LIG 0.24  C 
ATOM      8  N   GLN D   5      15.694 -17.668  17.914  1.00 21.55 LIG-0.35  N 
ATOM      9 H    GLN D   5      16.429 -18.112  17.939  1.00 21.55 LIG 0.16  HD
ATOM     10 O    LYS D   4      14.194 -16.267  18.851  1.00 20.86 LIG-0.27  OA
BRANCH 8 11
ATOM     11  CA  GLN D   5      14.924 -17.834  16.674  1.00 22.83 LIG 0.16  C 
BRANCH 11 12
ATOM     12  C   GLN D   5      14.821 -16.534  15.879  1.00 22.91 LIG 0.22  C 
ATOM     13 O    GLN D   5      15.548 -16.324  14.906  1.00 23.29 LIG-0.29  OA
ENDBRANCH 11 12
BRANCH 11 14
ATOM     14  CB  GLN D   5      13.529 -18.395  16.963  1.00 22.86 LIG 0.04  C 
BRANCH 14 15
ATOM     15  CG  GLN D   5      12.545 -18.264  15.814  1.00 24.40 LIG 0.10  C 
BRANCH 15 16
ATOM     16  CD  GLN D   5      12.029 -19.601  15.315  1.00 24.21 LIG 0.21  C 
ATOM     17  NE2 GLN D   5      12.768 -20.212  14.387  1.00 25.13 LIG-0.37  N 
ATOM     18 22HE GLN D   5      12.522 -20.974  14.075  1.00 25.13 LIG 0.16  HD
ATOM     19 21HE GLN D   5      13.492 -19.844  14.103  1.00 25.13 LIG 0.16  HD
ATOM     20 OE1  GLN D   5      10.981 -20.085  15.759  1.00 25.71 LIG-0.27  OA
ENDBRANCH 15 16
ENDBRANCH 14 15
ENDBRANCH 11 14
ENDBRANCH 8 11
ENDBRANCH 6 7
BRANCH 6 21
ATOM     21  CB  LYS D   4      16.097 -15.338  20.607  1.00 19.73 LIG 0.04  C 
BRANCH 21 22
ATOM     22  CG  LYS D   4      17.427 -14.647  20.739  1.00 20.49 LIG 0.00  C 
BRANCH 22 23
ATOM     23  CD  LYS D   4      17.583 -13.626  19.622  1.00 20.73 LIG 0.03  C 
BRANCH 23 24
ATOM     24  CE  LYS D   4      18.745 -12.704  19.901  1.00 20.46 LIG 0.23  C 
BRANCH 24 25
ATOM     25  NZ  LYS D   4      19.721 -12.715  18.785  1.00 20.02 LIG-0.08  N 
ATOM     26 HZ3  LYS D   4      19.871 -13.554  18.530  1.00 20.02 LIG 0.27  HD
ATOM     27 HZ1  LYS D   4      19.394 -12.251  18.100  1.00 20.02 LIG 0.27  HD
ATOM     28 HZ2  LYS D   4      20.485 -12.346  19.055  1.00 20.02 LIG 0.27  HD
ENDBRANCH 24 25
ENDBRANCH 23 24
ENDBRANCH 22 23
ENDBRANCH 21 22
ENDBRANCH 6 21
ENDBRANCH 4 6
ENDBRANCH 1 2
BRANCH 1 29
ATOM     29  CB  THR D   3      20.328 -18.662  20.477  1.00 15.86 LIG 0.15  C 
ATOM     30  CG2 THR D   3      19.547 -18.934  21.760  1.00 16.15 LIG 0.04  C 
BRANCH 29 31
ATOM     31 OG1  THR D   3      21.330 -19.673  20.318  1.00 16.19 LIG-0.39  OA
ATOM     32 HG1  THR D   3      21.189 -20.098  19.608  1.00 16.19 LIG 0.21  HD
ENDBRANCH 29 31
ENDBRANCH 1 29
BRANCH 1 33
ATOM     33  N   THR D   3      19.839 -17.725  18.224  1.00 15.75 LIG-0.34  N 
ATOM     34  C   ARG D   2      19.265 -17.663  17.022  1.00 15.31 LIG 0.24  C 
ATOM     35 O    ARG D   2      18.288 -18.340  16.709  1.00 15.17 LIG-0.27  OA
ATOM     36 H    THR D   3      20.497 -17.227  18.466  1.00 15.75 LIG 0.16  HD
BRANCH 34 37
ATOM     37  CA  ARG D   2      19.894 -16.701  16.012  1.00 15.15 LIG 0.18  C 
BRANCH 37 38
ATOM     38  N   ARG D   2      20.250 -17.364  14.754  1.00 15.89 LIG-0.35  N 
ATOM     39  C   ALA D   1      21.098 -18.390  14.656  1.00 16.91 LIG 0.25  C 
ATOM     40 O    ALA D   1      21.772 -18.813  15.604  1.00 17.32 LIG-0.27  OA
ATOM     41 H    ARG D   2      19.855 -17.025  14.069  1.00 15.89 LIG 0.16  HD
BRANCH 39 42
ATOM     42  CA  ALA D   1      21.216 -19.032  13.272  1.00 17.08 LIG 0.27  C 
ATOM     43  CB  ALA D   1      19.825 -19.439  12.736  1.00 17.48 LIG 0.05  C 
BRANCH 42 44
ATOM     44  N   ALA D   1      22.125 -20.215  13.306  1.00 17.36 LIG-0.07  N 
ATOM     45 H3   ALA D   1      22.083 -20.644  12.527  1.00 17.36 LIG 0.28  HD
ATOM     46 H2   ALA D   1      21.875 -20.763  13.961  1.00 17.36 LIG 0.28  HD
ATOM     47 H1   ALA D   1      22.961 -19.944  13.451  1.00 17.36 LIG 0.28  HD
ENDBRANCH 42 44
ENDBRANCH 39 42
ENDBRANCH 37 38
BRANCH 37 48
ATOM     48  CB  ARG D   2      18.910 -15.564  15.703  1.00 15.08 LIG 0.04  C 
BRANCH 48 49
ATOM     49  CG  ARG D   2      19.423 -14.139  15.855  1.00 14.63 LIG 0.02  C 
BRANCH 49 50
ATOM     50  CD  ARG D   2      18.328 -13.127  15.492  1.00 13.91 LIG 0.14  C 
BRANCH 50 51
ATOM     51  NE  ARG D   2      18.753 -11.746  15.720  1.00 10.79 LIG-0.23  N 
ATOM     52 HE   ARG D   2      18.694 -11.434  16.520  1.00 10.79 LIG 0.18  HD
ATOM     53  CZ  ARG D   2      19.225 -10.938  14.771  1.00 10.30 LIG 0.67  C 
ATOM     54  NH2 ARG D   2      19.351 -11.369  13.515  1.00  9.50 LIG-0.23  N 
ATOM     55  NH1 ARG D   2      19.569  -9.695  15.078  1.00  9.44 LIG-0.23  N 
ATOM     56 22HH ARG D   2      19.656 -10.842  12.909  1.00  9.50 LIG 0.17  HD
ATOM     57 21HH ARG D   2      19.127 -12.174  13.313  1.00  9.50 LIG 0.17  HD
ATOM     58 11HH ARG D   2      19.487  -9.414  15.886  1.00  9.44 LIG 0.17  HD
ATOM     59 12HH ARG D   2      19.874  -9.171  14.468  1.00  9.44 LIG 0.17  HD
ENDBRANCH 50 51
ENDBRANCH 49 50
ENDBRANCH 48 49
ENDBRANCH 37 48
ENDBRANCH 34 37
ENDBRANCH 1 33
TORSDOF 24
ENDMDL
MODEL 55
USER: ADFR SOLUTION from run 1
USER: SCORE 17.016681 LL:  -2.161 LR: -15.425 RR:   0.000 FEB:  -8.265
USER: RMSD 6.697113
USER: SEED 244723
USER: STATUS no improvement in best 5 clusters for 5 generations
USER: GENES 26
USER: genes 0 Translation |==|  0.55605 0.43827 0.56561
USER: genes 1 Rotation |==|  0.61350 0.85980 0.54074 0.82558
USER: genes 2 Torsion [N]-CA--C-[N] |==|  0.92622
USER: genes 3 Torsion [C]-N--CA-[C] |==|  0.74592
USER: genes 4 Torsion [N]-CA--C-[N] |==|  0.47395
USER: genes 5 Torsion [C]-N--CA-[C] |==|  0.62213
USER: genes 6 Torsion [N]-CA--C-[O] |==|  0.00383
USER: genes 7 Torsion [N]-CA--CB-[CG] |==|  0.55229
USER: genes 8 Torsion [CA]-CB--CG-[CD] |==|  0.48178
USER: genes 9 Torsion [CB]-CG--CD-[OE1] |==|  0.21268
USER: genes 10 Torsion [N]-CA--CB-[CG] |==|  0.88858
USER: genes 11 Torsion [CA]-CB--CG-[CD] |==|  0.49729
USER: genes 12 Torsion [CB]-CG--CD-[CE] |==|  0.76777
USER: genes 13 Torsion [CG]-CD--CE-[NZ] |==|  0.73755
USER: genes 14 Torsion [CD]-CE--NZ-[HZ3] |==|  0.10321
USER: genes 15 Torsion [C]-CA--CB-[CG2] |==|  0.88622
USER: genes 16 Torsion [CA]-CB--OG1-[HG1] |==|  0.34270
USER: genes 17 Torsion [C]-CA--N-[C] |==|  0.80230
USER: genes 18 Torsion [N]-C--CA-[N] |==|  0.92480
USER: genes 19 Torsion [C]-CA--N-[C] |==|  0.65556
USER: genes 20 Torsion [N]-C--CA-[N] |==|  0.56130
USER: genes 21 Torsion [C]-CA--N-[H1] |==|  0.95584
USER: genes 22 Torsion [C]-CA--CB-[CG] |==|  0.48902
USER: genes 23 Torsion [CA]-CB--CG-[CD] |==|  0.57265
USER: genes 24 Torsion [CB]-CG--CD-[NE] |==|  0.17269
USER: genes 25 Torsion [CG]-CD--NE-[HE] |==|  0.21019
ROOT
ATOM      1  CA  THR D   3      19.681 -18.692  18.478  1.00 16.13 LIG 0.20  C 
ENDROOT
BRANCH 1 2
ATOM      2  C   THR D   3      18.220 -18.500  18.913  1.00 16.95 LIG 0.24  C 
ATOM      3 O    THR D   3      17.565 -19.462  19.325  1.00 16.12 LIG-0.27  OA
ATOM      4  N   LYS D   4      17.732 -17.260  18.816  1.00 18.15 LIG-0.35  N 
ATOM      5 H    LYS D   4      18.211 -16.591  18.566  1.00 18.15 LIG 0.16  HD
BRANCH 4 6
ATOM      6  CA  LYS D   4      16.339 -16.895  19.117  1.00 19.65 LIG 0.18  C 
BRANCH 6 7
ATOM      7  C   LYS D   4      15.506 -16.982  17.856  1.00 20.62 LIG 0.24  C 
ATOM      8  N   GLN D   5      14.189 -16.869  18.003  1.00 21.55 LIG-0.35  N 
ATOM      9 H    GLN D   5      13.797 -16.750  18.758  1.00 21.55 LIG 0.16  HD
ATOM     10 O    LYS D   4      16.053 -17.137  16.760  1.00 20.86 LIG-0.27  OA
BRANCH 8 11
ATOM     11  CA  GLN D   5      13.282 -16.941  16.850  1.00 22.83 LIG 0.16  C 
BRANCH 11 12
ATOM     12  C   GLN D   5      12.198 -15.865  16.899  1.00 22.91 LIG 0.22  C 
ATOM     13 O    GLN D   5      12.160 -15.041  17.814  1.00 23.29 LIG-0.29  OA
ENDBRANCH 11 12
BRANCH 11 14
ATOM     14  CB  GLN D   5      12.650 -18.330  16.733  1.00 22.86 LIG 0.04  C 
BRANCH 14 15
ATOM     15  CG  GLN D   5      12.070 -18.647  15.366  1.00 24.40 LIG 0.10  C 
BRANCH 15 16
ATOM     16  CD  GLN D   5      11.596 -20.083  15.236  1.00 24.21 LIG 0.21  C 
ATOM     17  NE2 GLN D   5      12.391 -20.909  14.555  1.00 25.13 LIG-0.37  N 
ATOM     18 22HE GLN D   5      12.170 -21.734  14.457  1.00 25.13 LIG 0.16  HD
ATOM     19 21HE GLN D   5      13.125 -20.617  14.215  1.00 25.13 LIG 0.16  HD
ATOM     20 OE1  GLN D   5      10.530 -20.450  15.746  1.00 25.71 LIG-0.27  OA
ENDBRANCH 15 16
ENDBRANCH 14 15
ENDBRANCH 11 14
ENDBRANCH 8 11
ENDBRANCH 6 7
BRANCH 6 21
ATOM     21  CB  LYS D   4      16.246 -15.452  19.624  1.00 19.73 LIG 0.04  C 
BRANCH 21 22
ATOM     22  CG  LYS D   4      17.336 -15.015  20.565  1.00 20.49 LIG 0.00  C 
BRANCH 22 23
ATOM     23  CD  LYS D   4      17.117 -13.562  20.956  1.00 20.73 LIG 0.03  C 
BRANCH 23 24
ATOM     24  CE  LYS D   4      17.690 -12.635  19.911  1.00 20.46 LIG 0.23  C 
BRANCH 24 25
ATOM     25  NZ  LYS D   4      19.068 -12.217  20.259  1.00 20.02 LIG-0.08  N 
ATOM     26 HZ3  LYS D   4      19.500 -12.898  20.635  1.00 20.02 LIG 0.27  HD
ATOM     27 HZ1  LYS D   4      19.497 -11.965  19.522  1.00 20.02 LIG 0.27  HD
ATOM     28 HZ2  LYS D   4      19.036 -11.535  20.831  1.00 20.02 LIG 0.27  HD
ENDBRANCH 24 25
ENDBRANCH 23 24
ENDBRANCH 22 23
ENDBRANCH 21 22
ENDBRANCH 6 21
ENDBRANCH 4 6
ENDBRANCH 1 2
BRANCH 1 29
ATOM     29  CB  THR D   3      20.600 -18.714  19.715  1.00 15.86 LIG 0.15  C 
ATOM     30  CG2 THR D   3      20.167 -17.655  20.726  1.00 16.15 LIG 0.04  C 
BRANCH 29 31
ATOM     31 OG1  THR D   3      20.538 -20.004  20.337  1.00 16.19 LIG-0.39  OA
ATOM     32 HG1  THR D   3      21.311 -20.329  20.385  1.00 16.19 LIG 0.21  HD
ENDBRANCH 29 31
ENDBRANCH 1 29
BRANCH 1 33
ATOM     33  N   THR D   3      20.147 -17.714  17.482  1.00 15.75 LIG-0.34  N 
ATOM     34  C   ARG D   2      19.722 -17.736  16.218  1.00 15.31 LIG 0.24  C 
ATOM     35 O    ARG D   2      18.875 -18.527  15.808  1.00 15.17 LIG-0.27  OA
ATOM     36 H    THR D   3      20.708 -17.139  17.788  1.00 15.75 LIG 0.16  HD
BRANCH 34 37
ATOM     37  CA  ARG D   2      20.357 -16.721  15.266  1.00 15.15 LIG 0.18  C 
BRANCH 37 38
ATOM     38  N   ARG D   2      20.829 -15.519  15.961  1.00 15.89 LIG-0.35  N 
ATOM     39  C   ALA D   1      20.451 -14.276  15.657  1.00 16.91 LIG 0.25  C 
ATOM     40 O    ALA D   1      19.756 -13.993  14.673  1.00 17.32 LIG-0.27  OA
ATOM     41 H    ARG D   2      21.383 -15.692  16.596  1.00 15.89 LIG 0.16  HD
BRANCH 39 42
ATOM     42  CA  ALA D   1      20.943 -13.177  16.601  1.00 17.08 LIG 0.27  C 
ATOM     43  CB  ALA D   1      20.999 -13.689  18.058  1.00 17.48 LIG 0.05  C 
BRANCH 42 44
ATOM     44  N   ALA D   1      20.077 -11.965  16.510  1.00 17.36 LIG-0.07  N 
ATOM     45 H3   ALA D   1      20.588 -11.236  16.480  1.00 17.36 LIG 0.28  HD
ATOM     46 H2   ALA D   1      19.546 -11.926  17.223  1.00 17.36 LIG 0.28  HD
ATOM     47 H1   ALA D   1      19.581 -12.009  15.772  1.00 17.36 LIG 0.28  HD
ENDBRANCH 42 44
ENDBRANCH 39 42
ENDBRANCH 37 38
BRANCH 37 48
ATOM     48  CB  ARG D   2      21.548 -17.368  14.545  1.00 15.08 LIG 0.04  C 
BRANCH 48 49
ATOM     49  CG  ARG D   2      22.253 -16.535  13.483  1.00 14.63 LIG 0.02  C 
BRANCH 49 50
ATOM     50  CD  ARG D   2      22.930 -17.442  12.446  1.00 13.91 LIG 0.14  C 
BRANCH 50 51
ATOM     51  NE  ARG D   2      21.966 -18.273  11.724  1.00 10.79 LIG-0.23  N 
ATOM     52 HE   ARG D   2      21.488 -17.897  11.116  1.00 10.79 LIG 0.18  HD
ATOM     53  CZ  ARG D   2      21.779 -19.574  11.946  1.00 10.30 LIG 0.67  C 
ATOM     54  NH2 ARG D   2      22.500 -20.214  12.867  1.00  9.50 LIG-0.23  N 
ATOM     55  NH1 ARG D   2      20.867 -20.235  11.247  1.00  9.44 LIG-0.23  N 
ATOM     56 22HH ARG D   2      22.373 -21.053  13.004  1.00  9.50 LIG 0.17  HD
ATOM     57 21HH ARG D   2      23.091 -19.788  13.323  1.00  9.50 LIG 0.17  HD
ATOM     58 11HH ARG D   2      20.400 -19.824  10.654  1.00  9.44 LIG 0.17  HD
ATOM     59 12HH ARG D   2      20.744 -21.074  11.387  1.00  9.44 LIG 0.17  HD
ENDBRANCH 50 51
ENDBRANCH 49 50
ENDBRANCH 48 49
ENDBRANCH 37 48
ENDBRANCH 34 37
ENDBRANCH 1 33
TORSDOF 24
ENDMDL
MODEL 56
USER: ADFR SOLUTION from run 51
USER: SCORE 17.127555 LL:  -2.553 LR: -15.407 RR:   0.000 FEB:  -8.248
USER: RMSD 7.980232
USER: SEED 50
USER: STATUS no improvement in best 13 clusters for 5 generations
USER: GENES 26
USER: genes 0 Translation |==|  0.42816 0.47422 0.57871
USER: genes 1 Rotation |==|  0.58019 0.62474 0.38524 0.96351
USER: genes 2 Torsion [N]-CA--C-[N] |==|  0.40384
USER: genes 3 Torsion [C]-N--CA-[C] |==|  0.77816
USER: genes 4 Torsion [N]-CA--C-[N] |==|  0.41789
USER: genes 5 Torsion [C]-N--CA-[C] |==|  0.52247
USER: genes 6 Torsion [N]-CA--C-[O] |==|  0.51282
USER: genes 7 Torsion [N]-CA--CB-[CG] |==|  0.24747
USER: genes 8 Torsion [CA]-CB--CG-[CD] |==|  0.36791
USER: genes 9 Torsion [CB]-CG--CD-[OE1] |==|  0.00541
USER: genes 10 Torsion [N]-CA--CB-[CG] |==|  0.76913
USER: genes 11 Torsion [CA]-CB--CG-[CD] |==|  0.38457
USER: genes 12 Torsion [CB]-CG--CD-[CE] |==|  0.50086
USER: genes 13 Torsion [CG]-CD--CE-[NZ] |==|  0.55104
USER: genes 14 Torsion [CD]-CE--NZ-[HZ3] |==|  0.04325
USER: genes 15 Torsion [C]-CA--CB-[CG2] |==|  0.87110
USER: genes 16 Torsion [CA]-CB--OG1-[HG1] |==|  0.46992
USER: genes 17 Torsion [C]-CA--N-[C] |==|  0.82932
USER: genes 18 Torsion [N]-C--CA-[N] |==|  0.59422
USER: genes 19 Torsion [C]-CA--N-[C] |==|  0.61694
USER: genes 20 Torsion [N]-C--CA-[N] |==|  0.47962
USER: genes 21 Torsion [C]-CA--N-[H1] |==|  0.29209
USER: genes 22 Torsion [C]-CA--CB-[CG] |==|  0.83371
USER: genes 23 Torsion [CA]-CB--CG-[CD] |==|  0.74543
USER: genes 24 Torsion [CB]-CG--CD-[NE] |==|  0.49832
USER: genes 25 Torsion [CG]-CD--NE-[HE] |==|  0.67998
ROOT
ATOM      1  CA  THR D   3      15.845 -17.613  18.871  1.00 16.13 LIG 0.20  C 
ENDROOT
BRANCH 1 2
ATOM      2  C   THR D   3      15.086 -16.883  17.752  1.00 16.95 LIG 0.24  C 
ATOM      3 O    THR D   3      15.632 -15.970  17.126  1.00 16.12 LIG-0.27  OA
ATOM      4  N   LYS D   4      13.836 -17.296  17.518  1.00 18.15 LIG-0.35  N 
ATOM      5 H    LYS D   4      13.482 -17.960  17.934  1.00 18.15 LIG 0.16  HD
BRANCH 4 6
ATOM      6  CA  LYS D   4      12.931 -16.675  16.538  1.00 19.65 LIG 0.18  C 
BRANCH 6 7
ATOM      7  C   LYS D   4      12.323 -15.422  17.131  1.00 20.62 LIG 0.24  C 
ATOM      8  N   GLN D   5      12.003 -14.454  16.277  1.00 21.55 LIG-0.35  N 
ATOM      9 H    GLN D   5      12.119 -14.503  15.427  1.00 21.55 LIG 0.16  HD
ATOM     10 O    LYS D   4      12.135 -15.338  18.349  1.00 20.86 LIG-0.27  OA
BRANCH 8 11
ATOM     11  CA  GLN D   5      11.410 -13.192  16.738  1.00 22.83 LIG 0.16  C 
BRANCH 11 12
ATOM     12  C   GLN D   5      10.945 -12.313  15.578  1.00 22.91 LIG 0.22  C 
ATOM     13 O    GLN D   5      10.500 -11.182  15.775  1.00 23.29 LIG-0.29  OA
ENDBRANCH 11 12
BRANCH 11 14
ATOM     14  CB  GLN D   5      12.383 -12.421  17.635  1.00 22.86 LIG 0.04  C 
BRANCH 14 15
ATOM     15  CG  GLN D   5      13.310 -11.474  16.894  1.00 24.40 LIG 0.10  C 
BRANCH 15 16
ATOM     16  CD  GLN D   5      13.378 -10.093  17.520  1.00 24.21 LIG 0.21  C 
ATOM     17  NE2 GLN D   5      14.139  -9.196  16.891  1.00 25.13 LIG-0.37  N 
ATOM     18 22HE GLN D   5      14.207  -8.397  17.203  1.00 25.13 LIG 0.16  HD
ATOM     19 21HE GLN D   5      14.560  -9.416  16.174  1.00 25.13 LIG 0.16  HD
ATOM     20 OE1  GLN D   5      12.750  -9.831  18.553  1.00 25.71 LIG-0.27  OA
ENDBRANCH 15 16
ENDBRANCH 14 15
ENDBRANCH 11 14
ENDBRANCH 8 11
ENDBRANCH 6 7
BRANCH 6 21
ATOM     21  CB  LYS D   4      11.777 -17.616  16.183  1.00 19.73 LIG 0.04  C 
BRANCH 21 22
ATOM     22  CG  LYS D   4      12.070 -18.650  15.130  1.00 20.49 LIG 0.00  C 
BRANCH 22 23
ATOM     23  CD  LYS D   4      11.455 -19.980  15.536  1.00 20.73 LIG 0.03  C 
BRANCH 23 24
ATOM     24  CE  LYS D   4      11.741 -21.039  14.500  1.00 20.46 LIG 0.23  C 
BRANCH 24 25
ATOM     25  NZ  LYS D   4      10.816 -22.189  14.635  1.00 20.02 LIG-0.08  N 
ATOM     26 HZ3  LYS D   4      10.125 -21.956  15.145  1.00 20.02 LIG 0.27  HD
ATOM     27 HZ1  LYS D   4      10.522 -22.430  13.831  1.00 20.02 LIG 0.27  HD
ATOM     28 HZ2  LYS D   4      11.245 -22.873  15.011  1.00 20.02 LIG 0.27  HD
ENDBRANCH 24 25
ENDBRANCH 23 24
ENDBRANCH 22 23
ENDBRANCH 21 22
ENDBRANCH 6 21
ENDBRANCH 4 6
ENDBRANCH 1 2
BRANCH 1 29
ATOM     29  CB  THR D   3      15.579 -16.924  20.224  1.00 15.86 LIG 0.15  C 
ATOM     30  CG2 THR D   3      15.724 -15.410  20.094  1.00 16.15 LIG 0.04  C 
BRANCH 29 31
ATOM     31 OG1  THR D   3      14.250 -17.229  20.665  1.00 16.19 LIG-0.39  OA
ATOM     32 HG1  THR D   3      14.156 -16.980  21.462  1.00 16.19 LIG 0.21  HD
ENDBRANCH 29 31
ENDBRANCH 1 29
BRANCH 1 33
ATOM     33  N   THR D   3      17.287 -17.765  18.621  1.00 15.75 LIG-0.34  N 
ATOM     34  C   ARG D   2      17.755 -18.450  17.577  1.00 15.31 LIG 0.24  C 
ATOM     35 O    ARG D   2      17.028 -18.951  16.722  1.00 15.17 LIG-0.27  OA
ATOM     36 H    THR D   3      17.788 -17.377  19.202  1.00 15.75 LIG 0.16  HD
BRANCH 34 37
ATOM     37  CA  ARG D   2      19.274 -18.608  17.488  1.00 15.15 LIG 0.18  C 
BRANCH 37 38
ATOM     38  N   ARG D   2      19.757 -18.614  16.104  1.00 15.89 LIG-0.35  N 
ATOM     39  C   ALA D   1      20.694 -19.440  15.636  1.00 16.91 LIG 0.25  C 
ATOM     40 O    ALA D   1      21.347 -20.209  16.352  1.00 17.32 LIG-0.27  OA
ATOM     41 H    ARG D   2      19.373 -18.023  15.610  1.00 15.89 LIG 0.16  HD
BRANCH 39 42
ATOM     42  CA  ALA D   1      20.945 -19.383  14.128  1.00 17.08 LIG 0.27  C 
ATOM     43  CB  ALA D   1      19.693 -19.840  13.345  1.00 17.48 LIG 0.05  C 
BRANCH 42 44
ATOM     44  N   ALA D   1      22.125 -20.215  13.749  1.00 17.36 LIG-0.07  N 
ATOM     45 H3   ALA D   1      22.593 -20.417  14.479  1.00 17.36 LIG 0.28  HD
ATOM     46 H2   ALA D   1      22.640 -19.760  13.183  1.00 17.36 LIG 0.28  HD
ATOM     47 H1   ALA D   1      21.847 -20.965  13.359  1.00 17.36 LIG 0.28  HD
ENDBRANCH 42 44
ENDBRANCH 39 42
ENDBRANCH 37 38
BRANCH 37 48
ATOM     48  CB  ARG D   2      19.956 -17.455  18.238  1.00 15.08 LIG 0.04  C 
BRANCH 48 49
ATOM     49  CG  ARG D   2      19.664 -16.041  17.754  1.00 14.63 LIG 0.02  C 
BRANCH 49 50
ATOM     50  CD  ARG D   2      20.702 -15.601  16.714  1.00 13.91 LIG 0.14  C 
BRANCH 50 51
ATOM     51  NE  ARG D   2      20.446 -14.250  16.214  1.00 10.79 LIG-0.23  N 
ATOM     52 HE   ARG D   2      20.243 -14.161  15.382  1.00 10.79 LIG 0.18  HD
ATOM     53  CZ  ARG D   2      20.506 -13.147  16.960  1.00 10.30 LIG 0.67  C 
ATOM     54  NH2 ARG D   2      20.803 -13.223  18.258  1.00  9.50 LIG-0.23  N 
ATOM     55  NH1 ARG D   2      20.272 -11.966  16.407  1.00  9.44 LIG-0.23  N 
ATOM     56 22HH ARG D   2      20.840 -12.507  18.732  1.00  9.50 LIG 0.17  HD
ATOM     57 21HH ARG D   2      20.957 -13.988  18.619  1.00  9.50 LIG 0.17  HD
ATOM     58 11HH ARG D   2      20.082 -11.913  15.570  1.00  9.44 LIG 0.17  HD
ATOM     59 12HH ARG D   2      20.309 -11.252  16.885  1.00  9.44 LIG 0.17  HD
ENDBRANCH 50 51
ENDBRANCH 49 50
ENDBRANCH 48 49
ENDBRANCH 37 48
ENDBRANCH 34 37
ENDBRANCH 1 33
TORSDOF 24
ENDMDL
