MODEL 1
USER: ADFR SOLUTION from run 63
USER: SCORE 17.665543 LL:  -3.523 LR: -16.538 RR:   0.000 FEB: -10.870
USER: RMSD 4.171234
USER: SEED 62
USER: STATUS no improvement in best 3 clusters for 5 generations
USER: GENES 21
USER: genes 0 Translation |==|  0.46102 0.51566 0.42928
USER: genes 1 Rotation |==|  0.32790 0.65846 0.62709 0.92323
USER: genes 2 Torsion [CB]-CA--N-[C] |==|  0.77747
USER: genes 3 Torsion [N]-C--CA-[N] |==|  0.46086
USER: genes 4 Torsion [C]-CA--CB-[CG] |==|  0.35868
USER: genes 5 Torsion [CA]-CB--CG-[OD1] |==|  0.68060
USER: genes 6 Torsion [C]-CA--N-[C] |==|  0.64262
USER: genes 7 Torsion [N]-C--CA-[N] |==|  0.44988
USER: genes 8 Torsion [C]-CA--CB-[CG] |==|  0.76841
USER: genes 9 Torsion [CA]-CB--CG-[OD1] |==|  0.92180
USER: genes 10 Torsion [C]-CA--N-[H3] |==|  0.75360
USER: genes 11 Torsion [N]-CA--C-[N] |==|  0.71472
USER: genes 12 Torsion [C]-N--CA-[CB] |==|  0.42057
USER: genes 13 Torsion [N]-CA--CB-[CG] |==|  0.77955
USER: genes 14 Torsion [CA]-CB--CG-[CD2] |==|  0.32082
USER: genes 15 Torsion [CE1]-CZ--OH-[HH] |==|  0.85004
USER: genes 16 Torsion [N]-CA--C-[N] |==|  0.89459
USER: genes 17 Torsion [C]-N--CA-[C] |==|  0.83873
USER: genes 18 Torsion [N]-CA--C-[OXT] |==|  0.50909
USER: genes 19 Torsion [N]-CA--CB-[CG] |==|  0.58535
USER: genes 20 Torsion [CA]-CB--CG-[CD1] |==|  0.17625
ROOT
ATOM      1  CA  LEU B 804      48.771  52.740  19.728  1.00 31.72 LIG 0.18  C 
ENDROOT
BRANCH 1 2
ATOM      2  N   LEU B 804      50.146  53.245  19.635  1.00 32.47 LIG-0.35  N 
ATOM      3 H    LEU B 804      50.440  53.295  18.829  1.00 32.47 LIG 0.16  HD
ATOM      4  C   ASP B 803      50.874  53.596  20.693  1.00 36.20 LIG 0.24  C 
ATOM      5 O    ASP B 803      50.505  53.470  21.875  1.00 34.88 LIG-0.27  OA
BRANCH 4 6
ATOM      6  CA  ASP B 803      52.247  54.196  20.352  1.00 38.58 LIG 0.19  C 
BRANCH 6 7
ATOM      7  CB  ASP B 803      53.155  53.145  19.731  1.00 39.00 LIG 0.15  C 
BRANCH 7 8
ATOM      8  CG  ASP B 803      53.779  53.640  18.422  1.00 41.67 LIG 0.17  C 
ATOM      9 OD1  ASP B 803      53.460  53.045  17.350  1.00 44.54 LIG-0.65  OA
ATOM     10 OD2  ASP B 803      54.611  54.583  18.475  1.00 44.60 LIG-0.65  OA
ENDBRANCH 7 8
ENDBRANCH 6 7
BRANCH 6 11
ATOM     11  N   ASP B 803      52.825  54.846  21.518  1.00 40.89 LIG-0.34  N 
ATOM     12 H    ASP B 803      52.849  54.371  22.235  1.00 40.89 LIG 0.16  HD
ATOM     13  C   ASP B 802      53.269  56.099  21.410  1.00 43.36 LIG 0.25  C 
ATOM     14 O    ASP B 802      53.191  56.739  20.350  1.00 44.71 LIG-0.27  OA
BRANCH 13 15
ATOM     15  CA  ASP B 802      53.921  56.730  22.643  1.00 44.06 LIG 0.28  C 
BRANCH 15 16
ATOM     16  CB  ASP B 802      52.858  57.161  23.659  1.00 45.52 LIG 0.15  C 
BRANCH 16 17
ATOM     17  CG  ASP B 802      52.261  58.530  23.346  1.00 48.04 LIG 0.17  C 
ATOM     18 OD1  ASP B 802      52.940  59.395  22.728  1.00 55.65 LIG-0.65  OA
ATOM     19 OD2  ASP B 802      51.089  58.736  23.725  1.00 54.24 LIG-0.65  OA
ENDBRANCH 16 17
ENDBRANCH 15 16
BRANCH 15 20
ATOM     20  N   ASP B 802      54.721  57.909  22.229  1.00 45.51 LIG-0.07  N 
ATOM     21 H3   ASP B 802      55.547  57.650  22.025  1.00 45.51 LIG 0.28  HD
ATOM     22 H1   ASP B 802      54.345  58.288  21.517  1.00 45.51 LIG 0.28  HD
ATOM     23 H2   ASP B 802      54.751  58.496  22.897  1.00 45.51 LIG 0.28  HD
ENDBRANCH 15 20
ENDBRANCH 13 15
ENDBRANCH 6 11
ENDBRANCH 4 6
ENDBRANCH 1 2
BRANCH 1 24
ATOM     24  C   LEU B 804      47.890  53.488  20.740  1.00 30.12 LIG 0.24  C 
ATOM     25  N   TYR B 805      47.665  52.898  21.911  1.00 29.37 LIG-0.35  N 
ATOM     26 H    TYR B 805      48.107  52.219  22.196  1.00 29.37 LIG 0.16  HD
ATOM     27 O    LEU B 804      47.450  54.584  20.467  1.00 28.94 LIG-0.27  OA
BRANCH 25 28
ATOM     28  CA  TYR B 805      46.622  53.368  22.828  1.00 29.00 LIG 0.18  C 
BRANCH 28 29
ATOM     29  CB  TYR B 805      46.109  52.188  23.672  1.00 27.91 LIG 0.07  C 
BRANCH 29 30
ATOM     30  CG  TYR B 805      45.138  51.393  22.828  1.00 26.10 LIG-0.06  A 
ATOM     31  CD1 TYR B 805      43.888  51.895  22.510  1.00 25.09 LIG 0.01  A 
ATOM     32  CE1 TYR B 805      42.962  51.147  21.808  1.00 24.79 LIG 0.04  A 
ATOM     33  CZ  TYR B 805      43.255  49.858  21.473  1.00 22.85 LIG 0.07  A 
ATOM     34  CE2 TYR B 805      44.499  49.326  21.776  1.00 24.72 LIG 0.04  A 
ATOM     35  CD2 TYR B 805      45.425  50.095  22.469  1.00 24.65 LIG 0.01  A 
BRANCH 33 36
ATOM     36 OH   TYR B 805      42.362  49.124  20.727  1.00 25.16 LIG-0.36  OA
ATOM     37 HH   TYR B 805      41.609  49.135  21.100  1.00 25.16 LIG 0.22  HD
ENDBRANCH 33 36
ENDBRANCH 29 30
ENDBRANCH 28 29
BRANCH 28 38
ATOM     38  C   TYR B 805      47.032  54.541  23.720  1.00 29.85 LIG 0.24  C 
ATOM     39 O    TYR B 805      46.211  55.463  23.988  1.00 30.08 LIG-0.27  OA
ATOM     40  N   GLY B 806      48.278  54.498  24.162  1.00 28.51 LIG-0.35  N 
ATOM     41 H    GLY B 806      48.874  53.955  23.862  1.00 28.51 LIG 0.16  HD
BRANCH 40 42
ATOM     42  CA  GLY B 806      48.746  55.378  25.204  1.00 29.14 LIG 0.23  C 
BRANCH 42 43
ATOM     43  C   GLY B 806      48.582  56.824  24.850  1.00 28.84 LIG 0.19  C 
ATOM     44 OXT  GLY B 806      49.009  57.638  25.653  1.00 29.15 LIG-0.65  OA
ATOM     45 O    GLY B 806      48.065  57.195  23.785  1.00 28.96 LIG-0.65  OA
ENDBRANCH 42 43
ENDBRANCH 40 42
ENDBRANCH 28 38
ENDBRANCH 25 28
ENDBRANCH 1 24
BRANCH 1 46
ATOM     46  CB  LEU B 804      48.816  51.254  20.108  1.00 30.53 LIG 0.04  C 
BRANCH 46 47
ATOM     47  CG  LEU B 804      47.653  50.411  19.556  1.00 30.66 LIG-0.02  C 
ATOM     48  CD1 LEU B 804      47.692  50.395  18.036  1.00 31.81 LIG 0.01  C 
ATOM     49  CD2 LEU B 804      47.690  49.002  20.108  1.00 30.59 LIG 0.01  C 
ENDBRANCH 46 47
ENDBRANCH 1 46
TORSDOF 19
ENDMDL
MODEL 2
USER: ADFR SOLUTION from run 64
USER: SCORE 17.863525 LL:  -3.814 LR: -15.056 RR:   0.000 FEB:  -9.388
USER: RMSD 8.114254
USER: SEED 63
USER: STATUS 1 or 2 clusters left
USER: GENES 21
USER: genes 0 Translation |==|  0.38806 0.51099 0.52010
USER: genes 1 Rotation |==|  0.18406 0.36853 0.16920 0.65320
USER: genes 2 Torsion [CB]-CA--N-[C] |==|  0.81667
USER: genes 3 Torsion [N]-C--CA-[N] |==|  0.89221
USER: genes 4 Torsion [C]-CA--CB-[CG] |==|  0.35424
USER: genes 5 Torsion [CA]-CB--CG-[OD1] |==|  0.69821
USER: genes 6 Torsion [C]-CA--N-[C] |==|  0.78773
USER: genes 7 Torsion [N]-C--CA-[N] |==|  0.69209
USER: genes 8 Torsion [C]-CA--CB-[CG] |==|  0.68299
USER: genes 9 Torsion [CA]-CB--CG-[OD1] |==|  0.18998
USER: genes 10 Torsion [C]-CA--N-[H3] |==|  0.08373
USER: genes 11 Torsion [N]-CA--C-[N] |==|  0.31197
USER: genes 12 Torsion [C]-N--CA-[CB] |==|  0.83229
USER: genes 13 Torsion [N]-CA--CB-[CG] |==|  0.72093
USER: genes 14 Torsion [CA]-CB--CG-[CD2] |==|  0.30249
USER: genes 15 Torsion [CE1]-CZ--OH-[HH] |==|  0.37937
USER: genes 16 Torsion [N]-CA--C-[N] |==|  0.49585
USER: genes 17 Torsion [C]-N--CA-[C] |==|  0.64274
USER: genes 18 Torsion [N]-CA--C-[OXT] |==|  0.27680
USER: genes 19 Torsion [N]-CA--CB-[CG] |==|  0.77516
USER: genes 20 Torsion [CA]-CB--CG-[CD1] |==|  0.65031
ROOT
ATOM      1  CA  LEU B 804      46.582  52.600  22.453  1.00 31.72 LIG 0.18  C 
ENDROOT
BRANCH 1 2
ATOM      2  N   LEU B 804      46.729  53.482  23.618  1.00 32.47 LIG-0.35  N 
ATOM      3 H    LEU B 804      46.834  53.058  24.358  1.00 32.47 LIG 0.16  HD
ATOM      4  C   ASP B 803      46.702  54.811  23.542  1.00 36.20 LIG 0.24  C 
ATOM      5 O    ASP B 803      46.480  55.452  22.499  1.00 34.88 LIG-0.27  OA
BRANCH 4 6
ATOM      6  CA  ASP B 803      46.979  55.531  24.870  1.00 38.58 LIG 0.19  C 
BRANCH 6 7
ATOM      7  CB  ASP B 803      48.473  55.750  25.064  1.00 39.00 LIG 0.15  C 
BRANCH 7 8
ATOM      8  CG  ASP B 803      48.794  57.216  25.372  1.00 41.67 LIG 0.17  C 
ATOM      9 OD1  ASP B 803      49.373  57.898  24.475  1.00 44.54 LIG-0.65  OA
ATOM     10 OD2  ASP B 803      48.511  57.663  26.514  1.00 44.60 LIG-0.65  OA
ENDBRANCH 7 8
ENDBRANCH 6 7
BRANCH 6 11
ATOM     11  N   ASP B 803      46.348  54.827  25.976  1.00 40.89 LIG-0.34  N 
ATOM     12 H    ASP B 803      46.876  54.359  26.468  1.00 40.89 LIG 0.16  HD
ATOM     13  C   ASP B 802      45.032  54.946  26.155  1.00 43.36 LIG 0.25  C 
ATOM     14 O    ASP B 802      44.320  55.625  25.399  1.00 44.71 LIG-0.27  OA
BRANCH 13 15
ATOM     15  CA  ASP B 802      44.413  54.235  27.360  1.00 44.06 LIG 0.28  C 
BRANCH 15 16
ATOM     16  CB  ASP B 802      45.502  53.703  28.297  1.00 45.52 LIG 0.15  C 
BRANCH 16 17
ATOM     17  CG  ASP B 802      45.534  52.179  28.363  1.00 48.04 LIG 0.17  C 
ATOM     18 OD1  ASP B 802      45.895  51.505  27.359  1.00 55.65 LIG-0.65  OA
ATOM     19 OD2  ASP B 802      45.194  51.653  29.443  1.00 54.24 LIG-0.65  OA
ENDBRANCH 16 17
ENDBRANCH 15 16
BRANCH 15 20
ATOM     20  N   ASP B 802      43.568  53.110  26.889  1.00 45.51 LIG-0.07  N 
ATOM     21 H3   ASP B 802      43.898  52.790  26.127  1.00 45.51 LIG 0.28  HD
ATOM     22 H1   ASP B 802      43.562  52.465  27.503  1.00 45.51 LIG 0.28  HD
ATOM     23 H2   ASP B 802      42.737  53.398  26.755  1.00 45.51 LIG 0.28  HD
ENDBRANCH 15 20
ENDBRANCH 13 15
ENDBRANCH 6 11
ENDBRANCH 4 6
ENDBRANCH 1 2
BRANCH 1 24
ATOM     24  C   LEU B 804      47.599  52.860  21.332  1.00 30.12 LIG 0.24  C 
ATOM     25  N   TYR B 805      48.508  51.918  21.098  1.00 29.37 LIG-0.35  N 
ATOM     26 H    TYR B 805      48.460  51.119  21.413  1.00 29.37 LIG 0.16  HD
ATOM     27 O    LEU B 804      47.538  53.882  20.683  1.00 28.94 LIG-0.27  OA
BRANCH 25 28
ATOM     28  CA  TYR B 805      49.691  52.169  20.269  1.00 29.00 LIG 0.18  C 
BRANCH 28 29
ATOM     29  CB  TYR B 805      49.249  52.569  18.850  1.00 27.91 LIG 0.07  C 
BRANCH 29 30
ATOM     30  CG  TYR B 805      49.381  51.355  17.957  1.00 26.10 LIG-0.06  A 
ATOM     31  CD1 TYR B 805      50.614  50.949  17.478  1.00 25.09 LIG 0.01  A 
ATOM     32  CE1 TYR B 805      50.739  49.892  16.597  1.00 24.79 LIG 0.04  A 
ATOM     33  CZ  TYR B 805      49.618  49.268  16.133  1.00 22.85 LIG 0.07  A 
ATOM     34  CE2 TYR B 805      48.368  49.650  16.595  1.00 24.72 LIG 0.04  A 
ATOM     35  CD2 TYR B 805      48.259  50.706  17.492  1.00 24.65 LIG 0.01  A 
BRANCH 33 36
ATOM     36 OH   TYR B 805      49.735  48.179  15.300  1.00 25.16 LIG-0.36  OA
ATOM     37 HH   TYR B 805      49.190  47.585  15.537  1.00 25.16 LIG 0.22  HD
ENDBRANCH 33 36
ENDBRANCH 29 30
ENDBRANCH 28 29
BRANCH 28 38
ATOM     38  C   TYR B 805      50.673  53.190  20.844  1.00 29.85 LIG 0.24  C 
ATOM     39 O    TYR B 805      50.430  53.773  21.937  1.00 30.08 LIG-0.27  OA
ATOM     40  N   GLY B 806      51.757  53.396  20.112  1.00 28.51 LIG-0.35  N 
ATOM     41 H    GLY B 806      51.850  53.113  19.305  1.00 28.51 LIG 0.16  HD
BRANCH 40 42
ATOM     42  CA  GLY B 806      52.891  54.126  20.623  1.00 29.14 LIG 0.23  C 
BRANCH 42 43
ATOM     43  C   GLY B 806      53.327  55.224  19.703  1.00 28.84 LIG 0.19  C 
ATOM     44 OXT  GLY B 806      52.956  56.354  19.982  1.00 29.15 LIG-0.65  OA
ATOM     45 O    GLY B 806      54.052  55.021  18.718  1.00 28.96 LIG-0.65  OA
ENDBRANCH 42 43
ENDBRANCH 40 42
ENDBRANCH 28 38
ENDBRANCH 25 28
ENDBRANCH 1 24
BRANCH 1 46
ATOM     46  CB  LEU B 804      45.164  52.760  21.889  1.00 30.53 LIG 0.04  C 
BRANCH 46 47
ATOM     47  CG  LEU B 804      44.080  51.960  22.633  1.00 30.66 LIG-0.02  C 
ATOM     48  CD1 LEU B 804      43.310  51.085  21.657  1.00 31.81 LIG 0.01  C 
ATOM     49  CD2 LEU B 804      44.685  51.123  23.740  1.00 30.59 LIG 0.01  C 
ENDBRANCH 46 47
ENDBRANCH 1 46
TORSDOF 19
ENDMDL
MODEL 3
USER: ADFR SOLUTION from run 31
USER: SCORE 15.823249 LL:  -3.951 LR: -14.841 RR:   0.000 FEB:  -9.174
USER: RMSD 9.428241
USER: SEED 30
USER: STATUS no improvement in best 3 clusters for 5 generations
USER: GENES 21
USER: genes 0 Translation |==|  0.37681 0.41826 0.49218
USER: genes 1 Rotation |==|  0.12799 0.24017 0.35114 0.64812
USER: genes 2 Torsion [CB]-CA--N-[C] |==|  0.13777
USER: genes 3 Torsion [N]-C--CA-[N] |==|  0.49684
USER: genes 4 Torsion [C]-CA--CB-[CG] |==|  0.36652
USER: genes 5 Torsion [CA]-CB--CG-[OD1] |==|  0.74819
USER: genes 6 Torsion [C]-CA--N-[C] |==|  0.16450
USER: genes 7 Torsion [N]-C--CA-[N] |==|  0.13628
USER: genes 8 Torsion [C]-CA--CB-[CG] |==|  0.55017
USER: genes 9 Torsion [CA]-CB--CG-[OD1] |==|  0.66715
USER: genes 10 Torsion [C]-CA--N-[H3] |==|  0.25652
USER: genes 11 Torsion [N]-CA--C-[N] |==|  0.16460
USER: genes 12 Torsion [C]-N--CA-[CB] |==|  0.33056
USER: genes 13 Torsion [N]-CA--CB-[CG] |==|  0.13488
USER: genes 14 Torsion [CA]-CB--CG-[CD2] |==|  0.28072
USER: genes 15 Torsion [CE1]-CZ--OH-[HH] |==|  0.62381
USER: genes 16 Torsion [N]-CA--C-[N] |==|  0.51897
USER: genes 17 Torsion [C]-N--CA-[C] |==|  0.43467
USER: genes 18 Torsion [N]-CA--C-[OXT] |==|  0.32366
USER: genes 19 Torsion [N]-CA--CB-[CG] |==|  0.17388
USER: genes 20 Torsion [CA]-CB--CG-[CD1] |==|  0.41264
ROOT
ATOM      1  CA  LEU B 804      46.244  49.818  21.615  1.00 31.72 LIG 0.18  C 
ENDROOT
BRANCH 1 2
ATOM      2  N   LEU B 804      46.160  51.239  21.976  1.00 32.47 LIG-0.35  N 
ATOM      3 H    LEU B 804      46.437  51.767  21.358  1.00 32.47 LIG 0.16  HD
ATOM      4  C   ASP B 803      45.698  51.674  23.146  1.00 36.20 LIG 0.24  C 
ATOM      5 O    ASP B 803      45.355  50.935  24.088  1.00 34.88 LIG-0.27  OA
BRANCH 4 6
ATOM      6  CA  ASP B 803      45.603  53.203  23.266  1.00 38.58 LIG 0.19  C 
BRANCH 6 7
ATOM      7  CB  ASP B 803      46.942  53.853  22.950  1.00 39.00 LIG 0.15  C 
BRANCH 7 8
ATOM      8  CG  ASP B 803      46.786  55.017  21.965  1.00 41.67 LIG 0.17  C 
ATOM      9 OD1  ASP B 803      46.880  54.763  20.728  1.00 44.54 LIG-0.65  OA
ATOM     10 OD2  ASP B 803      46.619  56.175  22.429  1.00 44.60 LIG-0.65  OA
ENDBRANCH 7 8
ENDBRANCH 6 7
BRANCH 6 11
ATOM     11  N   ASP B 803      45.065  53.582  24.563  1.00 40.89 LIG-0.34  N 
ATOM     12 H    ASP B 803      44.339  54.044  24.544  1.00 40.89 LIG 0.16  HD
ATOM     13  C   ASP B 802      45.708  53.205  25.669  1.00 43.36 LIG 0.25  C 
ATOM     14 O    ASP B 802      46.763  52.553  25.631  1.00 44.71 LIG-0.27  OA
BRANCH 13 15
ATOM     15  CA  ASP B 802      45.083  53.577  27.015  1.00 44.06 LIG 0.28  C 
BRANCH 15 16
ATOM     16  CB  ASP B 802      45.804  52.865  28.165  1.00 45.52 LIG 0.15  C 
BRANCH 16 17
ATOM     17  CG  ASP B 802      44.984  52.837  29.451  1.00 48.04 LIG 0.17  C 
ATOM     18 OD1  ASP B 802      45.429  53.376  30.502  1.00 55.65 LIG-0.65  OA
ATOM     19 OD2  ASP B 802      43.875  52.267  29.403  1.00 54.24 LIG-0.65  OA
ENDBRANCH 16 17
ENDBRANCH 15 16
BRANCH 15 20
ATOM     20  N   ASP B 802      43.649  53.195  27.015  1.00 45.51 LIG-0.07  N 
ATOM     21 H3   ASP B 802      43.560  52.375  27.349  1.00 45.51 LIG 0.28  HD
ATOM     22 H1   ASP B 802      43.188  53.770  27.515  1.00 45.51 LIG 0.28  HD
ATOM     23 H2   ASP B 802      43.338  53.210  26.182  1.00 45.51 LIG 0.28  HD
ENDBRANCH 15 20
ENDBRANCH 13 15
ENDBRANCH 6 11
ENDBRANCH 4 6
ENDBRANCH 1 2
BRANCH 1 24
ATOM     24  C   LEU B 804      46.616  49.560  20.147  1.00 30.12 LIG 0.24  C 
ATOM     25  N   TYR B 805      47.775  50.048  19.714  1.00 29.37 LIG-0.35  N 
ATOM     26 H    TYR B 805      48.393  50.345  20.233  1.00 29.37 LIG 0.16  HD
ATOM     27 O    LEU B 804      45.875  48.914  19.439  1.00 28.94 LIG-0.27  OA
BRANCH 25 28
ATOM     28  CA  TYR B 805      48.101  50.120  18.287  1.00 29.00 LIG 0.18  C 
BRANCH 28 29
ATOM     29  CB  TYR B 805      48.331  51.588  17.885  1.00 27.91 LIG 0.07  C 
BRANCH 29 30
ATOM     30  CG  TYR B 805      49.274  52.209  18.891  1.00 26.10 LIG-0.06  A 
ATOM     31  CD1 TYR B 805      48.805  52.748  20.075  1.00 25.09 LIG 0.01  A 
ATOM     32  CE1 TYR B 805      49.645  53.390  20.965  1.00 24.79 LIG 0.04  A 
ATOM     33  CZ  TYR B 805      50.960  53.557  20.645  1.00 22.85 LIG 0.07  A 
ATOM     34  CE2 TYR B 805      51.462  53.027  19.467  1.00 24.72 LIG 0.04  A 
ATOM     35  CD2 TYR B 805      50.608  52.372  18.588  1.00 24.65 LIG 0.01  A 
BRANCH 33 36
ATOM     36 OH   TYR B 805      51.815  54.146  21.549  1.00 25.16 LIG-0.36  OA
ATOM     37 HH   TYR B 805      52.300  54.706  21.152  1.00 25.16 LIG 0.22  HD
ENDBRANCH 33 36
ENDBRANCH 29 30
ENDBRANCH 28 29
BRANCH 28 38
ATOM     38  C   TYR B 805      49.275  49.243  17.850  1.00 29.85 LIG 0.24  C 
ATOM     39 O    TYR B 805      49.809  48.433  18.659  1.00 30.08 LIG-0.27  OA
ATOM     40  N   GLY B 806      49.663  49.412  16.596  1.00 28.51 LIG-0.35  N 
ATOM     41 H    GLY B 806      49.400  50.060  16.097  1.00 28.51 LIG 0.16  HD
BRANCH 40 42
ATOM     42  CA  GLY B 806      50.577  48.499  15.954  1.00 29.14 LIG 0.23  C 
BRANCH 42 43
ATOM     43  C   GLY B 806      50.452  48.518  14.462  1.00 28.84 LIG 0.19  C 
ATOM     44 OXT  GLY B 806      51.429  48.895  13.834  1.00 29.15 LIG-0.65  OA
ATOM     45 O    GLY B 806      49.426  48.146  13.873  1.00 28.96 LIG-0.65  OA
ENDBRANCH 42 43
ENDBRANCH 40 42
ENDBRANCH 28 38
ENDBRANCH 25 28
ENDBRANCH 1 24
BRANCH 1 46
ATOM     46  CB  LEU B 804      44.894  49.152  21.914  1.00 30.53 LIG 0.04  C 
BRANCH 46 47
ATOM     47  CG  LEU B 804      43.710  49.704  21.100  1.00 30.66 LIG-0.02  C 
ATOM     48  CD1 LEU B 804      42.689  48.605  20.847  1.00 31.81 LIG 0.01  C 
ATOM     49  CD2 LEU B 804      43.068  50.881  21.802  1.00 30.59 LIG 0.01  C 
ENDBRANCH 46 47
ENDBRANCH 1 46
TORSDOF 19
ENDMDL
MODEL 4
USER: ADFR SOLUTION from run 145
USER: SCORE 17.184778 LL:  -3.526 LR: -16.686 RR:   0.000 FEB: -11.018
USER: RMSD 4.114426
USER: SEED 144
USER: STATUS no improvement in best 150 clusters for 5 generations
USER: GENES 21
USER: genes 0 Translation |==|  0.45554 0.51619 0.43119
USER: genes 1 Rotation |==|  0.30978 0.67439 0.61713 0.91193
USER: genes 2 Torsion [CB]-CA--N-[C] |==|  0.78190
USER: genes 3 Torsion [N]-C--CA-[N] |==|  0.48322
USER: genes 4 Torsion [C]-CA--CB-[CG] |==|  0.42833
USER: genes 5 Torsion [CA]-CB--CG-[OD1] |==|  0.08112
USER: genes 6 Torsion [C]-CA--N-[C] |==|  0.67676
USER: genes 7 Torsion [N]-C--CA-[N] |==|  0.41241
USER: genes 8 Torsion [C]-CA--CB-[CG] |==|  0.78786
USER: genes 9 Torsion [CA]-CB--CG-[OD1] |==|  0.41033
USER: genes 10 Torsion [C]-CA--N-[H3] |==|  0.35662
USER: genes 11 Torsion [N]-CA--C-[N] |==|  0.69135
USER: genes 12 Torsion [C]-N--CA-[CB] |==|  0.44322
USER: genes 13 Torsion [N]-CA--CB-[CG] |==|  0.83211
USER: genes 14 Torsion [CA]-CB--CG-[CD2] |==|  0.79027
USER: genes 15 Torsion [CE1]-CZ--OH-[HH] |==|  0.77090
USER: genes 16 Torsion [N]-CA--C-[N] |==|  0.77769
USER: genes 17 Torsion [C]-N--CA-[C] |==|  0.77438
USER: genes 18 Torsion [N]-CA--C-[OXT] |==|  0.84652
USER: genes 19 Torsion [N]-CA--CB-[CG] |==|  0.64639
USER: genes 20 Torsion [CA]-CB--CG-[CD1] |==|  0.12428
ROOT
ATOM      1  CA  LEU B 804      48.606  52.756  19.786  1.00 31.72 LIG 0.18  C 
ENDROOT
BRANCH 1 2
ATOM      2  N   LEU B 804      49.987  53.217  19.591  1.00 32.47 LIG-0.35  N 
ATOM      3 H    LEU B 804      50.244  53.195  18.771  1.00 32.47 LIG 0.16  HD
ATOM      4  C   ASP B 803      50.770  53.631  20.584  1.00 36.20 LIG 0.24  C 
ATOM      5 O    ASP B 803      50.453  53.609  21.788  1.00 34.88 LIG-0.27  OA
BRANCH 4 6
ATOM      6  CA  ASP B 803      52.139  54.166  20.136  1.00 38.58 LIG 0.19  C 
BRANCH 6 7
ATOM      7  CB  ASP B 803      52.917  53.097  19.384  1.00 39.00 LIG 0.15  C 
BRANCH 7 8
ATOM      8  CG  ASP B 803      53.929  53.712  18.412  1.00 41.67 LIG 0.17  C 
ATOM      9 OD1  ASP B 803      54.418  54.844  18.702  1.00 44.54 LIG-0.65  OA
ATOM     10 OD2  ASP B 803      54.193  53.090  17.350  1.00 44.60 LIG-0.65  OA
ENDBRANCH 7 8
ENDBRANCH 6 7
BRANCH 6 11
ATOM     11  N   ASP B 803      52.865  54.725  21.266  1.00 40.89 LIG-0.34  N 
ATOM     12 H    ASP B 803      53.072  54.167  21.888  1.00 40.89 LIG 0.16  HD
ATOM     13  C   ASP B 802      53.159  56.026  21.272  1.00 43.36 LIG 0.25  C 
ATOM     14 O    ASP B 802      52.818  56.785  20.351  1.00 44.71 LIG-0.27  OA
BRANCH 13 15
ATOM     15  CA  ASP B 802      53.971  56.565  22.451  1.00 44.06 LIG 0.28  C 
BRANCH 15 16
ATOM     16  CB  ASP B 802      53.046  57.041  23.576  1.00 45.52 LIG 0.15  C 
BRANCH 16 17
ATOM     17  CG  ASP B 802      52.396  58.389  23.278  1.00 48.04 LIG 0.17  C 
ATOM     18 OD1  ASP B 802      51.239  58.648  23.710  1.00 55.65 LIG-0.65  OA
ATOM     19 OD2  ASP B 802      53.062  59.201  22.603  1.00 54.24 LIG-0.65  OA
ENDBRANCH 16 17
ENDBRANCH 15 16
BRANCH 15 20
ATOM     20  N   ASP B 802      54.818  57.694  21.992  1.00 45.51 LIG-0.07  N 
ATOM     21 H3   ASP B 802      54.690  58.396  22.524  1.00 45.51 LIG 0.28  HD
ATOM     22 H1   ASP B 802      55.674  57.454  22.018  1.00 45.51 LIG 0.28  HD
ATOM     23 H2   ASP B 802      54.596  57.912  21.157  1.00 45.51 LIG 0.28  HD
ENDBRANCH 15 20
ENDBRANCH 13 15
ENDBRANCH 6 11
ENDBRANCH 4 6
ENDBRANCH 1 2
BRANCH 1 24
ATOM     24  C   LEU B 804      47.778  53.627  20.742  1.00 30.12 LIG 0.24  C 
ATOM     25  N   TYR B 805      47.440  53.097  21.915  1.00 29.37 LIG-0.35  N 
ATOM     26 H    TYR B 805      47.789  52.380  22.234  1.00 29.37 LIG 0.16  HD
ATOM     27 O    LEU B 804      47.479  54.758  20.427  1.00 28.94 LIG-0.27  OA
BRANCH 25 28
ATOM     28  CA  TYR B 805      46.423  53.708  22.777  1.00 29.00 LIG 0.18  C 
BRANCH 28 29
ATOM     29  CB  TYR B 805      45.888  52.657  23.765  1.00 27.91 LIG 0.07  C 
BRANCH 29 30
ATOM     30  CG  TYR B 805      45.271  51.531  22.966  1.00 26.10 LIG-0.06  A 
ATOM     31  CD1 TYR B 805      45.976  50.370  22.702  1.00 25.09 LIG 0.01  A 
ATOM     32  CE1 TYR B 805      45.454  49.368  21.906  1.00 24.79 LIG 0.04  A 
ATOM     33  CZ  TYR B 805      44.241  49.547  21.309  1.00 22.85 LIG 0.07  A 
ATOM     34  CE2 TYR B 805      43.509  50.699  21.555  1.00 24.72 LIG 0.04  A 
ATOM     35  CD2 TYR B 805      44.041  51.691  22.369  1.00 24.65 LIG 0.01  A 
BRANCH 33 36
ATOM     36 OH   TYR B 805      43.689  48.533  20.560  1.00 25.16 LIG-0.36  OA
ATOM     37 HH   TYR B 805      44.016  48.547  19.786  1.00 25.16 LIG 0.22  HD
ENDBRANCH 33 36
ENDBRANCH 29 30
ENDBRANCH 28 29
BRANCH 28 38
ATOM     38  C   TYR B 805      46.877  54.969  23.512  1.00 29.85 LIG 0.24  C 
ATOM     39 O    TYR B 805      46.565  56.114  23.080  1.00 30.08 LIG-0.27  OA
ATOM     40  N   GLY B 806      47.601  54.752  24.599  1.00 28.51 LIG-0.35  N 
ATOM     41 H    GLY B 806      47.934  53.988  24.807  1.00 28.51 LIG 0.16  HD
BRANCH 40 42
ATOM     42  CA  GLY B 806      47.893  55.805  25.540  1.00 29.14 LIG 0.23  C 
BRANCH 42 43
ATOM     43  C   GLY B 806      49.037  56.666  25.099  1.00 28.84 LIG 0.19  C 
ATOM     44 OXT  GLY B 806      50.088  56.098  24.851  1.00 29.15 LIG-0.65  OA
ATOM     45 O    GLY B 806      48.932  57.894  24.960  1.00 28.96 LIG-0.65  OA
ENDBRANCH 42 43
ENDBRANCH 40 42
ENDBRANCH 28 38
ENDBRANCH 25 28
ENDBRANCH 1 24
BRANCH 1 46
ATOM     46  CB  LEU B 804      48.638  51.317  20.319  1.00 30.53 LIG 0.04  C 
BRANCH 46 47
ATOM     47  CG  LEU B 804      47.787  50.315  19.520  1.00 30.66 LIG-0.02  C 
ATOM     48  CD1 LEU B 804      48.005  50.514  18.028  1.00 31.81 LIG 0.01  C 
ATOM     49  CD2 LEU B 804      48.102  48.890  19.922  1.00 30.59 LIG 0.01  C 
ENDBRANCH 46 47
ENDBRANCH 1 46
TORSDOF 19
ENDMDL
MODEL 5
USER: ADFR SOLUTION from run 61
USER: SCORE 15.956009 LL:  -3.271 LR: -15.881 RR:   0.000 FEB: -10.213
USER: RMSD 9.239114
USER: SEED 60
USER: STATUS no improvement in best 148 clusters for 5 generations
USER: GENES 21
USER: genes 0 Translation |==|  0.38423 0.42919 0.49870
USER: genes 1 Rotation |==|  0.11040 0.25236 0.36586 0.63745
USER: genes 2 Torsion [CB]-CA--N-[C] |==|  0.17762
USER: genes 3 Torsion [N]-C--CA-[N] |==|  0.38351
USER: genes 4 Torsion [C]-CA--CB-[CG] |==|  0.53179
USER: genes 5 Torsion [CA]-CB--CG-[OD1] |==|  0.93182
USER: genes 6 Torsion [C]-CA--N-[C] |==|  0.20007
USER: genes 7 Torsion [N]-C--CA-[N] |==|  0.25426
USER: genes 8 Torsion [C]-CA--CB-[CG] |==|  0.28955
USER: genes 9 Torsion [CA]-CB--CG-[OD1] |==|  0.36455
USER: genes 10 Torsion [C]-CA--N-[H3] |==|  0.95962
USER: genes 11 Torsion [N]-CA--C-[N] |==|  0.16505
USER: genes 12 Torsion [C]-N--CA-[CB] |==|  0.31866
USER: genes 13 Torsion [N]-CA--CB-[CG] |==|  0.12680
USER: genes 14 Torsion [CA]-CB--CG-[CD2] |==|  0.25597
USER: genes 15 Torsion [CE1]-CZ--OH-[HH] |==|  0.47074
USER: genes 16 Torsion [N]-CA--C-[N] |==|  0.54758
USER: genes 17 Torsion [C]-N--CA-[C] |==|  0.42449
USER: genes 18 Torsion [N]-CA--C-[OXT] |==|  0.30438
USER: genes 19 Torsion [N]-CA--CB-[CG] |==|  0.16800
USER: genes 20 Torsion [CA]-CB--CG-[CD1] |==|  0.38162
ROOT
ATOM      1  CA  LEU B 804      46.467  50.146  21.811  1.00 31.72 LIG 0.18  C 
ENDROOT
BRANCH 1 2
ATOM      2  N   LEU B 804      46.498  51.590  22.075  1.00 32.47 LIG-0.35  N 
ATOM      3 H    LEU B 804      46.581  52.067  21.364  1.00 32.47 LIG 0.16  HD
ATOM      4  C   ASP B 803      46.406  52.117  23.294  1.00 36.20 LIG 0.24  C 
ATOM      5 O    ASP B 803      46.357  51.454  24.346  1.00 34.88 LIG-0.27  OA
BRANCH 4 6
ATOM      6  CA  ASP B 803      46.355  53.652  23.323  1.00 38.58 LIG 0.19  C 
BRANCH 6 7
ATOM      7  CB  ASP B 803      47.743  54.234  23.549  1.00 39.00 LIG 0.15  C 
BRANCH 7 8
ATOM      8  CG  ASP B 803      47.684  55.732  23.861  1.00 41.67 LIG 0.17  C 
ATOM      9 OD1  ASP B 803      46.680  56.385  23.449  1.00 44.54 LIG-0.65  OA
ATOM     10 OD2  ASP B 803      48.653  56.255  24.472  1.00 44.60 LIG-0.65  OA
ENDBRANCH 7 8
ENDBRANCH 6 7
BRANCH 6 11
ATOM     11  N   ASP B 803      45.369  54.114  24.288  1.00 40.89 LIG-0.34  N 
ATOM     12 H    ASP B 803      44.652  54.452  23.954  1.00 40.89 LIG 0.16  HD
ATOM     13  C   ASP B 802      45.627  53.990  25.591  1.00 43.36 LIG 0.25  C 
ATOM     14 O    ASP B 802      46.690  53.508  26.012  1.00 44.71 LIG-0.27  OA
BRANCH 13 15
ATOM     15  CA  ASP B 802      44.543  54.436  26.574  1.00 44.06 LIG 0.28  C 
BRANCH 15 16
ATOM     16  CB  ASP B 802      45.169  54.992  27.857  1.00 45.52 LIG 0.15  C 
BRANCH 16 17
ATOM     17  CG  ASP B 802      45.112  56.515  27.933  1.00 48.04 LIG 0.17  C 
ATOM     18 OD1  ASP B 802      44.691  57.086  28.976  1.00 55.65 LIG-0.65  OA
ATOM     19 OD2  ASP B 802      45.501  57.146  26.929  1.00 54.24 LIG-0.65  OA
ENDBRANCH 16 17
ENDBRANCH 15 16
BRANCH 15 20
ATOM     20  N   ASP B 802      43.672  53.282  26.905  1.00 45.51 LIG-0.07  N 
ATOM     21 H3   ASP B 802      43.813  52.626  26.320  1.00 45.51 LIG 0.28  HD
ATOM     22 H1   ASP B 802      43.860  52.993  27.726  1.00 45.51 LIG 0.28  HD
ATOM     23 H2   ASP B 802      42.819  53.533  26.867  1.00 45.51 LIG 0.28  HD
ENDBRANCH 15 20
ENDBRANCH 13 15
ENDBRANCH 6 11
ENDBRANCH 4 6
ENDBRANCH 1 2
BRANCH 1 24
ATOM     24  C   LEU B 804      46.733  49.766  20.347  1.00 30.12 LIG 0.24  C 
ATOM     25  N   TYR B 805      47.896  50.138  19.819  1.00 29.37 LIG-0.35  N 
ATOM     26 H    TYR B 805      48.562  50.423  20.282  1.00 29.37 LIG 0.16  HD
ATOM     27 O    LEU B 804      45.909  49.129  19.726  1.00 28.94 LIG-0.27  OA
BRANCH 25 28
ATOM     28  CA  TYR B 805      48.141  50.092  18.374  1.00 29.00 LIG 0.18  C 
BRANCH 28 29
ATOM     29  CB  TYR B 805      48.342  51.521  17.840  1.00 27.91 LIG 0.07  C 
BRANCH 29 30
ATOM     30  CG  TYR B 805      49.280  52.247  18.778  1.00 26.10 LIG-0.06  A 
ATOM     31  CD1 TYR B 805      48.797  53.033  19.809  1.00 25.09 LIG 0.01  A 
ATOM     32  CE1 TYR B 805      49.641  53.765  20.622  1.00 24.79 LIG 0.04  A 
ATOM     33  CZ  TYR B 805      50.981  53.769  20.368  1.00 22.85 LIG 0.07  A 
ATOM     34  CE2 TYR B 805      51.497  52.991  19.344  1.00 24.72 LIG 0.04  A 
ATOM     35  CD2 TYR B 805      50.637  52.249  18.543  1.00 24.65 LIG 0.01  A 
BRANCH 33 36
ATOM     36 OH   TYR B 805      51.835  54.450  21.206  1.00 25.16 LIG-0.36  OA
ATOM     37 HH   TYR B 805      52.629  54.251  21.018  1.00 25.16 LIG 0.22  HD
ENDBRANCH 33 36
ENDBRANCH 29 30
ENDBRANCH 28 29
BRANCH 28 38
ATOM     38  C   TYR B 805      49.294  49.182  17.947  1.00 29.85 LIG 0.24  C 
ATOM     39 O    TYR B 805      49.747  48.305  18.734  1.00 30.08 LIG-0.27  OA
ATOM     40  N   GLY B 806      49.751  49.397  16.724  1.00 28.51 LIG-0.35  N 
ATOM     41 H    GLY B 806      49.545  50.084  16.249  1.00 28.51 LIG 0.16  HD
BRANCH 40 42
ATOM     42  CA  GLY B 806      50.653  48.476  16.077  1.00 29.14 LIG 0.23  C 
BRANCH 42 43
ATOM     43  C   GLY B 806      50.542  48.518  14.584  1.00 28.84 LIG 0.19  C 
ATOM     44 OXT  GLY B 806      51.482  49.006  13.977  1.00 29.15 LIG-0.65  OA
ATOM     45 O    GLY B 806      49.564  48.058  13.975  1.00 28.96 LIG-0.65  OA
ENDBRANCH 42 43
ENDBRANCH 40 42
ENDBRANCH 28 38
ENDBRANCH 25 28
ENDBRANCH 1 24
BRANCH 1 46
ATOM     46  CB  LEU B 804      45.096  49.597  22.229  1.00 30.53 LIG 0.04  C 
BRANCH 46 47
ATOM     47  CG  LEU B 804      43.901  50.212  21.480  1.00 30.66 LIG-0.02  C 
ATOM     48  CD1 LEU B 804      42.905  49.128  21.099  1.00 31.81 LIG 0.01  C 
ATOM     49  CD2 LEU B 804      43.231  51.287  22.310  1.00 30.59 LIG 0.01  C 
ENDBRANCH 46 47
ENDBRANCH 1 46
TORSDOF 19
ENDMDL
MODEL 6
USER: ADFR SOLUTION from run 84
USER: SCORE 16.117423 LL:  -3.633 LR: -15.103 RR:   0.000 FEB:  -9.436
USER: RMSD 8.491522
USER: SEED 83
USER: STATUS no improvement in best 149 clusters for 5 generations
USER: GENES 21
USER: genes 0 Translation |==|  0.37253 0.42031 0.49657
USER: genes 1 Rotation |==|  0.11720 0.25413 0.34264 0.63509
USER: genes 2 Torsion [CB]-CA--N-[C] |==|  0.15268
USER: genes 3 Torsion [N]-C--CA-[N] |==|  0.71521
USER: genes 4 Torsion [C]-CA--CB-[CG] |==|  0.61344
USER: genes 5 Torsion [CA]-CB--CG-[OD1] |==|  0.35459
USER: genes 6 Torsion [C]-CA--N-[C] |==|  0.66153
USER: genes 7 Torsion [N]-C--CA-[N] |==|  0.81594
USER: genes 8 Torsion [C]-CA--CB-[CG] |==|  0.32568
USER: genes 9 Torsion [CA]-CB--CG-[OD1] |==|  0.51472
USER: genes 10 Torsion [C]-CA--N-[H3] |==|  0.41845
USER: genes 11 Torsion [N]-CA--C-[N] |==|  0.15160
USER: genes 12 Torsion [C]-N--CA-[CB] |==|  0.30927
USER: genes 13 Torsion [N]-CA--CB-[CG] |==|  0.15104
USER: genes 14 Torsion [CA]-CB--CG-[CD2] |==|  0.77871
USER: genes 15 Torsion [CE1]-CZ--OH-[HH] |==|  0.98507
USER: genes 16 Torsion [N]-CA--C-[N] |==|  0.50537
USER: genes 17 Torsion [C]-N--CA-[C] |==|  0.47219
USER: genes 18 Torsion [N]-CA--C-[OXT] |==|  0.83433
USER: genes 19 Torsion [N]-CA--CB-[CG] |==|  0.18149
USER: genes 20 Torsion [CA]-CB--CG-[CD1] |==|  0.39461
ROOT
ATOM      1  CA  LEU B 804      46.116  49.879  21.747  1.00 31.72 LIG 0.18  C 
ENDROOT
BRANCH 1 2
ATOM      2  N   LEU B 804      46.151  51.308  22.083  1.00 32.47 LIG-0.35  N 
ATOM      3 H    LEU B 804      46.420  51.806  21.436  1.00 32.47 LIG 0.16  HD
ATOM      4  C   ASP B 803      45.800  51.793  23.272  1.00 36.20 LIG 0.24  C 
ATOM      5 O    ASP B 803      45.475  51.095  24.249  1.00 34.88 LIG-0.27  OA
BRANCH 4 6
ATOM      6  CA  ASP B 803      45.816  53.327  23.365  1.00 38.58 LIG 0.19  C 
BRANCH 6 7
ATOM      7  CB  ASP B 803      45.645  53.953  21.989  1.00 39.00 LIG 0.15  C 
BRANCH 7 8
ATOM      8  CG  ASP B 803      46.563  55.165  21.802  1.00 41.67 LIG 0.17  C 
ATOM      9 OD1  ASP B 803      47.307  55.194  20.778  1.00 44.54 LIG-0.65  OA
ATOM     10 OD2  ASP B 803      46.569  56.054  22.693  1.00 44.60 LIG-0.65  OA
ENDBRANCH 7 8
ENDBRANCH 6 7
BRANCH 6 11
ATOM     11  N   ASP B 803      47.004  53.785  24.067  1.00 40.89 LIG-0.34  N 
ATOM     12 H    ASP B 803      47.756  53.546  23.723  1.00 40.89 LIG 0.16  HD
ATOM     13  C   ASP B 802      46.864  54.525  25.168  1.00 43.36 LIG 0.25  C 
ATOM     14 O    ASP B 802      45.751  54.824  25.627  1.00 44.71 LIG-0.27  OA
BRANCH 13 15
ATOM     15  CA  ASP B 802      48.137  55.034  25.848  1.00 44.06 LIG 0.28  C 
BRANCH 15 16
ATOM     16  CB  ASP B 802      49.011  55.808  24.856  1.00 45.52 LIG 0.15  C 
BRANCH 16 17
ATOM     17  CG  ASP B 802      49.194  57.272  25.244  1.00 48.04 LIG 0.17  C 
ATOM     18 OD1  ASP B 802      49.806  58.063  24.475  1.00 55.65 LIG-0.65  OA
ATOM     19 OD2  ASP B 802      48.712  57.632  26.338  1.00 54.24 LIG-0.65  OA
ENDBRANCH 16 17
ENDBRANCH 15 16
BRANCH 15 20
ATOM     20  N   ASP B 802      48.900  53.883  26.391  1.00 45.51 LIG-0.07  N 
ATOM     21 H3   ASP B 802      49.769  54.078  26.394  1.00 45.51 LIG 0.28  HD
ATOM     22 H1   ASP B 802      48.632  53.714  27.223  1.00 45.51 LIG 0.28  HD
ATOM     23 H2   ASP B 802      48.759  53.167  25.883  1.00 45.51 LIG 0.28  HD
ENDBRANCH 15 20
ENDBRANCH 13 15
ENDBRANCH 6 11
ENDBRANCH 4 6
ENDBRANCH 1 2
BRANCH 1 24
ATOM     24  C   LEU B 804      46.495  49.563  20.293  1.00 30.12 LIG 0.24  C 
ATOM     25  N   TYR B 805      47.664  50.020  19.851  1.00 29.37 LIG-0.35  N 
ATOM     26 H    TYR B 805      48.281  50.329  20.363  1.00 29.37 LIG 0.16  HD
ATOM     27 O    LEU B 804      45.752  48.899  19.603  1.00 28.94 LIG-0.27  OA
BRANCH 25 28
ATOM     28  CA  TYR B 805      48.001  50.035  18.424  1.00 29.00 LIG 0.18  C 
BRANCH 28 29
ATOM     29  CB  TYR B 805      48.063  51.490  17.925  1.00 27.91 LIG 0.07  C 
BRANCH 29 30
ATOM     30  CG  TYR B 805      49.026  52.250  18.810  1.00 26.10 LIG-0.06  A 
ATOM     31  CD1 TYR B 805      50.358  52.389  18.466  1.00 25.09 LIG 0.01  A 
ATOM     32  CE1 TYR B 805      51.264  53.012  19.303  1.00 24.79 LIG 0.04  A 
ATOM     33  CZ  TYR B 805      50.856  53.445  20.530  1.00 22.85 LIG 0.07  A 
ATOM     34  CE2 TYR B 805      49.527  53.322  20.905  1.00 24.72 LIG 0.04  A 
ATOM     35  CD2 TYR B 805      48.625  52.707  20.046  1.00 24.65 LIG 0.01  A 
BRANCH 33 36
ATOM     36 OH   TYR B 805      51.737  54.115  21.348  1.00 25.16 LIG-0.36  OA
ATOM     37 HH   TYR B 805      52.500  54.118  20.995  1.00 25.16 LIG 0.22  HD
ENDBRANCH 33 36
ENDBRANCH 29 30
ENDBRANCH 28 29
BRANCH 28 38
ATOM     38  C   TYR B 805      49.277  49.276  18.058  1.00 29.85 LIG 0.24  C 
ATOM     39 O    TYR B 805      49.940  48.667  18.943  1.00 30.08 LIG-0.27  OA
ATOM     40  N   GLY B 806      49.606  49.322  16.777  1.00 28.51 LIG-0.35  N 
ATOM     41 H    GLY B 806      49.242  49.854  16.208  1.00 28.51 LIG 0.16  HD
BRANCH 40 42
ATOM     42  CA  GLY B 806      50.624  48.464  16.222  1.00 29.14 LIG 0.23  C 
BRANCH 42 43
ATOM     43  C   GLY B 806      50.664  48.515  14.726  1.00 28.84 LIG 0.19  C 
ATOM     44 OXT  GLY B 806      49.646  48.188  14.138  1.00 29.15 LIG-0.65  OA
ATOM     45 O    GLY B 806      51.664  48.895  14.098  1.00 28.96 LIG-0.65  OA
ENDBRANCH 42 43
ENDBRANCH 40 42
ENDBRANCH 28 38
ENDBRANCH 25 28
ENDBRANCH 1 24
BRANCH 1 46
ATOM     46  CB  LEU B 804      44.705  49.342  22.024  1.00 30.53 LIG 0.04  C 
BRANCH 46 47
ATOM     47  CG  LEU B 804      43.603  49.934  21.128  1.00 30.66 LIG-0.02  C 
ATOM     48  CD1 LEU B 804      42.589  48.861  20.764  1.00 31.81 LIG 0.01  C 
ATOM     49  CD2 LEU B 804      42.923  51.107  21.803  1.00 30.59 LIG 0.01  C 
ENDBRANCH 46 47
ENDBRANCH 1 46
TORSDOF 19
ENDMDL
MODEL 7
USER: ADFR SOLUTION from run 103
USER: SCORE 17.481586 LL:  -3.950 LR: -15.021 RR:   0.000 FEB:  -9.354
USER: RMSD 8.081344
USER: SEED 102
USER: STATUS no improvement in best 148 clusters for 5 generations
USER: GENES 21
USER: genes 0 Translation |==|  0.39107 0.51012 0.52217
USER: genes 1 Rotation |==|  0.18715 0.35885 0.17422 0.66145
USER: genes 2 Torsion [CB]-CA--N-[C] |==|  0.83257
USER: genes 3 Torsion [N]-C--CA-[N] |==|  0.87187
USER: genes 4 Torsion [C]-CA--CB-[CG] |==|  0.34806
USER: genes 5 Torsion [CA]-CB--CG-[OD1] |==|  0.17126
USER: genes 6 Torsion [C]-CA--N-[C] |==|  0.76988
USER: genes 7 Torsion [N]-C--CA-[N] |==|  0.68117
USER: genes 8 Torsion [C]-CA--CB-[CG] |==|  0.76461
USER: genes 9 Torsion [CA]-CB--CG-[OD1] |==|  0.58764
USER: genes 10 Torsion [C]-CA--N-[H3] |==|  0.29493
USER: genes 11 Torsion [N]-CA--C-[N] |==|  0.31380
USER: genes 12 Torsion [C]-N--CA-[CB] |==|  0.83965
USER: genes 13 Torsion [N]-CA--CB-[CG] |==|  0.71989
USER: genes 14 Torsion [CA]-CB--CG-[CD2] |==|  0.80124
USER: genes 15 Torsion [CE1]-CZ--OH-[HH] |==|  0.67139
USER: genes 16 Torsion [N]-CA--C-[N] |==|  0.51107
USER: genes 17 Torsion [C]-N--CA-[C] |==|  0.58942
USER: genes 18 Torsion [N]-CA--C-[OXT] |==|  0.30330
USER: genes 19 Torsion [N]-CA--CB-[CG] |==|  0.78922
USER: genes 20 Torsion [CA]-CB--CG-[CD1] |==|  0.60897
ROOT
ATOM      1  CA  LEU B 804      46.672  52.574  22.515  1.00 31.72 LIG 0.18  C 
ENDROOT
BRANCH 1 2
ATOM      2  N   LEU B 804      46.771  53.470  23.674  1.00 32.47 LIG-0.35  N 
ATOM      3 H    LEU B 804      46.978  53.065  24.404  1.00 32.47 LIG 0.16  HD
ATOM      4  C   ASP B 803      46.561  54.783  23.608  1.00 36.20 LIG 0.24  C 
ATOM      5 O    ASP B 803      46.192  55.387  22.585  1.00 34.88 LIG-0.27  OA
BRANCH 4 6
ATOM      6  CA  ASP B 803      46.821  55.536  24.922  1.00 38.58 LIG 0.19  C 
BRANCH 6 7
ATOM      7  CB  ASP B 803      48.309  55.796  25.110  1.00 39.00 LIG 0.15  C 
BRANCH 7 8
ATOM      8  CG  ASP B 803      48.599  57.284  25.333  1.00 41.67 LIG 0.17  C 
ATOM      9 OD1  ASP B 803      48.092  57.841  26.351  1.00 44.54 LIG-0.65  OA
ATOM     10 OD2  ASP B 803      49.288  57.894  24.475  1.00 44.60 LIG-0.65  OA
ENDBRANCH 7 8
ENDBRANCH 6 7
BRANCH 6 11
ATOM     11  N   ASP B 803      46.208  54.840  26.042  1.00 40.89 LIG-0.34  N 
ATOM     12 H    ASP B 803      46.731  54.326  26.492  1.00 40.89 LIG 0.16  HD
ATOM     13  C   ASP B 802      44.913  55.032  26.296  1.00 43.36 LIG 0.25  C 
ATOM     14 O    ASP B 802      44.205  55.775  25.599  1.00 44.71 LIG-0.27  OA
BRANCH 13 15
ATOM     15  CA  ASP B 802      44.317  54.325  27.515  1.00 44.06 LIG 0.28  C 
BRANCH 15 16
ATOM     16  CB  ASP B 802      45.410  53.619  28.323  1.00 45.52 LIG 0.15  C 
BRANCH 16 17
ATOM     17  CG  ASP B 802      45.736  52.228  27.788  1.00 48.04 LIG 0.17  C 
ATOM     18 OD1  ASP B 802      46.111  51.314  28.574  1.00 55.65 LIG-0.65  OA
ATOM     19 OD2  ASP B 802      45.610  52.050  26.559  1.00 54.24 LIG-0.65  OA
ENDBRANCH 16 17
ENDBRANCH 15 16
BRANCH 15 20
ATOM     20  N   ASP B 802      43.310  53.332  27.066  1.00 45.51 LIG-0.07  N 
ATOM     21 H3   ASP B 802      43.643  52.511  27.153  1.00 45.51 LIG 0.28  HD
ATOM     22 H1   ASP B 802      42.575  53.408  27.563  1.00 45.51 LIG 0.28  HD
ATOM     23 H2   ASP B 802      43.107  53.480  26.212  1.00 45.51 LIG 0.28  HD
ENDBRANCH 15 20
ENDBRANCH 13 15
ENDBRANCH 6 11
ENDBRANCH 4 6
ENDBRANCH 1 2
BRANCH 1 24
ATOM     24  C   LEU B 804      47.672  52.883  21.391  1.00 30.12 LIG 0.24  C 
ATOM     25  N   TYR B 805      48.624  51.985  21.153  1.00 29.37 LIG-0.35  N 
ATOM     26 H    TYR B 805      48.615  51.185  21.466  1.00 29.37 LIG 0.16  HD
ATOM     27 O    LEU B 804      47.561  53.902  20.744  1.00 28.94 LIG-0.27  OA
BRANCH 25 28
ATOM     28  CA  TYR B 805      49.790  52.293  20.320  1.00 29.00 LIG 0.18  C 
BRANCH 28 29
ATOM     29  CB  TYR B 805      49.323  52.737  18.923  1.00 27.91 LIG 0.07  C 
BRANCH 29 30
ATOM     30  CG  TYR B 805      49.477  51.564  17.980  1.00 26.10 LIG-0.06  A 
ATOM     31  CD1 TYR B 805      48.387  50.801  17.602  1.00 25.09 LIG 0.01  A 
ATOM     32  CE1 TYR B 805      48.527  49.679  16.807  1.00 24.79 LIG 0.04  A 
ATOM     33  CZ  TYR B 805      49.773  49.271  16.434  1.00 22.85 LIG 0.07  A 
ATOM     34  CE2 TYR B 805      50.886  50.015  16.795  1.00 24.72 LIG 0.04  A 
ATOM     35  CD2 TYR B 805      50.728  51.149  17.584  1.00 24.65 LIG 0.01  A 
BRANCH 33 36
ATOM     36 OH   TYR B 805      49.918  48.189  15.597  1.00 25.16 LIG-0.36  OA
ATOM     37 HH   TYR B 805      50.347  47.584  15.992  1.00 25.16 LIG 0.22  HD
ENDBRANCH 33 36
ENDBRANCH 29 30
ENDBRANCH 28 29
BRANCH 28 38
ATOM     38  C   TYR B 805      50.759  53.312  20.922  1.00 29.85 LIG 0.24  C 
ATOM     39 O    TYR B 805      50.571  53.770  22.084  1.00 30.08 LIG-0.27  OA
ATOM     40  N   GLY B 806      51.768  53.654  20.138  1.00 28.51 LIG-0.35  N 
ATOM     41 H    GLY B 806      51.813  53.457  19.302  1.00 28.51 LIG 0.16  HD
BRANCH 40 42
ATOM     42  CA  GLY B 806      52.898  54.400  20.635  1.00 29.14 LIG 0.23  C 
BRANCH 42 43
ATOM     43  C   GLY B 806      53.487  55.307  19.600  1.00 28.84 LIG 0.19  C 
ATOM     44 OXT  GLY B 806      53.317  56.506  19.759  1.00 29.15 LIG-0.65  OA
ATOM     45 O    GLY B 806      54.143  54.883  18.637  1.00 28.96 LIG-0.65  OA
ENDBRANCH 42 43
ENDBRANCH 40 42
ENDBRANCH 28 38
ENDBRANCH 25 28
ENDBRANCH 1 24
BRANCH 1 46
ATOM     46  CB  LEU B 804      45.247  52.651  21.952  1.00 30.53 LIG 0.04  C 
BRANCH 46 47
ATOM     47  CG  LEU B 804      44.188  51.895  22.774  1.00 30.66 LIG-0.02  C 
ATOM     48  CD1 LEU B 804      43.198  51.205  21.847  1.00 31.81 LIG 0.01  C 
ATOM     49  CD2 LEU B 804      44.834  50.895  23.708  1.00 30.59 LIG 0.01  C 
ENDBRANCH 46 47
ENDBRANCH 1 46
TORSDOF 19
ENDMDL
MODEL 8
USER: ADFR SOLUTION from run 121
USER: SCORE 16.470898 LL:  -3.097 LR: -14.901 RR:   0.000 FEB:  -9.234
USER: RMSD 7.041366
USER: SEED 120
USER: STATUS no improvement in best 139 clusters for 5 generations
USER: GENES 21
USER: genes 0 Translation |==|  0.47957 0.52856 0.45966
USER: genes 1 Rotation |==|  0.96120 0.56755 0.66272 0.57906
USER: genes 2 Torsion [CB]-CA--N-[C] |==|  0.50271
USER: genes 3 Torsion [N]-C--CA-[N] |==|  0.20769
USER: genes 4 Torsion [C]-CA--CB-[CG] |==|  0.29310
USER: genes 5 Torsion [CA]-CB--CG-[OD1] |==|  0.77376
USER: genes 6 Torsion [C]-CA--N-[C] |==|  0.68991
USER: genes 7 Torsion [N]-C--CA-[N] |==|  0.20054
USER: genes 8 Torsion [C]-CA--CB-[CG] |==|  0.34743
USER: genes 9 Torsion [CA]-CB--CG-[OD1] |==|  0.75334
USER: genes 10 Torsion [C]-CA--N-[H3] |==|  0.52232
USER: genes 11 Torsion [N]-CA--C-[N] |==|  0.45105
USER: genes 12 Torsion [C]-N--CA-[CB] |==|  0.56667
USER: genes 13 Torsion [N]-CA--CB-[CG] |==|  0.88005
USER: genes 14 Torsion [CA]-CB--CG-[CD2] |==|  0.88573
USER: genes 15 Torsion [CE1]-CZ--OH-[HH] |==|  0.06869
USER: genes 16 Torsion [N]-CA--C-[N] |==|  0.30089
USER: genes 17 Torsion [C]-N--CA-[C] |==|  0.67492
USER: genes 18 Torsion [N]-CA--C-[OXT] |==|  0.34193
USER: genes 19 Torsion [N]-CA--CB-[CG] |==|  0.65534
USER: genes 20 Torsion [CA]-CB--CG-[CD1] |==|  0.43390
ROOT
ATOM      1  CA  LEU B 804      49.327  53.127  20.640  1.00 31.72 LIG 0.18  C 
ENDROOT
BRANCH 1 2
ATOM      2  N   LEU B 804      50.600  53.831  20.442  1.00 32.47 LIG-0.35  N 
ATOM      3 H    LEU B 804      50.509  54.677  20.323  1.00 32.47 LIG 0.16  HD
ATOM      4  C   ASP B 803      51.785  53.224  20.447  1.00 36.20 LIG 0.24  C 
ATOM      5 O    ASP B 803      51.946  51.993  20.546  1.00 34.88 LIG-0.27  OA
BRANCH 4 6
ATOM      6  CA  ASP B 803      52.988  54.172  20.326  1.00 38.58 LIG 0.19  C 
BRANCH 6 7
ATOM      7  CB  ASP B 803      54.213  53.427  19.816  1.00 39.00 LIG 0.15  C 
BRANCH 7 8
ATOM      8  CG  ASP B 803      54.511  53.764  18.351  1.00 41.67 LIG 0.17  C 
ATOM      9 OD1  ASP B 803      53.850  53.158  17.457  1.00 44.54 LIG-0.65  OA
ATOM     10 OD2  ASP B 803      55.426  54.591  18.102  1.00 44.60 LIG-0.65  OA
ENDBRANCH 7 8
ENDBRANCH 6 7
BRANCH 6 11
ATOM     11  N   ASP B 803      53.216  54.873  21.579  1.00 40.89 LIG-0.34  N 
ATOM     12 H    ASP B 803      53.491  54.386  22.234  1.00 40.89 LIG 0.16  HD
ATOM     13  C   ASP B 802      52.992  56.187  21.639  1.00 43.36 LIG 0.25  C 
ATOM     14 O    ASP B 802      52.579  56.833  20.664  1.00 44.71 LIG-0.27  OA
BRANCH 13 15
ATOM     15  CA  ASP B 802      53.296  56.898  22.960  1.00 44.06 LIG 0.28  C 
BRANCH 15 16
ATOM     16  CB  ASP B 802      52.690  58.306  22.970  1.00 45.52 LIG 0.15  C 
BRANCH 16 17
ATOM     17  CG  ASP B 802      51.777  58.549  24.168  1.00 48.04 LIG 0.17  C 
ATOM     18 OD1  ASP B 802      50.549  58.268  24.100  1.00 55.65 LIG-0.65  OA
ATOM     19 OD2  ASP B 802      52.304  59.026  25.194  1.00 54.24 LIG-0.65  OA
ENDBRANCH 16 17
ENDBRANCH 15 16
BRANCH 15 20
ATOM     20  N   ASP B 802      54.765  56.987  23.146  1.00 45.51 LIG-0.07  N 
ATOM     21 H3   ASP B 802      54.943  57.294  23.963  1.00 45.51 LIG 0.28  HD
ATOM     22 H1   ASP B 802      55.127  56.179  23.048  1.00 45.51 LIG 0.28  HD
ATOM     23 H2   ASP B 802      55.109  57.542  22.540  1.00 45.51 LIG 0.28  HD
ENDBRANCH 15 20
ENDBRANCH 13 15
ENDBRANCH 6 11
ENDBRANCH 4 6
ENDBRANCH 1 2
BRANCH 1 24
ATOM     24  C   LEU B 804      49.072  51.992  19.637  1.00 30.12 LIG 0.24  C 
ATOM     25  N   TYR B 805      48.145  51.091  19.954  1.00 29.37 LIG-0.35  N 
ATOM     26 H    TYR B 805      47.576  51.195  20.590  1.00 29.37 LIG 0.16  HD
ATOM     27 O    LEU B 804      49.686  51.954  18.594  1.00 28.94 LIG-0.27  OA
BRANCH 25 28
ATOM     28  CA  TYR B 805      48.018  49.822  19.232  1.00 29.00 LIG 0.18  C 
BRANCH 28 29
ATOM     29  CB  TYR B 805      46.583  49.287  19.379  1.00 27.91 LIG 0.07  C 
BRANCH 29 30
ATOM     30  CG  TYR B 805      46.159  49.468  20.819  1.00 26.10 LIG-0.06  A 
ATOM     31  CD1 TYR B 805      44.934  50.025  21.141  1.00 25.09 LIG 0.01  A 
ATOM     32  CE1 TYR B 805      44.568  50.270  22.451  1.00 24.79 LIG 0.04  A 
ATOM     33  CZ  TYR B 805      45.456  50.020  23.454  1.00 22.85 LIG 0.07  A 
ATOM     34  CE2 TYR B 805      46.692  49.460  23.166  1.00 24.72 LIG 0.04  A 
ATOM     35  CD2 TYR B 805      47.040  49.206  21.844  1.00 24.65 LIG 0.01  A 
BRANCH 33 36
ATOM     36 OH   TYR B 805      45.081  50.208  24.765  1.00 25.16 LIG-0.36  OA
ATOM     37 HH   TYR B 805      44.246  50.142  24.829  1.00 25.16 LIG 0.22  HD
ENDBRANCH 33 36
ENDBRANCH 29 30
ENDBRANCH 28 29
BRANCH 28 38
ATOM     38  C   TYR B 805      48.433  49.875  17.761  1.00 29.85 LIG 0.24  C 
ATOM     39 O    TYR B 805      47.716  50.474  16.911  1.00 30.08 LIG-0.27  OA
ATOM     40  N   GLY B 806      49.568  49.256  17.478  1.00 28.51 LIG-0.35  N 
ATOM     41 H    GLY B 806      49.974  48.728  18.022  1.00 28.51 LIG 0.16  HD
BRANCH 40 42
ATOM     42  CA  GLY B 806      50.227  49.421  16.206  1.00 29.14 LIG 0.23  C 
BRANCH 42 43
ATOM     43  C   GLY B 806      50.311  48.141  15.433  1.00 28.84 LIG 0.19  C 
ATOM     44 OXT  GLY B 806      49.819  48.140  14.316  1.00 29.15 LIG-0.65  OA
ATOM     45 O    GLY B 806      50.875  47.129  15.878  1.00 28.96 LIG-0.65  OA
ENDBRANCH 42 43
ENDBRANCH 40 42
ENDBRANCH 28 38
ENDBRANCH 25 28
ENDBRANCH 1 24
BRANCH 1 46
ATOM     46  CB  LEU B 804      48.182  54.144  20.547  1.00 30.53 LIG 0.04  C 
BRANCH 46 47
ATOM     47  CG  LEU B 804      47.255  54.185  21.775  1.00 30.66 LIG-0.02  C 
ATOM     48  CD1 LEU B 804      46.564  55.537  21.867  1.00 31.81 LIG 0.01  C 
ATOM     49  CD2 LEU B 804      46.237  53.065  21.728  1.00 30.59 LIG 0.01  C 
ENDBRANCH 46 47
ENDBRANCH 1 46
TORSDOF 19
ENDMDL
MODEL 9
USER: ADFR SOLUTION from run 165
USER: SCORE 17.047494 LL:  -4.153 LR: -14.438 RR:   0.000 FEB:  -8.770
USER: RMSD 8.990440
USER: SEED 164
USER: STATUS no improvement in best 147 clusters for 5 generations
USER: GENES 21
USER: genes 0 Translation |==|  0.37916 0.51696 0.51874
USER: genes 1 Rotation |==|  0.17331 0.38076 0.18331 0.66959
USER: genes 2 Torsion [CB]-CA--N-[C] |==|  0.81499
USER: genes 3 Torsion [N]-C--CA-[N] |==|  0.89054
USER: genes 4 Torsion [C]-CA--CB-[CG] |==|  0.35074
USER: genes 5 Torsion [CA]-CB--CG-[OD1] |==|  0.66130
USER: genes 6 Torsion [C]-CA--N-[C] |==|  0.79471
USER: genes 7 Torsion [N]-C--CA-[N] |==|  0.66286
USER: genes 8 Torsion [C]-CA--CB-[CG] |==|  0.76057
USER: genes 9 Torsion [CA]-CB--CG-[OD1] |==|  0.10010
USER: genes 10 Torsion [C]-CA--N-[H3] |==|  0.67633
USER: genes 11 Torsion [N]-CA--C-[N] |==|  0.33460
USER: genes 12 Torsion [C]-N--CA-[CB] |==|  0.35359
USER: genes 13 Torsion [N]-CA--CB-[CG] |==|  0.57566
USER: genes 14 Torsion [CA]-CB--CG-[CD2] |==|  0.22977
USER: genes 15 Torsion [CE1]-CZ--OH-[HH] |==|  0.69461
USER: genes 16 Torsion [N]-CA--C-[N] |==|  0.86667
USER: genes 17 Torsion [C]-N--CA-[C] |==|  0.26374
USER: genes 18 Torsion [N]-CA--C-[OXT] |==|  0.00218
USER: genes 19 Torsion [N]-CA--CB-[CG] |==|  0.74351
USER: genes 20 Torsion [CA]-CB--CG-[CD1] |==|  0.66326
ROOT
ATOM      1  CA  LEU B 804      46.315  52.779  22.412  1.00 31.72 LIG 0.18  C 
ENDROOT
BRANCH 1 2
ATOM      2  N   LEU B 804      46.559  53.611  23.597  1.00 32.47 LIG-0.35  N 
ATOM      3 H    LEU B 804      46.734  53.156  24.306  1.00 32.47 LIG 0.16  HD
ATOM      4  C   ASP B 803      46.515  54.941  23.584  1.00 36.20 LIG 0.24  C 
ATOM      5 O    ASP B 803      46.195  55.625  22.594  1.00 34.88 LIG-0.27  OA
BRANCH 4 6
ATOM      6  CA  ASP B 803      46.906  55.606  24.913  1.00 38.58 LIG 0.19  C 
BRANCH 6 7
ATOM      7  CB  ASP B 803      48.410  55.820  24.988  1.00 39.00 LIG 0.15  C 
BRANCH 7 8
ATOM      8  CG  ASP B 803      48.759  57.279  25.298  1.00 41.67 LIG 0.17  C 
ATOM      9 OD1  ASP B 803      49.488  57.904  24.472  1.00 44.54 LIG-0.65  OA
ATOM     10 OD2  ASP B 803      48.343  57.777  26.377  1.00 44.60 LIG-0.65  OA
ENDBRANCH 7 8
ENDBRANCH 6 7
BRANCH 6 11
ATOM     11  N   ASP B 803      46.370  54.854  26.038  1.00 40.89 LIG-0.34  N 
ATOM     12 H    ASP B 803      46.944  54.393  26.484  1.00 40.89 LIG 0.16  HD
ATOM     13  C   ASP B 802      45.065  54.922  26.302  1.00 43.36 LIG 0.25  C 
ATOM     14 O    ASP B 802      44.283  55.593  25.610  1.00 44.71 LIG-0.27  OA
BRANCH 13 15
ATOM     15  CA  ASP B 802      44.548  54.162  27.526  1.00 44.06 LIG 0.28  C 
BRANCH 15 16
ATOM     16  CB  ASP B 802      45.692  53.429  28.233  1.00 45.52 LIG 0.15  C 
BRANCH 16 17
ATOM     17  CG  ASP B 802      45.964  52.048  27.644  1.00 48.04 LIG 0.17  C 
ATOM     18 OD1  ASP B 802      45.849  51.851  26.403  1.00 55.65 LIG-0.65  OA
ATOM     19 OD2  ASP B 802      46.303  51.149  28.441  1.00 54.24 LIG-0.65  OA
ENDBRANCH 16 17
ENDBRANCH 15 16
BRANCH 15 20
ATOM     20  N   ASP B 802      43.518  53.183  27.100  1.00 45.51 LIG-0.07  N 
ATOM     21 H3   ASP B 802      42.736  53.396  27.468  1.00 45.51 LIG 0.28  HD
ATOM     22 H1   ASP B 802      43.442  53.198  26.213  1.00 45.51 LIG 0.28  HD
ATOM     23 H2   ASP B 802      43.756  52.367  27.364  1.00 45.51 LIG 0.28  HD
ENDBRANCH 15 20
ENDBRANCH 13 15
ENDBRANCH 6 11
ENDBRANCH 4 6
ENDBRANCH 1 2
BRANCH 1 24
ATOM     24  C   LEU B 804      47.214  53.110  21.212  1.00 30.12 LIG 0.24  C 
ATOM     25  N   TYR B 805      47.995  52.139  20.745  1.00 29.37 LIG-0.35  N 
ATOM     26 H    TYR B 805      47.906  51.311  20.958  1.00 29.37 LIG 0.16  HD
ATOM     27 O    LEU B 804      47.178  54.214  20.713  1.00 28.94 LIG-0.27  OA
BRANCH 25 28
ATOM     28  CA  TYR B 805      49.091  52.408  19.809  1.00 29.00 LIG 0.18  C 
BRANCH 28 29
ATOM     29  CB  TYR B 805      50.394  51.798  20.355  1.00 27.91 LIG 0.07  C 
BRANCH 29 30
ATOM     30  CG  TYR B 805      51.554  52.601  19.810  1.00 26.10 LIG-0.06  A 
ATOM     31  CD1 TYR B 805      52.340  52.118  18.780  1.00 25.09 LIG 0.01  A 
ATOM     32  CE1 TYR B 805      53.450  52.805  18.328  1.00 24.79 LIG 0.04  A 
ATOM     33  CZ  TYR B 805      53.825  53.959  18.951  1.00 22.85 LIG 0.07  A 
ATOM     34  CE2 TYR B 805      53.058  54.471  19.986  1.00 24.72 LIG 0.04  A 
ATOM     35  CD2 TYR B 805      51.936  53.775  20.420  1.00 24.65 LIG 0.01  A 
BRANCH 33 36
ATOM     36 OH   TYR B 805      54.896  54.679  18.474  1.00 25.16 LIG-0.36  OA
ATOM     37 HH   TYR B 805      55.536  54.620  19.015  1.00 25.16 LIG 0.22  HD
ENDBRANCH 33 36
ENDBRANCH 29 30
ENDBRANCH 28 29
BRANCH 28 38
ATOM     38  C   TYR B 805      48.834  51.955  18.372  1.00 29.85 LIG 0.24  C 
ATOM     39 O    TYR B 805      49.058  52.733  17.402  1.00 30.08 LIG-0.27  OA
ATOM     40  N   GLY B 806      48.372  50.721  18.248  1.00 28.51 LIG-0.35  N 
ATOM     41 H    GLY B 806      48.082  50.250  18.907  1.00 28.51 LIG 0.16  HD
BRANCH 40 42
ATOM     42  CA  GLY B 806      48.315  50.054  16.971  1.00 29.14 LIG 0.23  C 
BRANCH 42 43
ATOM     43  C   GLY B 806      49.516  49.196  16.719  1.00 28.84 LIG 0.19  C 
ATOM     44 OXT  GLY B 806      50.358  49.156  17.602  1.00 29.15 LIG-0.65  OA
ATOM     45 O    GLY B 806      49.653  48.529  15.682  1.00 28.96 LIG-0.65  OA
ENDBRANCH 42 43
ENDBRANCH 40 42
ENDBRANCH 28 38
ENDBRANCH 25 28
ENDBRANCH 1 24
BRANCH 1 46
ATOM     46  CB  LEU B 804      44.846  52.935  21.995  1.00 30.53 LIG 0.04  C 
BRANCH 46 47
ATOM     47  CG  LEU B 804      43.890  51.892  22.600  1.00 30.66 LIG-0.02  C 
ATOM     48  CD1 LEU B 804      43.190  51.117  21.495  1.00 31.81 LIG 0.01  C 
ATOM     49  CD2 LEU B 804      44.627  50.952  23.530  1.00 30.59 LIG 0.01  C 
ENDBRANCH 46 47
ENDBRANCH 1 46
TORSDOF 19
ENDMDL
MODEL 10
USER: ADFR SOLUTION from run 59
USER: SCORE 16.422382 LL:  -4.064 LR: -14.393 RR:   0.000 FEB:  -8.726
USER: RMSD 4.793811
USER: SEED 58
USER: STATUS no improvement in best 147 clusters for 5 generations
USER: GENES 21
USER: genes 0 Translation |==|  0.46490 0.51964 0.42440
USER: genes 1 Rotation |==|  0.33248 0.66801 0.61949 0.92359
USER: genes 2 Torsion [CB]-CA--N-[C] |==|  0.76093
USER: genes 3 Torsion [N]-C--CA-[N] |==|  0.48480
USER: genes 4 Torsion [C]-CA--CB-[CG] |==|  0.40779
USER: genes 5 Torsion [CA]-CB--CG-[OD1] |==|  0.07364
USER: genes 6 Torsion [C]-CA--N-[C] |==|  0.71675
USER: genes 7 Torsion [N]-C--CA-[N] |==|  0.37768
USER: genes 8 Torsion [C]-CA--CB-[CG] |==|  0.78891
USER: genes 9 Torsion [CA]-CB--CG-[OD1] |==|  0.90446
USER: genes 10 Torsion [C]-CA--N-[H3] |==|  0.67335
USER: genes 11 Torsion [N]-CA--C-[N] |==|  0.71436
USER: genes 12 Torsion [C]-N--CA-[CB] |==|  0.16483
USER: genes 13 Torsion [N]-CA--CB-[CG] |==|  0.20223
USER: genes 14 Torsion [CA]-CB--CG-[CD2] |==|  0.39236
USER: genes 15 Torsion [CE1]-CZ--OH-[HH] |==|  0.54199
USER: genes 16 Torsion [N]-CA--C-[N] |==|  0.57478
USER: genes 17 Torsion [C]-N--CA-[C] |==|  0.82409
USER: genes 18 Torsion [N]-CA--C-[OXT] |==|  0.42387
USER: genes 19 Torsion [N]-CA--CB-[CG] |==|  0.76415
USER: genes 20 Torsion [CA]-CB--CG-[CD1] |==|  0.80111
ROOT
ATOM      1  CA  LEU B 804      48.887  52.859  19.582  1.00 31.72 LIG 0.18  C 
ENDROOT
BRANCH 1 2
ATOM      2  N   LEU B 804      50.281  53.302  19.451  1.00 32.47 LIG-0.35  N 
ATOM      3 H    LEU B 804      50.581  53.259  18.646  1.00 32.47 LIG 0.16  HD
ATOM      4  C   ASP B 803      51.015  53.731  20.475  1.00 36.20 LIG 0.24  C 
ATOM      5 O    ASP B 803      50.635  53.740  21.660  1.00 34.88 LIG-0.27  OA
BRANCH 4 6
ATOM      6  CA  ASP B 803      52.411  54.242  20.088  1.00 38.58 LIG 0.19  C 
BRANCH 6 7
ATOM      7  CB  ASP B 803      53.211  53.152  19.390  1.00 39.00 LIG 0.15  C 
BRANCH 7 8
ATOM      8  CG  ASP B 803      54.151  53.733  18.329  1.00 41.67 LIG 0.17  C 
ATOM      9 OD1  ASP B 803      54.553  54.925  18.480  1.00 44.54 LIG-0.65  OA
ATOM     10 OD2  ASP B 803      54.445  53.019  17.335  1.00 44.60 LIG-0.65  OA
ENDBRANCH 7 8
ENDBRANCH 6 7
BRANCH 6 11
ATOM     11  N   ASP B 803      53.088  54.807  21.245  1.00 40.89 LIG-0.34  N 
ATOM     12 H    ASP B 803      53.427  54.236  21.793  1.00 40.89 LIG 0.16  HD
ATOM     13  C   ASP B 802      53.142  56.133  21.384  1.00 43.36 LIG 0.25  C 
ATOM     14 O    ASP B 802      52.619  56.905  20.567  1.00 44.71 LIG-0.27  OA
BRANCH 13 15
ATOM     15  CA  ASP B 802      53.910  56.690  22.585  1.00 44.06 LIG 0.28  C 
BRANCH 15 16
ATOM     16  CB  ASP B 802      52.944  57.157  23.679  1.00 45.52 LIG 0.15  C 
BRANCH 16 17
ATOM     17  CG  ASP B 802      52.277  58.490  23.349  1.00 48.04 LIG 0.17  C 
ATOM     18 OD1  ASP B 802      52.908  59.378  22.713  1.00 55.65 LIG-0.65  OA
ATOM     19 OD2  ASP B 802      51.099  58.643  23.733  1.00 54.24 LIG-0.65  OA
ENDBRANCH 16 17
ENDBRANCH 15 16
BRANCH 15 20
ATOM     20  N   ASP B 802      54.754  57.829  22.146  1.00 45.51 LIG-0.07  N 
ATOM     21 H3   ASP B 802      55.611  57.633  22.282  1.00 45.51 LIG 0.28  HD
ATOM     22 H1   ASP B 802      54.618  57.983  21.280  1.00 45.51 LIG 0.28  HD
ATOM     23 H2   ASP B 802      54.539  58.555  22.614  1.00 45.51 LIG 0.28  HD
ENDBRANCH 15 20
ENDBRANCH 13 15
ENDBRANCH 6 11
ENDBRANCH 4 6
ENDBRANCH 1 2
BRANCH 1 24
ATOM     24  C   LEU B 804      48.067  53.649  20.613  1.00 30.12 LIG 0.24  C 
ATOM     25  N   TYR B 805      47.844  53.072  21.791  1.00 29.37 LIG-0.35  N 
ATOM     26 H    TYR B 805      48.262  52.373  22.067  1.00 29.37 LIG 0.16  HD
ATOM     27 O    LEU B 804      47.672  54.764  20.348  1.00 28.94 LIG-0.27  OA
BRANCH 25 28
ATOM     28  CA  TYR B 805      46.848  53.591  22.732  1.00 29.00 LIG 0.18  C 
BRANCH 28 29
ATOM     29  CB  TYR B 805      45.460  53.589  22.068  1.00 27.91 LIG 0.07  C 
BRANCH 29 30
ATOM     30  CG  TYR B 805      44.985  52.157  21.976  1.00 26.10 LIG-0.06  A 
ATOM     31  CD1 TYR B 805      45.825  51.149  21.538  1.00 25.09 LIG 0.01  A 
ATOM     32  CE1 TYR B 805      45.380  49.852  21.373  1.00 24.79 LIG 0.04  A 
ATOM     33  CZ  TYR B 805      44.065  49.561  21.583  1.00 22.85 LIG 0.07  A 
ATOM     34  CE2 TYR B 805      43.196  50.548  22.024  1.00 24.72 LIG 0.04  A 
ATOM     35  CD2 TYR B 805      43.662  51.846  22.199  1.00 24.65 LIG 0.01  A 
BRANCH 33 36
ATOM     36 OH   TYR B 805      43.624  48.262  21.475  1.00 25.16 LIG-0.36  OA
ATOM     37 HH   TYR B 805      42.785  48.254  21.422  1.00 25.16 LIG 0.22  HD
ENDBRANCH 33 36
ENDBRANCH 29 30
ENDBRANCH 28 29
BRANCH 28 38
ATOM     38  C   TYR B 805      46.808  52.877  24.084  1.00 29.85 LIG 0.24  C 
ATOM     39 O    TYR B 805      47.837  52.303  24.539  1.00 30.08 LIG-0.27  OA
ATOM     40  N   GLY B 806      45.638  52.916  24.702  1.00 28.51 LIG-0.35  N 
ATOM     41 H    GLY B 806      44.908  53.175  24.329  1.00 28.51 LIG 0.16  HD
BRANCH 40 42
ATOM     42  CA  GLY B 806      45.494  52.518  26.081  1.00 29.14 LIG 0.23  C 
BRANCH 42 43
ATOM     43  C   GLY B 806      45.815  51.071  26.296  1.00 28.84 LIG 0.19  C 
ATOM     44 OXT  GLY B 806      46.222  50.758  27.404  1.00 29.15 LIG-0.65  OA
ATOM     45 O    GLY B 806      45.655  50.214  25.414  1.00 28.96 LIG-0.65  OA
ENDBRANCH 42 43
ENDBRANCH 40 42
ENDBRANCH 28 38
ENDBRANCH 25 28
ENDBRANCH 1 24
BRANCH 1 46
ATOM     46  CB  LEU B 804      48.876  51.374  19.967  1.00 30.53 LIG 0.04  C 
BRANCH 46 47
ATOM     47  CG  LEU B 804      48.980  50.400  18.779  1.00 30.66 LIG-0.02  C 
ATOM     48  CD1 LEU B 804      47.682  50.400  17.985  1.00 31.81 LIG 0.01  C 
ATOM     49  CD2 LEU B 804      50.152  50.750  17.888  1.00 30.59 LIG 0.01  C 
ENDBRANCH 46 47
ENDBRANCH 1 46
TORSDOF 19
ENDMDL
MODEL 11
USER: ADFR SOLUTION from run 66
USER: SCORE 16.580374 LL:  -4.013 LR: -14.305 RR:   0.000 FEB:  -8.637
USER: RMSD 4.361870
USER: SEED 65
USER: STATUS no improvement in best 149 clusters for 5 generations
USER: GENES 21
USER: genes 0 Translation |==|  0.48166 0.51956 0.47239
USER: genes 1 Rotation |==|  0.81324 0.29957 0.31175 0.77616
USER: genes 2 Torsion [CB]-CA--N-[C] |==|  0.61426
USER: genes 3 Torsion [N]-C--CA-[N] |==|  0.95734
USER: genes 4 Torsion [C]-CA--CB-[CG] |==|  0.61891
USER: genes 5 Torsion [CA]-CB--CG-[OD1] |==|  0.20716
USER: genes 6 Torsion [C]-CA--N-[C] |==|  0.78581
USER: genes 7 Torsion [N]-C--CA-[N] |==|  0.87879
USER: genes 8 Torsion [C]-CA--CB-[CG] |==|  0.40195
USER: genes 9 Torsion [CA]-CB--CG-[OD1] |==|  0.64646
USER: genes 10 Torsion [C]-CA--N-[H3] |==|  0.84296
USER: genes 11 Torsion [N]-CA--C-[N] |==|  0.28912
USER: genes 12 Torsion [C]-N--CA-[CB] |==|  0.33931
USER: genes 13 Torsion [N]-CA--CB-[CG] |==|  0.75437
USER: genes 14 Torsion [CA]-CB--CG-[CD2] |==|  0.38175
USER: genes 15 Torsion [CE1]-CZ--OH-[HH] |==|  0.76890
USER: genes 16 Torsion [N]-CA--C-[N] |==|  0.91666
USER: genes 17 Torsion [C]-N--CA-[C] |==|  0.66283
USER: genes 18 Torsion [N]-CA--C-[OXT] |==|  0.59808
USER: genes 19 Torsion [N]-CA--CB-[CG] |==|  0.77090
USER: genes 20 Torsion [CA]-CB--CG-[CD1] |==|  0.68274
ROOT
ATOM      1  CA  LEU B 804      49.390  52.857  21.022  1.00 31.72 LIG 0.18  C 
ENDROOT
BRANCH 1 2
ATOM      2  N   LEU B 804      49.118  51.568  20.374  1.00 32.47 LIG-0.35  N 
ATOM      3 H    LEU B 804      49.758  51.295  19.870  1.00 32.47 LIG 0.16  HD
ATOM      4  C   ASP B 803      47.990  50.882  20.546  1.00 36.20 LIG 0.24  C 
ATOM      5 O    ASP B 803      47.016  51.282  21.211  1.00 34.88 LIG-0.27  OA
BRANCH 4 6
ATOM      6  CA  ASP B 803      47.965  49.511  19.854  1.00 38.58 LIG 0.19  C 
BRANCH 6 7
ATOM      7  CB  ASP B 803      47.983  48.387  20.880  1.00 39.00 LIG 0.15  C 
BRANCH 7 8
ATOM      8  CG  ASP B 803      48.934  47.259  20.467  1.00 41.67 LIG 0.17  C 
ATOM      9 OD1  ASP B 803      50.179  47.462  20.581  1.00 44.54 LIG-0.65  OA
ATOM     10 OD2  ASP B 803      48.440  46.204  19.992  1.00 44.60 LIG-0.65  OA
ENDBRANCH 7 8
ENDBRANCH 6 7
BRANCH 6 11
ATOM     11  N   ASP B 803      49.032  49.414  18.870  1.00 40.89 LIG-0.34  N 
ATOM     12 H    ASP B 803      49.718  48.953  19.109  1.00 40.89 LIG 0.16  HD
ATOM     13  C   ASP B 802      48.889  50.027  17.694  1.00 43.36 LIG 0.25  C 
ATOM     14 O    ASP B 802      47.881  50.693  17.413  1.00 44.71 LIG-0.27  OA
BRANCH 13 15
ATOM     15  CA  ASP B 802      50.009  49.857  16.665  1.00 44.06 LIG 0.28  C 
BRANCH 15 16
ATOM     16  CB  ASP B 802      49.924  48.484  15.990  1.00 45.52 LIG 0.15  C 
BRANCH 16 17
ATOM     17  CG  ASP B 802      50.333  48.520  14.520  1.00 48.04 LIG 0.17  C 
ATOM     18 OD1  ASP B 802      49.568  48.048  13.635  1.00 55.65 LIG-0.65  OA
ATOM     19 OD2  ASP B 802      51.438  49.036  14.252  1.00 54.24 LIG-0.65  OA
ENDBRANCH 16 17
ENDBRANCH 15 16
BRANCH 15 20
ATOM     20  N   ASP B 802      51.324  50.001  17.338  1.00 45.51 LIG-0.07  N 
ATOM     21 H3   ASP B 802      51.361  50.789  17.751  1.00 45.51 LIG 0.28  HD
ATOM     22 H1   ASP B 802      51.425  49.348  17.935  1.00 45.51 LIG 0.28  HD
ATOM     23 H2   ASP B 802      51.974  49.954  16.732  1.00 45.51 LIG 0.28  HD
ENDBRANCH 15 20
ENDBRANCH 13 15
ENDBRANCH 6 11
ENDBRANCH 4 6
ENDBRANCH 1 2
BRANCH 1 24
ATOM     24  C   LEU B 804      48.143  53.556  21.584  1.00 30.12 LIG 0.24  C 
ATOM     25  N   TYR B 805      47.961  53.518  22.901  1.00 29.37 LIG-0.35  N 
ATOM     26 H    TYR B 805      48.569  53.279  23.461  1.00 29.37 LIG 0.16  HD
ATOM     27 O    LEU B 804      47.384  54.135  20.838  1.00 28.94 LIG-0.27  OA
BRANCH 25 28
ATOM     28  CA  TYR B 805      46.684  53.888  23.519  1.00 29.00 LIG 0.18  C 
BRANCH 28 29
ATOM     29  CB  TYR B 805      46.152  52.706  24.348  1.00 27.91 LIG 0.07  C 
BRANCH 29 30
ATOM     30  CG  TYR B 805      45.320  51.830  23.438  1.00 26.10 LIG-0.06  A 
ATOM     31  CD1 TYR B 805      44.339  52.370  22.625  1.00 25.09 LIG 0.01  A 
ATOM     32  CE1 TYR B 805      43.518  51.573  21.849  1.00 24.79 LIG 0.04  A 
ATOM     33  CZ  TYR B 805      43.628  50.217  21.931  1.00 22.85 LIG 0.07  A 
ATOM     34  CE2 TYR B 805      44.602  49.644  22.735  1.00 24.72 LIG 0.04  A 
ATOM     35  CD2 TYR B 805      45.429  50.459  23.498  1.00 24.65 LIG 0.01  A 
BRANCH 33 36
ATOM     36 OH   TYR B 805      42.853  49.417  21.122  1.00 25.16 LIG-0.36  OA
ATOM     37 HH   TYR B 805      42.095  49.318  21.469  1.00 25.16 LIG 0.22  HD
ENDBRANCH 33 36
ENDBRANCH 29 30
ENDBRANCH 28 29
BRANCH 28 38
ATOM     38  C   TYR B 805      46.721  55.169  24.354  1.00 29.85 LIG 0.24  C 
ATOM     39 O    TYR B 805      45.695  55.897  24.461  1.00 30.08 LIG-0.27  OA
ATOM     40  N   GLY B 806      47.886  55.430  24.926  1.00 28.51 LIG-0.35  N 
ATOM     41 H    GLY B 806      48.616  55.019  24.733  1.00 28.51 LIG 0.16  HD
BRANCH 40 42
ATOM     42  CA  GLY B 806      48.024  56.447  25.939  1.00 29.14 LIG 0.23  C 
BRANCH 42 43
ATOM     43  C   GLY B 806      49.013  57.505  25.558  1.00 28.84 LIG 0.19  C 
ATOM     44 OXT  GLY B 806      49.686  57.979  26.459  1.00 29.15 LIG-0.65  OA
ATOM     45 O    GLY B 806      49.176  57.874  24.385  1.00 28.96 LIG-0.65  OA
ENDBRANCH 42 43
ENDBRANCH 40 42
ENDBRANCH 28 38
ENDBRANCH 25 28
ENDBRANCH 1 24
BRANCH 1 46
ATOM     46  CB  LEU B 804      50.069  53.785  20.006  1.00 30.53 LIG 0.04  C 
BRANCH 46 47
ATOM     47  CG  LEU B 804      51.586  53.578  19.857  1.00 30.66 LIG-0.02  C 
ATOM     48  CD1 LEU B 804      52.335  54.808  20.346  1.00 31.81 LIG 0.01  C 
ATOM     49  CD2 LEU B 804      52.043  52.341  20.602  1.00 30.59 LIG 0.01  C 
ENDBRANCH 46 47
ENDBRANCH 1 46
TORSDOF 19
ENDMDL
MODEL 12
USER: ADFR SOLUTION from run 121
USER: SCORE 16.052666 LL:  -4.220 LR: -14.257 RR:   0.000 FEB:  -8.589
USER: RMSD 7.822641
USER: SEED 120
USER: STATUS no improvement in best 139 clusters for 5 generations
USER: GENES 21
USER: genes 0 Translation |==|  0.32556 0.61599 0.65877
USER: genes 1 Rotation |==|  0.50222 0.89977 0.46640 0.79841
USER: genes 2 Torsion [CB]-CA--N-[C] |==|  0.55006
USER: genes 3 Torsion [N]-C--CA-[N] |==|  0.99567
USER: genes 4 Torsion [C]-CA--CB-[CG] |==|  0.44034
USER: genes 5 Torsion [CA]-CB--CG-[OD1] |==|  0.06397
USER: genes 6 Torsion [C]-CA--N-[C] |==|  0.67368
USER: genes 7 Torsion [N]-C--CA-[N] |==|  0.88826
USER: genes 8 Torsion [C]-CA--CB-[CG] |==|  0.33908
USER: genes 9 Torsion [CA]-CB--CG-[OD1] |==|  0.24046
USER: genes 10 Torsion [C]-CA--N-[H3] |==|  0.51604
USER: genes 11 Torsion [N]-CA--C-[N] |==|  0.91667
USER: genes 12 Torsion [C]-N--CA-[CB] |==|  0.36691
USER: genes 13 Torsion [N]-CA--CB-[CG] |==|  0.00265
USER: genes 14 Torsion [CA]-CB--CG-[CD2] |==|  0.76022
USER: genes 15 Torsion [CE1]-CZ--OH-[HH] |==|  0.53692
USER: genes 16 Torsion [N]-CA--C-[N] |==|  0.86859
USER: genes 17 Torsion [C]-N--CA-[C] |==|  0.68629
USER: genes 18 Torsion [N]-CA--C-[OXT] |==|  0.99699
USER: genes 19 Torsion [N]-CA--CB-[CG] |==|  0.42955
USER: genes 20 Torsion [CA]-CB--CG-[CD1] |==|  0.22672
ROOT
ATOM      1  CA  LEU B 804      44.707  55.750  26.613  1.00 31.72 LIG 0.18  C 
ENDROOT
BRANCH 1 2
ATOM      2  N   LEU B 804      45.128  55.050  25.393  1.00 32.47 LIG-0.35  N 
ATOM      3 H    LEU B 804      44.693  54.324  25.246  1.00 32.47 LIG 0.16  HD
ATOM      4  C   ASP B 803      46.092  55.492  24.588  1.00 36.20 LIG 0.24  C 
ATOM      5 O    ASP B 803      46.788  56.499  24.809  1.00 34.88 LIG-0.27  OA
BRANCH 4 6
ATOM      6  CA  ASP B 803      46.293  54.654  23.315  1.00 38.58 LIG 0.19  C 
BRANCH 6 7
ATOM      7  CB  ASP B 803      46.194  55.527  22.073  1.00 39.00 LIG 0.15  C 
BRANCH 7 8
ATOM      8  CG  ASP B 803      46.889  54.880  20.871  1.00 41.67 LIG 0.17  C 
ATOM      9 OD1  ASP B 803      47.042  53.623  20.879  1.00 44.54 LIG-0.65  OA
ATOM     10 OD2  ASP B 803      47.316  55.629  19.953  1.00 44.60 LIG-0.65  OA
ENDBRANCH 7 8
ENDBRANCH 6 7
BRANCH 6 11
ATOM     11  N   ASP B 803      45.384  53.519  23.300  1.00 40.89 LIG-0.34  N 
ATOM     12 H    ASP B 803      44.546  53.713  23.286  1.00 40.89 LIG 0.16  HD
ATOM     13  C   ASP B 802      45.887  52.283  23.310  1.00 43.36 LIG 0.25  C 
ATOM     14 O    ASP B 802      47.109  52.067  23.348  1.00 44.71 LIG-0.27  OA
BRANCH 13 15
ATOM     15  CA  ASP B 802      44.902  51.115  23.238  1.00 44.06 LIG 0.28  C 
BRANCH 15 16
ATOM     16  CB  ASP B 802      44.453  50.870  21.794  1.00 45.52 LIG 0.15  C 
BRANCH 16 17
ATOM     17  CG  ASP B 802      44.755  49.455  21.312  1.00 48.04 LIG 0.17  C 
ATOM     18 OD1  ASP B 802      43.936  48.520  21.526  1.00 55.65 LIG-0.65  OA
ATOM     19 OD2  ASP B 802      45.832  49.282  20.704  1.00 54.24 LIG-0.65  OA
ENDBRANCH 16 17
ENDBRANCH 15 16
BRANCH 15 20
ATOM     20  N   ASP B 802      43.719  51.415  24.083  1.00 45.51 LIG-0.07  N 
ATOM     21 H3   ASP B 802      43.185  50.704  24.109  1.00 45.51 LIG 0.28  HD
ATOM     22 H1   ASP B 802      43.986  51.616  24.908  1.00 45.51 LIG 0.28  HD
ATOM     23 H2   ASP B 802      43.275  52.106  23.738  1.00 45.51 LIG 0.28  HD
ENDBRANCH 15 20
ENDBRANCH 13 15
ENDBRANCH 6 11
ENDBRANCH 4 6
ENDBRANCH 1 2
BRANCH 1 24
ATOM     24  C   LEU B 804      45.862  56.356  27.424  1.00 30.12 LIG 0.24  C 
ATOM     25  N   TYR B 805      47.040  55.743  27.365  1.00 29.37 LIG-0.35  N 
ATOM     26 H    TYR B 805      47.238  55.142  26.783  1.00 29.37 LIG 0.16  HD
ATOM     27 O    LEU B 804      45.685  57.369  28.066  1.00 28.94 LIG-0.27  OA
BRANCH 25 28
ATOM     28  CA  TYR B 805      48.122  56.049  28.306  1.00 29.00 LIG 0.18  C 
BRANCH 28 29
ATOM     29  CB  TYR B 805      48.707  54.739  28.862  1.00 27.91 LIG 0.07  C 
BRANCH 29 30
ATOM     30  CG  TYR B 805      47.970  53.585  28.220  1.00 26.10 LIG-0.06  A 
ATOM     31  CD1 TYR B 805      48.380  53.058  27.008  1.00 25.09 LIG 0.01  A 
ATOM     32  CE1 TYR B 805      47.670  52.058  26.372  1.00 24.79 LIG 0.04  A 
ATOM     33  CZ  TYR B 805      46.498  51.619  26.914  1.00 22.85 LIG 0.07  A 
ATOM     34  CE2 TYR B 805      46.060  52.124  28.128  1.00 24.72 LIG 0.04  A 
ATOM     35  CD2 TYR B 805      46.793  53.120  28.763  1.00 24.65 LIG 0.01  A 
BRANCH 33 36
ATOM     36 OH   TYR B 805      45.812  50.585  26.317  1.00 25.16 LIG-0.36  OA
ATOM     37 HH   TYR B 805      45.038  50.541  26.639  1.00 25.16 LIG 0.22  HD
ENDBRANCH 33 36
ENDBRANCH 29 30
ENDBRANCH 28 29
BRANCH 28 38
ATOM     38  C   TYR B 805      49.226  56.946  27.746  1.00 29.85 LIG 0.24  C 
ATOM     39 O    TYR B 805      49.643  57.940  28.404  1.00 30.08 LIG-0.27  OA
ATOM     40  N   GLY B 806      49.681  56.595  26.554  1.00 28.51 LIG-0.35  N 
ATOM     41 H    GLY B 806      49.299  56.015  26.048  1.00 28.51 LIG 0.16  HD
BRANCH 40 42
ATOM     42  CA  GLY B 806      50.880  57.173  25.997  1.00 29.14 LIG 0.23  C 
BRANCH 42 43
ATOM     43  C   GLY B 806      50.602  58.024  24.797  1.00 28.84 LIG 0.19  C 
ATOM     44 OXT  GLY B 806      49.438  58.105  24.438  1.00 29.15 LIG-0.65  OA
ATOM     45 O    GLY B 806      51.494  58.648  24.202  1.00 28.96 LIG-0.65  OA
ENDBRANCH 42 43
ENDBRANCH 40 42
ENDBRANCH 28 38
ENDBRANCH 25 28
ENDBRANCH 1 24
BRANCH 1 46
ATOM     46  CB  LEU B 804      43.933  54.767  27.503  1.00 30.53 LIG 0.04  C 
BRANCH 46 47
ATOM     47  CG  LEU B 804      43.952  55.105  29.004  1.00 30.66 LIG-0.02  C 
ATOM     48  CD1 LEU B 804      42.907  56.164  29.317  1.00 31.81 LIG 0.01  C 
ATOM     49  CD2 LEU B 804      43.728  53.866  29.844  1.00 30.59 LIG 0.01  C 
ENDBRANCH 46 47
ENDBRANCH 1 46
TORSDOF 19
ENDMDL
MODEL 13
USER: ADFR SOLUTION from run 31
USER: SCORE 17.750412 LL:  -4.398 LR: -14.240 RR:   0.000 FEB:  -8.572
USER: RMSD 7.435404
USER: SEED 30
USER: STATUS no improvement in best 147 clusters for 5 generations
USER: GENES 21
USER: genes 0 Translation |==|  0.40391 0.54591 0.49833
USER: genes 1 Rotation |==|  0.60481 0.39889 0.89579 0.76859
USER: genes 2 Torsion [CB]-CA--N-[C] |==|  0.20029
USER: genes 3 Torsion [N]-C--CA-[N] |==|  0.87414
USER: genes 4 Torsion [C]-CA--CB-[CG] |==|  0.32694
USER: genes 5 Torsion [CA]-CB--CG-[OD1] |==|  0.69651
USER: genes 6 Torsion [C]-CA--N-[C] |==|  0.83160
USER: genes 7 Torsion [N]-C--CA-[N] |==|  0.61567
USER: genes 8 Torsion [C]-CA--CB-[CG] |==|  0.78896
USER: genes 9 Torsion [CA]-CB--CG-[OD1] |==|  0.77899
USER: genes 10 Torsion [C]-CA--N-[H3] |==|  0.77533
USER: genes 11 Torsion [N]-CA--C-[N] |==|  0.98273
USER: genes 12 Torsion [C]-N--CA-[CB] |==|  0.70002
USER: genes 13 Torsion [N]-CA--CB-[CG] |==|  0.14000
USER: genes 14 Torsion [CA]-CB--CG-[CD2] |==|  0.77187
USER: genes 15 Torsion [CE1]-CZ--OH-[HH] |==|  0.25178
USER: genes 16 Torsion [N]-CA--C-[N] |==|  0.27833
USER: genes 17 Torsion [C]-N--CA-[C] |==|  0.78388
USER: genes 18 Torsion [N]-CA--C-[OXT] |==|  0.55263
USER: genes 19 Torsion [N]-CA--CB-[CG] |==|  0.29682
USER: genes 20 Torsion [CA]-CB--CG-[CD1] |==|  0.29247
ROOT
ATOM      1  CA  LEU B 804      47.057  53.647  21.800  1.00 31.72 LIG 0.18  C 
ENDROOT
BRANCH 1 2
ATOM      2  N   LEU B 804      47.282  54.219  23.133  1.00 32.47 LIG-0.35  N 
ATOM      3 H    LEU B 804      47.523  53.639  23.720  1.00 32.47 LIG 0.16  HD
ATOM      4  C   ASP B 803      47.130  55.512  23.414  1.00 36.20 LIG 0.24  C 
ATOM      5 O    ASP B 803      46.715  56.364  22.607  1.00 34.88 LIG-0.27  OA
BRANCH 4 6
ATOM      6  CA  ASP B 803      47.520  55.903  24.848  1.00 38.58 LIG 0.19  C 
BRANCH 6 7
ATOM      7  CB  ASP B 803      49.026  56.087  24.967  1.00 39.00 LIG 0.15  C 
BRANCH 7 8
ATOM      8  CG  ASP B 803      49.391  57.523  25.353  1.00 41.67 LIG 0.17  C 
ATOM      9 OD1  ASP B 803      49.940  58.253  24.475  1.00 44.54 LIG-0.65  OA
ATOM     10 OD2  ASP B 803      49.173  57.899  26.534  1.00 44.60 LIG-0.65  OA
ENDBRANCH 7 8
ENDBRANCH 6 7
BRANCH 6 11
ATOM     11  N   ASP B 803      46.974  54.953  25.804  1.00 40.89 LIG-0.34  N 
ATOM     12 H    ASP B 803      47.553  54.533  26.283  1.00 40.89 LIG 0.16  HD
ATOM     13  C   ASP B 802      45.652  54.793  25.880  1.00 43.36 LIG 0.25  C 
ATOM     14 O    ASP B 802      44.867  55.416  25.148  1.00 44.71 LIG-0.27  OA
BRANCH 13 15
ATOM     15  CA  ASP B 802      45.114  53.824  26.935  1.00 44.06 LIG 0.28  C 
BRANCH 15 16
ATOM     16  CB  ASP B 802      46.222  52.892  27.434  1.00 45.52 LIG 0.15  C 
BRANCH 16 17
ATOM     17  CG  ASP B 802      46.560  51.788  26.436  1.00 48.04 LIG 0.17  C 
ATOM     18 OD1  ASP B 802      45.829  50.763  26.348  1.00 55.65 LIG-0.65  OA
ATOM     19 OD2  ASP B 802      47.574  51.956  25.728  1.00 54.24 LIG-0.65  OA
ENDBRANCH 16 17
ENDBRANCH 15 16
BRANCH 15 20
ATOM     20  N   ASP B 802      44.012  53.020  26.351  1.00 45.51 LIG-0.07  N 
ATOM     21 H3   ASP B 802      43.259  53.495  26.363  1.00 45.51 LIG 0.28  HD
ATOM     22 H1   ASP B 802      44.213  52.806  25.510  1.00 45.51 LIG 0.28  HD
ATOM     23 H2   ASP B 802      43.901  52.277  26.828  1.00 45.51 LIG 0.28  HD
ENDBRANCH 15 20
ENDBRANCH 13 15
ENDBRANCH 6 11
ENDBRANCH 4 6
ENDBRANCH 1 2
BRANCH 1 24
ATOM     24  C   LEU B 804      46.956  52.115  21.779  1.00 30.12 LIG 0.24  C 
ATOM     25  N   TYR B 805      47.205  51.469  22.915  1.00 29.37 LIG-0.35  N 
ATOM     26 H    TYR B 805      47.252  51.853  23.683  1.00 29.37 LIG 0.16  HD
ATOM     27 O    LEU B 804      46.637  51.542  20.760  1.00 28.94 LIG-0.27  OA
BRANCH 25 28
ATOM     28  CA  TYR B 805      47.424  50.020  22.952  1.00 29.00 LIG 0.18  C 
BRANCH 28 29
ATOM     29  CB  TYR B 805      46.206  49.331  23.590  1.00 27.91 LIG 0.07  C 
BRANCH 29 30
ATOM     30  CG  TYR B 805      44.961  49.839  22.898  1.00 26.10 LIG-0.06  A 
ATOM     31  CD1 TYR B 805      44.438  49.187  21.796  1.00 25.09 LIG 0.01  A 
ATOM     32  CE1 TYR B 805      43.349  49.686  21.106  1.00 24.79 LIG 0.04  A 
ATOM     33  CZ  TYR B 805      42.811  50.883  21.475  1.00 22.85 LIG 0.07  A 
ATOM     34  CE2 TYR B 805      43.311  51.560  22.577  1.00 24.72 LIG 0.04  A 
ATOM     35  CD2 TYR B 805      44.397  51.039  23.269  1.00 24.65 LIG 0.01  A 
BRANCH 33 36
ATOM     36 OH   TYR B 805      41.693  51.360  20.830  1.00 25.16 LIG-0.36  OA
ATOM     37 HH   TYR B 805      41.003  51.094  21.230  1.00 25.16 LIG 0.22  HD
ENDBRANCH 33 36
ENDBRANCH 29 30
ENDBRANCH 28 29
BRANCH 28 38
ATOM     38  C   TYR B 805      47.765  49.387  21.602  1.00 29.85 LIG 0.24  C 
ATOM     39 O    TYR B 805      46.856  49.129  20.764  1.00 30.08 LIG-0.27  OA
ATOM     40  N   GLY B 806      49.051  49.144  21.408  1.00 28.51 LIG-0.35  N 
ATOM     41 H    GLY B 806      49.645  49.182  22.029  1.00 28.51 LIG 0.16  HD
BRANCH 40 42
ATOM     42  CA  GLY B 806      49.570  48.789  20.110  1.00 29.14 LIG 0.23  C 
BRANCH 42 43
ATOM     43  C   GLY B 806      49.302  47.359  19.757  1.00 28.84 LIG 0.19  C 
ATOM     44 OXT  GLY B 806      49.989  46.874  18.872  1.00 29.15 LIG-0.65  OA
ATOM     45 O    GLY B 806      48.448  46.676  20.343  1.00 28.96 LIG-0.65  OA
ENDBRANCH 42 43
ENDBRANCH 40 42
ENDBRANCH 28 38
ENDBRANCH 25 28
ENDBRANCH 1 24
BRANCH 1 46
ATOM     46  CB  LEU B 804      48.201  54.086  20.876  1.00 30.53 LIG 0.04  C 
BRANCH 46 47
ATOM     47  CG  LEU B 804      49.211  52.977  20.531  1.00 30.66 LIG-0.02  C 
ATOM     48  CD1 LEU B 804      48.997  52.496  19.104  1.00 31.81 LIG 0.01  C 
ATOM     49  CD2 LEU B 804      50.634  53.456  20.727  1.00 30.59 LIG 0.01  C 
ENDBRANCH 46 47
ENDBRANCH 1 46
TORSDOF 19
ENDMDL
