MODEL 1
USER: ADFR SOLUTION from run 113
USER: SCORE 17.357855 LL:  -3.122 LR: -15.709 RR:   0.000 FEB: -11.234
USER: RMSD 2.378720
USER: SEED 112
USER: STATUS no improvement in best 1 clusters for 5 generations
USER: GENES 17
USER: genes 0 Translation |==|  0.51905 0.53463 0.50646
USER: genes 1 Rotation |==|  0.53165 0.48641 0.41686 0.99184
USER: genes 2 Torsion [C]-N--CA-[CB] |==|  0.35347
USER: genes 3 Torsion [N]-CA--C-[N] |==|  0.90506
USER: genes 4 Torsion [C]-N--CA-[C] |==|  0.18355
USER: genes 5 Torsion [N]-CA--CB-[CG] |==|  0.84955
USER: genes 6 Torsion [CA]-CB--CG-[CD2] |==|  0.83811
USER: genes 7 Torsion [N]-CA--C-[OXT] |==|  0.44438
USER: genes 8 Torsion [N]-CA--CB-[CG2] |==|  0.72520
USER: genes 9 Torsion [CA]-CB--OG1-[HG1] |==|  0.05068
USER: genes 10 Torsion [N]-C--CA-[N] |==|  0.31798
USER: genes 11 Torsion [C]-CA--CB-[CG] |==|  0.30568
USER: genes 12 Torsion [CA]-CB--CG-[CD] |==|  0.39706
USER: genes 13 Torsion [CB]-CG--CD-[OE1] |==|  0.32180
USER: genes 14 Torsion [C]-CA--N-[C] |==|  0.69895
USER: genes 15 Torsion [N]-C--CA-[N] |==|  0.98325
USER: genes 16 Torsion [C]-CA--N-[H1] |==|  0.07499
ROOT
ATOM      1  C   GLU S   2     -11.489  14.239  32.994  1.00 67.93 LIG 0.24  C 
ATOM      2 O    GLU S   2     -11.963  15.383  33.021  1.00 66.60 LIG-0.27  OA
ATOM      3  N   THR S   3     -10.299  13.957  32.477  1.00 66.34 LIG-0.34  N 
ATOM      4 H    THR S   3      -9.970  13.163  32.448  1.00 66.34 LIG 0.16  HD
ENDROOT
BRANCH 3 5
ATOM      5  CA  THR S   3      -9.433  14.980  31.906  1.00 65.04 LIG 0.20  C 
BRANCH 5 6
ATOM      6  C   THR S   3      -9.323  14.814  30.399  1.00 64.78 LIG 0.24  C 
ATOM      7 O    THR S   3      -9.210  15.784  29.641  1.00 64.25 LIG-0.27  OA
ATOM      8  N   PHE S   4      -9.356  13.557  29.977  1.00 64.25 LIG-0.34  N 
ATOM      9 H    PHE S   4      -9.447  12.882  30.502  1.00 64.25 LIG 0.16  HD
BRANCH 8 10
ATOM     10  CA  PHE S   4      -9.239  13.200  28.572  1.00 63.65 LIG 0.19  C 
BRANCH 10 11
ATOM     11  CB  PHE S   4     -10.281  13.957  27.778  1.00 60.49 LIG 0.07  C 
BRANCH 11 12
ATOM     12  CG  PHE S   4     -11.659  13.775  28.285  1.00 55.48 LIG-0.06  A 
ATOM     13  CD2 PHE S   4     -12.216  12.507  28.368  1.00 51.26 LIG 0.01  A 
ATOM     14  CE2 PHE S   4     -13.530  12.340  28.776  1.00 48.18 LIG 0.00  A 
ATOM     15  CZ  PHE S   4     -14.292  13.429  29.121  1.00 46.44 LIG 0.00  A 
ATOM     16  CE1 PHE S   4     -13.747  14.700  29.052  1.00 48.00 LIG 0.00  A 
ATOM     17  CD1 PHE S   4     -12.425  14.867  28.646  1.00 50.38 LIG 0.01  A 
ENDBRANCH 11 12
ENDBRANCH 10 11
BRANCH 10 18
ATOM     18  C   PHE S   4      -7.884  13.530  28.003  1.00 64.82 LIG 0.20  C 
ATOM     19 O    PHE S   4      -7.184  14.395  28.576  1.00 66.03 LIG-0.65  OA
ATOM     20 OXT  PHE S   4      -7.560  12.930  26.960  1.00 65.83 LIG-0.65  OA
ENDBRANCH 10 18
ENDBRANCH 8 10
ENDBRANCH 5 6
BRANCH 5 21
ATOM     21  CB  THR S   3      -8.051  14.893  32.545  1.00 64.83 LIG 0.15  C 
ATOM     22  CG2 THR S   3      -7.891  15.926  33.642  1.00 63.45 LIG 0.04  C 
BRANCH 21 23
ATOM     23 OG1  THR S   3      -7.895  13.588  33.105  1.00 64.80 LIG-0.39  OA
ATOM     24 HG1  THR S   3      -8.461  13.068  32.767  1.00 64.80 LIG 0.21  HD
ENDBRANCH 21 23
ENDBRANCH 5 21
ENDBRANCH 3 5
BRANCH 1 25
ATOM     25  CA  GLU S   2     -12.249  13.036  33.576  1.00 70.09 LIG 0.18  C 
BRANCH 25 26
ATOM     26  CB  GLU S   2     -13.620  12.886  32.910  1.00 72.94 LIG 0.04  C 
BRANCH 26 27
ATOM     27  CG  GLU S   2     -13.711  11.660  32.004  1.00 78.29 LIG 0.12  C 
BRANCH 27 28
ATOM     28  CD  GLU S   2     -15.063  10.976  32.050  1.00 81.85 LIG 0.17  C 
ATOM     29 OE1  GLU S   2     -15.758  10.950  31.013  1.00 85.61 LIG-0.65  OA
ATOM     30 OE2  GLU S   2     -15.435  10.462  33.130  1.00 84.00 LIG-0.65  OA
ENDBRANCH 27 28
ENDBRANCH 26 27
ENDBRANCH 25 26
BRANCH 25 31
ATOM     31  N   GLU S   2     -12.435  13.120  35.025  1.00 70.96 LIG-0.35  N 
ATOM     32  C   ALA S   1     -11.765  12.330  35.862  1.00 72.19 LIG 0.25  C 
ATOM     33 O    ALA S   1     -10.935  11.502  35.476  1.00 72.37 LIG-0.27  OA
ATOM     34 H    GLU S   2     -13.004  13.713  35.277  1.00 70.96 LIG 0.16  HD
BRANCH 32 35
ATOM     35  CA  ALA S   1     -12.064  12.492  37.359  1.00 72.54 LIG 0.27  C 
ATOM     36  CB  ALA S   1     -12.657  11.200  37.925  1.00 73.45 LIG 0.05  C 
BRANCH 35 37
ATOM     37  N   ALA S   1     -12.982  13.640  37.638  1.00 73.25 LIG-0.07  N 
ATOM     38 H2   ALA S   1     -13.494  13.448  38.340  1.00 73.25 LIG 0.28  HD
ATOM     39 H1   ALA S   1     -13.496  13.788  36.927  1.00 73.25 LIG 0.28  HD
ATOM     40 H3   ALA S   1     -12.502  14.369  37.813  1.00 73.25 LIG 0.28  HD
ENDBRANCH 35 37
ENDBRANCH 32 35
ENDBRANCH 25 31
ENDBRANCH 1 25
TORSDOF 15
ENDMDL
MODEL 2
USER: ADFR SOLUTION from run 40
USER: SCORE 15.546197 LL:  -2.523 LR: -13.852 RR:   0.000 FEB:  -9.378
USER: RMSD 4.550728
USER: SEED 39
USER: STATUS no improvement in best 6 clusters for 5 generations
USER: GENES 17
USER: genes 0 Translation |==|  0.51320 0.47075 0.60918
USER: genes 1 Rotation |==|  0.39272 0.18842 0.87515 0.52595
USER: genes 2 Torsion [C]-N--CA-[CB] |==|  0.84700
USER: genes 3 Torsion [N]-CA--C-[N] |==|  0.37289
USER: genes 4 Torsion [C]-N--CA-[C] |==|  0.21209
USER: genes 5 Torsion [N]-CA--CB-[CG] |==|  0.73462
USER: genes 6 Torsion [CA]-CB--CG-[CD2] |==|  0.72017
USER: genes 7 Torsion [N]-CA--C-[OXT] |==|  0.91766
USER: genes 8 Torsion [N]-CA--CB-[CG2] |==|  0.49040
USER: genes 9 Torsion [CA]-CB--OG1-[HG1] |==|  0.19797
USER: genes 10 Torsion [N]-C--CA-[N] |==|  0.92468
USER: genes 11 Torsion [C]-CA--CB-[CG] |==|  0.51342
USER: genes 12 Torsion [CA]-CB--CG-[CD] |==|  0.91240
USER: genes 13 Torsion [CB]-CG--CD-[OE1] |==|  0.30257
USER: genes 14 Torsion [C]-CA--N-[C] |==|  0.21928
USER: genes 15 Torsion [N]-C--CA-[N] |==|  0.07284
USER: genes 16 Torsion [C]-CA--N-[H1] |==|  0.25426
ROOT
ATOM      1  C   GLU S   2     -11.664  12.322  36.075  1.00 67.93 LIG 0.24  C 
ATOM      2 O    GLU S   2     -10.718  11.901  35.396  1.00 66.60 LIG-0.27  OA
ATOM      3  N   THR S   3     -12.516  13.243  35.643  1.00 66.34 LIG-0.34  N 
ATOM      4 H    THR S   3     -13.168  13.546  36.114  1.00 66.34 LIG 0.16  HD
ENDROOT
BRANCH 3 5
ATOM      5  CA  THR S   3     -12.423  13.832  34.313  1.00 65.04 LIG 0.20  C 
BRANCH 5 6
ATOM      6  C   THR S   3     -12.711  12.793  33.242  1.00 64.78 LIG 0.24  C 
ATOM      7 O    THR S   3     -12.210  11.662  33.275  1.00 64.25 LIG-0.27  OA
ATOM      8  N   PHE S   4     -13.537  13.198  32.287  1.00 64.25 LIG-0.34  N 
ATOM      9 H    PHE S   4     -13.876  13.987  32.256  1.00 64.25 LIG 0.16  HD
BRANCH 8 10
ATOM     10  CA  PHE S   4     -13.950  12.335  31.191  1.00 63.65 LIG 0.19  C 
BRANCH 10 11
ATOM     11  CB  PHE S   4     -12.745  11.587  30.666  1.00 60.49 LIG 0.07  C 
BRANCH 11 12
ATOM     12  CG  PHE S   4     -12.109  12.232  29.497  1.00 55.48 LIG-0.06  A 
ATOM     13  CD2 PHE S   4     -12.350  11.759  28.216  1.00 51.26 LIG 0.01  A 
ATOM     14  CE2 PHE S   4     -11.702  12.317  27.125  1.00 48.18 LIG 0.00  A 
ATOM     15  CZ  PHE S   4     -10.825  13.359  27.299  1.00 46.44 LIG 0.00  A 
ATOM     16  CE1 PHE S   4     -10.581  13.848  28.571  1.00 48.00 LIG 0.00  A 
ATOM     17  CD1 PHE S   4     -11.235  13.290  29.667  1.00 50.38 LIG 0.01  A 
ENDBRANCH 11 12
ENDBRANCH 10 11
BRANCH 10 18
ATOM     18  C   PHE S   4     -14.985  11.325  31.610  1.00 64.82 LIG 0.20  C 
ATOM     19 O    PHE S   4     -15.835  10.949  30.772  1.00 66.03 LIG-0.65  OA
ATOM     20 OXT  PHE S   4     -14.943  10.950  32.798  1.00 65.83 LIG-0.65  OA
ENDBRANCH 10 18
ENDBRANCH 8 10
ENDBRANCH 5 6
BRANCH 5 21
ATOM     21  CB  THR S   3     -11.031  14.420  34.112  1.00 64.83 LIG 0.15  C 
ATOM     22  CG2 THR S   3     -10.868  14.968  32.708  1.00 63.45 LIG 0.04  C 
BRANCH 21 23
ATOM     23 OG1  THR S   3     -10.850  15.482  35.051  1.00 64.80 LIG-0.39  OA
ATOM     24 HG1  THR S   3     -10.771  15.163  35.823  1.00 64.80 LIG 0.21  HD
ENDBRANCH 21 23
ENDBRANCH 5 21
ENDBRANCH 3 5
BRANCH 1 25
ATOM     25  CA  GLU S   2     -11.936  11.796  37.494  1.00 70.09 LIG 0.18  C 
BRANCH 25 26
ATOM     26  CB  GLU S   2     -12.759  10.505  37.446  1.00 72.94 LIG 0.04  C 
BRANCH 26 27
ATOM     27  CG  GLU S   2     -13.158  10.001  38.831  1.00 78.29 LIG 0.12  C 
BRANCH 27 28
ATOM     28  CD  GLU S   2     -12.144  10.331  39.908  1.00 81.85 LIG 0.17  C 
ATOM     29 OE1  GLU S   2     -12.435  11.195  40.762  1.00 85.61 LIG-0.65  OA
ATOM     30 OE2  GLU S   2     -11.049   9.724  39.901  1.00 84.00 LIG-0.65  OA
ENDBRANCH 27 28
ENDBRANCH 26 27
ENDBRANCH 25 26
BRANCH 25 31
ATOM     31  N   GLU S   2     -12.629  12.765  38.344  1.00 70.96 LIG-0.35  N 
ATOM     32  C   ALA S   1     -13.941  12.966  38.247  1.00 72.19 LIG 0.25  C 
ATOM     33 O    ALA S   1     -14.656  12.338  37.461  1.00 72.37 LIG-0.27  OA
ATOM     34 H    GLU S   2     -12.119  13.181  38.898  1.00 70.96 LIG 0.16  HD
BRANCH 32 35
ATOM     35  CA  ALA S   1     -14.552  14.028  39.174  1.00 72.54 LIG 0.27  C 
ATOM     36  CB  ALA S   1     -15.763  14.683  38.507  1.00 73.45 LIG 0.05  C 
BRANCH 35 37
ATOM     37  N   ALA S   1     -13.561  15.075  39.574  1.00 73.25 LIG-0.07  N 
ATOM     38 H2   ALA S   1     -13.754  15.371  40.391  1.00 73.25 LIG 0.28  HD
ATOM     39 H1   ALA S   1     -13.596  15.752  38.998  1.00 73.25 LIG 0.28  HD
ATOM     40 H3   ALA S   1     -12.742  14.727  39.572  1.00 73.25 LIG 0.28  HD
ENDBRANCH 35 37
ENDBRANCH 32 35
ENDBRANCH 25 31
ENDBRANCH 1 25
TORSDOF 15
ENDMDL
MODEL 3
USER: ADFR SOLUTION from run 112
USER: SCORE 14.452372 LL:  -2.721 LR: -13.828 RR:   0.000 FEB:  -9.353
USER: RMSD 5.198746
USER: SEED 111
USER: STATUS no improvement in best 17 clusters for 5 generations
USER: GENES 17
USER: genes 0 Translation |==|  0.50855 0.45852 0.59984
USER: genes 1 Rotation |==|  0.61288 0.77635 0.10611 0.57577
USER: genes 2 Torsion [C]-N--CA-[CB] |==|  0.45270
USER: genes 3 Torsion [N]-CA--C-[N] |==|  0.27432
USER: genes 4 Torsion [C]-N--CA-[C] |==|  0.16657
USER: genes 5 Torsion [N]-CA--CB-[CG] |==|  0.80902
USER: genes 6 Torsion [CA]-CB--CG-[CD2] |==|  0.76443
USER: genes 7 Torsion [N]-CA--C-[OXT] |==|  0.29924
USER: genes 8 Torsion [N]-CA--CB-[CG2] |==|  0.48949
USER: genes 9 Torsion [CA]-CB--OG1-[HG1] |==|  0.95696
USER: genes 10 Torsion [N]-C--CA-[N] |==|  0.90395
USER: genes 11 Torsion [C]-CA--CB-[CG] |==|  0.30243
USER: genes 12 Torsion [CA]-CB--CG-[CD] |==|  0.08280
USER: genes 13 Torsion [CB]-CG--CD-[OE1] |==|  0.78706
USER: genes 14 Torsion [C]-CA--N-[C] |==|  0.59456
USER: genes 15 Torsion [N]-C--CA-[N] |==|  0.73168
USER: genes 16 Torsion [C]-CA--N-[H1] |==|  0.20678
ROOT
ATOM      1  C   GLU S   2     -11.803  11.956  35.795  1.00 67.93 LIG 0.24  C 
ATOM      2 O    GLU S   2     -10.637  11.696  35.467  1.00 66.60 LIG-0.27  OA
ATOM      3  N   THR S   3     -12.692  12.484  34.963  1.00 66.34 LIG-0.34  N 
ATOM      4 H    THR S   3     -13.500  12.675  35.189  1.00 66.34 LIG 0.16  HD
ENDROOT
BRANCH 3 5
ATOM      5  CA  THR S   3     -12.377  12.793  33.575  1.00 65.04 LIG 0.20  C 
BRANCH 5 6
ATOM      6  C   THR S   3     -11.522  14.047  33.482  1.00 64.78 LIG 0.24  C 
ATOM      7 O    THR S   3     -12.016  15.180  33.539  1.00 64.25 LIG-0.27  OA
ATOM      8  N   PHE S   4     -10.223  13.823  33.341  1.00 64.25 LIG-0.34  N 
ATOM      9 H    PHE S   4      -9.880  13.036  33.290  1.00 64.25 LIG 0.16  HD
BRANCH 8 10
ATOM     10  CA  PHE S   4      -9.247  14.897  33.260  1.00 63.65 LIG 0.19  C 
BRANCH 10 11
ATOM     11  CB  PHE S   4      -9.564  15.768  32.065  1.00 60.49 LIG 0.07  C 
BRANCH 11 12
ATOM     12  CG  PHE S   4      -9.334  15.097  30.766  1.00 55.48 LIG-0.06  A 
ATOM     13  CD2 PHE S   4      -8.071  15.088  30.194  1.00 51.26 LIG 0.01  A 
ATOM     14  CE2 PHE S   4      -7.868  14.521  28.945  1.00 48.18 LIG 0.00  A 
ATOM     15  CZ  PHE S   4      -8.914  13.945  28.267  1.00 46.44 LIG 0.00  A 
ATOM     16  CE1 PHE S   4     -10.179  13.938  28.831  1.00 48.00 LIG 0.00  A 
ATOM     17  CD1 PHE S   4     -10.382  14.504  30.087  1.00 50.38 LIG 0.01  A 
ENDBRANCH 11 12
ENDBRANCH 10 11
BRANCH 10 18
ATOM     18  C   PHE S   4      -9.245  15.769  34.489  1.00 64.82 LIG 0.20  C 
ATOM     19 O    PHE S   4     -10.188  16.573  34.659  1.00 66.03 LIG-0.65  OA
ATOM     20 OXT  PHE S   4      -8.267  15.649  35.251  1.00 65.83 LIG-0.65  OA
ENDBRANCH 10 18
ENDBRANCH 8 10
ENDBRANCH 5 6
BRANCH 5 21
ATOM     21  CB  THR S   3     -13.668  12.979  32.787  1.00 64.83 LIG 0.15  C 
ATOM     22  CG2 THR S   3     -13.380  13.392  31.358  1.00 63.45 LIG 0.04  C 
BRANCH 21 23
ATOM     23 OG1  THR S   3     -14.374  11.736  32.780  1.00 64.80 LIG-0.39  OA
ATOM     24 HG1  THR S   3     -13.857  11.119  33.016  1.00 64.80 LIG 0.21  HD
ENDBRANCH 21 23
ENDBRANCH 5 21
ENDBRANCH 3 5
BRANCH 1 25
ATOM     25  CA  GLU S   2     -12.325  11.672  37.213  1.00 70.09 LIG 0.18  C 
BRANCH 25 26
ATOM     26  CB  GLU S   2     -12.953  10.277  37.292  1.00 72.94 LIG 0.04  C 
BRANCH 26 27
ATOM     27  CG  GLU S   2     -12.110   9.288  38.094  1.00 78.29 LIG 0.12  C 
BRANCH 27 28
ATOM     28  CD  GLU S   2     -11.291   9.943  39.189  1.00 81.85 LIG 0.17  C 
ATOM     29 OE1  GLU S   2     -10.253  10.561  38.873  1.00 85.61 LIG-0.65  OA
ATOM     30 OE2  GLU S   2     -11.685   9.836  40.372  1.00 84.00 LIG-0.65  OA
ENDBRANCH 27 28
ENDBRANCH 26 27
ENDBRANCH 25 26
BRANCH 25 31
ATOM     31  N   GLU S   2     -13.303  12.657  37.675  1.00 70.96 LIG-0.35  N 
ATOM     32  C   ALA S   1     -13.379  13.020  38.953  1.00 72.19 LIG 0.25  C 
ATOM     33 O    ALA S   1     -12.621  12.573  39.819  1.00 72.37 LIG-0.27  OA
ATOM     34 H    GLU S   2     -13.811  12.971  37.056  1.00 70.96 LIG 0.16  HD
BRANCH 32 35
ATOM     35  CA  ALA S   1     -14.463  14.043  39.322  1.00 72.54 LIG 0.27  C 
ATOM     36  CB  ALA S   1     -15.629  13.961  38.335  1.00 73.45 LIG 0.05  C 
BRANCH 35 37
ATOM     37  N   ALA S   1     -13.935  15.442  39.373  1.00 73.25 LIG-0.07  N 
ATOM     38 H2   ALA S   1     -14.523  15.967  39.785  1.00 73.25 LIG 0.28  HD
ATOM     39 H1   ALA S   1     -13.802  15.740  38.545  1.00 73.25 LIG 0.28  HD
ATOM     40 H3   ALA S   1     -13.165  15.454  39.819  1.00 73.25 LIG 0.28  HD
ENDBRANCH 35 37
ENDBRANCH 32 35
ENDBRANCH 25 31
ENDBRANCH 1 25
TORSDOF 15
ENDMDL
MODEL 4
USER: ADFR SOLUTION from run 15
USER: SCORE 16.296021 LL:  -3.764 LR: -13.743 RR:   0.000 FEB:  -9.268
USER: RMSD 5.100396
USER: SEED 286866
USER: STATUS no improvement in best 6 clusters for 5 generations
USER: GENES 17
USER: genes 0 Translation |==|  0.50937 0.50104 0.58154
USER: genes 1 Rotation |==|  0.34779 0.72882 0.41670 0.90931
USER: genes 2 Torsion [C]-N--CA-[CB] |==|  0.81571
USER: genes 3 Torsion [N]-CA--C-[N] |==|  0.28566
USER: genes 4 Torsion [C]-N--CA-[C] |==|  0.64509
USER: genes 5 Torsion [N]-CA--CB-[CG] |==|  0.81553
USER: genes 6 Torsion [CA]-CB--CG-[CD2] |==|  0.19043
USER: genes 7 Torsion [N]-CA--C-[OXT] |==|  0.15338
USER: genes 8 Torsion [N]-CA--CB-[CG2] |==|  0.58855
USER: genes 9 Torsion [CA]-CB--OG1-[HG1] |==|  0.24869
USER: genes 10 Torsion [N]-C--CA-[N] |==|  0.58889
USER: genes 11 Torsion [C]-CA--CB-[CG] |==|  0.50336
USER: genes 12 Torsion [CA]-CB--CG-[CD] |==|  0.26229
USER: genes 13 Torsion [CB]-CG--CD-[OE1] |==|  0.18711
USER: genes 14 Torsion [C]-CA--N-[C] |==|  0.15968
USER: genes 15 Torsion [N]-C--CA-[N] |==|  0.06739
USER: genes 16 Torsion [C]-CA--N-[H1] |==|  0.57349
ROOT
ATOM      1  C   GLU S   2     -11.779  13.231  35.246  1.00 67.93 LIG 0.24  C 
ATOM      2 O    GLU S   2     -12.277  14.362  35.153  1.00 66.60 LIG-0.27  OA
ATOM      3  N   THR S   3     -11.633  12.414  34.212  1.00 66.34 LIG-0.34  N 
ATOM      4 H    THR S   3     -11.296  11.625  34.273  1.00 66.34 LIG 0.16  HD
ENDROOT
BRANCH 3 5
ATOM      5  CA  THR S   3     -12.034  12.783  32.861  1.00 65.04 LIG 0.20  C 
BRANCH 5 6
ATOM      6  C   THR S   3     -11.363  14.079  32.434  1.00 64.78 LIG 0.24  C 
ATOM      7 O    THR S   3     -11.752  15.181  32.839  1.00 64.25 LIG-0.27  OA
ATOM      8  N   PHE S   4     -10.338  13.926  31.607  1.00 64.25 LIG-0.34  N 
ATOM      9 H    PHE S   4     -10.074  13.161  31.315  1.00 64.25 LIG 0.16  HD
BRANCH 8 10
ATOM     10  CA  PHE S   4      -9.558  15.048  31.110  1.00 63.65 LIG 0.19  C 
BRANCH 10 11
ATOM     11  CB  PHE S   4      -8.164  14.981  31.694  1.00 60.49 LIG 0.07  C 
BRANCH 11 12
ATOM     12  CG  PHE S   4      -8.124  15.189  33.158  1.00 55.48 LIG-0.06  A 
ATOM     13  CD2 PHE S   4      -8.659  14.241  34.017  1.00 51.26 LIG 0.01  A 
ATOM     14  CE2 PHE S   4      -8.685  14.465  35.386  1.00 48.18 LIG 0.00  A 
ATOM     15  CZ  PHE S   4      -8.164  15.623  35.907  1.00 46.44 LIG 0.00  A 
ATOM     16  CE1 PHE S   4      -7.618  16.575  35.062  1.00 48.00 LIG 0.00  A 
ATOM     17  CD1 PHE S   4      -7.588  16.348  33.688  1.00 50.38 LIG 0.01  A 
ENDBRANCH 11 12
ENDBRANCH 10 11
BRANCH 10 18
ATOM     18  C   PHE S   4      -9.439  15.049  29.608  1.00 64.82 LIG 0.20  C 
ATOM     19 O    PHE S   4      -8.300  15.109  29.094  1.00 66.03 LIG-0.65  OA
ATOM     20 OXT  PHE S   4     -10.508  15.021  28.969  1.00 65.83 LIG-0.65  OA
ENDBRANCH 10 18
ENDBRANCH 8 10
ENDBRANCH 5 6
BRANCH 5 21
ATOM     21  CB  THR S   3     -13.549  12.932  32.800  1.00 64.83 LIG 0.15  C 
ATOM     22  CG2 THR S   3     -14.082  12.545  31.435  1.00 63.45 LIG 0.04  C 
BRANCH 21 23
ATOM     23 OG1  THR S   3     -14.126  12.075  33.787  1.00 64.80 LIG-0.39  OA
ATOM     24 HG1  THR S   3     -14.197  12.491  34.513  1.00 64.80 LIG 0.21  HD
ENDBRANCH 21 23
ENDBRANCH 5 21
ENDBRANCH 3 5
BRANCH 1 25
ATOM     25  CA  GLU S   2     -11.273  12.681  36.590  1.00 70.09 LIG 0.18  C 
BRANCH 25 26
ATOM     26  CB  GLU S   2     -11.293  11.150  36.592  1.00 72.94 LIG 0.04  C 
BRANCH 26 27
ATOM     27  CG  GLU S   2     -10.827  10.550  37.917  1.00 78.29 LIG 0.12  C 
BRANCH 27 28
ATOM     28  CD  GLU S   2     -11.963  10.233  38.869  1.00 81.85 LIG 0.17  C 
ATOM     29 OE1  GLU S   2     -12.762   9.322  38.567  1.00 85.61 LIG-0.65  OA
ATOM     30 OE2  GLU S   2     -12.060  10.900  39.924  1.00 84.00 LIG-0.65  OA
ENDBRANCH 27 28
ENDBRANCH 26 27
ENDBRANCH 25 26
BRANCH 25 31
ATOM     31  N   GLU S   2     -12.043  13.166  37.736  1.00 70.96 LIG-0.35  N 
ATOM     32  C   ALA S   1     -13.357  12.974  37.826  1.00 72.19 LIG 0.25  C 
ATOM     33 O    ALA S   1     -14.001  12.361  36.970  1.00 72.37 LIG-0.27  OA
ATOM     34 H    GLU S   2     -11.576  13.575  38.331  1.00 70.96 LIG 0.16  HD
BRANCH 32 35
ATOM     35  CA  ALA S   1     -14.060  13.551  39.063  1.00 72.54 LIG 0.27  C 
ATOM     36  CB  ALA S   1     -15.483  13.988  38.710  1.00 73.45 LIG 0.05  C 
BRANCH 35 37
ATOM     37  N   ALA S   1     -13.309  14.696  39.666  1.00 73.25 LIG-0.07  N 
ATOM     38 H2   ALA S   1     -12.435  14.566  39.563  1.00 73.25 LIG 0.28  HD
ATOM     39 H1   ALA S   1     -13.500  14.753  40.533  1.00 73.25 LIG 0.28  HD
ATOM     40 H3   ALA S   1     -13.545  15.453  39.261  1.00 73.25 LIG 0.28  HD
ENDBRANCH 35 37
ENDBRANCH 32 35
ENDBRANCH 25 31
ENDBRANCH 1 25
TORSDOF 15
ENDMDL
MODEL 5
USER: ADFR SOLUTION from run 58
USER: SCORE 15.213495 LL:  -2.778 LR: -13.719 RR:   0.000 FEB:  -9.244
USER: RMSD 2.476986
USER: SEED 57
USER: STATUS no improvement in best 13 clusters for 5 generations
USER: GENES 17
USER: genes 0 Translation |==|  0.51926 0.52517 0.55976
USER: genes 1 Rotation |==|  0.52533 0.57257 0.42408 0.98819
USER: genes 2 Torsion [C]-N--CA-[CB] |==|  0.20810
USER: genes 3 Torsion [N]-CA--C-[N] |==|  0.24676
USER: genes 4 Torsion [C]-N--CA-[C] |==|  0.82382
USER: genes 5 Torsion [N]-CA--CB-[CG] |==|  0.91605
USER: genes 6 Torsion [CA]-CB--CG-[CD2] |==|  0.32021
USER: genes 7 Torsion [N]-CA--C-[OXT] |==|  0.94449
USER: genes 8 Torsion [N]-CA--CB-[CG2] |==|  0.45835
USER: genes 9 Torsion [CA]-CB--OG1-[HG1] |==|  0.70202
USER: genes 10 Torsion [N]-C--CA-[N] |==|  0.47356
USER: genes 11 Torsion [C]-CA--CB-[CG] |==|  0.47895
USER: genes 12 Torsion [CA]-CB--CG-[CD] |==|  0.81165
USER: genes 13 Torsion [CB]-CG--CD-[OE1] |==|  0.67209
USER: genes 14 Torsion [C]-CA--N-[C] |==|  0.69035
USER: genes 15 Torsion [N]-C--CA-[N] |==|  0.70988
USER: genes 16 Torsion [C]-CA--N-[H1] |==|  0.81463
ROOT
ATOM      1  C   GLU S   2     -11.482  13.955  34.593  1.00 67.93 LIG 0.24  C 
ATOM      2 O    GLU S   2     -11.966  15.072  34.823  1.00 66.60 LIG-0.27  OA
ATOM      3  N   THR S   3     -10.526  13.748  33.697  1.00 66.34 LIG-0.34  N 
ATOM      4 H    THR S   3     -10.194  12.973  33.527  1.00 66.34 LIG 0.16  HD
ENDROOT
BRANCH 3 5
ATOM      5  CA  THR S   3      -9.945  14.828  32.910  1.00 65.04 LIG 0.20  C 
BRANCH 5 6
ATOM      6  C   THR S   3      -9.193  14.276  31.709  1.00 64.78 LIG 0.24  C 
ATOM      7 O    THR S   3      -7.989  14.000  31.761  1.00 64.25 LIG-0.27  OA
ATOM      8  N   PHE S   4      -9.933  14.114  30.620  1.00 64.25 LIG-0.34  N 
ATOM      9 H    PHE S   4     -10.768  14.317  30.579  1.00 64.25 LIG 0.16  HD
BRANCH 8 10
ATOM     10  CA  PHE S   4      -9.395  13.575  29.381  1.00 63.65 LIG 0.19  C 
BRANCH 10 11
ATOM     11  CB  PHE S   4     -10.513  13.441  28.371  1.00 60.49 LIG 0.07  C 
BRANCH 11 12
ATOM     12  CG  PHE S   4     -11.835  13.179  28.981  1.00 55.48 LIG-0.06  A 
ATOM     13  CD2 PHE S   4     -12.858  14.109  28.868  1.00 51.26 LIG 0.01  A 
ATOM     14  CE2 PHE S   4     -14.075  13.898  29.497  1.00 48.18 LIG 0.00  A 
ATOM     15  CZ  PHE S   4     -14.288  12.754  30.226  1.00 46.44 LIG 0.00  A 
ATOM     16  CE1 PHE S   4     -13.279  11.812  30.340  1.00 48.00 LIG 0.00  A 
ATOM     17  CD1 PHE S   4     -12.058  12.023  29.705  1.00 50.38 LIG 0.01  A 
ENDBRANCH 11 12
ENDBRANCH 10 11
BRANCH 10 18
ATOM     18  C   PHE S   4      -8.326  14.453  28.786  1.00 64.82 LIG 0.20  C 
ATOM     19 O    PHE S   4      -7.508  13.948  27.985  1.00 66.03 LIG-0.65  OA
ATOM     20 OXT  PHE S   4      -8.310  15.640  29.165  1.00 65.83 LIG-0.65  OA
ENDBRANCH 10 18
ENDBRANCH 8 10
ENDBRANCH 5 6
BRANCH 5 21
ATOM     21  CB  THR S   3      -9.004  15.648  33.785  1.00 64.83 LIG 0.15  C 
ATOM     22  CG2 THR S   3      -8.110  16.536  32.942  1.00 63.45 LIG 0.04  C 
BRANCH 21 23
ATOM     23 OG1  THR S   3      -9.793  16.467  34.650  1.00 64.80 LIG-0.39  OA
ATOM     24 HG1  THR S   3      -9.750  17.266  34.397  1.00 64.80 LIG 0.21  HD
ENDBRANCH 21 23
ENDBRANCH 5 21
ENDBRANCH 3 5
BRANCH 1 25
ATOM     25  CA  GLU S   2     -11.953  12.701  35.347  1.00 70.09 LIG 0.18  C 
BRANCH 25 26
ATOM     26  CB  GLU S   2     -12.668  11.733  34.400  1.00 72.94 LIG 0.04  C 
BRANCH 26 27
ATOM     27  CG  GLU S   2     -12.994  10.392  35.053  1.00 78.29 LIG 0.12  C 
BRANCH 27 28
ATOM     28  CD  GLU S   2     -11.766   9.563  35.374  1.00 81.85 LIG 0.17  C 
ATOM     29 OE1  GLU S   2     -11.632   8.451  34.821  1.00 85.61 LIG-0.65  OA
ATOM     30 OE2  GLU S   2     -10.932  10.024  36.186  1.00 84.00 LIG-0.65  OA
ENDBRANCH 27 28
ENDBRANCH 26 27
ENDBRANCH 25 26
BRANCH 25 31
ATOM     31  N   GLU S   2     -12.841  13.004  36.471  1.00 70.96 LIG-0.35  N 
ATOM     32  C   ALA S   1     -12.459  12.816  37.732  1.00 72.19 LIG 0.25  C 
ATOM     33 O    ALA S   1     -11.337  12.402  38.034  1.00 72.37 LIG-0.27  OA
ATOM     34 H    GLU S   2     -13.612  13.308  36.243  1.00 70.96 LIG 0.16  HD
BRANCH 32 35
ATOM     35  CA  ALA S   1     -13.487  13.146  38.825  1.00 72.54 LIG 0.27  C 
ATOM     36  CB  ALA S   1     -14.897  13.191  38.232  1.00 73.45 LIG 0.05  C 
BRANCH 35 37
ATOM     37  N   ALA S   1     -13.185  14.434  39.523  1.00 73.25 LIG-0.07  N 
ATOM     38 H2   ALA S   1     -13.093  15.084  38.922  1.00 73.25 LIG 0.28  HD
ATOM     39 H1   ALA S   1     -12.430  14.351  39.987  1.00 73.25 LIG 0.28  HD
ATOM     40 H3   ALA S   1     -13.852  14.636  40.077  1.00 73.25 LIG 0.28  HD
ENDBRANCH 35 37
ENDBRANCH 32 35
ENDBRANCH 25 31
ENDBRANCH 1 25
TORSDOF 15
ENDMDL
MODEL 6
USER: ADFR SOLUTION from run 130
USER: SCORE 14.294575 LL:  -2.659 LR: -14.064 RR:   0.000 FEB:  -9.589
USER: RMSD 5.272636
USER: SEED 129
USER: STATUS no improvement in best 146 clusters for 5 generations
USER: GENES 17
USER: genes 0 Translation |==|  0.50103 0.45211 0.60714
USER: genes 1 Rotation |==|  0.63539 0.76169 0.09730 0.53184
USER: genes 2 Torsion [C]-N--CA-[CB] |==|  0.41631
USER: genes 3 Torsion [N]-CA--C-[N] |==|  0.28335
USER: genes 4 Torsion [C]-N--CA-[C] |==|  0.17228
USER: genes 5 Torsion [N]-CA--CB-[CG] |==|  0.79344
USER: genes 6 Torsion [CA]-CB--CG-[CD2] |==|  0.78398
USER: genes 7 Torsion [N]-CA--C-[OXT] |==|  0.27751
USER: genes 8 Torsion [N]-CA--CB-[CG2] |==|  0.45781
USER: genes 9 Torsion [CA]-CB--OG1-[HG1] |==|  0.32332
USER: genes 10 Torsion [N]-C--CA-[N] |==|  0.92788
USER: genes 11 Torsion [C]-CA--CB-[CG] |==|  0.30277
USER: genes 12 Torsion [CA]-CB--CG-[CD] |==|  0.07976
USER: genes 13 Torsion [CB]-CG--CD-[OE1] |==|  0.76634
USER: genes 14 Torsion [C]-CA--N-[C] |==|  0.58445
USER: genes 15 Torsion [N]-C--CA-[N] |==|  0.73920
USER: genes 16 Torsion [C]-CA--N-[H1] |==|  0.75569
ROOT
ATOM      1  C   GLU S   2     -12.029  11.763  36.014  1.00 67.93 LIG 0.24  C 
ATOM      2 O    GLU S   2     -10.950  11.266  35.662  1.00 66.60 LIG-0.27  OA
ATOM      3  N   THR S   3     -12.812  12.455  35.196  1.00 66.34 LIG-0.34  N 
ATOM      4 H    THR S   3     -13.557  12.810  35.439  1.00 66.34 LIG 0.16  HD
ENDROOT
BRANCH 3 5
ATOM      5  CA  THR S   3     -12.476  12.679  33.796  1.00 65.04 LIG 0.20  C 
BRANCH 5 6
ATOM      6  C   THR S   3     -11.635  13.936  33.638  1.00 64.78 LIG 0.24  C 
ATOM      7 O    THR S   3     -12.134  15.066  33.673  1.00 64.25 LIG-0.27  OA
ATOM      8  N   PHE S   4     -10.339  13.715  33.465  1.00 64.25 LIG-0.34  N 
ATOM      9 H    PHE S   4      -9.992  12.929  33.428  1.00 64.25 LIG 0.16  HD
BRANCH 8 10
ATOM     10  CA  PHE S   4      -9.373  14.793  33.320  1.00 63.65 LIG 0.19  C 
BRANCH 10 11
ATOM     11  CB  PHE S   4      -9.762  15.652  32.137  1.00 60.49 LIG 0.07  C 
BRANCH 11 12
ATOM     12  CG  PHE S   4      -9.481  15.022  30.829  1.00 55.48 LIG-0.06  A 
ATOM     13  CD2 PHE S   4      -8.189  14.997  30.324  1.00 51.26 LIG 0.01  A 
ATOM     14  CE2 PHE S   4      -7.934  14.469  29.067  1.00 48.18 LIG 0.00  A 
ATOM     15  CZ  PHE S   4      -8.957  13.947  28.315  1.00 46.44 LIG 0.00  A 
ATOM     16  CE1 PHE S   4     -10.250  13.956  28.810  1.00 48.00 LIG 0.00  A 
ATOM     17  CD1 PHE S   4     -10.506  14.483  30.074  1.00 50.38 LIG 0.01  A 
ENDBRANCH 11 12
ENDBRANCH 10 11
BRANCH 10 18
ATOM     18  C   PHE S   4      -9.306  15.674  34.539  1.00 64.82 LIG 0.20  C 
ATOM     19 O    PHE S   4     -10.161  16.577  34.679  1.00 66.03 LIG-0.65  OA
ATOM     20 OXT  PHE S   4      -8.363  15.461  35.325  1.00 65.83 LIG-0.65  OA
ENDBRANCH 10 18
ENDBRANCH 8 10
ENDBRANCH 5 6
BRANCH 5 21
ATOM     21  CB  THR S   3     -13.756  12.799  32.977  1.00 64.83 LIG 0.15  C 
ATOM     22  CG2 THR S   3     -13.476  13.392  31.611  1.00 63.45 LIG 0.04  C 
BRANCH 21 23
ATOM     23 OG1  THR S   3     -14.310  11.492  32.814  1.00 64.80 LIG-0.39  OA
ATOM     24 HG1  THR S   3     -15.059  11.455  33.192  1.00 64.80 LIG 0.21  HD
ENDBRANCH 21 23
ENDBRANCH 5 21
ENDBRANCH 3 5
BRANCH 1 25
ATOM     25  CA  GLU S   2     -12.560  11.606  37.449  1.00 70.09 LIG 0.18  C 
BRANCH 25 26
ATOM     26  CB  GLU S   2     -13.281  10.266  37.618  1.00 72.94 LIG 0.04  C 
BRANCH 26 27
ATOM     27  CG  GLU S   2     -12.503   9.276  38.483  1.00 78.29 LIG 0.12  C 
BRANCH 27 28
ATOM     28  CD  GLU S   2     -11.617   9.944  39.515  1.00 81.85 LIG 0.17  C 
ATOM     29 OE1  GLU S   2     -10.479  10.328  39.172  1.00 85.61 LIG-0.65  OA
ATOM     30 OE2  GLU S   2     -12.059  10.084  40.679  1.00 84.00 LIG-0.65  OA
ENDBRANCH 27 28
ENDBRANCH 26 27
ENDBRANCH 25 26
BRANCH 25 31
ATOM     31  N   GLU S   2     -13.467  12.683  37.847  1.00 70.96 LIG-0.35  N 
ATOM     32  C   ALA S   1     -13.562  13.083  39.114  1.00 72.19 LIG 0.25  C 
ATOM     33 O    ALA S   1     -12.881  12.594  40.020  1.00 72.37 LIG-0.27  OA
ATOM     34 H    GLU S   2     -13.920  13.024  37.201  1.00 70.96 LIG 0.16  HD
BRANCH 32 35
ATOM     35  CA  ALA S   1     -14.567  14.204  39.415  1.00 72.54 LIG 0.27  C 
ATOM     36  CB  ALA S   1     -15.730  14.155  38.422  1.00 73.45 LIG 0.05  C 
BRANCH 35 37
ATOM     37  N   ALA S   1     -13.935  15.560  39.394  1.00 73.25 LIG-0.07  N 
ATOM     38 H2   ALA S   1     -13.272  15.570  38.801  1.00 73.25 LIG 0.28  HD
ATOM     39 H1   ALA S   1     -13.613  15.749  40.202  1.00 73.25 LIG 0.28  HD
ATOM     40 H3   ALA S   1     -14.544  16.169  39.168  1.00 73.25 LIG 0.28  HD
ENDBRANCH 35 37
ENDBRANCH 32 35
ENDBRANCH 25 31
ENDBRANCH 1 25
TORSDOF 15
ENDMDL
MODEL 7
USER: ADFR SOLUTION from run 51
USER: SCORE 14.389103 LL:  -2.969 LR: -13.997 RR:   0.000 FEB:  -9.523
USER: RMSD 5.508450
USER: SEED 50
USER: STATUS no improvement in best 149 clusters for 5 generations
USER: GENES 17
USER: genes 0 Translation |==|  0.50718 0.45247 0.59247
USER: genes 1 Rotation |==|  0.62300 0.73279 0.07748 0.45360
USER: genes 2 Torsion [C]-N--CA-[CB] |==|  0.36768
USER: genes 3 Torsion [N]-CA--C-[N] |==|  0.36453
USER: genes 4 Torsion [C]-N--CA-[C] |==|  0.64196
USER: genes 5 Torsion [N]-CA--CB-[CG] |==|  0.78877
USER: genes 6 Torsion [CA]-CB--CG-[CD2] |==|  0.18945
USER: genes 7 Torsion [N]-CA--C-[OXT] |==|  0.55583
USER: genes 8 Torsion [N]-CA--CB-[CG2] |==|  0.44955
USER: genes 9 Torsion [CA]-CB--OG1-[HG1] |==|  0.76184
USER: genes 10 Torsion [N]-C--CA-[N] |==|  0.00645
USER: genes 11 Torsion [C]-CA--CB-[CG] |==|  0.28813
USER: genes 12 Torsion [CA]-CB--CG-[CD] |==|  0.27593
USER: genes 13 Torsion [CB]-CG--CD-[OE1] |==|  0.02615
USER: genes 14 Torsion [C]-CA--N-[C] |==|  0.54446
USER: genes 15 Torsion [N]-C--CA-[N] |==|  0.72559
USER: genes 16 Torsion [C]-CA--N-[H1] |==|  0.44281
ROOT
ATOM      1  C   GLU S   2     -11.845  11.774  35.574  1.00 67.93 LIG 0.24  C 
ATOM      2 O    GLU S   2     -11.032  11.001  35.047  1.00 66.60 LIG-0.27  OA
ATOM      3  N   THR S   3     -12.588  12.629  34.883  1.00 66.34 LIG-0.34  N 
ATOM      4 H    THR S   3     -13.146  13.173  35.246  1.00 66.34 LIG 0.16  HD
ENDROOT
BRANCH 3 5
ATOM      5  CA  THR S   3     -12.526  12.723  33.431  1.00 65.04 LIG 0.20  C 
BRANCH 5 6
ATOM      6  C   THR S   3     -11.786  13.981  33.003  1.00 64.78 LIG 0.24  C 
ATOM      7 O    THR S   3     -12.051  15.090  33.482  1.00 64.25 LIG-0.27  OA
ATOM      8  N   PHE S   4     -10.846  13.786  32.089  1.00 64.25 LIG-0.34  N 
ATOM      9 H    PHE S   4     -10.669  13.017  31.746  1.00 64.25 LIG 0.16  HD
BRANCH 8 10
ATOM     10  CA  PHE S   4     -10.017  14.865  31.576  1.00 63.65 LIG 0.19  C 
BRANCH 10 11
ATOM     11  CB  PHE S   4      -8.598  14.677  32.063  1.00 60.49 LIG 0.07  C 
BRANCH 11 12
ATOM     12  CG  PHE S   4      -8.404  15.049  33.482  1.00 55.48 LIG-0.06  A 
ATOM     13  CD2 PHE S   4      -8.984  14.296  34.491  1.00 51.26 LIG 0.01  A 
ATOM     14  CE2 PHE S   4      -8.862  14.683  35.818  1.00 48.18 LIG 0.00  A 
ATOM     15  CZ  PHE S   4      -8.148  15.808  36.148  1.00 46.44 LIG 0.00  A 
ATOM     16  CE1 PHE S   4      -7.555  16.564  35.151  1.00 48.00 LIG 0.00  A 
ATOM     17  CD1 PHE S   4      -7.675  16.174  33.819  1.00 50.38 LIG 0.01  A 
ENDBRANCH 11 12
ENDBRANCH 10 11
BRANCH 10 18
ATOM     18  C   PHE S   4      -9.995  14.909  30.070  1.00 64.82 LIG 0.20  C 
ATOM     19 O    PHE S   4     -10.895  14.314  29.436  1.00 66.03 LIG-0.65  OA
ATOM     20 OXT  PHE S   4      -9.043  15.520  29.548  1.00 65.83 LIG-0.65  OA
ENDBRANCH 10 18
ENDBRANCH 8 10
ENDBRANCH 5 6
BRANCH 5 21
ATOM     21  CB  THR S   3     -13.938  12.725  32.858  1.00 64.83 LIG 0.15  C 
ATOM     22  CG2 THR S   3     -13.951  13.256  31.439  1.00 63.45 LIG 0.04  C 
BRANCH 21 23
ATOM     23 OG1  THR S   3     -14.425  11.381  32.857  1.00 64.80 LIG-0.39  OA
ATOM     24 HG1  THR S   3     -14.176  10.993  32.156  1.00 64.80 LIG 0.21  HD
ENDBRANCH 21 23
ENDBRANCH 5 21
ENDBRANCH 3 5
BRANCH 1 25
ATOM     25  CA  GLU S   2     -12.066  11.797  37.095  1.00 70.09 LIG 0.18  C 
BRANCH 25 26
ATOM     26  CB  GLU S   2     -12.421  10.400  37.614  1.00 72.94 LIG 0.04  C 
BRANCH 26 27
ATOM     27  CG  GLU S   2     -11.255   9.714  38.323  1.00 78.29 LIG 0.12  C 
BRANCH 27 28
ATOM     28  CD  GLU S   2     -11.329   9.808  39.834  1.00 81.85 LIG 0.17  C 
ATOM     29 OE1  GLU S   2     -12.373  10.250  40.357  1.00 85.61 LIG-0.65  OA
ATOM     30 OE2  GLU S   2     -10.336   9.440  40.503  1.00 84.00 LIG-0.65  OA
ENDBRANCH 27 28
ENDBRANCH 26 27
ENDBRANCH 25 26
BRANCH 25 31
ATOM     31  N   GLU S   2     -13.111  12.734  37.510  1.00 70.96 LIG-0.35  N 
ATOM     32  C   ALA S   1     -13.234  13.126  38.776  1.00 72.19 LIG 0.25  C 
ATOM     33 O    ALA S   1     -12.469  12.750  39.668  1.00 72.37 LIG-0.27  OA
ATOM     34 H    GLU S   2     -13.624  12.999  36.874  1.00 70.96 LIG 0.16  HD
BRANCH 32 35
ATOM     35  CA  ALA S   1     -14.385  14.092  39.096  1.00 72.54 LIG 0.27  C 
ATOM     36  CB  ALA S   1     -15.501  13.950  38.058  1.00 73.45 LIG 0.05  C 
BRANCH 35 37
ATOM     37  N   ALA S   1     -13.933  15.516  39.168  1.00 73.25 LIG-0.07  N 
ATOM     38 H2   ALA S   1     -13.565  15.671  39.963  1.00 73.25 LIG 0.28  HD
ATOM     39 H1   ALA S   1     -14.632  16.055  39.055  1.00 73.25 LIG 0.28  HD
ATOM     40 H3   ALA S   1     -13.334  15.671  38.529  1.00 73.25 LIG 0.28  HD
ENDBRANCH 35 37
ENDBRANCH 32 35
ENDBRANCH 25 31
ENDBRANCH 1 25
TORSDOF 15
ENDMDL
MODEL 8
USER: ADFR SOLUTION from run 61
USER: SCORE 15.705706 LL:  -2.578 LR: -13.949 RR:   0.000 FEB:  -9.474
USER: RMSD 4.527325
USER: SEED 60
USER: STATUS no improvement in best 142 clusters for 5 generations
USER: GENES 17
USER: genes 0 Translation |==|  0.51624 0.47177 0.60861
USER: genes 1 Rotation |==|  0.40370 0.18838 0.87817 0.52465
USER: genes 2 Torsion [C]-N--CA-[CB] |==|  0.84829
USER: genes 3 Torsion [N]-CA--C-[N] |==|  0.38487
USER: genes 4 Torsion [C]-N--CA-[C] |==|  0.21019
USER: genes 5 Torsion [N]-CA--CB-[CG] |==|  0.73990
USER: genes 6 Torsion [CA]-CB--CG-[CD2] |==|  0.22217
USER: genes 7 Torsion [N]-CA--C-[OXT] |==|  0.41886
USER: genes 8 Torsion [N]-CA--CB-[CG2] |==|  0.50258
USER: genes 9 Torsion [CA]-CB--OG1-[HG1] |==|  0.13503
USER: genes 10 Torsion [N]-C--CA-[N] |==|  0.92918
USER: genes 11 Torsion [C]-CA--CB-[CG] |==|  0.35994
USER: genes 12 Torsion [CA]-CB--CG-[CD] |==|  0.15249
USER: genes 13 Torsion [CB]-CG--CD-[OE1] |==|  0.59446
USER: genes 14 Torsion [C]-CA--N-[C] |==|  0.21474
USER: genes 15 Torsion [N]-C--CA-[N] |==|  0.08267
USER: genes 16 Torsion [C]-CA--N-[H1] |==|  0.90292
ROOT
ATOM      1  C   GLU S   2     -11.573  12.353  36.058  1.00 67.93 LIG 0.24  C 
ATOM      2 O    GLU S   2     -10.636  11.957  35.351  1.00 66.60 LIG-0.27  OA
ATOM      3  N   THR S   3     -12.467  13.243  35.648  1.00 66.34 LIG-0.34  N 
ATOM      4 H    THR S   3     -13.113  13.528  36.139  1.00 66.34 LIG 0.16  HD
ENDROOT
BRANCH 3 5
ATOM      5  CA  THR S   3     -12.436  13.826  34.313  1.00 65.04 LIG 0.20  C 
BRANCH 5 6
ATOM      6  C   THR S   3     -12.736  12.773  33.258  1.00 64.78 LIG 0.24  C 
ATOM      7 O    THR S   3     -12.268  11.630  33.323  1.00 64.25 LIG-0.27  OA
ATOM      8  N   PHE S   4     -13.535  13.181  32.281  1.00 64.25 LIG-0.34  N 
ATOM      9 H    PHE S   4     -13.851  13.979  32.229  1.00 64.25 LIG 0.16  HD
BRANCH 8 10
ATOM     10  CA  PHE S   4     -13.954  12.308  31.197  1.00 63.65 LIG 0.19  C 
BRANCH 10 11
ATOM     11  CB  PHE S   4     -12.759  11.528  30.696  1.00 60.49 LIG 0.07  C 
BRANCH 11 12
ATOM     12  CG  PHE S   4     -12.074  12.163  29.550  1.00 55.48 LIG-0.06  A 
ATOM     13  CD2 PHE S   4     -11.189  13.212  29.753  1.00 51.26 LIG 0.01  A 
ATOM     14  CE2 PHE S   4     -10.599  13.855  28.676  1.00 48.18 LIG 0.00  A 
ATOM     15  CZ  PHE S   4     -10.870  13.448  27.394  1.00 46.44 LIG 0.00  A 
ATOM     16  CE1 PHE S   4     -11.745  12.396  27.175  1.00 48.00 LIG 0.00  A 
ATOM     17  CD1 PHE S   4     -12.335  11.748  28.257  1.00 50.38 LIG 0.01  A 
ENDBRANCH 11 12
ENDBRANCH 10 11
BRANCH 10 18
ATOM     18  C   PHE S   4     -15.013  11.325  31.624  1.00 64.82 LIG 0.20  C 
ATOM     19 O    PHE S   4     -15.015  10.918  32.807  1.00 66.03 LIG-0.65  OA
ATOM     20 OXT  PHE S   4     -15.810  10.951  30.742  1.00 65.83 LIG-0.65  OA
ENDBRANCH 10 18
ENDBRANCH 8 10
ENDBRANCH 5 6
BRANCH 5 21
ATOM     21  CB  THR S   3     -11.067  14.447  34.059  1.00 64.83 LIG 0.15  C 
ATOM     22  CG2 THR S   3     -11.003  15.084  32.685  1.00 63.45 LIG 0.04  C 
BRANCH 21 23
ATOM     23 OG1  THR S   3     -10.836  15.450  35.050  1.00 64.80 LIG-0.39  OA
ATOM     24 HG1  THR S   3     -11.008  15.137  35.810  1.00 64.80 LIG 0.21  HD
ENDBRANCH 21 23
ENDBRANCH 5 21
ENDBRANCH 3 5
BRANCH 1 25
ATOM     25  CA  GLU S   2     -11.782  11.828  37.488  1.00 70.09 LIG 0.18  C 
BRANCH 25 26
ATOM     26  CB  GLU S   2     -12.529  10.491  37.472  1.00 72.94 LIG 0.04  C 
BRANCH 26 27
ATOM     27  CG  GLU S   2     -11.839   9.413  38.305  1.00 78.29 LIG 0.12  C 
BRANCH 27 28
ATOM     28  CD  GLU S   2     -11.588   9.829  39.740  1.00 81.85 LIG 0.17  C 
ATOM     29 OE1  GLU S   2     -10.560   9.413  40.315  1.00 85.61 LIG-0.65  OA
ATOM     30 OE2  GLU S   2     -12.424  10.575  40.300  1.00 84.00 LIG-0.65  OA
ENDBRANCH 27 28
ENDBRANCH 26 27
ENDBRANCH 25 26
BRANCH 25 31
ATOM     31  N   GLU S   2     -12.511  12.765  38.344  1.00 70.96 LIG-0.35  N 
ATOM     32  C   ALA S   1     -13.831  12.912  38.253  1.00 72.19 LIG 0.25  C 
ATOM     33 O    ALA S   1     -14.522  12.257  37.467  1.00 72.37 LIG-0.27  OA
ATOM     34 H    GLU S   2     -12.017  13.200  38.897  1.00 70.96 LIG 0.16  HD
BRANCH 32 35
ATOM     35  CA  ALA S   1     -14.481  13.944  39.186  1.00 72.54 LIG 0.27  C 
ATOM     36  CB  ALA S   1     -15.769  14.486  38.563  1.00 73.45 LIG 0.05  C 
BRANCH 35 37
ATOM     37  N   ALA S   1     -13.559  15.075  39.517  1.00 73.25 LIG-0.07  N 
ATOM     38 H2   ALA S   1     -13.605  15.693  38.879  1.00 73.25 LIG 0.28  HD
ATOM     39 H1   ALA S   1     -12.725  14.771  39.576  1.00 73.25 LIG 0.28  HD
ATOM     40 H3   ALA S   1     -13.798  15.435  40.295  1.00 73.25 LIG 0.28  HD
ENDBRANCH 35 37
ENDBRANCH 32 35
ENDBRANCH 25 31
ENDBRANCH 1 25
TORSDOF 15
ENDMDL
MODEL 9
USER: ADFR SOLUTION from run 21
USER: SCORE 16.035328 LL:  -2.613 LR: -13.891 RR:   0.000 FEB:  -9.417
USER: RMSD 5.732114
USER: SEED 20
USER: STATUS no improvement in best 125 clusters for 5 generations
USER: GENES 17
USER: genes 0 Translation |==|  0.53584 0.53757 0.43800
USER: genes 1 Rotation |==|  0.51146 0.40993 0.97655 0.62106
USER: genes 2 Torsion [C]-N--CA-[CB] |==|  0.76015
USER: genes 3 Torsion [N]-CA--C-[N] |==|  0.17485
USER: genes 4 Torsion [C]-N--CA-[C] |==|  0.63235
USER: genes 5 Torsion [N]-CA--CB-[CG] |==|  0.61323
USER: genes 6 Torsion [CA]-CB--CG-[CD2] |==|  0.60413
USER: genes 7 Torsion [N]-CA--C-[OXT] |==|  0.20927
USER: genes 8 Torsion [N]-CA--CB-[CG2] |==|  0.58511
USER: genes 9 Torsion [CA]-CB--OG1-[HG1] |==|  0.60496
USER: genes 10 Torsion [N]-C--CA-[N] |==|  0.35053
USER: genes 11 Torsion [C]-CA--CB-[CG] |==|  0.86937
USER: genes 12 Torsion [CA]-CB--CG-[CD] |==|  0.28595
USER: genes 13 Torsion [CB]-CG--CD-[OE1] |==|  0.89755
USER: genes 14 Torsion [C]-CA--N-[C] |==|  0.62991
USER: genes 15 Torsion [N]-C--CA-[N] |==|  0.52027
USER: genes 16 Torsion [C]-CA--N-[H1] |==|  0.64866
ROOT
ATOM      1  C   GLU S   2     -10.985  14.327  30.940  1.00 67.93 LIG 0.24  C 
ATOM      2 O    GLU S   2     -10.687  13.224  30.460  1.00 66.60 LIG-0.27  OA
ATOM      3  N   THR S   3     -12.041  15.029  30.549  1.00 66.34 LIG-0.34  N 
ATOM      4 H    THR S   3     -12.246  15.799  30.872  1.00 66.34 LIG 0.16  HD
ENDROOT
BRANCH 3 5
ATOM      5  CA  THR S   3     -12.960  14.553  29.525  1.00 65.04 LIG 0.20  C 
BRANCH 5 6
ATOM      6  C   THR S   3     -13.130  13.044  29.611  1.00 64.78 LIG 0.24  C 
ATOM      7 O    THR S   3     -12.785  12.294  28.690  1.00 64.25 LIG-0.27  OA
ATOM      8  N   PHE S   4     -13.666  12.611  30.743  1.00 64.25 LIG-0.34  N 
ATOM      9 H    PHE S   4     -13.917  13.133  31.379  1.00 64.25 LIG 0.16  HD
BRANCH 8 10
ATOM     10  CA  PHE S   4     -13.883  11.200  31.018  1.00 63.65 LIG 0.19  C 
BRANCH 10 11
ATOM     11  CB  PHE S   4     -12.882  10.735  32.052  1.00 60.49 LIG 0.07  C 
BRANCH 11 12
ATOM     12  CG  PHE S   4     -12.320   9.396  31.774  1.00 55.48 LIG-0.06  A 
ATOM     13  CD2 PHE S   4     -12.063   8.512  32.811  1.00 51.26 LIG 0.01  A 
ATOM     14  CE2 PHE S   4     -11.472   7.283  32.560  1.00 48.18 LIG 0.00  A 
ATOM     15  CZ  PHE S   4     -11.151   6.919  31.276  1.00 46.44 LIG 0.00  A 
ATOM     16  CE1 PHE S   4     -11.411   7.787  30.229  1.00 48.00 LIG 0.00  A 
ATOM     17  CD1 PHE S   4     -12.008   9.020  30.481  1.00 50.38 LIG 0.01  A 
ENDBRANCH 11 12
ENDBRANCH 10 11
BRANCH 10 18
ATOM     18  C   PHE S   4     -15.267  10.920  31.544  1.00 64.82 LIG 0.20  C 
ATOM     19 O    PHE S   4     -15.406  10.645  32.757  1.00 66.03 LIG-0.65  OA
ATOM     20 OXT  PHE S   4     -16.192  10.951  30.711  1.00 65.83 LIG-0.65  OA
ENDBRANCH 10 18
ENDBRANCH 8 10
ENDBRANCH 5 6
BRANCH 5 21
ATOM     21  CB  THR S   3     -12.438  14.944  28.147  1.00 64.83 LIG 0.15  C 
ATOM     22  CG2 THR S   3     -13.578  15.171  27.175  1.00 63.45 LIG 0.04  C 
BRANCH 21 23
ATOM     23 OG1  THR S   3     -11.687  16.153  28.276  1.00 64.80 LIG-0.39  OA
ATOM     24 HG1  THR S   3     -11.826  16.641  27.608  1.00 64.80 LIG 0.21  HD
ENDBRANCH 21 23
ENDBRANCH 5 21
ENDBRANCH 3 5
BRANCH 1 25
ATOM     25  CA  GLU S   2     -10.145  14.976  32.052  1.00 70.09 LIG 0.18  C 
BRANCH 25 26
ATOM     26  CB  GLU S   2      -8.777  15.410  31.517  1.00 72.94 LIG 0.04  C 
BRANCH 26 27
ATOM     27  CG  GLU S   2      -8.092  14.327  30.685  1.00 78.29 LIG 0.12  C 
BRANCH 27 28
ATOM     28  CD  GLU S   2      -8.170  14.575  29.191  1.00 81.85 LIG 0.17  C 
ATOM     29 OE1  GLU S   2      -9.213  15.075  28.720  1.00 85.61 LIG-0.65  OA
ATOM     30 OE2  GLU S   2      -7.185  14.265  28.484  1.00 84.00 LIG-0.65  OA
ENDBRANCH 27 28
ENDBRANCH 26 27
ENDBRANCH 25 26
BRANCH 25 31
ATOM     31  N   GLU S   2      -9.944  14.100  33.207  1.00 70.96 LIG-0.35  N 
ATOM     32  C   ALA S   1     -10.120  14.535  34.452  1.00 72.19 LIG 0.25  C 
ATOM     33 O    ALA S   1     -10.484  15.686  34.711  1.00 72.37 LIG-0.27  OA
ATOM     34 H    GLU S   2      -9.707  13.298  33.008  1.00 70.96 LIG 0.16  HD
BRANCH 32 35
ATOM     35  CA  ALA S   1      -9.854  13.531  35.583  1.00 72.54 LIG 0.27  C 
ATOM     36  CB  ALA S   1     -10.586  12.216  35.309  1.00 73.45 LIG 0.05  C 
BRANCH 35 37
ATOM     37  N   ALA S   1     -10.247  14.064  36.925  1.00 73.25 LIG-0.07  N 
ATOM     38 H2   ALA S   1     -10.485  14.918  36.848  1.00 73.25 LIG 0.28  HD
ATOM     39 H1   ALA S   1      -9.558  13.998  37.484  1.00 73.25 LIG 0.28  HD
ATOM     40 H3   ALA S   1     -10.932  13.594  37.243  1.00 73.25 LIG 0.28  HD
ENDBRANCH 35 37
ENDBRANCH 32 35
ENDBRANCH 25 31
ENDBRANCH 1 25
TORSDOF 15
ENDMDL
MODEL 10
USER: ADFR SOLUTION from run 189
USER: SCORE 16.467803 LL:  -3.602 LR: -13.602 RR:   0.000 FEB:  -9.128
USER: RMSD 6.823744
USER: SEED 188
USER: STATUS no improvement in best 143 clusters for 5 generations
USER: GENES 17
USER: genes 0 Translation |==|  0.55756 0.55785 0.48600
USER: genes 1 Rotation |==|  0.88548 0.28048 0.46054 0.72729
USER: genes 2 Torsion [C]-N--CA-[CB] |==|  0.79731
USER: genes 3 Torsion [N]-CA--C-[N] |==|  0.15646
USER: genes 4 Torsion [C]-N--CA-[C] |==|  0.72178
USER: genes 5 Torsion [N]-CA--CB-[CG] |==|  0.78173
USER: genes 6 Torsion [CA]-CB--CG-[CD2] |==|  0.49933
USER: genes 7 Torsion [N]-CA--C-[OXT] |==|  0.43462
USER: genes 8 Torsion [N]-CA--CB-[CG2] |==|  0.83003
USER: genes 9 Torsion [CA]-CB--OG1-[HG1] |==|  0.58350
USER: genes 10 Torsion [N]-C--CA-[N] |==|  0.47446
USER: genes 11 Torsion [C]-CA--CB-[CG] |==|  0.32437
USER: genes 12 Torsion [CA]-CB--CG-[CD] |==|  0.15899
USER: genes 13 Torsion [CB]-CG--CD-[OE1] |==|  0.07134
USER: genes 14 Torsion [C]-CA--N-[C] |==|  0.64751
USER: genes 15 Torsion [N]-C--CA-[N] |==|  0.19739
USER: genes 16 Torsion [C]-CA--N-[H1] |==|  0.62436
ROOT
ATOM      1  C   GLU S   2     -10.333  14.936  32.380  1.00 67.93 LIG 0.24  C 
ATOM      2 O    GLU S   2     -11.351  15.412  32.901  1.00 66.60 LIG-0.27  OA
ATOM      3  N   THR S   3      -9.347  14.387  33.079  1.00 66.34 LIG-0.34  N 
ATOM      4 H    THR S   3      -8.635  14.064  32.722  1.00 66.34 LIG 0.16  HD
ENDROOT
BRANCH 3 5
ATOM      5  CA  THR S   3      -9.384  14.280  34.531  1.00 65.04 LIG 0.20  C 
BRANCH 5 6
ATOM      6  C   THR S   3     -10.711  13.703  34.997  1.00 64.78 LIG 0.24  C 
ATOM      7 O    THR S   3     -11.439  14.300  35.798  1.00 64.25 LIG-0.27  OA
ATOM      8  N   PHE S   4     -11.015  12.523  34.473  1.00 64.25 LIG-0.34  N 
ATOM      9 H    PHE S   4     -10.504  12.101  33.925  1.00 64.25 LIG 0.16  HD
BRANCH 8 10
ATOM     10  CA  PHE S   4     -12.253  11.826  34.780  1.00 63.65 LIG 0.19  C 
BRANCH 10 11
ATOM     11  CB  PHE S   4     -12.794  11.193  33.517  1.00 60.49 LIG 0.07  C 
BRANCH 11 12
ATOM     12  CG  PHE S   4     -13.484  12.149  32.624  1.00 55.48 LIG-0.06  A 
ATOM     13  CD2 PHE S   4     -14.030  11.720  31.423  1.00 51.26 LIG 0.01  A 
ATOM     14  CE2 PHE S   4     -14.616  12.625  30.552  1.00 48.18 LIG 0.00  A 
ATOM     15  CZ  PHE S   4     -14.679  13.957  30.877  1.00 46.44 LIG 0.00  A 
ATOM     16  CE1 PHE S   4     -14.147  14.399  32.077  1.00 48.00 LIG 0.00  A 
ATOM     17  CD1 PHE S   4     -13.562  13.489  32.954  1.00 50.38 LIG 0.01  A 
ENDBRANCH 11 12
ENDBRANCH 10 11
BRANCH 10 18
ATOM     18  C   PHE S   4     -12.065  10.740  35.807  1.00 64.82 LIG 0.20  C 
ATOM     19 O    PHE S   4     -10.935  10.216  35.929  1.00 66.03 LIG-0.65  OA
ATOM     20 OXT  PHE S   4     -13.076  10.408  36.454  1.00 65.83 LIG-0.65  OA
ENDBRANCH 10 18
ENDBRANCH 8 10
ENDBRANCH 5 6
BRANCH 5 21
ATOM     21  CB  THR S   3      -9.165  15.656  35.150  1.00 64.83 LIG 0.15  C 
ATOM     22  CG2 THR S   3      -7.812  16.219  34.765  1.00 63.45 LIG 0.04  C 
BRANCH 21 23
ATOM     23 OG1  THR S   3     -10.188  16.532  34.673  1.00 64.80 LIG-0.39  OA
ATOM     24 HG1  THR S   3      -9.893  17.317  34.642  1.00 64.80 LIG 0.21  HD
ENDBRANCH 21 23
ENDBRANCH 5 21
ENDBRANCH 3 5
BRANCH 1 25
ATOM     25  CA  GLU S   2     -10.133  14.934  30.856  1.00 70.09 LIG 0.18  C 
BRANCH 25 26
ATOM     26  CB  GLU S   2      -8.966  15.844  30.460  1.00 72.94 LIG 0.04  C 
BRANCH 26 27
ATOM     27  CG  GLU S   2      -7.816  15.085  29.802  1.00 78.29 LIG 0.12  C 
BRANCH 27 28
ATOM     28  CD  GLU S   2      -8.232  14.311  28.567  1.00 81.85 LIG 0.17  C 
ATOM     29 OE1  GLU S   2      -9.229  14.700  27.923  1.00 85.61 LIG-0.65  OA
ATOM     30 OE2  GLU S   2      -7.560  13.307  28.238  1.00 84.00 LIG-0.65  OA
ENDBRANCH 27 28
ENDBRANCH 26 27
ENDBRANCH 25 26
BRANCH 25 31
ATOM     31  N   GLU S   2     -11.326  15.349  30.118  1.00 70.96 LIG-0.35  N 
ATOM     32  C   ALA S   1     -11.840  14.602  29.143  1.00 72.19 LIG 0.25  C 
ATOM     33 O    ALA S   1     -11.363  13.511  28.819  1.00 72.37 LIG-0.27  OA
ATOM     34 H    GLU S   2     -11.655  16.103  30.369  1.00 70.96 LIG 0.16  HD
BRANCH 32 35
ATOM     35  CA  ALA S   1     -13.079  15.155  28.424  1.00 72.54 LIG 0.27  C 
ATOM     36  CB  ALA S   1     -13.748  14.055  27.598  1.00 73.45 LIG 0.05  C 
BRANCH 35 37
ATOM     37  N   ALA S   1     -12.758  16.326  27.550  1.00 73.25 LIG-0.07  N 
ATOM     38 H2   ALA S   1     -11.953  16.642  27.760  1.00 73.25 LIG 0.28  HD
ATOM     39 H1   ALA S   1     -13.367  16.963  27.672  1.00 73.25 LIG 0.28  HD
ATOM     40 H3   ALA S   1     -12.762  16.071  26.698  1.00 73.25 LIG 0.28  HD
ENDBRANCH 35 37
ENDBRANCH 32 35
ENDBRANCH 25 31
ENDBRANCH 1 25
TORSDOF 15
ENDMDL
MODEL 11
USER: ADFR SOLUTION from run 39
USER: SCORE 16.117157 LL:  -3.217 LR: -13.570 RR:   0.000 FEB:  -9.095
USER: RMSD 5.785964
USER: SEED 38
USER: STATUS no improvement in best 141 clusters for 5 generations
USER: GENES 17
USER: genes 0 Translation |==|  0.51110 0.54116 0.48512
USER: genes 1 Rotation |==|  0.06376 0.74282 0.51088 0.52487
USER: genes 2 Torsion [C]-N--CA-[CB] |==|  0.78708
USER: genes 3 Torsion [N]-CA--C-[N] |==|  0.11667
USER: genes 4 Torsion [C]-N--CA-[C] |==|  0.88017
USER: genes 5 Torsion [N]-CA--CB-[CG] |==|  0.80963
USER: genes 6 Torsion [CA]-CB--CG-[CD2] |==|  0.39026
USER: genes 7 Torsion [N]-CA--C-[OXT] |==|  0.32619
USER: genes 8 Torsion [N]-CA--CB-[CG2] |==|  0.73534
USER: genes 9 Torsion [CA]-CB--OG1-[HG1] |==|  0.39251
USER: genes 10 Torsion [N]-C--CA-[N] |==|  0.88572
USER: genes 11 Torsion [C]-CA--CB-[CG] |==|  0.78198
USER: genes 12 Torsion [CA]-CB--CG-[CD] |==|  0.64072
USER: genes 13 Torsion [CB]-CG--CD-[OE1] |==|  0.58602
USER: genes 14 Torsion [C]-CA--N-[C] |==|  0.83785
USER: genes 15 Torsion [N]-C--CA-[N] |==|  0.25442
USER: genes 16 Torsion [C]-CA--N-[H1] |==|  0.03036
ROOT
ATOM      1  C   GLU S   2     -11.727  14.435  32.354  1.00 67.93 LIG 0.24  C 
ATOM      2 O    GLU S   2     -12.946  14.642  32.434  1.00 66.60 LIG-0.27  OA
ATOM      3  N   THR S   3     -11.145  13.334  32.811  1.00 66.34 LIG-0.34  N 
ATOM      4 H    THR S   3     -10.299  13.190  32.766  1.00 66.34 LIG 0.16  HD
ENDROOT
BRANCH 3 5
ATOM      5  CA  THR S   3     -11.897  12.255  33.439  1.00 65.04 LIG 0.20  C 
BRANCH 5 6
ATOM      6  C   THR S   3     -13.149  11.933  32.638  1.00 64.78 LIG 0.24  C 
ATOM      7 O    THR S   3     -14.236  11.714  33.185  1.00 64.25 LIG-0.27  OA
ATOM      8  N   PHE S   4     -12.975  11.913  31.324  1.00 64.25 LIG-0.34  N 
ATOM      9 H    PHE S   4     -12.216  12.053  30.943  1.00 64.25 LIG 0.16  HD
BRANCH 8 10
ATOM     10  CA  PHE S   4     -14.061  11.648  30.394  1.00 63.65 LIG 0.19  C 
BRANCH 10 11
ATOM     11  CB  PHE S   4     -13.483  11.290  29.043  1.00 60.49 LIG 0.07  C 
BRANCH 11 12
ATOM     12  CG  PHE S   4     -12.813  12.421  28.366  1.00 55.48 LIG-0.06  A 
ATOM     13  CD2 PHE S   4     -11.635  12.221  27.662  1.00 51.26 LIG 0.01  A 
ATOM     14  CE2 PHE S   4     -10.968  13.292  27.085  1.00 48.18 LIG 0.00  A 
ATOM     15  CZ  PHE S   4     -11.477  14.562  27.189  1.00 46.44 LIG 0.00  A 
ATOM     16  CE1 PHE S   4     -12.658  14.776  27.882  1.00 48.00 LIG 0.00  A 
ATOM     17  CD1 PHE S   4     -13.329  13.700  28.458  1.00 50.38 LIG 0.01  A 
ENDBRANCH 11 12
ENDBRANCH 10 11
BRANCH 10 18
ATOM     18  C   PHE S   4     -14.942  10.512  30.845  1.00 64.82 LIG 0.20  C 
ATOM     19 O    PHE S   4     -14.452   9.364  30.924  1.00 66.03 LIG-0.65  OA
ATOM     20 OXT  PHE S   4     -16.132  10.795  31.080  1.00 65.83 LIG-0.65  OA
ENDBRANCH 10 18
ENDBRANCH 8 10
ENDBRANCH 5 6
BRANCH 5 21
ATOM     21  CB  THR S   3     -12.273  12.654  34.861  1.00 64.83 LIG 0.15  C 
ATOM     22  CG2 THR S   3     -11.267  12.122  35.862  1.00 63.45 LIG 0.04  C 
BRANCH 21 23
ATOM     23 OG1  THR S   3     -12.297  14.081  34.937  1.00 64.80 LIG-0.39  OA
ATOM     24 HG1  THR S   3     -12.938  14.325  35.422  1.00 64.80 LIG 0.21  HD
ENDBRANCH 21 23
ENDBRANCH 5 21
ENDBRANCH 3 5
BRANCH 1 25
ATOM     25  CA  GLU S   2     -10.777  15.450  31.697  1.00 70.09 LIG 0.18  C 
BRANCH 25 26
ATOM     26  CB  GLU S   2     -10.473  15.053  30.250  1.00 72.94 LIG 0.04  C 
BRANCH 26 27
ATOM     27  CG  GLU S   2      -9.436  13.937  30.144  1.00 78.29 LIG 0.12  C 
BRANCH 27 28
ATOM     28  CD  GLU S   2      -8.304  14.255  29.187  1.00 81.85 LIG 0.17  C 
ATOM     29 OE1  GLU S   2      -7.757  13.315  28.572  1.00 85.61 LIG-0.65  OA
ATOM     30 OE2  GLU S   2      -7.957  15.450  29.050  1.00 84.00 LIG-0.65  OA
ENDBRANCH 27 28
ENDBRANCH 26 27
ENDBRANCH 25 26
BRANCH 25 31
ATOM     31  N   GLU S   2      -9.514  15.607  32.419  1.00 70.96 LIG-0.35  N 
ATOM     32  C   ALA S   1      -9.482  15.988  33.694  1.00 72.19 LIG 0.25  C 
ATOM     33 O    ALA S   1     -10.504  16.209  34.350  1.00 72.37 LIG-0.27  OA
ATOM     34 H    GLU S   2      -8.814  15.433  31.952  1.00 70.96 LIG 0.16  HD
BRANCH 32 35
ATOM     35  CA  ALA S   1      -8.096  16.143  34.338  1.00 72.54 LIG 0.27  C 
ATOM     36  CB  ALA S   1      -8.146  15.732  35.811  1.00 73.45 LIG 0.05  C 
BRANCH 35 37
ATOM     37  N   ALA S   1      -7.560  17.535  34.213  1.00 73.25 LIG-0.07  N 
ATOM     38 H2   ALA S   1      -7.271  17.814  35.007  1.00 73.25 LIG 0.28  HD
ATOM     39 H1   ALA S   1      -8.205  18.076  33.925  1.00 73.25 LIG 0.28  HD
ATOM     40 H3   ALA S   1      -6.885  17.543  33.633  1.00 73.25 LIG 0.28  HD
ENDBRANCH 35 37
ENDBRANCH 32 35
ENDBRANCH 25 31
ENDBRANCH 1 25
TORSDOF 15
ENDMDL
