MODEL 1
USER: ADFR SOLUTION from run 129
USER: SCORE 10.878978 LL:  -2.478 LR: -10.823 RR:   0.000 FEB:  -7.243
USER: RMSD 6.382026
USER: SEED 128
USER: STATUS no improvement in best 19 clusters for 5 generations
USER: GENES 14
USER: genes 0 Translation |==|  0.43582 0.52001 0.49804
USER: genes 1 Rotation |==|  0.33001 0.87407 0.51168 0.78468
USER: genes 2 Torsion [C]-CA--CB-[CG] |==|  0.52522
USER: genes 3 Torsion [CA]-CB--CG-[CD1] |==|  0.84014
USER: genes 4 Torsion [N]-CA--C-[N] |==|  0.58825
USER: genes 5 Torsion [C]-N--CA-[CB] |==|  0.51111
USER: genes 6 Torsion [N]-CA--C-[N] |==|  0.44821
USER: genes 7 Torsion [C]-N--CA-[C] |==|  0.28008
USER: genes 8 Torsion [N]-CA--C-[O] |==|  0.40330
USER: genes 9 Torsion [CB]-CA--N-[C] |==|  0.30529
USER: genes 10 Torsion [N]-C--CA-[N] |==|  0.87687
USER: genes 11 Torsion [C]-CA--N-[C] |==|  0.70467
USER: genes 12 Torsion [N]-C--CA-[N] |==|  0.92067
USER: genes 13 Torsion [C]-CA--N-[H2] |==|  0.26292
ROOT
ATOM      1  CA  LEU B   3     -17.495 -23.780  39.981  1.00 80.55 LIG 0.18  C 
ENDROOT
BRANCH 1 2
ATOM      2  CB  LEU B   3     -17.668 -23.557  38.471  1.00 80.55 LIG 0.04  C 
BRANCH 2 3
ATOM      3  CG  LEU B   3     -16.548 -23.944  37.473  1.00 80.55 LIG-0.02  C 
ATOM      4  CD1 LEU B   3     -15.212 -23.202  37.825  1.00 80.53 LIG 0.01  C 
ATOM      5  CD2 LEU B   3     -16.293 -25.471  37.415  1.00 80.44 LIG 0.01  C 
ENDBRANCH 2 3
ENDBRANCH 1 2
BRANCH 1 6
ATOM      6  C   LEU B   3     -18.807 -23.531  40.722  1.00 80.58 LIG 0.24  C 
ATOM      7  N   ALA B   4     -19.619 -22.638  40.142  1.00 80.60 LIG-0.35  N 
ATOM      8 H    ALA B   4     -19.398 -22.215  39.427  1.00 80.60 LIG 0.16  HD
ATOM      9 O    LEU B   3     -19.076 -24.144  41.762  1.00 80.60 LIG-0.27  OA
BRANCH 7 10
ATOM     10  CA  ALA B   4     -20.957 -22.269  40.630  1.00 80.57 LIG 0.17  C 
ATOM     11  CB  ALA B   4     -21.630 -21.299  39.668  1.00 80.56 LIG 0.04  C 
BRANCH 10 12
ATOM     12  C   ALA B   4     -21.838 -23.489  40.906  1.00 80.56 LIG 0.24  C 
ATOM     13  N   GLY B   5     -22.887 -23.259  41.698  1.00 80.55 LIG-0.35  N 
ATOM     14 H    GLY B   5     -23.094 -22.473  41.978  1.00 80.55 LIG 0.16  HD
ATOM     15 O    ALA B   4     -21.573 -24.595  40.419  1.00 80.59 LIG-0.27  OA
BRANCH 13 16
ATOM     16  CA  GLY B   5     -23.797 -24.305  42.178  1.00 80.50 LIG 0.21  C 
BRANCH 16 17
ATOM     17  C   GLY B   5     -23.586 -24.795  43.601  1.00 80.51 LIG 0.21  C 
ATOM     18 O    GLY B   5     -24.585 -25.130  44.299  1.00 80.50 LIG-0.29  OA
ENDBRANCH 16 17
ENDBRANCH 13 16
ENDBRANCH 10 12
ENDBRANCH 7 10
ENDBRANCH 1 6
BRANCH 1 19
ATOM     19  N   LEU B   3     -17.203 -25.174  40.272  1.00 80.50 LIG-0.35  N 
ATOM     20  C   ALA B   2     -15.991 -25.580  40.706  1.00 80.42 LIG 0.24  C 
ATOM     21 O    ALA B   2     -14.913 -25.025  40.359  1.00 80.43 LIG-0.27  OA
ATOM     22 H    LEU B   3     -17.867 -25.706  40.144  1.00 80.50 LIG 0.16  HD
BRANCH 20 23
ATOM     23  CA  ALA B   2     -15.980 -26.911  41.462  1.00 80.35 LIG 0.17  C 
ATOM     24  CB  ALA B   2     -16.104 -28.071  40.500  1.00 80.34 LIG 0.04  C 
BRANCH 23 25
ATOM     25  N   ALA B   2     -17.101 -26.919  42.407  1.00 80.28 LIG-0.35  N 
ATOM     26 H    ALA B   2     -17.866 -27.024  42.029  1.00 80.28 LIG 0.16  HD
ATOM     27  C   GLY B   1     -16.956 -26.780  43.724  1.00 80.20 LIG 0.24  C 
ATOM     28 O    GLY B   1     -15.874 -26.587  44.277  1.00 80.22 LIG-0.27  OA
BRANCH 27 29
ATOM     29  CA  GLY B   1     -18.228 -26.871  44.539  1.00 80.17 LIG 0.33  C 
BRANCH 29 30
ATOM     30  N   GLY B   1     -19.443 -26.435  43.790  1.00 80.00 LIG-0.07  N 
ATOM     31 H3   GLY B   1     -20.008 -26.034  44.348  1.00 80.00 LIG 0.27  HD
ATOM     32 H2   GLY B   1     -19.840 -27.145  43.427  1.00 80.00 LIG 0.27  HD
ATOM     33 H1   GLY B   1     -19.208 -25.866  43.147  1.00 80.00 LIG 0.27  HD
ENDBRANCH 29 30
ENDBRANCH 27 29
ENDBRANCH 23 25
ENDBRANCH 20 23
ENDBRANCH 1 19
TORSDOF 12
ENDMDL
MODEL 2
USER: ADFR SOLUTION from run 87
USER: SCORE 12.069327 LL:  -2.193 LR: -10.505 RR:   0.000 FEB:  -6.925
USER: RMSD 7.199405
USER: SEED 86
USER: STATUS no improvement in best 9 clusters for 5 generations
USER: GENES 14
USER: genes 0 Translation |==|  0.33059 0.60093 0.48611
USER: genes 1 Rotation |==|  0.25235 0.12743 0.48501 0.72278
USER: genes 2 Torsion [C]-CA--CB-[CG] |==|  0.55153
USER: genes 3 Torsion [CA]-CB--CG-[CD1] |==|  0.46159
USER: genes 4 Torsion [N]-CA--C-[N] |==|  0.37222
USER: genes 5 Torsion [C]-N--CA-[CB] |==|  0.84089
USER: genes 6 Torsion [N]-CA--C-[N] |==|  0.39901
USER: genes 7 Torsion [C]-N--CA-[C] |==|  0.39270
USER: genes 8 Torsion [N]-CA--C-[O] |==|  0.57646
USER: genes 9 Torsion [CB]-CA--N-[C] |==|  0.55795
USER: genes 10 Torsion [N]-C--CA-[N] |==|  0.44423
USER: genes 11 Torsion [C]-CA--N-[C] |==|  0.64534
USER: genes 12 Torsion [N]-C--CA-[N] |==|  0.45688
USER: genes 13 Torsion [C]-CA--N-[H2] |==|  0.98485
ROOT
ATOM      1  CA  LEU B   3     -20.652 -21.352  39.623  1.00 80.55 LIG 0.18  C 
ENDROOT
BRANCH 1 2
ATOM      2  CB  LEU B   3     -20.485 -19.844  39.869  1.00 80.55 LIG 0.04  C 
BRANCH 2 3
ATOM      3  CG  LEU B   3     -21.695 -18.960  40.261  1.00 80.55 LIG-0.02  C 
ATOM      4  CD1 LEU B   3     -21.212 -17.564  40.789  1.00 80.53 LIG 0.01  C 
ATOM      5  CD2 LEU B   3     -22.695 -18.755  39.096  1.00 80.44 LIG 0.01  C 
ENDBRANCH 2 3
ENDBRANCH 1 2
BRANCH 1 6
ATOM      6  C   LEU B   3     -19.307 -22.070  39.705  1.00 80.58 LIG 0.24  C 
ATOM      7  N   ALA B   4     -18.814 -22.474  38.527  1.00 80.60 LIG-0.35  N 
ATOM      8 H    ALA B   4     -19.243 -22.366  37.790  1.00 80.60 LIG 0.16  HD
ATOM      9 O    LEU B   3     -18.734 -22.225  40.790  1.00 80.60 LIG-0.27  OA
BRANCH 7 10
ATOM     10  CA  ALA B   4     -17.514 -23.137  38.337  1.00 80.57 LIG 0.17  C 
ATOM     11  CB  ALA B   4     -16.386 -22.267  38.878  1.00 80.56 LIG 0.04  C 
BRANCH 10 12
ATOM     12  C   ALA B   4     -17.478 -24.543  38.938  1.00 80.56 LIG 0.24  C 
ATOM     13  N   GLY B   5     -16.772 -25.435  38.243  1.00 80.55 LIG-0.35  N 
ATOM     14 H    GLY B   5     -16.315 -25.224  37.546  1.00 80.55 LIG 0.16  HD
ATOM     15 O    ALA B   4     -18.071 -24.805  39.994  1.00 80.59 LIG-0.27  OA
BRANCH 13 16
ATOM     16  CA  GLY B   5     -16.695 -26.862  38.579  1.00 80.50 LIG 0.21  C 
BRANCH 16 17
ATOM     17  C   GLY B   5     -16.695 -27.839  37.415  1.00 80.51 LIG 0.21  C 
ATOM     18 O    GLY B   5     -17.144 -29.008  37.583  1.00 80.50 LIG-0.29  OA
ENDBRANCH 16 17
ENDBRANCH 13 16
ENDBRANCH 10 12
ENDBRANCH 7 10
ENDBRANCH 1 6
BRANCH 1 19
ATOM     19  N   LEU B   3     -21.429 -21.970  40.685  1.00 80.50 LIG-0.35  N 
ATOM     20  C   ALA B   2     -21.377 -23.295  40.937  1.00 80.42 LIG 0.24  C 
ATOM     21 O    ALA B   2     -21.195 -24.161  40.040  1.00 80.43 LIG-0.27  OA
ATOM     22 H    LEU B   3     -21.917 -21.419  41.131  1.00 80.50 LIG 0.16  HD
BRANCH 20 23
ATOM     23  CA  ALA B   2     -21.791 -23.708  42.352  1.00 80.35 LIG 0.17  C 
ATOM     24  CB  ALA B   2     -20.663 -23.467  43.329  1.00 80.34 LIG 0.04  C 
BRANCH 23 25
ATOM     25  N   ALA B   2     -22.148 -25.130  42.338  1.00 80.28 LIG-0.35  N 
ATOM     26 H    ALA B   2     -21.541 -25.632  41.993  1.00 80.28 LIG 0.16  HD
ATOM     27  C   GLY B   1     -23.298 -25.607  42.812  1.00 80.20 LIG 0.24  C 
ATOM     28 O    GLY B   1     -24.195 -24.900  43.270  1.00 80.22 LIG-0.27  OA
BRANCH 27 29
ATOM     29  CA  GLY B   1     -23.458 -27.112  42.758  1.00 80.17 LIG 0.33  C 
BRANCH 29 30
ATOM     30  N   GLY B   1     -24.570 -27.618  43.615  1.00 80.00 LIG-0.07  N 
ATOM     31 H3   GLY B   1     -25.204 -27.972  43.101  1.00 80.00 LIG 0.27  HD
ATOM     32 H2   GLY B   1     -24.913 -26.945  44.086  1.00 80.00 LIG 0.27  HD
ATOM     33 H1   GLY B   1     -24.258 -28.240  44.171  1.00 80.00 LIG 0.27  HD
ENDBRANCH 29 30
ENDBRANCH 27 29
ENDBRANCH 23 25
ENDBRANCH 20 23
ENDBRANCH 1 19
TORSDOF 12
ENDMDL
MODEL 3
USER: ADFR SOLUTION from run 87
USER: SCORE 10.472615 LL:  -2.355 LR: -10.423 RR:   0.000 FEB:  -6.844
USER: RMSD 6.435188
USER: SEED 86
USER: STATUS no improvement in best 9 clusters for 5 generations
USER: GENES 14
USER: genes 0 Translation |==|  0.33033 0.60577 0.48210
USER: genes 1 Rotation |==|  0.26129 0.11301 0.49552 0.70794
USER: genes 2 Torsion [C]-CA--CB-[CG] |==|  0.58565
USER: genes 3 Torsion [CA]-CB--CG-[CD1] |==|  0.44967
USER: genes 4 Torsion [N]-CA--C-[N] |==|  0.39569
USER: genes 5 Torsion [C]-N--CA-[CB] |==|  0.41480
USER: genes 6 Torsion [N]-CA--C-[N] |==|  0.12003
USER: genes 7 Torsion [C]-N--CA-[C] |==|  0.14668
USER: genes 8 Torsion [N]-CA--C-[O] |==|  0.15701
USER: genes 9 Torsion [CB]-CA--N-[C] |==|  0.54444
USER: genes 10 Torsion [N]-C--CA-[N] |==|  0.44278
USER: genes 11 Torsion [C]-CA--N-[C] |==|  0.64429
USER: genes 12 Torsion [N]-C--CA-[N] |==|  0.45347
USER: genes 13 Torsion [C]-CA--N-[H2] |==|  0.98485
ROOT
ATOM      1  CA  LEU B   3     -20.660 -21.207  39.503  1.00 80.55 LIG 0.18  C 
ENDROOT
BRANCH 1 2
ATOM      2  CB  LEU B   3     -20.613 -19.682  39.683  1.00 80.55 LIG 0.04  C 
BRANCH 2 3
ATOM      3  CG  LEU B   3     -21.830 -18.906  40.246  1.00 80.55 LIG-0.02  C 
ATOM      4  CD1 LEU B   3     -21.395 -17.488  40.757  1.00 80.53 LIG 0.01  C 
ATOM      5  CD2 LEU B   3     -22.978 -18.755  39.217  1.00 80.44 LIG 0.01  C 
ENDBRANCH 2 3
ENDBRANCH 1 2
BRANCH 1 6
ATOM      6  C   LEU B   3     -19.274 -21.820  39.684  1.00 80.58 LIG 0.24  C 
ATOM      7  N   ALA B   4     -18.620 -22.076  38.544  1.00 80.60 LIG-0.35  N 
ATOM      8 H    ALA B   4     -18.973 -21.937  37.773  1.00 80.60 LIG 0.16  HD
ATOM      9 O    LEU B   3     -18.811 -22.026  40.813  1.00 80.60 LIG-0.27  OA
BRANCH 7 10
ATOM     10  CA  ALA B   4     -17.252 -22.613  38.455  1.00 80.57 LIG 0.17  C 
ATOM     11  CB  ALA B   4     -17.089 -23.458  37.198  1.00 80.56 LIG 0.04  C 
BRANCH 10 12
ATOM     12  C   ALA B   4     -16.186 -21.520  38.540  1.00 80.56 LIG 0.24  C 
ATOM     13  N   GLY B   5     -16.403 -20.591  39.472  1.00 80.55 LIG-0.35  N 
ATOM     14 H    GLY B   5     -17.056 -20.638  40.030  1.00 80.55 LIG 0.16  HD
ATOM     15 O    ALA B   4     -15.204 -21.522  37.786  1.00 80.59 LIG-0.27  OA
BRANCH 13 16
ATOM     16  CA  GLY B   5     -15.568 -19.398  39.653  1.00 80.50 LIG 0.21  C 
BRANCH 16 17
ATOM     17  C   GLY B   5     -15.331 -18.537  38.423  1.00 80.51 LIG 0.21  C 
ATOM     18 O    GLY B   5     -16.320 -18.070  37.790  1.00 80.50 LIG-0.29  OA
ENDBRANCH 16 17
ENDBRANCH 13 16
ENDBRANCH 10 12
ENDBRANCH 7 10
ENDBRANCH 1 6
BRANCH 1 19
ATOM     19  N   LEU B   3     -21.445 -21.832  40.554  1.00 80.50 LIG-0.35  N 
ATOM     20  C   ALA B   2     -21.383 -23.157  40.809  1.00 80.42 LIG 0.24  C 
ATOM     21 O    ALA B   2     -21.179 -24.022  39.915  1.00 80.43 LIG-0.27  OA
ATOM     22 H    LEU B   3     -21.945 -21.286  40.993  1.00 80.50 LIG 0.16  HD
BRANCH 20 23
ATOM     23  CA  ALA B   2     -21.812 -23.572  42.219  1.00 80.35 LIG 0.17  C 
ATOM     24  CB  ALA B   2     -20.696 -23.330  43.208  1.00 80.34 LIG 0.04  C 
BRANCH 23 25
ATOM     25  N   ALA B   2     -22.166 -24.995  42.198  1.00 80.28 LIG-0.35  N 
ATOM     26 H    ALA B   2     -21.555 -25.494  41.854  1.00 80.28 LIG 0.16  HD
ATOM     27  C   GLY B   1     -23.317 -25.476  42.664  1.00 80.20 LIG 0.24  C 
ATOM     28 O    GLY B   1     -24.218 -24.772  43.120  1.00 80.22 LIG-0.27  OA
BRANCH 27 29
ATOM     29  CA  GLY B   1     -23.474 -26.981  42.606  1.00 80.17 LIG 0.33  C 
BRANCH 29 30
ATOM     30  N   GLY B   1     -24.570 -27.495  43.478  1.00 80.00 LIG-0.07  N 
ATOM     31 H3   GLY B   1     -25.211 -27.849  42.972  1.00 80.00 LIG 0.27  HD
ATOM     32 H2   GLY B   1     -24.907 -26.825  43.958  1.00 80.00 LIG 0.27  HD
ATOM     33 H1   GLY B   1     -24.246 -28.119  44.025  1.00 80.00 LIG 0.27  HD
ENDBRANCH 29 30
ENDBRANCH 27 29
ENDBRANCH 23 25
ENDBRANCH 20 23
ENDBRANCH 1 19
TORSDOF 12
ENDMDL
MODEL 4
USER: ADFR SOLUTION from run 45
USER: SCORE 11.773507 LL:  -2.197 LR: -10.376 RR:   0.000 FEB:  -6.797
USER: RMSD 7.968515
USER: SEED 44
USER: STATUS no improvement in best 17 clusters for 5 generations
USER: GENES 14
USER: genes 0 Translation |==|  0.45539 0.56490 0.44743
USER: genes 1 Rotation |==|  0.96991 0.36885 0.59340 0.55709
USER: genes 2 Torsion [C]-CA--CB-[CG] |==|  0.13427
USER: genes 3 Torsion [CA]-CB--CG-[CD1] |==|  0.32281
USER: genes 4 Torsion [N]-CA--C-[N] |==|  0.30006
USER: genes 5 Torsion [C]-N--CA-[CB] |==|  0.50559
USER: genes 6 Torsion [N]-CA--C-[N] |==|  0.47131
USER: genes 7 Torsion [C]-N--CA-[C] |==|  0.83224
USER: genes 8 Torsion [N]-CA--C-[O] |==|  0.12685
USER: genes 9 Torsion [CB]-CA--N-[C] |==|  0.56881
USER: genes 10 Torsion [N]-C--CA-[N] |==|  0.40017
USER: genes 11 Torsion [C]-CA--N-[C] |==|  0.82037
USER: genes 12 Torsion [N]-C--CA-[N] |==|  0.22063
USER: genes 13 Torsion [C]-CA--N-[H2] |==|  0.95365
ROOT
ATOM      1  CA  LEU B   3     -16.908 -22.433  38.463  1.00 80.55 LIG 0.18  C 
ENDROOT
BRANCH 1 2
ATOM      2  CB  LEU B   3     -16.225 -23.800  38.626  1.00 80.55 LIG 0.04  C 
BRANCH 2 3
ATOM      3  CG  LEU B   3     -17.053 -25.109  38.648  1.00 80.55 LIG-0.02  C 
ATOM      4  CD1 LEU B   3     -16.687 -26.017  37.423  1.00 80.53 LIG 0.01  C 
ATOM      5  CD2 LEU B   3     -16.874 -25.913  39.961  1.00 80.44 LIG 0.01  C 
ENDBRANCH 2 3
ENDBRANCH 1 2
BRANCH 1 6
ATOM      6  C   LEU B   3     -18.091 -22.298  39.419  1.00 80.58 LIG 0.24  C 
ATOM      7  N   ALA B   4     -19.215 -21.832  38.860  1.00 80.60 LIG-0.35  N 
ATOM      8 H    ALA B   4     -19.251 -21.595  38.034  1.00 80.60 LIG 0.16  HD
ATOM      9 O    LEU B   3     -17.990 -22.628  40.607  1.00 80.60 LIG-0.27  OA
BRANCH 7 10
ATOM     10  CA  ALA B   4     -20.500 -21.665  39.556  1.00 80.57 LIG 0.17  C 
ATOM     11  CB  ALA B   4     -21.568 -21.158  38.596  1.00 80.56 LIG 0.04  C 
BRANCH 10 12
ATOM     12  C   ALA B   4     -20.949 -22.939  40.274  1.00 80.56 LIG 0.24  C 
ATOM     13  N   GLY B   5     -21.989 -22.788  41.095  1.00 80.55 LIG-0.35  N 
ATOM     14 H    GLY B   5     -22.420 -22.048  41.166  1.00 80.55 LIG 0.16  HD
ATOM     15 O    ALA B   4     -20.369 -24.018  40.088  1.00 80.59 LIG-0.27  OA
BRANCH 13 16
ATOM     16  CA  GLY B   5     -22.512 -23.851  41.961  1.00 80.50 LIG 0.21  C 
BRANCH 16 17
ATOM     17  C   GLY B   5     -23.016 -25.108  41.272  1.00 80.51 LIG 0.21  C 
ATOM     18 O    GLY B   5     -22.326 -25.635  40.355  1.00 80.50 LIG-0.29  OA
ENDBRANCH 16 17
ENDBRANCH 13 16
ENDBRANCH 10 12
ENDBRANCH 7 10
ENDBRANCH 1 6
BRANCH 1 19
ATOM     19  N   LEU B   3     -16.022 -21.355  38.869  1.00 80.50 LIG-0.35  N 
ATOM     20  C   ALA B   2     -16.487 -20.159  39.288  1.00 80.42 LIG 0.24  C 
ATOM     21 O    ALA B   2     -17.549 -19.640  38.849  1.00 80.43 LIG-0.27  OA
ATOM     22 H    LEU B   3     -15.185 -21.549  38.818  1.00 80.50 LIG 0.16  HD
BRANCH 20 23
ATOM     23  CA  ALA B   2     -15.523 -19.353  40.163  1.00 80.35 LIG 0.17  C 
ATOM     24  CB  ALA B   2     -15.806 -19.591  41.628  1.00 80.34 LIG 0.04  C 
BRANCH 23 25
ATOM     25  N   ALA B   2     -15.684 -17.930  39.845  1.00 80.28 LIG-0.35  N 
ATOM     26 H    ALA B   2     -15.987 -17.465  40.502  1.00 80.28 LIG 0.16  HD
ATOM     27  C   GLY B   1     -15.392 -17.402  38.657  1.00 80.20 LIG 0.24  C 
ATOM     28 O    GLY B   1     -14.998 -18.059  37.694  1.00 80.22 LIG-0.27  OA
BRANCH 27 29
ATOM     29  CA  GLY B   1     -15.573 -15.903  38.541  1.00 80.17 LIG 0.33  C 
BRANCH 29 30
ATOM     30  N   GLY B   1     -14.445 -15.124  39.131  1.00 80.00 LIG-0.07  N 
ATOM     31 H3   GLY B   1     -13.925 -14.814  38.479  1.00 80.00 LIG 0.27  HD
ATOM     32 H2   GLY B   1     -13.967 -15.652  39.666  1.00 80.00 LIG 0.27  HD
ATOM     33 H1   GLY B   1     -14.770 -14.441  39.601  1.00 80.00 LIG 0.27  HD
ENDBRANCH 29 30
ENDBRANCH 27 29
ENDBRANCH 23 25
ENDBRANCH 20 23
ENDBRANCH 1 19
TORSDOF 12
ENDMDL
MODEL 5
USER: ADFR SOLUTION from run 24
USER: SCORE 11.097468 LL:  -2.311 LR: -10.311 RR:   0.000 FEB:  -6.732
USER: RMSD 5.599173
USER: SEED 23
USER: STATUS no improvement in best 10 clusters for 5 generations
USER: GENES 14
USER: genes 0 Translation |==|  0.44570 0.52685 0.52171
USER: genes 1 Rotation |==|  0.40691 0.72419 0.51493 0.93687
USER: genes 2 Torsion [C]-CA--CB-[CG] |==|  0.86733
USER: genes 3 Torsion [CA]-CB--CG-[CD1] |==|  0.51343
USER: genes 4 Torsion [N]-CA--C-[N] |==|  0.36578
USER: genes 5 Torsion [C]-N--CA-[CB] |==|  0.82805
USER: genes 6 Torsion [N]-CA--C-[N] |==|  0.37750
USER: genes 7 Torsion [C]-N--CA-[C] |==|  0.26056
USER: genes 8 Torsion [N]-CA--C-[O] |==|  0.32959
USER: genes 9 Torsion [CB]-CA--N-[C] |==|  0.21290
USER: genes 10 Torsion [N]-C--CA-[N] |==|  0.23920
USER: genes 11 Torsion [C]-CA--N-[C] |==|  0.82693
USER: genes 12 Torsion [N]-C--CA-[N] |==|  0.45424
USER: genes 13 Torsion [C]-CA--N-[H2] |==|  0.67197
ROOT
ATOM      1  CA  LEU B   3     -17.199 -23.575  40.691  1.00 80.55 LIG 0.18  C 
ENDROOT
BRANCH 1 2
ATOM      2  CB  LEU B   3     -16.274 -22.807  39.734  1.00 80.55 LIG 0.04  C 
BRANCH 2 3
ATOM      3  CG  LEU B   3     -16.470 -22.885  38.199  1.00 80.55 LIG-0.02  C 
ATOM      4  CD1 LEU B   3     -15.326 -22.114  37.454  1.00 80.53 LIG 0.01  C 
ATOM      5  CD2 LEU B   3     -16.541 -24.341  37.674  1.00 80.44 LIG 0.01  C 
ENDBRANCH 2 3
ENDBRANCH 1 2
BRANCH 1 6
ATOM      6  C   LEU B   3     -18.664 -23.359  40.322  1.00 80.58 LIG 0.24  C 
ATOM      7  N   ALA B   4     -19.355 -22.601  41.185  1.00 80.60 LIG-0.35  N 
ATOM      8 H    ALA B   4     -19.004 -22.293  41.906  1.00 80.60 LIG 0.16  HD
ATOM      9 O    LEU B   3     -19.137 -23.839  39.285  1.00 80.60 LIG-0.27  OA
BRANCH 7 10
ATOM     10  CA  ALA B   4     -20.763 -22.205  41.022  1.00 80.57 LIG 0.17  C 
ATOM     11  CB  ALA B   4     -20.941 -21.363  39.765  1.00 80.56 LIG 0.04  C 
BRANCH 10 12
ATOM     12  C   ALA B   4     -21.715 -23.402  41.037  1.00 80.56 LIG 0.24  C 
ATOM     13  N   GLY B   5     -22.817 -23.237  41.770  1.00 80.55 LIG-0.35  N 
ATOM     14 H    GLY B   5     -23.014 -22.492  42.151  1.00 80.55 LIG 0.16  HD
ATOM     15 O    ALA B   4     -21.456 -24.435  40.406  1.00 80.59 LIG-0.27  OA
BRANCH 13 16
ATOM     16  CA  GLY B   5     -23.809 -24.292  42.010  1.00 80.50 LIG 0.21  C 
BRANCH 16 17
ATOM     17  C   GLY B   5     -23.641 -25.112  43.278  1.00 80.51 LIG 0.21  C 
ATOM     18 O    GLY B   5     -24.553 -25.101  44.153  1.00 80.50 LIG-0.29  OA
ENDBRANCH 16 17
ENDBRANCH 13 16
ENDBRANCH 10 12
ENDBRANCH 7 10
ENDBRANCH 1 6
BRANCH 1 19
ATOM     19  N   LEU B   3     -17.023 -25.010  40.547  1.00 80.50 LIG-0.35  N 
ATOM     20  C   ALA B   2     -15.963 -25.662  41.070  1.00 80.42 LIG 0.24  C 
ATOM     21 O    ALA B   2     -14.819 -25.143  41.177  1.00 80.43 LIG-0.27  OA
ATOM     22 H    LEU B   3     -17.651 -25.399  40.104  1.00 80.50 LIG 0.16  HD
BRANCH 20 23
ATOM     23  CA  ALA B   2     -16.170 -27.160  41.311  1.00 80.35 LIG 0.17  C 
ATOM     24  CB  ALA B   2     -15.281 -27.648  42.431  1.00 80.34 LIG 0.04  C 
BRANCH 23 25
ATOM     25  N   ALA B   2     -15.858 -27.879  40.071  1.00 80.28 LIG-0.35  N 
ATOM     26 H    ALA B   2     -15.198 -28.425  40.150  1.00 80.28 LIG 0.16  HD
ATOM     27  C   GLY B   1     -16.526 -27.710  38.932  1.00 80.20 LIG 0.24  C 
ATOM     28 O    GLY B   1     -17.444 -26.903  38.790  1.00 80.22 LIG-0.27  OA
BRANCH 27 29
ATOM     29  CA  GLY B   1     -16.089 -28.585  37.776  1.00 80.17 LIG 0.33  C 
BRANCH 29 30
ATOM     30  N   GLY B   1     -17.089 -28.646  36.670  1.00 80.00 LIG-0.07  N 
ATOM     31 H3   GLY B   1     -17.782 -28.123  36.867  1.00 80.00 LIG 0.27  HD
ATOM     32 H2   GLY B   1     -17.370 -29.485  36.569  1.00 80.00 LIG 0.27  HD
ATOM     33 H1   GLY B   1     -16.712 -28.366  35.913  1.00 80.00 LIG 0.27  HD
ENDBRANCH 29 30
ENDBRANCH 27 29
ENDBRANCH 23 25
ENDBRANCH 20 23
ENDBRANCH 1 19
TORSDOF 12
ENDMDL
MODEL 6
USER: ADFR SOLUTION from run 140
USER: SCORE 10.484341 LL:  -2.356 LR: -10.262 RR:   0.000 FEB:  -6.683
USER: RMSD 11.098308
USER: SEED 139
USER: STATUS no improvement in best 31 clusters for 5 generations
USER: GENES 14
USER: genes 0 Translation |==|  0.22418 0.50546 0.57588
USER: genes 1 Rotation |==|  0.92893 0.30107 0.33831 0.51736
USER: genes 2 Torsion [C]-CA--CB-[CG] |==|  0.78147
USER: genes 3 Torsion [CA]-CB--CG-[CD1] |==|  0.23863
USER: genes 4 Torsion [N]-CA--C-[N] |==|  0.58624
USER: genes 5 Torsion [C]-N--CA-[CB] |==|  0.23675
USER: genes 6 Torsion [N]-CA--C-[N] |==|  0.97228
USER: genes 7 Torsion [C]-N--CA-[C] |==|  0.10541
USER: genes 8 Torsion [N]-CA--C-[O] |==|  0.35146
USER: genes 9 Torsion [CB]-CA--N-[C] |==|  0.16773
USER: genes 10 Torsion [N]-C--CA-[N] |==|  0.72471
USER: genes 11 Torsion [C]-CA--N-[C] |==|  0.70873
USER: genes 12 Torsion [N]-C--CA-[N] |==|  0.63875
USER: genes 13 Torsion [C]-CA--N-[H2] |==|  0.55093
ROOT
ATOM      1  CA  LEU B   3     -23.845 -24.216  42.317  1.00 80.55 LIG 0.18  C 
ENDROOT
BRANCH 1 2
ATOM      2  CB  LEU B   3     -24.069 -25.526  41.546  1.00 80.55 LIG 0.04  C 
BRANCH 2 3
ATOM      3  CG  LEU B   3     -22.908 -26.527  41.318  1.00 80.55 LIG-0.02  C 
ATOM      4  CD1 LEU B   3     -22.767 -27.500  42.540  1.00 80.53 LIG 0.01  C 
ATOM      5  CD2 LEU B   3     -23.070 -27.352  40.016  1.00 80.44 LIG 0.01  C 
ENDBRANCH 2 3
ENDBRANCH 1 2
BRANCH 1 6
ATOM      6  C   LEU B   3     -23.820 -24.467  43.822  1.00 80.58 LIG 0.24  C 
ATOM      7  N   ALA B   4     -24.568 -25.500  44.231  1.00 80.60 LIG-0.35  N 
ATOM      8 H    ALA B   4     -25.050 -25.960  43.688  1.00 80.60 LIG 0.16  HD
ATOM      9 O    LEU B   3     -23.130 -23.767  44.573  1.00 80.60 LIG-0.27  OA
BRANCH 7 10
ATOM     10  CA  ALA B   4     -24.666 -25.976  45.621  1.00 80.57 LIG 0.17  C 
ATOM     11  CB  ALA B   4     -25.719 -25.184  46.385  1.00 80.56 LIG 0.04  C 
BRANCH 10 12
ATOM     12  C   ALA B   4     -24.921 -27.481  45.709  1.00 80.56 LIG 0.24  C 
ATOM     13  N   GLY B   5     -25.219 -28.071  44.550  1.00 80.55 LIG-0.35  N 
ATOM     14 H    GLY B   5     -25.202 -27.654  43.799  1.00 80.55 LIG 0.16  HD
ATOM     15 O    ALA B   4     -24.851 -28.082  46.790  1.00 80.59 LIG-0.27  OA
BRANCH 13 16
ATOM     16  CA  GLY B   5     -25.605 -29.482  44.423  1.00 80.50 LIG 0.21  C 
BRANCH 16 17
ATOM     17  C   GLY B   5     -26.488 -30.051  45.521  1.00 80.51 LIG 0.21  C 
ATOM     18 O    GLY B   5     -27.570 -30.627  45.214  1.00 80.50 LIG-0.29  OA
ENDBRANCH 16 17
ENDBRANCH 13 16
ENDBRANCH 10 12
ENDBRANCH 7 10
ENDBRANCH 1 6
BRANCH 1 19
ATOM     19  N   LEU B   3     -22.525 -23.670  42.045  1.00 80.50 LIG-0.35  N 
ATOM     20  C   ALA B   2     -22.133 -23.320  40.801  1.00 80.42 LIG 0.24  C 
ATOM     21 O    ALA B   2     -22.525 -23.915  39.761  1.00 80.43 LIG-0.27  OA
ATOM     22 H    LEU B   3     -22.026 -23.592  42.741  1.00 80.50 LIG 0.16  HD
BRANCH 20 23
ATOM     23  CA  ALA B   2     -20.992 -22.301  40.739  1.00 80.35 LIG 0.17  C 
ATOM     24  CB  ALA B   2     -20.206 -22.301  42.030  1.00 80.34 LIG 0.04  C 
BRANCH 23 25
ATOM     25  N   ALA B   2     -21.566 -20.973  40.499  1.00 80.28 LIG-0.35  N 
ATOM     26 H    ALA B   2     -21.942 -20.633  41.194  1.00 80.28 LIG 0.16  HD
ATOM     27  C   GLY B   1     -21.512 -20.348  39.325  1.00 80.20 LIG 0.24  C 
ATOM     28 O    GLY B   1     -21.015 -20.837  38.311  1.00 80.22 LIG-0.27  OA
BRANCH 27 29
ATOM     29  CA  GLY B   1     -22.113 -18.958  39.291  1.00 80.17 LIG 0.33  C 
BRANCH 29 30
ATOM     30  N   GLY B   1     -23.070 -18.755  38.164  1.00 80.00 LIG-0.07  N 
ATOM     31 H3   GLY B   1     -22.744 -19.131  37.426  1.00 80.00 LIG 0.27  HD
ATOM     32 H2   GLY B   1     -23.186 -17.883  38.026  1.00 80.00 LIG 0.27  HD
ATOM     33 H1   GLY B   1     -23.852 -19.130  38.367  1.00 80.00 LIG 0.27  HD
ENDBRANCH 29 30
ENDBRANCH 27 29
ENDBRANCH 23 25
ENDBRANCH 20 23
ENDBRANCH 1 19
TORSDOF 12
ENDMDL
MODEL 7
USER: ADFR SOLUTION from run 147
USER: SCORE 11.250488 LL:  -2.171 LR: -10.217 RR:   0.000 FEB:  -6.638
USER: RMSD 6.786533
USER: SEED 146
USER: STATUS no improvement in best 5 clusters for 5 generations
USER: GENES 14
USER: genes 0 Translation |==|  0.32886 0.60314 0.48077
USER: genes 1 Rotation |==|  0.24741 0.12107 0.47990 0.70545
USER: genes 2 Torsion [C]-CA--CB-[CG] |==|  0.59548
USER: genes 3 Torsion [CA]-CB--CG-[CD1] |==|  0.43591
USER: genes 4 Torsion [N]-CA--C-[N] |==|  0.35925
USER: genes 5 Torsion [C]-N--CA-[CB] |==|  0.55316
USER: genes 6 Torsion [N]-CA--C-[N] |==|  0.28935
USER: genes 7 Torsion [C]-N--CA-[C] |==|  0.61560
USER: genes 8 Torsion [N]-CA--C-[O] |==|  0.02695
USER: genes 9 Torsion [CB]-CA--N-[C] |==|  0.56799
USER: genes 10 Torsion [N]-C--CA-[N] |==|  0.45747
USER: genes 11 Torsion [C]-CA--N-[C] |==|  0.61005
USER: genes 12 Torsion [N]-C--CA-[N] |==|  0.52329
USER: genes 13 Torsion [C]-CA--N-[H2] |==|  0.58677
ROOT
ATOM      1  CA  LEU B   3     -20.704 -21.286  39.463  1.00 80.55 LIG 0.18  C 
ENDROOT
BRANCH 1 2
ATOM      2  CB  LEU B   3     -20.533 -19.774  39.677  1.00 80.55 LIG 0.04  C 
BRANCH 2 3
ATOM      3  CG  LEU B   3     -21.666 -18.923  40.305  1.00 80.55 LIG-0.02  C 
ATOM      4  CD1 LEU B   3     -21.086 -17.613  40.944  1.00 80.53 LIG 0.01  C 
ATOM      5  CD2 LEU B   3     -22.777 -18.556  39.290  1.00 80.44 LIG 0.01  C 
ENDBRANCH 2 3
ENDBRANCH 1 2
BRANCH 1 6
ATOM      6  C   LEU B   3     -19.379 -22.017  39.662  1.00 80.58 LIG 0.24  C 
ATOM      7  N   ALA B   4     -18.857 -22.547  38.548  1.00 80.60 LIG-0.35  N 
ATOM      8 H    ALA B   4     -19.259 -22.505  37.790  1.00 80.60 LIG 0.16  HD
ATOM      9 O    LEU B   3     -18.845 -22.074  40.776  1.00 80.60 LIG-0.27  OA
BRANCH 7 10
ATOM     10  CA  ALA B   4     -17.566 -23.250  38.470  1.00 80.57 LIG 0.17  C 
ATOM     11  CB  ALA B   4     -17.070 -23.300  37.031  1.00 80.56 LIG 0.04  C 
BRANCH 10 12
ATOM     12  C   ALA B   4     -16.515 -22.652  39.407  1.00 80.56 LIG 0.24  C 
ATOM     13  N   GLY B   5     -16.276 -23.361  40.511  1.00 80.55 LIG-0.35  N 
ATOM     14 H    GLY B   5     -16.633 -24.129  40.656  1.00 80.55 LIG 0.16  HD
ATOM     15 O    ALA B   4     -15.945 -21.587  39.136  1.00 80.59 LIG-0.27  OA
BRANCH 13 16
ATOM     16  CA  GLY B   5     -15.389 -22.919  41.594  1.00 80.50 LIG 0.21  C 
BRANCH 16 17
ATOM     17  C   GLY B   5     -14.473 -23.970  42.199  1.00 80.51 LIG 0.21  C 
ATOM     18 O    GLY B   5     -14.372 -25.101  41.645  1.00 80.50 LIG-0.29  OA
ENDBRANCH 16 17
ENDBRANCH 13 16
ENDBRANCH 10 12
ENDBRANCH 7 10
ENDBRANCH 1 6
BRANCH 1 19
ATOM     19  N   LEU B   3     -21.564 -21.863  40.482  1.00 80.50 LIG-0.35  N 
ATOM     20  C   ALA B   2     -21.500 -23.168  40.825  1.00 80.42 LIG 0.24  C 
ATOM     21 O    ALA B   2     -21.205 -24.081  40.008  1.00 80.43 LIG-0.27  OA
ATOM     22 H    LEU B   3     -22.110 -21.303  40.841  1.00 80.50 LIG 0.16  HD
BRANCH 20 23
ATOM     23  CA  ALA B   2     -22.040 -23.505  42.217  1.00 80.35 LIG 0.17  C 
ATOM     24  CB  ALA B   2     -21.071 -23.057  43.288  1.00 80.34 LIG 0.04  C 
BRANCH 23 25
ATOM     25  N   ALA B   2     -22.245 -24.955  42.299  1.00 80.28 LIG-0.35  N 
ATOM     26 H    ALA B   2     -21.624 -25.410  41.916  1.00 80.28 LIG 0.16  HD
ATOM     27  C   GLY B   1     -23.287 -25.519  42.906  1.00 80.20 LIG 0.24  C 
ATOM     28 O    GLY B   1     -24.206 -24.883  43.423  1.00 80.22 LIG-0.27  OA
BRANCH 27 29
ATOM     29  CA  GLY B   1     -23.293 -27.033  42.933  1.00 80.17 LIG 0.33  C 
BRANCH 29 30
ATOM     30  N   GLY B   1     -24.570 -27.611  43.446  1.00 80.00 LIG-0.07  N 
ATOM     31 H3   GLY B   1     -24.945 -27.041  44.018  1.00 80.00 LIG 0.27  HD
ATOM     32 H2   GLY B   1     -24.403 -28.381  43.860  1.00 80.00 LIG 0.27  HD
ATOM     33 H1   GLY B   1     -25.125 -27.755  42.764  1.00 80.00 LIG 0.27  HD
ENDBRANCH 29 30
ENDBRANCH 27 29
ENDBRANCH 23 25
ENDBRANCH 20 23
ENDBRANCH 1 19
TORSDOF 12
ENDMDL
MODEL 8
USER: ADFR SOLUTION from run 61
USER: SCORE 11.605477 LL:  -2.312 LR: -10.170 RR:   0.000 FEB:  -6.590
USER: RMSD 6.425976
USER: SEED 60
USER: STATUS no improvement in best 20 clusters for 5 generations
USER: GENES 14
USER: genes 0 Translation |==|  0.44693 0.59075 0.51350
USER: genes 1 Rotation |==|  0.57464 0.66069 0.16710 0.82830
USER: genes 2 Torsion [C]-CA--CB-[CG] |==|  0.78358
USER: genes 3 Torsion [CA]-CB--CG-[CD1] |==|  0.27131
USER: genes 4 Torsion [N]-CA--C-[N] |==|  0.46070
USER: genes 5 Torsion [C]-N--CA-[CB] |==|  0.84018
USER: genes 6 Torsion [N]-CA--C-[N] |==|  0.45764
USER: genes 7 Torsion [C]-N--CA-[C] |==|  0.42531
USER: genes 8 Torsion [N]-CA--C-[O] |==|  0.08846
USER: genes 9 Torsion [CB]-CA--N-[C] |==|  0.51667
USER: genes 10 Torsion [N]-C--CA-[N] |==|  0.23221
USER: genes 11 Torsion [C]-CA--N-[C] |==|  0.79204
USER: genes 12 Torsion [N]-C--CA-[N] |==|  0.91774
USER: genes 13 Torsion [C]-CA--N-[H2] |==|  0.28823
ROOT
ATOM      1  CA  LEU B   3     -17.162 -21.657  40.445  1.00 80.55 LIG 0.18  C 
ENDROOT
BRANCH 1 2
ATOM      2  CB  LEU B   3     -16.397 -22.854  39.859  1.00 80.55 LIG 0.04  C 
BRANCH 2 3
ATOM      3  CG  LEU B   3     -16.821 -23.492  38.512  1.00 80.55 LIG-0.02  C 
ATOM      4  CD1 LEU B   3     -15.945 -22.938  37.336  1.00 80.53 LIG 0.01  C 
ATOM      5  CD2 LEU B   3     -16.747 -25.040  38.528  1.00 80.44 LIG 0.01  C 
ENDBRANCH 2 3
ENDBRANCH 1 2
BRANCH 1 6
ATOM      6  C   LEU B   3     -16.772 -20.362  39.737  1.00 80.58 LIG 0.24  C 
ATOM      7  N   ALA B   4     -15.570 -19.878  40.075  1.00 80.60 LIG-0.35  N 
ATOM      8 H    ALA B   4     -15.077 -20.252  40.671  1.00 80.60 LIG 0.16  HD
ATOM      9 O    LEU B   3     -17.522 -19.843  38.902  1.00 80.60 LIG-0.27  OA
BRANCH 7 10
ATOM     10  CA  ALA B   4     -14.947 -18.678  39.494  1.00 80.57 LIG 0.17  C 
ATOM     11  CB  ALA B   4     -14.820 -18.820  37.982  1.00 80.56 LIG 0.04  C 
BRANCH 10 12
ATOM     12  C   ALA B   4     -15.681 -17.391  39.878  1.00 80.56 LIG 0.24  C 
ATOM     13  N   GLY B   5     -15.000 -16.267  39.655  1.00 80.55 LIG-0.35  N 
ATOM     14 H    GLY B   5     -14.235 -16.257  39.263  1.00 80.55 LIG 0.16  HD
ATOM     15 O    ALA B   4     -16.822 -17.422  40.358  1.00 80.59 LIG-0.27  OA
BRANCH 13 16
ATOM     16  CA  GLY B   5     -15.468 -14.932  40.049  1.00 80.50 LIG 0.21  C 
BRANCH 16 17
ATOM     17  C   GLY B   5     -14.401 -13.883  40.313  1.00 80.51 LIG 0.21  C 
ATOM     18 O    GLY B   5     -13.317 -13.921  39.665  1.00 80.50 LIG-0.29  OA
ENDBRANCH 16 17
ENDBRANCH 13 16
ENDBRANCH 10 12
ENDBRANCH 7 10
ENDBRANCH 1 6
BRANCH 1 19
ATOM     19  N   LEU B   3     -18.587 -21.769  40.181  1.00 80.50 LIG-0.35  N 
ATOM     20  C   ALA B   2     -19.457 -20.784  40.490  1.00 80.42 LIG 0.24  C 
ATOM     21 O    ALA B   2     -19.308 -20.020  41.481  1.00 80.43 LIG-0.27  OA
ATOM     22 H    LEU B   3     -18.819 -22.512  39.813  1.00 80.50 LIG 0.16  HD
BRANCH 20 23
ATOM     23  CA  ALA B   2     -20.768 -20.798  39.700  1.00 80.35 LIG 0.17  C 
ATOM     24  CB  ALA B   2     -21.380 -19.416  39.657  1.00 80.34 LIG 0.04  C 
BRANCH 23 25
ATOM     25  N   ALA B   2     -21.692 -21.737  40.347  1.00 80.28 LIG-0.35  N 
ATOM     26 H    ALA B   2     -22.319 -21.349  40.790  1.00 80.28 LIG 0.16  HD
ATOM     27  C   GLY B   1     -21.578 -23.061  40.260  1.00 80.20 LIG 0.24  C 
ATOM     28 O    GLY B   1     -20.664 -23.632  39.666  1.00 80.22 LIG-0.27  OA
BRANCH 27 29
ATOM     29  CA  GLY B   1     -22.662 -23.861  40.951  1.00 80.17 LIG 0.33  C 
BRANCH 29 30
ATOM     30  N   GLY B   1     -23.243 -23.168  42.138  1.00 80.00 LIG-0.07  N 
ATOM     31 H3   GLY B   1     -23.330 -23.748  42.807  1.00 80.00 LIG 0.27  HD
ATOM     32 H2   GLY B   1     -24.042 -22.837  41.927  1.00 80.00 LIG 0.27  HD
ATOM     33 H1   GLY B   1     -22.704 -22.505  42.388  1.00 80.00 LIG 0.27  HD
ENDBRANCH 29 30
ENDBRANCH 27 29
ENDBRANCH 23 25
ENDBRANCH 20 23
ENDBRANCH 1 19
TORSDOF 12
ENDMDL
MODEL 9
USER: ADFR SOLUTION from run 96
USER: SCORE 11.171922 LL:  -2.153 LR: -10.173 RR:   0.000 FEB:  -6.594
USER: RMSD 6.619097
USER: SEED 95
USER: STATUS searching
USER: GENES 14
USER: genes 0 Translation |==|  0.45242 0.42423 0.46970
USER: genes 1 Rotation |==|  0.91974 0.60970 0.27961 0.61493
USER: genes 2 Torsion [C]-CA--CB-[CG] |==|  0.29246
USER: genes 3 Torsion [CA]-CB--CG-[CD1] |==|  0.91719
USER: genes 4 Torsion [N]-CA--C-[N] |==|  0.17975
USER: genes 5 Torsion [C]-N--CA-[CB] |==|  0.82390
USER: genes 6 Torsion [N]-CA--C-[N] |==|  0.41138
USER: genes 7 Torsion [C]-N--CA-[C] |==|  0.73345
USER: genes 8 Torsion [N]-CA--C-[O] |==|  0.89024
USER: genes 9 Torsion [CB]-CA--N-[C] |==|  0.82778
USER: genes 10 Torsion [N]-C--CA-[N] |==|  0.12772
USER: genes 11 Torsion [C]-CA--N-[C] |==|  0.16816
USER: genes 12 Torsion [N]-C--CA-[N] |==|  0.93516
USER: genes 13 Torsion [C]-CA--N-[H2] |==|  0.56520
ROOT
ATOM      1  CA  LEU B   3     -16.997 -26.653  39.131  1.00 80.55 LIG 0.18  C 
ENDROOT
BRANCH 1 2
ATOM      2  CB  LEU B   3     -16.218 -27.363  38.013  1.00 80.55 LIG 0.04  C 
BRANCH 2 3
ATOM      3  CG  LEU B   3     -16.535 -28.829  37.626  1.00 80.55 LIG-0.02  C 
ATOM      4  CD1 LEU B   3     -17.070 -29.627  38.866  1.00 80.53 LIG 0.01  C 
ATOM      5  CD2 LEU B   3     -17.552 -28.940  36.462  1.00 80.44 LIG 0.01  C 
ENDBRANCH 2 3
ENDBRANCH 1 2
BRANCH 1 6
ATOM      6  C   LEU B   3     -16.148 -26.533  40.394  1.00 80.58 LIG 0.24  C 
ATOM      7  N   ALA B   4     -16.780 -25.996  41.446  1.00 80.60 LIG-0.35  N 
ATOM      8 H    ALA B   4     -17.589 -25.711  41.397  1.00 80.60 LIG 0.16  HD
ATOM      9 O    LEU B   3     -14.979 -26.935  40.416  1.00 80.60 LIG-0.27  OA
BRANCH 7 10
ATOM     10  CA  ALA B   4     -16.196 -25.825  42.786  1.00 80.57 LIG 0.17  C 
ATOM     11  CB  ALA B   4     -15.865 -27.179  43.402  1.00 80.56 LIG 0.04  C 
BRANCH 10 12
ATOM     12  C   ALA B   4     -14.981 -24.897  42.783  1.00 80.56 LIG 0.24  C 
ATOM     13  N   GLY B   5     -14.814 -24.184  43.898  1.00 80.55 LIG-0.35  N 
ATOM     14 H    GLY B   5     -15.309 -24.285  44.593  1.00 80.55 LIG 0.16  HD
ATOM     15 O    ALA B   4     -14.226 -24.831  41.804  1.00 80.59 LIG-0.27  OA
BRANCH 13 16
ATOM     16  CA  GLY B   5     -13.780 -23.155  44.067  1.00 80.50 LIG 0.21  C 
BRANCH 16 17
ATOM     17  C   GLY B   5     -12.492 -23.587  44.747  1.00 80.51 LIG 0.21  C 
ATOM     18 O    GLY B   5     -12.541 -24.380  45.730  1.00 80.50 LIG-0.29  OA
ENDBRANCH 16 17
ENDBRANCH 13 16
ENDBRANCH 10 12
ENDBRANCH 7 10
ENDBRANCH 1 6
BRANCH 1 19
ATOM     19  N   LEU B   3     -17.273 -25.271  38.778  1.00 80.50 LIG-0.35  N 
ATOM     20  C   ALA B   2     -16.289 -24.372  38.561  1.00 80.42 LIG 0.24  C 
ATOM     21 O    ALA B   2     -15.183 -24.402  39.165  1.00 80.43 LIG-0.27  OA
ATOM     22 H    LEU B   3     -18.111 -25.082  38.721  1.00 80.50 LIG 0.16  HD
BRANCH 20 23
ATOM     23  CA  ALA B   2     -16.683 -23.166  37.703  1.00 80.35 LIG 0.17  C 
ATOM     24  CB  ALA B   2     -15.630 -22.084  37.790  1.00 80.34 LIG 0.04  C 
BRANCH 23 25
ATOM     25  N   ALA B   2     -17.971 -22.654  38.183  1.00 80.28 LIG-0.35  N 
ATOM     26 H    ALA B   2     -18.591 -22.675  37.587  1.00 80.28 LIG 0.16  HD
ATOM     27  C   GLY B   1     -18.169 -22.200  39.419  1.00 80.20 LIG 0.24  C 
ATOM     28 O    GLY B   1     -17.284 -22.123  40.270  1.00 80.22 LIG-0.27  OA
BRANCH 27 29
ATOM     29  CA  GLY B   1     -19.583 -21.765  39.741  1.00 80.17 LIG 0.33  C 
BRANCH 29 30
ATOM     30  N   GLY B   1     -20.378 -21.394  38.533  1.00 80.00 LIG-0.07  N 
ATOM     31 H3   GLY B   1     -19.850 -20.986  37.944  1.00 80.00 LIG 0.27  HD
ATOM     32 H2   GLY B   1     -21.038 -20.846  38.769  1.00 80.00 LIG 0.27  HD
ATOM     33 H1   GLY B   1     -20.719 -22.130  38.165  1.00 80.00 LIG 0.27  HD
ENDBRANCH 29 30
ENDBRANCH 27 29
ENDBRANCH 23 25
ENDBRANCH 20 23
ENDBRANCH 1 19
TORSDOF 12
ENDMDL
MODEL 10
USER: ADFR SOLUTION from run 20
USER: SCORE 10.100015 LL:  -2.261 LR: -10.124 RR:   0.000 FEB:  -6.544
USER: RMSD 9.669185
USER: SEED 19
USER: STATUS no improvement in best 21 clusters for 5 generations
USER: GENES 14
USER: genes 0 Translation |==|  0.25580 0.40909 0.61143
USER: genes 1 Rotation |==|  0.51881 0.82798 0.24287 0.77560
USER: genes 2 Torsion [C]-CA--CB-[CG] |==|  0.85873
USER: genes 3 Torsion [CA]-CB--CG-[CD1] |==|  0.18469
USER: genes 4 Torsion [N]-CA--C-[N] |==|  0.51456
USER: genes 5 Torsion [C]-N--CA-[CB] |==|  0.26852
USER: genes 6 Torsion [N]-CA--C-[N] |==|  0.47993
USER: genes 7 Torsion [C]-N--CA-[C] |==|  0.52312
USER: genes 8 Torsion [N]-CA--C-[O] |==|  0.79339
USER: genes 9 Torsion [CB]-CA--N-[C] |==|  0.24437
USER: genes 10 Torsion [N]-C--CA-[N] |==|  0.96831
USER: genes 11 Torsion [C]-CA--N-[C] |==|  0.77224
USER: genes 12 Torsion [N]-C--CA-[N] |==|  0.29394
USER: genes 13 Torsion [C]-CA--N-[H2] |==|  0.30790
ROOT
ATOM      1  CA  LEU B   3     -22.896 -27.107  43.383  1.00 80.55 LIG 0.18  C 
ENDROOT
BRANCH 1 2
ATOM      2  CB  LEU B   3     -22.554 -27.711  42.012  1.00 80.55 LIG 0.04  C 
BRANCH 2 3
ATOM      3  CG  LEU B   3     -23.442 -27.433  40.773  1.00 80.55 LIG-0.02  C 
ATOM      4  CD1 LEU B   3     -23.369 -25.920  40.367  1.00 80.53 LIG 0.01  C 
ATOM      5  CD2 LEU B   3     -23.070 -28.314  39.554  1.00 80.44 LIG 0.01  C 
ENDBRANCH 2 3
ENDBRANCH 1 2
BRANCH 1 6
ATOM      6  C   LEU B   3     -23.127 -25.602  43.273  1.00 80.58 LIG 0.24  C 
ATOM      7  N   ALA B   4     -22.112 -24.917  42.731  1.00 80.60 LIG-0.35  N 
ATOM      8 H    ALA B   4     -21.377 -25.296  42.497  1.00 80.60 LIG 0.16  HD
ATOM      9 O    LEU B   3     -24.192 -25.093  43.642  1.00 80.60 LIG-0.27  OA
BRANCH 7 10
ATOM     10  CA  ALA B   4     -22.115 -23.468  42.467  1.00 80.57 LIG 0.17  C 
ATOM     11  CB  ALA B   4     -21.431 -22.717  43.602  1.00 80.56 LIG 0.04  C 
BRANCH 10 12
ATOM     12  C   ALA B   4     -21.501 -23.117  41.111  1.00 80.56 LIG 0.24  C 
ATOM     13  N   GLY B   5     -21.614 -21.837  40.756  1.00 80.55 LIG-0.35  N 
ATOM     14 H    GLY B   5     -21.945 -21.238  41.276  1.00 80.55 LIG 0.16  HD
ATOM     15 O    ALA B   4     -20.948 -23.979  40.415  1.00 80.59 LIG-0.27  OA
BRANCH 13 16
ATOM     16  CA  GLY B   5     -21.194 -21.306  39.453  1.00 80.50 LIG 0.21  C 
BRANCH 16 17
ATOM     17  C   GLY B   5     -21.216 -19.796  39.291  1.00 80.51 LIG 0.21  C 
ATOM     18 O    GLY B   5     -22.322 -19.199  39.160  1.00 80.50 LIG-0.29  OA
ENDBRANCH 16 17
ENDBRANCH 13 16
ENDBRANCH 10 12
ENDBRANCH 7 10
ENDBRANCH 1 6
BRANCH 1 19
ATOM     19  N   LEU B   3     -24.170 -27.609  43.871  1.00 80.50 LIG-0.35  N 
ATOM     20  C   ALA B   2     -24.267 -28.745  44.595  1.00 80.42 LIG 0.24  C 
ATOM     21 O    ALA B   2     -23.501 -29.732  44.434  1.00 80.43 LIG-0.27  OA
ATOM     22 H    LEU B   3     -24.845 -27.120  43.658  1.00 80.50 LIG 0.16  HD
BRANCH 20 23
ATOM     23  CA  ALA B   2     -25.520 -28.858  45.467  1.00 80.35 LIG 0.17  C 
ATOM     24  CB  ALA B   2     -26.461 -29.904  44.915  1.00 80.34 LIG 0.04  C 
BRANCH 23 25
ATOM     25  N   ALA B   2     -26.185 -27.551  45.499  1.00 80.28 LIG-0.35  N 
ATOM     26 H    ALA B   2     -26.839 -27.486  44.944  1.00 80.28 LIG 0.16  HD
ATOM     27  C   GLY B   1     -25.820 -26.557  46.307  1.00 80.20 LIG 0.24  C 
ATOM     28 O    GLY B   1     -24.862 -26.618  47.077  1.00 80.22 LIG-0.27  OA
BRANCH 27 29
ATOM     29  CA  GLY B   1     -26.665 -25.304  46.233  1.00 80.17 LIG 0.33  C 
BRANCH 29 30
ATOM     30  N   GLY B   1     -27.570 -25.130  47.407  1.00 80.00 LIG-0.07  N 
ATOM     31 H3   GLY B   1     -28.399 -24.976  47.122  1.00 80.00 LIG 0.27  HD
ATOM     32 H2   GLY B   1     -27.292 -24.440  47.897  1.00 80.00 LIG 0.27  HD
ATOM     33 H1   GLY B   1     -27.559 -25.870  47.903  1.00 80.00 LIG 0.27  HD
ENDBRANCH 29 30
ENDBRANCH 27 29
ENDBRANCH 23 25
ENDBRANCH 20 23
ENDBRANCH 1 19
TORSDOF 12
ENDMDL
MODEL 11
USER: ADFR SOLUTION from run 25
USER: SCORE 9.979237 LL:  -2.564 LR: -10.088 RR:   0.000 FEB:  -6.508
USER: RMSD 5.629297
USER: SEED 24
USER: STATUS no improvement in best 20 clusters for 5 generations
USER: GENES 14
USER: genes 0 Translation |==|  0.48024 0.41798 0.52865
USER: genes 1 Rotation |==|  0.43937 0.84158 0.17129 0.64695
USER: genes 2 Torsion [C]-CA--CB-[CG] |==|  0.15326
USER: genes 3 Torsion [CA]-CB--CG-[CD1] |==|  0.43511
USER: genes 4 Torsion [N]-CA--C-[N] |==|  0.83482
USER: genes 5 Torsion [C]-N--CA-[CB] |==|  0.19193
USER: genes 6 Torsion [N]-CA--C-[N] |==|  0.55277
USER: genes 7 Torsion [C]-N--CA-[C] |==|  0.35813
USER: genes 8 Torsion [N]-CA--C-[O] |==|  0.83175
USER: genes 9 Torsion [CB]-CA--N-[C] |==|  0.40029
USER: genes 10 Torsion [N]-C--CA-[N] |==|  0.95365
USER: genes 11 Torsion [C]-CA--N-[C] |==|  0.63333
USER: genes 12 Torsion [N]-C--CA-[N] |==|  0.07468
USER: genes 13 Torsion [C]-CA--N-[H2] |==|  0.00864
ROOT
ATOM      1  CA  LEU B   3     -16.163 -26.840  40.899  1.00 80.55 LIG 0.18  C 
ENDROOT
BRANCH 1 2
ATOM      2  CB  LEU B   3     -16.695 -27.828  39.849  1.00 80.55 LIG 0.04  C 
BRANCH 2 3
ATOM      3  CG  LEU B   3     -16.112 -27.858  38.414  1.00 80.55 LIG-0.02  C 
ATOM      4  CD1 LEU B   3     -16.358 -29.255  37.745  1.00 80.53 LIG 0.01  C 
ATOM      5  CD2 LEU B   3     -16.688 -26.742  37.506  1.00 80.44 LIG 0.01  C 
ENDBRANCH 2 3
ENDBRANCH 1 2
BRANCH 1 6
ATOM      6  C   LEU B   3     -16.242 -25.405  40.387  1.00 80.58 LIG 0.24  C 
ATOM      7  N   ALA B   4     -17.476 -24.988  40.072  1.00 80.60 LIG-0.35  N 
ATOM      8 H    ALA B   4     -18.161 -25.506  40.124  1.00 80.60 LIG 0.16  HD
ATOM      9 O    LEU B   3     -15.229 -24.701  40.306  1.00 80.60 LIG-0.27  OA
BRANCH 7 10
ATOM     10  CA  ALA B   4     -17.820 -23.634  39.610  1.00 80.57 LIG 0.17  C 
ATOM     11  CB  ALA B   4     -17.262 -23.387  38.214  1.00 80.56 LIG 0.04  C 
BRANCH 10 12
ATOM     12  C   ALA B   4     -19.322 -23.356  39.673  1.00 80.56 LIG 0.24  C 
ATOM     13  N   GLY B   5     -19.739 -22.336  38.921  1.00 80.55 LIG-0.35  N 
ATOM     14 H    GLY B   5     -19.217 -21.909  38.388  1.00 80.55 LIG 0.16  HD
ATOM     15 O    ALA B   4     -20.073 -24.043  40.379  1.00 80.59 LIG-0.27  OA
BRANCH 13 16
ATOM     16  CA  GLY B   5     -21.117 -21.830  38.915  1.00 80.50 LIG 0.21  C 
BRANCH 16 17
ATOM     17  C   GLY B   5     -21.296 -20.334  39.112  1.00 80.51 LIG 0.21  C 
ATOM     18 O    GLY B   5     -20.886 -19.792  40.177  1.00 80.50 LIG-0.29  OA
ENDBRANCH 16 17
ENDBRANCH 13 16
ENDBRANCH 10 12
ENDBRANCH 7 10
ENDBRANCH 1 6
BRANCH 1 19
ATOM     19  N   LEU B   3     -17.013 -26.825  42.078  1.00 80.50 LIG-0.35  N 
ATOM     20  C   ALA B   2     -16.514 -26.672  43.324  1.00 80.42 LIG 0.24  C 
ATOM     21 O    ALA B   2     -15.383 -27.104  43.671  1.00 80.43 LIG-0.27  OA
ATOM     22 H    LEU B   3     -17.851 -26.920  41.909  1.00 80.50 LIG 0.16  HD
BRANCH 20 23
ATOM     23  CA  ALA B   2     -17.507 -26.147  44.365  1.00 80.35 LIG 0.17  C 
ATOM     24  CB  ALA B   2     -17.969 -27.264  45.272  1.00 80.34 LIG 0.04  C 
BRANCH 23 25
ATOM     25  N   ALA B   2     -18.654 -25.563  43.662  1.00 80.28 LIG-0.35  N 
ATOM     26 H    ALA B   2     -18.968 -26.068  43.041  1.00 80.28 LIG 0.16  HD
ATOM     27  C   GLY B   1     -19.165 -24.368  43.950  1.00 80.20 LIG 0.24  C 
ATOM     28 O    GLY B   1     -18.702 -23.613  44.806  1.00 80.22 LIG-0.27  OA
BRANCH 27 29
ATOM     29  CA  GLY B   1     -20.385 -23.963  43.150  1.00 80.17 LIG 0.33  C 
BRANCH 29 30
ATOM     30  N   GLY B   1     -21.182 -25.125  42.658  1.00 80.00 LIG-0.07  N 
ATOM     31 H3   GLY B   1     -22.019 -25.056  42.951  1.00 80.00 LIG 0.27  HD
ATOM     32 H2   GLY B   1     -20.823 -25.881  42.962  1.00 80.00 LIG 0.27  HD
ATOM     33 H1   GLY B   1     -21.179 -25.132  41.768  1.00 80.00 LIG 0.27  HD
ENDBRANCH 29 30
ENDBRANCH 27 29
ENDBRANCH 23 25
ENDBRANCH 20 23
ENDBRANCH 1 19
TORSDOF 12
ENDMDL
MODEL 12
USER: ADFR SOLUTION from run 3
USER: SCORE 10.213537 LL:  -2.294 LR: -10.062 RR:   0.000 FEB:  -6.482
USER: RMSD 8.014014
USER: SEED 906478
USER: STATUS no improvement in best 43 clusters for 5 generations
USER: GENES 14
USER: genes 0 Translation |==|  0.29924 0.42755 0.63151
USER: genes 1 Rotation |==|  0.85569 0.45899 0.15731 0.56607
USER: genes 2 Torsion [C]-CA--CB-[CG] |==|  0.47452
USER: genes 3 Torsion [CA]-CB--CG-[CD1] |==|  0.78583
USER: genes 4 Torsion [N]-CA--C-[N] |==|  0.87918
USER: genes 5 Torsion [C]-N--CA-[CB] |==|  0.14215
USER: genes 6 Torsion [N]-CA--C-[N] |==|  0.02277
USER: genes 7 Torsion [C]-N--CA-[C] |==|  0.90124
USER: genes 8 Torsion [N]-CA--C-[O] |==|  0.77068
USER: genes 9 Torsion [CB]-CA--N-[C] |==|  0.35114
USER: genes 10 Torsion [N]-C--CA-[N] |==|  0.28317
USER: genes 11 Torsion [C]-CA--N-[C] |==|  0.77524
USER: genes 12 Torsion [N]-C--CA-[N] |==|  0.30072
USER: genes 13 Torsion [C]-CA--N-[H2] |==|  0.16164
ROOT
ATOM      1  CA  LEU B   3     -21.593 -26.554  43.985  1.00 80.55 LIG 0.18  C 
ENDROOT
BRANCH 1 2
ATOM      2  CB  LEU B   3     -21.961 -27.712  43.045  1.00 80.55 LIG 0.04  C 
BRANCH 2 3
ATOM      3  CG  LEU B   3     -23.309 -27.722  42.281  1.00 80.55 LIG-0.02  C 
ATOM      4  CD1 LEU B   3     -24.484 -28.130  43.236  1.00 80.53 LIG 0.01  C 
ATOM      5  CD2 LEU B   3     -23.634 -26.362  41.612  1.00 80.44 LIG 0.01  C 
ENDBRANCH 2 3
ENDBRANCH 1 2
BRANCH 1 6
ATOM      6  C   LEU B   3     -20.333 -26.880  44.784  1.00 80.58 LIG 0.24  C 
ATOM      7  N   ALA B   4     -19.191 -26.792  44.091  1.00 80.60 LIG-0.35  N 
ATOM      8 H    ALA B   4     -19.177 -26.600  43.254  1.00 80.60 LIG 0.16  HD
ATOM      9 O    LEU B   3     -20.399 -27.175  45.983  1.00 80.60 LIG-0.27  OA
BRANCH 7 10
ATOM     10  CA  ALA B   4     -17.845 -27.003  44.649  1.00 80.57 LIG 0.17  C 
ATOM     11  CB  ALA B   4     -17.781 -28.323  45.406  1.00 80.56 LIG 0.04  C 
BRANCH 10 12
ATOM     12  C   ALA B   4     -16.748 -26.910  43.587  1.00 80.56 LIG 0.24  C 
ATOM     13  N   GLY B   5     -17.158 -26.490  42.389  1.00 80.55 LIG-0.35  N 
ATOM     14 H    GLY B   5     -17.962 -26.226  42.240  1.00 80.55 LIG 0.16  HD
ATOM     15 O    ALA B   4     -15.575 -27.210  43.847  1.00 80.59 LIG-0.27  OA
BRANCH 13 16
ATOM     16  CA  GLY B   5     -16.297 -26.432  41.201  1.00 80.50 LIG 0.21  C 
BRANCH 16 17
ATOM     17  C   GLY B   5     -14.843 -26.056  41.429  1.00 80.51 LIG 0.21  C 
ATOM     18 O    GLY B   5     -14.523 -24.837  41.532  1.00 80.50 LIG-0.29  OA
ENDBRANCH 16 17
ENDBRANCH 13 16
ENDBRANCH 10 12
ENDBRANCH 7 10
ENDBRANCH 1 6
BRANCH 1 19
ATOM     19  N   LEU B   3     -21.216 -25.369  43.231  1.00 80.50 LIG-0.35  N 
ATOM     20  C   ALA B   2     -21.798 -24.169  43.437  1.00 80.42 LIG 0.24  C 
ATOM     21 O    ALA B   2     -23.003 -24.037  43.783  1.00 80.43 LIG-0.27  OA
ATOM     22 H    LEU B   3     -20.595 -25.505  42.650  1.00 80.50 LIG 0.16  HD
BRANCH 20 23
ATOM     23  CA  ALA B   2     -20.972 -22.958  42.994  1.00 80.35 LIG 0.17  C 
ATOM     24  CB  ALA B   2     -21.043 -21.858  44.028  1.00 80.34 LIG 0.04  C 
BRANCH 23 25
ATOM     25  N   ALA B   2     -21.499 -22.478  41.713  1.00 80.28 LIG-0.35  N 
ATOM     26 H    ALA B   2     -22.026 -21.802  41.791  1.00 80.28 LIG 0.16  HD
ATOM     27  C   GLY B   1     -21.196 -23.028  40.538  1.00 80.20 LIG 0.24  C 
ATOM     28 O    GLY B   1     -20.478 -24.019  40.411  1.00 80.22 LIG-0.27  OA
BRANCH 27 29
ATOM     29  CA  GLY B   1     -21.796 -22.355  39.322  1.00 80.17 LIG 0.33  C 
BRANCH 29 30
ATOM     30  N   GLY B   1     -20.794 -21.612  38.503  1.00 80.00 LIG-0.07  N 
ATOM     31 H3   GLY B   1     -21.195 -21.260  37.790  1.00 80.00 LIG 0.27  HD
ATOM     32 H2   GLY B   1     -20.154 -22.171  38.237  1.00 80.00 LIG 0.27  HD
ATOM     33 H1   GLY B   1     -20.434 -20.960  38.992  1.00 80.00 LIG 0.27  HD
ENDBRANCH 29 30
ENDBRANCH 27 29
ENDBRANCH 23 25
ENDBRANCH 20 23
ENDBRANCH 1 19
TORSDOF 12
ENDMDL
MODEL 13
USER: ADFR SOLUTION from run 42
USER: SCORE 10.036676 LL:  -2.109 LR: -10.037 RR:   0.000 FEB:  -6.458
USER: RMSD 6.810177
USER: SEED 41
USER: STATUS no improvement in best 33 clusters for 5 generations
USER: GENES 14
USER: genes 0 Translation |==|  0.44201 0.57298 0.45000
USER: genes 1 Rotation |==|  0.22547 0.17125 0.26189 0.59929
USER: genes 2 Torsion [C]-CA--CB-[CG] |==|  0.46177
USER: genes 3 Torsion [CA]-CB--CG-[CD1] |==|  0.38274
USER: genes 4 Torsion [N]-CA--C-[N] |==|  0.62177
USER: genes 5 Torsion [C]-N--CA-[CB] |==|  0.58243
USER: genes 6 Torsion [N]-CA--C-[N] |==|  0.33889
USER: genes 7 Torsion [C]-N--CA-[C] |==|  0.41223
USER: genes 8 Torsion [N]-CA--C-[O] |==|  0.59105
USER: genes 9 Torsion [CB]-CA--N-[C] |==|  0.92121
USER: genes 10 Torsion [N]-C--CA-[N] |==|  0.40493
USER: genes 11 Torsion [C]-CA--N-[C] |==|  0.83573
USER: genes 12 Torsion [N]-C--CA-[N] |==|  0.90089
USER: genes 13 Torsion [C]-CA--N-[H2] |==|  0.32010
ROOT
ATOM      1  CA  LEU B   3     -17.310 -22.191  38.540  1.00 80.55 LIG 0.18  C 
ENDROOT
BRANCH 1 2
ATOM      2  CB  LEU B   3     -16.849 -21.179  39.601  1.00 80.55 LIG 0.04  C 
BRANCH 2 3
ATOM      3  CG  LEU B   3     -16.885 -19.656  39.321  1.00 80.55 LIG-0.02  C 
ATOM      4  CD1 LEU B   3     -17.420 -18.875  40.571  1.00 80.53 LIG 0.01  C 
ATOM      5  CD2 LEU B   3     -15.505 -19.085  38.906  1.00 80.44 LIG 0.01  C 
ENDBRANCH 2 3
ENDBRANCH 1 2
BRANCH 1 6
ATOM      6  C   LEU B   3     -16.869 -23.605  38.909  1.00 80.58 LIG 0.24  C 
ATOM      7  N   ALA B   4     -15.900 -23.669  39.831  1.00 80.60 LIG-0.35  N 
ATOM      8 H    ALA B   4     -15.534 -22.964  40.160  1.00 80.60 LIG 0.16  HD
ATOM      9 O    LEU B   3     -17.406 -24.593  38.394  1.00 80.60 LIG-0.27  OA
BRANCH 7 10
ATOM     10  CA  ALA B   4     -15.345 -24.912  40.390  1.00 80.57 LIG 0.17  C 
ATOM     11  CB  ALA B   4     -14.862 -24.688  41.818  1.00 80.56 LIG 0.04  C 
BRANCH 10 12
ATOM     12  C   ALA B   4     -16.326 -26.082  40.307  1.00 80.56 LIG 0.24  C 
ATOM     13  N   GLY B   5     -15.881 -27.144  39.633  1.00 80.55 LIG-0.35  N 
ATOM     14 H    GLY B   5     -15.080 -27.196  39.326  1.00 80.55 LIG 0.16  HD
ATOM     15 O    ALA B   4     -17.445 -26.021  40.834  1.00 80.59 LIG-0.27  OA
BRANCH 13 16
ATOM     16  CA  GLY B   5     -16.695 -28.329  39.338  1.00 80.50 LIG 0.21  C 
BRANCH 16 17
ATOM     17  C   GLY B   5     -16.390 -29.063  38.043  1.00 80.51 LIG 0.21  C 
ATOM     18 O    GLY B   5     -17.326 -29.634  37.415  1.00 80.50 LIG-0.29  OA
ENDBRANCH 16 17
ENDBRANCH 13 16
ENDBRANCH 10 12
ENDBRANCH 7 10
ENDBRANCH 1 6
BRANCH 1 19
ATOM     19  N   LEU B   3     -18.760 -22.288  38.507  1.00 80.50 LIG-0.35  N 
ATOM     20  C   ALA B   2     -19.523 -22.049  39.595  1.00 80.42 LIG 0.24  C 
ATOM     21 O    ALA B   2     -19.146 -22.305  40.771  1.00 80.43 LIG-0.27  OA
ATOM     22 H    LEU B   3     -19.080 -22.508  37.740  1.00 80.50 LIG 0.16  HD
BRANCH 20 23
ATOM     23  CA  ALA B   2     -20.975 -21.664  39.303  1.00 80.35 LIG 0.17  C 
ATOM     24  CB  ALA B   2     -21.127 -20.161  39.243  1.00 80.34 LIG 0.04  C 
BRANCH 23 25
ATOM     25  N   ALA B   2     -21.825 -22.213  40.365  1.00 80.28 LIG-0.35  N 
ATOM     26 H    ALA B   2     -22.272 -21.614  40.790  1.00 80.28 LIG 0.16  HD
ATOM     27  C   GLY B   1     -21.905 -23.512  40.648  1.00 80.20 LIG 0.24  C 
ATOM     28 O    GLY B   1     -21.242 -24.379  40.079  1.00 80.22 LIG-0.27  OA
BRANCH 27 29
ATOM     29  CA  GLY B   1     -22.881 -23.888  41.743  1.00 80.17 LIG 0.33  C 
BRANCH 29 30
ATOM     30  N   GLY B   1     -22.956 -22.880  42.840  1.00 80.00 LIG-0.07  N 
ATOM     31 H3   GLY B   1     -22.793 -23.277  43.620  1.00 80.00 LIG 0.27  HD
ATOM     32 H2   GLY B   1     -23.770 -22.518  42.857  1.00 80.00 LIG 0.27  HD
ATOM     33 H1   GLY B   1     -22.351 -22.242  42.700  1.00 80.00 LIG 0.27  HD
ENDBRANCH 29 30
ENDBRANCH 27 29
ENDBRANCH 23 25
ENDBRANCH 20 23
ENDBRANCH 1 19
TORSDOF 12
ENDMDL
MODEL 14
USER: ADFR SOLUTION from run 38
USER: SCORE 11.945237 LL:  -2.406 LR: -10.011 RR:   0.000 FEB:  -6.432
USER: RMSD 7.655493
USER: SEED 37
USER: STATUS no improvement in best 4 clusters for 5 generations
USER: GENES 14
USER: genes 0 Translation |==|  0.32946 0.60013 0.48536
USER: genes 1 Rotation |==|  0.25437 0.12488 0.48946 0.72099
USER: genes 2 Torsion [C]-CA--CB-[CG] |==|  0.54437
USER: genes 3 Torsion [CA]-CB--CG-[CD1] |==|  0.45354
USER: genes 4 Torsion [N]-CA--C-[N] |==|  0.36835
USER: genes 5 Torsion [C]-N--CA-[CB] |==|  0.84718
USER: genes 6 Torsion [N]-CA--C-[N] |==|  0.39534
USER: genes 7 Torsion [C]-N--CA-[C] |==|  0.39427
USER: genes 8 Torsion [N]-CA--C-[O] |==|  0.57855
USER: genes 9 Torsion [CB]-CA--N-[C] |==|  0.55610
USER: genes 10 Torsion [N]-C--CA-[N] |==|  0.99676
USER: genes 11 Torsion [C]-CA--N-[C] |==|  0.75001
USER: genes 12 Torsion [N]-C--CA-[N] |==|  0.74255
USER: genes 13 Torsion [C]-CA--N-[H2] |==|  0.77815
ROOT
ATOM      1  CA  LEU B   3     -20.686 -21.376  39.601  1.00 80.55 LIG 0.18  C 
ENDROOT
BRANCH 1 2
ATOM      2  CB  LEU B   3     -20.547 -19.862  39.826  1.00 80.55 LIG 0.04  C 
BRANCH 2 3
ATOM      3  CG  LEU B   3     -21.784 -18.986  40.147  1.00 80.55 LIG-0.02  C 
ATOM      4  CD1 LEU B   3     -21.344 -17.602  40.740  1.00 80.53 LIG 0.01  C 
ATOM      5  CD2 LEU B   3     -22.696 -18.755  38.916  1.00 80.44 LIG 0.01  C 
ENDBRANCH 2 3
ENDBRANCH 1 2
BRANCH 1 6
ATOM      6  C   LEU B   3     -19.328 -22.067  39.694  1.00 80.58 LIG 0.24  C 
ATOM      7  N   ALA B   4     -18.840 -22.504  38.526  1.00 80.60 LIG-0.35  N 
ATOM      8 H    ALA B   4     -19.277 -22.430  37.790  1.00 80.60 LIG 0.16  HD
ATOM      9 O    LEU B   3     -18.742 -22.174  40.777  1.00 80.60 LIG-0.27  OA
BRANCH 7 10
ATOM     10  CA  ALA B   4     -17.530 -23.150  38.346  1.00 80.57 LIG 0.17  C 
ATOM     11  CB  ALA B   4     -16.417 -22.267  38.896  1.00 80.56 LIG 0.04  C 
BRANCH 10 12
ATOM     12  C   ALA B   4     -17.481 -24.556  38.948  1.00 80.56 LIG 0.24  C 
ATOM     13  N   GLY B   5     -16.782 -25.447  38.243  1.00 80.55 LIG-0.35  N 
ATOM     14 H    GLY B   5     -16.334 -25.235  37.540  1.00 80.55 LIG 0.16  HD
ATOM     15 O    ALA B   4     -18.059 -24.819  40.011  1.00 80.59 LIG-0.27  OA
BRANCH 13 16
ATOM     16  CA  GLY B   5     -16.695 -26.873  38.579  1.00 80.50 LIG 0.21  C 
BRANCH 16 17
ATOM     17  C   GLY B   5     -16.694 -27.850  37.415  1.00 80.51 LIG 0.21  C 
ATOM     18 O    GLY B   5     -17.149 -29.017  37.582  1.00 80.50 LIG-0.29  OA
ENDBRANCH 16 17
ENDBRANCH 13 16
ENDBRANCH 10 12
ENDBRANCH 7 10
ENDBRANCH 1 6
BRANCH 1 19
ATOM     19  N   LEU B   3     -21.453 -21.994  40.670  1.00 80.50 LIG-0.35  N 
ATOM     20  C   ALA B   2     -21.387 -23.317  40.932  1.00 80.42 LIG 0.24  C 
ATOM     21 O    ALA B   2     -21.199 -24.188  40.040  1.00 80.43 LIG-0.27  OA
ATOM     22 H    LEU B   3     -21.945 -21.445  41.113  1.00 80.50 LIG 0.16  HD
BRANCH 20 23
ATOM     23  CA  ALA B   2     -21.791 -23.723  42.351  1.00 80.35 LIG 0.17  C 
ATOM     24  CB  ALA B   2     -22.972 -24.666  42.320  1.00 80.34 LIG 0.04  C 
BRANCH 23 25
ATOM     25  N   ALA B   2     -22.136 -22.511  43.102  1.00 80.28 LIG-0.35  N 
ATOM     26 H    ALA B   2     -22.967 -22.298  43.044  1.00 80.28 LIG 0.16  HD
ATOM     27  C   GLY B   1     -21.254 -21.805  43.808  1.00 80.20 LIG 0.24  C 
ATOM     28 O    GLY B   1     -20.054 -22.072  43.867  1.00 80.22 LIG-0.27  OA
BRANCH 27 29
ATOM     29  CA  GLY B   1     -21.814 -20.616  44.560  1.00 80.17 LIG 0.33  C 
BRANCH 29 30
ATOM     30  N   GLY B   1     -21.742 -19.341  43.788  1.00 80.00 LIG-0.07  N 
ATOM     31 H3   GLY B   1     -21.945 -19.498  42.936  1.00 80.00 LIG 0.27  HD
ATOM     32 H2   GLY B   1     -20.917 -19.008  43.840  1.00 80.00 LIG 0.27  HD
ATOM     33 H1   GLY B   1     -22.320 -18.755  44.127  1.00 80.00 LIG 0.27  HD
ENDBRANCH 29 30
ENDBRANCH 27 29
ENDBRANCH 23 25
ENDBRANCH 20 23
ENDBRANCH 1 19
TORSDOF 12
ENDMDL
MODEL 15
USER: ADFR SOLUTION from run 8
USER: SCORE 9.754719 LL:  -1.983 LR:  -9.998 RR:   0.000 FEB:  -6.418
USER: RMSD 8.724954
USER: SEED 523327
USER: STATUS no improvement in best 28 clusters for 5 generations
USER: GENES 14
USER: genes 0 Translation |==|  0.33218 0.58259 0.51032
USER: genes 1 Rotation |==|  0.32409 0.72012 0.79843 0.78556
USER: genes 2 Torsion [C]-CA--CB-[CG] |==|  0.34084
USER: genes 3 Torsion [CA]-CB--CG-[CD1] |==|  0.14227
USER: genes 4 Torsion [N]-CA--C-[N] |==|  0.52336
USER: genes 5 Torsion [C]-N--CA-[CB] |==|  0.86469
USER: genes 6 Torsion [N]-CA--C-[N] |==|  0.41126
USER: genes 7 Torsion [C]-N--CA-[C] |==|  0.30137
USER: genes 8 Torsion [N]-CA--C-[O] |==|  0.02721
USER: genes 9 Torsion [CB]-CA--N-[C] |==|  0.17020
USER: genes 10 Torsion [N]-C--CA-[N] |==|  0.61662
USER: genes 11 Torsion [C]-CA--N-[C] |==|  0.81819
USER: genes 12 Torsion [N]-C--CA-[N] |==|  0.31130
USER: genes 13 Torsion [C]-CA--N-[H2] |==|  0.18401
ROOT
ATOM      1  CA  LEU B   3     -20.605 -21.902  40.350  1.00 80.55 LIG 0.18  C 
ENDROOT
BRANCH 1 2
ATOM      2  CB  LEU B   3     -21.477 -20.971  39.493  1.00 80.55 LIG 0.04  C 
BRANCH 2 3
ATOM      3  CG  LEU B   3     -21.946 -19.596  40.033  1.00 80.55 LIG-0.02  C 
ATOM      4  CD1 LEU B   3     -20.731 -18.775  40.589  1.00 80.53 LIG 0.01  C 
ATOM      5  CD2 LEU B   3     -22.695 -18.755  38.969  1.00 80.44 LIG 0.01  C 
ENDBRANCH 2 3
ENDBRANCH 1 2
BRANCH 1 6
ATOM      6  C   LEU B   3     -21.274 -23.262  40.530  1.00 80.58 LIG 0.24  C 
ATOM      7  N   ALA B   4     -22.533 -23.212  40.985  1.00 80.60 LIG-0.35  N 
ATOM      8 H    ALA B   4     -22.916 -22.471  41.191  1.00 80.60 LIG 0.16  HD
ATOM      9 O    LEU B   3     -20.679 -24.308  40.242  1.00 80.60 LIG-0.27  OA
BRANCH 7 10
ATOM     10  CA  ALA B   4     -23.406 -24.380  41.188  1.00 80.57 LIG 0.17  C 
ATOM     11  CB  ALA B   4     -23.394 -25.277  39.957  1.00 80.56 LIG 0.04  C 
BRANCH 10 12
ATOM     12  C   ALA B   4     -23.057 -25.160  42.456  1.00 80.56 LIG 0.24  C 
ATOM     13  N   GLY B   5     -24.091 -25.749  43.059  1.00 80.55 LIG-0.35  N 
ATOM     14 H    GLY B   5     -24.883 -25.749  42.725  1.00 80.55 LIG 0.16  HD
ATOM     15 O    ALA B   4     -21.891 -25.222  42.871  1.00 80.59 LIG-0.27  OA
BRANCH 13 16
ATOM     16  CA  GLY B   5     -24.000 -26.454  44.343  1.00 80.50 LIG 0.21  C 
BRANCH 16 17
ATOM     17  C   GLY B   5     -24.640 -25.776  45.542  1.00 80.51 LIG 0.21  C 
ATOM     18 O    GLY B   5     -25.369 -24.759  45.367  1.00 80.50 LIG-0.29  OA
ENDBRANCH 16 17
ENDBRANCH 13 16
ENDBRANCH 10 12
ENDBRANCH 7 10
ENDBRANCH 1 6
BRANCH 1 19
ATOM     19  N   LEU B   3     -19.362 -22.226  39.668  1.00 80.50 LIG-0.35  N 
ATOM     20  C   ALA B   2     -18.462 -21.281  39.324  1.00 80.42 LIG 0.24  C 
ATOM     21 O    ALA B   2     -18.785 -20.107  38.997  1.00 80.43 LIG-0.27  OA
ATOM     22 H    LEU B   3     -19.257 -23.065  39.508  1.00 80.50 LIG 0.16  HD
BRANCH 20 23
ATOM     23  CA  ALA B   2     -17.030 -21.785  39.123  1.00 80.35 LIG 0.17  C 
ATOM     24  CB  ALA B   2     -16.851 -23.147  39.754  1.00 80.34 LIG 0.04  C 
BRANCH 23 25
ATOM     25  N   ALA B   2     -16.107 -20.822  39.733  1.00 80.28 LIG-0.35  N 
ATOM     26 H    ALA B   2     -15.676 -21.141  40.406  1.00 80.28 LIG 0.16  HD
ATOM     27  C   GLY B   1     -15.947 -19.575  39.295  1.00 80.20 LIG 0.24  C 
ATOM     28 O    GLY B   1     -16.585 -19.090  38.362  1.00 80.22 LIG-0.27  OA
BRANCH 27 29
ATOM     29  CA  GLY B   1     -14.906 -18.751  40.023  1.00 80.17 LIG 0.33  C 
BRANCH 29 30
ATOM     30  N   GLY B   1     -13.714 -18.430  39.184  1.00 80.00 LIG-0.07  N 
ATOM     31 H3   GLY B   1     -13.099 -18.025  39.685  1.00 80.00 LIG 0.27  HD
ATOM     32 H2   GLY B   1     -13.955 -17.890  38.518  1.00 80.00 LIG 0.27  HD
ATOM     33 H1   GLY B   1     -13.375 -19.182  38.849  1.00 80.00 LIG 0.27  HD
ENDBRANCH 29 30
ENDBRANCH 27 29
ENDBRANCH 23 25
ENDBRANCH 20 23
ENDBRANCH 1 19
TORSDOF 12
ENDMDL
MODEL 16
USER: ADFR SOLUTION from run 64
USER: SCORE 11.051255 LL:  -2.302 LR:  -9.977 RR:   0.000 FEB:  -6.397
USER: RMSD 5.614742
USER: SEED 63
USER: STATUS searching
USER: GENES 14
USER: genes 0 Translation |==|  0.49659 0.39153 0.51525
USER: genes 1 Rotation |==|  0.39127 0.91273 0.25772 0.59553
USER: genes 2 Torsion [C]-CA--CB-[CG] |==|  0.21699
USER: genes 3 Torsion [CA]-CB--CG-[CD1] |==|  0.47156
USER: genes 4 Torsion [N]-CA--C-[N] |==|  0.79167
USER: genes 5 Torsion [C]-N--CA-[CB] |==|  0.84995
USER: genes 6 Torsion [N]-CA--C-[N] |==|  0.91502
USER: genes 7 Torsion [C]-N--CA-[C] |==|  0.16482
USER: genes 8 Torsion [N]-CA--C-[O] |==|  0.35766
USER: genes 9 Torsion [CB]-CA--N-[C] |==|  0.58001
USER: genes 10 Torsion [N]-C--CA-[N] |==|  0.32302
USER: genes 11 Torsion [C]-CA--N-[C] |==|  0.67057
USER: genes 12 Torsion [N]-C--CA-[N] |==|  0.80835
USER: genes 13 Torsion [C]-CA--N-[H2] |==|  0.71652
ROOT
ATOM      1  CA  LEU B   3     -15.672 -27.634  40.498  1.00 80.55 LIG 0.18  C 
ENDROOT
BRANCH 1 2
ATOM      2  CB  LEU B   3     -16.577 -28.297  39.447  1.00 80.55 LIG 0.04  C 
BRANCH 2 3
ATOM      3  CG  LEU B   3     -16.256 -28.192  37.936  1.00 80.55 LIG-0.02  C 
ATOM      4  CD1 LEU B   3     -17.171 -29.158  37.106  1.00 80.53 LIG 0.01  C 
ATOM      5  CD2 LEU B   3     -16.395 -26.749  37.388  1.00 80.44 LIG 0.01  C 
ENDBRANCH 2 3
ENDBRANCH 1 2
BRANCH 1 6
ATOM      6  C   LEU B   3     -15.937 -26.133  40.575  1.00 80.58 LIG 0.24  C 
ATOM      7  N   ALA B   4     -17.232 -25.790  40.573  1.00 80.60 LIG-0.35  N 
ATOM      8 H    ALA B   4     -17.859 -26.372  40.499  1.00 80.60 LIG 0.16  HD
ATOM      9 O    LEU B   3     -15.003 -25.325  40.658  1.00 80.60 LIG-0.27  OA
BRANCH 7 10
ATOM     10  CA  ALA B   4     -17.743 -24.415  40.695  1.00 80.57 LIG 0.17  C 
ATOM     11  CB  ALA B   4     -17.175 -23.741  41.937  1.00 80.56 LIG 0.04  C 
BRANCH 10 12
ATOM     12  C   ALA B   4     -17.490 -23.581  39.438  1.00 80.56 LIG 0.24  C 
ATOM     13  N   GLY B   5     -16.393 -23.910  38.755  1.00 80.55 LIG-0.35  N 
ATOM     14 H    GLY B   5     -15.900 -24.583  38.964  1.00 80.55 LIG 0.16  HD
ATOM     15 O    ALA B   4     -18.263 -22.674  39.104  1.00 80.59 LIG-0.27  OA
BRANCH 13 16
ATOM     16  CA  GLY B   5     -15.904 -23.173  37.583  1.00 80.50 LIG 0.21  C 
BRANCH 16 17
ATOM     17  C   GLY B   5     -15.568 -21.705  37.790  1.00 80.51 LIG 0.21  C 
ATOM     18 O    GLY B   5     -14.445 -21.264  37.415  1.00 80.50 LIG-0.29  OA
ENDBRANCH 16 17
ENDBRANCH 13 16
ENDBRANCH 10 12
ENDBRANCH 7 10
ENDBRANCH 1 6
BRANCH 1 19
ATOM     19  N   LEU B   3     -15.995 -28.102  41.835  1.00 80.50 LIG-0.35  N 
ATOM     20  C   ALA B   2     -15.802 -27.339  42.932  1.00 80.42 LIG 0.24  C 
ATOM     21 O    ALA B   2     -14.865 -26.502  43.033  1.00 80.43 LIG-0.27  OA
ATOM     22 H    LEU B   3     -16.317 -28.900  41.860  1.00 80.50 LIG 0.16  HD
BRANCH 20 23
ATOM     23  CA  ALA B   2     -16.651 -27.717  44.149  1.00 80.35 LIG 0.17  C 
ATOM     24  CB  ALA B   2     -17.478 -26.538  44.609  1.00 80.34 LIG 0.04  C 
BRANCH 23 25
ATOM     25  N   ALA B   2     -15.755 -28.154  45.225  1.00 80.28 LIG-0.35  N 
ATOM     26 H    ALA B   2     -15.208 -27.542  45.483  1.00 80.28 LIG 0.16  HD
ATOM     27  C   GLY B   1     -15.781 -29.375  45.756  1.00 80.20 LIG 0.24  C 
ATOM     28 O    GLY B   1     -16.527 -30.274  45.370  1.00 80.22 LIG-0.27  OA
BRANCH 27 29
ATOM     29  CA  GLY B   1     -14.814 -29.617  46.896  1.00 80.17 LIG 0.33  C 
BRANCH 29 30
ATOM     30  N   GLY B   1     -13.385 -29.631  46.467  1.00 80.00 LIG-0.07  N 
ATOM     31 H3   GLY B   1     -13.311 -29.243  45.669  1.00 80.00 LIG 0.27  HD
ATOM     32 H2   GLY B   1     -13.098 -30.472  46.415  1.00 80.00 LIG 0.27  HD
ATOM     33 H1   GLY B   1     -12.892 -29.185  47.059  1.00 80.00 LIG 0.27  HD
ENDBRANCH 29 30
ENDBRANCH 27 29
ENDBRANCH 23 25
ENDBRANCH 20 23
ENDBRANCH 1 19
TORSDOF 12
ENDMDL
MODEL 17
USER: ADFR SOLUTION from run 81
USER: SCORE 10.085561 LL:  -2.381 LR:  -9.944 RR:   0.000 FEB:  -6.364
USER: RMSD 8.218694
USER: SEED 80
USER: STATUS no improvement in best 12 clusters for 5 generations
USER: GENES 14
USER: genes 0 Translation |==|  0.31597 0.53365 0.52761
USER: genes 1 Rotation |==|  0.37264 0.30375 0.93754 0.56186
USER: genes 2 Torsion [C]-CA--CB-[CG] |==|  0.38277
USER: genes 3 Torsion [CA]-CB--CG-[CD1] |==|  0.78799
USER: genes 4 Torsion [N]-CA--C-[N] |==|  0.35477
USER: genes 5 Torsion [C]-N--CA-[CB] |==|  0.19112
USER: genes 6 Torsion [N]-CA--C-[N] |==|  0.34434
USER: genes 7 Torsion [C]-N--CA-[C] |==|  0.37504
USER: genes 8 Torsion [N]-CA--C-[O] |==|  0.55431
USER: genes 9 Torsion [CB]-CA--N-[C] |==|  0.54570
USER: genes 10 Torsion [N]-C--CA-[N] |==|  0.97172
USER: genes 11 Torsion [C]-CA--N-[C] |==|  0.75002
USER: genes 12 Torsion [N]-C--CA-[N] |==|  0.54661
USER: genes 13 Torsion [C]-CA--N-[H2] |==|  0.37018
ROOT
ATOM      1  CA  LEU B   3     -21.091 -23.371  40.868  1.00 80.55 LIG 0.18  C 
ENDROOT
BRANCH 1 2
ATOM      2  CB  LEU B   3     -22.392 -23.686  40.114  1.00 80.55 LIG 0.04  C 
BRANCH 2 3
ATOM      3  CG  LEU B   3     -23.404 -24.722  40.665  1.00 80.55 LIG-0.02  C 
ATOM      4  CD1 LEU B   3     -22.891 -26.183  40.416  1.00 80.53 LIG 0.01  C 
ATOM      5  CD2 LEU B   3     -23.704 -24.529  42.173  1.00 80.44 LIG 0.01  C 
ENDBRANCH 2 3
ENDBRANCH 1 2
BRANCH 1 6
ATOM      6  C   LEU B   3     -19.914 -23.260  39.902  1.00 80.58 LIG 0.24  C 
ATOM      7  N   ALA B   4     -18.990 -24.221  40.030  1.00 80.60 LIG-0.35  N 
ATOM      8 H    ALA B   4     -19.044 -24.829  40.635  1.00 80.60 LIG 0.16  HD
ATOM      9 O    LEU B   3     -19.864 -22.354  39.061  1.00 80.60 LIG-0.27  OA
BRANCH 7 10
ATOM     10  CA  ALA B   4     -17.796 -24.364  39.183  1.00 80.57 LIG 0.17  C 
ATOM     11  CB  ALA B   4     -16.815 -23.228  39.443  1.00 80.56 LIG 0.04  C 
BRANCH 10 12
ATOM     12  C   ALA B   4     -17.126 -25.731  39.338  1.00 80.56 LIG 0.24  C 
ATOM     13  N   GLY B   5     -16.978 -26.418  38.205  1.00 80.55 LIG-0.35  N 
ATOM     14 H    GLY B   5     -17.179 -26.093  37.435  1.00 80.55 LIG 0.16  HD
ATOM     15 O    ALA B   4     -16.760 -26.143  40.447  1.00 80.59 LIG-0.27  OA
BRANCH 13 16
ATOM     16  CA  GLY B   5     -16.461 -27.790  38.139  1.00 80.50 LIG 0.21  C 
BRANCH 16 17
ATOM     17  C   GLY B   5     -17.213 -28.761  37.244  1.00 80.51 LIG 0.21  C 
ATOM     18 O    GLY B   5     -17.070 -30.005  37.415  1.00 80.50 LIG-0.29  OA
ENDBRANCH 16 17
ENDBRANCH 13 16
ENDBRANCH 10 12
ENDBRANCH 7 10
ENDBRANCH 1 6
BRANCH 1 19
ATOM     19  N   LEU B   3     -21.149 -22.054  41.480  1.00 80.50 LIG-0.35  N 
ATOM     20  C   ALA B   2     -20.044 -21.411  41.914  1.00 80.42 LIG 0.24  C 
ATOM     21 O    ALA B   2     -19.038 -22.009  42.383  1.00 80.43 LIG-0.27  OA
ATOM     22 H    LEU B   3     -21.944 -21.728  41.539  1.00 80.50 LIG 0.16  HD
BRANCH 20 23
ATOM     23  CA  ALA B   2     -20.173 -19.889  42.024  1.00 80.35 LIG 0.17  C 
ATOM     24  CB  ALA B   2     -20.164 -19.457  43.472  1.00 80.34 LIG 0.04  C 
BRANCH 23 25
ATOM     25  N   ALA B   2     -21.429 -19.481  41.385  1.00 80.28 LIG-0.35  N 
ATOM     26 H    ALA B   2     -22.099 -19.468  41.925  1.00 80.28 LIG 0.16  HD
ATOM     27  C   GLY B   1     -21.531 -19.162  40.097  1.00 80.20 LIG 0.24  C 
ATOM     28 O    GLY B   1     -20.594 -19.217  39.301  1.00 80.22 LIG-0.27  OA
BRANCH 27 29
ATOM     29  CA  GLY B   1     -22.902 -18.712  39.637  1.00 80.17 LIG 0.33  C 
BRANCH 29 30
ATOM     30  N   GLY B   1     -23.070 -18.749  38.155  1.00 80.00 LIG-0.07  N 
ATOM     31 H3   GLY B   1     -23.065 -17.918  37.834  1.00 80.00 LIG 0.27  HD
ATOM     32 H2   GLY B   1     -23.844 -19.140  37.953  1.00 80.00 LIG 0.27  HD
ATOM     33 H1   GLY B   1     -22.401 -19.210  37.791  1.00 80.00 LIG 0.27  HD
ENDBRANCH 29 30
ENDBRANCH 27 29
ENDBRANCH 23 25
ENDBRANCH 20 23
ENDBRANCH 1 19
TORSDOF 12
ENDMDL
MODEL 18
USER: ADFR SOLUTION from run 87
USER: SCORE 10.111695 LL:  -2.015 LR:  -9.882 RR:   0.000 FEB:  -6.303
USER: RMSD 7.067422
USER: SEED 86
USER: STATUS no improvement in best 9 clusters for 5 generations
USER: GENES 14
USER: genes 0 Translation |==|  0.35485 0.54749 0.49448
USER: genes 1 Rotation |==|  0.33227 0.14390 0.38565 0.78634
USER: genes 2 Torsion [C]-CA--CB-[CG] |==|  0.32397
USER: genes 3 Torsion [CA]-CB--CG-[CD1] |==|  0.06962
USER: genes 4 Torsion [N]-CA--C-[N] |==|  0.33827
USER: genes 5 Torsion [C]-N--CA-[CB] |==|  0.76800
USER: genes 6 Torsion [N]-CA--C-[N] |==|  0.24871
USER: genes 7 Torsion [C]-N--CA-[C] |==|  0.51967
USER: genes 8 Torsion [N]-CA--C-[O] |==|  0.52607
USER: genes 9 Torsion [CB]-CA--N-[C] |==|  0.20677
USER: genes 10 Torsion [N]-C--CA-[N] |==|  0.31111
USER: genes 11 Torsion [C]-CA--N-[C] |==|  0.60008
USER: genes 12 Torsion [N]-C--CA-[N] |==|  0.33556
USER: genes 13 Torsion [C]-CA--N-[H2] |==|  0.94178
ROOT
ATOM      1  CA  LEU B   3     -19.925 -22.955  39.874  1.00 80.55 LIG 0.18  C 
ENDROOT
BRANCH 1 2
ATOM      2  CB  LEU B   3     -19.799 -21.817  40.899  1.00 80.55 LIG 0.04  C 
BRANCH 2 3
ATOM      3  CG  LEU B   3     -20.192 -20.364  40.532  1.00 80.55 LIG-0.02  C 
ATOM      4  CD1 LEU B   3     -21.243 -20.352  39.369  1.00 80.53 LIG 0.01  C 
ATOM      5  CD2 LEU B   3     -20.746 -19.566  41.739  1.00 80.44 LIG 0.01  C 
ENDBRANCH 2 3
ENDBRANCH 1 2
BRANCH 1 6
ATOM      6  C   LEU B   3     -18.556 -23.550  39.551  1.00 80.58 LIG 0.24  C 
ATOM      7  N   ALA B   4     -18.191 -23.451  38.266  1.00 80.60 LIG-0.35  N 
ATOM      8 H    ALA B   4     -18.706 -23.110  37.669  1.00 80.60 LIG 0.16  HD
ATOM      9 O    LEU B   3     -17.856 -24.054  40.437  1.00 80.60 LIG-0.27  OA
BRANCH 7 10
ATOM     10  CA  ALA B   4     -16.900 -23.898  37.717  1.00 80.57 LIG 0.17  C 
ATOM     11  CB  ALA B   4     -15.834 -22.829  37.919  1.00 80.56 LIG 0.04  C 
BRANCH 10 12
ATOM     12  C   ALA B   4     -16.457 -25.248  38.283  1.00 80.56 LIG 0.24  C 
ATOM     13  N   GLY B   5     -16.880 -26.312  37.599  1.00 80.55 LIG-0.35  N 
ATOM     14 H    GLY B   5     -17.311 -26.246  36.858  1.00 80.55 LIG 0.16  HD
ATOM     15 O    ALA B   4     -15.759 -25.319  39.303  1.00 80.59 LIG-0.27  OA
BRANCH 13 16
ATOM     16  CA  GLY B   5     -16.664 -27.700  38.024  1.00 80.50 LIG 0.21  C 
BRANCH 16 17
ATOM     17  C   GLY B   5     -17.068 -28.787  37.041  1.00 80.51 LIG 0.21  C 
ATOM     18 O    GLY B   5     -17.073 -29.994  37.415  1.00 80.50 LIG-0.29  OA
ENDBRANCH 16 17
ENDBRANCH 13 16
ENDBRANCH 10 12
ENDBRANCH 7 10
ENDBRANCH 1 6
BRANCH 1 19
ATOM     19  N   LEU B   3     -20.658 -24.080  40.431  1.00 80.50 LIG-0.35  N 
ATOM     20  C   ALA B   2     -21.997 -24.052  40.605  1.00 80.42 LIG 0.24  C 
ATOM     21 O    ALA B   2     -22.633 -23.001  40.885  1.00 80.43 LIG-0.27  OA
ATOM     22 H    LEU B   3     -20.165 -24.755  40.636  1.00 80.50 LIG 0.16  HD
BRANCH 20 23
ATOM     23  CA  ALA B   2     -22.675 -25.422  40.677  1.00 80.35 LIG 0.17  C 
ATOM     24  CB  ALA B   2     -23.815 -25.505  39.687  1.00 80.34 LIG 0.04  C 
BRANCH 23 25
ATOM     25  N   ALA B   2     -23.178 -25.623  42.040  1.00 80.28 LIG-0.35  N 
ATOM     26 H    ALA B   2     -23.474 -24.903  42.405  1.00 80.28 LIG 0.16  HD
ATOM     27  C   GLY B   1     -23.178 -26.802  42.659  1.00 80.20 LIG 0.24  C 
ATOM     28 O    GLY B   1     -22.719 -27.833  42.169  1.00 80.22 LIG-0.27  OA
BRANCH 27 29
ATOM     29  CA  GLY B   1     -23.791 -26.818  44.044  1.00 80.17 LIG 0.33  C 
BRANCH 29 30
ATOM     30  N   GLY B   1     -24.945 -27.755  44.169  1.00 80.00 LIG-0.07  N 
ATOM     31 H3   GLY B   1     -24.671 -28.515  44.543  1.00 80.00 LIG 0.27  HD
ATOM     32 H2   GLY B   1     -25.279 -27.925  43.362  1.00 80.00 LIG 0.27  HD
ATOM     33 H1   GLY B   1     -25.575 -27.385  44.679  1.00 80.00 LIG 0.27  HD
ENDBRANCH 29 30
ENDBRANCH 27 29
ENDBRANCH 23 25
ENDBRANCH 20 23
ENDBRANCH 1 19
TORSDOF 12
ENDMDL
MODEL 19
USER: ADFR SOLUTION from run 134
USER: SCORE 10.568653 LL:  -2.531 LR:  -9.865 RR:   0.000 FEB:  -6.286
USER: RMSD 6.064785
USER: SEED 133
USER: STATUS no improvement in best 18 clusters for 5 generations
USER: GENES 14
USER: genes 0 Translation |==|  0.47976 0.44830 0.47342
USER: genes 1 Rotation |==|  0.34850 0.88996 0.24148 0.59027
USER: genes 2 Torsion [C]-CA--CB-[CG] |==|  0.46725
USER: genes 3 Torsion [CA]-CB--CG-[CD1] |==|  0.22853
USER: genes 4 Torsion [N]-CA--C-[N] |==|  0.87614
USER: genes 5 Torsion [C]-N--CA-[CB] |==|  0.14485
USER: genes 6 Torsion [N]-CA--C-[N] |==|  0.02657
USER: genes 7 Torsion [C]-N--CA-[C] |==|  0.20062
USER: genes 8 Torsion [N]-CA--C-[O] |==|  0.10644
USER: genes 9 Torsion [CB]-CA--N-[C] |==|  0.27222
USER: genes 10 Torsion [N]-C--CA-[N] |==|  0.88483
USER: genes 11 Torsion [C]-CA--N-[C] |==|  0.87623
USER: genes 12 Torsion [N]-C--CA-[N] |==|  0.57917
USER: genes 13 Torsion [C]-CA--N-[H2] |==|  0.08669
ROOT
ATOM      1  CA  LEU B   3     -16.177 -25.931  39.243  1.00 80.55 LIG 0.18  C 
ENDROOT
BRANCH 1 2
ATOM      2  CB  LEU B   3     -17.039 -26.848  38.361  1.00 80.55 LIG 0.04  C 
BRANCH 2 3
ATOM      3  CG  LEU B   3     -16.611 -28.308  38.068  1.00 80.55 LIG-0.02  C 
ATOM      4  CD1 LEU B   3     -17.022 -29.253  39.250  1.00 80.53 LIG 0.01  C 
ATOM      5  CD2 LEU B   3     -17.196 -28.853  36.741  1.00 80.44 LIG 0.01  C 
ENDBRANCH 2 3
ENDBRANCH 1 2
BRANCH 1 6
ATOM      6  C   LEU B   3     -16.648 -24.482  39.145  1.00 80.58 LIG 0.24  C 
ATOM      7  N   ALA B   4     -17.785 -24.216  39.800  1.00 80.60 LIG-0.35  N 
ATOM      8 H    ALA B   4     -18.230 -24.826  40.212  1.00 80.60 LIG 0.16  HD
ATOM      9 O    LEU B   3     -15.990 -23.640  38.523  1.00 80.60 LIG-0.27  OA
BRANCH 7 10
ATOM     10  CA  ALA B   4     -18.412 -22.888  39.902  1.00 80.57 LIG 0.17  C 
ATOM     11  CB  ALA B   4     -18.580 -22.268  38.521  1.00 80.56 LIG 0.04  C 
BRANCH 10 12
ATOM     12  C   ALA B   4     -19.735 -22.921  40.670  1.00 80.56 LIG 0.24  C 
ATOM     13  N   GLY B   5     -20.002 -24.074  41.282  1.00 80.55 LIG-0.35  N 
ATOM     14 H    GLY B   5     -19.445 -24.729  41.304  1.00 80.55 LIG 0.16  HD
ATOM     15 O    ALA B   4     -20.483 -21.934  40.701  1.00 80.59 LIG-0.27  OA
BRANCH 13 16
ATOM     16  CA  GLY B   5     -21.261 -24.360  41.981  1.00 80.50 LIG 0.21  C 
BRANCH 16 17
ATOM     17  C   GLY B   5     -22.490 -24.580  41.114  1.00 80.51 LIG 0.21  C 
ATOM     18 O    GLY B   5     -22.379 -25.212  40.026  1.00 80.50 LIG-0.29  OA
ENDBRANCH 16 17
ENDBRANCH 13 16
ENDBRANCH 10 12
ENDBRANCH 7 10
ENDBRANCH 1 6
BRANCH 1 19
ATOM     19  N   LEU B   3     -16.351 -26.248  40.651  1.00 80.50 LIG-0.35  N 
ATOM     20  C   ALA B   2     -15.483 -27.031  41.325  1.00 80.42 LIG 0.24  C 
ATOM     21 O    ALA B   2     -14.857 -27.986  40.791  1.00 80.43 LIG-0.27  OA
ATOM     22 H    LEU B   3     -17.049 -25.893  41.007  1.00 80.50 LIG 0.16  HD
BRANCH 20 23
ATOM     23  CA  ALA B   2     -15.478 -26.843  42.845  1.00 80.35 LIG 0.17  C 
ATOM     24  CB  ALA B   2     -16.641 -27.574  43.476  1.00 80.34 LIG 0.04  C 
BRANCH 23 25
ATOM     25  N   ALA B   2     -15.567 -25.409  43.137  1.00 80.28 LIG-0.35  N 
ATOM     26 H    ALA B   2     -16.127 -25.221  43.763  1.00 80.28 LIG 0.16  HD
ATOM     27  C   GLY B   1     -14.854 -24.481  42.501  1.00 80.20 LIG 0.24  C 
ATOM     28 O    GLY B   1     -14.081 -24.727  41.575  1.00 80.22 LIG-0.27  OA
BRANCH 27 29
ATOM     29  CA  GLY B   1     -15.045 -23.059  42.984  1.00 80.17 LIG 0.33  C 
BRANCH 29 30
ATOM     30  N   GLY B   1     -14.817 -22.038  41.919  1.00 80.00 LIG-0.07  N 
ATOM     31 H3   GLY B   1     -15.312 -21.317  42.088  1.00 80.00 LIG 0.27  HD
ATOM     32 H2   GLY B   1     -15.047 -22.376  41.129  1.00 80.00 LIG 0.27  HD
ATOM     33 H1   GLY B   1     -13.957 -21.809  41.906  1.00 80.00 LIG 0.27  HD
ENDBRANCH 29 30
ENDBRANCH 27 29
ENDBRANCH 23 25
ENDBRANCH 20 23
ENDBRANCH 1 19
TORSDOF 12
ENDMDL
MODEL 20
USER: ADFR SOLUTION from run 127
USER: SCORE 11.379908 LL:  -2.238 LR:  -9.861 RR:   0.000 FEB:  -6.282
USER: RMSD 6.234393
USER: SEED 126
USER: STATUS no improvement in best 9 clusters for 5 generations
USER: GENES 14
USER: genes 0 Translation |==|  0.46820 0.53730 0.49333
USER: genes 1 Rotation |==|  0.19064 0.73900 0.30400 0.74240
USER: genes 2 Torsion [C]-CA--CB-[CG] |==|  0.86362
USER: genes 3 Torsion [CA]-CB--CG-[CD1] |==|  0.40916
USER: genes 4 Torsion [N]-CA--C-[N] |==|  0.09854
USER: genes 5 Torsion [C]-N--CA-[CB] |==|  0.88332
USER: genes 6 Torsion [N]-CA--C-[N] |==|  0.39102
USER: genes 7 Torsion [C]-N--CA-[C] |==|  0.29585
USER: genes 8 Torsion [N]-CA--C-[O] |==|  0.43482
USER: genes 9 Torsion [CB]-CA--N-[C] |==|  0.18333
USER: genes 10 Torsion [N]-C--CA-[N] |==|  0.16059
USER: genes 11 Torsion [C]-CA--N-[C] |==|  0.17755
USER: genes 12 Torsion [N]-C--CA-[N] |==|  0.14563
USER: genes 13 Torsion [C]-CA--N-[H2] |==|  0.37880
ROOT
ATOM      1  CA  LEU B   3     -16.524 -23.261  39.840  1.00 80.55 LIG 0.18  C 
ENDROOT
BRANCH 1 2
ATOM      2  CB  LEU B   3     -15.949 -24.400  38.984  1.00 80.55 LIG 0.04  C 
BRANCH 2 3
ATOM      3  CG  LEU B   3     -16.703 -25.746  38.835  1.00 80.55 LIG-0.02  C 
ATOM      4  CD1 LEU B   3     -16.455 -26.367  37.417  1.00 80.53 LIG 0.01  C 
ATOM      5  CD2 LEU B   3     -16.318 -26.777  39.926  1.00 80.44 LIG 0.01  C 
ENDBRANCH 2 3
ENDBRANCH 1 2
BRANCH 1 6
ATOM      6  C   LEU B   3     -17.987 -23.001  39.489  1.00 80.58 LIG 0.24  C 
ATOM      7  N   ALA B   4     -18.711 -22.452  40.473  1.00 80.60 LIG-0.35  N 
ATOM      8 H    ALA B   4     -18.381 -22.293  41.251  1.00 80.60 LIG 0.16  HD
ATOM      9 O    LEU B   3     -18.428 -23.265  38.365  1.00 80.60 LIG-0.27  OA
BRANCH 7 10
ATOM     10  CA  ALA B   4     -20.125 -22.057  40.364  1.00 80.57 LIG 0.17  C 
ATOM     11  CB  ALA B   4     -20.388 -21.375  39.028  1.00 80.56 LIG 0.04  C 
BRANCH 10 12
ATOM     12  C   ALA B   4     -21.081 -23.228  40.595  1.00 80.56 LIG 0.24  C 
ATOM     13  N   GLY B   5     -22.177 -22.931  41.294  1.00 80.55 LIG-0.35  N 
ATOM     14 H    GLY B   5     -22.369 -22.130  41.539  1.00 80.55 LIG 0.16  HD
ATOM     15 O    ALA B   4     -20.829 -24.358  40.156  1.00 80.59 LIG-0.27  OA
BRANCH 13 16
ATOM     16  CA  GLY B   5     -23.171 -23.923  41.722  1.00 80.50 LIG 0.21  C 
BRANCH 16 17
ATOM     17  C   GLY B   5     -23.183 -24.286  43.198  1.00 80.51 LIG 0.21  C 
ATOM     18 O    GLY B   5     -24.236 -24.755  43.716  1.00 80.50 LIG-0.29  OA
ENDBRANCH 16 17
ENDBRANCH 13 16
ENDBRANCH 10 12
ENDBRANCH 7 10
ENDBRANCH 1 6
BRANCH 1 19
ATOM     19  N   LEU B   3     -16.576 -23.638  41.243  1.00 80.50 LIG-0.35  N 
ATOM     20  C   ALA B   2     -15.460 -23.858  41.971  1.00 80.42 LIG 0.24  C 
ATOM     21 O    ALA B   2     -14.402 -24.337  41.483  1.00 80.43 LIG-0.27  OA
ATOM     22 H    LEU B   3     -17.373 -23.705  41.560  1.00 80.50 LIG 0.16  HD
BRANCH 20 23
ATOM     23  CA  ALA B   2     -15.629 -23.712  43.486  1.00 80.35 LIG 0.17  C 
ATOM     24  CB  ALA B   2     -14.331 -24.013  44.198  1.00 80.34 LIG 0.04  C 
BRANCH 23 25
ATOM     25  N   ALA B   2     -16.673 -24.642  43.929  1.00 80.28 LIG-0.35  N 
ATOM     26 H    ALA B   2     -17.365 -24.249  44.256  1.00 80.28 LIG 0.16  HD
ATOM     27  C   GLY B   1     -16.569 -25.967  43.838  1.00 80.20 LIG 0.24  C 
ATOM     28 O    GLY B   1     -15.570 -26.547  43.413  1.00 80.22 LIG-0.27  OA
BRANCH 27 29
ATOM     29  CA  GLY B   1     -17.776 -26.756  44.298  1.00 80.17 LIG 0.33  C 
BRANCH 29 30
ATOM     30  N   GLY B   1     -19.050 -26.314  43.658  1.00 80.00 LIG-0.07  N 
ATOM     31 H3   GLY B   1     -19.521 -25.830  44.238  1.00 80.00 LIG 0.27  HD
ATOM     32 H2   GLY B   1     -19.524 -27.028  43.415  1.00 80.00 LIG 0.27  HD
ATOM     33 H1   GLY B   1     -18.866 -25.821  42.940  1.00 80.00 LIG 0.27  HD
ENDBRANCH 29 30
ENDBRANCH 27 29
ENDBRANCH 23 25
ENDBRANCH 20 23
ENDBRANCH 1 19
TORSDOF 12
ENDMDL
MODEL 21
USER: ADFR SOLUTION from run 39
USER: SCORE 10.259683 LL:  -2.171 LR:  -9.853 RR:   0.000 FEB:  -6.274
USER: RMSD 7.561583
USER: SEED 38
USER: STATUS no improvement in best 18 clusters for 5 generations
USER: GENES 14
USER: genes 0 Translation |==|  0.32612 0.58487 0.51903
USER: genes 1 Rotation |==|  0.27721 0.68924 0.77148 0.80142
USER: genes 2 Torsion [C]-CA--CB-[CG] |==|  0.44276
USER: genes 3 Torsion [CA]-CB--CG-[CD1] |==|  0.64515
USER: genes 4 Torsion [N]-CA--C-[N] |==|  0.46380
USER: genes 5 Torsion [C]-N--CA-[CB] |==|  0.89963
USER: genes 6 Torsion [N]-CA--C-[N] |==|  0.81759
USER: genes 7 Torsion [C]-N--CA-[C] |==|  0.20465
USER: genes 8 Torsion [N]-CA--C-[O] |==|  0.01546
USER: genes 9 Torsion [CB]-CA--N-[C] |==|  0.51678
USER: genes 10 Torsion [N]-C--CA-[N] |==|  0.59876
USER: genes 11 Torsion [C]-CA--N-[C] |==|  0.61029
USER: genes 12 Torsion [N]-C--CA-[N] |==|  0.52232
USER: genes 13 Torsion [C]-CA--N-[H2] |==|  0.75431
ROOT
ATOM      1  CA  LEU B   3     -20.786 -21.834  40.611  1.00 80.55 LIG 0.18  C 
ENDROOT
BRANCH 1 2
ATOM      2  CB  LEU B   3     -21.437 -20.981  39.511  1.00 80.55 LIG 0.04  C 
BRANCH 2 3
ATOM      3  CG  LEU B   3     -21.297 -19.438  39.510  1.00 80.55 LIG-0.02  C 
ATOM      4  CD1 LEU B   3     -22.704 -18.754  39.399  1.00 80.53 LIG 0.01  C 
ATOM      5  CD2 LEU B   3     -20.557 -18.898  40.759  1.00 80.44 LIG 0.01  C 
ENDBRANCH 2 3
ENDBRANCH 1 2
BRANCH 1 6
ATOM      6  C   LEU B   3     -21.454 -23.204  40.704  1.00 80.58 LIG 0.24  C 
ATOM      7  N   ALA B   4     -22.669 -23.199  41.268  1.00 80.60 LIG-0.35  N 
ATOM      8 H    ALA B   4     -23.024 -22.483  41.583  1.00 80.60 LIG 0.16  HD
ATOM      9 O    LEU B   3     -20.897 -24.215  40.259  1.00 80.60 LIG-0.27  OA
BRANCH 7 10
ATOM     10  CA  ALA B   4     -23.534 -24.380  41.422  1.00 80.57 LIG 0.17  C 
ATOM     11  CB  ALA B   4     -23.396 -25.305  40.220  1.00 80.56 LIG 0.04  C 
BRANCH 10 12
ATOM     12  C   ALA B   4     -23.285 -25.123  42.736  1.00 80.56 LIG 0.24  C 
ATOM     13  N   GLY B   5     -22.082 -25.687  42.844  1.00 80.55 LIG-0.35  N 
ATOM     14 H    GLY B   5     -21.466 -25.586  42.253  1.00 80.55 LIG 0.16  HD
ATOM     15 O    ALA B   4     -24.155 -25.181  43.615  1.00 80.59 LIG-0.27  OA
BRANCH 13 16
ATOM     16  CA  GLY B   5     -21.672 -26.537  43.969  1.00 80.50 LIG 0.21  C 
BRANCH 16 17
ATOM     17  C   GLY B   5     -22.260 -27.937  44.018  1.00 80.51 LIG 0.21  C 
ATOM     18 O    GLY B   5     -22.975 -28.346  43.059  1.00 80.50 LIG-0.29  OA
ENDBRANCH 16 17
ENDBRANCH 13 16
ENDBRANCH 10 12
ENDBRANCH 7 10
ENDBRANCH 1 6
BRANCH 1 19
ATOM     19  N   LEU B   3     -19.408 -22.153  40.276  1.00 80.50 LIG-0.35  N 
ATOM     20  C   ALA B   2     -18.660 -22.990  41.026  1.00 80.42 LIG 0.24  C 
ATOM     21 O    ALA B   2     -18.788 -23.097  42.275  1.00 80.43 LIG-0.27  OA
ATOM     22 H    LEU B   3     -19.119 -21.763  39.566  1.00 80.50 LIG 0.16  HD
BRANCH 20 23
ATOM     23  CA  ALA B   2     -17.478 -23.637  40.300  1.00 80.35 LIG 0.17  C 
ATOM     24  CB  ALA B   2     -17.719 -23.665  38.808  1.00 80.34 LIG 0.04  C 
BRANCH 23 25
ATOM     25  N   ALA B   2     -17.310 -25.003  40.807  1.00 80.28 LIG-0.35  N 
ATOM     26 H    ALA B   2     -18.054 -25.412  40.943  1.00 80.28 LIG 0.16  HD
ATOM     27  C   GLY B   1     -16.124 -25.563  41.038  1.00 80.20 LIG 0.24  C 
ATOM     28 O    GLY B   1     -15.051 -24.979  40.891  1.00 80.22 LIG-0.27  OA
BRANCH 27 29
ATOM     29  CA  GLY B   1     -16.156 -27.002  41.508  1.00 80.17 LIG 0.33  C 
BRANCH 29 30
ATOM     30  N   GLY B   1     -14.820 -27.516  41.931  1.00 80.00 LIG-0.07  N 
ATOM     31 H3   GLY B   1     -14.339 -26.848  42.271  1.00 80.00 LIG 0.27  HD
ATOM     32 H2   GLY B   1     -14.396 -27.857  41.227  1.00 80.00 LIG 0.27  HD
ATOM     33 H1   GLY B   1     -14.927 -28.149  42.548  1.00 80.00 LIG 0.27  HD
ENDBRANCH 29 30
ENDBRANCH 27 29
ENDBRANCH 23 25
ENDBRANCH 20 23
ENDBRANCH 1 19
TORSDOF 12
ENDMDL
MODEL 22
USER: ADFR SOLUTION from run 13
USER: SCORE 10.106923 LL:  -2.250 LR:  -9.841 RR:   0.000 FEB:  -6.262
USER: RMSD 6.311867
USER: SEED 810799
USER: STATUS no improvement in best 28 clusters for 5 generations
USER: GENES 14
USER: genes 0 Translation |==|  0.46813 0.45271 0.48975
USER: genes 1 Rotation |==|  0.37076 0.88634 0.25587 0.65632
USER: genes 2 Torsion [C]-CA--CB-[CG] |==|  0.42525
USER: genes 3 Torsion [CA]-CB--CG-[CD1] |==|  0.08886
USER: genes 4 Torsion [N]-CA--C-[N] |==|  0.85758
USER: genes 5 Torsion [C]-N--CA-[CB] |==|  0.12482
USER: genes 6 Torsion [N]-CA--C-[N] |==|  0.10000
USER: genes 7 Torsion [C]-N--CA-[C] |==|  0.78475
USER: genes 8 Torsion [N]-CA--C-[O] |==|  0.60764
USER: genes 9 Torsion [CB]-CA--N-[C] |==|  0.33849
USER: genes 10 Torsion [N]-C--CA-[N] |==|  0.99522
USER: genes 11 Torsion [C]-CA--N-[C] |==|  0.69399
USER: genes 12 Torsion [N]-C--CA-[N] |==|  0.04417
USER: genes 13 Torsion [C]-CA--N-[H2] |==|  0.67546
ROOT
ATOM      1  CA  LEU B   3     -16.526 -25.799  39.732  1.00 80.55 LIG 0.18  C 
ENDROOT
BRANCH 1 2
ATOM      2  CB  LEU B   3     -17.070 -26.635  38.564  1.00 80.55 LIG 0.04  C 
BRANCH 2 3
ATOM      3  CG  LEU B   3     -16.256 -27.819  37.982  1.00 80.55 LIG-0.02  C 
ATOM      4  CD1 LEU B   3     -15.400 -28.506  39.102  1.00 80.53 LIG 0.01  C 
ATOM      5  CD2 LEU B   3     -17.147 -28.880  37.288  1.00 80.44 LIG 0.01  C 
ENDBRANCH 2 3
ENDBRANCH 1 2
BRANCH 1 6
ATOM      6  C   LEU B   3     -17.100 -24.384  39.703  1.00 80.58 LIG 0.24  C 
ATOM      7  N   ALA B   4     -18.413 -24.306  39.956  1.00 80.60 LIG-0.35  N 
ATOM      8 H    ALA B   4     -18.896 -25.004  40.090  1.00 80.60 LIG 0.16  HD
ATOM      9 O    LEU B   3     -16.374 -23.407  39.484  1.00 80.60 LIG-0.27  OA
BRANCH 7 10
ATOM     10  CA  ALA B   4     -19.185 -23.055  40.040  1.00 80.57 LIG 0.17  C 
ATOM     11  CB  ALA B   4     -18.822 -22.125  38.889  1.00 80.56 LIG 0.04  C 
BRANCH 10 12
ATOM     12  C   ALA B   4     -20.693 -23.300  40.110  1.00 80.56 LIG 0.24  C 
ATOM     13  N   GLY B   5     -21.057 -24.380  40.804  1.00 80.55 LIG-0.35  N 
ATOM     14 H    GLY B   5     -20.494 -24.864  41.237  1.00 80.55 LIG 0.16  HD
ATOM     15 O    ALA B   4     -21.494 -22.538  39.553  1.00 80.59 LIG-0.27  OA
BRANCH 13 16
ATOM     16  CA  GLY B   5     -22.440 -24.861  40.908  1.00 80.50 LIG 0.21  C 
BRANCH 16 17
ATOM     17  C   GLY B   5     -23.354 -24.111  41.862  1.00 80.51 LIG 0.21  C 
ATOM     18 O    GLY B   5     -24.188 -24.754  42.560  1.00 80.50 LIG-0.29  OA
ENDBRANCH 16 17
ENDBRANCH 13 16
ENDBRANCH 10 12
ENDBRANCH 7 10
ENDBRANCH 1 6
BRANCH 1 19
ATOM     19  N   LEU B   3     -16.987 -26.323  41.008  1.00 80.50 LIG-0.35  N 
ATOM     20  C   ALA B   2     -16.132 -26.720  41.974  1.00 80.42 LIG 0.24  C 
ATOM     21 O    ALA B   2     -15.007 -27.234  41.731  1.00 80.43 LIG-0.27  OA
ATOM     22 H    LEU B   3     -17.843 -26.354  41.086  1.00 80.50 LIG 0.16  HD
BRANCH 20 23
ATOM     23  CA  ALA B   2     -16.708 -26.729  43.393  1.00 80.35 LIG 0.17  C 
ATOM     24  CB  ALA B   2     -16.672 -28.124  43.974  1.00 80.34 LIG 0.04  C 
BRANCH 23 25
ATOM     25  N   ALA B   2     -18.091 -26.244  43.337  1.00 80.28 LIG-0.35  N 
ATOM     26 H    ALA B   2     -18.631 -26.792  42.953  1.00 80.28 LIG 0.16  HD
ATOM     27  C   GLY B   1     -18.480 -25.070  43.830  1.00 80.20 LIG 0.24  C 
ATOM     28 O    GLY B   1     -17.714 -24.255  44.344  1.00 80.22 LIG-0.27  OA
BRANCH 27 29
ATOM     29  CA  GLY B   1     -19.961 -24.771  43.726  1.00 80.17 LIG 0.33  C 
BRANCH 29 30
ATOM     30  N   GLY B   1     -20.789 -25.978  43.436  1.00 80.00 LIG-0.07  N 
ATOM     31 H3   GLY B   1     -20.267 -26.698  43.415  1.00 80.00 LIG 0.27  HD
ATOM     32 H2   GLY B   1     -21.190 -25.880  42.647  1.00 80.00 LIG 0.27  HD
ATOM     33 H1   GLY B   1     -21.405 -26.076  44.071  1.00 80.00 LIG 0.27  HD
ENDBRANCH 29 30
ENDBRANCH 27 29
ENDBRANCH 23 25
ENDBRANCH 20 23
ENDBRANCH 1 19
TORSDOF 12
ENDMDL
MODEL 23
USER: ADFR SOLUTION from run 87
USER: SCORE 10.287088 LL:  -2.587 LR:  -9.778 RR:   0.000 FEB:  -6.198
USER: RMSD 6.883306
USER: SEED 86
USER: STATUS no improvement in best 9 clusters for 5 generations
USER: GENES 14
USER: genes 0 Translation |==|  0.33125 0.60558 0.48409
USER: genes 1 Rotation |==|  0.26164 0.11388 0.49713 0.70998
USER: genes 2 Torsion [C]-CA--CB-[CG] |==|  0.58520
USER: genes 3 Torsion [CA]-CB--CG-[CD1] |==|  0.44835
USER: genes 4 Torsion [N]-CA--C-[N] |==|  0.39644
USER: genes 5 Torsion [C]-N--CA-[CB] |==|  0.41268
USER: genes 6 Torsion [N]-CA--C-[N] |==|  0.11780
USER: genes 7 Torsion [C]-N--CA-[C] |==|  0.15402
USER: genes 8 Torsion [N]-CA--C-[O] |==|  0.15657
USER: genes 9 Torsion [CB]-CA--N-[C] |==|  0.55001
USER: genes 10 Torsion [N]-C--CA-[N] |==|  0.97500
USER: genes 11 Torsion [C]-CA--N-[C] |==|  0.77927
USER: genes 12 Torsion [N]-C--CA-[N] |==|  0.77136
USER: genes 13 Torsion [C]-CA--N-[H2] |==|  0.74411
ROOT
ATOM      1  CA  LEU B   3     -20.633 -21.213  39.563  1.00 80.55 LIG 0.18  C 
ENDROOT
BRANCH 1 2
ATOM      2  CB  LEU B   3     -20.587 -19.687  39.742  1.00 80.55 LIG 0.04  C 
BRANCH 2 3
ATOM      3  CG  LEU B   3     -21.801 -18.913  40.314  1.00 80.55 LIG-0.02  C 
ATOM      4  CD1 LEU B   3     -21.363 -17.499  40.832  1.00 80.53 LIG 0.01  C 
ATOM      5  CD2 LEU B   3     -22.953 -18.755  39.290  1.00 80.44 LIG 0.01  C 
ENDBRANCH 2 3
ENDBRANCH 1 2
BRANCH 1 6
ATOM      6  C   LEU B   3     -19.243 -21.822  39.729  1.00 80.58 LIG 0.24  C 
ATOM      7  N   ALA B   4     -18.599 -22.073  38.582  1.00 80.60 LIG-0.35  N 
ATOM      8 H    ALA B   4     -18.959 -21.931  37.815  1.00 80.60 LIG 0.16  HD
ATOM      9 O    LEU B   3     -18.770 -22.032  40.853  1.00 80.60 LIG-0.27  OA
BRANCH 7 10
ATOM     10  CA  ALA B   4     -17.231 -22.606  38.479  1.00 80.57 LIG 0.17  C 
ATOM     11  CB  ALA B   4     -17.082 -23.461  37.227  1.00 80.56 LIG 0.04  C 
BRANCH 10 12
ATOM     12  C   ALA B   4     -16.167 -21.508  38.540  1.00 80.56 LIG 0.24  C 
ATOM     13  N   GLY B   5     -16.384 -20.563  39.456  1.00 80.55 LIG-0.35  N 
ATOM     14 H    GLY B   5     -17.034 -20.601  40.017  1.00 80.55 LIG 0.16  HD
ATOM     15 O    ALA B   4     -15.188 -21.521  37.782  1.00 80.59 LIG-0.27  OA
BRANCH 13 16
ATOM     16  CA  GLY B   5     -15.551 -19.364  39.611  1.00 80.50 LIG 0.21  C 
BRANCH 16 17
ATOM     17  C   GLY B   5     -15.373 -18.492  38.380  1.00 80.51 LIG 0.21  C 
ATOM     18 O    GLY B   5     -16.391 -18.031  37.790  1.00 80.50 LIG-0.29  OA
ENDBRANCH 16 17
ENDBRANCH 13 16
ENDBRANCH 10 12
ENDBRANCH 7 10
ENDBRANCH 1 6
BRANCH 1 19
ATOM     19  N   LEU B   3     -21.405 -21.839  40.623  1.00 80.50 LIG-0.35  N 
ATOM     20  C   ALA B   2     -21.308 -23.156  40.903  1.00 80.42 LIG 0.24  C 
ATOM     21 O    ALA B   2     -21.076 -24.032  40.027  1.00 80.43 LIG-0.27  OA
ATOM     22 H    LEU B   3     -21.921 -21.298  41.049  1.00 80.50 LIG 0.16  HD
BRANCH 20 23
ATOM     23  CA  ALA B   2     -21.731 -23.556  42.319  1.00 80.35 LIG 0.17  C 
ATOM     24  CB  ALA B   2     -23.000 -24.378  42.283  1.00 80.34 LIG 0.04  C 
BRANCH 23 25
ATOM     25  N   ALA B   2     -21.945 -22.336  43.103  1.00 80.28 LIG-0.35  N 
ATOM     26 H    ALA B   2     -22.774 -22.120  43.182  1.00 80.28 LIG 0.16  HD
ATOM     27  C   GLY B   1     -20.957 -21.625  43.645  1.00 80.20 LIG 0.24  C 
ATOM     28 O    GLY B   1     -19.765 -21.895  43.507  1.00 80.22 LIG-0.27  OA
BRANCH 27 29
ATOM     29  CA  GLY B   1     -21.383 -20.427  44.467  1.00 80.17 LIG 0.33  C 
BRANCH 29 30
ATOM     30  N   GLY B   1     -21.676 -19.218  43.642  1.00 80.00 LIG-0.07  N 
ATOM     31 H3   GLY B   1     -21.945 -19.470  42.832  1.00 80.00 LIG 0.27  HD
ATOM     32 H2   GLY B   1     -20.941 -18.722  43.569  1.00 80.00 LIG 0.27  HD
ATOM     33 H1   GLY B   1     -22.319 -18.741  44.032  1.00 80.00 LIG 0.27  HD
ENDBRANCH 29 30
ENDBRANCH 27 29
ENDBRANCH 23 25
ENDBRANCH 20 23
ENDBRANCH 1 19
TORSDOF 12
ENDMDL
MODEL 24
USER: ADFR SOLUTION from run 142
USER: SCORE 10.404664 LL:  -2.263 LR:  -9.765 RR:   0.000 FEB:  -6.185
USER: RMSD 5.323895
USER: SEED 141
USER: STATUS no improvement in best 15 clusters for 5 generations
USER: GENES 14
USER: genes 0 Translation |==|  0.49739 0.39908 0.52836
USER: genes 1 Rotation |==|  0.39468 0.89674 0.23656 0.61000
USER: genes 2 Torsion [C]-CA--CB-[CG] |==|  0.19142
USER: genes 3 Torsion [CA]-CB--CG-[CD1] |==|  0.45143
USER: genes 4 Torsion [N]-CA--C-[N] |==|  0.81140
USER: genes 5 Torsion [C]-N--CA-[CB] |==|  0.77630
USER: genes 6 Torsion [N]-CA--C-[N] |==|  0.19155
USER: genes 7 Torsion [C]-N--CA-[C] |==|  0.09120
USER: genes 8 Torsion [N]-CA--C-[O] |==|  0.65507
USER: genes 9 Torsion [CB]-CA--N-[C] |==|  0.59020
USER: genes 10 Torsion [N]-C--CA-[N] |==|  0.77437
USER: genes 11 Torsion [C]-CA--N-[C] |==|  0.62225
USER: genes 12 Torsion [N]-C--CA-[N] |==|  0.86499
USER: genes 13 Torsion [C]-CA--N-[H2] |==|  0.70612
ROOT
ATOM      1  CA  LEU B   3     -15.648 -27.408  40.891  1.00 80.55 LIG 0.18  C 
ENDROOT
BRANCH 1 2
ATOM      2  CB  LEU B   3     -16.453 -28.173  39.829  1.00 80.55 LIG 0.04  C 
BRANCH 2 3
ATOM      3  CG  LEU B   3     -16.132 -28.022  38.321  1.00 80.55 LIG-0.02  C 
ATOM      4  CD1 LEU B   3     -16.763 -29.200  37.500  1.00 80.53 LIG 0.01  C 
ATOM      5  CD2 LEU B   3     -16.609 -26.669  37.735  1.00 80.44 LIG 0.01  C 
ENDBRANCH 2 3
ENDBRANCH 1 2
BRANCH 1 6
ATOM      6  C   LEU B   3     -15.935 -25.910  40.816  1.00 80.58 LIG 0.24  C 
ATOM      7  N   ALA B   4     -17.234 -25.586  40.826  1.00 80.60 LIG-0.35  N 
ATOM      8 H    ALA B   4     -17.854 -26.181  40.839  1.00 80.60 LIG 0.16  HD
ATOM      9 O    LEU B   3     -15.013 -25.087  40.777  1.00 80.60 LIG-0.27  OA
BRANCH 7 10
ATOM     10  CA  ALA B   4     -17.764 -24.212  40.819  1.00 80.57 LIG 0.17  C 
ATOM     11  CB  ALA B   4     -17.723 -23.615  42.219  1.00 80.56 LIG 0.04  C 
BRANCH 10 12
ATOM     12  C   ALA B   4     -17.053 -23.315  39.804  1.00 80.56 LIG 0.24  C 
ATOM     13  N   GLY B   5     -17.290 -23.612  38.526  1.00 80.55 LIG-0.35  N 
ATOM     14 H    GLY B   5     -17.853 -24.216  38.286  1.00 80.55 LIG 0.16  HD
ATOM     15 O    ALA B   4     -16.316 -22.390  40.171  1.00 80.59 LIG-0.27  OA
BRANCH 13 16
ATOM     16  CA  GLY B   5     -16.629 -22.952  37.393  1.00 80.50 LIG 0.21  C 
BRANCH 16 17
ATOM     17  C   GLY B   5     -15.195 -22.498  37.609  1.00 80.51 LIG 0.21  C 
ATOM     18 O    GLY B   5     -14.889 -21.287  37.415  1.00 80.50 LIG-0.29  OA
ENDBRANCH 16 17
ENDBRANCH 13 16
ENDBRANCH 10 12
ENDBRANCH 7 10
ENDBRANCH 1 6
BRANCH 1 19
ATOM     19  N   LEU B   3     -16.080 -27.767  42.232  1.00 80.50 LIG-0.35  N 
ATOM     20  C   ALA B   2     -16.057 -26.887  43.256  1.00 80.42 LIG 0.24  C 
ATOM     21 O    ALA B   2     -15.195 -25.973  43.360  1.00 80.43 LIG-0.27  OA
ATOM     22 H    LEU B   3     -16.347 -28.581  42.309  1.00 80.50 LIG 0.16  HD
BRANCH 20 23
ATOM     23  CA  ALA B   2     -17.003 -27.209  44.415  1.00 80.35 LIG 0.17  C 
ATOM     24  CB  ALA B   2     -17.019 -28.695  44.692  1.00 80.34 LIG 0.04  C 
BRANCH 23 25
ATOM     25  N   ALA B   2     -18.350 -26.750  44.060  1.00 80.28 LIG-0.35  N 
ATOM     26 H    ALA B   2     -18.576 -26.946  43.253  1.00 80.28 LIG 0.16  HD
ATOM     27  C   GLY B   1     -19.150 -26.093  44.897  1.00 80.20 LIG 0.24  C 
ATOM     28 O    GLY B   1     -18.826 -25.767  46.039  1.00 80.22 LIG-0.27  OA
BRANCH 27 29
ATOM     29  CA  GLY B   1     -20.525 -25.752  44.363  1.00 80.17 LIG 0.33  C 
BRANCH 29 30
ATOM     30  N   GLY B   1     -20.494 -25.123  43.010  1.00 80.00 LIG-0.07  N 
ATOM     31 H3   GLY B   1     -19.688 -25.235  42.649  1.00 80.00 LIG 0.27  HD
ATOM     32 H2   GLY B   1     -20.667 -24.252  43.083  1.00 80.00 LIG 0.27  HD
ATOM     33 H1   GLY B   1     -21.108 -25.505  42.490  1.00 80.00 LIG 0.27  HD
ENDBRANCH 29 30
ENDBRANCH 27 29
ENDBRANCH 23 25
ENDBRANCH 20 23
ENDBRANCH 1 19
TORSDOF 12
ENDMDL
MODEL 25
USER: ADFR SOLUTION from run 10
USER: SCORE 9.273563 LL:  -2.119 LR:  -9.752 RR:   0.000 FEB:  -6.172
USER: RMSD 5.936168
USER: SEED 921289
USER: STATUS no improvement in best 26 clusters for 5 generations
USER: GENES 14
USER: genes 0 Translation |==|  0.51248 0.52262 0.55679
USER: genes 1 Rotation |==|  0.71546 0.80534 0.83093 0.52884
USER: genes 2 Torsion [C]-CA--CB-[CG] |==|  0.26632
USER: genes 3 Torsion [CA]-CB--CG-[CD1] |==|  0.88728
USER: genes 4 Torsion [N]-CA--C-[N] |==|  0.12451
USER: genes 5 Torsion [C]-N--CA-[CB] |==|  0.13889
USER: genes 6 Torsion [N]-CA--C-[N] |==|  0.05017
USER: genes 7 Torsion [C]-N--CA-[C] |==|  0.05055
USER: genes 8 Torsion [N]-CA--C-[O] |==|  0.76937
USER: genes 9 Torsion [CB]-CA--N-[C] |==|  0.40543
USER: genes 10 Torsion [N]-C--CA-[N] |==|  0.17908
USER: genes 11 Torsion [C]-CA--N-[C] |==|  0.67221
USER: genes 12 Torsion [N]-C--CA-[N] |==|  0.17760
USER: genes 13 Torsion [C]-CA--N-[H2] |==|  0.81414
ROOT
ATOM      1  CA  LEU B   3     -15.196 -23.702  41.744  1.00 80.55 LIG 0.18  C 
ENDROOT
BRANCH 1 2
ATOM      2  CB  LEU B   3     -15.292 -22.797  42.983  1.00 80.55 LIG 0.04  C 
BRANCH 2 3
ATOM      3  CG  LEU B   3     -14.017 -22.301  43.710  1.00 80.55 LIG-0.02  C 
ATOM      4  CD1 LEU B   3     -12.948 -23.445  43.798  1.00 80.53 LIG 0.01  C 
ATOM      5  CD2 LEU B   3     -13.387 -21.054  43.039  1.00 80.44 LIG 0.01  C 
ENDBRANCH 2 3
ENDBRANCH 1 2
BRANCH 1 6
ATOM      6  C   LEU B   3     -15.337 -25.172  42.130  1.00 80.58 LIG 0.24  C 
ATOM      7  N   ALA B   4     -15.603 -25.997  41.110  1.00 80.60 LIG-0.35  N 
ATOM      8 H    ALA B   4     -15.720 -25.711  40.308  1.00 80.60 LIG 0.16  HD
ATOM      9 O    LEU B   3     -15.184 -25.539  43.301  1.00 80.60 LIG-0.27  OA
BRANCH 7 10
ATOM     10  CA  ALA B   4     -15.730 -27.460  41.216  1.00 80.57 LIG 0.17  C 
ATOM     11  CB  ALA B   4     -16.678 -27.835  42.348  1.00 80.56 LIG 0.04  C 
BRANCH 10 12
ATOM     12  C   ALA B   4     -16.146 -28.110  39.896  1.00 80.56 LIG 0.24  C 
ATOM     13  N   GLY B   5     -15.961 -27.355  38.812  1.00 80.55 LIG-0.35  N 
ATOM     14 H    GLY B   5     -15.575 -26.587  38.842  1.00 80.55 LIG 0.16  HD
ATOM     15 O    ALA B   4     -16.617 -29.255  39.865  1.00 80.59 LIG-0.27  OA
BRANCH 13 16
ATOM     16  CA  GLY B   5     -16.390 -27.738  37.462  1.00 80.50 LIG 0.21  C 
BRANCH 16 17
ATOM     17  C   GLY B   5     -17.433 -28.838  37.362  1.00 80.51 LIG 0.21  C 
ATOM     18 O    GLY B   5     -17.070 -30.047  37.415  1.00 80.50 LIG-0.29  OA
ENDBRANCH 16 17
ENDBRANCH 13 16
ENDBRANCH 10 12
ENDBRANCH 7 10
ENDBRANCH 1 6
BRANCH 1 19
ATOM     19  N   LEU B   3     -16.318 -23.480  40.848  1.00 80.50 LIG-0.35  N 
ATOM     20  C   ALA B   2     -16.198 -23.569  39.506  1.00 80.42 LIG 0.24  C 
ATOM     21 O    ALA B   2     -15.144 -23.260  38.886  1.00 80.43 LIG-0.27  OA
ATOM     22 H    LEU B   3     -17.056 -23.289  41.248  1.00 80.50 LIG 0.16  HD
BRANCH 20 23
ATOM     23  CA  ALA B   2     -17.500 -23.844  38.750  1.00 80.35 LIG 0.17  C 
ATOM     24  CB  ALA B   2     -17.228 -24.051  37.277  1.00 80.34 LIG 0.04  C 
BRANCH 23 25
ATOM     25  N   ALA B   2     -18.399 -22.700  38.938  1.00 80.28 LIG-0.35  N 
ATOM     26 H    ALA B   2     -18.087 -21.964  38.622  1.00 80.28 LIG 0.16  HD
ATOM     27  C   GLY B   1     -19.585 -22.786  39.538  1.00 80.20 LIG 0.24  C 
ATOM     28 O    GLY B   1     -20.029 -23.822  40.033  1.00 80.22 LIG-0.27  OA
BRANCH 27 29
ATOM     29  CA  GLY B   1     -20.392 -21.505  39.587  1.00 80.17 LIG 0.33  C 
BRANCH 29 30
ATOM     30  N   GLY B   1     -20.789 -21.006  38.238  1.00 80.00 LIG-0.07  N 
ATOM     31 H3   GLY B   1     -21.200 -21.656  37.790  1.00 80.00 LIG 0.27  HD
ATOM     32 H2   GLY B   1     -20.064 -20.749  37.790  1.00 80.00 LIG 0.27  HD
ATOM     33 H1   GLY B   1     -21.342 -20.313  38.329  1.00 80.00 LIG 0.27  HD
ENDBRANCH 29 30
ENDBRANCH 27 29
ENDBRANCH 23 25
ENDBRANCH 20 23
ENDBRANCH 1 19
TORSDOF 12
ENDMDL
MODEL 26
USER: ADFR SOLUTION from run 81
USER: SCORE 9.545860 LL:  -2.024 LR:  -9.736 RR:   0.000 FEB:  -6.157
USER: RMSD 6.104852
USER: SEED 80
USER: STATUS no improvement in best 12 clusters for 5 generations
USER: GENES 14
USER: genes 0 Translation |==|  0.39474 0.52492 0.51771
USER: genes 1 Rotation |==|  0.37053 0.83304 0.62314 0.82735
USER: genes 2 Torsion [C]-CA--CB-[CG] |==|  0.49973
USER: genes 3 Torsion [CA]-CB--CG-[CD1] |==|  0.86392
USER: genes 4 Torsion [N]-CA--C-[N] |==|  0.29954
USER: genes 5 Torsion [C]-N--CA-[CB] |==|  0.71854
USER: genes 6 Torsion [N]-CA--C-[N] |==|  0.19769
USER: genes 7 Torsion [C]-N--CA-[C] |==|  0.11450
USER: genes 8 Torsion [N]-CA--C-[O] |==|  0.09249
USER: genes 9 Torsion [CB]-CA--N-[C] |==|  0.28331
USER: genes 10 Torsion [N]-C--CA-[N] |==|  0.22590
USER: genes 11 Torsion [C]-CA--N-[C] |==|  0.57181
USER: genes 12 Torsion [N]-C--CA-[N] |==|  0.83178
USER: genes 13 Torsion [C]-CA--N-[H2] |==|  0.45872
ROOT
ATOM      1  CA  LEU B   3     -18.728 -23.632  40.571  1.00 80.55 LIG 0.18  C 
ENDROOT
BRANCH 1 2
ATOM      2  CB  LEU B   3     -18.913 -22.748  39.329  1.00 80.55 LIG 0.04  C 
BRANCH 2 3
ATOM      3  CG  LEU B   3     -17.693 -22.252  38.513  1.00 80.55 LIG-0.02  C 
ATOM      4  CD1 LEU B   3     -16.608 -21.631  39.460  1.00 80.53 LIG 0.01  C 
ATOM      5  CD2 LEU B   3     -17.050 -23.367  37.651  1.00 80.44 LIG 0.01  C 
ENDBRANCH 2 3
ENDBRANCH 1 2
BRANCH 1 6
ATOM      6  C   LEU B   3     -20.076 -23.983  41.196  1.00 80.58 LIG 0.24  C 
ATOM      7  N   ALA B   4     -20.137 -23.825  42.525  1.00 80.60 LIG-0.35  N 
ATOM      8 H    ALA B   4     -19.456 -23.580  42.988  1.00 80.60 LIG 0.16  HD
ATOM      9 O    LEU B   3     -21.025 -24.355  40.495  1.00 80.60 LIG-0.27  OA
BRANCH 7 10
ATOM     10  CA  ALA B   4     -21.337 -24.043  43.348  1.00 80.57 LIG 0.17  C 
ATOM     11  CB  ALA B   4     -21.993 -22.715  43.702  1.00 80.56 LIG 0.04  C 
BRANCH 10 12
ATOM     12  C   ALA B   4     -22.332 -25.004  42.693  1.00 80.56 LIG 0.24  C 
ATOM     13  N   GLY B   5     -21.945 -26.280  42.661  1.00 80.55 LIG-0.35  N 
ATOM     14 H    GLY B   5     -21.224 -26.556  43.040  1.00 80.55 LIG 0.16  HD
ATOM     15 O    ALA B   4     -23.408 -24.599  42.234  1.00 80.59 LIG-0.27  OA
BRANCH 13 16
ATOM     16  CA  GLY B   5     -22.693 -27.347  41.986  1.00 80.50 LIG 0.21  C 
BRANCH 16 17
ATOM     17  C   GLY B   5     -23.293 -27.010  40.632  1.00 80.51 LIG 0.21  C 
ATOM     18 O    GLY B   5     -22.690 -26.205  39.866  1.00 80.50 LIG-0.29  OA
ENDBRANCH 16 17
ENDBRANCH 13 16
ENDBRANCH 10 12
ENDBRANCH 7 10
ENDBRANCH 1 6
BRANCH 1 19
ATOM     19  N   LEU B   3     -18.176 -24.928  40.212  1.00 80.50 LIG-0.35  N 
ATOM     20  C   ALA B   2     -16.874 -25.232  40.394  1.00 80.42 LIG 0.24  C 
ATOM     21 O    ALA B   2     -15.948 -24.382  40.305  1.00 80.43 LIG-0.27  OA
ATOM     22 H    LEU B   3     -18.751 -25.474  39.876  1.00 80.50 LIG 0.16  HD
BRANCH 20 23
ATOM     23  CA  ALA B   2     -16.559 -26.728  40.485  1.00 80.35 LIG 0.17  C 
ATOM     24  CB  ALA B   2     -15.249 -26.954  41.205  1.00 80.34 LIG 0.04  C 
BRANCH 23 25
ATOM     25  N   ALA B   2     -16.486 -27.272  39.125  1.00 80.28 LIG-0.35  N 
ATOM     26 H    ALA B   2     -16.274 -26.686  38.533  1.00 80.28 LIG 0.16  HD
ATOM     27  C   GLY B   1     -16.722 -28.549  38.829  1.00 80.20 LIG 0.24  C 
ATOM     28 O    GLY B   1     -17.068 -29.391  39.656  1.00 80.22 LIG-0.27  OA
BRANCH 27 29
ATOM     29  CA  GLY B   1     -16.542 -28.931  37.374  1.00 80.17 LIG 0.33  C 
BRANCH 29 30
ATOM     30  N   GLY B   1     -17.445 -28.184  36.451  1.00 80.00 LIG-0.07  N 
ATOM     31 H3   GLY B   1     -18.272 -28.505  36.519  1.00 80.00 LIG 0.27  HD
ATOM     32 H2   GLY B   1     -17.159 -28.279  35.613  1.00 80.00 LIG 0.27  HD
ATOM     33 H1   GLY B   1     -17.444 -27.320  36.668  1.00 80.00 LIG 0.27  HD
ENDBRANCH 29 30
ENDBRANCH 27 29
ENDBRANCH 23 25
ENDBRANCH 20 23
ENDBRANCH 1 19
TORSDOF 12
ENDMDL
MODEL 27
USER: ADFR SOLUTION from run 129
USER: SCORE 11.200012 LL:  -2.179 LR:  -9.721 RR:   0.000 FEB:  -6.141
USER: RMSD 6.046154
USER: SEED 128
USER: STATUS no improvement in best 19 clusters for 5 generations
USER: GENES 14
USER: genes 0 Translation |==|  0.44087 0.63393 0.50067
USER: genes 1 Rotation |==|  0.37617 0.66720 0.66507 0.92363
USER: genes 2 Torsion [C]-CA--CB-[CG] |==|  0.56068
USER: genes 3 Torsion [CA]-CB--CG-[CD1] |==|  0.22349
USER: genes 4 Torsion [N]-CA--C-[N] |==|  0.38210
USER: genes 5 Torsion [C]-N--CA-[CB] |==|  0.87222
USER: genes 6 Torsion [N]-CA--C-[N] |==|  0.34873
USER: genes 7 Torsion [C]-N--CA-[C] |==|  0.39255
USER: genes 8 Torsion [N]-CA--C-[O] |==|  0.25468
USER: genes 9 Torsion [CB]-CA--N-[C] |==|  0.55350
USER: genes 10 Torsion [N]-C--CA-[N] |==|  0.47743
USER: genes 11 Torsion [C]-CA--N-[C] |==|  0.77211
USER: genes 12 Torsion [N]-C--CA-[N] |==|  0.31949
USER: genes 13 Torsion [C]-CA--N-[H2] |==|  0.34144
ROOT
ATOM      1  CA  LEU B   3     -17.344 -20.362  40.060  1.00 80.55 LIG 0.18  C 
ENDROOT
BRANCH 1 2
ATOM      2  CB  LEU B   3     -17.045 -19.049  39.321  1.00 80.55 LIG 0.04  C 
BRANCH 2 3
ATOM      3  CG  LEU B   3     -15.605 -18.480  39.254  1.00 80.55 LIG-0.02  C 
ATOM      4  CD1 LEU B   3     -14.774 -19.206  38.139  1.00 80.53 LIG 0.01  C 
ATOM      5  CD2 LEU B   3     -15.571 -16.950  39.010  1.00 80.44 LIG 0.01  C 
ENDBRANCH 2 3
ENDBRANCH 1 2
BRANCH 1 6
ATOM      6  C   LEU B   3     -18.644 -20.985  39.559  1.00 80.58 LIG 0.24  C 
ATOM      7  N   ALA B   4     -19.694 -20.828  40.376  1.00 80.60 LIG-0.35  N 
ATOM      8 H    ALA B   4     -19.626 -20.437  41.138  1.00 80.60 LIG 0.16  HD
ATOM      9 O    LEU B   3     -18.694 -21.560  38.465  1.00 80.60 LIG-0.27  OA
BRANCH 7 10
ATOM     10  CA  ALA B   4     -21.063 -21.287  40.092  1.00 80.57 LIG 0.17  C 
ATOM     11  CB  ALA B   4     -21.470 -20.913  38.672  1.00 80.56 LIG 0.04  C 
BRANCH 10 12
ATOM     12  C   ALA B   4     -21.246 -22.784  40.353  1.00 80.56 LIG 0.24  C 
ATOM     13  N   GLY B   5     -22.244 -23.093  41.181  1.00 80.55 LIG-0.35  N 
ATOM     14 H    GLY B   5     -22.788 -22.505  41.493  1.00 80.55 LIG 0.16  HD
ATOM     15 O    ALA B   4     -20.507 -23.623  39.821  1.00 80.59 LIG-0.27  OA
BRANCH 13 16
ATOM     16  CA  GLY B   5     -22.527 -24.454  41.653  1.00 80.50 LIG 0.21  C 
BRANCH 16 17
ATOM     17  C   GLY B   5     -22.964 -24.599  43.101  1.00 80.51 LIG 0.21  C 
ATOM     18 O    GLY B   5     -24.195 -24.577  43.386  1.00 80.50 LIG-0.29  OA
ENDBRANCH 16 17
ENDBRANCH 13 16
ENDBRANCH 10 12
ENDBRANCH 7 10
ENDBRANCH 1 6
BRANCH 1 19
ATOM     19  N   LEU B   3     -16.346 -21.373  39.753  1.00 80.50 LIG-0.35  N 
ATOM     20  C   ALA B   2     -16.569 -22.690  39.952  1.00 80.42 LIG 0.24  C 
ATOM     21 O    ALA B   2     -17.291 -23.133  40.885  1.00 80.43 LIG-0.27  OA
ATOM     22 H    LEU B   3     -15.611 -21.057  39.436  1.00 80.50 LIG 0.16  HD
BRANCH 20 23
ATOM     23  CA  ALA B   2     -15.698 -23.633  39.117  1.00 80.35 LIG 0.17  C 
ATOM     24  CB  ALA B   2     -16.048 -23.522  37.650  1.00 80.34 LIG 0.04  C 
BRANCH 23 25
ATOM     25  N   ALA B   2     -15.919 -25.006  39.584  1.00 80.28 LIG-0.35  N 
ATOM     26 H    ALA B   2     -16.481 -25.445  39.103  1.00 80.28 LIG 0.16  HD
ATOM     27  C   GLY B   1     -15.311 -25.529  40.646  1.00 80.20 LIG 0.24  C 
ATOM     28 O    GLY B   1     -14.536 -24.904  41.369  1.00 80.22 LIG-0.27  OA
BRANCH 27 29
ATOM     29  CA  GLY B   1     -15.627 -26.982  40.937  1.00 80.17 LIG 0.33  C 
BRANCH 29 30
ATOM     30  N   GLY B   1     -14.447 -27.884  40.793  1.00 80.00 LIG-0.07  N 
ATOM     31 H3   GLY B   1     -14.599 -28.470  40.140  1.00 80.00 LIG 0.27  HD
ATOM     32 H2   GLY B   1     -14.311 -28.320  41.557  1.00 80.00 LIG 0.27  HD
ATOM     33 H1   GLY B   1     -13.725 -27.401  40.595  1.00 80.00 LIG 0.27  HD
ENDBRANCH 29 30
ENDBRANCH 27 29
ENDBRANCH 23 25
ENDBRANCH 20 23
ENDBRANCH 1 19
TORSDOF 12
ENDMDL
MODEL 28
USER: ADFR SOLUTION from run 103
USER: SCORE 10.117519 LL:  -2.153 LR:  -9.704 RR:   0.000 FEB:  -6.124
USER: RMSD 7.940806
USER: SEED 102
USER: STATUS no improvement in best 8 clusters for 5 generations
USER: GENES 14
USER: genes 0 Translation |==|  0.45856 0.58176 0.45934
USER: genes 1 Rotation |==|  0.97303 0.39640 0.61871 0.53759
USER: genes 2 Torsion [C]-CA--CB-[CG] |==|  0.12787
USER: genes 3 Torsion [CA]-CB--CG-[CD1] |==|  0.28027
USER: genes 4 Torsion [N]-CA--C-[N] |==|  0.28586
USER: genes 5 Torsion [C]-N--CA-[CB] |==|  0.51885
USER: genes 6 Torsion [N]-CA--C-[N] |==|  0.44739
USER: genes 7 Torsion [C]-N--CA-[C] |==|  0.81467
USER: genes 8 Torsion [N]-CA--C-[O] |==|  0.10510
USER: genes 9 Torsion [CB]-CA--N-[C] |==|  0.27218
USER: genes 10 Torsion [N]-C--CA-[N] |==|  0.29778
USER: genes 11 Torsion [C]-CA--N-[C] |==|  0.75269
USER: genes 12 Torsion [N]-C--CA-[N] |==|  0.11676
USER: genes 13 Torsion [C]-CA--N-[H2] |==|  0.38903
ROOT
ATOM      1  CA  LEU B   3     -16.813 -21.927  38.820  1.00 80.55 LIG 0.18  C 
ENDROOT
BRANCH 1 2
ATOM      2  CB  LEU B   3     -15.972 -23.197  39.023  1.00 80.55 LIG 0.04  C 
BRANCH 2 3
ATOM      3  CG  LEU B   3     -16.626 -24.602  38.986  1.00 80.55 LIG-0.02  C 
ATOM      4  CD1 LEU B   3     -16.377 -25.292  37.600  1.00 80.53 LIG 0.01  C 
ATOM      5  CD2 LEU B   3     -16.127 -25.529  40.123  1.00 80.44 LIG 0.01  C 
ENDBRANCH 2 3
ENDBRANCH 1 2
BRANCH 1 6
ATOM      6  C   LEU B   3     -18.091 -21.981  39.653  1.00 80.58 LIG 0.24  C 
ATOM      7  N   ALA B   4     -19.190 -21.545  39.024  1.00 80.60 LIG-0.35  N 
ATOM      8 H    ALA B   4     -19.165 -21.228  38.225  1.00 80.60 LIG 0.16  HD
ATOM      9 O    LEU B   3     -18.080 -22.424  40.808  1.00 80.60 LIG-0.27  OA
BRANCH 7 10
ATOM     10  CA  ALA B   4     -20.548 -21.549  39.592  1.00 80.57 LIG 0.17  C 
ATOM     11  CB  ALA B   4     -21.570 -21.139  38.539  1.00 80.56 LIG 0.04  C 
BRANCH 10 12
ATOM     12  C   ALA B   4     -20.911 -22.887  40.237  1.00 80.56 LIG 0.24  C 
ATOM     13  N   GLY B   5     -21.931 -22.841  41.095  1.00 80.55 LIG-0.35  N 
ATOM     14 H    GLY B   5     -22.395 -22.130  41.227  1.00 80.55 LIG 0.16  HD
ATOM     15 O    ALA B   4     -20.286 -23.921  39.965  1.00 80.59 LIG-0.27  OA
BRANCH 13 16
ATOM     16  CA  GLY B   5     -22.374 -23.983  41.905  1.00 80.50 LIG 0.21  C 
BRANCH 16 17
ATOM     17  C   GLY B   5     -22.976 -25.160  41.155  1.00 80.51 LIG 0.21  C 
ATOM     18 O    GLY B   5     -22.490 -25.502  40.040  1.00 80.50 LIG-0.29  OA
ENDBRANCH 16 17
ENDBRANCH 13 16
ENDBRANCH 10 12
ENDBRANCH 7 10
ENDBRANCH 1 6
BRANCH 1 19
ATOM     19  N   LEU B   3     -16.123 -20.757  39.337  1.00 80.50 LIG-0.35  N 
ATOM     20  C   ALA B   2     -15.418 -19.926  38.540  1.00 80.42 LIG 0.24  C 
ATOM     21 O    ALA B   2     -14.799 -20.315  37.514  1.00 80.43 LIG-0.27  OA
ATOM     22 H    LEU B   3     -16.206 -20.646  40.186  1.00 80.50 LIG 0.16  HD
BRANCH 20 23
ATOM     23  CA  ALA B   2     -15.216 -18.510  39.088  1.00 80.35 LIG 0.17  C 
ATOM     24  CB  ALA B   2     -15.549 -17.479  38.034  1.00 80.34 LIG 0.04  C 
BRANCH 23 25
ATOM     25  N   ALA B   2     -13.818 -18.368  39.507  1.00 80.28 LIG-0.35  N 
ATOM     26 H    ALA B   2     -13.304 -18.069  38.886  1.00 80.28 LIG 0.16  HD
ATOM     27  C   GLY B   1     -13.380 -18.669  40.728  1.00 80.20 LIG 0.24  C 
ATOM     28 O    GLY B   1     -14.093 -19.137  41.615  1.00 80.22 LIG-0.27  OA
BRANCH 27 29
ATOM     29  CA  GLY B   1     -11.912 -18.401  40.985  1.00 80.17 LIG 0.33  C 
BRANCH 29 30
ATOM     30  N   GLY B   1     -11.439 -17.105  40.415  1.00 80.00 LIG-0.07  N 
ATOM     31 H3   GLY B   1     -11.018 -17.255  39.645  1.00 80.00 LIG 0.27  HD
ATOM     32 H2   GLY B   1     -10.880 -16.715  40.988  1.00 80.00 LIG 0.27  HD
ATOM     33 H1   GLY B   1     -12.137 -16.571  40.272  1.00 80.00 LIG 0.27  HD
ENDBRANCH 29 30
ENDBRANCH 27 29
ENDBRANCH 23 25
ENDBRANCH 20 23
ENDBRANCH 1 19
TORSDOF 12
ENDMDL
MODEL 29
USER: ADFR SOLUTION from run 135
USER: SCORE 10.846121 LL:  -2.890 LR:  -9.690 RR:   0.000 FEB:  -6.110
USER: RMSD 4.994700
USER: SEED 134
USER: STATUS no improvement in best 8 clusters for 5 generations
USER: GENES 14
USER: genes 0 Translation |==|  0.47681 0.41088 0.51988
USER: genes 1 Rotation |==|  0.38479 0.81130 0.15871 0.65278
USER: genes 2 Torsion [C]-CA--CB-[CG] |==|  0.16242
USER: genes 3 Torsion [CA]-CB--CG-[CD1] |==|  0.49246
USER: genes 4 Torsion [N]-CA--C-[N] |==|  0.31540
USER: genes 5 Torsion [C]-N--CA-[CB] |==|  0.81750
USER: genes 6 Torsion [N]-CA--C-[N] |==|  0.37804
USER: genes 7 Torsion [C]-N--CA-[C] |==|  0.64557
USER: genes 8 Torsion [N]-CA--C-[O] |==|  0.97200
USER: genes 9 Torsion [CB]-CA--N-[C] |==|  0.42245
USER: genes 10 Torsion [N]-C--CA-[N] |==|  0.88619
USER: genes 11 Torsion [C]-CA--N-[C] |==|  0.76112
USER: genes 12 Torsion [N]-C--CA-[N] |==|  0.84819
USER: genes 13 Torsion [C]-CA--N-[H2] |==|  0.59138
ROOT
ATOM      1  CA  LEU B   3     -16.266 -27.054  40.636  1.00 80.55 LIG 0.18  C 
ENDROOT
BRANCH 1 2
ATOM      2  CB  LEU B   3     -16.695 -28.285  39.824  1.00 80.55 LIG 0.04  C 
BRANCH 2 3
ATOM      3  CG  LEU B   3     -16.158 -28.522  38.390  1.00 80.55 LIG-0.02  C 
ATOM      4  CD1 LEU B   3     -16.695 -29.879  37.814  1.00 80.53 LIG 0.01  C 
ATOM      5  CD2 LEU B   3     -16.513 -27.370  37.415  1.00 80.44 LIG 0.01  C 
ENDBRANCH 2 3
ENDBRANCH 1 2
BRANCH 1 6
ATOM      6  C   LEU B   3     -16.625 -25.765  39.902  1.00 80.58 LIG 0.24  C 
ATOM      7  N   ALA B   4     -15.610 -24.905  39.746  1.00 80.60 LIG-0.35  N 
ATOM      8 H    ALA B   4     -14.828 -25.058  40.068  1.00 80.60 LIG 0.16  HD
ATOM      9 O    LEU B   3     -17.770 -25.574  39.474  1.00 80.60 LIG-0.27  OA
BRANCH 7 10
ATOM     10  CA  ALA B   4     -15.689 -23.624  39.027  1.00 80.57 LIG 0.17  C 
ATOM     11  CB  ALA B   4     -15.946 -23.857  37.544  1.00 80.56 LIG 0.04  C 
BRANCH 10 12
ATOM     12  C   ALA B   4     -16.722 -22.673  39.633  1.00 80.56 LIG 0.24  C 
ATOM     13  N   GLY B   5     -16.320 -21.407  39.756  1.00 80.55 LIG-0.35  N 
ATOM     14 H    GLY B   5     -15.564 -21.129  39.455  1.00 80.55 LIG 0.16  HD
ATOM     15 O    ALA B   4     -17.841 -23.076  39.978  1.00 80.59 LIG-0.27  OA
BRANCH 13 16
ATOM     16  CA  GLY B   5     -17.108 -20.355  40.409  1.00 80.50 LIG 0.21  C 
BRANCH 16 17
ATOM     17  C   GLY B   5     -17.336 -19.080  39.616  1.00 80.51 LIG 0.21  C 
ATOM     18 O    GLY B   5     -16.700 -18.893  38.540  1.00 80.50 LIG-0.29  OA
ENDBRANCH 16 17
ENDBRANCH 13 16
ENDBRANCH 10 12
ENDBRANCH 7 10
ENDBRANCH 1 6
BRANCH 1 19
ATOM     19  N   LEU B   3     -17.020 -26.957  41.875  1.00 80.50 LIG-0.35  N 
ATOM     20  C   ALA B   2     -16.520 -26.362  42.979  1.00 80.42 LIG 0.24  C 
ATOM     21 O    ALA B   2     -15.295 -26.377  43.275  1.00 80.43 LIG-0.27  OA
ATOM     22 H    LEU B   3     -17.804 -27.310  41.838  1.00 80.50 LIG 0.16  HD
BRANCH 20 23
ATOM     23  CA  ALA B   2     -17.564 -25.865  43.983  1.00 80.35 LIG 0.17  C 
ATOM     24  CB  ALA B   2     -18.073 -27.007  44.832  1.00 80.34 LIG 0.04  C 
BRANCH 23 25
ATOM     25  N   ALA B   2     -18.673 -25.258  43.240  1.00 80.28 LIG-0.35  N 
ATOM     26 H    ALA B   2     -19.319 -25.803  43.084  1.00 80.28 LIG 0.16  HD
ATOM     27  C   GLY B   1     -18.686 -23.987  42.842  1.00 80.20 LIG 0.24  C 
ATOM     28 O    GLY B   1     -17.752 -23.205  43.019  1.00 80.22 LIG-0.27  OA
BRANCH 27 29
ATOM     29  CA  GLY B   1     -19.945 -23.531  42.136  1.00 80.17 LIG 0.33  C 
BRANCH 29 30
ATOM     30  N   GLY B   1     -20.306 -24.380  40.963  1.00 80.00 LIG-0.07  N 
ATOM     31 H3   GLY B   1     -19.570 -24.752  40.628  1.00 80.00 LIG 0.27  HD
ATOM     32 H2   GLY B   1     -20.693 -23.876  40.339  1.00 80.00 LIG 0.27  HD
ATOM     33 H1   GLY B   1     -20.870 -25.019  41.221  1.00 80.00 LIG 0.27  HD
ENDBRANCH 29 30
ENDBRANCH 27 29
ENDBRANCH 23 25
ENDBRANCH 20 23
ENDBRANCH 1 19
TORSDOF 12
ENDMDL
MODEL 30
USER: ADFR SOLUTION from run 146
USER: SCORE 11.060046 LL:  -2.846 LR:  -9.665 RR:   0.000 FEB:  -6.086
USER: RMSD 5.094125
USER: SEED 145
USER: STATUS no improvement in best 11 clusters for 5 generations
USER: GENES 14
USER: genes 0 Translation |==|  0.48268 0.44102 0.46047
USER: genes 1 Rotation |==|  0.37496 0.88199 0.20973 0.56475
USER: genes 2 Torsion [C]-CA--CB-[CG] |==|  0.40681
USER: genes 3 Torsion [CA]-CB--CG-[CD1] |==|  0.23005
USER: genes 4 Torsion [N]-CA--C-[N] |==|  0.85367
USER: genes 5 Torsion [C]-N--CA-[CB] |==|  0.51856
USER: genes 6 Torsion [N]-CA--C-[N] |==|  0.44733
USER: genes 7 Torsion [C]-N--CA-[C] |==|  0.23136
USER: genes 8 Torsion [N]-CA--C-[O] |==|  0.93260
USER: genes 9 Torsion [CB]-CA--N-[C] |==|  0.27121
USER: genes 10 Torsion [N]-C--CA-[N] |==|  0.93335
USER: genes 11 Torsion [C]-CA--N-[C] |==|  0.79314
USER: genes 12 Torsion [N]-C--CA-[N] |==|  0.50807
USER: genes 13 Torsion [C]-CA--N-[H2] |==|  0.32369
ROOT
ATOM      1  CA  LEU B   3     -16.090 -26.149  38.854  1.00 80.55 LIG 0.18  C 
ENDROOT
BRANCH 1 2
ATOM      2  CB  LEU B   3     -17.070 -27.035  38.070  1.00 80.55 LIG 0.04  C 
BRANCH 2 3
ATOM      3  CG  LEU B   3     -16.643 -28.429  37.545  1.00 80.55 LIG-0.02  C 
ATOM      4  CD1 LEU B   3     -16.772 -29.509  38.675  1.00 80.53 LIG 0.01  C 
ATOM      5  CD2 LEU B   3     -17.452 -28.880  36.303  1.00 80.44 LIG 0.01  C 
ENDBRANCH 2 3
ENDBRANCH 1 2
BRANCH 1 6
ATOM      6  C   LEU B   3     -16.338 -24.672  38.562  1.00 80.58 LIG 0.24  C 
ATOM      7  N   ALA B   4     -17.513 -24.202  39.002  1.00 80.60 LIG-0.35  N 
ATOM      8 H    ALA B   4     -18.092 -24.707  39.386  1.00 80.60 LIG 0.16  HD
ATOM      9 O    LEU B   3     -15.486 -23.985  37.986  1.00 80.60 LIG-0.27  OA
BRANCH 7 10
ATOM     10  CA  ALA B   4     -17.960 -22.804  38.892  1.00 80.57 LIG 0.17  C 
ATOM     11  CB  ALA B   4     -19.270 -22.601  39.642  1.00 80.56 LIG 0.04  C 
BRANCH 10 12
ATOM     12  C   ALA B   4     -16.891 -21.809  39.347  1.00 80.56 LIG 0.24  C 
ATOM     13  N   GLY B   5     -17.064 -20.559  38.915  1.00 80.55 LIG-0.35  N 
ATOM     14 H    GLY B   5     -17.758 -20.313  38.471  1.00 80.55 LIG 0.16  HD
ATOM     15 O    ALA B   4     -15.945 -22.165  40.063  1.00 80.59 LIG-0.27  OA
BRANCH 13 16
ATOM     16  CA  GLY B   5     -16.104 -19.472  39.142  1.00 80.50 LIG 0.21  C 
BRANCH 16 17
ATOM     17  C   GLY B   5     -14.937 -19.378  38.173  1.00 80.51 LIG 0.21  C 
ATOM     18 O    GLY B   5     -14.561 -20.410  37.548  1.00 80.50 LIG-0.29  OA
ENDBRANCH 16 17
ENDBRANCH 13 16
ENDBRANCH 10 12
ENDBRANCH 7 10
ENDBRANCH 1 6
BRANCH 1 19
ATOM     19  N   LEU B   3     -16.322 -26.254  40.285  1.00 80.50 LIG-0.35  N 
ATOM     20  C   ALA B   2     -15.592 -27.069  41.076  1.00 80.42 LIG 0.24  C 
ATOM     21 O    ALA B   2     -15.117 -28.168  40.682  1.00 80.43 LIG-0.27  OA
ATOM     22 H    LEU B   3     -16.960 -25.754  40.575  1.00 80.50 LIG 0.16  HD
BRANCH 20 23
ATOM     23  CA  ALA B   2     -15.571 -26.692  42.560  1.00 80.35 LIG 0.17  C 
ATOM     24  CB  ALA B   2     -16.596 -27.494  43.328  1.00 80.34 LIG 0.04  C 
BRANCH 23 25
ATOM     25  N   ALA B   2     -15.860 -25.259  42.681  1.00 80.28 LIG-0.35  N 
ATOM     26 H    ALA B   2     -16.654 -25.093  42.969  1.00 80.28 LIG 0.16  HD
ATOM     27  C   GLY B   1     -14.986 -24.302  42.377  1.00 80.20 LIG 0.24  C 
ATOM     28 O    GLY B   1     -13.863 -24.520  41.923  1.00 80.22 LIG-0.27  OA
BRANCH 27 29
ATOM     29  CA  GLY B   1     -15.452 -22.882  42.622  1.00 80.17 LIG 0.33  C 
BRANCH 29 30
ATOM     30  N   GLY B   1     -14.458 -21.853  42.198  1.00 80.00 LIG-0.07  N 
ATOM     31 H3   GLY B   1     -14.261 -21.328  42.890  1.00 80.00 LIG 0.27  HD
ATOM     32 H2   GLY B   1     -14.802 -21.359  41.542  1.00 80.00 LIG 0.27  HD
ATOM     33 H1   GLY B   1     -13.718 -22.255  41.911  1.00 80.00 LIG 0.27  HD
ENDBRANCH 29 30
ENDBRANCH 27 29
ENDBRANCH 23 25
ENDBRANCH 20 23
ENDBRANCH 1 19
TORSDOF 12
ENDMDL
MODEL 31
USER: ADFR SOLUTION from run 157
USER: SCORE 11.036642 LL:  -2.395 LR:  -9.651 RR:   0.000 FEB:  -6.072
USER: RMSD 7.221100
USER: SEED 156
USER: STATUS no improvement in best 5 clusters for 5 generations
USER: GENES 14
USER: genes 0 Translation |==|  0.32700 0.59366 0.48529
USER: genes 1 Rotation |==|  0.23734 0.13292 0.49069 0.71488
USER: genes 2 Torsion [C]-CA--CB-[CG] |==|  0.58214
USER: genes 3 Torsion [CA]-CB--CG-[CD1] |==|  0.43411
USER: genes 4 Torsion [N]-CA--C-[N] |==|  0.40394
USER: genes 5 Torsion [C]-N--CA-[CB] |==|  0.52808
USER: genes 6 Torsion [N]-CA--C-[N] |==|  0.29068
USER: genes 7 Torsion [C]-N--CA-[C] |==|  0.55262
USER: genes 8 Torsion [N]-CA--C-[O] |==|  0.20012
USER: genes 9 Torsion [CB]-CA--N-[C] |==|  0.54557
USER: genes 10 Torsion [N]-C--CA-[N] |==|  0.00413
USER: genes 11 Torsion [C]-CA--N-[C] |==|  0.75012
USER: genes 12 Torsion [N]-C--CA-[N] |==|  0.75146
USER: genes 13 Torsion [C]-CA--N-[H2] |==|  0.43288
ROOT
ATOM      1  CA  LEU B   3     -20.760 -21.570  39.599  1.00 80.55 LIG 0.18  C 
ENDROOT
BRANCH 1 2
ATOM      2  CB  LEU B   3     -20.523 -20.060  39.756  1.00 80.55 LIG 0.04  C 
BRANCH 2 3
ATOM      3  CG  LEU B   3     -21.621 -19.135  40.336  1.00 80.55 LIG-0.02  C 
ATOM      4  CD1 LEU B   3     -20.988 -17.836  40.945  1.00 80.53 LIG 0.01  C 
ATOM      5  CD2 LEU B   3     -22.696 -18.745  39.290  1.00 80.44 LIG 0.01  C 
ENDBRANCH 2 3
ENDBRANCH 1 2
BRANCH 1 6
ATOM      6  C   LEU B   3     -19.450 -22.344  39.725  1.00 80.58 LIG 0.24  C 
ATOM      7  N   ALA B   4     -18.853 -22.631  38.561  1.00 80.60 LIG-0.35  N 
ATOM      8 H    ALA B   4     -19.204 -22.425  37.804  1.00 80.60 LIG 0.16  HD
ATOM      9 O    LEU B   3     -18.991 -22.642  40.834  1.00 80.60 LIG-0.27  OA
BRANCH 7 10
ATOM     10  CA  ALA B   4     -17.559 -23.318  38.421  1.00 80.57 LIG 0.17  C 
ATOM     11  CB  ALA B   4     -17.073 -23.255  36.978  1.00 80.56 LIG 0.04  C 
BRANCH 10 12
ATOM     12  C   ALA B   4     -16.504 -22.785  39.393  1.00 80.56 LIG 0.24  C 
ATOM     13  N   GLY B   5     -16.245 -23.578  40.433  1.00 80.55 LIG-0.35  N 
ATOM     14 H    GLY B   5     -16.592 -24.360  40.518  1.00 80.55 LIG 0.16  HD
ATOM     15 O    ALA B   4     -15.949 -21.695  39.203  1.00 80.59 LIG-0.27  OA
BRANCH 13 16
ATOM     16  CA  GLY B   5     -15.351 -23.215  41.539  1.00 80.50 LIG 0.21  C 
BRANCH 16 17
ATOM     17  C   GLY B   5     -14.821 -24.356  42.392  1.00 80.51 LIG 0.21  C 
ATOM     18 O    GLY B   5     -13.950 -25.137  41.915  1.00 80.50 LIG-0.29  OA
ENDBRANCH 16 17
ENDBRANCH 13 16
ENDBRANCH 10 12
ENDBRANCH 7 10
ENDBRANCH 1 6
BRANCH 1 19
ATOM     19  N   LEU B   3     -21.564 -22.088  40.693  1.00 80.50 LIG-0.35  N 
ATOM     20  C   ALA B   2     -21.643 -23.408  40.967  1.00 80.42 LIG 0.24  C 
ATOM     21 O    ALA B   2     -21.578 -24.302  40.081  1.00 80.43 LIG-0.27  OA
ATOM     22 H    LEU B   3     -21.978 -21.483  41.143  1.00 80.50 LIG 0.16  HD
BRANCH 20 23
ATOM     23  CA  ALA B   2     -22.054 -23.754  42.401  1.00 80.35 LIG 0.17  C 
ATOM     24  CB  ALA B   2     -23.299 -24.611  42.407  1.00 80.34 LIG 0.04  C 
BRANCH 23 25
ATOM     25  N   ALA B   2     -22.300 -22.505  43.129  1.00 80.28 LIG-0.35  N 
ATOM     26 H    ALA B   2     -23.115 -22.234  43.079  1.00 80.28 LIG 0.16  HD
ATOM     27  C   GLY B   1     -21.359 -21.849  43.807  1.00 80.20 LIG 0.24  C 
ATOM     28 O    GLY B   1     -20.181 -22.199  43.855  1.00 80.22 LIG-0.27  OA
BRANCH 27 29
ATOM     29  CA  GLY B   1     -21.822 -20.607  44.540  1.00 80.17 LIG 0.33  C 
BRANCH 29 30
ATOM     30  N   GLY B   1     -21.743 -19.368  43.712  1.00 80.00 LIG-0.07  N 
ATOM     31 H3   GLY B   1     -20.918 -19.036  43.752  1.00 80.00 LIG 0.27  HD
ATOM     32 H2   GLY B   1     -22.320 -18.765  44.023  1.00 80.00 LIG 0.27  HD
ATOM     33 H1   GLY B   1     -21.944 -19.562  42.866  1.00 80.00 LIG 0.27  HD
ENDBRANCH 29 30
ENDBRANCH 27 29
ENDBRANCH 23 25
ENDBRANCH 20 23
ENDBRANCH 1 19
TORSDOF 12
ENDMDL
MODEL 32
USER: ADFR SOLUTION from run 70
USER: SCORE 9.956365 LL:  -2.246 LR:  -9.638 RR:   0.000 FEB:  -6.058
USER: RMSD 6.587561
USER: SEED 69
USER: STATUS no improvement in best 20 clusters for 5 generations
USER: GENES 14
USER: genes 0 Translation |==|  0.46616 0.45497 0.51297
USER: genes 1 Rotation |==|  0.35973 0.86704 0.24953 0.68131
USER: genes 2 Torsion [C]-CA--CB-[CG] |==|  0.52583
USER: genes 3 Torsion [CA]-CB--CG-[CD1] |==|  0.55371
USER: genes 4 Torsion [N]-CA--C-[N] |==|  0.86772
USER: genes 5 Torsion [C]-N--CA-[CB] |==|  0.11977
USER: genes 6 Torsion [N]-CA--C-[N] |==|  0.10329
USER: genes 7 Torsion [C]-N--CA-[C] |==|  0.81403
USER: genes 8 Torsion [N]-CA--C-[O] |==|  0.69333
USER: genes 9 Torsion [CB]-CA--N-[C] |==|  0.33892
USER: genes 10 Torsion [N]-C--CA-[N] |==|  0.48404
USER: genes 11 Torsion [C]-CA--N-[C] |==|  0.76818
USER: genes 12 Torsion [N]-C--CA-[N] |==|  0.67578
USER: genes 13 Torsion [C]-CA--N-[H2] |==|  0.76691
ROOT
ATOM      1  CA  LEU B   3     -16.585 -25.731  40.429  1.00 80.55 LIG 0.18  C 
ENDROOT
BRANCH 1 2
ATOM      2  CB  LEU B   3     -16.944 -26.663  39.261  1.00 80.55 LIG 0.04  C 
BRANCH 2 3
ATOM      3  CG  LEU B   3     -16.540 -28.159  39.281  1.00 80.55 LIG-0.02  C 
ATOM      4  CD1 LEU B   3     -16.569 -28.760  37.833  1.00 80.53 LIG 0.01  C 
ATOM      5  CD2 LEU B   3     -15.146 -28.399  39.913  1.00 80.44 LIG 0.01  C 
ENDBRANCH 2 3
ENDBRANCH 1 2
BRANCH 1 6
ATOM      6  C   LEU B   3     -17.283 -24.381  40.282  1.00 80.58 LIG 0.24  C 
ATOM      7  N   ALA B   4     -18.605 -24.406  40.495  1.00 80.60 LIG-0.35  N 
ATOM      8 H    ALA B   4     -19.027 -25.135  40.667  1.00 80.60 LIG 0.16  HD
ATOM      9 O    LEU B   3     -16.641 -23.359  40.011  1.00 80.60 LIG-0.27  OA
BRANCH 7 10
ATOM     10  CA  ALA B   4     -19.489 -23.229  40.467  1.00 80.57 LIG 0.17  C 
ATOM     11  CB  ALA B   4     -19.145 -22.330  39.287  1.00 80.56 LIG 0.04  C 
BRANCH 10 12
ATOM     12  C   ALA B   4     -20.971 -23.608  40.473  1.00 80.56 LIG 0.24  C 
ATOM     13  N   GLY B   5     -21.280 -24.664  41.226  1.00 80.55 LIG-0.35  N 
ATOM     14 H    GLY B   5     -20.704 -25.062  41.726  1.00 80.55 LIG 0.16  HD
ATOM     15 O    ALA B   4     -21.800 -22.965  39.815  1.00 80.59 LIG-0.27  OA
BRANCH 13 16
ATOM     16  CA  GLY B   5     -22.618 -25.264  41.290  1.00 80.50 LIG 0.21  C 
BRANCH 16 17
ATOM     17  C   GLY B   5     -23.715 -24.421  41.918  1.00 80.51 LIG 0.21  C 
ATOM     18 O    GLY B   5     -24.194 -24.756  43.039  1.00 80.50 LIG-0.29  OA
ENDBRANCH 16 17
ENDBRANCH 13 16
ENDBRANCH 10 12
ENDBRANCH 7 10
ENDBRANCH 1 6
BRANCH 1 19
ATOM     19  N   LEU B   3     -17.106 -26.244  41.685  1.00 80.50 LIG-0.35  N 
ATOM     20  C   ALA B   2     -16.307 -26.514  42.740  1.00 80.42 LIG 0.24  C 
ATOM     21 O    ALA B   2     -15.121 -26.923  42.619  1.00 80.43 LIG-0.27  OA
ATOM     22 H    LEU B   3     -17.959 -26.357  41.692  1.00 80.50 LIG 0.16  HD
BRANCH 20 23
ATOM     23  CA  ALA B   2     -17.004 -26.521  44.103  1.00 80.35 LIG 0.17  C 
ATOM     24  CB  ALA B   2     -17.521 -25.142  44.444  1.00 80.34 LIG 0.04  C 
BRANCH 23 25
ATOM     25  N   ALA B   2     -16.041 -26.962  45.117  1.00 80.28 LIG-0.35  N 
ATOM     26 H    ALA B   2     -15.661 -26.313  45.533  1.00 80.28 LIG 0.16  HD
ATOM     27  C   GLY B   1     -15.776 -28.241  45.374  1.00 80.20 LIG 0.24  C 
ATOM     28 O    GLY B   1     -16.279 -29.182  44.760  1.00 80.22 LIG-0.27  OA
BRANCH 27 29
ATOM     29  CA  GLY B   1     -14.792 -28.496  46.497  1.00 80.17 LIG 0.33  C 
BRANCH 29 30
ATOM     30  N   GLY B   1     -13.541 -29.174  46.044  1.00 80.00 LIG-0.07  N 
ATOM     31 H3   GLY B   1     -13.319 -28.877  45.235  1.00 80.00 LIG 0.27  HD
ATOM     32 H2   GLY B   1     -13.675 -30.053  46.010  1.00 80.00 LIG 0.27  HD
ATOM     33 H1   GLY B   1     -12.883 -28.996  46.616  1.00 80.00 LIG 0.27  HD
ENDBRANCH 29 30
ENDBRANCH 27 29
ENDBRANCH 23 25
ENDBRANCH 20 23
ENDBRANCH 1 19
TORSDOF 12
ENDMDL
MODEL 33
USER: ADFR SOLUTION from run 47
USER: SCORE 10.311676 LL:  -2.566 LR:  -9.615 RR:   0.000 FEB:  -6.036
USER: RMSD 8.252305
USER: SEED 46
USER: STATUS no improvement in best 39 clusters for 5 generations
USER: GENES 14
USER: genes 0 Translation |==|  0.27685 0.51246 0.57061
USER: genes 1 Rotation |==|  0.47460 0.25387 0.92958 0.56507
USER: genes 2 Torsion [C]-CA--CB-[CG] |==|  0.25916
USER: genes 3 Torsion [CA]-CB--CG-[CD1] |==|  0.84308
USER: genes 4 Torsion [N]-CA--C-[N] |==|  0.88597
USER: genes 5 Torsion [C]-N--CA-[CB] |==|  0.50802
USER: genes 6 Torsion [N]-CA--C-[N] |==|  0.31698
USER: genes 7 Torsion [C]-N--CA-[C] |==|  0.91840
USER: genes 8 Torsion [N]-CA--C-[O] |==|  0.84175
USER: genes 9 Torsion [CB]-CA--N-[C] |==|  0.25000
USER: genes 10 Torsion [N]-C--CA-[N] |==|  0.05683
USER: genes 11 Torsion [C]-CA--N-[C] |==|  0.74214
USER: genes 12 Torsion [N]-C--CA-[N] |==|  0.16065
USER: genes 13 Torsion [C]-CA--N-[H2] |==|  0.25769
ROOT
ATOM      1  CA  LEU B   3     -22.264 -24.006  42.158  1.00 80.55 LIG 0.18  C 
ENDROOT
BRANCH 1 2
ATOM      2  CB  LEU B   3     -23.682 -24.453  41.769  1.00 80.55 LIG 0.04  C 
BRANCH 2 3
ATOM      3  CG  LEU B   3     -23.971 -25.916  41.348  1.00 80.55 LIG-0.02  C 
ATOM      4  CD1 LEU B   3     -23.064 -26.335  40.139  1.00 80.53 LIG 0.01  C 
ATOM      5  CD2 LEU B   3     -23.783 -26.926  42.510  1.00 80.44 LIG 0.01  C 
ENDBRANCH 2 3
ENDBRANCH 1 2
BRANCH 1 6
ATOM      6  C   LEU B   3     -21.523 -23.434  40.952  1.00 80.58 LIG 0.24  C 
ATOM      7  N   ALA B   4     -21.867 -22.182  40.624  1.00 80.60 LIG-0.35  N 
ATOM      8 H    ALA B   4     -22.482 -21.752  41.042  1.00 80.60 LIG 0.16  HD
ATOM      9 O    LEU B   3     -20.660 -24.096  40.364  1.00 80.60 LIG-0.27  OA
BRANCH 7 10
ATOM     10  CA  ALA B   4     -21.259 -21.395  39.539  1.00 80.57 LIG 0.17  C 
ATOM     11  CB  ALA B   4     -21.848 -19.991  39.502  1.00 80.56 LIG 0.04  C 
BRANCH 10 12
ATOM     12  C   ALA B   4     -19.732 -21.361  39.624  1.00 80.56 LIG 0.24  C 
ATOM     13  N   GLY B   5     -19.099 -21.974  38.622  1.00 80.55 LIG-0.35  N 
ATOM     14 H    GLY B   5     -19.512 -22.303  37.944  1.00 80.55 LIG 0.16  HD
ATOM     15 O    ALA B   4     -19.153 -20.801  40.564  1.00 80.59 LIG-0.27  OA
BRANCH 13 16
ATOM     16  CA  GLY B   5     -17.643 -22.155  38.560  1.00 80.50 LIG 0.21  C 
BRANCH 16 17
ATOM     17  C   GLY B   5     -16.793 -21.101  39.250  1.00 80.51 LIG 0.21  C 
ATOM     18 O    GLY B   5     -16.914 -19.888  38.918  1.00 80.50 LIG-0.29  OA
ENDBRANCH 16 17
ENDBRANCH 13 16
ENDBRANCH 10 12
ENDBRANCH 7 10
ENDBRANCH 1 6
BRANCH 1 19
ATOM     19  N   LEU B   3     -22.307 -22.890  43.088  1.00 80.50 LIG-0.35  N 
ATOM     20  C   ALA B   2     -22.338 -23.068  44.426  1.00 80.42 LIG 0.24  C 
ATOM     21 O    ALA B   2     -22.903 -24.050  44.978  1.00 80.43 LIG-0.27  OA
ATOM     22 H    LEU B   3     -22.310 -22.117  42.710  1.00 80.50 LIG 0.16  HD
BRANCH 20 23
ATOM     23  CA  ALA B   2     -21.848 -21.877  45.255  1.00 80.35 LIG 0.17  C 
ATOM     24  CB  ALA B   2     -22.696 -21.706  46.495  1.00 80.34 LIG 0.04  C 
BRANCH 23 25
ATOM     25  N   ALA B   2     -21.921 -20.670  44.425  1.00 80.28 LIG-0.35  N 
ATOM     26 H    ALA B   2     -22.687 -20.281  44.453  1.00 80.28 LIG 0.16  HD
ATOM     27  C   GLY B   1     -20.904 -20.214  43.696  1.00 80.20 LIG 0.24  C 
ATOM     28 O    GLY B   1     -19.815 -20.780  43.611  1.00 80.22 LIG-0.27  OA
BRANCH 27 29
ATOM     29  CA  GLY B   1     -21.157 -18.921  42.950  1.00 80.17 LIG 0.33  C 
BRANCH 29 30
ATOM     30  N   GLY B   1     -21.549 -17.790  43.842  1.00 80.00 LIG-0.07  N 
ATOM     31 H3   GLY B   1     -22.112 -17.253  43.411  1.00 80.00 LIG 0.27  HD
ATOM     32 H2   GLY B   1     -20.823 -17.331  44.077  1.00 80.00 LIG 0.27  HD
ATOM     33 H1   GLY B   1     -21.946 -18.111  44.572  1.00 80.00 LIG 0.27  HD
ENDBRANCH 29 30
ENDBRANCH 27 29
ENDBRANCH 23 25
ENDBRANCH 20 23
ENDBRANCH 1 19
TORSDOF 12
ENDMDL
MODEL 34
USER: ADFR SOLUTION from run 123
USER: SCORE 11.117651 LL:  -2.521 LR:  -9.608 RR:   0.000 FEB:  -6.028
USER: RMSD 7.338009
USER: SEED 122
USER: STATUS no improvement in best 4 clusters for 5 generations
USER: GENES 14
USER: genes 0 Translation |==|  0.45637 0.56901 0.44843
USER: genes 1 Rotation |==|  0.97098 0.37574 0.59615 0.55907
USER: genes 2 Torsion [C]-CA--CB-[CG] |==|  0.13129
USER: genes 3 Torsion [CA]-CB--CG-[CD1] |==|  0.31196
USER: genes 4 Torsion [N]-CA--C-[N] |==|  0.30209
USER: genes 5 Torsion [C]-N--CA-[CB] |==|  0.50002
USER: genes 6 Torsion [N]-CA--C-[N] |==|  0.46384
USER: genes 7 Torsion [C]-N--CA-[C] |==|  0.82717
USER: genes 8 Torsion [N]-CA--C-[O] |==|  0.14797
USER: genes 9 Torsion [CB]-CA--N-[C] |==|  0.55556
USER: genes 10 Torsion [N]-C--CA-[N] |==|  0.87027
USER: genes 11 Torsion [C]-CA--N-[C] |==|  0.81333
USER: genes 12 Torsion [N]-C--CA-[N] |==|  0.90550
USER: genes 13 Torsion [C]-CA--N-[H2] |==|  0.02455
ROOT
ATOM      1  CA  LEU B   3     -16.879 -22.310  38.493  1.00 80.55 LIG 0.18  C 
ENDROOT
BRANCH 1 2
ATOM      2  CB  LEU B   3     -16.160 -23.655  38.679  1.00 80.55 LIG 0.04  C 
BRANCH 2 3
ATOM      3  CG  LEU B   3     -16.955 -24.983  38.743  1.00 80.55 LIG-0.02  C 
ATOM      4  CD1 LEU B   3     -16.656 -25.869  37.483  1.00 80.53 LIG 0.01  C 
ATOM      5  CD2 LEU B   3     -16.667 -25.798  40.029  1.00 80.44 LIG 0.01  C 
ENDBRANCH 2 3
ENDBRANCH 1 2
BRANCH 1 6
ATOM      6  C   LEU B   3     -18.069 -22.192  39.442  1.00 80.58 LIG 0.24  C 
ATOM      7  N   ALA B   4     -19.206 -21.780  38.868  1.00 80.60 LIG-0.35  N 
ATOM      8 H    ALA B   4     -19.248 -21.565  38.037  1.00 80.60 LIG 0.16  HD
ATOM      9 O    LEU B   3     -17.961 -22.489  40.638  1.00 80.60 LIG-0.27  OA
BRANCH 7 10
ATOM     10  CA  ALA B   4     -20.500 -21.640  39.557  1.00 80.57 LIG 0.17  C 
ATOM     11  CB  ALA B   4     -21.570 -21.148  38.592  1.00 80.56 LIG 0.04  C 
BRANCH 10 12
ATOM     12  C   ALA B   4     -20.929 -22.927  40.264  1.00 80.56 LIG 0.24  C 
ATOM     13  N   GLY B   5     -21.942 -22.788  41.121  1.00 80.55 LIG-0.35  N 
ATOM     14 H    GLY B   5     -22.368 -22.048  41.220  1.00 80.55 LIG 0.16  HD
ATOM     15 O    ALA B   4     -20.361 -24.004  40.039  1.00 80.59 LIG-0.27  OA
BRANCH 13 16
ATOM     16  CA  GLY B   5     -22.441 -23.866  41.983  1.00 80.50 LIG 0.21  C 
BRANCH 16 17
ATOM     17  C   GLY B   5     -23.011 -25.090  41.287  1.00 80.51 LIG 0.21  C 
ATOM     18 O    GLY B   5     -22.320 -25.689  40.415  1.00 80.50 LIG-0.29  OA
ENDBRANCH 16 17
ENDBRANCH 13 16
ENDBRANCH 10 12
ENDBRANCH 7 10
ENDBRANCH 1 6
BRANCH 1 19
ATOM     19  N   LEU B   3     -16.024 -21.203  38.887  1.00 80.50 LIG-0.35  N 
ATOM     20  C   ALA B   2     -16.518 -19.985  39.195  1.00 80.42 LIG 0.24  C 
ATOM     21 O    ALA B   2     -17.548 -19.501  38.654  1.00 80.43 LIG-0.27  OA
ATOM     22 H    LEU B   3     -15.185 -21.395  38.904  1.00 80.50 LIG 0.16  HD
BRANCH 20 23
ATOM     23  CA  ALA B   2     -15.616 -19.118  40.078  1.00 80.35 LIG 0.17  C 
ATOM     24  CB  ALA B   2     -14.450 -18.578  39.281  1.00 80.34 LIG 0.04  C 
BRANCH 23 25
ATOM     25  N   ALA B   2     -15.127 -19.938  41.191  1.00 80.28 LIG-0.35  N 
ATOM     26 H    ALA B   2     -14.280 -20.084  41.162  1.00 80.28 LIG 0.16  HD
ATOM     27  C   GLY B   1     -15.911 -20.411  42.158  1.00 80.20 LIG 0.24  C 
ATOM     28 O    GLY B   1     -17.130 -20.247  42.193  1.00 80.22 LIG-0.27  OA
BRANCH 27 29
ATOM     29  CA  GLY B   1     -15.210 -21.191  43.251  1.00 80.17 LIG 0.33  C 
BRANCH 29 30
ATOM     30  N   GLY B   1     -14.040 -21.976  42.760  1.00 80.00 LIG-0.07  N 
ATOM     31 H3   GLY B   1     -13.329 -21.796  43.265  1.00 80.00 LIG 0.27  HD
ATOM     32 H2   GLY B   1     -13.867 -21.755  41.915  1.00 80.00 LIG 0.27  HD
ATOM     33 H1   GLY B   1     -14.225 -22.846  42.807  1.00 80.00 LIG 0.27  HD
ENDBRANCH 29 30
ENDBRANCH 27 29
ENDBRANCH 23 25
ENDBRANCH 20 23
ENDBRANCH 1 19
TORSDOF 12
ENDMDL
MODEL 35
USER: ADFR SOLUTION from run 64
USER: SCORE 10.817590 LL:  -2.230 LR:  -9.595 RR:   0.000 FEB:  -6.015
USER: RMSD 6.426145
USER: SEED 63
USER: STATUS searching
USER: GENES 14
USER: genes 0 Translation |==|  0.44988 0.58468 0.50840
USER: genes 1 Rotation |==|  0.58470 0.68280 0.18946 0.83611
USER: genes 2 Torsion [C]-CA--CB-[CG] |==|  0.76370
USER: genes 3 Torsion [CA]-CB--CG-[CD1] |==|  0.28108
USER: genes 4 Torsion [N]-CA--C-[N] |==|  0.45098
USER: genes 5 Torsion [C]-N--CA-[CB] |==|  0.12879
USER: genes 6 Torsion [N]-CA--C-[N] |==|  0.08588
USER: genes 7 Torsion [C]-N--CA-[C] |==|  0.73650
USER: genes 8 Torsion [N]-CA--C-[O] |==|  0.05185
USER: genes 9 Torsion [CB]-CA--N-[C] |==|  0.51667
USER: genes 10 Torsion [N]-C--CA-[N] |==|  0.27305
USER: genes 11 Torsion [C]-CA--N-[C] |==|  0.80103
USER: genes 12 Torsion [N]-C--CA-[N] |==|  0.89914
USER: genes 13 Torsion [C]-CA--N-[H2] |==|  0.63877
ROOT
ATOM      1  CA  LEU B   3     -17.074 -21.840  40.292  1.00 80.55 LIG 0.18  C 
ENDROOT
BRANCH 1 2
ATOM      2  CB  LEU B   3     -16.223 -22.901  39.576  1.00 80.55 LIG 0.04  C 
BRANCH 2 3
ATOM      3  CG  LEU B   3     -16.697 -23.540  38.247  1.00 80.55 LIG-0.02  C 
ATOM      4  CD1 LEU B   3     -15.958 -22.890  37.025  1.00 80.53 LIG 0.01  C 
ATOM      5  CD2 LEU B   3     -16.500 -25.076  38.213  1.00 80.44 LIG 0.01  C 
ENDBRANCH 2 3
ENDBRANCH 1 2
BRANCH 1 6
ATOM      6  C   LEU B   3     -16.796 -20.448  39.729  1.00 80.58 LIG 0.24  C 
ATOM      7  N   ALA B   4     -15.668 -19.878  40.172  1.00 80.60 LIG-0.35  N 
ATOM      8 H    ALA B   4     -15.162 -20.257  40.754  1.00 80.60 LIG 0.16  HD
ATOM      9 O    LEU B   3     -17.562 -19.929  38.909  1.00 80.60 LIG-0.27  OA
BRANCH 7 10
ATOM     10  CA  ALA B   4     -15.154 -18.569  39.737  1.00 80.57 LIG 0.17  C 
ATOM     11  CB  ALA B   4     -16.268 -17.531  39.735  1.00 80.56 LIG 0.04  C 
BRANCH 10 12
ATOM     12  C   ALA B   4     -13.954 -18.105  40.565  1.00 80.56 LIG 0.24  C 
ATOM     13  N   GLY B   5     -13.183 -19.085  41.037  1.00 80.55 LIG-0.35  N 
ATOM     14 H    GLY B   5     -13.307 -19.911  40.837  1.00 80.55 LIG 0.16  HD
ATOM     15 O    ALA B   4     -13.741 -16.902  40.767  1.00 80.59 LIG-0.27  OA
BRANCH 13 16
ATOM     16  CA  GLY B   5     -12.047 -18.871  41.942  1.00 80.50 LIG 0.21  C 
BRANCH 16 17
ATOM     17  C   GLY B   5     -10.675 -18.750  41.299  1.00 80.51 LIG 0.21  C 
ATOM     18 O    GLY B   5     -10.585 -18.480  40.068  1.00 80.50 LIG-0.29  OA
ENDBRANCH 16 17
ENDBRANCH 13 16
ENDBRANCH 10 12
ENDBRANCH 7 10
ENDBRANCH 1 6
BRANCH 1 19
ATOM     19  N   LEU B   3     -18.488 -22.036  40.022  1.00 80.50 LIG-0.35  N 
ATOM     20  C   ALA B   2     -19.430 -21.163  40.441  1.00 80.42 LIG 0.24  C 
ATOM     21 O    ALA B   2     -19.330 -20.502  41.509  1.00 80.43 LIG-0.27  OA
ATOM     22 H    LEU B   3     -18.666 -22.751  39.577  1.00 80.50 LIG 0.16  HD
BRANCH 20 23
ATOM     23  CA  ALA B   2     -20.745 -21.196  39.659  1.00 80.35 LIG 0.17  C 
ATOM     24  CB  ALA B   2     -21.285 -19.798  39.464  1.00 80.34 LIG 0.04  C 
BRANCH 23 25
ATOM     25  N   ALA B   2     -21.711 -22.008  40.406  1.00 80.28 LIG-0.35  N 
ATOM     26 H    ALA B   2     -22.340 -21.546  40.768  1.00 80.28 LIG 0.16  HD
ATOM     27  C   GLY B   1     -21.631 -23.333  40.517  1.00 80.20 LIG 0.24  C 
ATOM     28 O    GLY B   1     -20.717 -24.006  40.042  1.00 80.22 LIG-0.27  OA
BRANCH 27 29
ATOM     29  CA  GLY B   1     -22.755 -23.998  41.283  1.00 80.17 LIG 0.33  C 
BRANCH 29 30
ATOM     30  N   GLY B   1     -23.243 -23.189  42.438  1.00 80.00 LIG-0.07  N 
ATOM     31 H3   GLY B   1     -22.691 -22.505  42.576  1.00 80.00 LIG 0.27  HD
ATOM     32 H2   GLY B   1     -23.271 -23.699  43.168  1.00 80.00 LIG 0.27  HD
ATOM     33 H1   GLY B   1     -24.060 -22.880  42.261  1.00 80.00 LIG 0.27  HD
ENDBRANCH 29 30
ENDBRANCH 27 29
ENDBRANCH 23 25
ENDBRANCH 20 23
ENDBRANCH 1 19
TORSDOF 12
ENDMDL
MODEL 36
USER: ADFR SOLUTION from run 10
USER: SCORE 9.995622 LL:  -2.387 LR:  -9.589 RR:   0.000 FEB:  -6.010
USER: RMSD 6.634544
USER: SEED 921289
USER: STATUS no improvement in best 26 clusters for 5 generations
USER: GENES 14
USER: genes 0 Translation |==|  0.44246 0.58622 0.45307
USER: genes 1 Rotation |==|  0.24333 0.15361 0.26586 0.59649
USER: genes 2 Torsion [C]-CA--CB-[CG] |==|  0.43525
USER: genes 3 Torsion [CA]-CB--CG-[CD1] |==|  0.43369
USER: genes 4 Torsion [N]-CA--C-[N] |==|  0.07166
USER: genes 5 Torsion [C]-N--CA-[CB] |==|  0.76164
USER: genes 6 Torsion [N]-CA--C-[N] |==|  0.19511
USER: genes 7 Torsion [C]-N--CA-[C] |==|  0.78471
USER: genes 8 Torsion [N]-CA--C-[O] |==|  0.33338
USER: genes 9 Torsion [CB]-CA--N-[C] |==|  0.90423
USER: genes 10 Torsion [N]-C--CA-[N] |==|  0.42142
USER: genes 11 Torsion [C]-CA--N-[C] |==|  0.82496
USER: genes 12 Torsion [N]-C--CA-[N] |==|  0.91384
USER: genes 13 Torsion [C]-CA--N-[H2] |==|  0.63284
ROOT
ATOM      1  CA  LEU B   3     -17.296 -21.793  38.632  1.00 80.55 LIG 0.18  C 
ENDROOT
BRANCH 1 2
ATOM      2  CB  LEU B   3     -16.972 -20.711  39.673  1.00 80.55 LIG 0.04  C 
BRANCH 2 3
ATOM      3  CG  LEU B   3     -16.908 -19.215  39.276  1.00 80.55 LIG-0.02  C 
ATOM      4  CD1 LEU B   3     -17.166 -18.299  40.523  1.00 80.53 LIG 0.01  C 
ATOM      5  CD2 LEU B   3     -15.561 -18.823  38.617  1.00 80.44 LIG 0.01  C 
ENDBRANCH 2 3
ENDBRANCH 1 2
BRANCH 1 6
ATOM      6  C   LEU B   3     -16.758 -23.152  39.073  1.00 80.58 LIG 0.24  C 
ATOM      7  N   ALA B   4     -17.523 -24.197  38.731  1.00 80.60 LIG-0.35  N 
ATOM      8 H    ALA B   4     -18.275 -24.100  38.326  1.00 80.60 LIG 0.16  HD
ATOM      9 O    LEU B   3     -15.682 -23.245  39.676  1.00 80.60 LIG-0.27  OA
BRANCH 7 10
ATOM     10  CA  ALA B   4     -17.195 -25.608  38.993  1.00 80.57 LIG 0.17  C 
ATOM     11  CB  ALA B   4     -16.320 -26.169  37.879  1.00 80.56 LIG 0.04  C 
BRANCH 10 12
ATOM     12  C   ALA B   4     -16.558 -25.817  40.368  1.00 80.56 LIG 0.24  C 
ATOM     13  N   GLY B   5     -17.382 -25.649  41.402  1.00 80.55 LIG-0.35  N 
ATOM     14 H    GLY B   5     -18.224 -25.502  41.306  1.00 80.55 LIG 0.16  HD
ATOM     15 O    ALA B   4     -15.362 -26.118  40.482  1.00 80.59 LIG-0.27  OA
BRANCH 13 16
ATOM     16  CA  GLY B   5     -16.957 -25.694  42.807  1.00 80.50 LIG 0.21  C 
BRANCH 16 17
ATOM     17  C   GLY B   5     -16.714 -27.070  43.403  1.00 80.51 LIG 0.21  C 
ATOM     18 O    GLY B   5     -15.569 -27.360  43.854  1.00 80.50 LIG-0.29  OA
ENDBRANCH 16 17
ENDBRANCH 13 16
ENDBRANCH 10 12
ENDBRANCH 7 10
ENDBRANCH 1 6
BRANCH 1 19
ATOM     19  N   LEU B   3     -18.730 -22.013  38.537  1.00 80.50 LIG-0.35  N 
ATOM     20  C   ALA B   2     -19.545 -21.920  39.610  1.00 80.42 LIG 0.24  C 
ATOM     21 O    ALA B   2     -19.185 -22.225  40.778  1.00 80.43 LIG-0.27  OA
ATOM     22 H    LEU B   3     -19.005 -22.205  37.745  1.00 80.50 LIG 0.16  HD
BRANCH 20 23
ATOM     23  CA  ALA B   2     -21.017 -21.643  39.289  1.00 80.35 LIG 0.17  C 
ATOM     24  CB  ALA B   2     -21.268 -20.156  39.183  1.00 80.34 LIG 0.04  C 
BRANCH 23 25
ATOM     25  N   ALA B   2     -21.842 -22.217  40.356  1.00 80.28 LIG-0.35  N 
ATOM     26 H    ALA B   2     -22.294 -21.630  40.794  1.00 80.28 LIG 0.16  HD
ATOM     27  C   GLY B   1     -21.894 -23.520  40.628  1.00 80.20 LIG 0.24  C 
ATOM     28 O    GLY B   1     -21.223 -24.369  40.042  1.00 80.22 LIG-0.27  OA
BRANCH 27 29
ATOM     29  CA  GLY B   1     -22.848 -23.925  41.732  1.00 80.17 LIG 0.33  C 
BRANCH 29 30
ATOM     30  N   GLY B   1     -23.011 -22.880  42.785  1.00 80.00 LIG-0.07  N 
ATOM     31 H3   GLY B   1     -22.385 -22.256  42.684  1.00 80.00 LIG 0.27  HD
ATOM     32 H2   GLY B   1     -22.931 -23.253  43.589  1.00 80.00 LIG 0.27  HD
ATOM     33 H1   GLY B   1     -23.816 -22.506  42.711  1.00 80.00 LIG 0.27  HD
ENDBRANCH 29 30
ENDBRANCH 27 29
ENDBRANCH 23 25
ENDBRANCH 20 23
ENDBRANCH 1 19
TORSDOF 12
ENDMDL
MODEL 37
USER: ADFR SOLUTION from run 78
USER: SCORE 10.228933 LL:  -2.814 LR:  -9.558 RR:   0.000 FEB:  -5.978
USER: RMSD 6.739451
USER: SEED 77
USER: STATUS no improvement in best 21 clusters for 5 generations
USER: GENES 14
USER: genes 0 Translation |==|  0.46118 0.40263 0.52019
USER: genes 1 Rotation |==|  0.94780 0.61596 0.36115 0.62940
USER: genes 2 Torsion [C]-CA--CB-[CG] |==|  0.45749
USER: genes 3 Torsion [CA]-CB--CG-[CD1] |==|  0.82373
USER: genes 4 Torsion [N]-CA--C-[N] |==|  0.19423
USER: genes 5 Torsion [C]-N--CA-[CB] |==|  0.76803
USER: genes 6 Torsion [N]-CA--C-[N] |==|  0.15857
USER: genes 7 Torsion [C]-N--CA-[C] |==|  0.33334
USER: genes 8 Torsion [N]-CA--C-[O] |==|  0.87877
USER: genes 9 Torsion [CB]-CA--N-[C] |==|  0.89917
USER: genes 10 Torsion [N]-C--CA-[N] |==|  0.35000
USER: genes 11 Torsion [C]-CA--N-[C] |==|  0.83285
USER: genes 12 Torsion [N]-C--CA-[N] |==|  0.78671
USER: genes 13 Torsion [C]-CA--N-[H2] |==|  0.35487
ROOT
ATOM      1  CA  LEU B   3     -16.735 -27.301  40.646  1.00 80.55 LIG 0.18  C 
ENDROOT
BRANCH 1 2
ATOM      2  CB  LEU B   3     -15.567 -27.856  39.815  1.00 80.55 LIG 0.04  C 
BRANCH 2 3
ATOM      3  CG  LEU B   3     -15.790 -28.381  38.375  1.00 80.55 LIG-0.02  C 
ATOM      4  CD1 LEU B   3     -16.741 -29.628  38.380  1.00 80.53 LIG 0.01  C 
ATOM      5  CD2 LEU B   3     -16.358 -27.301  37.420  1.00 80.44 LIG 0.01  C 
ENDBRANCH 2 3
ENDBRANCH 1 2
BRANCH 1 6
ATOM      6  C   LEU B   3     -16.356 -27.204  42.121  1.00 80.58 LIG 0.24  C 
ATOM      7  N   ALA B   4     -17.371 -26.909  42.943  1.00 80.60 LIG-0.35  N 
ATOM      8 H    ALA B   4     -18.165 -26.754  42.653  1.00 80.60 LIG 0.16  HD
ATOM      9 O    LEU B   3     -15.195 -27.412  42.496  1.00 80.60 LIG-0.27  OA
BRANCH 7 10
ATOM     10  CA  ALA B   4     -17.273 -26.815  44.409  1.00 80.57 LIG 0.17  C 
ATOM     11  CB  ALA B   4     -17.391 -28.195  45.044  1.00 80.56 LIG 0.04  C 
BRANCH 10 12
ATOM     12  C   ALA B   4     -16.005 -26.092  44.867  1.00 80.56 LIG 0.24  C 
ATOM     13  N   GLY B   5     -15.855 -24.857  44.385  1.00 80.55 LIG-0.35  N 
ATOM     14 H    GLY B   5     -16.456 -24.469  43.909  1.00 80.55 LIG 0.16  HD
ATOM     15 O    ALA B   4     -15.194 -26.637  45.627  1.00 80.59 LIG-0.27  OA
BRANCH 13 16
ATOM     16  CA  GLY B   5     -14.664 -24.029  44.607  1.00 80.50 LIG 0.21  C 
BRANCH 16 17
ATOM     17  C   GLY B   5     -13.901 -23.583  43.371  1.00 80.51 LIG 0.21  C 
ATOM     18 O    GLY B   5     -13.682 -24.411  42.442  1.00 80.50 LIG-0.29  OA
ENDBRANCH 16 17
ENDBRANCH 13 16
ENDBRANCH 10 12
ENDBRANCH 7 10
ENDBRANCH 1 6
BRANCH 1 19
ATOM     19  N   LEU B   3     -17.026 -25.924  40.281  1.00 80.50 LIG-0.35  N 
ATOM     20  C   ALA B   2     -16.056 -25.047  39.948  1.00 80.42 LIG 0.24  C 
ATOM     21 O    ALA B   2     -14.899 -25.076  40.446  1.00 80.43 LIG-0.27  OA
ATOM     22 H    LEU B   3     -17.863 -25.726  40.298  1.00 80.50 LIG 0.16  HD
BRANCH 20 23
ATOM     23  CA  ALA B   2     -16.514 -23.859  39.098  1.00 80.35 LIG 0.17  C 
ATOM     24  CB  ALA B   2     -15.909 -23.929  37.714  1.00 80.34 LIG 0.04  C 
BRANCH 23 25
ATOM     25  N   ALA B   2     -16.099 -22.620  39.765  1.00 80.28 LIG-0.35  N 
ATOM     26 H    ALA B   2     -15.570 -22.136  39.291  1.00 80.28 LIG 0.16  HD
ATOM     27  C   GLY B   1     -16.498 -22.272  40.987  1.00 80.20 LIG 0.24  C 
ATOM     28 O    GLY B   1     -17.220 -22.972  41.697  1.00 80.22 LIG-0.27  OA
BRANCH 27 29
ATOM     29  CA  GLY B   1     -16.006 -20.929  41.483  1.00 80.17 LIG 0.33  C 
BRANCH 29 30
ATOM     30  N   GLY B   1     -14.582 -20.948  41.927  1.00 80.00 LIG-0.07  N 
ATOM     31 H3   GLY B   1     -14.543 -20.825  42.807  1.00 80.00 LIG 0.27  HD
ATOM     32 H2   GLY B   1     -14.134 -20.297  41.517  1.00 80.00 LIG 0.27  HD
ATOM     33 H1   GLY B   1     -14.217 -21.734  41.721  1.00 80.00 LIG 0.27  HD
ENDBRANCH 29 30
ENDBRANCH 27 29
ENDBRANCH 23 25
ENDBRANCH 20 23
ENDBRANCH 1 19
TORSDOF 12
ENDMDL
MODEL 38
USER: ADFR SOLUTION from run 83
USER: SCORE 10.915590 LL:  -2.371 LR:  -9.555 RR:   0.000 FEB:  -5.976
USER: RMSD 5.455122
USER: SEED 82
USER: STATUS no improvement in best 22 clusters for 5 generations
USER: GENES 14
USER: genes 0 Translation |==|  0.48707 0.43996 0.49960
USER: genes 1 Rotation |==|  0.33552 0.80017 0.14500 0.58258
USER: genes 2 Torsion [C]-CA--CB-[CG] |==|  0.20497
USER: genes 3 Torsion [CA]-CB--CG-[CD1] |==|  0.47225
USER: genes 4 Torsion [N]-CA--C-[N] |==|  0.20454
USER: genes 5 Torsion [C]-N--CA-[CB] |==|  0.84625
USER: genes 6 Torsion [N]-CA--C-[N] |==|  0.85027
USER: genes 7 Torsion [C]-N--CA-[C] |==|  0.64347
USER: genes 8 Torsion [N]-CA--C-[O] |==|  0.79815
USER: genes 9 Torsion [CB]-CA--N-[C] |==|  0.18774
USER: genes 10 Torsion [N]-C--CA-[N] |==|  0.91667
USER: genes 11 Torsion [C]-CA--N-[C] |==|  0.84994
USER: genes 12 Torsion [N]-C--CA-[N] |==|  0.76975
USER: genes 13 Torsion [C]-CA--N-[H2] |==|  0.22470
ROOT
ATOM      1  CA  LEU B   3     -15.958 -26.181  40.028  1.00 80.55 LIG 0.18  C 
ENDROOT
BRANCH 1 2
ATOM      2  CB  LEU B   3     -16.659 -27.487  39.622  1.00 80.55 LIG 0.04  C 
BRANCH 2 3
ATOM      3  CG  LEU B   3     -16.296 -28.212  38.302  1.00 80.55 LIG-0.02  C 
ATOM      4  CD1 LEU B   3     -16.961 -29.631  38.247  1.00 80.53 LIG 0.01  C 
ATOM      5  CD2 LEU B   3     -16.695 -27.404  37.041  1.00 80.44 LIG 0.01  C 
ENDBRANCH 2 3
ENDBRANCH 1 2
BRANCH 1 6
ATOM      6  C   LEU B   3     -16.451 -25.012  39.179  1.00 80.58 LIG 0.24  C 
ATOM      7  N   ALA B   4     -15.713 -23.898  39.276  1.00 80.60 LIG-0.35  N 
ATOM      8 H    ALA B   4     -15.037 -23.841  39.803  1.00 80.60 LIG 0.16  HD
ATOM      9 O    LEU B   3     -17.443 -25.128  38.450  1.00 80.60 LIG-0.27  OA
BRANCH 7 10
ATOM     10  CA  ALA B   4     -15.950 -22.659  38.518  1.00 80.57 LIG 0.17  C 
ATOM     11  CB  ALA B   4     -15.972 -22.942  37.022  1.00 80.56 LIG 0.04  C 
BRANCH 10 12
ATOM     12  C   ALA B   4     -17.214 -21.926  38.971  1.00 80.56 LIG 0.24  C 
ATOM     13  N   GLY B   5     -18.325 -22.665  38.967  1.00 80.55 LIG-0.35  N 
ATOM     14 H    GLY B   5     -18.322 -23.506  38.790  1.00 80.55 LIG 0.16  HD
ATOM     15 O    ALA B   4     -17.180 -20.736  39.309  1.00 80.59 LIG-0.27  OA
BRANCH 13 16
ATOM     16  CA  GLY B   5     -19.663 -22.137  39.259  1.00 80.50 LIG 0.21  C 
BRANCH 16 17
ATOM     17  C   GLY B   5     -20.474 -22.874  40.312  1.00 80.51 LIG 0.21  C 
ATOM     18 O    GLY B   5     -20.967 -24.005  40.040  1.00 80.50 LIG-0.29  OA
ENDBRANCH 16 17
ENDBRANCH 13 16
ENDBRANCH 10 12
ENDBRANCH 7 10
ENDBRANCH 1 6
BRANCH 1 19
ATOM     19  N   LEU B   3     -16.322 -25.793  41.380  1.00 80.50 LIG-0.35  N 
ATOM     20  C   ALA B   2     -15.942 -26.507  42.462  1.00 80.42 LIG 0.24  C 
ATOM     21 O    ALA B   2     -15.801 -27.759  42.446  1.00 80.43 LIG-0.27  OA
ATOM     22 H    LEU B   3     -16.794 -25.075  41.425  1.00 80.50 LIG 0.16  HD
BRANCH 20 23
ATOM     23  CA  ALA B   2     -15.920 -25.732  43.782  1.00 80.35 LIG 0.17  C 
ATOM     24  CB  ALA B   2     -17.254 -25.840  44.485  1.00 80.34 LIG 0.04  C 
BRANCH 23 25
ATOM     25  N   ALA B   2     -15.617 -24.326  43.492  1.00 80.28 LIG-0.35  N 
ATOM     26 H    ALA B   2     -16.195 -23.778  43.816  1.00 80.28 LIG 0.16  HD
ATOM     27  C   GLY B   1     -14.553 -23.930  42.796  1.00 80.20 LIG 0.24  C 
ATOM     28 O    GLY B   1     -13.739 -24.702  42.290  1.00 80.22 LIG-0.27  OA
BRANCH 27 29
ATOM     29  CA  GLY B   1     -14.383 -22.432  42.650  1.00 80.17 LIG 0.33  C 
BRANCH 29 30
ATOM     30  N   GLY B   1     -15.194 -21.850  41.541  1.00 80.00 LIG-0.07  N 
ATOM     31 H3   GLY B   1     -14.849 -21.066  41.300  1.00 80.00 LIG 0.27  HD
ATOM     32 H2   GLY B   1     -16.033 -21.733  41.816  1.00 80.00 LIG 0.27  HD
ATOM     33 H1   GLY B   1     -15.186 -22.405  40.844  1.00 80.00 LIG 0.27  HD
ENDBRANCH 29 30
ENDBRANCH 27 29
ENDBRANCH 23 25
ENDBRANCH 20 23
ENDBRANCH 1 19
TORSDOF 12
ENDMDL
MODEL 39
USER: ADFR SOLUTION from run 141
USER: SCORE 11.242737 LL:  -2.436 LR:  -9.530 RR:   0.000 FEB:  -5.950
USER: RMSD 11.107643
USER: SEED 140
USER: STATUS no improvement in best 10 clusters for 5 generations
USER: GENES 14
USER: genes 0 Translation |==|  0.23830 0.40503 0.60877
USER: genes 1 Rotation |==|  0.96291 0.40956 0.48575 0.66532
USER: genes 2 Torsion [C]-CA--CB-[CG] |==|  0.04265
USER: genes 3 Torsion [CA]-CB--CG-[CD1] |==|  0.20255
USER: genes 4 Torsion [N]-CA--C-[N] |==|  0.40729
USER: genes 5 Torsion [C]-N--CA-[CB] |==|  0.84751
USER: genes 6 Torsion [N]-CA--C-[N] |==|  0.42357
USER: genes 7 Torsion [C]-N--CA-[C] |==|  0.23770
USER: genes 8 Torsion [N]-CA--C-[O] |==|  0.05336
USER: genes 9 Torsion [CB]-CA--N-[C] |==|  0.52889
USER: genes 10 Torsion [N]-C--CA-[N] |==|  0.35714
USER: genes 11 Torsion [C]-CA--N-[C] |==|  0.74482
USER: genes 12 Torsion [N]-C--CA-[N] |==|  0.41092
USER: genes 13 Torsion [C]-CA--N-[H2] |==|  0.13114
ROOT
ATOM      1  CA  LEU B   3     -23.421 -27.229  43.303  1.00 80.55 LIG 0.18  C 
ENDROOT
BRANCH 1 2
ATOM      2  CB  LEU B   3     -22.613 -28.520  43.507  1.00 80.55 LIG 0.04  C 
BRANCH 2 3
ATOM      3  CG  LEU B   3     -22.721 -29.330  44.823  1.00 80.55 LIG-0.02  C 
ATOM      4  CD1 LEU B   3     -24.097 -30.079  44.903  1.00 80.53 LIG 0.01  C 
ATOM      5  CD2 LEU B   3     -21.567 -30.349  45.001  1.00 80.44 LIG 0.01  C 
ENDBRANCH 2 3
ENDBRANCH 1 2
BRANCH 1 6
ATOM      6  C   LEU B   3     -23.970 -26.715  44.632  1.00 80.58 LIG 0.24  C 
ATOM      7  N   ALA B   4     -25.217 -27.111  44.915  1.00 80.60 LIG-0.35  N 
ATOM      8 H    ALA B   4     -25.681 -27.588  44.371  1.00 80.60 LIG 0.16  HD
ATOM      9 O    LEU B   3     -23.277 -26.010  45.376  1.00 80.60 LIG-0.27  OA
BRANCH 7 10
ATOM     10  CA  ALA B   4     -25.944 -26.794  46.155  1.00 80.57 LIG 0.17  C 
ATOM     11  CB  ALA B   4     -25.139 -27.229  47.373  1.00 80.56 LIG 0.04  C 
BRANCH 10 12
ATOM     12  C   ALA B   4     -26.342 -25.320  46.242  1.00 80.56 LIG 0.24  C 
ATOM     13  N   GLY B   5     -27.430 -25.072  46.973  1.00 80.55 LIG-0.35  N 
ATOM     14 H    GLY B   5     -27.839 -25.683  47.419  1.00 80.55 LIG 0.16  HD
ATOM     15 O    ALA B   4     -25.686 -24.443  45.665  1.00 80.59 LIG-0.27  OA
BRANCH 13 16
ATOM     16  CA  GLY B   5     -28.049 -23.747  47.101  1.00 80.50 LIG 0.21  C 
BRANCH 16 17
ATOM     17  C   GLY B   5     -29.045 -23.352  46.023  1.00 80.51 LIG 0.21  C 
ATOM     18 O    GLY B   5     -29.574 -24.247  45.305  1.00 80.50 LIG-0.29  OA
ENDBRANCH 16 17
ENDBRANCH 13 16
ENDBRANCH 10 12
ENDBRANCH 7 10
ENDBRANCH 1 6
BRANCH 1 19
ATOM     19  N   LEU B   3     -22.566 -26.145  42.849  1.00 80.50 LIG-0.35  N 
ATOM     20  C   ALA B   2     -22.992 -24.865  42.795  1.00 80.42 LIG 0.24  C 
ATOM     21 O    ALA B   2     -24.185 -24.546  42.542  1.00 80.43 LIG-0.27  OA
ATOM     22 H    LEU B   3     -21.774 -26.393  42.622  1.00 80.50 LIG 0.16  HD
BRANCH 20 23
ATOM     23  CA  ALA B   2     -21.887 -23.806  42.827  1.00 80.35 LIG 0.17  C 
ATOM     24  CB  ALA B   2     -21.915 -23.046  44.133  1.00 80.34 LIG 0.04  C 
BRANCH 23 25
ATOM     25  N   ALA B   2     -22.092 -22.885  41.704  1.00 80.28 LIG-0.35  N 
ATOM     26 H    ALA B   2     -22.611 -22.226  41.893  1.00 80.28 LIG 0.16  HD
ATOM     27  C   GLY B   1     -21.532 -23.046  40.507  1.00 80.20 LIG 0.24  C 
ATOM     28 O    GLY B   1     -20.821 -24.004  40.207  1.00 80.22 LIG-0.27  OA
BRANCH 27 29
ATOM     29  CA  GLY B   1     -21.820 -21.958  39.494  1.00 80.17 LIG 0.33  C 
BRANCH 29 30
ATOM     30  N   GLY B   1     -20.696 -21.726  38.540  1.00 80.00 LIG-0.07  N 
ATOM     31 H3   GLY B   1     -20.980 -21.221  37.864  1.00 80.00 LIG 0.27  HD
ATOM     32 H2   GLY B   1     -20.407 -22.507  38.225  1.00 80.00 LIG 0.27  HD
ATOM     33 H1   GLY B   1     -20.030 -21.311  38.961  1.00 80.00 LIG 0.27  HD
ENDBRANCH 29 30
ENDBRANCH 27 29
ENDBRANCH 23 25
ENDBRANCH 20 23
ENDBRANCH 1 19
TORSDOF 12
ENDMDL
MODEL 40
USER: ADFR SOLUTION from run 117
USER: SCORE 10.184201 LL:  -2.208 LR:  -9.502 RR:   0.000 FEB:  -5.923
USER: RMSD 6.842908
USER: SEED 116
USER: STATUS no improvement in best 11 clusters for 5 generations
USER: GENES 14
USER: genes 0 Translation |==|  0.32592 0.58063 0.48639
USER: genes 1 Rotation |==|  0.21387 0.12957 0.46440 0.67218
USER: genes 2 Torsion [C]-CA--CB-[CG] |==|  0.61356
USER: genes 3 Torsion [CA]-CB--CG-[CD1] |==|  0.42853
USER: genes 4 Torsion [N]-CA--C-[N] |==|  0.74624
USER: genes 5 Torsion [C]-N--CA-[CB] |==|  0.83864
USER: genes 6 Torsion [N]-CA--C-[N] |==|  0.94009
USER: genes 7 Torsion [C]-N--CA-[C] |==|  0.69125
USER: genes 8 Torsion [N]-CA--C-[O] |==|  0.22387
USER: genes 9 Torsion [CB]-CA--N-[C] |==|  0.55124
USER: genes 10 Torsion [N]-C--CA-[N] |==|  0.51638
USER: genes 11 Torsion [C]-CA--N-[C] |==|  0.55677
USER: genes 12 Torsion [N]-C--CA-[N] |==|  0.58650
USER: genes 13 Torsion [C]-CA--N-[H2] |==|  0.22615
ROOT
ATOM      1  CA  LEU B   3     -20.792 -21.961  39.632  1.00 80.55 LIG 0.18  C 
ENDROOT
BRANCH 1 2
ATOM      2  CB  LEU B   3     -20.416 -20.477  39.766  1.00 80.55 LIG 0.04  C 
BRANCH 2 3
ATOM      3  CG  LEU B   3     -21.420 -19.447  40.341  1.00 80.55 LIG-0.02  C 
ATOM      4  CD1 LEU B   3     -20.663 -18.228  40.972  1.00 80.53 LIG 0.01  C 
ATOM      5  CD2 LEU B   3     -22.432 -18.937  39.284  1.00 80.44 LIG 0.01  C 
ENDBRANCH 2 3
ENDBRANCH 1 2
BRANCH 1 6
ATOM      6  C   LEU B   3     -19.624 -22.858  40.033  1.00 80.58 LIG 0.24  C 
ATOM      7  N   ALA B   4     -18.782 -22.318  40.924  1.00 80.60 LIG-0.35  N 
ATOM      8 H    ALA B   4     -18.878 -21.515  41.216  1.00 80.60 LIG 0.16  HD
ATOM      9 O    LEU B   3     -19.510 -23.999  39.571  1.00 80.60 LIG-0.27  OA
BRANCH 7 10
ATOM     10  CA  ALA B   4     -17.615 -23.000  41.506  1.00 80.57 LIG 0.17  C 
ATOM     11  CB  ALA B   4     -18.042 -24.277  42.219  1.00 80.56 LIG 0.04  C 
BRANCH 10 12
ATOM     12  C   ALA B   4     -16.519 -23.272  40.474  1.00 80.56 LIG 0.24  C 
ATOM     13  N   GLY B   5     -16.929 -23.285  39.206  1.00 80.55 LIG-0.35  N 
ATOM     14 H    GLY B   5     -17.734 -23.088  38.976  1.00 80.55 LIG 0.16  HD
ATOM     15 O    ALA B   4     -15.345 -23.464  40.820  1.00 80.59 LIG-0.27  OA
BRANCH 13 16
ATOM     16  CA  GLY B   5     -16.069 -23.632  38.068  1.00 80.50 LIG 0.21  C 
BRANCH 16 17
ATOM     17  C   GLY B   5     -15.712 -22.505  37.113  1.00 80.51 LIG 0.21  C 
ATOM     18 O    GLY B   5     -14.784 -21.702  37.415  1.00 80.50 LIG-0.29  OA
ENDBRANCH 16 17
ENDBRANCH 13 16
ENDBRANCH 10 12
ENDBRANCH 7 10
ENDBRANCH 1 6
BRANCH 1 19
ATOM     19  N   LEU B   3     -21.835 -22.322  40.578  1.00 80.50 LIG-0.35  N 
ATOM     20  C   ALA B   2     -22.085 -23.604  40.920  1.00 80.42 LIG 0.24  C 
ATOM     21 O    ALA B   2     -21.935 -24.571  40.125  1.00 80.43 LIG-0.27  OA
ATOM     22 H    LEU B   3     -22.270 -21.651  40.896  1.00 80.50 LIG 0.16  HD
BRANCH 20 23
ATOM     23  CA  ALA B   2     -22.792 -23.796  42.264  1.00 80.35 LIG 0.17  C 
ATOM     24  CB  ALA B   2     -22.044 -23.083  43.367  1.00 80.34 LIG 0.04  C 
BRANCH 23 25
ATOM     25  N   ALA B   2     -22.863 -25.233  42.552  1.00 80.28 LIG-0.35  N 
ATOM     26 H    ALA B   2     -22.288 -25.699  42.113  1.00 80.28 LIG 0.16  HD
ATOM     27  C   GLY B   1     -23.729 -25.771  43.409  1.00 80.20 LIG 0.24  C 
ATOM     28 O    GLY B   1     -24.586 -25.126  44.012  1.00 80.22 LIG-0.27  OA
BRANCH 27 29
ATOM     29  CA  GLY B   1     -23.610 -27.267  43.613  1.00 80.17 LIG 0.33  C 
BRANCH 29 30
ATOM     30  N   GLY B   1     -24.912 -27.927  43.923  1.00 80.00 LIG-0.07  N 
ATOM     31 H3   GLY B   1     -24.761 -28.705  44.329  1.00 80.00 LIG 0.27  HD
ATOM     32 H2   GLY B   1     -25.361 -28.069  43.168  1.00 80.00 LIG 0.27  HD
ATOM     33 H1   GLY B   1     -25.391 -27.401  44.459  1.00 80.00 LIG 0.27  HD
ENDBRANCH 29 30
ENDBRANCH 27 29
ENDBRANCH 23 25
ENDBRANCH 20 23
ENDBRANCH 1 19
TORSDOF 12
ENDMDL
MODEL 41
USER: ADFR SOLUTION from run 143
USER: SCORE 11.028878 LL:  -2.006 LR:  -9.497 RR:   0.000 FEB:  -5.918
USER: RMSD 10.115311
USER: SEED 142
USER: STATUS no improvement in best 7 clusters for 5 generations
USER: GENES 14
USER: genes 0 Translation |==|  0.32832 0.57424 0.49050
USER: genes 1 Rotation |==|  0.02759 0.39515 0.38380 0.54829
USER: genes 2 Torsion [C]-CA--CB-[CG] |==|  0.17447
USER: genes 3 Torsion [CA]-CB--CG-[CD1] |==|  0.32954
USER: genes 4 Torsion [N]-CA--C-[N] |==|  0.09318
USER: genes 5 Torsion [C]-N--CA-[CB] |==|  0.85488
USER: genes 6 Torsion [N]-CA--C-[N] |==|  0.44442
USER: genes 7 Torsion [C]-N--CA-[C] |==|  0.46839
USER: genes 8 Torsion [N]-CA--C-[O] |==|  0.98755
USER: genes 9 Torsion [CB]-CA--N-[C] |==|  0.15005
USER: genes 10 Torsion [N]-C--CA-[N] |==|  0.45333
USER: genes 11 Torsion [C]-CA--N-[C] |==|  0.58253
USER: genes 12 Torsion [N]-C--CA-[N] |==|  0.33947
USER: genes 13 Torsion [C]-CA--N-[H2] |==|  0.76993
ROOT
ATOM      1  CA  LEU B   3     -20.720 -22.153  39.755  1.00 80.55 LIG 0.18  C 
ENDROOT
BRANCH 1 2
ATOM      2  CB  LEU B   3     -19.194 -22.300  39.856  1.00 80.55 LIG 0.04  C 
BRANCH 2 3
ATOM      3  CG  LEU B   3     -18.469 -23.532  39.259  1.00 80.55 LIG-0.02  C 
ATOM      4  CD1 LEU B   3     -17.459 -23.094  38.142  1.00 80.53 LIG 0.01  C 
ATOM      5  CD2 LEU B   3     -17.726 -24.371  40.329  1.00 80.44 LIG 0.01  C 
ENDBRANCH 2 3
ENDBRANCH 1 2
BRANCH 1 6
ATOM      6  C   LEU B   3     -21.427 -23.280  40.504  1.00 80.58 LIG 0.24  C 
ATOM      7  N   ALA B   4     -22.645 -22.970  40.966  1.00 80.60 LIG-0.35  N 
ATOM      8 H    ALA B   4     -22.982 -22.185  40.876  1.00 80.60 LIG 0.16  HD
ATOM      9 O    LEU B   3     -20.896 -24.390  40.631  1.00 80.60 LIG-0.27  OA
BRANCH 7 10
ATOM     10  CA  ALA B   4     -23.544 -23.899  41.669  1.00 80.57 LIG 0.17  C 
ATOM     11  CB  ALA B   4     -23.729 -25.178  40.864  1.00 80.56 LIG 0.04  C 
BRANCH 10 12
ATOM     12  C   ALA B   4     -23.082 -24.196  43.097  1.00 80.56 LIG 0.24  C 
ATOM     13  N   GLY B   5     -24.029 -24.669  43.909  1.00 80.55 LIG-0.35  N 
ATOM     14 H    GLY B   5     -24.822 -24.860  43.636  1.00 80.55 LIG 0.16  HD
ATOM     15 O    ALA B   4     -21.911 -23.999  43.446  1.00 80.59 LIG-0.27  OA
BRANCH 13 16
ATOM     16  CA  GLY B   5     -23.832 -24.918  45.342  1.00 80.50 LIG 0.21  C 
BRANCH 16 17
ATOM     17  C   GLY B   5     -25.078 -25.202  46.164  1.00 80.51 LIG 0.21  C 
ATOM     18 O    GLY B   5     -26.215 -25.130  45.617  1.00 80.50 LIG-0.29  OA
ENDBRANCH 16 17
ENDBRANCH 13 16
ENDBRANCH 10 12
ENDBRANCH 7 10
ENDBRANCH 1 6
BRANCH 1 19
ATOM     19  N   LEU B   3     -21.176 -20.955  40.442  1.00 80.50 LIG-0.35  N 
ATOM     20  C   ALA B   2     -20.670 -19.733  40.171  1.00 80.42 LIG 0.24  C 
ATOM     21 O    ALA B   2     -19.474 -19.544  39.820  1.00 80.43 LIG-0.27  OA
ATOM     22 H    LEU B   3     -21.789 -21.098  41.028  1.00 80.50 LIG 0.16  HD
BRANCH 20 23
ATOM     23  CA  ALA B   2     -21.573 -18.555  40.544  1.00 80.35 LIG 0.17  C 
ATOM     24  CB  ALA B   2     -22.695 -18.404  39.542  1.00 80.34 LIG 0.04  C 
BRANCH 23 25
ATOM     25  N   ALA B   2     -20.759 -17.335  40.575  1.00 80.28 LIG-0.35  N 
ATOM     26 H    ALA B   2     -20.093 -17.355  40.032  1.00 80.28 LIG 0.16  HD
ATOM     27  C   GLY B   1     -21.020 -16.294  41.364  1.00 80.20 LIG 0.24  C 
ATOM     28 O    GLY B   1     -21.944 -16.266  42.177  1.00 80.22 LIG-0.27  OA
BRANCH 27 29
ATOM     29  CA  GLY B   1     -20.096 -15.104  41.210  1.00 80.17 LIG 0.33  C 
BRANCH 29 30
ATOM     30  N   GLY B   1     -20.810 -13.843  40.854  1.00 80.00 LIG-0.07  N 
ATOM     31 H3   GLY B   1     -21.591 -13.814  41.280  1.00 80.00 LIG 0.27  HD
ATOM     32 H2   GLY B   1     -20.952 -13.820  39.975  1.00 80.00 LIG 0.27  HD
ATOM     33 H1   GLY B   1     -20.315 -13.143  41.094  1.00 80.00 LIG 0.27  HD
ENDBRANCH 29 30
ENDBRANCH 27 29
ENDBRANCH 23 25
ENDBRANCH 20 23
ENDBRANCH 1 19
TORSDOF 12
ENDMDL
MODEL 42
USER: ADFR SOLUTION from run 15
USER: SCORE 10.101805 LL:  -2.010 LR:  -9.454 RR:   0.000 FEB:  -5.875
USER: RMSD 7.284091
USER: SEED 656160
USER: STATUS searching
USER: GENES 14
USER: genes 0 Translation |==|  0.46113 0.50017 0.51176
USER: genes 1 Rotation |==|  0.15939 0.73571 0.22350 0.54444
USER: genes 2 Torsion [C]-CA--CB-[CG] |==|  0.33240
USER: genes 3 Torsion [CA]-CB--CG-[CD1] |==|  0.42539
USER: genes 4 Torsion [N]-CA--C-[N] |==|  0.96667
USER: genes 5 Torsion [C]-N--CA-[CB] |==|  0.85442
USER: genes 6 Torsion [N]-CA--C-[N] |==|  0.38922
USER: genes 7 Torsion [C]-N--CA-[C] |==|  0.22921
USER: genes 8 Torsion [N]-CA--C-[O] |==|  0.31690
USER: genes 9 Torsion [CB]-CA--N-[C] |==|  0.24374
USER: genes 10 Torsion [N]-C--CA-[N] |==|  0.62431
USER: genes 11 Torsion [C]-CA--N-[C] |==|  0.62467
USER: genes 12 Torsion [N]-C--CA-[N] |==|  0.65907
USER: genes 13 Torsion [C]-CA--N-[H2] |==|  0.29375
ROOT
ATOM      1  CA  LEU B   3     -16.736 -24.375  40.393  1.00 80.55 LIG 0.18  C 
ENDROOT
BRANCH 1 2
ATOM      2  CB  LEU B   3     -16.837 -25.903  40.522  1.00 80.55 LIG 0.04  C 
BRANCH 2 3
ATOM      3  CG  LEU B   3     -16.011 -26.838  39.604  1.00 80.55 LIG-0.02  C 
ATOM      4  CD1 LEU B   3     -15.740 -28.212  40.311  1.00 80.53 LIG 0.01  C 
ATOM      5  CD2 LEU B   3     -16.688 -27.088  38.232  1.00 80.44 LIG 0.01  C 
ENDBRANCH 2 3
ENDBRANCH 1 2
BRANCH 1 6
ATOM      6  C   LEU B   3     -18.093 -23.767  40.048  1.00 80.58 LIG 0.24  C 
ATOM      7  N   ALA B   4     -18.684 -23.106  41.052  1.00 80.60 LIG-0.35  N 
ATOM      8 H    ALA B   4     -18.337 -23.062  41.837  1.00 80.60 LIG 0.16  HD
ATOM      9 O    LEU B   3     -18.568 -23.874  38.911  1.00 80.60 LIG-0.27  OA
BRANCH 7 10
ATOM     10  CA  ALA B   4     -19.966 -22.389  40.954  1.00 80.57 LIG 0.17  C 
ATOM     11  CB  ALA B   4     -19.945 -21.413  39.784  1.00 80.56 LIG 0.04  C 
BRANCH 10 12
ATOM     12  C   ALA B   4     -21.164 -23.336  40.874  1.00 80.56 LIG 0.24  C 
ATOM     13  N   GLY B   5     -22.234 -22.952  41.571  1.00 80.55 LIG-0.35  N 
ATOM     14 H    GLY B   5     -22.275 -22.196  41.979  1.00 80.55 LIG 0.16  HD
ATOM     15 O    ALA B   4     -21.116 -24.378  40.206  1.00 80.59 LIG-0.27  OA
BRANCH 13 16
ATOM     16  CA  GLY B   5     -23.450 -23.760  41.722  1.00 80.50 LIG 0.21  C 
BRANCH 16 17
ATOM     17  C   GLY B   5     -23.428 -24.833  42.798  1.00 80.51 LIG 0.21  C 
ATOM     18 O    GLY B   5     -24.196 -24.729  43.797  1.00 80.50 LIG-0.29  OA
ENDBRANCH 16 17
ENDBRANCH 13 16
ENDBRANCH 10 12
ENDBRANCH 7 10
ENDBRANCH 1 6
BRANCH 1 19
ATOM     19  N   LEU B   3     -16.408 -23.764  41.670  1.00 80.50 LIG-0.35  N 
ATOM     20  C   ALA B   2     -15.133 -23.595  42.082  1.00 80.42 LIG 0.24  C 
ATOM     21 O    ALA B   2     -14.202 -24.391  41.786  1.00 80.43 LIG-0.27  OA
ATOM     22 H    LEU B   3     -17.094 -23.523  42.131  1.00 80.50 LIG 0.16  HD
BRANCH 20 23
ATOM     23  CA  ALA B   2     -14.926 -22.500  43.132  1.00 80.35 LIG 0.17  C 
ATOM     24  CB  ALA B   2     -16.144 -21.611  43.223  1.00 80.34 LIG 0.04  C 
BRANCH 23 25
ATOM     25  N   ALA B   2     -13.751 -21.707  42.753  1.00 80.28 LIG-0.35  N 
ATOM     26 H    ALA B   2     -13.734 -21.499  41.918  1.00 80.28 LIG 0.16  HD
ATOM     27  C   GLY B   1     -12.801 -21.341  43.610  1.00 80.20 LIG 0.24  C 
ATOM     28 O    GLY B   1     -12.788 -21.666  44.797  1.00 80.22 LIG-0.27  OA
BRANCH 27 29
ATOM     29  CA  GLY B   1     -11.697 -20.477  43.039  1.00 80.17 LIG 0.33  C 
BRANCH 29 30
ATOM     30  N   GLY B   1     -10.336 -21.063  43.216  1.00 80.00 LIG-0.07  N 
ATOM     31 H3   GLY B   1      -9.777 -20.434  43.509  1.00 80.00 LIG 0.27  HD
ATOM     32 H2   GLY B   1     -10.044 -21.378  42.436  1.00 80.00 LIG 0.27  HD
ATOM     33 H1   GLY B   1     -10.372 -21.726  43.809  1.00 80.00 LIG 0.27  HD
ENDBRANCH 29 30
ENDBRANCH 27 29
ENDBRANCH 23 25
ENDBRANCH 20 23
ENDBRANCH 1 19
TORSDOF 12
ENDMDL
MODEL 43
USER: ADFR SOLUTION from run 40
USER: SCORE 10.255805 LL:  -2.274 LR:  -9.432 RR:   0.000 FEB:  -5.853
USER: RMSD 7.154577
USER: SEED 39
USER: STATUS no improvement in best 15 clusters for 5 generations
USER: GENES 14
USER: genes 0 Translation |==|  0.40481 0.53154 0.47815
USER: genes 1 Rotation |==|  0.09231 0.22796 0.59372 0.53168
USER: genes 2 Torsion [C]-CA--CB-[CG] |==|  0.07635
USER: genes 3 Torsion [CA]-CB--CG-[CD1] |==|  0.19285
USER: genes 4 Torsion [N]-CA--C-[N] |==|  0.41093
USER: genes 5 Torsion [C]-N--CA-[CB] |==|  0.15780
USER: genes 6 Torsion [N]-CA--C-[N] |==|  0.12834
USER: genes 7 Torsion [C]-N--CA-[C] |==|  0.18335
USER: genes 8 Torsion [N]-CA--C-[O] |==|  0.28586
USER: genes 9 Torsion [CB]-CA--N-[C] |==|  0.16829
USER: genes 10 Torsion [N]-C--CA-[N] |==|  0.92207
USER: genes 11 Torsion [C]-CA--N-[C] |==|  0.86660
USER: genes 12 Torsion [N]-C--CA-[N] |==|  0.71065
USER: genes 13 Torsion [C]-CA--N-[H2] |==|  0.30637
ROOT
ATOM      1  CA  LEU B   3     -18.426 -23.434  39.385  1.00 80.55 LIG 0.18  C 
ENDROOT
BRANCH 1 2
ATOM      2  CB  LEU B   3     -17.504 -22.685  38.409  1.00 80.55 LIG 0.04  C 
BRANCH 2 3
ATOM      3  CG  LEU B   3     -16.041 -23.142  38.182  1.00 80.55 LIG-0.02  C 
ATOM      4  CD1 LEU B   3     -16.000 -24.510  37.417  1.00 80.53 LIG 0.01  C 
ATOM      5  CD2 LEU B   3     -15.195 -22.095  37.415  1.00 80.44 LIG 0.01  C 
ENDBRANCH 2 3
ENDBRANCH 1 2
BRANCH 1 6
ATOM      6  C   LEU B   3     -17.616 -24.112  40.487  1.00 80.58 LIG 0.24  C 
ATOM      7  N   ALA B   4     -17.281 -25.384  40.236  1.00 80.60 LIG-0.35  N 
ATOM      8 H    ALA B   4     -17.536 -25.792  39.523  1.00 80.60 LIG 0.16  HD
ATOM      9 O    LEU B   3     -17.289 -23.495  41.508  1.00 80.60 LIG-0.27  OA
BRANCH 7 10
ATOM     10  CA  ALA B   4     -16.458 -26.231  41.114  1.00 80.57 LIG 0.17  C 
ATOM     11  CB  ALA B   4     -17.076 -26.319  42.504  1.00 80.56 LIG 0.04  C 
BRANCH 10 12
ATOM     12  C   ALA B   4     -16.206 -27.619  40.522  1.00 80.56 LIG 0.24  C 
ATOM     13  N   GLY B   5     -15.840 -27.627  39.240  1.00 80.55 LIG-0.35  N 
ATOM     14 H    GLY B   5     -15.690 -26.906  38.796  1.00 80.55 LIG 0.16  HD
ATOM     15 O    ALA B   4     -16.341 -28.643  41.206  1.00 80.59 LIG-0.27  OA
BRANCH 13 16
ATOM     16  CA  GLY B   5     -15.653 -28.848  38.447  1.00 80.50 LIG 0.21  C 
BRANCH 16 17
ATOM     17  C   GLY B   5     -16.894 -29.683  38.176  1.00 80.51 LIG 0.21  C 
ATOM     18 O    GLY B   5     -17.445 -29.630  37.040  1.00 80.50 LIG-0.29  OA
ENDBRANCH 16 17
ENDBRANCH 13 16
ENDBRANCH 10 12
ENDBRANCH 7 10
ENDBRANCH 1 6
BRANCH 1 19
ATOM     19  N   LEU B   3     -19.277 -22.507  40.113  1.00 80.50 LIG-0.35  N 
ATOM     20  C   ALA B   2     -20.156 -21.694  39.490  1.00 80.42 LIG 0.24  C 
ATOM     21 O    ALA B   2     -19.955 -21.211  38.343  1.00 80.43 LIG-0.27  OA
ATOM     22 H    LEU B   3     -19.168 -22.527  40.967  1.00 80.50 LIG 0.16  HD
BRANCH 20 23
ATOM     23  CA  ALA B   2     -21.315 -21.197  40.358  1.00 80.35 LIG 0.17  C 
ATOM     24  CB  ALA B   2     -20.976 -19.867  40.989  1.00 80.34 LIG 0.04  C 
BRANCH 23 25
ATOM     25  N   ALA B   2     -21.578 -22.196  41.400  1.00 80.28 LIG-0.35  N 
ATOM     26 H    ALA B   2     -21.648 -21.858  42.187  1.00 80.28 LIG 0.16  HD
ATOM     27  C   GLY B   1     -21.698 -23.500  41.158  1.00 80.20 LIG 0.24  C 
ATOM     28 O    GLY B   1     -21.559 -24.005  40.044  1.00 80.22 LIG-0.27  OA
BRANCH 27 29
ATOM     29  CA  GLY B   1     -22.025 -24.364  42.357  1.00 80.17 LIG 0.33  C 
BRANCH 29 30
ATOM     30  N   GLY B   1     -20.854 -25.137  42.865  1.00 80.00 LIG-0.07  N 
ATOM     31 H3   GLY B   1     -21.080 -25.993  42.957  1.00 80.00 LIG 0.27  HD
ATOM     32 H2   GLY B   1     -20.603 -24.811  43.655  1.00 80.00 LIG 0.27  HD
ATOM     33 H1   GLY B   1     -20.180 -25.069  42.288  1.00 80.00 LIG 0.27  HD
ENDBRANCH 29 30
ENDBRANCH 27 29
ENDBRANCH 23 25
ENDBRANCH 20 23
ENDBRANCH 1 19
TORSDOF 12
ENDMDL
MODEL 44
USER: ADFR SOLUTION from run 9
USER: SCORE 10.745749 LL:  -2.367 LR:  -9.407 RR:   0.000 FEB:  -5.828
USER: RMSD 8.378369
USER: SEED 879156
USER: STATUS no improvement in best 34 clusters for 5 generations
USER: GENES 14
USER: genes 0 Translation |==|  0.33196 0.56914 0.52180
USER: genes 1 Rotation |==|  0.60888 0.65375 0.04326 0.57675
USER: genes 2 Torsion [C]-CA--CB-[CG] |==|  0.42188
USER: genes 3 Torsion [CA]-CB--CG-[CD1] |==|  0.15913
USER: genes 4 Torsion [N]-CA--C-[N] |==|  0.31838
USER: genes 5 Torsion [C]-N--CA-[CB] |==|  0.84679
USER: genes 6 Torsion [N]-CA--C-[N] |==|  0.38434
USER: genes 7 Torsion [C]-N--CA-[C] |==|  0.81259
USER: genes 8 Torsion [N]-CA--C-[O] |==|  0.18833
USER: genes 9 Torsion [CB]-CA--N-[C] |==|  0.56111
USER: genes 10 Torsion [N]-C--CA-[N] |==|  0.54343
USER: genes 11 Torsion [C]-CA--N-[C] |==|  0.66237
USER: genes 12 Torsion [N]-C--CA-[N] |==|  0.35095
USER: genes 13 Torsion [C]-CA--N-[H2] |==|  0.11092
ROOT
ATOM      1  CA  LEU B   3     -20.611 -22.306  40.694  1.00 80.55 LIG 0.18  C 
ENDROOT
BRANCH 1 2
ATOM      2  CB  LEU B   3     -21.477 -23.394  40.041  1.00 80.55 LIG 0.04  C 
BRANCH 2 3
ATOM      3  CG  LEU B   3     -22.271 -24.407  40.903  1.00 80.55 LIG-0.02  C 
ATOM      4  CD1 LEU B   3     -23.247 -23.660  41.877  1.00 80.53 LIG 0.01  C 
ATOM      5  CD2 LEU B   3     -23.070 -25.427  40.052  1.00 80.44 LIG 0.01  C 
ENDBRANCH 2 3
ENDBRANCH 1 2
BRANCH 1 6
ATOM      6  C   LEU B   3     -19.451 -21.913  39.783  1.00 80.58 LIG 0.24  C 
ATOM      7  N   ALA B   4     -18.241 -21.985  40.353  1.00 80.60 LIG-0.35  N 
ATOM      8 H    ALA B   4     -18.135 -22.202  41.178  1.00 80.60 LIG 0.16  HD
ATOM      9 O    LEU B   3     -19.647 -21.584  38.607  1.00 80.60 LIG-0.27  OA
BRANCH 7 10
ATOM     10  CA  ALA B   4     -16.966 -21.713  39.669  1.00 80.57 LIG 0.17  C 
ATOM     11  CB  ALA B   4     -16.829 -22.581  38.425  1.00 80.56 LIG 0.04  C 
BRANCH 10 12
ATOM     12  C   ALA B   4     -16.781 -20.230  39.343  1.00 80.56 LIG 0.24  C 
ATOM     13  N   GLY B   5     -15.554 -19.754  39.559  1.00 80.55 LIG-0.35  N 
ATOM     14 H    GLY B   5     -14.897 -20.255  39.798  1.00 80.55 LIG 0.16  HD
ATOM     15 O    ALA B   4     -17.719 -19.545  38.913  1.00 80.59 LIG-0.27  OA
BRANCH 13 16
ATOM     16  CA  GLY B   5     -15.184 -18.341  39.417  1.00 80.50 LIG 0.21  C 
BRANCH 16 17
ATOM     17  C   GLY B   5     -15.213 -17.765  38.011  1.00 80.51 LIG 0.21  C 
ATOM     18 O    GLY B   5     -16.320 -17.630  37.416  1.00 80.50 LIG-0.29  OA
ENDBRANCH 16 17
ENDBRANCH 13 16
ENDBRANCH 10 12
ENDBRANCH 7 10
ENDBRANCH 1 6
BRANCH 1 19
ATOM     19  N   LEU B   3     -21.356 -21.067  40.843  1.00 80.50 LIG-0.35  N 
ATOM     20  C   ALA B   2     -20.745 -19.869  40.972  1.00 80.42 LIG 0.24  C 
ATOM     21 O    ALA B   2     -19.632 -19.721  41.545  1.00 80.43 LIG-0.27  OA
ATOM     22 H    LEU B   3     -22.211 -21.167  40.842  1.00 80.50 LIG 0.16  HD
BRANCH 20 23
ATOM     23  CA  ALA B   2     -21.596 -18.657  40.585  1.00 80.35 LIG 0.17  C 
ATOM     24  CB  ALA B   2     -22.352 -18.923  39.304  1.00 80.34 LIG 0.04  C 
BRANCH 23 25
ATOM     25  N   ALA B   2     -20.709 -17.501  40.415  1.00 80.28 LIG-0.35  N 
ATOM     26 H    ALA B   2     -20.101 -17.621  39.818  1.00 80.28 LIG 0.16  HD
ATOM     27  C   GLY B   1     -20.828 -16.372  41.111  1.00 80.20 LIG 0.24  C 
ATOM     28 O    GLY B   1     -21.664 -16.198  41.997  1.00 80.22 LIG-0.27  OA
BRANCH 27 29
ATOM     29  CA  GLY B   1     -19.851 -15.271  40.752  1.00 80.17 LIG 0.33  C 
BRANCH 29 30
ATOM     30  N   GLY B   1     -20.515 -13.975  40.427  1.00 80.00 LIG-0.07  N 
ATOM     31 H3   GLY B   1     -19.928 -13.311  40.510  1.00 80.00 LIG 0.27  HD
ATOM     32 H2   GLY B   1     -21.195 -13.841  40.986  1.00 80.00 LIG 0.27  HD
ATOM     33 H1   GLY B   1     -20.820 -13.998  39.590  1.00 80.00 LIG 0.27  HD
ENDBRANCH 29 30
ENDBRANCH 27 29
ENDBRANCH 23 25
ENDBRANCH 20 23
ENDBRANCH 1 19
TORSDOF 12
ENDMDL
MODEL 45
USER: ADFR SOLUTION from run 9
USER: SCORE 9.347037 LL:  -2.389 LR:  -9.394 RR:   0.000 FEB:  -5.815
USER: RMSD 7.684739
USER: SEED 879156
USER: STATUS no improvement in best 34 clusters for 5 generations
USER: GENES 14
USER: genes 0 Translation |==|  0.46223 0.40087 0.52060
USER: genes 1 Rotation |==|  0.95266 0.61443 0.36596 0.61846
USER: genes 2 Torsion [C]-CA--CB-[CG] |==|  0.45446
USER: genes 3 Torsion [CA]-CB--CG-[CD1] |==|  0.82159
USER: genes 4 Torsion [N]-CA--C-[N] |==|  0.19042
USER: genes 5 Torsion [C]-N--CA-[CB] |==|  0.20067
USER: genes 6 Torsion [N]-CA--C-[N] |==|  0.98402
USER: genes 7 Torsion [C]-N--CA-[C] |==|  0.65902
USER: genes 8 Torsion [N]-CA--C-[O] |==|  0.82532
USER: genes 9 Torsion [CB]-CA--N-[C] |==|  0.88590
USER: genes 10 Torsion [N]-C--CA-[N] |==|  0.34122
USER: genes 11 Torsion [C]-CA--N-[C] |==|  0.83946
USER: genes 12 Torsion [N]-C--CA-[N] |==|  0.87731
USER: genes 13 Torsion [C]-CA--N-[H2] |==|  0.92231
ROOT
ATOM      1  CA  LEU B   3     -16.703 -27.354  40.658  1.00 80.55 LIG 0.18  C 
ENDROOT
BRANCH 1 2
ATOM      2  CB  LEU B   3     -15.533 -27.890  39.818  1.00 80.55 LIG 0.04  C 
BRANCH 2 3
ATOM      3  CG  LEU B   3     -15.749 -28.366  38.360  1.00 80.55 LIG-0.02  C 
ATOM      4  CD1 LEU B   3     -16.693 -29.618  38.320  1.00 80.53 LIG 0.01  C 
ATOM      5  CD2 LEU B   3     -16.320 -27.257  37.442  1.00 80.44 LIG 0.01  C 
ENDBRANCH 2 3
ENDBRANCH 1 2
BRANCH 1 6
ATOM      6  C   LEU B   3     -16.344 -27.332  42.141  1.00 80.58 LIG 0.24  C 
ATOM      7  N   ALA B   4     -17.360 -27.031  42.961  1.00 80.60 LIG-0.35  N 
ATOM      8 H    ALA B   4     -18.142 -26.832  42.666  1.00 80.60 LIG 0.16  HD
ATOM      9 O    LEU B   3     -15.199 -27.603  42.523  1.00 80.60 LIG-0.27  OA
BRANCH 7 10
ATOM     10  CA  ALA B   4     -17.281 -27.001  44.430  1.00 80.57 LIG 0.17  C 
ATOM     11  CB  ALA B   4     -16.481 -25.792  44.898  1.00 80.56 LIG 0.04  C 
BRANCH 10 12
ATOM     12  C   ALA B   4     -18.659 -27.054  45.093  1.00 80.56 LIG 0.24  C 
ATOM     13  N   GLY B   5     -19.691 -26.998  44.251  1.00 80.55 LIG-0.35  N 
ATOM     14 H    GLY B   5     -19.595 -27.000  43.397  1.00 80.55 LIG 0.16  HD
ATOM     15 O    ALA B   4     -18.776 -27.142  46.322  1.00 80.59 LIG-0.27  OA
BRANCH 13 16
ATOM     16  CA  GLY B   5     -21.094 -26.925  44.677  1.00 80.50 LIG 0.21  C 
BRANCH 16 17
ATOM     17  C   GLY B   5     -22.020 -28.018  44.170  1.00 80.51 LIG 0.21  C 
ATOM     18 O    GLY B   5     -22.228 -28.132  42.928  1.00 80.50 LIG-0.29  OA
ENDBRANCH 16 17
ENDBRANCH 13 16
ENDBRANCH 10 12
ENDBRANCH 7 10
ENDBRANCH 1 6
BRANCH 1 19
ATOM     19  N   LEU B   3     -16.966 -25.957  40.355  1.00 80.50 LIG-0.35  N 
ATOM     20  C   ALA B   2     -15.973 -25.061  40.169  1.00 80.42 LIG 0.24  C 
ATOM     21 O    ALA B   2     -14.867 -25.123  40.771  1.00 80.43 LIG-0.27  OA
ATOM     22 H    LEU B   3     -17.802 -25.759  40.305  1.00 80.50 LIG 0.16  HD
BRANCH 20 23
ATOM     23  CA  ALA B   2     -16.356 -23.821  39.356  1.00 80.35 LIG 0.17  C 
ATOM     24  CB  ALA B   2     -15.566 -23.765  38.068  1.00 80.34 LIG 0.04  C 
BRANCH 23 25
ATOM     25  N   ALA B   2     -16.082 -22.630  40.166  1.00 80.28 LIG-0.35  N 
ATOM     26 H    ALA B   2     -15.537 -22.080  39.792  1.00 80.28 LIG 0.16  HD
ATOM     27  C   GLY B   1     -16.621 -22.413  41.364  1.00 80.20 LIG 0.24  C 
ATOM     28 O    GLY B   1     -17.369 -23.208  41.932  1.00 80.22 LIG-0.27  OA
BRANCH 27 29
ATOM     29  CA  GLY B   1     -16.259 -21.097  42.021  1.00 80.17 LIG 0.33  C 
BRANCH 29 30
ATOM     30  N   GLY B   1     -14.808 -20.763  41.915  1.00 80.00 LIG-0.07  N 
ATOM     31 H3   GLY B   1     -14.669 -20.272  41.186  1.00 80.00 LIG 0.27  HD
ATOM     32 H2   GLY B   1     -14.334 -21.515  41.860  1.00 80.00 LIG 0.27  HD
ATOM     33 H1   GLY B   1     -14.556 -20.305  42.635  1.00 80.00 LIG 0.27  HD
ENDBRANCH 29 30
ENDBRANCH 27 29
ENDBRANCH 23 25
ENDBRANCH 20 23
ENDBRANCH 1 19
TORSDOF 12
ENDMDL
MODEL 46
USER: ADFR SOLUTION from run 148
USER: SCORE 10.038355 LL:  -2.334 LR:  -9.373 RR:   0.000 FEB:  -5.793
USER: RMSD 8.885462
USER: SEED 147
USER: STATUS no improvement in best 23 clusters for 5 generations
USER: GENES 14
USER: genes 0 Translation |==|  0.23281 0.50569 0.55784
USER: genes 1 Rotation |==|  0.06226 0.61406 0.71301 0.50061
USER: genes 2 Torsion [C]-CA--CB-[CG] |==|  0.98461
USER: genes 3 Torsion [CA]-CB--CG-[CD1] |==|  0.18146
USER: genes 4 Torsion [N]-CA--C-[N] |==|  0.85916
USER: genes 5 Torsion [C]-N--CA-[CB] |==|  0.14368
USER: genes 6 Torsion [N]-CA--C-[N] |==|  0.10168
USER: genes 7 Torsion [C]-N--CA-[C] |==|  0.86264
USER: genes 8 Torsion [N]-CA--C-[O] |==|  0.52400
USER: genes 9 Torsion [CB]-CA--N-[C] |==|  0.92200
USER: genes 10 Torsion [N]-C--CA-[N] |==|  0.96681
USER: genes 11 Torsion [C]-CA--N-[C] |==|  0.60368
USER: genes 12 Torsion [N]-C--CA-[N] |==|  0.59026
USER: genes 13 Torsion [C]-CA--N-[H2] |==|  0.98117
ROOT
ATOM      1  CA  LEU B   3     -23.586 -24.209  41.775  1.00 80.55 LIG 0.18  C 
ENDROOT
BRANCH 1 2
ATOM      2  CB  LEU B   3     -23.609 -25.316  40.710  1.00 80.55 LIG 0.04  C 
BRANCH 2 3
ATOM      3  CG  LEU B   3     -23.174 -26.763  41.051  1.00 80.55 LIG-0.02  C 
ATOM      4  CD1 LEU B   3     -24.159 -27.408  42.087  1.00 80.53 LIG 0.01  C 
ATOM      5  CD2 LEU B   3     -23.070 -27.673  39.801  1.00 80.44 LIG 0.01  C 
ENDBRANCH 2 3
ENDBRANCH 1 2
BRANCH 1 6
ATOM      6  C   LEU B   3     -23.229 -24.780  43.145  1.00 80.58 LIG 0.24  C 
ATOM      7  N   ALA B   4     -21.969 -25.220  43.259  1.00 80.60 LIG-0.35  N 
ATOM      8 H    ALA B   4     -21.419 -25.212  42.598  1.00 80.60 LIG 0.16  HD
ATOM      9 O    LEU B   3     -24.057 -24.796  44.064  1.00 80.60 LIG-0.27  OA
BRANCH 7 10
ATOM     10  CA  ALA B   4     -21.370 -25.762  44.490  1.00 80.57 LIG 0.17  C 
ATOM     11  CB  ALA B   4     -22.248 -26.861  45.074  1.00 80.56 LIG 0.04  C 
BRANCH 10 12
ATOM     12  C   ALA B   4     -19.933 -26.242  44.281  1.00 80.56 LIG 0.24  C 
ATOM     13  N   GLY B   5     -19.208 -25.502  43.441  1.00 80.55 LIG-0.35  N 
ATOM     14 H    GLY B   5     -19.501 -24.772  43.094  1.00 80.55 LIG 0.16  HD
ATOM     15 O    ALA B   4     -19.501 -27.247  44.862  1.00 80.59 LIG-0.27  OA
BRANCH 13 16
ATOM     16  CA  GLY B   5     -17.845 -25.843  43.014  1.00 80.50 LIG 0.21  C 
BRANCH 16 17
ATOM     17  C   GLY B   5     -16.854 -26.198  44.110  1.00 80.51 LIG 0.21  C 
ATOM     18 O    GLY B   5     -15.632 -26.339  43.823  1.00 80.50 LIG-0.29  OA
ENDBRANCH 16 17
ENDBRANCH 13 16
ENDBRANCH 10 12
ENDBRANCH 7 10
ENDBRANCH 1 6
BRANCH 1 19
ATOM     19  N   LEU B   3     -22.516 -23.259  41.517  1.00 80.50 LIG-0.35  N 
ATOM     20  C   ALA B   2     -21.383 -23.608  40.871  1.00 80.42 LIG 0.24  C 
ATOM     21 O    ALA B   2     -20.867 -24.755  40.955  1.00 80.43 LIG-0.27  OA
ATOM     22 H    LEU B   3     -22.672 -22.466  41.811  1.00 80.50 LIG 0.16  HD
BRANCH 20 23
ATOM     23  CA  ALA B   2     -20.625 -22.453  40.213  1.00 80.35 LIG 0.17  C 
ATOM     24  CB  ALA B   2     -19.344 -22.161  40.961  1.00 80.34 LIG 0.04  C 
BRANCH 23 25
ATOM     25  N   ALA B   2     -21.489 -21.267  40.214  1.00 80.28 LIG-0.35  N 
ATOM     26 H    ALA B   2     -21.966 -21.193  40.925  1.00 80.28 LIG 0.16  HD
ATOM     27  C   GLY B   1     -21.535 -20.388  39.215  1.00 80.20 LIG 0.24  C 
ATOM     28 O    GLY B   1     -20.891 -20.502  38.172  1.00 80.22 LIG-0.27  OA
BRANCH 27 29
ATOM     29  CA  GLY B   1     -22.449 -19.199  39.426  1.00 80.17 LIG 0.33  C 
BRANCH 29 30
ATOM     30  N   GLY B   1     -23.070 -18.699  38.165  1.00 80.00 LIG-0.07  N 
ATOM     31 H3   GLY B   1     -23.948 -18.843  38.190  1.00 80.00 LIG 0.27  HD
ATOM     32 H2   GLY B   1     -22.719 -19.131  37.469  1.00 80.00 LIG 0.27  HD
ATOM     33 H1   GLY B   1     -22.914 -17.827  38.082  1.00 80.00 LIG 0.27  HD
ENDBRANCH 29 30
ENDBRANCH 27 29
ENDBRANCH 23 25
ENDBRANCH 20 23
ENDBRANCH 1 19
TORSDOF 12
ENDMDL
MODEL 47
USER: ADFR SOLUTION from run 115
USER: SCORE 10.033264 LL:  -2.740 LR:  -9.362 RR:   0.000 FEB:  -5.783
USER: RMSD 5.758427
USER: SEED 114
USER: STATUS no improvement in best 15 clusters for 5 generations
USER: GENES 14
USER: genes 0 Translation |==|  0.50454 0.44289 0.51811
USER: genes 1 Rotation |==|  0.34179 0.83305 0.16541 0.54584
USER: genes 2 Torsion [C]-CA--CB-[CG] |==|  0.21365
USER: genes 3 Torsion [CA]-CB--CG-[CD1] |==|  0.45773
USER: genes 4 Torsion [N]-CA--C-[N] |==|  0.78612
USER: genes 5 Torsion [C]-N--CA-[CB] |==|  0.20211
USER: genes 6 Torsion [N]-CA--C-[N] |==|  0.58076
USER: genes 7 Torsion [C]-N--CA-[C] |==|  0.89587
USER: genes 8 Torsion [N]-CA--C-[O] |==|  0.93139
USER: genes 9 Torsion [CB]-CA--N-[C] |==|  0.50083
USER: genes 10 Torsion [N]-C--CA-[N] |==|  0.01392
USER: genes 11 Torsion [C]-CA--N-[C] |==|  0.75094
USER: genes 12 Torsion [N]-C--CA-[N] |==|  0.55266
USER: genes 13 Torsion [C]-CA--N-[H2] |==|  0.03105
ROOT
ATOM      1  CA  LEU B   3     -15.434 -26.093  40.583  1.00 80.55 LIG 0.18  C 
ENDROOT
BRANCH 1 2
ATOM      2  CB  LEU B   3     -16.369 -27.235  40.154  1.00 80.55 LIG 0.04  C 
BRANCH 2 3
ATOM      3  CG  LEU B   3     -16.223 -27.908  38.766  1.00 80.55 LIG-0.02  C 
ATOM      4  CD1 LEU B   3     -17.012 -29.263  38.722  1.00 80.53 LIG 0.01  C 
ATOM      5  CD2 LEU B   3     -16.692 -26.998  37.603  1.00 80.44 LIG 0.01  C 
ENDBRANCH 2 3
ENDBRANCH 1 2
BRANCH 1 6
ATOM      6  C   LEU B   3     -15.832 -24.782  39.911  1.00 80.58 LIG 0.24  C 
ATOM      7  N   ALA B   4     -17.150 -24.551  39.866  1.00 80.60 LIG-0.35  N 
ATOM      8 H    ALA B   4     -17.724 -25.118  40.163  1.00 80.60 LIG 0.16  HD
ATOM      9 O    LEU B   3     -14.974 -24.005  39.475  1.00 80.60 LIG-0.27  OA
BRANCH 7 10
ATOM     10  CA  ALA B   4     -17.778 -23.337  39.321  1.00 80.57 LIG 0.17  C 
ATOM     11  CB  ALA B   4     -17.686 -23.323  37.801  1.00 80.56 LIG 0.04  C 
BRANCH 10 12
ATOM     12  C   ALA B   4     -19.221 -23.157  39.798  1.00 80.56 LIG 0.24  C 
ATOM     13  N   GLY B   5     -20.018 -22.506  38.950  1.00 80.55 LIG-0.35  N 
ATOM     14 H    GLY B   5     -19.762 -22.264  38.166  1.00 80.55 LIG 0.16  HD
ATOM     15 O    ALA B   4     -19.593 -23.594  40.896  1.00 80.59 LIG-0.27  OA
BRANCH 13 16
ATOM     16  CA  GLY B   5     -21.404 -22.130  39.252  1.00 80.50 LIG 0.21  C 
BRANCH 16 17
ATOM     17  C   GLY B   5     -22.222 -23.124  40.060  1.00 80.51 LIG 0.21  C 
ATOM     18 O    GLY B   5     -21.910 -24.349  40.040  1.00 80.50 LIG-0.29  OA
ENDBRANCH 16 17
ENDBRANCH 13 16
ENDBRANCH 10 12
ENDBRANCH 7 10
ENDBRANCH 1 6
BRANCH 1 19
ATOM     19  N   LEU B   3     -15.581 -25.803  42.000  1.00 80.50 LIG-0.35  N 
ATOM     20  C   ALA B   2     -14.869 -24.834  42.614  1.00 80.42 LIG 0.24  C 
ATOM     21 O    ALA B   2     -13.696 -24.522  42.277  1.00 80.43 LIG-0.27  OA
ATOM     22 H    LEU B   3     -16.156 -26.300  42.403  1.00 80.50 LIG 0.16  HD
BRANCH 20 23
ATOM     23  CA  ALA B   2     -15.485 -24.291  43.907  1.00 80.35 LIG 0.17  C 
ATOM     24  CB  ALA B   2     -14.496 -24.380  45.047  1.00 80.34 LIG 0.04  C 
BRANCH 23 25
ATOM     25  N   ALA B   2     -16.683 -25.078  44.219  1.00 80.28 LIG-0.35  N 
ATOM     26 H    ALA B   2     -16.523 -25.762  44.716  1.00 80.28 LIG 0.16  HD
ATOM     27  C   GLY B   1     -17.902 -24.771  43.779  1.00 80.20 LIG 0.24  C 
ATOM     28 O    GLY B   1     -18.141 -23.822  43.033  1.00 80.22 LIG-0.27  OA
BRANCH 27 29
ATOM     29  CA  GLY B   1     -19.020 -25.674  44.255  1.00 80.17 LIG 0.33  C 
BRANCH 29 30
ATOM     30  N   GLY B   1     -20.250 -25.585  43.415  1.00 80.00 LIG-0.07  N 
ATOM     31 H3   GLY B   1     -20.525 -26.404  43.202  1.00 80.00 LIG 0.27  HD
ATOM     32 H2   GLY B   1     -20.070 -25.130  42.671  1.00 80.00 LIG 0.27  HD
ATOM     33 H1   GLY B   1     -20.891 -25.166  43.870  1.00 80.00 LIG 0.27  HD
ENDBRANCH 29 30
ENDBRANCH 27 29
ENDBRANCH 23 25
ENDBRANCH 20 23
ENDBRANCH 1 19
TORSDOF 12
ENDMDL
MODEL 48
USER: ADFR SOLUTION from run 3
USER: SCORE 10.402993 LL:  -2.336 LR:  -9.356 RR:   0.000 FEB:  -5.777
USER: RMSD 6.572034
USER: SEED 906478
USER: STATUS no improvement in best 43 clusters for 5 generations
USER: GENES 14
USER: genes 0 Translation |==|  0.43239 0.58628 0.48741
USER: genes 1 Rotation |==|  0.62391 0.79179 0.19295 0.73500
USER: genes 2 Torsion [C]-CA--CB-[CG] |==|  0.31178
USER: genes 3 Torsion [CA]-CB--CG-[CD1] |==|  0.98419
USER: genes 4 Torsion [N]-CA--C-[N] |==|  0.54878
USER: genes 5 Torsion [C]-N--CA-[CB] |==|  0.87195
USER: genes 6 Torsion [N]-CA--C-[N] |==|  0.34769
USER: genes 7 Torsion [C]-N--CA-[C] |==|  0.37303
USER: genes 8 Torsion [N]-CA--C-[O] |==|  0.98520
USER: genes 9 Torsion [CB]-CA--N-[C] |==|  0.19212
USER: genes 10 Torsion [N]-C--CA-[N] |==|  0.07627
USER: genes 11 Torsion [C]-CA--N-[C] |==|  0.15520
USER: genes 12 Torsion [N]-C--CA-[N] |==|  0.61878
USER: genes 13 Torsion [C]-CA--N-[H2] |==|  0.91062
ROOT
ATOM      1  CA  LEU B   3     -17.598 -21.792  39.662  1.00 80.55 LIG 0.18  C 
ENDROOT
BRANCH 1 2
ATOM      2  CB  LEU B   3     -17.324 -22.501  38.327  1.00 80.55 LIG 0.04  C 
BRANCH 2 3
ATOM      3  CG  LEU B   3     -16.302 -23.662  38.234  1.00 80.55 LIG-0.02  C 
ATOM      4  CD1 LEU B   3     -15.555 -23.853  39.600  1.00 80.53 LIG 0.01  C 
ATOM      5  CD2 LEU B   3     -16.950 -25.003  37.807  1.00 80.44 LIG 0.01  C 
ENDBRANCH 2 3
ENDBRANCH 1 2
BRANCH 1 6
ATOM      6  C   LEU B   3     -17.093 -20.352  39.627  1.00 80.58 LIG 0.24  C 
ATOM      7  N   ALA B   4     -15.884 -20.194  39.071  1.00 80.60 LIG-0.35  N 
ATOM      8 H    ALA B   4     -15.420 -20.860  38.790  1.00 80.60 LIG 0.16  HD
ATOM      9 O    LEU B   3     -17.784 -19.424  40.064  1.00 80.60 LIG-0.27  OA
BRANCH 7 10
ATOM     10  CA  ALA B   4     -15.207 -18.903  38.871  1.00 80.57 LIG 0.17  C 
ATOM     11  CB  ALA B   4     -16.169 -17.880  38.280  1.00 80.56 LIG 0.04  C 
BRANCH 10 12
ATOM     12  C   ALA B   4     -14.549 -18.381  40.150  1.00 80.56 LIG 0.24  C 
ATOM     13  N   GLY B   5     -13.249 -18.100  40.040  1.00 80.55 LIG-0.35  N 
ATOM     14 H    GLY B   5     -12.827 -18.142  39.293  1.00 80.55 LIG 0.16  HD
ATOM     15 O    ALA B   4     -15.198 -18.241  41.195  1.00 80.59 LIG-0.27  OA
BRANCH 13 16
ATOM     16  CA  GLY B   5     -12.400 -17.692  41.166  1.00 80.50 LIG 0.21  C 
BRANCH 16 17
ATOM     17  C   GLY B   5     -11.045 -18.370  41.280  1.00 80.51 LIG 0.21  C 
ATOM     18 O    GLY B   5     -10.748 -19.308  40.486  1.00 80.50 LIG-0.29  OA
ENDBRANCH 16 17
ENDBRANCH 13 16
ENDBRANCH 10 12
ENDBRANCH 7 10
ENDBRANCH 1 6
BRANCH 1 19
ATOM     19  N   LEU B   3     -19.026 -21.642  39.890  1.00 80.50 LIG-0.35  N 
ATOM     20  C   ALA B   2     -19.829 -22.697  40.147  1.00 80.42 LIG 0.24  C 
ATOM     21 O    ALA B   2     -19.634 -23.845  39.665  1.00 80.43 LIG-0.27  OA
ATOM     22 H    LEU B   3     -19.306 -20.829  39.847  1.00 80.50 LIG 0.16  HD
BRANCH 20 23
ATOM     23  CA  ALA B   2     -21.134 -22.362  40.875  1.00 80.35 LIG 0.17  C 
ATOM     24  CB  ALA B   2     -22.235 -23.310  40.458  1.00 80.34 LIG 0.04  C 
BRANCH 23 25
ATOM     25  N   ALA B   2     -21.508 -20.982  40.550  1.00 80.28 LIG-0.35  N 
ATOM     26 H    ALA B   2     -21.614 -20.484  41.243  1.00 80.28 LIG 0.16  HD
ATOM     27  C   GLY B   1     -21.671 -20.536  39.305  1.00 80.20 LIG 0.24  C 
ATOM     28 O    GLY B   1     -21.566 -21.245  38.305  1.00 80.22 LIG-0.27  OA
BRANCH 27 29
ATOM     29  CA  GLY B   1     -22.003 -19.065  39.172  1.00 80.17 LIG 0.33  C 
BRANCH 29 30
ATOM     30  N   GLY B   1     -23.070 -18.789  38.165  1.00 80.00 LIG-0.07  N 
ATOM     31 H3   GLY B   1     -23.868 -18.844  38.555  1.00 80.00 LIG 0.27  HD
ATOM     32 H2   GLY B   1     -23.020 -19.388  37.508  1.00 80.00 LIG 0.27  HD
ATOM     33 H1   GLY B   1     -22.959 -17.972  37.830  1.00 80.00 LIG 0.27  HD
ENDBRANCH 29 30
ENDBRANCH 27 29
ENDBRANCH 23 25
ENDBRANCH 20 23
ENDBRANCH 1 19
TORSDOF 12
ENDMDL
MODEL 49
USER: ADFR SOLUTION from run 57
USER: SCORE 10.012171 LL:  -2.440 LR:  -9.343 RR:   0.000 FEB:  -5.764
USER: RMSD 8.125629
USER: SEED 56
USER: STATUS no improvement in best 5 clusters for 5 generations
USER: GENES 14
USER: genes 0 Translation |==|  0.38444 0.58369 0.49772
USER: genes 1 Rotation |==|  0.24313 0.35204 0.85821 0.68387
USER: genes 2 Torsion [C]-CA--CB-[CG] |==|  0.39990
USER: genes 3 Torsion [CA]-CB--CG-[CD1] |==|  0.94309
USER: genes 4 Torsion [N]-CA--C-[N] |==|  0.59719
USER: genes 5 Torsion [C]-N--CA-[CB] |==|  0.83242
USER: genes 6 Torsion [N]-CA--C-[N] |==|  0.37244
USER: genes 7 Torsion [C]-N--CA-[C] |==|  0.39511
USER: genes 8 Torsion [N]-CA--C-[O] |==|  0.50248
USER: genes 9 Torsion [CB]-CA--N-[C] |==|  0.89676
USER: genes 10 Torsion [N]-C--CA-[N] |==|  0.95655
USER: genes 11 Torsion [C]-CA--N-[C] |==|  0.77855
USER: genes 12 Torsion [N]-C--CA-[N] |==|  0.51295
USER: genes 13 Torsion [C]-CA--N-[H2] |==|  0.85181
ROOT
ATOM      1  CA  LEU B   3     -19.037 -21.869  39.972  1.00 80.55 LIG 0.18  C 
ENDROOT
BRANCH 1 2
ATOM      2  CB  LEU B   3     -19.918 -21.316  38.841  1.00 80.55 LIG 0.04  C 
BRANCH 2 3
ATOM      3  CG  LEU B   3     -21.457 -21.227  38.998  1.00 80.55 LIG-0.02  C 
ATOM      4  CD1 LEU B   3     -21.956 -22.199  40.123  1.00 80.53 LIG 0.01  C 
ATOM      5  CD2 LEU B   3     -21.951 -19.790  39.300  1.00 80.44 LIG 0.01  C 
ENDBRANCH 2 3
ENDBRANCH 1 2
BRANCH 1 6
ATOM      6  C   LEU B   3     -17.862 -22.665  39.407  1.00 80.58 LIG 0.24  C 
ATOM      7  N   ALA B   4     -18.075 -23.196  38.196  1.00 80.60 LIG-0.35  N 
ATOM      8 H    ALA B   4     -18.828 -23.121  37.789  1.00 80.60 LIG 0.16  HD
ATOM      9 O    LEU B   3     -16.802 -22.767  40.036  1.00 80.60 LIG-0.27  OA
BRANCH 7 10
ATOM     10  CA  ALA B   4     -17.082 -23.956  37.420  1.00 80.57 LIG 0.17  C 
ATOM     11  CB  ALA B   4     -15.859 -23.096  37.127  1.00 80.56 LIG 0.04  C 
BRANCH 10 12
ATOM     12  C   ALA B   4     -16.694 -25.273  38.093  1.00 80.56 LIG 0.24  C 
ATOM     13  N   GLY B   5     -16.666 -26.333  37.284  1.00 80.55 LIG-0.35  N 
ATOM     14 H    GLY B   5     -16.789 -26.273  36.435  1.00 80.55 LIG 0.16  HD
ATOM     15 O    ALA B   4     -16.431 -25.323  39.302  1.00 80.59 LIG-0.27  OA
BRANCH 13 16
ATOM     16  CA  GLY B   5     -16.426 -27.708  37.740  1.00 80.50 LIG 0.21  C 
BRANCH 16 17
ATOM     17  C   GLY B   5     -17.222 -28.804  37.053  1.00 80.51 LIG 0.21  C 
ATOM     18 O    GLY B   5     -17.070 -30.005  37.415  1.00 80.50 LIG-0.29  OA
ENDBRANCH 16 17
ENDBRANCH 13 16
ENDBRANCH 10 12
ENDBRANCH 7 10
ENDBRANCH 1 6
BRANCH 1 19
ATOM     19  N   LEU B   3     -18.393 -20.793  40.706  1.00 80.50 LIG-0.35  N 
ATOM     20  C   ALA B   2     -17.940 -19.676  40.097  1.00 80.42 LIG 0.24  C 
ATOM     21 O    ALA B   2     -17.483 -19.668  38.923  1.00 80.43 LIG-0.27  OA
ATOM     22 H    LEU B   3     -18.329 -20.933  41.553  1.00 80.50 LIG 0.16  HD
BRANCH 20 23
ATOM     23  CA  ALA B   2     -17.793 -18.451  41.005  1.00 80.35 LIG 0.17  C 
ATOM     24  CB  ALA B   2     -16.337 -18.191  41.317  1.00 80.34 LIG 0.04  C 
BRANCH 23 25
ATOM     25  N   ALA B   2     -18.537 -18.698  42.244  1.00 80.28 LIG-0.35  N 
ATOM     26 H    ALA B   2     -18.037 -18.941  42.901  1.00 80.28 LIG 0.16  HD
ATOM     27  C   GLY B   1     -19.857 -18.561  42.352  1.00 80.20 LIG 0.24  C 
ATOM     28 O    GLY B   1     -20.592 -18.256  41.413  1.00 80.22 LIG-0.27  OA
BRANCH 27 29
ATOM     29  CA  GLY B   1     -20.434 -18.808  43.730  1.00 80.17 LIG 0.33  C 
BRANCH 29 30
ATOM     30  N   GLY B   1     -21.925 -18.748  43.765  1.00 80.00 LIG-0.07  N 
ATOM     31 H3   GLY B   1     -22.261 -19.427  43.297  1.00 80.00 LIG 0.27  HD
ATOM     32 H2   GLY B   1     -22.201 -17.979  43.411  1.00 80.00 LIG 0.27  HD
ATOM     33 H1   GLY B   1     -22.205 -18.804  44.609  1.00 80.00 LIG 0.27  HD
ENDBRANCH 29 30
ENDBRANCH 27 29
ENDBRANCH 23 25
ENDBRANCH 20 23
ENDBRANCH 1 19
TORSDOF 12
ENDMDL
MODEL 50
USER: ADFR SOLUTION from run 40
USER: SCORE 10.177538 LL:  -2.390 LR:  -9.340 RR:   0.000 FEB:  -5.761
USER: RMSD 7.735619
USER: SEED 39
USER: STATUS no improvement in best 15 clusters for 5 generations
USER: GENES 14
USER: genes 0 Translation |==|  0.40075 0.53566 0.46593
USER: genes 1 Rotation |==|  0.90915 0.74839 0.35592 0.51196
USER: genes 2 Torsion [C]-CA--CB-[CG] |==|  0.13270
USER: genes 3 Torsion [CA]-CB--CG-[CD1] |==|  0.76601
USER: genes 4 Torsion [N]-CA--C-[N] |==|  0.38088
USER: genes 5 Torsion [C]-N--CA-[CB] |==|  0.22551
USER: genes 6 Torsion [N]-CA--C-[N] |==|  0.02013
USER: genes 7 Torsion [C]-N--CA-[C] |==|  0.52796
USER: genes 8 Torsion [N]-CA--C-[O] |==|  0.66495
USER: genes 9 Torsion [CB]-CA--N-[C] |==|  0.53333
USER: genes 10 Torsion [N]-C--CA-[N] |==|  0.23299
USER: genes 11 Torsion [C]-CA--N-[C] |==|  0.66416
USER: genes 12 Torsion [N]-C--CA-[N] |==|  0.68423
USER: genes 13 Torsion [C]-CA--N-[H2] |==|  0.71538
ROOT
ATOM      1  CA  LEU B   3     -18.548 -23.310  39.018  1.00 80.55 LIG 0.18  C 
ENDROOT
BRANCH 1 2
ATOM      2  CB  LEU B   3     -17.687 -22.890  37.816  1.00 80.55 LIG 0.04  C 
BRANCH 2 3
ATOM      3  CG  LEU B   3     -16.491 -23.756  37.348  1.00 80.55 LIG-0.02  C 
ATOM      4  CD1 LEU B   3     -15.205 -23.422  38.182  1.00 80.53 LIG 0.01  C 
ATOM      5  CD2 LEU B   3     -16.779 -25.277  37.430  1.00 80.44 LIG 0.01  C 
ENDBRANCH 2 3
ENDBRANCH 1 2
BRANCH 1 6
ATOM      6  C   LEU B   3     -17.671 -23.706  40.203  1.00 80.58 LIG 0.24  C 
ATOM      7  N   ALA B   4     -17.574 -25.025  40.414  1.00 80.60 LIG-0.35  N 
ATOM      8 H    ALA B   4     -18.003 -25.597  39.938  1.00 80.60 LIG 0.16  HD
ATOM      9 O    LEU B   3     -17.089 -22.848  40.879  1.00 80.60 LIG-0.27  OA
BRANCH 7 10
ATOM     10  CA  ALA B   4     -16.748 -25.656  41.456  1.00 80.57 LIG 0.17  C 
ATOM     11  CB  ALA B   4     -17.464 -25.625  42.800  1.00 80.56 LIG 0.04  C 
BRANCH 10 12
ATOM     12  C   ALA B   4     -16.316 -27.076  41.082  1.00 80.56 LIG 0.24  C 
ATOM     13  N   GLY B   5     -16.619 -27.448  39.838  1.00 80.55 LIG-0.35  N 
ATOM     14 H    GLY B   5     -16.969 -26.911  39.265  1.00 80.55 LIG 0.16  HD
ATOM     15 O    ALA B   4     -15.731 -27.803  41.895  1.00 80.59 LIG-0.27  OA
BRANCH 13 16
ATOM     16  CA  GLY B   5     -16.396 -28.798  39.308  1.00 80.50 LIG 0.21  C 
BRANCH 16 17
ATOM     17  C   GLY B   5     -16.579 -28.983  37.811  1.00 80.51 LIG 0.21  C 
ATOM     18 O    GLY B   5     -17.438 -29.807  37.385  1.00 80.50 LIG-0.29  OA
ENDBRANCH 16 17
ENDBRANCH 13 16
ENDBRANCH 10 12
ENDBRANCH 7 10
ENDBRANCH 1 6
BRANCH 1 19
ATOM     19  N   LEU B   3     -19.316 -22.186  39.528  1.00 80.50 LIG-0.35  N 
ATOM     20  C   ALA B   2     -19.962 -22.233  40.713  1.00 80.42 LIG 0.24  C 
ATOM     21 O    ALA B   2     -20.466 -23.289  41.181  1.00 80.43 LIG-0.27  OA
ATOM     22 H    LEU B   3     -19.320 -21.499  39.010  1.00 80.50 LIG 0.16  HD
BRANCH 20 23
ATOM     23  CA  ALA B   2     -20.254 -20.873  41.352  1.00 80.35 LIG 0.17  C 
ATOM     24  CB  ALA B   2     -20.400 -21.009  42.850  1.00 80.34 LIG 0.04  C 
BRANCH 23 25
ATOM     25  N   ALA B   2     -21.492 -20.343  40.772  1.00 80.28 LIG-0.35  N 
ATOM     26 H    ALA B   2     -22.173 -20.855  40.891  1.00 80.28 LIG 0.16  HD
ATOM     27  C   GLY B   1     -21.564 -19.182  40.123  1.00 80.20 LIG 0.24  C 
ATOM     28 O    GLY B   1     -20.594 -18.457  39.906  1.00 80.22 LIG-0.27  OA
BRANCH 27 29
ATOM     29  CA  GLY B   1     -22.944 -18.779  39.645  1.00 80.17 LIG 0.33  C 
BRANCH 29 30
ATOM     30  N   GLY B   1     -23.071 -18.755  38.159  1.00 80.00 LIG-0.07  N 
ATOM     31 H3   GLY B   1     -22.403 -19.218  37.796  1.00 80.00 LIG 0.27  HD
ATOM     32 H2   GLY B   1     -23.038 -17.913  37.871  1.00 80.00 LIG 0.27  HD
ATOM     33 H1   GLY B   1     -23.848 -19.119  37.921  1.00 80.00 LIG 0.27  HD
ENDBRANCH 29 30
ENDBRANCH 27 29
ENDBRANCH 23 25
ENDBRANCH 20 23
ENDBRANCH 1 19
TORSDOF 12
ENDMDL
MODEL 51
USER: ADFR SOLUTION from run 29
USER: SCORE 10.912586 LL:  -2.490 LR:  -9.309 RR:   0.000 FEB:  -5.729
USER: RMSD 7.850397
USER: SEED 28
USER: STATUS no improvement in best 22 clusters for 5 generations
USER: GENES 14
USER: genes 0 Translation |==|  0.31314 0.53437 0.53041
USER: genes 1 Rotation |==|  0.39465 0.30267 0.94106 0.57370
USER: genes 2 Torsion [C]-CA--CB-[CG] |==|  0.36446
USER: genes 3 Torsion [CA]-CB--CG-[CD1] |==|  0.75853
USER: genes 4 Torsion [N]-CA--C-[N] |==|  0.31972
USER: genes 5 Torsion [C]-N--CA-[CB] |==|  0.11782
USER: genes 6 Torsion [N]-CA--C-[N] |==|  0.08925
USER: genes 7 Torsion [C]-N--CA-[C] |==|  0.16900
USER: genes 8 Torsion [N]-CA--C-[O] |==|  0.77548
USER: genes 9 Torsion [CB]-CA--N-[C] |==|  0.55238
USER: genes 10 Torsion [N]-C--CA-[N] |==|  0.94851
USER: genes 11 Torsion [C]-CA--N-[C] |==|  0.77077
USER: genes 12 Torsion [N]-C--CA-[N] |==|  0.53118
USER: genes 13 Torsion [C]-CA--N-[H2] |==|  0.69767
ROOT
ATOM      1  CA  LEU B   3     -21.176 -23.349  40.952  1.00 80.55 LIG 0.18  C 
ENDROOT
BRANCH 1 2
ATOM      2  CB  LEU B   3     -22.546 -23.644  40.323  1.00 80.55 LIG 0.04  C 
BRANCH 2 3
ATOM      3  CG  LEU B   3     -23.439 -24.792  40.857  1.00 80.55 LIG-0.02  C 
ATOM      4  CD1 LEU B   3     -23.073 -26.149  40.162  1.00 80.53 LIG 0.01  C 
ATOM      5  CD2 LEU B   3     -23.352 -24.958  42.396  1.00 80.44 LIG 0.01  C 
ENDBRANCH 2 3
ENDBRANCH 1 2
BRANCH 1 6
ATOM      6  C   LEU B   3     -20.099 -23.221  39.877  1.00 80.58 LIG 0.24  C 
ATOM      7  N   ALA B   4     -19.037 -24.018  40.049  1.00 80.60 LIG-0.35  N 
ATOM      8 H    ALA B   4     -18.957 -24.533  40.733  1.00 80.60 LIG 0.16  HD
ATOM      9 O    LEU B   3     -20.243 -22.450  38.921  1.00 80.60 LIG-0.27  OA
BRANCH 7 10
ATOM     10  CA  ALA B   4     -17.896 -24.119  39.124  1.00 80.57 LIG 0.17  C 
ATOM     11  CB  ALA B   4     -17.480 -22.738  38.635  1.00 80.56 LIG 0.04  C 
BRANCH 10 12
ATOM     12  C   ALA B   4     -16.716 -24.881  39.729  1.00 80.56 LIG 0.24  C 
ATOM     13  N   GLY B   5     -17.048 -25.848  40.585  1.00 80.55 LIG-0.35  N 
ATOM     14 H    GLY B   5     -17.863 -26.074  40.736  1.00 80.55 LIG 0.16  HD
ATOM     15 O    ALA B   4     -15.548 -24.598  39.428  1.00 80.59 LIG-0.27  OA
BRANCH 13 16
ATOM     16  CA  GLY B   5     -16.075 -26.628  41.359  1.00 80.50 LIG 0.21  C 
BRANCH 16 17
ATOM     17  C   GLY B   5     -15.188 -25.854  42.320  1.00 80.51 LIG 0.21  C 
ATOM     18 O    GLY B   5     -14.167 -25.253  41.878  1.00 80.50 LIG-0.29  OA
ENDBRANCH 16 17
ENDBRANCH 13 16
ENDBRANCH 10 12
ENDBRANCH 7 10
ENDBRANCH 1 6
BRANCH 1 19
ATOM     19  N   LEU B   3     -21.167 -22.045  41.595  1.00 80.50 LIG-0.35  N 
ATOM     20  C   ALA B   2     -20.021 -21.394  41.887  1.00 80.42 LIG 0.24  C 
ATOM     21 O    ALA B   2     -18.953 -21.986  42.202  1.00 80.43 LIG-0.27  OA
ATOM     22 H    LEU B   3     -21.950 -21.733  41.768  1.00 80.50 LIG 0.16  HD
BRANCH 20 23
ATOM     23  CA  ALA B   2     -20.153 -19.877  42.046  1.00 80.35 LIG 0.17  C 
ATOM     24  CB  ALA B   2     -20.156 -19.493  43.509  1.00 80.34 LIG 0.04  C 
BRANCH 23 25
ATOM     25  N   ALA B   2     -21.404 -19.450  41.412  1.00 80.28 LIG-0.35  N 
ATOM     26 H    ALA B   2     -22.055 -19.356  41.966  1.00 80.28 LIG 0.16  HD
ATOM     27  C   GLY B   1     -21.529 -19.226  40.105  1.00 80.20 LIG 0.24  C 
ATOM     28 O    GLY B   1     -20.621 -19.395  39.292  1.00 80.22 LIG-0.27  OA
BRANCH 27 29
ATOM     29  CA  GLY B   1     -22.887 -18.736  39.648  1.00 80.17 LIG 0.33  C 
BRANCH 29 30
ATOM     30  N   GLY B   1     -23.054 -18.756  38.165  1.00 80.00 LIG-0.07  N 
ATOM     31 H3   GLY B   1     -22.380 -19.205  37.796  1.00 80.00 LIG 0.27  HD
ATOM     32 H2   GLY B   1     -23.058 -17.921  37.855  1.00 80.00 LIG 0.27  HD
ATOM     33 H1   GLY B   1     -23.824 -19.152  37.958  1.00 80.00 LIG 0.27  HD
ENDBRANCH 29 30
ENDBRANCH 27 29
ENDBRANCH 23 25
ENDBRANCH 20 23
ENDBRANCH 1 19
TORSDOF 12
ENDMDL
MODEL 52
USER: ADFR SOLUTION from run 27
USER: SCORE 10.105074 LL:  -2.605 LR:  -9.308 RR:   0.000 FEB:  -5.728
USER: RMSD 5.022667
USER: SEED 26
USER: STATUS no improvement in best 10 clusters for 5 generations
USER: GENES 14
USER: genes 0 Translation |==|  0.48159 0.44881 0.46762
USER: genes 1 Rotation |==|  0.39445 0.87774 0.20212 0.58622
USER: genes 2 Torsion [C]-CA--CB-[CG] |==|  0.42241
USER: genes 3 Torsion [CA]-CB--CG-[CD1] |==|  0.19276
USER: genes 4 Torsion [N]-CA--C-[N] |==|  0.85650
USER: genes 5 Torsion [C]-N--CA-[CB] |==|  0.52340
USER: genes 6 Torsion [N]-CA--C-[N] |==|  0.43899
USER: genes 7 Torsion [C]-N--CA-[C] |==|  0.25327
USER: genes 8 Torsion [N]-CA--C-[O] |==|  0.92891
USER: genes 9 Torsion [CB]-CA--N-[C] |==|  0.45311
USER: genes 10 Torsion [N]-C--CA-[N] |==|  0.95573
USER: genes 11 Torsion [C]-CA--N-[C] |==|  0.70818
USER: genes 12 Torsion [N]-C--CA-[N] |==|  0.09518
USER: genes 13 Torsion [C]-CA--N-[H2] |==|  0.95848
ROOT
ATOM      1  CA  LEU B   3     -16.122 -25.916  39.069  1.00 80.55 LIG 0.18  C 
ENDROOT
BRANCH 1 2
ATOM      2  CB  LEU B   3     -17.010 -26.794  38.172  1.00 80.55 LIG 0.04  C 
BRANCH 2 3
ATOM      3  CG  LEU B   3     -16.594 -28.242  37.810  1.00 80.55 LIG-0.02  C 
ATOM      4  CD1 LEU B   3     -16.673 -29.173  39.070  1.00 80.53 LIG 0.01  C 
ATOM      5  CD2 LEU B   3     -17.447 -28.846  36.666  1.00 80.44 LIG 0.01  C 
ENDBRANCH 2 3
ENDBRANCH 1 2
BRANCH 1 6
ATOM      6  C   LEU B   3     -16.320 -24.436  38.748  1.00 80.58 LIG 0.24  C 
ATOM      7  N   ALA B   4     -17.527 -23.950  39.062  1.00 80.60 LIG-0.35  N 
ATOM      8 H    ALA B   4     -18.150 -24.445  39.386  1.00 80.60 LIG 0.16  HD
ATOM      9 O    LEU B   3     -15.404 -23.763  38.260  1.00 80.60 LIG-0.27  OA
BRANCH 7 10
ATOM     10  CA  ALA B   4     -17.942 -22.547  38.901  1.00 80.57 LIG 0.17  C 
ATOM     11  CB  ALA B   4     -19.301 -22.313  39.548  1.00 80.56 LIG 0.04  C 
BRANCH 10 12
ATOM     12  C   ALA B   4     -16.894 -21.562  39.423  1.00 80.56 LIG 0.24  C 
ATOM     13  N   GLY B   5     -16.976 -20.331  38.915  1.00 80.55 LIG-0.35  N 
ATOM     14 H    GLY B   5     -17.609 -20.088  38.387  1.00 80.55 LIG 0.16  HD
ATOM     15 O    ALA B   4     -16.044 -21.909  40.253  1.00 80.59 LIG-0.27  OA
BRANCH 13 16
ATOM     16  CA  GLY B   5     -16.008 -19.263  39.193  1.00 80.50 LIG 0.21  C 
BRANCH 16 17
ATOM     17  C   GLY B   5     -14.833 -19.140  38.238  1.00 80.51 LIG 0.21  C 
ATOM     18 O    GLY B   5     -14.445 -20.155  37.593  1.00 80.50 LIG-0.29  OA
ENDBRANCH 16 17
ENDBRANCH 13 16
ENDBRANCH 10 12
ENDBRANCH 7 10
ENDBRANCH 1 6
BRANCH 1 19
ATOM     19  N   LEU B   3     -16.527 -26.015  40.461  1.00 80.50 LIG-0.35  N 
ATOM     20  C   ALA B   2     -15.726 -25.621  41.474  1.00 80.42 LIG 0.24  C 
ATOM     21 O    ALA B   2     -14.469 -25.704  41.431  1.00 80.43 LIG-0.27  OA
ATOM     22 H    LEU B   3     -17.314 -26.344  40.576  1.00 80.50 LIG 0.16  HD
BRANCH 20 23
ATOM     23  CA  ALA B   2     -16.446 -25.281  42.782  1.00 80.35 LIG 0.17  C 
ATOM     24  CB  ALA B   2     -16.251 -26.383  43.799  1.00 80.34 LIG 0.04  C 
BRANCH 23 25
ATOM     25  N   ALA B   2     -17.874 -25.107  42.496  1.00 80.28 LIG-0.35  N 
ATOM     26 H    ALA B   2     -18.288 -25.849  42.361  1.00 80.28 LIG 0.16  HD
ATOM     27  C   GLY B   1     -18.477 -23.921  42.450  1.00 80.20 LIG 0.24  C 
ATOM     28 O    GLY B   1     -17.892 -22.849  42.600  1.00 80.22 LIG-0.27  OA
BRANCH 27 29
ATOM     29  CA  GLY B   1     -19.969 -23.951  42.196  1.00 80.17 LIG 0.33  C 
BRANCH 29 30
ATOM     30  N   GLY B   1     -20.650 -25.130  42.808  1.00 80.00 LIG-0.07  N 
ATOM     31 H3   GLY B   1     -21.100 -24.871  43.530  1.00 80.00 LIG 0.27  HD
ATOM     32 H2   GLY B   1     -20.041 -25.737  43.040  1.00 80.00 LIG 0.27  HD
ATOM     33 H1   GLY B   1     -21.214 -25.487  42.218  1.00 80.00 LIG 0.27  HD
ENDBRANCH 29 30
ENDBRANCH 27 29
ENDBRANCH 23 25
ENDBRANCH 20 23
ENDBRANCH 1 19
TORSDOF 12
ENDMDL
MODEL 53
USER: ADFR SOLUTION from run 16
USER: SCORE 10.086667 LL:  -2.124 LR:  -9.269 RR:   0.000 FEB:  -5.689
USER: RMSD 4.249391
USER: SEED 845356
USER: STATUS no improvement in best 24 clusters for 5 generations
USER: GENES 14
USER: genes 0 Translation |==|  0.48628 0.53346 0.51572
USER: genes 1 Rotation |==|  0.50259 0.99068 0.59087 0.53119
USER: genes 2 Torsion [C]-CA--CB-[CG] |==|  0.45612
USER: genes 3 Torsion [CA]-CB--CG-[CD1] |==|  0.10234
USER: genes 4 Torsion [N]-CA--C-[N] |==|  0.39535
USER: genes 5 Torsion [C]-N--CA-[CB] |==|  0.18333
USER: genes 6 Torsion [N]-CA--C-[N] |==|  0.04495
USER: genes 7 Torsion [C]-N--CA-[C] |==|  0.46271
USER: genes 8 Torsion [N]-CA--C-[O] |==|  0.64240
USER: genes 9 Torsion [CB]-CA--N-[C] |==|  0.55090
USER: genes 10 Torsion [N]-C--CA-[N] |==|  0.25471
USER: genes 11 Torsion [C]-CA--N-[C] |==|  0.84742
USER: genes 12 Torsion [N]-C--CA-[N] |==|  0.44276
USER: genes 13 Torsion [C]-CA--N-[H2] |==|  0.45461
ROOT
ATOM      1  CA  LEU B   3     -15.982 -23.376  40.512  1.00 80.55 LIG 0.18  C 
ENDROOT
BRANCH 1 2
ATOM      2  CB  LEU B   3     -17.147 -22.422  40.205  1.00 80.55 LIG 0.04  C 
BRANCH 2 3
ATOM      3  CG  LEU B   3     -17.538 -22.083  38.745  1.00 80.55 LIG-0.02  C 
ATOM      4  CD1 LEU B   3     -17.373 -23.340  37.821  1.00 80.53 LIG 0.01  C 
ATOM      5  CD2 LEU B   3     -18.981 -21.534  38.619  1.00 80.44 LIG 0.01  C 
ENDBRANCH 2 3
ENDBRANCH 1 2
BRANCH 1 6
ATOM      6  C   LEU B   3     -15.545 -23.251  41.969  1.00 80.58 LIG 0.24  C 
ATOM      7  N   ALA B   4     -14.473 -22.474  42.169  1.00 80.60 LIG-0.35  N 
ATOM      8 H    ALA B   4     -14.047 -22.106  41.520  1.00 80.60 LIG 0.16  HD
ATOM      9 O    LEU B   3     -16.172 -23.817  42.872  1.00 80.60 LIG-0.27  OA
BRANCH 7 10
ATOM     10  CA  ALA B   4     -13.894 -22.154  43.484  1.00 80.57 LIG 0.17  C 
ATOM     11  CB  ALA B   4     -13.317 -23.404  44.134  1.00 80.56 LIG 0.04  C 
BRANCH 10 12
ATOM     12  C   ALA B   4     -12.859 -21.030  43.411  1.00 80.56 LIG 0.24  C 
ATOM     13  N   GLY B   5     -12.888 -20.308  42.290  1.00 80.55 LIG-0.35  N 
ATOM     14 H    GLY B   5     -13.486 -20.419  41.682  1.00 80.55 LIG 0.16  HD
ATOM     15 O    ALA B   4     -12.063 -20.829  44.339  1.00 80.59 LIG-0.27  OA
BRANCH 13 16
ATOM     16  CA  GLY B   5     -11.918 -19.255  41.965  1.00 80.50 LIG 0.21  C 
BRANCH 16 17
ATOM     17  C   GLY B   5     -11.907 -18.755  40.531  1.00 80.51 LIG 0.21  C 
ATOM     18 O    GLY B   5     -10.815 -18.709  39.895  1.00 80.50 LIG-0.29  OA
ENDBRANCH 16 17
ENDBRANCH 13 16
ENDBRANCH 10 12
ENDBRANCH 7 10
ENDBRANCH 1 6
BRANCH 1 19
ATOM     19  N   LEU B   3     -16.401 -24.764  40.403  1.00 80.50 LIG-0.35  N 
ATOM     20  C   ALA B   2     -15.700 -25.774  40.960  1.00 80.42 LIG 0.24  C 
ATOM     21 O    ALA B   2     -14.445 -25.760  41.076  1.00 80.43 LIG-0.27  OA
ATOM     22 H    LEU B   3     -17.129 -24.877  39.958  1.00 80.50 LIG 0.16  HD
BRANCH 20 23
ATOM     23  CA  ALA B   2     -16.498 -27.052  41.231  1.00 80.35 LIG 0.17  C 
ATOM     24  CB  ALA B   2     -15.975 -27.756  42.462  1.00 80.34 LIG 0.04  C 
BRANCH 23 25
ATOM     25  N   ALA B   2     -16.382 -27.931  40.062  1.00 80.28 LIG-0.35  N 
ATOM     26 H    ALA B   2     -16.092 -28.717  40.253  1.00 80.28 LIG 0.16  HD
ATOM     27  C   GLY B   1     -16.695 -27.555  38.824  1.00 80.20 LIG 0.24  C 
ATOM     28 O    GLY B   1     -17.071 -26.421  38.526  1.00 80.22 LIG-0.27  OA
BRANCH 27 29
ATOM     29  CA  GLY B   1     -16.561 -28.622  37.758  1.00 80.17 LIG 0.33  C 
BRANCH 29 30
ATOM     30  N   GLY B   1     -17.355 -28.333  36.528  1.00 80.00 LIG-0.07  N 
ATOM     31 H3   GLY B   1     -18.215 -28.505  36.683  1.00 80.00 LIG 0.27  HD
ATOM     32 H2   GLY B   1     -17.066 -28.847  35.860  1.00 80.00 LIG 0.27  HD
ATOM     33 H1   GLY B   1     -17.259 -27.476  36.307  1.00 80.00 LIG 0.27  HD
ENDBRANCH 29 30
ENDBRANCH 27 29
ENDBRANCH 23 25
ENDBRANCH 20 23
ENDBRANCH 1 19
TORSDOF 12
ENDMDL
MODEL 54
USER: ADFR SOLUTION from run 41
USER: SCORE 10.160728 LL:  -2.387 LR:  -9.274 RR:   0.000 FEB:  -5.694
USER: RMSD 7.679027
USER: SEED 40
USER: STATUS no improvement in best 22 clusters for 5 generations
USER: GENES 14
USER: genes 0 Translation |==|  0.46340 0.41059 0.52003
USER: genes 1 Rotation |==|  0.96167 0.51875 0.35043 0.61891
USER: genes 2 Torsion [C]-CA--CB-[CG] |==|  0.48578
USER: genes 3 Torsion [CA]-CB--CG-[CD1] |==|  0.74784
USER: genes 4 Torsion [N]-CA--C-[N] |==|  0.27837
USER: genes 5 Torsion [C]-N--CA-[CB] |==|  0.21270
USER: genes 6 Torsion [N]-CA--C-[N] |==|  0.93333
USER: genes 7 Torsion [C]-N--CA-[C] |==|  0.79035
USER: genes 8 Torsion [N]-CA--C-[O] |==|  0.06680
USER: genes 9 Torsion [CB]-CA--N-[C] |==|  0.52778
USER: genes 10 Torsion [N]-C--CA-[N] |==|  0.38546
USER: genes 11 Torsion [C]-CA--N-[C] |==|  0.83529
USER: genes 12 Torsion [N]-C--CA-[N] |==|  0.55679
USER: genes 13 Torsion [C]-CA--N-[H2] |==|  0.66578
ROOT
ATOM      1  CA  LEU B   3     -16.668 -27.062  40.641  1.00 80.55 LIG 0.18  C 
ENDROOT
BRANCH 1 2
ATOM      2  CB  LEU B   3     -15.754 -28.077  39.936  1.00 80.55 LIG 0.04  C 
BRANCH 2 3
ATOM      3  CG  LEU B   3     -15.944 -28.414  38.435  1.00 80.55 LIG-0.02  C 
ATOM      4  CD1 LEU B   3     -16.919 -29.630  38.260  1.00 80.53 LIG 0.01  C 
ATOM      5  CD2 LEU B   3     -16.463 -27.211  37.607  1.00 80.44 LIG 0.01  C 
ENDBRANCH 2 3
ENDBRANCH 1 2
BRANCH 1 6
ATOM      6  C   LEU B   3     -16.361 -26.999  42.135  1.00 80.58 LIG 0.24  C 
ATOM      7  N   ALA B   4     -17.436 -26.882  42.925  1.00 80.60 LIG-0.35  N 
ATOM      8 H    ALA B   4     -18.231 -26.812  42.607  1.00 80.60 LIG 0.16  HD
ATOM      9 O    LEU B   3     -15.198 -27.080  42.549  1.00 80.60 LIG-0.27  OA
BRANCH 7 10
ATOM     10  CA  ALA B   4     -17.406 -26.857  44.396  1.00 80.57 LIG 0.17  C 
ATOM     11  CB  ALA B   4     -16.933 -25.498  44.899  1.00 80.56 LIG 0.04  C 
BRANCH 10 12
ATOM     12  C   ALA B   4     -18.747 -27.251  45.017  1.00 80.56 LIG 0.24  C 
ATOM     13  N   GLY B   5     -19.808 -27.064  44.232  1.00 80.55 LIG-0.35  N 
ATOM     14 H    GLY B   5     -19.741 -26.806  43.415  1.00 80.55 LIG 0.16  HD
ATOM     15 O    ALA B   4     -18.812 -27.706  46.167  1.00 80.59 LIG-0.27  OA
BRANCH 13 16
ATOM     16  CA  GLY B   5     -21.196 -27.272  44.664  1.00 80.50 LIG 0.21  C 
BRANCH 16 17
ATOM     17  C   GLY B   5     -21.665 -28.712  44.786  1.00 80.51 LIG 0.21  C 
ATOM     18 O    GLY B   5     -20.817 -29.630  44.973  1.00 80.50 LIG-0.29  OA
ENDBRANCH 16 17
ENDBRANCH 13 16
ENDBRANCH 10 12
ENDBRANCH 7 10
ENDBRANCH 1 6
BRANCH 1 19
ATOM     19  N   LEU B   3     -16.397 -25.710  40.184  1.00 80.50 LIG-0.35  N 
ATOM     20  C   ALA B   2     -16.924 -24.625  40.790  1.00 80.42 LIG 0.24  C 
ATOM     21 O    ALA B   2     -18.059 -24.625  41.338  1.00 80.43 LIG-0.27  OA
ATOM     22 H    LEU B   3     -15.875 -25.667  39.500  1.00 80.50 LIG 0.16  HD
BRANCH 20 23
ATOM     23  CA  ALA B   2     -16.161 -23.316  40.568  1.00 80.35 LIG 0.17  C 
ATOM     24  CB  ALA B   2     -15.296 -22.994  41.765  1.00 80.34 LIG 0.04  C 
BRANCH 23 25
ATOM     25  N   ALA B   2     -17.134 -22.241  40.346  1.00 80.28 LIG-0.35  N 
ATOM     26 H    ALA B   2     -17.075 -21.603  40.920  1.00 80.28 LIG 0.16  HD
ATOM     27  C   GLY B   1     -18.023 -22.245  39.356  1.00 80.20 LIG 0.24  C 
ATOM     28 O    GLY B   1     -18.149 -23.168  38.552  1.00 80.22 LIG-0.27  OA
BRANCH 27 29
ATOM     29  CA  GLY B   1     -18.906 -21.018  39.259  1.00 80.17 LIG 0.33  C 
BRANCH 29 30
ATOM     30  N   GLY B   1     -20.162 -21.252  38.489  1.00 80.00 LIG-0.07  N 
ATOM     31 H3   GLY B   1     -20.182 -22.095  38.203  1.00 80.00 LIG 0.27  HD
ATOM     32 H2   GLY B   1     -20.190 -20.701  37.790  1.00 80.00 LIG 0.27  HD
ATOM     33 H1   GLY B   1     -20.866 -21.101  39.014  1.00 80.00 LIG 0.27  HD
ENDBRANCH 29 30
ENDBRANCH 27 29
ENDBRANCH 23 25
ENDBRANCH 20 23
ENDBRANCH 1 19
TORSDOF 12
ENDMDL
MODEL 55
USER: ADFR SOLUTION from run 70
USER: SCORE 10.633596 LL:  -2.102 LR:  -9.261 RR:   0.000 FEB:  -5.681
USER: RMSD 8.661161
USER: SEED 69
USER: STATUS no improvement in best 20 clusters for 5 generations
USER: GENES 14
USER: genes 0 Translation |==|  0.32043 0.54490 0.52419
USER: genes 1 Rotation |==|  0.57183 0.62262 0.02347 0.55220
USER: genes 2 Torsion [C]-CA--CB-[CG] |==|  0.39824
USER: genes 3 Torsion [CA]-CB--CG-[CD1] |==|  0.22746
USER: genes 4 Torsion [N]-CA--C-[N] |==|  0.41850
USER: genes 5 Torsion [C]-N--CA-[CB] |==|  0.16074
USER: genes 6 Torsion [N]-CA--C-[N] |==|  0.07238
USER: genes 7 Torsion [C]-N--CA-[C] |==|  0.17748
USER: genes 8 Torsion [N]-CA--C-[O] |==|  0.90711
USER: genes 9 Torsion [CB]-CA--N-[C] |==|  0.54444
USER: genes 10 Torsion [N]-C--CA-[N] |==|  0.47965
USER: genes 11 Torsion [C]-CA--N-[C] |==|  0.56551
USER: genes 12 Torsion [N]-C--CA-[N] |==|  0.46179
USER: genes 13 Torsion [C]-CA--N-[H2] |==|  0.79239
ROOT
ATOM      1  CA  LEU B   3     -20.957 -23.033  40.766  1.00 80.55 LIG 0.18  C 
ENDROOT
BRANCH 1 2
ATOM      2  CB  LEU B   3     -21.996 -24.111  40.421  1.00 80.55 LIG 0.04  C 
BRANCH 2 3
ATOM      3  CG  LEU B   3     -22.560 -25.055  41.513  1.00 80.55 LIG-0.02  C 
ATOM      4  CD1 LEU B   3     -23.714 -24.352  42.311  1.00 80.53 LIG 0.01  C 
ATOM      5  CD2 LEU B   3     -23.072 -26.401  40.942  1.00 80.44 LIG 0.01  C 
ENDBRANCH 2 3
ENDBRANCH 1 2
BRANCH 1 6
ATOM      6  C   LEU B   3     -19.942 -22.875  39.637  1.00 80.58 LIG 0.24  C 
ATOM      7  N   ALA B   4     -18.860 -23.658  39.742  1.00 80.60 LIG-0.35  N 
ATOM      8 H    ALA B   4     -18.736 -24.180  40.413  1.00 80.60 LIG 0.16  HD
ATOM      9 O    LEU B   3     -20.147 -22.094  38.700  1.00 80.60 LIG-0.27  OA
BRANCH 7 10
ATOM     10  CA  ALA B   4     -17.769 -23.730  38.756  1.00 80.57 LIG 0.17  C 
ATOM     11  CB  ALA B   4     -17.143 -22.356  38.549  1.00 80.56 LIG 0.04  C 
BRANCH 10 12
ATOM     12  C   ALA B   4     -16.716 -24.778  39.121  1.00 80.56 LIG 0.24  C 
ATOM     13  N   GLY B   5     -17.160 -25.782  39.878  1.00 80.55 LIG-0.35  N 
ATOM     14 H    GLY B   5     -17.988 -25.873  40.089  1.00 80.55 LIG 0.16  HD
ATOM     15 O    ALA B   4     -15.546 -24.675  38.729  1.00 80.59 LIG-0.27  OA
BRANCH 13 16
ATOM     16  CA  GLY B   5     -16.300 -26.835  40.431  1.00 80.50 LIG 0.21  C 
BRANCH 16 17
ATOM     17  C   GLY B   5     -15.243 -26.398  41.431  1.00 80.51 LIG 0.21  C 
ATOM     18 O    GLY B   5     -14.696 -25.265  41.305  1.00 80.50 LIG-0.29  OA
ENDBRANCH 16 17
ENDBRANCH 13 16
ENDBRANCH 10 12
ENDBRANCH 7 10
ENDBRANCH 1 6
BRANCH 1 19
ATOM     19  N   LEU B   3     -21.576 -21.720  40.848  1.00 80.50 LIG-0.35  N 
ATOM     20  C   ALA B   2     -20.853 -20.580  40.822  1.00 80.42 LIG 0.24  C 
ATOM     21 O    ALA B   2     -19.691 -20.489  41.303  1.00 80.43 LIG-0.27  OA
ATOM     22 H    LEU B   3     -22.434 -21.739  40.914  1.00 80.50 LIG 0.16  HD
BRANCH 20 23
ATOM     23  CA  ALA B   2     -21.620 -19.330  40.382  1.00 80.35 LIG 0.17  C 
ATOM     24  CB  ALA B   2     -22.028 -19.439  38.931  1.00 80.34 LIG 0.04  C 
BRANCH 23 25
ATOM     25  N   ALA B   2     -20.755 -18.161  40.574  1.00 80.28 LIG-0.35  N 
ATOM     26 H    ALA B   2     -19.916 -18.353  40.577  1.00 80.28 LIG 0.16  HD
ATOM     27  C   GLY B   1     -21.215 -16.921  40.730  1.00 80.20 LIG 0.24  C 
ATOM     28 O    GLY B   1     -22.412 -16.635  40.772  1.00 80.22 LIG-0.27  OA
BRANCH 27 29
ATOM     29  CA  GLY B   1     -20.163 -15.840  40.860  1.00 80.17 LIG 0.33  C 
BRANCH 29 30
ATOM     30  N   GLY B   1     -20.711 -14.461  40.705  1.00 80.00 LIG-0.07  N 
ATOM     31 H3   GLY B   1     -21.460 -14.384  41.180  1.00 80.00 LIG 0.27  HD
ATOM     32 H2   GLY B   1     -20.888 -14.305  39.846  1.00 80.00 LIG 0.27  HD
ATOM     33 H1   GLY B   1     -20.113 -13.869  40.997  1.00 80.00 LIG 0.27  HD
ENDBRANCH 29 30
ENDBRANCH 27 29
ENDBRANCH 23 25
ENDBRANCH 20 23
ENDBRANCH 1 19
TORSDOF 12
ENDMDL
MODEL 56
USER: ADFR SOLUTION from run 10
USER: SCORE 10.099054 LL:  -2.092 LR:  -9.257 RR:   0.000 FEB:  -5.677
USER: RMSD 7.571682
USER: SEED 921289
USER: STATUS no improvement in best 26 clusters for 5 generations
USER: GENES 14
USER: genes 0 Translation |==|  0.32913 0.57495 0.52028
USER: genes 1 Rotation |==|  0.26120 0.69951 0.73898 0.80994
USER: genes 2 Torsion [C]-CA--CB-[CG] |==|  0.43176
USER: genes 3 Torsion [CA]-CB--CG-[CD1] |==|  0.70131
USER: genes 4 Torsion [N]-CA--C-[N] |==|  0.44884
USER: genes 5 Torsion [C]-N--CA-[CB] |==|  0.88195
USER: genes 6 Torsion [N]-CA--C-[N] |==|  0.81741
USER: genes 7 Torsion [C]-N--CA-[C] |==|  0.18621
USER: genes 8 Torsion [N]-CA--C-[O] |==|  0.33134
USER: genes 9 Torsion [CB]-CA--N-[C] |==|  0.52976
USER: genes 10 Torsion [N]-C--CA-[N] |==|  0.06037
USER: genes 11 Torsion [C]-CA--N-[C] |==|  0.62727
USER: genes 12 Torsion [N]-C--CA-[N] |==|  0.17499
USER: genes 13 Torsion [C]-CA--N-[H2] |==|  0.80684
ROOT
ATOM      1  CA  LEU B   3     -20.696 -22.131  40.648  1.00 80.55 LIG 0.18  C 
ENDROOT
BRANCH 1 2
ATOM      2  CB  LEU B   3     -21.178 -21.337  39.424  1.00 80.55 LIG 0.04  C 
BRANCH 2 3
ATOM      3  CG  LEU B   3     -20.973 -19.804  39.336  1.00 80.55 LIG-0.02  C 
ATOM      4  CD1 LEU B   3     -22.335 -19.051  39.527  1.00 80.53 LIG 0.01  C 
ATOM      5  CD2 LEU B   3     -19.940 -19.273  40.363  1.00 80.44 LIG 0.01  C 
ENDBRANCH 2 3
ENDBRANCH 1 2
BRANCH 1 6
ATOM      6  C   LEU B   3     -21.495 -23.422  40.809  1.00 80.58 LIG 0.24  C 
ATOM      7  N   ALA B   4     -22.701 -23.270  41.370  1.00 80.60 LIG-0.35  N 
ATOM      8 H    ALA B   4     -22.983 -22.507  41.649  1.00 80.60 LIG 0.16  HD
ATOM      9 O    LEU B   3     -21.042 -24.504  40.415  1.00 80.60 LIG-0.27  OA
BRANCH 7 10
ATOM     10  CA  ALA B   4     -23.679 -24.350  41.581  1.00 80.57 LIG 0.17  C 
ATOM     11  CB  ALA B   4     -23.749 -25.255  40.358  1.00 80.56 LIG 0.04  C 
BRANCH 10 12
ATOM     12  C   ALA B   4     -23.404 -25.148  42.857  1.00 80.56 LIG 0.24  C 
ATOM     13  N   GLY B   5     -22.269 -25.847  42.851  1.00 80.55 LIG-0.35  N 
ATOM     14 H    GLY B   5     -21.698 -25.801  42.210  1.00 80.55 LIG 0.16  HD
ATOM     15 O    ALA B   4     -24.197 -25.130  43.808  1.00 80.59 LIG-0.27  OA
BRANCH 13 16
ATOM     16  CA  GLY B   5     -21.864 -26.764  43.923  1.00 80.50 LIG 0.21  C 
BRANCH 16 17
ATOM     17  C   GLY B   5     -22.701 -28.020  44.101  1.00 80.51 LIG 0.21  C 
ATOM     18 O    GLY B   5     -22.160 -29.154  43.968  1.00 80.50 LIG-0.29  OA
ENDBRANCH 16 17
ENDBRANCH 13 16
ENDBRANCH 10 12
ENDBRANCH 7 10
ENDBRANCH 1 6
BRANCH 1 19
ATOM     19  N   LEU B   3     -19.333 -22.600  40.463  1.00 80.50 LIG-0.35  N 
ATOM     20  C   ALA B   2     -18.758 -23.494  41.296  1.00 80.42 LIG 0.24  C 
ATOM     21 O    ALA B   2     -19.023 -23.558  42.526  1.00 80.43 LIG-0.27  OA
ATOM     22 H    LEU B   3     -18.933 -22.259  39.781  1.00 80.50 LIG 0.16  HD
BRANCH 20 23
ATOM     23  CA  ALA B   2     -17.583 -24.277  40.704  1.00 80.35 LIG 0.17  C 
ATOM     24  CB  ALA B   2     -16.509 -24.494  41.746  1.00 80.34 LIG 0.04  C 
BRANCH 23 25
ATOM     25  N   ALA B   2     -17.040 -23.518  39.572  1.00 80.28 LIG-0.35  N 
ATOM     26 H    ALA B   2     -16.935 -22.681  39.740  1.00 80.28 LIG 0.16  HD
ATOM     27  C   GLY B   1     -16.736 -24.065  38.397  1.00 80.20 LIG 0.24  C 
ATOM     28 O    GLY B   1     -16.919 -25.251  38.125  1.00 80.22 LIG-0.27  OA
BRANCH 27 29
ATOM     29  CA  GLY B   1     -16.134 -23.127  37.371  1.00 80.17 LIG 0.33  C 
BRANCH 29 30
ATOM     30  N   GLY B   1     -14.820 -22.558  37.790  1.00 80.00 LIG-0.07  N 
ATOM     31 H3   GLY B   1     -14.282 -23.216  38.055  1.00 80.00 LIG 0.27  HD
ATOM     32 H2   GLY B   1     -14.944 -21.988  38.463  1.00 80.00 LIG 0.27  HD
ATOM     33 H1   GLY B   1     -14.449 -22.130  37.103  1.00 80.00 LIG 0.27  HD
ENDBRANCH 29 30
ENDBRANCH 27 29
ENDBRANCH 23 25
ENDBRANCH 20 23
ENDBRANCH 1 19
TORSDOF 12
ENDMDL
MODEL 57
USER: ADFR SOLUTION from run 138
USER: SCORE 11.071764 LL:  -2.297 LR:  -9.265 RR:   0.000 FEB:  -5.685
USER: RMSD 9.487740
USER: SEED 137
USER: STATUS no improvement in best 28 clusters for 5 generations
USER: GENES 14
USER: genes 0 Translation |==|  0.32562 0.56173 0.49538
USER: genes 1 Rotation |==|  0.02866 0.40552 0.36558 0.52903
USER: genes 2 Torsion [C]-CA--CB-[CG] |==|  0.34489
USER: genes 3 Torsion [CA]-CB--CG-[CD1] |==|  0.32532
USER: genes 4 Torsion [N]-CA--C-[N] |==|  0.06286
USER: genes 5 Torsion [C]-N--CA-[CB] |==|  0.87205
USER: genes 6 Torsion [N]-CA--C-[N] |==|  0.92329
USER: genes 7 Torsion [C]-N--CA-[C] |==|  0.48997
USER: genes 8 Torsion [N]-CA--C-[O] |==|  0.98256
USER: genes 9 Torsion [CB]-CA--N-[C] |==|  0.17232
USER: genes 10 Torsion [N]-C--CA-[N] |==|  0.43811
USER: genes 11 Torsion [C]-CA--N-[C] |==|  0.58198
USER: genes 12 Torsion [N]-C--CA-[N] |==|  0.36127
USER: genes 13 Torsion [C]-CA--N-[H2] |==|  0.08862
ROOT
ATOM      1  CA  LEU B   3     -20.801 -22.528  39.901  1.00 80.55 LIG 0.18  C 
ENDROOT
BRANCH 1 2
ATOM      2  CB  LEU B   3     -19.301 -22.763  40.136  1.00 80.55 LIG 0.04  C 
BRANCH 2 3
ATOM      3  CG  LEU B   3     -18.326 -22.949  38.946  1.00 80.55 LIG-0.02  C 
ATOM      4  CD1 LEU B   3     -17.262 -21.797  38.916  1.00 80.53 LIG 0.01  C 
ATOM      5  CD2 LEU B   3     -17.605 -24.320  38.966  1.00 80.44 LIG 0.01  C 
ENDBRANCH 2 3
ENDBRANCH 1 2
BRANCH 1 6
ATOM      6  C   LEU B   3     -21.637 -23.572  40.638  1.00 80.58 LIG 0.24  C 
ATOM      7  N   ALA B   4     -22.767 -23.103  41.183  1.00 80.60 LIG-0.35  N 
ATOM      8 H    ALA B   4     -22.982 -22.271  41.148  1.00 80.60 LIG 0.16  HD
ATOM      9 O    LEU B   3     -21.281 -24.755  40.685  1.00 80.60 LIG-0.27  OA
BRANCH 7 10
ATOM     10  CA  ALA B   4     -23.765 -23.918  41.895  1.00 80.57 LIG 0.17  C 
ATOM     11  CB  ALA B   4     -24.075 -25.188  41.113  1.00 80.56 LIG 0.04  C 
BRANCH 10 12
ATOM     12  C   ALA B   4     -23.350 -24.230  43.333  1.00 80.56 LIG 0.24  C 
ATOM     13  N   GLY B   5     -22.034 -24.261  43.546  1.00 80.55 LIG-0.35  N 
ATOM     14 H    GLY B   5     -21.461 -24.053  42.940  1.00 80.55 LIG 0.16  HD
ATOM     15 O    ALA B   4     -24.195 -24.437  44.215  1.00 80.59 LIG-0.27  OA
BRANCH 13 16
ATOM     16  CA  GLY B   5     -21.417 -24.646  44.821  1.00 80.50 LIG 0.21  C 
BRANCH 16 17
ATOM     17  C   GLY B   5     -19.899 -24.704  44.856  1.00 80.51 LIG 0.21  C 
ATOM     18 O    GLY B   5     -19.245 -24.543  43.787  1.00 80.50 LIG-0.29  OA
ENDBRANCH 16 17
ENDBRANCH 13 16
ENDBRANCH 10 12
ENDBRANCH 7 10
ENDBRANCH 1 6
BRANCH 1 19
ATOM     19  N   LEU B   3     -21.232 -21.272  40.493  1.00 80.50 LIG-0.35  N 
ATOM     20  C   ALA B   2     -20.736 -20.081  40.096  1.00 80.42 LIG 0.24  C 
ATOM     21 O    ALA B   2     -19.554 -19.929  39.686  1.00 80.43 LIG-0.27  OA
ATOM     22 H    LEU B   3     -21.823 -21.360  41.112  1.00 80.50 LIG 0.16  HD
BRANCH 20 23
ATOM     23  CA  ALA B   2     -21.625 -18.871  40.394  1.00 80.35 LIG 0.17  C 
ATOM     24  CB  ALA B   2     -22.704 -18.731  39.344  1.00 80.34 LIG 0.04  C 
BRANCH 23 25
ATOM     25  N   ALA B   2     -20.785 -17.669  40.415  1.00 80.28 LIG-0.35  N 
ATOM     26 H    ALA B   2     -20.097 -17.723  39.901  1.00 80.28 LIG 0.16  HD
ATOM     27  C   GLY B   1     -21.053 -16.595  41.154  1.00 80.20 LIG 0.24  C 
ATOM     28 O    GLY B   1     -22.008 -16.516  41.927  1.00 80.22 LIG-0.27  OA
BRANCH 27 29
ATOM     29  CA  GLY B   1     -20.096 -15.432  40.998  1.00 80.17 LIG 0.33  C 
BRANCH 29 30
ATOM     30  N   GLY B   1     -20.783 -14.130  40.750  1.00 80.00 LIG-0.07  N 
ATOM     31 H3   GLY B   1     -20.279 -13.465  41.060  1.00 80.00 LIG 0.27  HD
ATOM     32 H2   GLY B   1     -21.569 -14.125  41.167  1.00 80.00 LIG 0.27  HD
ATOM     33 H1   GLY B   1     -20.910 -14.023  39.875  1.00 80.00 LIG 0.27  HD
ENDBRANCH 29 30
ENDBRANCH 27 29
ENDBRANCH 23 25
ENDBRANCH 20 23
ENDBRANCH 1 19
TORSDOF 12
ENDMDL
MODEL 58
USER: ADFR SOLUTION from run 144
USER: SCORE 10.303075 LL:  -2.135 LR:  -9.241 RR:   0.000 FEB:  -5.662
USER: RMSD 7.226860
USER: SEED 143
USER: STATUS no improvement in best 11 clusters for 5 generations
USER: GENES 14
USER: genes 0 Translation |==|  0.45652 0.59910 0.49716
USER: genes 1 Rotation |==|  0.53004 0.77945 0.13946 0.70253
USER: genes 2 Torsion [C]-CA--CB-[CG] |==|  0.27813
USER: genes 3 Torsion [CA]-CB--CG-[CD1] |==|  0.16593
USER: genes 4 Torsion [N]-CA--C-[N] |==|  0.34826
USER: genes 5 Torsion [C]-N--CA-[CB] |==|  0.86548
USER: genes 6 Torsion [N]-CA--C-[N] |==|  0.40724
USER: genes 7 Torsion [C]-N--CA-[C] |==|  0.56509
USER: genes 8 Torsion [N]-CA--C-[O] |==|  0.96229
USER: genes 9 Torsion [CB]-CA--N-[C] |==|  0.90540
USER: genes 10 Torsion [N]-C--CA-[N] |==|  0.24129
USER: genes 11 Torsion [C]-CA--N-[C] |==|  0.79732
USER: genes 12 Torsion [N]-C--CA-[N] |==|  0.33338
USER: genes 13 Torsion [C]-CA--N-[H2] |==|  0.43555
ROOT
ATOM      1  CA  LEU B   3     -16.874 -21.407  39.955  1.00 80.55 LIG 0.18  C 
ENDROOT
BRANCH 1 2
ATOM      2  CB  LEU B   3     -16.994 -22.487  38.868  1.00 80.55 LIG 0.04  C 
BRANCH 2 3
ATOM      3  CG  LEU B   3     -15.837 -23.481  38.599  1.00 80.55 LIG-0.02  C 
ATOM      4  CD1 LEU B   3     -15.514 -24.317  39.886  1.00 80.53 LIG 0.01  C 
ATOM      5  CD2 LEU B   3     -16.128 -24.441  37.418  1.00 80.44 LIG 0.01  C 
ENDBRANCH 2 3
ENDBRANCH 1 2
BRANCH 1 6
ATOM      6  C   LEU B   3     -16.519 -20.055  39.342  1.00 80.58 LIG 0.24  C 
ATOM      7  N   ALA B   4     -15.324 -19.570  39.706  1.00 80.60 LIG-0.35  N 
ATOM      8 H    ALA B   4     -14.817 -19.978  40.268  1.00 80.60 LIG 0.16  HD
ATOM      9 O    LEU B   3     -17.287 -19.491  38.554  1.00 80.60 LIG-0.27  OA
BRANCH 7 10
ATOM     10  CA  ALA B   4     -14.733 -18.317  39.210  1.00 80.57 LIG 0.17  C 
ATOM     11  CB  ALA B   4     -14.822 -18.247  37.691  1.00 80.56 LIG 0.04  C 
BRANCH 10 12
ATOM     12  C   ALA B   4     -15.346 -17.079  39.866  1.00 80.56 LIG 0.24  C 
ATOM     13  N   GLY B   5     -14.505 -16.059  40.040  1.00 80.55 LIG-0.35  N 
ATOM     14 H    GLY B   5     -13.697 -16.067  39.745  1.00 80.55 LIG 0.16  HD
ATOM     15 O    ALA B   4     -16.537 -17.054  40.203  1.00 80.59 LIG-0.27  OA
BRANCH 13 16
ATOM     16  CA  GLY B   5     -14.853 -14.819  40.745  1.00 80.50 LIG 0.21  C 
BRANCH 16 17
ATOM     17  C   GLY B   5     -14.036 -13.585  40.401  1.00 80.51 LIG 0.21  C 
ATOM     18 O    GLY B   5     -12.960 -13.711  39.750  1.00 80.50 LIG-0.29  OA
ENDBRANCH 16 17
ENDBRANCH 13 16
ENDBRANCH 10 12
ENDBRANCH 7 10
ENDBRANCH 1 6
BRANCH 1 19
ATOM     19  N   LEU B   3     -18.158 -21.162  40.590  1.00 80.50 LIG-0.35  N 
ATOM     20  C   ALA B   2     -19.324 -21.239  39.913  1.00 80.42 LIG 0.24  C 
ATOM     21 O    ALA B   2     -19.434 -20.939  38.694  1.00 80.43 LIG-0.27  OA
ATOM     22 H    LEU B   3     -18.105 -20.965  41.426  1.00 80.50 LIG 0.16  HD
BRANCH 20 23
ATOM     23  CA  ALA B   2     -20.564 -21.490  40.774  1.00 80.35 LIG 0.17  C 
ATOM     24  CB  ALA B   2     -21.630 -22.209  39.978  1.00 80.34 LIG 0.04  C 
BRANCH 23 25
ATOM     25  N   ALA B   2     -21.074 -20.198  41.244  1.00 80.28 LIG-0.35  N 
ATOM     26 H    ALA B   2     -21.801 -19.954  40.853  1.00 80.28 LIG 0.16  HD
ATOM     27  C   GLY B   1     -20.478 -19.468  42.185  1.00 80.20 LIG 0.24  C 
ATOM     28 O    GLY B   1     -19.417 -19.781  42.724  1.00 80.22 LIG-0.27  OA
BRANCH 27 29
ATOM     29  CA  GLY B   1     -21.188 -18.188  42.574  1.00 80.17 LIG 0.33  C 
BRANCH 29 30
ATOM     30  N   GLY B   1     -21.570 -18.139  44.016  1.00 80.00 LIG-0.07  N 
ATOM     31 H3   GLY B   1     -22.339 -18.571  44.134  1.00 80.00 LIG 0.27  HD
ATOM     32 H2   GLY B   1     -21.664 -17.291  44.270  1.00 80.00 LIG 0.27  HD
ATOM     33 H1   GLY B   1     -20.935 -18.527  44.505  1.00 80.00 LIG 0.27  HD
ENDBRANCH 29 30
ENDBRANCH 27 29
ENDBRANCH 23 25
ENDBRANCH 20 23
ENDBRANCH 1 19
TORSDOF 12
ENDMDL
MODEL 59
USER: ADFR SOLUTION from run 44
USER: SCORE 10.352446 LL:  -2.471 LR:  -9.243 RR:   0.000 FEB:  -5.663
USER: RMSD 4.993360
USER: SEED 43
USER: STATUS no improvement in best 13 clusters for 5 generations
USER: GENES 14
USER: genes 0 Translation |==|  0.49723 0.51616 0.50729
USER: genes 1 Rotation |==|  0.45021 0.98712 0.55355 0.58586
USER: genes 2 Torsion [C]-CA--CB-[CG] |==|  0.47066
USER: genes 3 Torsion [CA]-CB--CG-[CD1] |==|  0.82396
USER: genes 4 Torsion [N]-CA--C-[N] |==|  0.36459
USER: genes 5 Torsion [C]-N--CA-[CB] |==|  0.17988
USER: genes 6 Torsion [N]-CA--C-[N] |==|  0.06851
USER: genes 7 Torsion [C]-N--CA-[C] |==|  0.51841
USER: genes 8 Torsion [N]-CA--C-[O] |==|  0.70588
USER: genes 9 Torsion [CB]-CA--N-[C] |==|  0.55001
USER: genes 10 Torsion [N]-C--CA-[N] |==|  0.78457
USER: genes 11 Torsion [C]-CA--N-[C] |==|  0.80798
USER: genes 12 Torsion [N]-C--CA-[N] |==|  0.90678
USER: genes 13 Torsion [C]-CA--N-[H2] |==|  0.92932
ROOT
ATOM      1  CA  LEU B   3     -15.653 -23.895  40.259  1.00 80.55 LIG 0.18  C 
ENDROOT
BRANCH 1 2
ATOM      2  CB  LEU B   3     -16.814 -23.209  39.522  1.00 80.55 LIG 0.04  C 
BRANCH 2 3
ATOM      3  CG  LEU B   3     -16.915 -23.249  37.976  1.00 80.55 LIG-0.02  C 
ATOM      4  CD1 LEU B   3     -15.696 -22.510  37.323  1.00 80.53 LIG 0.01  C 
ATOM      5  CD2 LEU B   3     -17.007 -24.691  37.415  1.00 80.44 LIG 0.01  C 
ENDBRANCH 2 3
ENDBRANCH 1 2
BRANCH 1 6
ATOM      6  C   LEU B   3     -15.634 -23.499  41.733  1.00 80.58 LIG 0.24  C 
ATOM      7  N   ALA B   4     -14.617 -22.703  42.087  1.00 80.60 LIG-0.35  N 
ATOM      8 H    ALA B   4     -14.006 -22.465  41.530  1.00 80.60 LIG 0.16  HD
ATOM      9 O    LEU B   3     -16.520 -23.881  42.506  1.00 80.60 LIG-0.27  OA
BRANCH 7 10
ATOM     10  CA  ALA B   4     -14.410 -22.142  43.432  1.00 80.57 LIG 0.17  C 
ATOM     11  CB  ALA B   4     -14.141 -23.252  44.439  1.00 80.56 LIG 0.04  C 
BRANCH 10 12
ATOM     12  C   ALA B   4     -13.311 -21.078  43.461  1.00 80.56 LIG 0.24  C 
ATOM     13  N   GLY B   5     -13.089 -20.465  42.298  1.00 80.55 LIG-0.35  N 
ATOM     14 H    GLY B   5     -13.570 -20.605  41.600  1.00 80.55 LIG 0.16  HD
ATOM     15 O    ALA B   4     -12.689 -20.826  44.502  1.00 80.59 LIG-0.27  OA
BRANCH 13 16
ATOM     16  CA  GLY B   5     -12.011 -19.493  42.075  1.00 80.50 LIG 0.21  C 
BRANCH 16 17
ATOM     17  C   GLY B   5     -12.002 -18.779  40.734  1.00 80.51 LIG 0.21  C 
ATOM     18 O    GLY B   5     -11.144 -19.100  39.863  1.00 80.50 LIG-0.29  OA
ENDBRANCH 16 17
ENDBRANCH 13 16
ENDBRANCH 10 12
ENDBRANCH 7 10
ENDBRANCH 1 6
BRANCH 1 19
ATOM     19  N   LEU B   3     -15.840 -25.336  40.299  1.00 80.50 LIG-0.35  N 
ATOM     20  C   ALA B   2     -15.174 -26.124  41.171  1.00 80.42 LIG 0.24  C 
ATOM     21 O    ALA B   2     -14.005 -25.876  41.570  1.00 80.43 LIG-0.27  OA
ATOM     22 H    LEU B   3     -16.407 -25.634  39.724  1.00 80.50 LIG 0.16  HD
BRANCH 20 23
ATOM     23  CA  ALA B   2     -15.836 -27.473  41.468  1.00 80.35 LIG 0.17  C 
ATOM     24  CB  ALA B   2     -16.349 -28.107  40.195  1.00 80.34 LIG 0.04  C 
BRANCH 23 25
ATOM     25  N   ALA B   2     -16.944 -27.253  42.402  1.00 80.28 LIG-0.35  N 
ATOM     26 H    ALA B   2     -17.719 -27.377  42.049  1.00 80.28 LIG 0.16  HD
ATOM     27  C   GLY B   1     -16.777 -26.895  43.674  1.00 80.20 LIG 0.24  C 
ATOM     28 O    GLY B   1     -15.679 -26.671  44.183  1.00 80.22 LIG-0.27  OA
BRANCH 27 29
ATOM     29  CA  GLY B   1     -18.043 -26.770  44.495  1.00 80.17 LIG 0.33  C 
BRANCH 29 30
ATOM     30  N   GLY B   1     -19.214 -26.288  43.706  1.00 80.00 LIG-0.07  N 
ATOM     31 H3   GLY B   1     -19.684 -26.985  43.415  1.00 80.00 LIG 0.27  HD
ATOM     32 H2   GLY B   1     -18.928 -25.813  43.009  1.00 80.00 LIG 0.27  HD
ATOM     33 H1   GLY B   1     -19.730 -25.776  44.221  1.00 80.00 LIG 0.27  HD
ENDBRANCH 29 30
ENDBRANCH 27 29
ENDBRANCH 23 25
ENDBRANCH 20 23
ENDBRANCH 1 19
TORSDOF 12
ENDMDL
MODEL 60
USER: ADFR SOLUTION from run 145
USER: SCORE 10.252321 LL:  -2.178 LR:  -9.232 RR:   0.000 FEB:  -5.652
USER: RMSD 6.039763
USER: SEED 144
USER: STATUS no improvement in best 12 clusters for 5 generations
USER: GENES 14
USER: genes 0 Translation |==|  0.46312 0.43059 0.52887
USER: genes 1 Rotation |==|  0.83535 0.65284 0.23106 0.70458
USER: genes 2 Torsion [C]-CA--CB-[CG] |==|  0.55147
USER: genes 3 Torsion [CA]-CB--CG-[CD1] |==|  0.25276
USER: genes 4 Torsion [N]-CA--C-[N] |==|  0.15265
USER: genes 5 Torsion [C]-N--CA-[CB] |==|  0.81092
USER: genes 6 Torsion [N]-CA--C-[N] |==|  0.43747
USER: genes 7 Torsion [C]-N--CA-[C] |==|  0.71615
USER: genes 8 Torsion [N]-CA--C-[O] |==|  0.99645
USER: genes 9 Torsion [CB]-CA--N-[C] |==|  0.82222
USER: genes 10 Torsion [N]-C--CA-[N] |==|  0.24407
USER: genes 11 Torsion [C]-CA--N-[C] |==|  0.75587
USER: genes 12 Torsion [N]-C--CA-[N] |==|  0.43381
USER: genes 13 Torsion [C]-CA--N-[H2] |==|  0.94918
ROOT
ATOM      1  CA  LEU B   3     -16.676 -26.462  40.906  1.00 80.55 LIG 0.18  C 
ENDROOT
BRANCH 1 2
ATOM      2  CB  LEU B   3     -15.938 -27.300  39.850  1.00 80.55 LIG 0.04  C 
BRANCH 2 3
ATOM      3  CG  LEU B   3     -16.686 -27.873  38.620  1.00 80.55 LIG-0.02  C 
ATOM      4  CD1 LEU B   3     -16.625 -26.869  37.417  1.00 80.53 LIG 0.01  C 
ATOM      5  CD2 LEU B   3     -16.139 -29.252  38.171  1.00 80.44 LIG 0.01  C 
ENDBRANCH 2 3
ENDBRANCH 1 2
BRANCH 1 6
ATOM      6  C   LEU B   3     -15.691 -25.648  41.741  1.00 80.58 LIG 0.24  C 
ATOM      7  N   ALA B   4     -16.258 -24.793  42.603  1.00 80.60 LIG-0.35  N 
ATOM      8 H    ALA B   4     -17.110 -24.690  42.652  1.00 80.60 LIG 0.16  HD
ATOM      9 O    LEU B   3     -14.471 -25.811  41.623  1.00 80.60 LIG-0.27  OA
BRANCH 7 10
ATOM     10  CA  ALA B   4     -15.526 -23.941  43.553  1.00 80.57 LIG 0.17  C 
ATOM     11  CB  ALA B   4     -14.862 -24.788  44.631  1.00 80.56 LIG 0.04  C 
BRANCH 10 12
ATOM     12  C   ALA B   4     -14.518 -23.021  42.861  1.00 80.56 LIG 0.24  C 
ATOM     13  N   GLY B   5     -14.177 -21.935  43.555  1.00 80.55 LIG-0.35  N 
ATOM     14 H    GLY B   5     -14.448 -21.794  44.359  1.00 80.55 LIG 0.16  HD
ATOM     15 O    ALA B   4     -14.070 -23.290  41.738  1.00 80.59 LIG-0.27  OA
BRANCH 13 16
ATOM     16  CA  GLY B   5     -13.312 -20.868  43.037  1.00 80.50 LIG 0.21  C 
BRANCH 16 17
ATOM     17  C   GLY B   5     -11.869 -20.865  43.514  1.00 80.51 LIG 0.21  C 
ATOM     18 O    GLY B   5     -11.484 -21.744  44.337  1.00 80.50 LIG-0.29  OA
ENDBRANCH 16 17
ENDBRANCH 13 16
ENDBRANCH 10 12
ENDBRANCH 7 10
ENDBRANCH 1 6
BRANCH 1 19
ATOM     19  N   LEU B   3     -17.506 -25.447  40.279  1.00 80.50 LIG-0.35  N 
ATOM     20  C   ALA B   2     -16.983 -24.443  39.544  1.00 80.42 LIG 0.24  C 
ATOM     21 O    ALA B   2     -15.858 -23.927  39.782  1.00 80.43 LIG-0.27  OA
ATOM     22 H    LEU B   3     -18.349 -25.546  40.419  1.00 80.50 LIG 0.16  HD
BRANCH 20 23
ATOM     23  CA  ALA B   2     -17.943 -23.800  38.539  1.00 80.35 LIG 0.17  C 
ATOM     24  CB  ALA B   2     -17.184 -23.249  37.353  1.00 80.34 LIG 0.04  C 
BRANCH 23 25
ATOM     25  N   ALA B   2     -18.672 -22.722  39.215  1.00 80.28 LIG-0.35  N 
ATOM     26 H    ALA B   2     -18.294 -21.953  39.137  1.00 80.28 LIG 0.16  HD
ATOM     27  C   GLY B   1     -19.808 -22.906  39.884  1.00 80.20 LIG 0.24  C 
ATOM     28 O    GLY B   1     -20.339 -24.005  40.041  1.00 80.22 LIG-0.27  OA
BRANCH 27 29
ATOM     29  CA  GLY B   1     -20.439 -21.659  40.466  1.00 80.17 LIG 0.33  C 
BRANCH 29 30
ATOM     30  N   GLY B   1     -21.908 -21.790  40.693  1.00 80.00 LIG-0.07  N 
ATOM     31 H3   GLY B   1     -22.063 -21.939  41.557  1.00 80.00 LIG 0.27  HD
ATOM     32 H2   GLY B   1     -22.223 -22.472  40.214  1.00 80.00 LIG 0.27  HD
ATOM     33 H1   GLY B   1     -22.316 -21.039  40.444  1.00 80.00 LIG 0.27  HD
ENDBRANCH 29 30
ENDBRANCH 27 29
ENDBRANCH 23 25
ENDBRANCH 20 23
ENDBRANCH 1 19
TORSDOF 12
ENDMDL
MODEL 61
USER: ADFR SOLUTION from run 26
USER: SCORE 10.163274 LL:  -2.055 LR:  -9.233 RR:   0.000 FEB:  -5.653
USER: RMSD 6.416025
USER: SEED 25
USER: STATUS no improvement in best 6 clusters for 5 generations
USER: GENES 14
USER: genes 0 Translation |==|  0.41308 0.50007 0.48766
USER: genes 1 Rotation |==|  0.15978 0.15809 0.60677 0.57710
USER: genes 2 Torsion [C]-CA--CB-[CG] |==|  0.19069
USER: genes 3 Torsion [CA]-CB--CG-[CD1] |==|  0.65360
USER: genes 4 Torsion [N]-CA--C-[N] |==|  0.13197
USER: genes 5 Torsion [C]-N--CA-[CB] |==|  0.75010
USER: genes 6 Torsion [N]-CA--C-[N] |==|  0.25798
USER: genes 7 Torsion [C]-N--CA-[C] |==|  0.14406
USER: genes 8 Torsion [N]-CA--C-[O] |==|  0.03031
USER: genes 9 Torsion [CB]-CA--N-[C] |==|  0.15408
USER: genes 10 Torsion [N]-C--CA-[N] |==|  0.81606
USER: genes 11 Torsion [C]-CA--N-[C] |==|  0.60217
USER: genes 12 Torsion [N]-C--CA-[N] |==|  0.38853
USER: genes 13 Torsion [C]-CA--N-[H2] |==|  0.33790
ROOT
ATOM      1  CA  LEU B   3     -18.178 -24.378  39.670  1.00 80.55 LIG 0.18  C 
ENDROOT
BRANCH 1 2
ATOM      2  CB  LEU B   3     -17.762 -23.211  38.760  1.00 80.55 LIG 0.04  C 
BRANCH 2 3
ATOM      3  CG  LEU B   3     -16.823 -23.439  37.549  1.00 80.55 LIG-0.02  C 
ATOM      4  CD1 LEU B   3     -15.570 -22.499  37.635  1.00 80.53 LIG 0.01  C 
ATOM      5  CD2 LEU B   3     -16.357 -24.910  37.415  1.00 80.44 LIG 0.01  C 
ENDBRANCH 2 3
ENDBRANCH 1 2
BRANCH 1 6
ATOM      6  C   LEU B   3     -16.988 -24.889  40.478  1.00 80.58 LIG 0.24  C 
ATOM      7  N   ALA B   4     -17.306 -25.704  41.492  1.00 80.60 LIG-0.35  N 
ATOM      8 H    ALA B   4     -18.121 -25.893  41.689  1.00 80.60 LIG 0.16  HD
ATOM      9 O    LEU B   3     -15.830 -24.574  40.176  1.00 80.60 LIG-0.27  OA
BRANCH 7 10
ATOM     10  CA  ALA B   4     -16.338 -26.368  42.380  1.00 80.57 LIG 0.17  C 
ATOM     11  CB  ALA B   4     -15.940 -27.726  41.818  1.00 80.56 LIG 0.04  C 
BRANCH 10 12
ATOM     12  C   ALA B   4     -15.113 -25.498  42.668  1.00 80.56 LIG 0.24  C 
ATOM     13  N   GLY B   5     -15.198 -24.751  43.769  1.00 80.55 LIG-0.35  N 
ATOM     14 H    GLY B   5     -15.860 -24.803  44.316  1.00 80.55 LIG 0.16  HD
ATOM     15 O    ALA B   4     -14.130 -25.505  41.915  1.00 80.59 LIG-0.27  OA
BRANCH 13 16
ATOM     16  CA  GLY B   5     -14.188 -23.767  44.174  1.00 80.50 LIG 0.21  C 
BRANCH 16 17
ATOM     17  C   GLY B   5     -13.778 -22.740  43.131  1.00 80.51 LIG 0.21  C 
ATOM     18 O    GLY B   5     -14.447 -22.635  42.064  1.00 80.50 LIG-0.29  OA
ENDBRANCH 16 17
ENDBRANCH 13 16
ENDBRANCH 10 12
ENDBRANCH 7 10
ENDBRANCH 1 6
BRANCH 1 19
ATOM     19  N   LEU B   3     -19.113 -23.936  40.690  1.00 80.50 LIG-0.35  N 
ATOM     20  C   ALA B   2     -20.268 -23.307  40.385  1.00 80.42 LIG 0.24  C 
ATOM     21 O    ALA B   2     -20.396 -22.544  39.389  1.00 80.43 LIG-0.27  OA
ATOM     22 H    LEU B   3     -18.864 -24.111  41.495  1.00 80.50 LIG 0.16  HD
BRANCH 20 23
ATOM     23  CA  ALA B   2     -21.359 -23.387  41.456  1.00 80.35 LIG 0.17  C 
ATOM     24  CB  ALA B   2     -20.838 -22.888  42.785  1.00 80.34 LIG 0.04  C 
BRANCH 23 25
ATOM     25  N   ALA B   2     -21.791 -24.783  41.579  1.00 80.28 LIG-0.35  N 
ATOM     26 H    ALA B   2     -21.149 -25.349  41.489  1.00 80.28 LIG 0.16  HD
ATOM     27  C   GLY B   1     -23.051 -25.148  41.807  1.00 80.20 LIG 0.24  C 
ATOM     28 O    GLY B   1     -23.988 -24.355  41.896  1.00 80.22 LIG-0.27  OA
BRANCH 27 29
ATOM     29  CA  GLY B   1     -23.289 -26.636  41.957  1.00 80.17 LIG 0.33  C 
BRANCH 29 30
ATOM     30  N   GLY B   1     -24.265 -26.973  43.034  1.00 80.00 LIG-0.07  N 
ATOM     31 H3   GLY B   1     -23.862 -27.467  43.656  1.00 80.00 LIG 0.27  HD
ATOM     32 H2   GLY B   1     -24.945 -27.431  42.687  1.00 80.00 LIG 0.27  HD
ATOM     33 H1   GLY B   1     -24.570 -26.223  43.404  1.00 80.00 LIG 0.27  HD
ENDBRANCH 29 30
ENDBRANCH 27 29
ENDBRANCH 23 25
ENDBRANCH 20 23
ENDBRANCH 1 19
TORSDOF 12
ENDMDL
MODEL 62
USER: ADFR SOLUTION from run 92
USER: SCORE 9.925697 LL:  -2.215 LR:  -9.216 RR:   0.000 FEB:  -5.636
USER: RMSD 6.930816
USER: SEED 91
USER: STATUS no improvement in best 7 clusters for 5 generations
USER: GENES 14
USER: genes 0 Translation |==|  0.46564 0.42860 0.53995
USER: genes 1 Rotation |==|  0.85067 0.72542 0.26188 0.63971
USER: genes 2 Torsion [C]-CA--CB-[CG] |==|  0.47563
USER: genes 3 Torsion [CA]-CB--CG-[CD1] |==|  0.34780
USER: genes 4 Torsion [N]-CA--C-[N] |==|  0.87618
USER: genes 5 Torsion [C]-N--CA-[CB] |==|  0.53349
USER: genes 6 Torsion [N]-CA--C-[N] |==|  0.41366
USER: genes 7 Torsion [C]-N--CA-[C] |==|  0.43386
USER: genes 8 Torsion [N]-CA--C-[O] |==|  0.85965
USER: genes 9 Torsion [CB]-CA--N-[C] |==|  0.92220
USER: genes 10 Torsion [N]-C--CA-[N] |==|  0.10538
USER: genes 11 Torsion [C]-CA--N-[C] |==|  0.63732
USER: genes 12 Torsion [N]-C--CA-[N] |==|  0.36765
USER: genes 13 Torsion [C]-CA--N-[H2] |==|  0.54461
ROOT
ATOM      1  CA  LEU B   3     -16.601 -26.522  41.238  1.00 80.55 LIG 0.18  C 
ENDROOT
BRANCH 1 2
ATOM      2  CB  LEU B   3     -15.914 -26.815  39.896  1.00 80.55 LIG 0.04  C 
BRANCH 2 3
ATOM      3  CG  LEU B   3     -16.666 -27.549  38.757  1.00 80.55 LIG-0.02  C 
ATOM      4  CD1 LEU B   3     -16.629 -26.705  37.435  1.00 80.53 LIG 0.01  C 
ATOM      5  CD2 LEU B   3     -16.107 -28.967  38.481  1.00 80.44 LIG 0.01  C 
ENDBRANCH 2 3
ENDBRANCH 1 2
BRANCH 1 6
ATOM      6  C   LEU B   3     -15.597 -25.992  42.259  1.00 80.58 LIG 0.24  C 
ATOM      7  N   ALA B   4     -15.211 -24.725  42.062  1.00 80.60 LIG-0.35  N 
ATOM      8 H    ALA B   4     -15.483 -24.263  41.391  1.00 80.60 LIG 0.16  HD
ATOM      9 O    LEU B   3     -15.212 -26.699  43.199  1.00 80.60 LIG-0.27  OA
BRANCH 7 10
ATOM     10  CA  ALA B   4     -14.297 -23.973  42.937  1.00 80.57 LIG 0.17  C 
ATOM     11  CB  ALA B   4     -14.313 -22.492  42.582  1.00 80.56 LIG 0.04  C 
BRANCH 10 12
ATOM     12  C   ALA B   4     -14.588 -24.199  44.422  1.00 80.56 LIG 0.24  C 
ATOM     13  N   GLY B   5     -13.524 -24.129  45.222  1.00 80.55 LIG-0.35  N 
ATOM     14 H    GLY B   5     -12.743 -23.907  44.938  1.00 80.55 LIG 0.16  HD
ATOM     15 O    ALA B   4     -15.737 -24.428  44.823  1.00 80.59 LIG-0.27  OA
BRANCH 13 16
ATOM     16  CA  GLY B   5     -13.558 -24.419  46.661  1.00 80.50 LIG 0.21  C 
BRANCH 16 17
ATOM     17  C   GLY B   5     -12.247 -24.837  47.305  1.00 80.51 LIG 0.21  C 
ATOM     18 O    GLY B   5     -11.564 -25.764  46.783  1.00 80.50 LIG-0.29  OA
ENDBRANCH 16 17
ENDBRANCH 13 16
ENDBRANCH 10 12
ENDBRANCH 7 10
ENDBRANCH 1 6
BRANCH 1 19
ATOM     19  N   LEU B   3     -17.556 -25.434  41.109  1.00 80.50 LIG-0.35  N 
ATOM     20  C   ALA B   2     -17.415 -24.458  40.187  1.00 80.42 LIG 0.24  C 
ATOM     21 O    ALA B   2     -16.294 -24.034  39.797  1.00 80.43 LIG-0.27  OA
ATOM     22 H    LEU B   3     -18.209 -25.471  41.668  1.00 80.50 LIG 0.16  HD
BRANCH 20 23
ATOM     23  CA  ALA B   2     -18.705 -23.724  39.810  1.00 80.35 LIG 0.17  C 
ATOM     24  CB  ALA B   2     -18.393 -22.372  39.210  1.00 80.34 LIG 0.04  C 
BRANCH 23 25
ATOM     25  N   ALA B   2     -19.518 -23.561  41.019  1.00 80.28 LIG-0.35  N 
ATOM     26 H    ALA B   2     -19.081 -23.238  41.686  1.00 80.28 LIG 0.16  HD
ATOM     27  C   GLY B   1     -20.810 -23.880  41.088  1.00 80.20 LIG 0.24  C 
ATOM     28 O    GLY B   1     -21.441 -24.383  40.159  1.00 80.22 LIG-0.27  OA
BRANCH 27 29
ATOM     29  CA  GLY B   1     -21.491 -23.587  42.408  1.00 80.17 LIG 0.33  C 
BRANCH 29 30
ATOM     30  N   GLY B   1     -22.796 -22.880  42.255  1.00 80.00 LIG-0.07  N 
ATOM     31 H3   GLY B   1     -22.714 -22.230  41.652  1.00 80.00 LIG 0.27  HD
ATOM     32 H2   GLY B   1     -23.038 -22.529  43.037  1.00 80.00 LIG 0.27  HD
ATOM     33 H1   GLY B   1     -23.418 -23.458  41.985  1.00 80.00 LIG 0.27  HD
ENDBRANCH 29 30
ENDBRANCH 27 29
ENDBRANCH 23 25
ENDBRANCH 20 23
ENDBRANCH 1 19
TORSDOF 12
ENDMDL
MODEL 63
USER: ADFR SOLUTION from run 82
USER: SCORE 9.778867 LL:  -2.082 LR:  -9.218 RR:   0.000 FEB:  -5.639
USER: RMSD 7.027243
USER: SEED 81
USER: STATUS no improvement in best 16 clusters for 5 generations
USER: GENES 14
USER: genes 0 Translation |==|  0.38275 0.51268 0.50588
USER: genes 1 Rotation |==|  0.21487 0.10858 0.58842 0.58760
USER: genes 2 Torsion [C]-CA--CB-[CG] |==|  0.15790
USER: genes 3 Torsion [CA]-CB--CG-[CD1] |==|  0.74890
USER: genes 4 Torsion [N]-CA--C-[N] |==|  0.30264
USER: genes 5 Torsion [C]-N--CA-[CB] |==|  0.19444
USER: genes 6 Torsion [N]-CA--C-[N] |==|  0.07362
USER: genes 7 Torsion [C]-N--CA-[C] |==|  0.41899
USER: genes 8 Torsion [N]-CA--C-[O] |==|  0.65444
USER: genes 9 Torsion [CB]-CA--N-[C] |==|  0.94648
USER: genes 10 Torsion [N]-C--CA-[N] |==|  0.01804
USER: genes 11 Torsion [C]-CA--N-[C] |==|  0.78738
USER: genes 12 Torsion [N]-C--CA-[N] |==|  0.21764
USER: genes 13 Torsion [C]-CA--N-[H2] |==|  0.13563
ROOT
ATOM      1  CA  LEU B   3     -19.088 -23.999  40.216  1.00 80.55 LIG 0.18  C 
ENDROOT
BRANCH 1 2
ATOM      2  CB  LEU B   3     -19.007 -22.639  39.506  1.00 80.55 LIG 0.04  C 
BRANCH 2 3
ATOM      3  CG  LEU B   3     -17.881 -22.337  38.485  1.00 80.55 LIG-0.02  C 
ATOM      4  CD1 LEU B   3     -16.639 -21.703  39.202  1.00 80.53 LIG 0.01  C 
ATOM      5  CD2 LEU B   3     -17.437 -23.590  37.689  1.00 80.44 LIG 0.01  C 
ENDBRANCH 2 3
ENDBRANCH 1 2
BRANCH 1 6
ATOM      6  C   LEU B   3     -17.793 -24.299  40.967  1.00 80.58 LIG 0.24  C 
ATOM      7  N   ALA B   4     -17.292 -25.524  40.756  1.00 80.60 LIG-0.35  N 
ATOM      8 H    ALA B   4     -17.692 -26.103  40.263  1.00 80.60 LIG 0.16  HD
ATOM      9 O    LEU B   3     -17.261 -23.444  41.685  1.00 80.60 LIG-0.27  OA
BRANCH 7 10
ATOM     10  CA  ALA B   4     -16.030 -26.030  41.320  1.00 80.57 LIG 0.17  C 
ATOM     11  CB  ALA B   4     -16.162 -26.243  42.822  1.00 80.56 LIG 0.04  C 
BRANCH 10 12
ATOM     12  C   ALA B   4     -15.538 -27.295  40.614  1.00 80.56 LIG 0.24  C 
ATOM     13  N   GLY B   5     -15.939 -27.427  39.349  1.00 80.55 LIG-0.35  N 
ATOM     14 H    GLY B   5     -16.383 -26.817  38.937  1.00 80.55 LIG 0.16  HD
ATOM     15 O    ALA B   4     -14.823 -28.119  41.199  1.00 80.59 LIG-0.27  OA
BRANCH 13 16
ATOM     16  CA  GLY B   5     -15.675 -28.611  38.523  1.00 80.50 LIG 0.21  C 
BRANCH 16 17
ATOM     17  C   GLY B   5     -16.692 -28.930  37.440  1.00 80.51 LIG 0.21  C 
ATOM     18 O    GLY B   5     -17.238 -30.069  37.415  1.00 80.50 LIG-0.29  OA
ENDBRANCH 16 17
ENDBRANCH 13 16
ENDBRANCH 10 12
ENDBRANCH 7 10
ENDBRANCH 1 6
BRANCH 1 19
ATOM     19  N   LEU B   3     -20.090 -23.980  41.268  1.00 80.50 LIG-0.35  N 
ATOM     20  C   ALA B   2     -20.551 -22.829  41.803  1.00 80.42 LIG 0.24  C 
ATOM     21 O    ALA B   2     -19.842 -21.794  41.928  1.00 80.43 LIG-0.27  OA
ATOM     22 H    LEU B   3     -20.358 -24.760  41.514  1.00 80.50 LIG 0.16  HD
BRANCH 20 23
ATOM     23  CA  ALA B   2     -21.926 -22.923  42.471  1.00 80.35 LIG 0.17  C 
ATOM     24  CB  ALA B   2     -21.872 -22.380  43.880  1.00 80.34 LIG 0.04  C 
BRANCH 23 25
ATOM     25  N   ALA B   2     -22.339 -24.331  42.490  1.00 80.28 LIG-0.35  N 
ATOM     26 H    ALA B   2     -22.254 -24.702  43.262  1.00 80.28 LIG 0.16  HD
ATOM     27  C   GLY B   1     -22.801 -24.978  41.422  1.00 80.20 LIG 0.24  C 
ATOM     28 O    GLY B   1     -22.889 -24.476  40.302  1.00 80.22 LIG-0.27  OA
BRANCH 27 29
ATOM     29  CA  GLY B   1     -23.229 -26.412  41.656  1.00 80.17 LIG 0.33  C 
BRANCH 29 30
ATOM     30  N   GLY B   1     -24.570 -26.531  42.300  1.00 80.00 LIG-0.07  N 
ATOM     31 H3   GLY B   1     -24.841 -27.378  42.266  1.00 80.00 LIG 0.27  HD
ATOM     32 H2   GLY B   1     -25.154 -26.016  41.868  1.00 80.00 LIG 0.27  HD
ATOM     33 H1   GLY B   1     -24.516 -26.271  43.149  1.00 80.00 LIG 0.27  HD
ENDBRANCH 29 30
ENDBRANCH 27 29
ENDBRANCH 23 25
ENDBRANCH 20 23
ENDBRANCH 1 19
TORSDOF 12
ENDMDL
MODEL 64
USER: ADFR SOLUTION from run 126
USER: SCORE 10.732884 LL:  -2.304 LR:  -9.207 RR:   0.000 FEB:  -5.628
USER: RMSD 9.679067
USER: SEED 125
USER: STATUS no improvement in best 30 clusters for 5 generations
USER: GENES 14
USER: genes 0 Translation |==|  0.26403 0.41997 0.60055
USER: genes 1 Rotation |==|  0.30234 0.04121 0.51977 0.50685
USER: genes 2 Torsion [C]-CA--CB-[CG] |==|  0.41640
USER: genes 3 Torsion [CA]-CB--CG-[CD1] |==|  0.64071
USER: genes 4 Torsion [N]-CA--C-[N] |==|  0.40981
USER: genes 5 Torsion [C]-N--CA-[CB] |==|  0.17167
USER: genes 6 Torsion [N]-CA--C-[N] |==|  0.08413
USER: genes 7 Torsion [C]-N--CA-[C] |==|  0.80816
USER: genes 8 Torsion [N]-CA--C-[O] |==|  0.49299
USER: genes 9 Torsion [CB]-CA--N-[C] |==|  0.53346
USER: genes 10 Torsion [N]-C--CA-[N] |==|  0.97262
USER: genes 11 Torsion [C]-CA--N-[C] |==|  0.71286
USER: genes 12 Torsion [N]-C--CA-[N] |==|  0.36990
USER: genes 13 Torsion [C]-CA--N-[H2] |==|  0.60950
ROOT
ATOM      1  CA  LEU B   3     -22.649 -26.781  43.056  1.00 80.55 LIG 0.18  C 
ENDROOT
BRANCH 1 2
ATOM      2  CB  LEU B   3     -22.940 -25.376  42.505  1.00 80.55 LIG 0.04  C 
BRANCH 2 3
ATOM      3  CG  LEU B   3     -23.246 -25.156  41.002  1.00 80.55 LIG-0.02  C 
ATOM      4  CD1 LEU B   3     -22.345 -24.015  40.415  1.00 80.53 LIG 0.01  C 
ATOM      5  CD2 LEU B   3     -23.070 -26.442  40.156  1.00 80.44 LIG 0.01  C 
ENDBRANCH 2 3
ENDBRANCH 1 2
BRANCH 1 6
ATOM      6  C   LEU B   3     -21.705 -26.711  44.254  1.00 80.58 LIG 0.24  C 
ATOM      7  N   ALA B   4     -20.407 -26.852  43.955  1.00 80.60 LIG-0.35  N 
ATOM      8 H    ALA B   4     -20.136 -27.005  43.154  1.00 80.60 LIG 0.16  HD
ATOM      9 O    LEU B   3     -22.139 -26.512  45.395  1.00 80.60 LIG-0.27  OA
BRANCH 7 10
ATOM     10  CA  ALA B   4     -19.302 -26.767  44.923  1.00 80.57 LIG 0.17  C 
ATOM     11  CB  ALA B   4     -19.429 -27.859  45.978  1.00 80.56 LIG 0.04  C 
BRANCH 10 12
ATOM     12  C   ALA B   4     -17.929 -26.793  44.250  1.00 80.56 LIG 0.24  C 
ATOM     13  N   GLY B   5     -17.892 -26.267  43.025  1.00 80.55 LIG-0.35  N 
ATOM     14 H    GLY B   5     -18.570 -25.880  42.665  1.00 80.55 LIG 0.16  HD
ATOM     15 O    ALA B   4     -16.942 -27.274  44.823  1.00 80.59 LIG-0.27  OA
BRANCH 13 16
ATOM     16  CA  GLY B   5     -16.707 -26.286  42.159  1.00 80.50 LIG 0.21  C 
BRANCH 16 17
ATOM     17  C   GLY B   5     -15.533 -25.421  42.587  1.00 80.51 LIG 0.21  C 
ATOM     18 O    GLY B   5     -14.468 -25.435  41.907  1.00 80.50 LIG-0.29  OA
ENDBRANCH 16 17
ENDBRANCH 13 16
ENDBRANCH 10 12
ENDBRANCH 7 10
ENDBRANCH 1 6
BRANCH 1 19
ATOM     19  N   LEU B   3     -23.851 -27.384  43.609  1.00 80.50 LIG-0.35  N 
ATOM     20  C   ALA B   2     -23.814 -28.504  44.362  1.00 80.42 LIG 0.24  C 
ATOM     21 O    ALA B   2     -22.966 -29.421  44.192  1.00 80.43 LIG-0.27  OA
ATOM     22 H    LEU B   3     -24.576 -26.965  43.414  1.00 80.50 LIG 0.16  HD
BRANCH 20 23
ATOM     23  CA  ALA B   2     -25.015 -28.708  45.289  1.00 80.35 LIG 0.17  C 
ATOM     24  CB  ALA B   2     -25.855 -29.875  44.823  1.00 80.34 LIG 0.04  C 
BRANCH 23 25
ATOM     25  N   ALA B   2     -25.816 -27.480  45.290  1.00 80.28 LIG-0.35  N 
ATOM     26 H    ALA B   2     -26.297 -27.384  44.583  1.00 80.28 LIG 0.16  HD
ATOM     27  C   GLY B   1     -25.807 -26.594  46.285  1.00 80.20 LIG 0.24  C 
ATOM     28 O    GLY B   1     -25.095 -26.694  47.284  1.00 80.22 LIG-0.27  OA
BRANCH 27 29
ATOM     29  CA  GLY B   1     -26.746 -25.417  46.127  1.00 80.17 LIG 0.33  C 
BRANCH 29 30
ATOM     30  N   GLY B   1     -27.547 -25.130  47.353  1.00 80.00 LIG-0.07  N 
ATOM     31 H3   GLY B   1     -27.570 -25.855  47.869  1.00 80.00 LIG 0.27  HD
ATOM     32 H2   GLY B   1     -28.377 -24.906  47.120  1.00 80.00 LIG 0.27  HD
ATOM     33 H1   GLY B   1     -27.173 -24.458  47.802  1.00 80.00 LIG 0.27  HD
ENDBRANCH 29 30
ENDBRANCH 27 29
ENDBRANCH 23 25
ENDBRANCH 20 23
ENDBRANCH 1 19
TORSDOF 12
ENDMDL
MODEL 65
USER: ADFR SOLUTION from run 73
USER: SCORE 10.745796 LL:  -2.399 LR:  -9.193 RR:   0.000 FEB:  -5.613
USER: RMSD 6.423564
USER: SEED 72
USER: STATUS no improvement in best 7 clusters for 5 generations
USER: GENES 14
USER: genes 0 Translation |==|  0.44981 0.57960 0.47881
USER: genes 1 Rotation |==|  0.60183 0.75898 0.24057 0.82443
USER: genes 2 Torsion [C]-CA--CB-[CG] |==|  0.45719
USER: genes 3 Torsion [CA]-CB--CG-[CD1] |==|  0.93845
USER: genes 4 Torsion [N]-CA--C-[N] |==|  0.46213
USER: genes 5 Torsion [C]-N--CA-[CB] |==|  0.76511
USER: genes 6 Torsion [N]-CA--C-[N] |==|  0.10248
USER: genes 7 Torsion [C]-N--CA-[C] |==|  0.27654
USER: genes 8 Torsion [N]-CA--C-[O] |==|  0.57956
USER: genes 9 Torsion [CB]-CA--N-[C] |==|  0.52778
USER: genes 10 Torsion [N]-C--CA-[N] |==|  0.35525
USER: genes 11 Torsion [C]-CA--N-[C] |==|  0.80731
USER: genes 12 Torsion [N]-C--CA-[N] |==|  0.87625
USER: genes 13 Torsion [C]-CA--N-[H2] |==|  0.65162
ROOT
ATOM      1  CA  LEU B   3     -17.076 -21.992  39.404  1.00 80.55 LIG 0.18  C 
ENDROOT
BRANCH 1 2
ATOM      2  CB  LEU B   3     -16.243 -22.641  38.288  1.00 80.55 LIG 0.04  C 
BRANCH 2 3
ATOM      3  CG  LEU B   3     -15.814 -24.127  38.372  1.00 80.55 LIG-0.02  C 
ATOM      4  CD1 LEU B   3     -15.829 -24.625  39.859  1.00 80.53 LIG 0.01  C 
ATOM      5  CD2 LEU B   3     -16.698 -25.059  37.505  1.00 80.44 LIG 0.01  C 
ENDBRANCH 2 3
ENDBRANCH 1 2
BRANCH 1 6
ATOM      6  C   LEU B   3     -17.048 -20.470  39.290  1.00 80.58 LIG 0.24  C 
ATOM      7  N   ALA B   4     -15.899 -19.899  39.675  1.00 80.60 LIG-0.35  N 
ATOM      8 H    ALA B   4     -15.245 -20.356  39.993  1.00 80.60 LIG 0.16  HD
ATOM      9 O    LEU B   3     -18.020 -19.847  38.847  1.00 80.60 LIG-0.27  OA
BRANCH 7 10
ATOM     10  CA  ALA B   4     -15.607 -18.458  39.608  1.00 80.57 LIG 0.17  C 
ATOM     11  CB  ALA B   4     -15.102 -18.078  38.222  1.00 80.56 LIG 0.04  C 
BRANCH 10 12
ATOM     12  C   ALA B   4     -16.799 -17.597  40.027  1.00 80.56 LIG 0.24  C 
ATOM     13  N   GLY B   5     -17.529 -18.093  41.027  1.00 80.55 LIG-0.35  N 
ATOM     14 H    GLY B   5     -17.310 -18.808  41.451  1.00 80.55 LIG 0.16  HD
ATOM     15 O    ALA B   4     -17.046 -16.523  39.461  1.00 80.59 LIG-0.27  OA
BRANCH 13 16
ATOM     16  CA  GLY B   5     -18.775 -17.488  41.513  1.00 80.50 LIG 0.21  C 
BRANCH 16 17
ATOM     17  C   GLY B   5     -20.073 -18.104  41.019  1.00 80.51 LIG 0.21  C 
ATOM     18 O    GLY B   5     -21.107 -17.384  40.921  1.00 80.50 LIG-0.29  OA
ENDBRANCH 16 17
ENDBRANCH 13 16
ENDBRANCH 10 12
ENDBRANCH 7 10
ENDBRANCH 1 6
BRANCH 1 19
ATOM     19  N   LEU B   3     -18.485 -22.315  39.258  1.00 80.50 LIG-0.35  N 
ATOM     20  C   ALA B   2     -19.443 -21.709  39.992  1.00 80.42 LIG 0.24  C 
ATOM     21 O    ALA B   2     -19.259 -21.315  41.175  1.00 80.43 LIG-0.27  OA
ATOM     22 H    LEU B   3     -18.648 -22.920  38.668  1.00 80.50 LIG 0.16  HD
BRANCH 20 23
ATOM     23  CA  ALA B   2     -20.848 -21.739  39.385  1.00 80.35 LIG 0.17  C 
ATOM     24  CB  ALA B   2     -21.273 -20.352  38.958  1.00 80.34 LIG 0.04  C 
BRANCH 23 25
ATOM     25  N   ALA B   2     -21.779 -22.263  40.390  1.00 80.28 LIG-0.35  N 
ATOM     26 H    ALA B   2     -22.327 -21.672  40.690  1.00 80.28 LIG 0.16  HD
ATOM     27  C   GLY B   1     -21.782 -23.529  40.802  1.00 80.20 LIG 0.24  C 
ATOM     28 O    GLY B   1     -20.978 -24.377  40.416  1.00 80.22 LIG-0.27  OA
BRANCH 27 29
ATOM     29  CA  GLY B   1     -22.857 -23.892  41.805  1.00 80.17 LIG 0.33  C 
BRANCH 29 30
ATOM     30  N   GLY B   1     -23.015 -22.883  42.893  1.00 80.00 LIG-0.07  N 
ATOM     31 H3   GLY B   1     -22.385 -22.259  42.813  1.00 80.00 LIG 0.27  HD
ATOM     32 H2   GLY B   1     -22.937 -23.284  43.684  1.00 80.00 LIG 0.27  HD
ATOM     33 H1   GLY B   1     -23.818 -22.503  42.831  1.00 80.00 LIG 0.27  HD
ENDBRANCH 29 30
ENDBRANCH 27 29
ENDBRANCH 23 25
ENDBRANCH 20 23
ENDBRANCH 1 19
TORSDOF 12
ENDMDL
MODEL 66
USER: ADFR SOLUTION from run 23
USER: SCORE 10.792163 LL:  -2.454 LR:  -9.188 RR:   0.000 FEB:  -5.608
USER: RMSD 5.592981
USER: SEED 22
USER: STATUS no improvement in best 9 clusters for 5 generations
USER: GENES 14
USER: genes 0 Translation |==|  0.45965 0.44453 0.52256
USER: genes 1 Rotation |==|  0.80194 0.57618 0.21515 0.76812
USER: genes 2 Torsion [C]-CA--CB-[CG] |==|  0.61599
USER: genes 3 Torsion [CA]-CB--CG-[CD1] |==|  0.17703
USER: genes 4 Torsion [N]-CA--C-[N] |==|  0.30180
USER: genes 5 Torsion [C]-N--CA-[CB] |==|  0.88882
USER: genes 6 Torsion [N]-CA--C-[N] |==|  0.87778
USER: genes 7 Torsion [C]-N--CA-[C] |==|  0.65994
USER: genes 8 Torsion [N]-CA--C-[O] |==|  0.64004
USER: genes 9 Torsion [CB]-CA--N-[C] |==|  0.57994
USER: genes 10 Torsion [N]-C--CA-[N] |==|  0.39615
USER: genes 11 Torsion [C]-CA--N-[C] |==|  0.86953
USER: genes 12 Torsion [N]-C--CA-[N] |==|  0.16726
USER: genes 13 Torsion [C]-CA--N-[H2] |==|  0.48972
ROOT
ATOM      1  CA  LEU B   3     -16.781 -26.044  40.717  1.00 80.55 LIG 0.18  C 
ENDROOT
BRANCH 1 2
ATOM      2  CB  LEU B   3     -16.026 -27.261  40.159  1.00 80.55 LIG 0.04  C 
BRANCH 2 3
ATOM      3  CG  LEU B   3     -16.470 -27.939  38.839  1.00 80.55 LIG-0.02  C 
ATOM      4  CD1 LEU B   3     -16.319 -26.951  37.630  1.00 80.53 LIG 0.01  C 
ATOM      5  CD2 LEU B   3     -15.690 -29.245  38.540  1.00 80.44 LIG 0.01  C 
ENDBRANCH 2 3
ENDBRANCH 1 2
BRANCH 1 6
ATOM      6  C   LEU B   3     -15.806 -24.998  41.251  1.00 80.58 LIG 0.24  C 
ATOM      7  N   ALA B   4     -16.104 -24.521  42.467  1.00 80.60 LIG-0.35  N 
ATOM      8 H    ALA B   4     -16.810 -24.764  42.893  1.00 80.60 LIG 0.16  HD
ATOM      9 O    LEU B   3     -14.813 -24.659  40.595  1.00 80.60 LIG-0.27  OA
BRANCH 7 10
ATOM     10  CA  ALA B   4     -15.292 -23.550  43.217  1.00 80.57 LIG 0.17  C 
ATOM     11  CB  ALA B   4     -13.809 -23.852  43.054  1.00 80.56 LIG 0.04  C 
BRANCH 10 12
ATOM     12  C   ALA B   4     -15.615 -22.102  42.843  1.00 80.56 LIG 0.24  C 
ATOM     13  N   GLY B   5     -15.744 -21.874  41.535  1.00 80.55 LIG-0.35  N 
ATOM     14 H    GLY B   5     -15.717 -22.502  40.949  1.00 80.55 LIG 0.16  HD
ATOM     15 O    ALA B   4     -15.741 -21.228  43.710  1.00 80.59 LIG-0.27  OA
BRANCH 13 16
ATOM     16  CA  GLY B   5     -15.945 -20.542  40.951  1.00 80.50 LIG 0.21  C 
BRANCH 16 17
ATOM     17  C   GLY B   5     -17.191 -20.349  40.102  1.00 80.51 LIG 0.21  C 
ATOM     18 O    GLY B   5     -17.087 -19.840  38.950  1.00 80.50 LIG-0.29  OA
ENDBRANCH 16 17
ENDBRANCH 13 16
ENDBRANCH 10 12
ENDBRANCH 7 10
ENDBRANCH 1 6
BRANCH 1 19
ATOM     19  N   LEU B   3     -17.486 -25.339  39.660  1.00 80.50 LIG-0.35  N 
ATOM     20  C   ALA B   2     -17.732 -24.012  39.718  1.00 80.42 LIG 0.24  C 
ATOM     21 O    ALA B   2     -17.943 -23.397  40.798  1.00 80.43 LIG-0.27  OA
ATOM     22 H    LEU B   3     -17.728 -25.840  39.003  1.00 80.50 LIG 0.16  HD
BRANCH 20 23
ATOM     23  CA  ALA B   2     -17.977 -23.333  38.368  1.00 80.35 LIG 0.17  C 
ATOM     24  CB  ALA B   2     -16.707 -22.694  37.855  1.00 80.34 LIG 0.04  C 
BRANCH 23 25
ATOM     25  N   ALA B   2     -19.018 -22.314  38.541  1.00 80.28 LIG-0.35  N 
ATOM     26 H    ALA B   2     -18.819 -21.558  38.183  1.00 80.28 LIG 0.16  HD
ATOM     27  C   GLY B   1     -20.162 -22.531  39.188  1.00 80.20 LIG 0.24  C 
ATOM     28 O    GLY B   1     -20.444 -23.593  39.742  1.00 80.22 LIG-0.27  OA
BRANCH 27 29
ATOM     29  CA  GLY B   1     -21.134 -21.371  39.212  1.00 80.17 LIG 0.33  C 
BRANCH 29 30
ATOM     30  N   GLY B   1     -21.570 -20.936  37.852  1.00 80.00 LIG-0.07  N 
ATOM     31 H3   GLY B   1     -20.868 -20.630  37.399  1.00 80.00 LIG 0.27  HD
ATOM     32 H2   GLY B   1     -22.179 -20.291  37.927  1.00 80.00 LIG 0.27  HD
ATOM     33 H1   GLY B   1     -21.924 -21.629  37.418  1.00 80.00 LIG 0.27  HD
ENDBRANCH 29 30
ENDBRANCH 27 29
ENDBRANCH 23 25
ENDBRANCH 20 23
ENDBRANCH 1 19
TORSDOF 12
ENDMDL
MODEL 67
USER: ADFR SOLUTION from run 47
USER: SCORE 10.209002 LL:  -2.491 LR:  -9.192 RR:   0.000 FEB:  -5.612
USER: RMSD 6.681212
USER: SEED 46
USER: STATUS no improvement in best 39 clusters for 5 generations
USER: GENES 14
USER: genes 0 Translation |==|  0.45053 0.42373 0.46590
USER: genes 1 Rotation |==|  0.93026 0.60302 0.30446 0.62660
USER: genes 2 Torsion [C]-CA--CB-[CG] |==|  0.30526
USER: genes 3 Torsion [CA]-CB--CG-[CD1] |==|  0.89530
USER: genes 4 Torsion [N]-CA--C-[N] |==|  0.15872
USER: genes 5 Torsion [C]-N--CA-[CB] |==|  0.14680
USER: genes 6 Torsion [N]-CA--C-[N] |==|  0.06123
USER: genes 7 Torsion [C]-N--CA-[C] |==|  0.41343
USER: genes 8 Torsion [N]-CA--C-[O] |==|  0.07099
USER: genes 9 Torsion [CB]-CA--N-[C] |==|  0.82778
USER: genes 10 Torsion [N]-C--CA-[N] |==|  0.13176
USER: genes 11 Torsion [C]-CA--N-[C] |==|  0.14039
USER: genes 12 Torsion [N]-C--CA-[N] |==|  0.88812
USER: genes 13 Torsion [C]-CA--N-[H2] |==|  0.99602
ROOT
ATOM      1  CA  LEU B   3     -17.054 -26.668  39.017  1.00 80.55 LIG 0.18  C 
ENDROOT
BRANCH 1 2
ATOM      2  CB  LEU B   3     -16.141 -27.389  38.013  1.00 80.55 LIG 0.04  C 
BRANCH 2 3
ATOM      3  CG  LEU B   3     -16.455 -28.830  37.540  1.00 80.55 LIG-0.02  C 
ATOM      4  CD1 LEU B   3     -17.026 -29.689  38.722  1.00 80.53 LIG 0.01  C 
ATOM      5  CD2 LEU B   3     -17.441 -28.872  36.346  1.00 80.44 LIG 0.01  C 
ENDBRANCH 2 3
ENDBRANCH 1 2
BRANCH 1 6
ATOM      6  C   LEU B   3     -16.362 -26.513  40.369  1.00 80.58 LIG 0.24  C 
ATOM      7  N   ALA B   4     -17.059 -25.823  41.281  1.00 80.60 LIG-0.35  N 
ATOM      8 H    ALA B   4     -17.821 -25.468  41.102  1.00 80.60 LIG 0.16  HD
ATOM      9 O    LEU B   3     -15.254 -27.022  40.578  1.00 80.60 LIG-0.27  OA
BRANCH 7 10
ATOM     10  CA  ALA B   4     -16.633 -25.586  42.669  1.00 80.57 LIG 0.17  C 
ATOM     11  CB  ALA B   4     -15.232 -24.988  42.705  1.00 80.56 LIG 0.04  C 
BRANCH 10 12
ATOM     12  C   ALA B   4     -17.630 -24.729  43.451  1.00 80.56 LIG 0.24  C 
ATOM     13  N   GLY B   5     -18.871 -24.723  42.964  1.00 80.55 LIG-0.35  N 
ATOM     14 H    GLY B   5     -19.113 -25.215  42.302  1.00 80.55 LIG 0.16  HD
ATOM     15 O    ALA B   4     -17.282 -24.097  44.458  1.00 80.59 LIG-0.27  OA
BRANCH 13 16
ATOM     16  CA  GLY B   5     -19.956 -23.886  43.491  1.00 80.50 LIG 0.21  C 
BRANCH 16 17
ATOM     17  C   GLY B   5     -21.008 -23.424  42.497  1.00 80.51 LIG 0.21  C 
ATOM     18 O    GLY B   5     -21.221 -24.105  41.454  1.00 80.50 LIG-0.29  OA
ENDBRANCH 16 17
ENDBRANCH 13 16
ENDBRANCH 10 12
ENDBRANCH 7 10
ENDBRANCH 1 6
BRANCH 1 19
ATOM     19  N   LEU B   3     -17.301 -25.296  38.606  1.00 80.50 LIG-0.35  N 
ATOM     20  C   ALA B   2     -16.308 -24.389  38.488  1.00 80.42 LIG 0.24  C 
ATOM     21 O    ALA B   2     -15.281 -24.393  39.219  1.00 80.43 LIG-0.27  OA
ATOM     22 H    LEU B   3     -18.128 -25.120  38.447  1.00 80.50 LIG 0.16  HD
BRANCH 20 23
ATOM     23  CA  ALA B   2     -16.610 -23.205  37.567  1.00 80.35 LIG 0.17  C 
ATOM     24  CB  ALA B   2     -15.566 -22.123  37.729  1.00 80.34 LIG 0.04  C 
BRANCH 23 25
ATOM     25  N   ALA B   2     -17.936 -22.678  37.904  1.00 80.28 LIG-0.35  N 
ATOM     26 H    ALA B   2     -18.452 -22.586  37.222  1.00 80.28 LIG 0.16  HD
ATOM     27  C   GLY B   1     -18.314 -22.371  39.144  1.00 80.20 LIG 0.24  C 
ATOM     28 O    GLY B   1     -17.577 -22.456  40.125  1.00 80.22 LIG-0.27  OA
BRANCH 27 29
ATOM     29  CA  GLY B   1     -19.743 -21.894  39.297  1.00 80.17 LIG 0.33  C 
BRANCH 29 30
ATOM     30  N   GLY B   1     -20.182 -20.981  38.201  1.00 80.00 LIG-0.07  N 
ATOM     31 H3   GLY B   1     -20.866 -21.347  37.765  1.00 80.00 LIG 0.27  HD
ATOM     32 H2   GLY B   1     -19.507 -20.849  37.636  1.00 80.00 LIG 0.27  HD
ATOM     33 H1   GLY B   1     -20.436 -20.201  38.548  1.00 80.00 LIG 0.27  HD
ENDBRANCH 29 30
ENDBRANCH 27 29
ENDBRANCH 23 25
ENDBRANCH 20 23
ENDBRANCH 1 19
TORSDOF 12
ENDMDL
MODEL 68
USER: ADFR SOLUTION from run 42
USER: SCORE 10.183048 LL:  -2.309 LR:  -9.179 RR:   0.000 FEB:  -5.600
USER: RMSD 4.758509
USER: SEED 41
USER: STATUS no improvement in best 33 clusters for 5 generations
USER: GENES 14
USER: genes 0 Translation |==|  0.34839 0.52986 0.49867
USER: genes 1 Rotation |==|  0.70928 0.14824 0.49126 0.78704
USER: genes 2 Torsion [C]-CA--CB-[CG] |==|  0.31577
USER: genes 3 Torsion [CA]-CB--CG-[CD1] |==|  0.21866
USER: genes 4 Torsion [N]-CA--C-[N] |==|  0.29495
USER: genes 5 Torsion [C]-N--CA-[CB] |==|  0.84117
USER: genes 6 Torsion [N]-CA--C-[N] |==|  0.47172
USER: genes 7 Torsion [C]-N--CA-[C] |==|  0.17184
USER: genes 8 Torsion [N]-CA--C-[O] |==|  0.82865
USER: genes 9 Torsion [CB]-CA--N-[C] |==|  0.55556
USER: genes 10 Torsion [N]-C--CA-[N] |==|  0.26516
USER: genes 11 Torsion [C]-CA--N-[C] |==|  0.67133
USER: genes 12 Torsion [N]-C--CA-[N] |==|  0.81924
USER: genes 13 Torsion [C]-CA--N-[H2] |==|  0.80415
ROOT
ATOM      1  CA  LEU B   3     -20.118 -23.484  40.000  1.00 80.55 LIG 0.18  C 
ENDROOT
BRANCH 1 2
ATOM      2  CB  LEU B   3     -20.953 -23.931  41.210  1.00 80.55 LIG 0.04  C 
BRANCH 2 3
ATOM      3  CG  LEU B   3     -22.496 -24.041  41.119  1.00 80.55 LIG-0.02  C 
ATOM      4  CD1 LEU B   3     -22.916 -25.364  40.390  1.00 80.53 LIG 0.01  C 
ATOM      5  CD2 LEU B   3     -23.188 -23.970  42.504  1.00 80.44 LIG 0.01  C 
ENDBRANCH 2 3
ENDBRANCH 1 2
BRANCH 1 6
ATOM      6  C   LEU B   3     -19.455 -22.135  40.265  1.00 80.58 LIG 0.24  C 
ATOM      7  N   ALA B   4     -19.545 -21.257  39.257  1.00 80.60 LIG-0.35  N 
ATOM      8 H    ALA B   4     -19.918 -21.457  38.509  1.00 80.60 LIG 0.16  HD
ATOM      9 O    LEU B   3     -18.908 -21.897  41.349  1.00 80.60 LIG-0.27  OA
BRANCH 7 10
ATOM     10  CA  ALA B   4     -19.035 -19.877  39.290  1.00 80.57 LIG 0.17  C 
ATOM     11  CB  ALA B   4     -19.654 -19.106  40.449  1.00 80.56 LIG 0.04  C 
BRANCH 10 12
ATOM     12  C   ALA B   4     -17.507 -19.816  39.325  1.00 80.56 LIG 0.24  C 
ATOM     13  N   GLY B   5     -16.988 -18.602  39.142  1.00 80.55 LIG-0.35  N 
ATOM     14 H    GLY B   5     -17.472 -17.894  39.077  1.00 80.55 LIG 0.16  HD
ATOM     15 O    ALA B   4     -16.829 -20.835  39.511  1.00 80.59 LIG-0.27  OA
BRANCH 13 16
ATOM     16  CA  GLY B   5     -15.549 -18.333  39.031  1.00 80.50 LIG 0.21  C 
BRANCH 16 17
ATOM     17  C   GLY B   5     -14.820 -18.984  37.867  1.00 80.51 LIG 0.21  C 
ATOM     18 O    GLY B   5     -14.780 -20.244  37.783  1.00 80.50 LIG-0.29  OA
ENDBRANCH 16 17
ENDBRANCH 13 16
ENDBRANCH 10 12
ENDBRANCH 7 10
ENDBRANCH 1 6
BRANCH 1 19
ATOM     19  N   LEU B   3     -18.992 -24.377  39.785  1.00 80.50 LIG-0.35  N 
ATOM     20  C   ALA B   2     -17.908 -24.010  39.068  1.00 80.42 LIG 0.24  C 
ATOM     21 O    ALA B   2     -17.965 -23.220  38.088  1.00 80.43 LIG-0.27  OA
ATOM     22 H    LEU B   3     -19.081 -25.150  40.153  1.00 80.50 LIG 0.16  HD
BRANCH 20 23
ATOM     23  CA  ALA B   2     -16.630 -24.797  39.368  1.00 80.35 LIG 0.17  C 
ATOM     24  CB  ALA B   2     -15.418 -23.896  39.290  1.00 80.34 LIG 0.04  C 
BRANCH 23 25
ATOM     25  N   ALA B   2     -16.512 -25.884  38.390  1.00 80.28 LIG-0.35  N 
ATOM     26 H    ALA B   2     -16.446 -25.608  37.578  1.00 80.28 LIG 0.16  HD
ATOM     27  C   GLY B   1     -16.505 -27.174  38.719  1.00 80.20 LIG 0.24  C 
ATOM     28 O    GLY B   1     -16.641 -27.588  39.870  1.00 80.22 LIG-0.27  OA
BRANCH 27 29
ATOM     29  CA  GLY B   1     -16.318 -28.145  37.571  1.00 80.17 LIG 0.33  C 
BRANCH 29 30
ATOM     30  N   GLY B   1     -17.445 -28.128  36.593  1.00 80.00 LIG-0.07  N 
ATOM     31 H3   GLY B   1     -17.622 -27.288  36.359  1.00 80.00 LIG 0.27  HD
ATOM     32 H2   GLY B   1     -18.168 -28.490  36.966  1.00 80.00 LIG 0.27  HD
ATOM     33 H1   GLY B   1     -17.218 -28.596  35.870  1.00 80.00 LIG 0.27  HD
ENDBRANCH 29 30
ENDBRANCH 27 29
ENDBRANCH 23 25
ENDBRANCH 20 23
ENDBRANCH 1 19
TORSDOF 12
ENDMDL
MODEL 69
USER: ADFR SOLUTION from run 132
USER: SCORE 10.705095 LL:  -2.244 LR:  -9.172 RR:   0.000 FEB:  -5.593
USER: RMSD 7.681895
USER: SEED 131
USER: STATUS no improvement in best 9 clusters for 5 generations
USER: GENES 14
USER: genes 0 Translation |==|  0.44005 0.56789 0.46492
USER: genes 1 Rotation |==|  0.93155 0.32633 0.64225 0.61563
USER: genes 2 Torsion [C]-CA--CB-[CG] |==|  0.32728
USER: genes 3 Torsion [CA]-CB--CG-[CD1] |==|  0.14101
USER: genes 4 Torsion [N]-CA--C-[N] |==|  0.32367
USER: genes 5 Torsion [C]-N--CA-[CB] |==|  0.83066
USER: genes 6 Torsion [N]-CA--C-[N] |==|  0.45968
USER: genes 7 Torsion [C]-N--CA-[C] |==|  0.84810
USER: genes 8 Torsion [N]-CA--C-[O] |==|  0.51885
USER: genes 9 Torsion [CB]-CA--N-[C] |==|  0.56667
USER: genes 10 Torsion [N]-C--CA-[N] |==|  0.46107
USER: genes 11 Torsion [C]-CA--N-[C] |==|  0.81549
USER: genes 12 Torsion [N]-C--CA-[N] |==|  0.21631
USER: genes 13 Torsion [C]-CA--N-[H2] |==|  0.62991
ROOT
ATOM      1  CA  LEU B   3     -17.369 -22.343  38.988  1.00 80.55 LIG 0.18  C 
ENDROOT
BRANCH 1 2
ATOM      2  CB  LEU B   3     -17.062 -23.721  39.596  1.00 80.55 LIG 0.04  C 
BRANCH 2 3
ATOM      3  CG  LEU B   3     -17.092 -25.002  38.725  1.00 80.55 LIG-0.02  C 
ATOM      4  CD1 LEU B   3     -16.228 -24.813  37.430  1.00 80.53 LIG 0.01  C 
ATOM      5  CD2 LEU B   3     -16.610 -26.261  39.489  1.00 80.44 LIG 0.01  C 
ENDBRANCH 2 3
ENDBRANCH 1 2
BRANCH 1 6
ATOM      6  C   LEU B   3     -18.605 -21.725  39.635  1.00 80.58 LIG 0.24  C 
ATOM      7  N   ALA B   4     -19.575 -21.380  38.778  1.00 80.60 LIG-0.35  N 
ATOM      8 H    ALA B   4     -19.487 -21.469  37.928  1.00 80.60 LIG 0.16  HD
ATOM      9 O    LEU B   3     -18.682 -21.593  40.863  1.00 80.60 LIG-0.27  OA
BRANCH 7 10
ATOM     10  CA  ALA B   4     -20.881 -20.819  39.160  1.00 80.57 LIG 0.17  C 
ATOM     11  CB  ALA B   4     -21.648 -21.799  40.038  1.00 80.56 LIG 0.04  C 
BRANCH 10 12
ATOM     12  C   ALA B   4     -20.758 -19.446  39.824  1.00 80.56 LIG 0.24  C 
ATOM     13  N   GLY B   5     -21.898 -18.760  39.914  1.00 80.55 LIG-0.35  N 
ATOM     14 H    GLY B   5     -22.658 -19.089  39.681  1.00 80.55 LIG 0.16  HD
ATOM     15 O    ALA B   4     -19.668 -19.027  40.235  1.00 80.59 LIG-0.27  OA
BRANCH 13 16
ATOM     16  CA  GLY B   5     -21.990 -17.384  40.415  1.00 80.50 LIG 0.21  C 
BRANCH 16 17
ATOM     17  C   GLY B   5     -21.406 -17.117  41.792  1.00 80.51 LIG 0.21  C 
ATOM     18 O    GLY B   5     -21.570 -15.984  42.329  1.00 80.50 LIG-0.29  OA
ENDBRANCH 16 17
ENDBRANCH 13 16
ENDBRANCH 10 12
ENDBRANCH 7 10
ENDBRANCH 1 6
BRANCH 1 19
ATOM     19  N   LEU B   3     -16.315 -21.391  39.296  1.00 80.50 LIG-0.35  N 
ATOM     20  C   ALA B   2     -16.530 -20.058  39.310  1.00 80.42 LIG 0.24  C 
ATOM     21 O    ALA B   2     -17.357 -19.485  38.550  1.00 80.43 LIG-0.27  OA
ATOM     22 H    LEU B   3     -15.553 -21.752  39.467  1.00 80.50 LIG 0.16  HD
BRANCH 20 23
ATOM     23  CA  ALA B   2     -15.537 -19.244  40.144  1.00 80.35 LIG 0.17  C 
ATOM     24  CB  ALA B   2     -15.791 -19.445  41.621  1.00 80.34 LIG 0.04  C 
BRANCH 23 25
ATOM     25  N   ALA B   2     -15.688 -17.827  39.797  1.00 80.28 LIG-0.35  N 
ATOM     26 H    ALA B   2     -15.993 -17.347  40.442  1.00 80.28 LIG 0.16  HD
ATOM     27  C   GLY B   1     -15.383 -17.325  38.602  1.00 80.20 LIG 0.24  C 
ATOM     28 O    GLY B   1     -14.986 -18.003  37.655  1.00 80.22 LIG-0.27  OA
BRANCH 27 29
ATOM     29  CA  GLY B   1     -15.554 -15.828  38.454  1.00 80.17 LIG 0.33  C 
BRANCH 29 30
ATOM     30  N   GLY B   1     -14.445 -15.042  39.070  1.00 80.00 LIG-0.07  N 
ATOM     31 H3   GLY B   1     -13.958 -15.574  39.591  1.00 80.00 LIG 0.27  HD
ATOM     32 H2   GLY B   1     -14.785 -14.380  39.558  1.00 80.00 LIG 0.27  HD
ATOM     33 H1   GLY B   1     -13.929 -14.703  38.428  1.00 80.00 LIG 0.27  HD
ENDBRANCH 29 30
ENDBRANCH 27 29
ENDBRANCH 23 25
ENDBRANCH 20 23
ENDBRANCH 1 19
TORSDOF 12
ENDMDL
MODEL 70
USER: ADFR SOLUTION from run 21
USER: SCORE 10.169513 LL:  -2.891 LR:  -9.171 RR:   0.000 FEB:  -5.592
USER: RMSD 7.411983
USER: SEED 20
USER: STATUS no improvement in best 31 clusters for 5 generations
USER: GENES 14
USER: genes 0 Translation |==|  0.26616 0.52445 0.54723
USER: genes 1 Rotation |==|  0.92440 0.40071 0.25664 0.52836
USER: genes 2 Torsion [C]-CA--CB-[CG] |==|  0.08388
USER: genes 3 Torsion [CA]-CB--CG-[CD1] |==|  0.14003
USER: genes 4 Torsion [N]-CA--C-[N] |==|  0.82880
USER: genes 5 Torsion [C]-N--CA-[CB] |==|  0.18823
USER: genes 6 Torsion [N]-CA--C-[N] |==|  0.00004
USER: genes 7 Torsion [C]-N--CA-[C] |==|  0.83132
USER: genes 8 Torsion [N]-CA--C-[O] |==|  0.59527
USER: genes 9 Torsion [CB]-CA--N-[C] |==|  0.92206
USER: genes 10 Torsion [N]-C--CA-[N] |==|  0.51111
USER: genes 11 Torsion [C]-CA--N-[C] |==|  0.77553
USER: genes 12 Torsion [N]-C--CA-[N] |==|  0.45394
USER: genes 13 Torsion [C]-CA--N-[H2] |==|  0.86125
ROOT
ATOM      1  CA  LEU B   3     -22.585 -23.647  41.457  1.00 80.55 LIG 0.18  C 
ENDROOT
BRANCH 1 2
ATOM      2  CB  LEU B   3     -22.669 -24.808  40.455  1.00 80.55 LIG 0.04  C 
BRANCH 2 3
ATOM      3  CG  LEU B   3     -22.851 -26.269  40.939  1.00 80.55 LIG-0.02  C 
ATOM      4  CD1 LEU B   3     -24.046 -26.373  41.949  1.00 80.53 LIG 0.01  C 
ATOM      5  CD2 LEU B   3     -23.070 -27.267  39.774  1.00 80.44 LIG 0.01  C 
ENDBRANCH 2 3
ENDBRANCH 1 2
BRANCH 1 6
ATOM      6  C   LEU B   3     -21.972 -24.109  42.776  1.00 80.58 LIG 0.24  C 
ATOM      7  N   ALA B   4     -20.751 -24.648  42.670  1.00 80.60 LIG-0.35  N 
ATOM      8 H    ALA B   4     -20.363 -24.755  41.910  1.00 80.60 LIG 0.16  HD
ATOM      9 O    LEU B   3     -22.575 -23.957  43.846  1.00 80.60 LIG-0.27  OA
BRANCH 7 10
ATOM     10  CA  ALA B   4     -19.932 -25.116  43.799  1.00 80.57 LIG 0.17  C 
ATOM     11  CB  ALA B   4     -20.563 -26.342  44.447  1.00 80.56 LIG 0.04  C 
BRANCH 10 12
ATOM     12  C   ALA B   4     -18.478 -25.377  43.401  1.00 80.56 LIG 0.24  C 
ATOM     13  N   GLY B   5     -18.194 -25.142  42.119  1.00 80.55 LIG-0.35  N 
ATOM     14 H    GLY B   5     -18.764 -24.805  41.571  1.00 80.55 LIG 0.16  HD
ATOM     15 O    ALA B   4     -17.648 -25.778  44.228  1.00 80.59 LIG-0.27  OA
BRANCH 13 16
ATOM     16  CA  GLY B   5     -16.894 -25.429  41.501  1.00 80.50 LIG 0.21  C 
BRANCH 16 17
ATOM     17  C   GLY B   5     -15.689 -24.703  42.076  1.00 80.51 LIG 0.21  C 
ATOM     18 O    GLY B   5     -14.745 -24.357  41.309  1.00 80.50 LIG-0.29  OA
ENDBRANCH 16 17
ENDBRANCH 13 16
ENDBRANCH 10 12
ENDBRANCH 7 10
ENDBRANCH 1 6
BRANCH 1 19
ATOM     19  N   LEU B   3     -21.660 -22.625  40.995  1.00 80.50 LIG-0.35  N 
ATOM     20  C   ALA B   2     -20.612 -22.911  40.194  1.00 80.42 LIG 0.24  C 
ATOM     21 O    ALA B   2     -19.985 -24.004  40.242  1.00 80.43 LIG-0.27  OA
ATOM     22 H    LEU B   3     -21.842 -21.832  41.277  1.00 80.50 LIG 0.16  HD
BRANCH 20 23
ATOM     23  CA  ALA B   2     -20.073 -21.733  39.378  1.00 80.35 LIG 0.17  C 
ATOM     24  CB  ALA B   2     -21.176 -21.104  38.557  1.00 80.34 LIG 0.04  C 
BRANCH 23 25
ATOM     25  N   ALA B   2     -19.009 -22.226  38.496  1.00 80.28 LIG-0.35  N 
ATOM     26 H    ALA B   2     -19.272 -22.368  37.689  1.00 80.28 LIG 0.16  HD
ATOM     27  C   GLY B   1     -17.757 -22.435  38.897  1.00 80.20 LIG 0.24  C 
ATOM     28 O    GLY B   1     -17.374 -22.278  40.056  1.00 80.22 LIG-0.27  OA
BRANCH 27 29
ATOM     29  CA  GLY B   1     -16.790 -22.892  37.825  1.00 80.17 LIG 0.33  C 
BRANCH 29 30
ATOM     30  N   GLY B   1     -15.358 -22.735  38.215  1.00 80.00 LIG-0.07  N 
ATOM     31 H3   GLY B   1     -15.157 -23.323  38.852  1.00 80.00 LIG 0.27  HD
ATOM     32 H2   GLY B   1     -15.221 -21.910  38.521  1.00 80.00 LIG 0.27  HD
ATOM     33 H1   GLY B   1     -14.839 -22.878  37.506  1.00 80.00 LIG 0.27  HD
ENDBRANCH 29 30
ENDBRANCH 27 29
ENDBRANCH 23 25
ENDBRANCH 20 23
ENDBRANCH 1 19
TORSDOF 12
ENDMDL
MODEL 71
USER: ADFR SOLUTION from run 105
USER: SCORE 9.929887 LL:  -2.838 LR:  -9.156 RR:   0.000 FEB:  -5.576
USER: RMSD 5.515610
USER: SEED 104
USER: STATUS no improvement in best 14 clusters for 5 generations
USER: GENES 14
USER: genes 0 Translation |==|  0.49190 0.39317 0.53394
USER: genes 1 Rotation |==|  0.47249 0.88759 0.20012 0.59536
USER: genes 2 Torsion [C]-CA--CB-[CG] |==|  0.19690
USER: genes 3 Torsion [CA]-CB--CG-[CD1] |==|  0.40994
USER: genes 4 Torsion [N]-CA--C-[N] |==|  0.77637
USER: genes 5 Torsion [C]-N--CA-[CB] |==|  0.49022
USER: genes 6 Torsion [N]-CA--C-[N] |==|  0.35827
USER: genes 7 Torsion [C]-N--CA-[C] |==|  0.19241
USER: genes 8 Torsion [N]-CA--C-[O] |==|  0.04150
USER: genes 9 Torsion [CB]-CA--N-[C] |==|  0.57794
USER: genes 10 Torsion [N]-C--CA-[N] |==|  0.81842
USER: genes 11 Torsion [C]-CA--N-[C] |==|  0.68260
USER: genes 12 Torsion [N]-C--CA-[N] |==|  0.81832
USER: genes 13 Torsion [C]-CA--N-[H2] |==|  0.71264
ROOT
ATOM      1  CA  LEU B   3     -15.813 -27.585  41.058  1.00 80.55 LIG 0.18  C 
ENDROOT
BRANCH 1 2
ATOM      2  CB  LEU B   3     -16.653 -28.186  39.921  1.00 80.55 LIG 0.04  C 
BRANCH 2 3
ATOM      3  CG  LEU B   3     -16.074 -28.330  38.491  1.00 80.55 LIG-0.02  C 
ATOM      4  CD1 LEU B   3     -16.667 -29.595  37.778  1.00 80.53 LIG 0.01  C 
ATOM      5  CD2 LEU B   3     -16.320 -27.078  37.612  1.00 80.44 LIG 0.01  C 
ENDBRANCH 2 3
ENDBRANCH 1 2
BRANCH 1 6
ATOM      6  C   LEU B   3     -15.617 -26.084  40.856  1.00 80.58 LIG 0.24  C 
ATOM      7  N   ALA B   4     -16.688 -25.438  40.376  1.00 80.60 LIG-0.35  N 
ATOM      8 H    ALA B   4     -17.414 -25.848  40.166  1.00 80.60 LIG 0.16  HD
ATOM      9 O    LEU B   3     -14.548 -25.537  41.149  1.00 80.60 LIG-0.27  OA
BRANCH 7 10
ATOM     10  CA  ALA B   4     -16.767 -23.986  40.148  1.00 80.57 LIG 0.17  C 
ATOM     11  CB  ALA B   4     -18.102 -23.617  39.514  1.00 80.56 LIG 0.04  C 
BRANCH 10 12
ATOM     12  C   ALA B   4     -16.505 -23.177  41.419  1.00 80.56 LIG 0.24  C 
ATOM     13  N   GLY B   5     -15.590 -22.215  41.296  1.00 80.55 LIG-0.35  N 
ATOM     14 H    GLY B   5     -15.223 -22.017  40.545  1.00 80.55 LIG 0.16  HD
ATOM     15 O    ALA B   4     -17.112 -23.420  42.471  1.00 80.59 LIG-0.27  OA
BRANCH 13 16
ATOM     16  CA  GLY B   5     -15.107 -21.394  42.413  1.00 80.50 LIG 0.21  C 
BRANCH 16 17
ATOM     17  C   GLY B   5     -14.255 -22.094  43.458  1.00 80.51 LIG 0.21  C 
ATOM     18 O    GLY B   5     -13.763 -23.230  43.202  1.00 80.50 LIG-0.29  OA
ENDBRANCH 16 17
ENDBRANCH 13 16
ENDBRANCH 10 12
ENDBRANCH 7 10
ENDBRANCH 1 6
BRANCH 1 19
ATOM     19  N   LEU B   3     -16.519 -27.665  42.326  1.00 80.50 LIG-0.35  N 
ATOM     20  C   ALA B   2     -16.310 -26.779  43.324  1.00 80.42 LIG 0.24  C 
ATOM     21 O    ALA B   2     -15.195 -26.232  43.538  1.00 80.43 LIG-0.27  OA
ATOM     22 H    LEU B   3     -17.074 -28.320  42.379  1.00 80.50 LIG 0.16  HD
BRANCH 20 23
ATOM     23  CA  ALA B   2     -17.453 -26.654  44.336  1.00 80.35 LIG 0.17  C 
ATOM     24  CB  ALA B   2     -17.790 -28.003  44.929  1.00 80.34 LIG 0.04  C 
BRANCH 23 25
ATOM     25  N   ALA B   2     -18.624 -26.100  43.649  1.00 80.28 LIG-0.35  N 
ATOM     26 H    ALA B   2     -18.948 -26.623  43.048  1.00 80.28 LIG 0.16  HD
ATOM     27  C   GLY B   1     -19.143 -24.904  43.923  1.00 80.20 LIG 0.24  C 
ATOM     28 O    GLY B   1     -18.668 -24.125  44.749  1.00 80.22 LIG-0.27  OA
BRANCH 27 29
ATOM     29  CA  GLY B   1     -20.387 -24.532  43.144  1.00 80.17 LIG 0.33  C 
BRANCH 29 30
ATOM     30  N   GLY B   1     -20.144 -24.377  41.680  1.00 80.00 LIG-0.07  N 
ATOM     31 H3   GLY B   1     -19.368 -24.756  41.466  1.00 80.00 LIG 0.27  HD
ATOM     32 H2   GLY B   1     -20.117 -23.511  41.474  1.00 80.00 LIG 0.27  HD
ATOM     33 H1   GLY B   1     -20.801 -24.770  41.226  1.00 80.00 LIG 0.27  HD
ENDBRANCH 29 30
ENDBRANCH 27 29
ENDBRANCH 23 25
ENDBRANCH 20 23
ENDBRANCH 1 19
TORSDOF 12
ENDMDL
MODEL 72
USER: ADFR SOLUTION from run 107
USER: SCORE 10.562026 LL:  -2.463 LR:  -9.155 RR:   0.000 FEB:  -5.575
USER: RMSD 6.709630
USER: SEED 106
USER: STATUS no improvement in best 11 clusters for 5 generations
USER: GENES 14
USER: genes 0 Translation |==|  0.45000 0.43572 0.51159
USER: genes 1 Rotation |==|  0.95139 0.62889 0.35163 0.58730
USER: genes 2 Torsion [C]-CA--CB-[CG] |==|  0.28558
USER: genes 3 Torsion [CA]-CB--CG-[CD1] |==|  0.90899
USER: genes 4 Torsion [N]-CA--C-[N] |==|  0.19358
USER: genes 5 Torsion [C]-N--CA-[CB] |==|  0.76887
USER: genes 6 Torsion [N]-CA--C-[N] |==|  0.13129
USER: genes 7 Torsion [C]-N--CA-[C] |==|  0.30697
USER: genes 8 Torsion [N]-CA--C-[O] |==|  0.93477
USER: genes 9 Torsion [CB]-CA--N-[C] |==|  0.13801
USER: genes 10 Torsion [N]-C--CA-[N] |==|  0.95357
USER: genes 11 Torsion [C]-CA--N-[C] |==|  0.76111
USER: genes 12 Torsion [N]-C--CA-[N] |==|  0.29521
USER: genes 13 Torsion [C]-CA--N-[H2] |==|  0.83352
ROOT
ATOM      1  CA  LEU B   3     -17.070 -26.308  40.388  1.00 80.55 LIG 0.18  C 
ENDROOT
BRANCH 1 2
ATOM      2  CB  LEU B   3     -15.985 -26.732  39.386  1.00 80.55 LIG 0.04  C 
BRANCH 2 3
ATOM      3  CG  LEU B   3     -16.046 -28.107  38.675  1.00 80.55 LIG-0.02  C 
ATOM      4  CD1 LEU B   3     -16.695 -29.186  39.611  1.00 80.53 LIG 0.01  C 
ATOM      5  CD2 LEU B   3     -16.816 -28.057  37.331  1.00 80.44 LIG 0.01  C 
ENDBRANCH 2 3
ENDBRANCH 1 2
BRANCH 1 6
ATOM      6  C   LEU B   3     -16.571 -26.451  41.823  1.00 80.58 LIG 0.24  C 
ATOM      7  N   ALA B   4     -17.509 -26.280  42.764  1.00 80.60 LIG-0.35  N 
ATOM      8 H    ALA B   4     -18.320 -26.072  42.569  1.00 80.60 LIG 0.16  HD
ATOM      9 O    LEU B   3     -15.389 -26.729  42.062  1.00 80.60 LIG-0.27  OA
BRANCH 7 10
ATOM     10  CA  ALA B   4     -17.290 -26.421  44.212  1.00 80.57 LIG 0.17  C 
ATOM     11  CB  ALA B   4     -17.382 -27.884  44.628  1.00 80.56 LIG 0.04  C 
BRANCH 10 12
ATOM     12  C   ALA B   4     -15.976 -25.787  44.672  1.00 80.56 LIG 0.24  C 
ATOM     13  N   GLY B   5     -15.751 -24.558  44.207  1.00 80.55 LIG-0.35  N 
ATOM     14 H    GLY B   5     -16.328 -24.124  43.741  1.00 80.55 LIG 0.16  HD
ATOM     15 O    ALA B   4     -15.197 -26.395  45.419  1.00 80.59 LIG-0.27  OA
BRANCH 13 16
ATOM     16  CA  GLY B   5     -14.508 -23.810  44.433  1.00 80.50 LIG 0.21  C 
BRANCH 16 17
ATOM     17  C   GLY B   5     -13.614 -23.588  43.224  1.00 80.51 LIG 0.21  C 
ATOM     18 O    GLY B   5     -13.695 -24.374  42.237  1.00 80.50 LIG-0.29  OA
ENDBRANCH 16 17
ENDBRANCH 13 16
ENDBRANCH 10 12
ENDBRANCH 7 10
ENDBRANCH 1 6
BRANCH 1 19
ATOM     19  N   LEU B   3     -17.362 -24.889  40.272  1.00 80.50 LIG-0.35  N 
ATOM     20  C   ALA B   2     -17.619 -24.301  39.084  1.00 80.42 LIG 0.24  C 
ATOM     21 O    ALA B   2     -17.094 -24.675  38.002  1.00 80.43 LIG-0.27  OA
ATOM     22 H    LEU B   3     -17.356 -24.466  41.022  1.00 80.50 LIG 0.16  HD
BRANCH 20 23
ATOM     23  CA  ALA B   2     -18.411 -22.993  39.161  1.00 80.35 LIG 0.17  C 
ATOM     24  CB  ALA B   2     -17.502 -21.806  38.939  1.00 80.34 LIG 0.04  C 
BRANCH 23 25
ATOM     25  N   ALA B   2     -19.039 -22.905  40.484  1.00 80.28 LIG-0.35  N 
ATOM     26 H    ALA B   2     -18.570 -22.466  41.056  1.00 80.28 LIG 0.16  HD
ATOM     27  C   GLY B   1     -20.218 -23.448  40.778  1.00 80.20 LIG 0.24  C 
ATOM     28 O    GLY B   1     -20.882 -24.115  39.984  1.00 80.22 LIG-0.27  OA
BRANCH 27 29
ATOM     29  CA  GLY B   1     -20.725 -23.201  42.183  1.00 80.17 LIG 0.33  C 
BRANCH 29 30
ATOM     30  N   GLY B   1     -21.844 -22.216  42.244  1.00 80.00 LIG-0.07  N 
ATOM     31 H3   GLY B   1     -22.530 -22.515  41.761  1.00 80.00 LIG 0.27  HD
ATOM     32 H2   GLY B   1     -21.570 -21.434  41.916  1.00 80.00 LIG 0.27  HD
ATOM     33 H1   GLY B   1     -22.101 -22.109  43.090  1.00 80.00 LIG 0.27  HD
ENDBRANCH 29 30
ENDBRANCH 27 29
ENDBRANCH 23 25
ENDBRANCH 20 23
ENDBRANCH 1 19
TORSDOF 12
ENDMDL
MODEL 73
USER: ADFR SOLUTION from run 40
USER: SCORE 9.612829 LL:  -2.317 LR:  -9.141 RR:   0.000 FEB:  -5.561
USER: RMSD 9.894123
USER: SEED 39
USER: STATUS no improvement in best 15 clusters for 5 generations
USER: GENES 14
USER: genes 0 Translation |==|  0.25496 0.49599 0.52131
USER: genes 1 Rotation |==|  0.09454 0.77250 0.60577 0.51274
USER: genes 2 Torsion [C]-CA--CB-[CG] |==|  0.84593
USER: genes 3 Torsion [CA]-CB--CG-[CD1] |==|  0.21903
USER: genes 4 Torsion [N]-CA--C-[N] |==|  0.87658
USER: genes 5 Torsion [C]-N--CA-[CB] |==|  0.80354
USER: genes 6 Torsion [N]-CA--C-[N] |==|  0.27665
USER: genes 7 Torsion [C]-N--CA-[C] |==|  0.45592
USER: genes 8 Torsion [N]-CA--C-[O] |==|  0.57126
USER: genes 9 Torsion [CB]-CA--N-[C] |==|  0.36378
USER: genes 10 Torsion [N]-C--CA-[N] |==|  0.96951
USER: genes 11 Torsion [C]-CA--N-[C] |==|  0.71230
USER: genes 12 Torsion [N]-C--CA-[N] |==|  0.85639
USER: genes 13 Torsion [C]-CA--N-[H2] |==|  0.30589
ROOT
ATOM      1  CA  LEU B   3     -22.921 -24.500  40.679  1.00 80.55 LIG 0.18  C 
ENDROOT
BRANCH 1 2
ATOM      2  CB  LEU B   3     -23.397 -25.761  39.940  1.00 80.55 LIG 0.04  C 
BRANCH 2 3
ATOM      3  CG  LEU B   3     -22.968 -27.173  40.412  1.00 80.55 LIG-0.02  C 
ATOM      4  CD1 LEU B   3     -23.820 -27.627  41.648  1.00 80.53 LIG 0.01  C 
ATOM      5  CD2 LEU B   3     -23.070 -28.240  39.293  1.00 80.44 LIG 0.01  C 
ENDBRANCH 2 3
ENDBRANCH 1 2
BRANCH 1 6
ATOM      6  C   LEU B   3     -23.284 -24.568  42.161  1.00 80.58 LIG 0.24  C 
ATOM      7  N   ALA B   4     -22.527 -25.402  42.886  1.00 80.60 LIG-0.35  N 
ATOM      8 H    ALA B   4     -21.910 -25.885  42.533  1.00 80.60 LIG 0.16  HD
ATOM      9 O    LEU B   3     -24.195 -23.873  42.625  1.00 80.60 LIG-0.27  OA
BRANCH 7 10
ATOM     10  CA  ALA B   4     -22.643 -25.600  44.340  1.00 80.57 LIG 0.17  C 
ATOM     11  CB  ALA B   4     -22.144 -24.371  45.089  1.00 80.56 LIG 0.04  C 
BRANCH 10 12
ATOM     12  C   ALA B   4     -24.060 -25.984  44.769  1.00 80.56 LIG 0.24  C 
ATOM     13  N   GLY B   5     -24.250 -27.286  44.984  1.00 80.55 LIG-0.35  N 
ATOM     14 H    GLY B   5     -23.612 -27.861  44.951  1.00 80.55 LIG 0.16  HD
ATOM     15 O    ALA B   4     -24.945 -25.128  44.899  1.00 80.59 LIG-0.27  OA
BRANCH 13 16
ATOM     16  CA  GLY B   5     -25.554 -27.885  45.296  1.00 80.50 LIG 0.21  C 
BRANCH 16 17
ATOM     17  C   GLY B   5     -25.668 -29.392  45.145  1.00 80.51 LIG 0.21  C 
ATOM     18 O    GLY B   5     -26.797 -29.912  44.915  1.00 80.50 LIG-0.29  OA
ENDBRANCH 16 17
ENDBRANCH 13 16
ENDBRANCH 10 12
ENDBRANCH 7 10
ENDBRANCH 1 6
BRANCH 1 19
ATOM     19  N   LEU B   3     -21.470 -24.419  40.691  1.00 80.50 LIG-0.35  N 
ATOM     20  C   ALA B   2     -20.809 -23.296  40.339  1.00 80.42 LIG 0.24  C 
ATOM     21 O    ALA B   2     -21.232 -22.491  39.467  1.00 80.43 LIG-0.27  OA
ATOM     22 H    LEU B   3     -21.079 -25.144  40.940  1.00 80.50 LIG 0.16  HD
BRANCH 20 23
ATOM     23  CA  ALA B   2     -19.387 -23.173  40.895  1.00 80.35 LIG 0.17  C 
ATOM     24  CB  ALA B   2     -18.368 -23.325  39.790  1.00 80.34 LIG 0.04  C 
BRANCH 23 25
ATOM     25  N   ALA B   2     -19.191 -24.218  41.906  1.00 80.28 LIG-0.35  N 
ATOM     26 H    ALA B   2     -19.064 -24.999  41.571  1.00 80.28 LIG 0.16  HD
ATOM     27  C   GLY B   1     -19.206 -23.986  43.218  1.00 80.20 LIG 0.24  C 
ATOM     28 O    GLY B   1     -19.428 -22.883  43.716  1.00 80.22 LIG-0.27  OA
BRANCH 27 29
ATOM     29  CA  GLY B   1     -18.928 -25.185  44.101  1.00 80.17 LIG 0.33  C 
BRANCH 29 30
ATOM     30  N   GLY B   1     -19.786 -26.364  43.783  1.00 80.00 LIG-0.07  N 
ATOM     31 H3   GLY B   1     -20.157 -26.672  44.532  1.00 80.00 LIG 0.27  HD
ATOM     32 H2   GLY B   1     -19.287 -27.004  43.415  1.00 80.00 LIG 0.27  HD
ATOM     33 H1   GLY B   1     -20.426 -26.122  43.213  1.00 80.00 LIG 0.27  HD
ENDBRANCH 29 30
ENDBRANCH 27 29
ENDBRANCH 23 25
ENDBRANCH 20 23
ENDBRANCH 1 19
TORSDOF 12
ENDMDL
MODEL 74
USER: ADFR SOLUTION from run 32
USER: SCORE 9.729372 LL:  -2.248 LR:  -9.131 RR:   0.000 FEB:  -5.551
USER: RMSD 5.989613
USER: SEED 31
USER: STATUS no improvement in best 22 clusters for 5 generations
USER: GENES 14
USER: genes 0 Translation |==|  0.49372 0.39739 0.50875
USER: genes 1 Rotation |==|  0.34040 0.87674 0.23652 0.61478
USER: genes 2 Torsion [C]-CA--CB-[CG] |==|  0.18794
USER: genes 3 Torsion [CA]-CB--CG-[CD1] |==|  0.54177
USER: genes 4 Torsion [N]-CA--C-[N] |==|  0.29159
USER: genes 5 Torsion [C]-N--CA-[CB] |==|  0.72982
USER: genes 6 Torsion [N]-CA--C-[N] |==|  0.71819
USER: genes 7 Torsion [C]-N--CA-[C] |==|  0.84161
USER: genes 8 Torsion [N]-CA--C-[O] |==|  0.73222
USER: genes 9 Torsion [CB]-CA--N-[C] |==|  0.54444
USER: genes 10 Torsion [N]-C--CA-[N] |==|  0.32860
USER: genes 11 Torsion [C]-CA--N-[C] |==|  0.68945
USER: genes 12 Torsion [N]-C--CA-[N] |==|  0.72052
USER: genes 13 Torsion [C]-CA--N-[H2] |==|  0.78514
ROOT
ATOM      1  CA  LEU B   3     -15.758 -27.458  40.302  1.00 80.55 LIG 0.18  C 
ENDROOT
BRANCH 1 2
ATOM      2  CB  LEU B   3     -16.467 -28.462  39.380  1.00 80.55 LIG 0.04  C 
BRANCH 2 3
ATOM      3  CG  LEU B   3     -16.316 -28.376  37.840  1.00 80.55 LIG-0.02  C 
ATOM      4  CD1 LEU B   3     -17.411 -29.242  37.126  1.00 80.53 LIG 0.01  C 
ATOM      5  CD2 LEU B   3     -16.379 -26.921  37.308  1.00 80.44 LIG 0.01  C 
ENDBRANCH 2 3
ENDBRANCH 1 2
BRANCH 1 6
ATOM      6  C   LEU B   3     -16.345 -26.059  40.138  1.00 80.58 LIG 0.24  C 
ATOM      7  N   ALA B   4     -15.439 -25.075  40.066  1.00 80.60 LIG-0.35  N 
ATOM      8 H    ALA B   4     -14.596 -25.223  40.142  1.00 80.60 LIG 0.16  HD
ATOM      9 O    LEU B   3     -17.567 -25.887  40.056  1.00 80.60 LIG-0.27  OA
BRANCH 7 10
ATOM     10  CA  ALA B   4     -15.750 -23.652  39.853  1.00 80.57 LIG 0.17  C 
ATOM     11  CB  ALA B   4     -15.594 -23.285  38.383  1.00 80.56 LIG 0.04  C 
BRANCH 10 12
ATOM     12  C   ALA B   4     -17.132 -23.268  40.385  1.00 80.56 LIG 0.24  C 
ATOM     13  N   GLY B   5     -18.084 -23.162  39.457  1.00 80.55 LIG-0.35  N 
ATOM     14 H    GLY B   5     -17.951 -23.361  38.631  1.00 80.55 LIG 0.16  HD
ATOM     15 O    ALA B   4     -17.323 -23.074  41.593  1.00 80.59 LIG-0.27  OA
BRANCH 13 16
ATOM     16  CA  GLY B   5     -19.450 -22.700  39.731  1.00 80.50 LIG 0.21  C 
BRANCH 16 17
ATOM     17  C   GLY B   5     -20.235 -23.472  40.779  1.00 80.51 LIG 0.21  C 
ATOM     18 O    GLY B   5     -21.034 -24.381  40.415  1.00 80.50 LIG-0.29  OA
ENDBRANCH 16 17
ENDBRANCH 13 16
ENDBRANCH 10 12
ENDBRANCH 7 10
ENDBRANCH 1 6
BRANCH 1 19
ATOM     19  N   LEU B   3     -16.010 -27.767  41.700  1.00 80.50 LIG-0.35  N 
ATOM     20  C   ALA B   2     -15.774 -26.878  42.688  1.00 80.42 LIG 0.24  C 
ATOM     21 O    ALA B   2     -14.844 -26.028  42.644  1.00 80.43 LIG-0.27  OA
ATOM     22 H    LEU B   3     -16.320 -28.559  41.835  1.00 80.50 LIG 0.16  HD
BRANCH 20 23
ATOM     23  CA  ALA B   2     -16.558 -27.116  43.982  1.00 80.35 LIG 0.17  C 
ATOM     24  CB  ALA B   2     -17.415 -25.915  44.314  1.00 80.34 LIG 0.04  C 
BRANCH 23 25
ATOM     25  N   ALA B   2     -15.603 -27.367  45.066  1.00 80.28 LIG-0.35  N 
ATOM     26 H    ALA B   2     -15.135 -26.677  45.277  1.00 80.28 LIG 0.16  HD
ATOM     27  C   GLY B   1     -15.468 -28.546  45.671  1.00 80.20 LIG 0.24  C 
ATOM     28 O    GLY B   1     -16.098 -29.554  45.355  1.00 80.22 LIG-0.27  OA
BRANCH 27 29
ATOM     29  CA  GLY B   1     -14.467 -28.592  46.806  1.00 80.17 LIG 0.33  C 
BRANCH 29 30
ATOM     30  N   GLY B   1     -13.157 -29.190  46.415  1.00 80.00 LIG-0.07  N 
ATOM     31 H3   GLY B   1     -12.916 -28.880  45.616  1.00 80.00 LIG 0.27  HD
ATOM     32 H2   GLY B   1     -13.233 -30.076  46.378  1.00 80.00 LIG 0.27  HD
ATOM     33 H1   GLY B   1     -12.538 -28.970  47.017  1.00 80.00 LIG 0.27  HD
ENDBRANCH 29 30
ENDBRANCH 27 29
ENDBRANCH 23 25
ENDBRANCH 20 23
ENDBRANCH 1 19
TORSDOF 12
ENDMDL
MODEL 75
USER: ADFR SOLUTION from run 159
USER: SCORE 10.820968 LL:  -2.370 LR:  -9.117 RR:   0.000 FEB:  -5.538
USER: RMSD 7.027933
USER: SEED 158
USER: STATUS no improvement in best 18 clusters for 5 generations
USER: GENES 14
USER: genes 0 Translation |==|  0.32524 0.51936 0.55867
USER: genes 1 Rotation |==|  0.30360 0.33762 0.93019 0.50113
USER: genes 2 Torsion [C]-CA--CB-[CG] |==|  0.44647
USER: genes 3 Torsion [CA]-CB--CG-[CD1] |==|  0.75333
USER: genes 4 Torsion [N]-CA--C-[N] |==|  0.37541
USER: genes 5 Torsion [C]-N--CA-[CB] |==|  0.55029
USER: genes 6 Torsion [N]-CA--C-[N] |==|  0.39447
USER: genes 7 Torsion [C]-N--CA-[C] |==|  0.26359
USER: genes 8 Torsion [N]-CA--C-[O] |==|  0.34064
USER: genes 9 Torsion [CB]-CA--N-[C] |==|  0.54461
USER: genes 10 Torsion [N]-C--CA-[N] |==|  0.93787
USER: genes 11 Torsion [C]-CA--N-[C] |==|  0.79865
USER: genes 12 Torsion [N]-C--CA-[N] |==|  0.63149
USER: genes 13 Torsion [C]-CA--N-[H2] |==|  0.94588
ROOT
ATOM      1  CA  LEU B   3     -20.813 -23.799  41.800  1.00 80.55 LIG 0.18  C 
ENDROOT
BRANCH 1 2
ATOM      2  CB  LEU B   3     -21.783 -24.377  40.758  1.00 80.55 LIG 0.04  C 
BRANCH 2 3
ATOM      3  CG  LEU B   3     -23.166 -24.937  41.179  1.00 80.55 LIG-0.02  C 
ATOM      4  CD1 LEU B   3     -23.060 -26.459  41.542  1.00 80.53 LIG 0.01  C 
ATOM      5  CD2 LEU B   3     -23.793 -24.164  42.366  1.00 80.44 LIG 0.01  C 
ENDBRANCH 2 3
ENDBRANCH 1 2
BRANCH 1 6
ATOM      6  C   LEU B   3     -19.388 -23.758  41.253  1.00 80.58 LIG 0.24  C 
ATOM      7  N   ALA B   4     -18.566 -24.689  41.755  1.00 80.60 LIG-0.35  N 
ATOM      8 H    ALA B   4     -18.818 -25.241  42.363  1.00 80.60 LIG 0.16  HD
ATOM      9 O    LEU B   3     -19.061 -22.931  40.393  1.00 80.60 LIG-0.27  OA
BRANCH 7 10
ATOM     10  CA  ALA B   4     -17.166 -24.889  41.348  1.00 80.57 LIG 0.17  C 
ATOM     11  CB  ALA B   4     -16.678 -26.269  41.771  1.00 80.56 LIG 0.04  C 
BRANCH 10 12
ATOM     12  C   ALA B   4     -16.949 -24.650  39.853  1.00 80.56 LIG 0.24  C 
ATOM     13  N   GLY B   5     -15.802 -24.047  39.539  1.00 80.55 LIG-0.35  N 
ATOM     14 H    GLY B   5     -15.198 -23.866  40.123  1.00 80.55 LIG 0.16  HD
ATOM     15 O    ALA B   4     -17.794 -25.000  39.018  1.00 80.59 LIG-0.27  OA
BRANCH 13 16
ATOM     16  CA  GLY B   5     -15.442 -23.625  38.180  1.00 80.50 LIG 0.21  C 
BRANCH 16 17
ATOM     17  C   GLY B   5     -15.746 -22.184  37.808  1.00 80.51 LIG 0.21  C 
ATOM     18 O    GLY B   5     -14.810 -21.431  37.415  1.00 80.50 LIG-0.29  OA
ENDBRANCH 16 17
ENDBRANCH 13 16
ENDBRANCH 10 12
ENDBRANCH 7 10
ENDBRANCH 1 6
BRANCH 1 19
ATOM     19  N   LEU B   3     -21.110 -22.403  42.072  1.00 80.50 LIG-0.35  N 
ATOM     20  C   ALA B   2     -20.232 -21.587  42.693  1.00 80.42 LIG 0.24  C 
ATOM     21 O    ALA B   2     -19.423 -21.987  43.574  1.00 80.43 LIG-0.27  OA
ATOM     22 H    LEU B   3     -21.887 -22.150  41.803  1.00 80.50 LIG 0.16  HD
BRANCH 20 23
ATOM     23  CA  ALA B   2     -20.434 -20.091  42.435  1.00 80.35 LIG 0.17  C 
ATOM     24  CB  ALA B   2     -21.195 -19.452  43.575  1.00 80.34 LIG 0.04  C 
BRANCH 23 25
ATOM     25  N   ALA B   2     -21.179 -19.931  41.182  1.00 80.28 LIG-0.35  N 
ATOM     26 H    ALA B   2     -21.993 -19.679  41.297  1.00 80.28 LIG 0.16  HD
ATOM     27  C   GLY B   1     -20.653 -20.152  39.978  1.00 80.20 LIG 0.24  C 
ATOM     28 O    GLY B   1     -19.503 -20.553  39.797  1.00 80.22 LIG-0.27  OA
BRANCH 27 29
ATOM     29  CA  GLY B   1     -21.565 -19.878  38.801  1.00 80.17 LIG 0.33  C 
BRANCH 29 30
ATOM     30  N   GLY B   1     -21.570 -20.975  37.790  1.00 80.00 LIG-0.07  N 
ATOM     31 H3   GLY B   1     -22.295 -21.479  37.902  1.00 80.00 LIG 0.27  HD
ATOM     32 H2   GLY B   1     -20.842 -21.477  37.892  1.00 80.00 LIG 0.27  HD
ATOM     33 H1   GLY B   1     -21.577 -20.625  36.971  1.00 80.00 LIG 0.27  HD
ENDBRANCH 29 30
ENDBRANCH 27 29
ENDBRANCH 23 25
ENDBRANCH 20 23
ENDBRANCH 1 19
TORSDOF 12
ENDMDL
MODEL 76
USER: ADFR SOLUTION from run 108
USER: SCORE 10.288434 LL:  -1.900 LR:  -9.107 RR:   0.000 FEB:  -5.527
USER: RMSD 6.466009
USER: SEED 107
USER: STATUS no improvement in best 16 clusters for 5 generations
USER: GENES 14
USER: genes 0 Translation |==|  0.51293 0.44635 0.51919
USER: genes 1 Rotation |==|  0.20311 0.81689 0.25216 0.50343
USER: genes 2 Torsion [C]-CA--CB-[CG] |==|  0.26198
USER: genes 3 Torsion [CA]-CB--CG-[CD1] |==|  0.55014
USER: genes 4 Torsion [N]-CA--C-[N] |==|  0.38072
USER: genes 5 Torsion [C]-N--CA-[CB] |==|  0.55809
USER: genes 6 Torsion [N]-CA--C-[N] |==|  0.43393
USER: genes 7 Torsion [C]-N--CA-[C] |==|  0.85229
USER: genes 8 Torsion [N]-CA--C-[O] |==|  0.20849
USER: genes 9 Torsion [CB]-CA--N-[C] |==|  0.56667
USER: genes 10 Torsion [N]-C--CA-[N] |==|  0.41373
USER: genes 11 Torsion [C]-CA--N-[C] |==|  0.62923
USER: genes 12 Torsion [N]-C--CA-[N] |==|  0.72258
USER: genes 13 Torsion [C]-CA--N-[H2] |==|  0.24512
ROOT
ATOM      1  CA  LEU B   3     -15.182 -25.989  40.616  1.00 80.55 LIG 0.18  C 
ENDROOT
BRANCH 1 2
ATOM      2  CB  LEU B   3     -15.851 -27.372  40.575  1.00 80.55 LIG 0.04  C 
BRANCH 2 3
ATOM      3  CG  LEU B   3     -15.984 -28.157  39.246  1.00 80.55 LIG-0.02  C 
ATOM      4  CD1 LEU B   3     -17.070 -29.281  39.372  1.00 80.53 LIG 0.01  C 
ATOM      5  CD2 LEU B   3     -16.320 -27.245  38.039  1.00 80.44 LIG 0.01  C 
ENDBRANCH 2 3
ENDBRANCH 1 2
BRANCH 1 6
ATOM      6  C   LEU B   3     -16.223 -24.878  40.499  1.00 80.58 LIG 0.24  C 
ATOM      7  N   ALA B   4     -16.282 -24.289  39.297  1.00 80.60 LIG-0.35  N 
ATOM      8 H    ALA B   4     -15.750 -24.501  38.657  1.00 80.60 LIG 0.16  HD
ATOM      9 O    LEU B   3     -16.955 -24.589  41.453  1.00 80.60 LIG-0.27  OA
BRANCH 7 10
ATOM     10  CA  ALA B   4     -17.236 -23.234  38.919  1.00 80.57 LIG 0.17  C 
ATOM     11  CB  ALA B   4     -17.379 -23.160  37.404  1.00 80.56 LIG 0.04  C 
BRANCH 10 12
ATOM     12  C   ALA B   4     -18.594 -23.397  39.605  1.00 80.56 LIG 0.24  C 
ATOM     13  N   GLY B   5     -19.307 -22.275  39.716  1.00 80.55 LIG-0.35  N 
ATOM     14 H    GLY B   5     -19.056 -21.529  39.369  1.00 80.55 LIG 0.16  HD
ATOM     15 O    ALA B   4     -18.976 -24.500  40.017  1.00 80.59 LIG-0.27  OA
BRANCH 13 16
ATOM     16  CA  GLY B   5     -20.584 -22.183  40.433  1.00 80.50 LIG 0.21  C 
BRANCH 16 17
ATOM     17  C   GLY B   5     -21.663 -23.177  40.038  1.00 80.51 LIG 0.21  C 
ATOM     18 O    GLY B   5     -21.570 -24.380  40.415  1.00 80.50 LIG-0.29  OA
ENDBRANCH 16 17
ENDBRANCH 13 16
ENDBRANCH 10 12
ENDBRANCH 7 10
ENDBRANCH 1 6
BRANCH 1 19
ATOM     19  N   LEU B   3     -14.571 -25.743  41.911  1.00 80.50 LIG-0.35  N 
ATOM     20  C   ALA B   2     -14.347 -24.496  42.377  1.00 80.42 LIG 0.24  C 
ATOM     21 O    ALA B   2     -14.070 -23.520  41.629  1.00 80.43 LIG-0.27  OA
ATOM     22 H    LEU B   3     -14.368 -26.458  42.346  1.00 80.50 LIG 0.16  HD
BRANCH 20 23
ATOM     23  CA  ALA B   2     -14.216 -24.380  43.898  1.00 80.35 LIG 0.17  C 
ATOM     24  CB  ALA B   2     -15.565 -24.123  44.531  1.00 80.34 LIG 0.04  C 
BRANCH 23 25
ATOM     25  N   ALA B   2     -13.299 -23.277  44.204  1.00 80.28 LIG-0.35  N 
ATOM     26 H    ALA B   2     -13.462 -22.562  43.755  1.00 80.28 LIG 0.16  HD
ATOM     27  C   GLY B   1     -12.308 -23.367  45.090  1.00 80.20 LIG 0.24  C 
ATOM     28 O    GLY B   1     -12.034 -24.394  45.709  1.00 80.22 LIG-0.27  OA
BRANCH 27 29
ATOM     29  CA  GLY B   1     -11.504 -22.102  45.307  1.00 80.17 LIG 0.33  C 
BRANCH 29 30
ATOM     30  N   GLY B   1     -10.210 -22.090  44.565  1.00 80.00 LIG-0.07  N 
ATOM     31 H3   GLY B   1      -9.621 -21.585  45.003  1.00 80.00 LIG 0.27  HD
ATOM     32 H2   GLY B   1     -10.338 -21.755  43.750  1.00 80.00 LIG 0.27  HD
ATOM     33 H1   GLY B   1      -9.897 -22.921  44.499  1.00 80.00 LIG 0.27  HD
ENDBRANCH 29 30
ENDBRANCH 27 29
ENDBRANCH 23 25
ENDBRANCH 20 23
ENDBRANCH 1 19
TORSDOF 12
ENDMDL
MODEL 77
USER: ADFR SOLUTION from run 7
USER: SCORE 10.396648 LL:  -2.479 LR:  -9.110 RR:   0.000 FEB:  -5.531
USER: RMSD 6.600300
USER: SEED 28723
USER: STATUS no improvement in best 20 clusters for 5 generations
USER: GENES 14
USER: genes 0 Translation |==|  0.42068 0.57792 0.54920
USER: genes 1 Rotation |==|  0.40468 0.40320 0.06081 0.69662
USER: genes 2 Torsion [C]-CA--CB-[CG] |==|  0.11799
USER: genes 3 Torsion [CA]-CB--CG-[CD1] |==|  0.73996
USER: genes 4 Torsion [N]-CA--C-[N] |==|  0.84872
USER: genes 5 Torsion [C]-N--CA-[CB] |==|  0.88676
USER: genes 6 Torsion [N]-CA--C-[N] |==|  0.35929
USER: genes 7 Torsion [C]-N--CA-[C] |==|  0.57416
USER: genes 8 Torsion [N]-CA--C-[O] |==|  0.79147
USER: genes 9 Torsion [CB]-CA--N-[C] |==|  0.56382
USER: genes 10 Torsion [N]-C--CA-[N] |==|  0.99922
USER: genes 11 Torsion [C]-CA--N-[C] |==|  0.78887
USER: genes 12 Torsion [N]-C--CA-[N] |==|  0.91530
USER: genes 13 Torsion [C]-CA--N-[H2] |==|  0.63516
ROOT
ATOM      1  CA  LEU B   3     -17.949 -22.042  41.516  1.00 80.55 LIG 0.18  C 
ENDROOT
BRANCH 1 2
ATOM      2  CB  LEU B   3     -18.010 -23.053  42.672  1.00 80.55 LIG 0.04  C 
BRANCH 2 3
ATOM      3  CG  LEU B   3     -16.814 -23.989  42.978  1.00 80.55 LIG-0.02  C 
ATOM      4  CD1 LEU B   3     -16.988 -25.367  42.249  1.00 80.53 LIG 0.01  C 
ATOM      5  CD2 LEU B   3     -15.448 -23.368  42.590  1.00 80.44 LIG 0.01  C 
ENDBRANCH 2 3
ENDBRANCH 1 2
BRANCH 1 6
ATOM      6  C   LEU B   3     -17.321 -22.671  40.275  1.00 80.58 LIG 0.24  C 
ATOM      7  N   ALA B   4     -18.022 -23.678  39.739  1.00 80.60 LIG-0.35  N 
ATOM      8 H    ALA B   4     -18.751 -23.967  40.092  1.00 80.60 LIG 0.16  HD
ATOM      9 O    LEU B   3     -16.257 -22.241  39.813  1.00 80.60 LIG-0.27  OA
BRANCH 7 10
ATOM     10  CA  ALA B   4     -17.656 -24.407  38.514  1.00 80.57 LIG 0.17  C 
ATOM     11  CB  ALA B   4     -17.129 -23.445  37.457  1.00 80.56 LIG 0.04  C 
BRANCH 10 12
ATOM     12  C   ALA B   4     -16.669 -25.545  38.781  1.00 80.56 LIG 0.24  C 
ATOM     13  N   GLY B   5     -17.018 -26.725  38.269  1.00 80.55 LIG-0.35  N 
ATOM     14 H    GLY B   5     -17.709 -26.828  37.768  1.00 80.55 LIG 0.16  HD
ATOM     15 O    ALA B   4     -15.631 -25.355  39.429  1.00 80.59 LIG-0.27  OA
BRANCH 13 16
ATOM     16  CA  GLY B   5     -16.275 -27.971  38.496  1.00 80.50 LIG 0.21  C 
BRANCH 16 17
ATOM     17  C   GLY B   5     -16.385 -29.038  37.420  1.00 80.51 LIG 0.21  C 
ATOM     18 O    GLY B   5     -17.445 -29.720  37.326  1.00 80.50 LIG-0.29  OA
ENDBRANCH 16 17
ENDBRANCH 13 16
ENDBRANCH 10 12
ENDBRANCH 7 10
ENDBRANCH 1 6
BRANCH 1 19
ATOM     19  N   LEU B   3     -19.284 -21.679  41.070  1.00 80.50 LIG-0.35  N 
ATOM     20  C   ALA B   2     -19.524 -21.195  39.833  1.00 80.42 LIG 0.24  C 
ATOM     21 O    ALA B   2     -18.700 -20.482  39.200  1.00 80.43 LIG-0.27  OA
ATOM     22 H    LEU B   3     -19.898 -21.801  41.661  1.00 80.50 LIG 0.16  HD
BRANCH 20 23
ATOM     23  CA  ALA B   2     -20.960 -21.367  39.331  1.00 80.35 LIG 0.17  C 
ATOM     24  CB  ALA B   2     -21.580 -20.024  39.019  1.00 80.34 LIG 0.04  C 
BRANCH 23 25
ATOM     25  N   ALA B   2     -21.738 -22.050  40.370  1.00 80.28 LIG-0.35  N 
ATOM     26 H    ALA B   2     -22.263 -21.525  40.805  1.00 80.28 LIG 0.16  HD
ATOM     27  C   GLY B   1     -21.648 -23.355  40.620  1.00 80.20 LIG 0.24  C 
ATOM     28 O    GLY B   1     -20.874 -24.112  40.036  1.00 80.22 LIG-0.27  OA
BRANCH 27 29
ATOM     29  CA  GLY B   1     -22.574 -23.885  41.695  1.00 80.17 LIG 0.33  C 
BRANCH 29 30
ATOM     30  N   GLY B   1     -22.887 -22.880  42.753  1.00 80.00 LIG-0.07  N 
ATOM     31 H3   GLY B   1     -22.345 -22.179  42.667  1.00 80.00 LIG 0.27  HD
ATOM     32 H2   GLY B   1     -22.770 -23.248  43.556  1.00 80.00 LIG 0.27  HD
ATOM     33 H1   GLY B   1     -23.732 -22.613  42.669  1.00 80.00 LIG 0.27  HD
ENDBRANCH 29 30
ENDBRANCH 27 29
ENDBRANCH 23 25
ENDBRANCH 20 23
ENDBRANCH 1 19
TORSDOF 12
ENDMDL
MODEL 78
USER: ADFR SOLUTION from run 140
USER: SCORE 9.906125 LL:  -2.563 LR:  -9.112 RR:   0.000 FEB:  -5.532
USER: RMSD 10.669785
USER: SEED 139
USER: STATUS no improvement in best 31 clusters for 5 generations
USER: GENES 14
USER: genes 0 Translation |==|  0.21968 0.50712 0.57498
USER: genes 1 Rotation |==|  0.93097 0.32467 0.31866 0.52529
USER: genes 2 Torsion [C]-CA--CB-[CG] |==|  0.78710
USER: genes 3 Torsion [CA]-CB--CG-[CD1] |==|  0.24593
USER: genes 4 Torsion [N]-CA--C-[N] |==|  0.58041
USER: genes 5 Torsion [C]-N--CA-[CB] |==|  0.22200
USER: genes 6 Torsion [N]-CA--C-[N] |==|  0.96291
USER: genes 7 Torsion [C]-N--CA-[C] |==|  0.14720
USER: genes 8 Torsion [N]-CA--C-[O] |==|  0.39839
USER: genes 9 Torsion [CB]-CA--N-[C] |==|  0.17918
USER: genes 10 Torsion [N]-C--CA-[N] |==|  0.14637
USER: genes 11 Torsion [C]-CA--N-[C] |==|  0.12813
USER: genes 12 Torsion [N]-C--CA-[N] |==|  0.34170
USER: genes 13 Torsion [C]-CA--N-[H2] |==|  0.29200
ROOT
ATOM      1  CA  LEU B   3     -23.980 -24.167  42.289  1.00 80.55 LIG 0.18  C 
ENDROOT
BRANCH 1 2
ATOM      2  CB  LEU B   3     -24.147 -25.467  41.489  1.00 80.55 LIG 0.04  C 
BRANCH 2 3
ATOM      3  CG  LEU B   3     -22.930 -26.372  41.172  1.00 80.55 LIG-0.02  C 
ATOM      4  CD1 LEU B   3     -22.697 -27.411  42.324  1.00 80.53 LIG 0.01  C 
ATOM      5  CD2 LEU B   3     -23.070 -27.120  39.822  1.00 80.44 LIG 0.01  C 
ENDBRANCH 2 3
ENDBRANCH 1 2
BRANCH 1 6
ATOM      6  C   LEU B   3     -23.809 -24.461  43.778  1.00 80.58 LIG 0.24  C 
ATOM      7  N   ALA B   4     -24.461 -25.547  44.213  1.00 80.60 LIG-0.35  N 
ATOM      8 H    ALA B   4     -24.963 -26.017  43.698  1.00 80.60 LIG 0.16  HD
ATOM      9 O    LEU B   3     -23.095 -23.745  44.490  1.00 80.60 LIG-0.27  OA
BRANCH 7 10
ATOM     10  CA  ALA B   4     -24.410 -26.069  45.589  1.00 80.57 LIG 0.17  C 
ATOM     11  CB  ALA B   4     -25.339 -25.274  46.498  1.00 80.56 LIG 0.04  C 
BRANCH 10 12
ATOM     12  C   ALA B   4     -24.703 -27.569  45.658  1.00 80.56 LIG 0.24  C 
ATOM     13  N   GLY B   5     -25.221 -28.094  44.547  1.00 80.55 LIG-0.35  N 
ATOM     14 H    GLY B   5     -25.320 -27.642  43.822  1.00 80.55 LIG 0.16  HD
ATOM     15 O    ALA B   4     -24.468 -28.222  46.684  1.00 80.59 LIG-0.27  OA
BRANCH 13 16
ATOM     16  CA  GLY B   5     -25.677 -29.484  44.431  1.00 80.50 LIG 0.21  C 
BRANCH 16 17
ATOM     17  C   GLY B   5     -26.669 -29.968  45.476  1.00 80.51 LIG 0.21  C 
ATOM     18 O    GLY B   5     -27.588 -30.767  45.140  1.00 80.50 LIG-0.29  OA
ENDBRANCH 16 17
ENDBRANCH 13 16
ENDBRANCH 10 12
ENDBRANCH 7 10
ENDBRANCH 1 6
BRANCH 1 19
ATOM     19  N   LEU B   3     -22.742 -23.492  41.935  1.00 80.50 LIG-0.35  N 
ATOM     20  C   ALA B   2     -22.519 -22.996  40.699  1.00 80.42 LIG 0.24  C 
ATOM     21 O    ALA B   2     -22.985 -23.521  39.652  1.00 80.43 LIG-0.27  OA
ATOM     22 H    LEU B   3     -22.173 -23.439  42.579  1.00 80.50 LIG 0.16  HD
BRANCH 20 23
ATOM     23  CA  ALA B   2     -21.468 -21.887  40.620  1.00 80.35 LIG 0.17  C 
ATOM     24  CB  ALA B   2     -21.187 -21.520  39.180  1.00 80.34 LIG 0.04  C 
BRANCH 23 25
ATOM     25  N   ALA B   2     -20.239 -22.362  41.266  1.00 80.28 LIG-0.35  N 
ATOM     26 H    ALA B   2     -19.892 -21.788  41.804  1.00 80.28 LIG 0.16  HD
ATOM     27  C   GLY B   1     -19.709 -23.563  41.047  1.00 80.20 LIG 0.24  C 
ATOM     28 O    GLY B   1     -20.168 -24.380  40.250  1.00 80.22 LIG-0.27  OA
BRANCH 27 29
ATOM     29  CA  GLY B   1     -18.468 -23.891  41.851  1.00 80.17 LIG 0.33  C 
BRANCH 29 30
ATOM     30  N   GLY B   1     -18.605 -25.131  42.670  1.00 80.00 LIG-0.07  N 
ATOM     31 H3   GLY B   1     -18.289 -24.983  43.489  1.00 80.00 LIG 0.27  HD
ATOM     32 H2   GLY B   1     -18.144 -25.791  42.290  1.00 80.00 LIG 0.27  HD
ATOM     33 H1   GLY B   1     -19.464 -25.360  42.721  1.00 80.00 LIG 0.27  HD
ENDBRANCH 29 30
ENDBRANCH 27 29
ENDBRANCH 23 25
ENDBRANCH 20 23
ENDBRANCH 1 19
TORSDOF 12
ENDMDL
MODEL 79
USER: ADFR SOLUTION from run 44
USER: SCORE 10.007306 LL:  -2.162 LR:  -9.105 RR:   0.000 FEB:  -5.526
USER: RMSD 8.282190
USER: SEED 43
USER: STATUS no improvement in best 13 clusters for 5 generations
USER: GENES 14
USER: genes 0 Translation |==|  0.29807 0.40587 0.64723
USER: genes 1 Rotation |==|  0.78313 0.42070 0.20285 0.77432
USER: genes 2 Torsion [C]-CA--CB-[CG] |==|  0.44159
USER: genes 3 Torsion [CA]-CB--CG-[CD1] |==|  0.56314
USER: genes 4 Torsion [N]-CA--C-[N] |==|  0.86205
USER: genes 5 Torsion [C]-N--CA-[CB] |==|  0.10008
USER: genes 6 Torsion [N]-CA--C-[N] |==|  0.14164
USER: genes 7 Torsion [C]-N--CA-[C] |==|  0.82010
USER: genes 8 Torsion [N]-CA--C-[O] |==|  0.93865
USER: genes 9 Torsion [CB]-CA--N-[C] |==|  0.21465
USER: genes 10 Torsion [N]-C--CA-[N] |==|  0.97864
USER: genes 11 Torsion [C]-CA--N-[C] |==|  0.70740
USER: genes 12 Torsion [N]-C--CA-[N] |==|  0.45150
USER: genes 13 Torsion [C]-CA--N-[H2] |==|  0.91883
ROOT
ATOM      1  CA  LEU B   3     -21.628 -27.204  44.457  1.00 80.55 LIG 0.18  C 
ENDROOT
BRANCH 1 2
ATOM      2  CB  LEU B   3     -21.360 -28.706  44.638  1.00 80.55 LIG 0.04  C 
BRANCH 2 3
ATOM      3  CG  LEU B   3     -22.527 -29.718  44.748  1.00 80.55 LIG-0.02  C 
ATOM      4  CD1 LEU B   3     -22.061 -31.025  45.479  1.00 80.53 LIG 0.01  C 
ATOM      5  CD2 LEU B   3     -23.766 -29.133  45.474  1.00 80.44 LIG 0.01  C 
ENDBRANCH 2 3
ENDBRANCH 1 2
BRANCH 1 6
ATOM      6  C   LEU B   3     -20.417 -26.379  44.885  1.00 80.58 LIG 0.24  C 
ATOM      7  N   ALA B   4     -19.350 -26.489  44.082  1.00 80.60 LIG-0.35  N 
ATOM      8 H    ALA B   4     -19.343 -27.013  43.400  1.00 80.60 LIG 0.16  HD
ATOM      9 O    LEU B   3     -20.462 -25.655  45.887  1.00 80.60 LIG-0.27  OA
BRANCH 7 10
ATOM     10  CA  ALA B   4     -18.086 -25.755  44.250  1.00 80.57 LIG 0.17  C 
ATOM     11  CB  ALA B   4     -17.755 -25.588  45.727  1.00 80.56 LIG 0.04  C 
BRANCH 10 12
ATOM     12  C   ALA B   4     -16.928 -26.397  43.484  1.00 80.56 LIG 0.24  C 
ATOM     13  N   GLY B   5     -17.175 -26.653  42.199  1.00 80.55 LIG-0.35  N 
ATOM     14 H    GLY B   5     -17.904 -26.414  41.810  1.00 80.55 LIG 0.16  HD
ATOM     15 O    ALA B   4     -15.852 -26.651  44.042  1.00 80.59 LIG-0.27  OA
BRANCH 13 16
ATOM     16  CA  GLY B   5     -16.247 -27.362  41.310  1.00 80.50 LIG 0.21  C 
BRANCH 16 17
ATOM     17  C   GLY B   5     -14.922 -26.679  41.020  1.00 80.51 LIG 0.21  C 
ATOM     18 O    GLY B   5     -14.820 -25.428  41.167  1.00 80.50 LIG-0.29  OA
ENDBRANCH 16 17
ENDBRANCH 13 16
ENDBRANCH 10 12
ENDBRANCH 7 10
ENDBRANCH 1 6
BRANCH 1 19
ATOM     19  N   LEU B   3     -21.784 -26.868  43.051  1.00 80.50 LIG-0.35  N 
ATOM     20  C   ALA B   2     -22.921 -27.129  42.371  1.00 80.42 LIG 0.24  C 
ATOM     21 O    ALA B   2     -23.657 -28.123  42.613  1.00 80.43 LIG-0.27  OA
ATOM     22 H    LEU B   3     -21.094 -26.493  42.700  1.00 80.50 LIG 0.16  HD
BRANCH 20 23
ATOM     23  CA  ALA B   2     -23.145 -26.273  41.121  1.00 80.35 LIG 0.17  C 
ATOM     24  CB  ALA B   2     -23.070 -27.123  39.873  1.00 80.34 LIG 0.04  C 
BRANCH 23 25
ATOM     25  N   ALA B   2     -22.116 -25.229  41.081  1.00 80.28 LIG-0.35  N 
ATOM     26 H    ALA B   2     -21.341 -25.521  40.850  1.00 80.28 LIG 0.16  HD
ATOM     27  C   GLY B   1     -22.351 -23.950  41.371  1.00 80.20 LIG 0.24  C 
ATOM     28 O    GLY B   1     -23.444 -23.523  41.743  1.00 80.22 LIG-0.27  OA
BRANCH 27 29
ATOM     29  CA  GLY B   1     -21.172 -23.013  41.217  1.00 80.17 LIG 0.33  C 
BRANCH 29 30
ATOM     30  N   GLY B   1     -21.565 -21.575  41.146  1.00 80.00 LIG-0.07  N 
ATOM     31 H3   GLY B   1     -21.571 -21.228  41.965  1.00 80.00 LIG 0.27  HD
ATOM     32 H2   GLY B   1     -22.379 -21.507  40.790  1.00 80.00 LIG 0.27  HD
ATOM     33 H1   GLY B   1     -20.982 -21.132  40.640  1.00 80.00 LIG 0.27  HD
ENDBRANCH 29 30
ENDBRANCH 27 29
ENDBRANCH 23 25
ENDBRANCH 20 23
ENDBRANCH 1 19
TORSDOF 12
ENDMDL
MODEL 80
USER: ADFR SOLUTION from run 16
USER: SCORE 10.816323 LL:  -2.626 LR:  -9.099 RR:   0.000 FEB:  -5.519
USER: RMSD 6.443460
USER: SEED 845356
USER: STATUS no improvement in best 24 clusters for 5 generations
USER: GENES 14
USER: genes 0 Translation |==|  0.44768 0.44716 0.46020
USER: genes 1 Rotation |==|  0.91119 0.60090 0.27535 0.64238
USER: genes 2 Torsion [C]-CA--CB-[CG] |==|  0.25449
USER: genes 3 Torsion [CA]-CB--CG-[CD1] |==|  0.92147
USER: genes 4 Torsion [N]-CA--C-[N] |==|  0.32289
USER: genes 5 Torsion [C]-N--CA-[CB] |==|  0.72781
USER: genes 6 Torsion [N]-CA--C-[N] |==|  0.27830
USER: genes 7 Torsion [C]-N--CA-[C] |==|  0.28909
USER: genes 8 Torsion [N]-CA--C-[O] |==|  0.99733
USER: genes 9 Torsion [CB]-CA--N-[C] |==|  0.55213
USER: genes 10 Torsion [N]-C--CA-[N] |==|  0.46100
USER: genes 11 Torsion [C]-CA--N-[C] |==|  0.81521
USER: genes 12 Torsion [N]-C--CA-[N] |==|  0.56094
USER: genes 13 Torsion [C]-CA--N-[H2] |==|  0.19429
ROOT
ATOM      1  CA  LEU B   3     -17.139 -25.965  38.846  1.00 80.55 LIG 0.18  C 
ENDROOT
BRANCH 1 2
ATOM      2  CB  LEU B   3     -16.340 -26.785  37.821  1.00 80.55 LIG 0.04  C 
BRANCH 2 3
ATOM      3  CG  LEU B   3     -16.392 -28.334  37.823  1.00 80.55 LIG-0.02  C 
ATOM      4  CD1 LEU B   3     -16.679 -28.877  39.266  1.00 80.53 LIG 0.01  C 
ATOM      5  CD2 LEU B   3     -17.443 -28.903  36.837  1.00 80.44 LIG 0.01  C 
ENDBRANCH 2 3
ENDBRANCH 1 2
BRANCH 1 6
ATOM      6  C   LEU B   3     -16.299 -25.676  40.087  1.00 80.58 LIG 0.24  C 
ATOM      7  N   ALA B   4     -16.850 -26.070  41.243  1.00 80.60 LIG-0.35  N 
ATOM      8 H    ALA B   4     -17.632 -26.425  41.279  1.00 80.60 LIG 0.16  HD
ATOM      9 O    LEU B   3     -15.187 -25.142  39.993  1.00 80.60 LIG-0.27  OA
BRANCH 7 10
ATOM     10  CA  ALA B   4     -16.215 -25.954  42.565  1.00 80.57 LIG 0.17  C 
ATOM     11  CB  ALA B   4     -15.570 -27.274  42.968  1.00 80.56 LIG 0.04  C 
BRANCH 10 12
ATOM     12  C   ALA B   4     -15.218 -24.796  42.638  1.00 80.56 LIG 0.24  C 
ATOM     13  N   GLY B   5     -15.680 -23.690  43.223  1.00 80.55 LIG-0.35  N 
ATOM     14 H    GLY B   5     -16.455 -23.650  43.593  1.00 80.55 LIG 0.16  HD
ATOM     15 O    ALA B   4     -14.073 -24.905  42.179  1.00 80.59 LIG-0.27  OA
BRANCH 13 16
ATOM     16  CA  GLY B   5     -14.932 -22.430  43.303  1.00 80.50 LIG 0.21  C 
BRANCH 16 17
ATOM     17  C   GLY B   5     -15.362 -21.319  42.359  1.00 80.51 LIG 0.21  C 
ATOM     18 O    GLY B   5     -16.310 -21.523  41.548  1.00 80.50 LIG-0.29  OA
ENDBRANCH 16 17
ENDBRANCH 13 16
ENDBRANCH 10 12
ENDBRANCH 7 10
ENDBRANCH 1 6
BRANCH 1 19
ATOM     19  N   LEU B   3     -17.445 -24.641  38.330  1.00 80.50 LIG-0.35  N 
ATOM     20  C   ALA B   2     -17.797 -23.617  39.137  1.00 80.42 LIG 0.24  C 
ATOM     21 O    ALA B   2     -18.448 -23.774  40.205  1.00 80.43 LIG-0.27  OA
ATOM     22 H    LEU B   3     -17.380 -24.573  37.475  1.00 80.50 LIG 0.16  HD
BRANCH 20 23
ATOM     23  CA  ALA B   2     -17.564 -22.219  38.558  1.00 80.35 LIG 0.17  C 
ATOM     24  CB  ALA B   2     -16.090 -21.887  38.544  1.00 80.34 LIG 0.04  C 
BRANCH 23 25
ATOM     25  N   ALA B   2     -18.290 -21.247  39.382  1.00 80.28 LIG-0.35  N 
ATOM     26 H    ALA B   2     -17.774 -20.709  39.811  1.00 80.28 LIG 0.16  HD
ATOM     27  C   GLY B   1     -19.619 -21.194  39.462  1.00 80.20 LIG 0.24  C 
ATOM     28 O    GLY B   1     -20.371 -21.982  38.888  1.00 80.22 LIG-0.27  OA
BRANCH 27 29
ATOM     29  CA  GLY B   1     -20.183 -20.083  40.322  1.00 80.17 LIG 0.33  C 
BRANCH 29 30
ATOM     30  N   GLY B   1     -21.570 -20.354  40.802  1.00 80.00 LIG-0.07  N 
ATOM     31 H3   GLY B   1     -21.903 -19.618  41.176  1.00 80.00 LIG 0.27  HD
ATOM     32 H2   GLY B   1     -21.554 -21.010  41.403  1.00 80.00 LIG 0.27  HD
ATOM     33 H1   GLY B   1     -22.081 -20.594  40.113  1.00 80.00 LIG 0.27  HD
ENDBRANCH 29 30
ENDBRANCH 27 29
ENDBRANCH 23 25
ENDBRANCH 20 23
ENDBRANCH 1 19
TORSDOF 12
ENDMDL
MODEL 81
USER: ADFR SOLUTION from run 64
USER: SCORE 10.682984 LL:  -2.627 LR:  -9.090 RR:   0.000 FEB:  -5.510
USER: RMSD 6.826120
USER: SEED 63
USER: STATUS searching
USER: GENES 14
USER: genes 0 Translation |==|  0.44290 0.59251 0.50627
USER: genes 1 Rotation |==|  0.53973 0.78928 0.13785 0.68327
USER: genes 2 Torsion [C]-CA--CB-[CG] |==|  0.22548
USER: genes 3 Torsion [CA]-CB--CG-[CD1] |==|  0.43657
USER: genes 4 Torsion [N]-CA--C-[N] |==|  0.34604
USER: genes 5 Torsion [C]-N--CA-[CB] |==|  0.84070
USER: genes 6 Torsion [N]-CA--C-[N] |==|  0.45157
USER: genes 7 Torsion [C]-N--CA-[C] |==|  0.52288
USER: genes 8 Torsion [N]-CA--C-[O] |==|  0.97902
USER: genes 9 Torsion [CB]-CA--N-[C] |==|  0.50042
USER: genes 10 Torsion [N]-C--CA-[N] |==|  0.97778
USER: genes 11 Torsion [C]-CA--N-[C] |==|  0.78641
USER: genes 12 Torsion [N]-C--CA-[N] |==|  0.69655
USER: genes 13 Torsion [C]-CA--N-[H2] |==|  0.64396
ROOT
ATOM      1  CA  LEU B   3     -17.283 -21.605  40.228  1.00 80.55 LIG 0.18  C 
ENDROOT
BRANCH 1 2
ATOM      2  CB  LEU B   3     -17.519 -22.621  39.100  1.00 80.55 LIG 0.04  C 
BRANCH 2 3
ATOM      3  CG  LEU B   3     -16.336 -23.386  38.454  1.00 80.55 LIG-0.02  C 
ATOM      4  CD1 LEU B   3     -16.834 -24.716  37.789  1.00 80.53 LIG 0.01  C 
ATOM      5  CD2 LEU B   3     -15.570 -22.538  37.406  1.00 80.44 LIG 0.01  C 
ENDBRANCH 2 3
ENDBRANCH 1 2
BRANCH 1 6
ATOM      6  C   LEU B   3     -16.841 -20.257  39.664  1.00 80.58 LIG 0.24  C 
ATOM      7  N   ALA B   4     -15.608 -19.875  40.022  1.00 80.60 LIG-0.35  N 
ATOM      8 H    ALA B   4     -15.122 -20.341  40.557  1.00 80.60 LIG 0.16  HD
ATOM      9 O    LEU B   3     -17.581 -19.607  38.915  1.00 80.60 LIG-0.27  OA
BRANCH 7 10
ATOM     10  CA  ALA B   4     -14.937 -18.647  39.565  1.00 80.57 LIG 0.17  C 
ATOM     11  CB  ALA B   4     -14.854 -18.616  38.045  1.00 80.56 LIG 0.04  C 
BRANCH 10 12
ATOM     12  C   ALA B   4     -15.590 -17.380  40.119  1.00 80.56 LIG 0.24  C 
ATOM     13  N   GLY B   5     -14.837 -16.282  40.050  1.00 80.55 LIG-0.35  N 
ATOM     14 H    GLY B   5     -14.070 -16.268  39.663  1.00 80.55 LIG 0.16  HD
ATOM     15 O    ALA B   4     -16.735 -17.402  40.592  1.00 80.59 LIG-0.27  OA
BRANCH 13 16
ATOM     16  CA  GLY B   5     -15.224 -14.985  40.620  1.00 80.50 LIG 0.21  C 
BRANCH 16 17
ATOM     17  C   GLY B   5     -14.336 -13.799  40.282  1.00 80.51 LIG 0.21  C 
ATOM     18 O    GLY B   5     -13.250 -13.989  39.665  1.00 80.50 LIG-0.29  OA
ENDBRANCH 16 17
ENDBRANCH 13 16
ENDBRANCH 10 12
ENDBRANCH 7 10
ENDBRANCH 1 6
BRANCH 1 19
ATOM     19  N   LEU B   3     -18.524 -21.291  40.916  1.00 80.50 LIG-0.35  N 
ATOM     20  C   ALA B   2     -18.578 -20.419  41.945  1.00 80.42 LIG 0.24  C 
ATOM     21 O    ALA B   2     -17.633 -20.263  42.765  1.00 80.43 LIG-0.27  OA
ATOM     22 H    LEU B   3     -19.212 -21.708  40.608  1.00 80.50 LIG 0.16  HD
BRANCH 20 23
ATOM     23  CA  ALA B   2     -19.952 -19.795  42.203  1.00 80.35 LIG 0.17  C 
ATOM     24  CB  ALA B   2     -20.513 -20.269  43.524  1.00 80.34 LIG 0.04  C 
BRANCH 23 25
ATOM     25  N   ALA B   2     -20.850 -20.179  41.108  1.00 80.28 LIG-0.35  N 
ATOM     26 H    ALA B   2     -21.403 -20.802  41.322  1.00 80.28 LIG 0.16  HD
ATOM     27  C   GLY B   1     -20.819 -19.622  39.899  1.00 80.20 LIG 0.24  C 
ATOM     28 O    GLY B   1     -20.007 -18.760  39.563  1.00 80.22 LIG-0.27  OA
BRANCH 27 29
ATOM     29  CA  GLY B   1     -21.864 -20.114  38.920  1.00 80.17 LIG 0.33  C 
BRANCH 29 30
ATOM     30  N   GLY B   1     -21.297 -20.947  37.820  1.00 80.00 LIG-0.07  N 
ATOM     31 H3   GLY B   1     -20.408 -20.921  37.855  1.00 80.00 LIG 0.27  HD
ATOM     32 H2   GLY B   1     -21.572 -20.630  37.035  1.00 80.00 LIG 0.27  HD
ATOM     33 H1   GLY B   1     -21.573 -21.789  37.912  1.00 80.00 LIG 0.27  HD
ENDBRANCH 29 30
ENDBRANCH 27 29
ENDBRANCH 23 25
ENDBRANCH 20 23
ENDBRANCH 1 19
TORSDOF 12
ENDMDL
MODEL 82
USER: ADFR SOLUTION from run 64
USER: SCORE 10.039130 LL:  -2.606 LR:  -9.091 RR:   0.000 FEB:  -5.511
USER: RMSD 10.507120
USER: SEED 63
USER: STATUS searching
USER: GENES 14
USER: genes 0 Translation |==|  0.22723 0.42450 0.57878
USER: genes 1 Rotation |==|  0.93994 0.44034 0.27065 0.51704
USER: genes 2 Torsion [C]-CA--CB-[CG] |==|  0.65051
USER: genes 3 Torsion [CA]-CB--CG-[CD1] |==|  0.52058
USER: genes 4 Torsion [N]-CA--C-[N] |==|  0.81315
USER: genes 5 Torsion [C]-N--CA-[CB] |==|  0.85813
USER: genes 6 Torsion [N]-CA--C-[N] |==|  0.90556
USER: genes 7 Torsion [C]-N--CA-[C] |==|  0.50587
USER: genes 8 Torsion [N]-CA--C-[O] |==|  0.00817
USER: genes 9 Torsion [CB]-CA--N-[C] |==|  0.48953
USER: genes 10 Torsion [N]-C--CA-[N] |==|  0.22368
USER: genes 11 Torsion [C]-CA--N-[C] |==|  0.75167
USER: genes 12 Torsion [N]-C--CA-[N] |==|  0.36886
USER: genes 13 Torsion [C]-CA--N-[H2] |==|  0.49306
ROOT
ATOM      1  CA  LEU B   3     -23.753 -26.645  42.403  1.00 80.55 LIG 0.18  C 
ENDROOT
BRANCH 1 2
ATOM      2  CB  LEU B   3     -23.612 -27.688  41.284  1.00 80.55 LIG 0.04  C 
BRANCH 2 3
ATOM      3  CG  LEU B   3     -22.915 -27.334  39.946  1.00 80.55 LIG-0.02  C 
ATOM      4  CD1 LEU B   3     -23.070 -28.505  38.914  1.00 80.53 LIG 0.01  C 
ATOM      5  CD2 LEU B   3     -23.445 -26.020  39.320  1.00 80.44 LIG 0.01  C 
ENDBRANCH 2 3
ENDBRANCH 1 2
BRANCH 1 6
ATOM      6  C   LEU B   3     -23.179 -27.174  43.716  1.00 80.58 LIG 0.24  C 
ATOM      7  N   ALA B   4     -21.931 -27.653  43.630  1.00 80.60 LIG-0.35  N 
ATOM      8 H    ALA B   4     -21.505 -27.689  42.885  1.00 80.60 LIG 0.16  HD
ATOM      9 O    LEU B   3     -23.835 -27.123  44.763  1.00 80.60 LIG-0.27  OA
BRANCH 7 10
ATOM     10  CA  ALA B   4     -21.143 -28.165  44.762  1.00 80.57 LIG 0.17  C 
ATOM     11  CB  ALA B   4     -21.136 -27.161  45.908  1.00 80.56 LIG 0.04  C 
BRANCH 10 12
ATOM     12  C   ALA B   4     -21.612 -29.545  45.227  1.00 80.56 LIG 0.24  C 
ATOM     13  N   GLY B   5     -22.924 -29.760  45.122  1.00 80.55 LIG-0.35  N 
ATOM     14 H    GLY B   5     -23.459 -29.194  44.758  1.00 80.55 LIG 0.16  HD
ATOM     15 O    ALA B   4     -20.810 -30.381  45.665  1.00 80.59 LIG-0.27  OA
BRANCH 13 16
ATOM     16  CA  GLY B   5     -23.599 -30.968  45.608  1.00 80.50 LIG 0.21  C 
BRANCH 16 17
ATOM     17  C   GLY B   5     -25.095 -31.063  45.358  1.00 80.51 LIG 0.21  C 
ATOM     18 O    GLY B   5     -25.677 -30.149  44.708  1.00 80.50 LIG-0.29  OA
ENDBRANCH 16 17
ENDBRANCH 13 16
ENDBRANCH 10 12
ENDBRANCH 7 10
ENDBRANCH 1 6
BRANCH 1 19
ATOM     19  N   LEU B   3     -22.940 -25.472  42.129  1.00 80.50 LIG-0.35  N 
ATOM     20  C   ALA B   2     -22.952 -24.384  42.928  1.00 80.42 LIG 0.24  C 
ATOM     21 O    ALA B   2     -23.974 -24.004  43.561  1.00 80.43 LIG-0.27  OA
ATOM     22 H    LEU B   3     -22.458 -25.536  41.419  1.00 80.50 LIG 0.16  HD
BRANCH 20 23
ATOM     23  CA  ALA B   2     -21.710 -23.493  42.839  1.00 80.35 LIG 0.17  C 
ATOM     24  CB  ALA B   2     -21.572 -22.644  44.082  1.00 80.34 LIG 0.04  C 
BRANCH 23 25
ATOM     25  N   ALA B   2     -21.836 -22.636  41.656  1.00 80.28 LIG-0.35  N 
ATOM     26 H    ALA B   2     -22.219 -21.883  41.818  1.00 80.28 LIG 0.16  HD
ATOM     27  C   GLY B   1     -21.401 -22.981  40.445  1.00 80.20 LIG 0.24  C 
ATOM     28 O    GLY B   1     -20.889 -24.069  40.186  1.00 80.22 LIG-0.27  OA
BRANCH 27 29
ATOM     29  CA  GLY B   1     -21.571 -21.937  39.362  1.00 80.17 LIG 0.33  C 
BRANCH 29 30
ATOM     30  N   GLY B   1     -20.343 -21.731  38.540  1.00 80.00 LIG-0.07  N 
ATOM     31 H3   GLY B   1     -19.685 -21.430  39.059  1.00 80.00 LIG 0.27  HD
ATOM     32 H2   GLY B   1     -20.510 -21.136  37.899  1.00 80.00 LIG 0.27  HD
ATOM     33 H1   GLY B   1     -20.099 -22.504  38.171  1.00 80.00 LIG 0.27  HD
ENDBRANCH 29 30
ENDBRANCH 27 29
ENDBRANCH 23 25
ENDBRANCH 20 23
ENDBRANCH 1 19
TORSDOF 12
ENDMDL
MODEL 83
USER: ADFR SOLUTION from run 44
USER: SCORE 10.870618 LL:  -2.667 LR:  -9.095 RR:   0.000 FEB:  -5.515
USER: RMSD 7.430518
USER: SEED 43
USER: STATUS no improvement in best 13 clusters for 5 generations
USER: GENES 14
USER: genes 0 Translation |==|  0.32113 0.54616 0.52900
USER: genes 1 Rotation |==|  0.41062 0.25918 0.92713 0.53973
USER: genes 2 Torsion [C]-CA--CB-[CG] |==|  0.43210
USER: genes 3 Torsion [CA]-CB--CG-[CD1] |==|  0.71173
USER: genes 4 Torsion [N]-CA--C-[N] |==|  0.26508
USER: genes 5 Torsion [C]-N--CA-[CB] |==|  0.82960
USER: genes 6 Torsion [N]-CA--C-[N] |==|  0.36353
USER: genes 7 Torsion [C]-N--CA-[C] |==|  0.71883
USER: genes 8 Torsion [N]-CA--C-[O] |==|  0.97452
USER: genes 9 Torsion [CB]-CA--N-[C] |==|  0.54445
USER: genes 10 Torsion [N]-C--CA-[N] |==|  0.89707
USER: genes 11 Torsion [C]-CA--N-[C] |==|  0.74777
USER: genes 12 Torsion [N]-C--CA-[N] |==|  0.73274
USER: genes 13 Torsion [C]-CA--N-[H2] |==|  0.58915
ROOT
ATOM      1  CA  LEU B   3     -20.936 -22.995  40.910  1.00 80.55 LIG 0.18  C 
ENDROOT
BRANCH 1 2
ATOM      2  CB  LEU B   3     -22.220 -23.415  40.178  1.00 80.55 LIG 0.04  C 
BRANCH 2 3
ATOM      3  CG  LEU B   3     -23.208 -24.425  40.815  1.00 80.55 LIG-0.02  C 
ATOM      4  CD1 LEU B   3     -23.066 -25.837  40.147  1.00 80.53 LIG 0.01  C 
ATOM      5  CD2 LEU B   3     -23.030 -24.558  42.349  1.00 80.44 LIG 0.01  C 
ENDBRANCH 2 3
ENDBRANCH 1 2
BRANCH 1 6
ATOM      6  C   LEU B   3     -19.877 -22.518  39.920  1.00 80.58 LIG 0.24  C 
ATOM      7  N   ALA B   4     -18.616 -22.812  40.262  1.00 80.60 LIG-0.35  N 
ATOM      8 H    ALA B   4     -18.422 -23.208  41.000  1.00 80.60 LIG 0.16  HD
ATOM      9 O    LEU B   3     -20.196 -21.932  38.879  1.00 80.60 LIG-0.27  OA
BRANCH 7 10
ATOM     10  CA  ALA B   4     -17.426 -22.510  39.449  1.00 80.57 LIG 0.17  C 
ATOM     11  CB  ALA B   4     -17.497 -23.229  38.108  1.00 80.56 LIG 0.04  C 
BRANCH 10 12
ATOM     12  C   ALA B   4     -17.204 -21.007  39.271  1.00 80.56 LIG 0.24  C 
ATOM     13  N   GLY B   5     -15.965 -20.586  39.527  1.00 80.55 LIG-0.35  N 
ATOM     14 H    GLY B   5     -15.320 -21.125  39.712  1.00 80.55 LIG 0.16  HD
ATOM     15 O    ALA B   4     -18.125 -20.260  38.915  1.00 80.59 LIG-0.27  OA
BRANCH 13 16
ATOM     16  CA  GLY B   5     -15.560 -19.175  39.524  1.00 80.50 LIG 0.21  C 
BRANCH 16 17
ATOM     17  C   GLY B   5     -14.827 -18.677  38.290  1.00 80.51 LIG 0.21  C 
ATOM     18 O    GLY B   5     -14.445 -19.506  37.415  1.00 80.50 LIG-0.29  OA
ENDBRANCH 16 17
ENDBRANCH 13 16
ENDBRANCH 10 12
ENDBRANCH 7 10
ENDBRANCH 1 6
BRANCH 1 19
ATOM     19  N   LEU B   3     -21.169 -21.827  41.743  1.00 80.50 LIG-0.35  N 
ATOM     20  C   ALA B   2     -20.158 -21.078  42.232  1.00 80.42 LIG 0.24  C 
ATOM     21 O    ALA B   2     -19.035 -21.557  42.546  1.00 80.43 LIG-0.27  OA
ATOM     22 H    LEU B   3     -22.000 -21.661  41.891  1.00 80.50 LIG 0.16  HD
BRANCH 20 23
ATOM     23  CA  ALA B   2     -20.531 -19.642  42.610  1.00 80.35 LIG 0.17  C 
ATOM     24  CB  ALA B   2     -21.122 -19.593  44.000  1.00 80.34 LIG 0.04  C 
BRANCH 23 25
ATOM     25  N   ALA B   2     -21.503 -19.142  41.632  1.00 80.28 LIG-0.35  N 
ATOM     26 H    ALA B   2     -22.320 -19.305  41.847  1.00 80.28 LIG 0.16  HD
ATOM     27  C   GLY B   1     -21.163 -18.495  40.519  1.00 80.20 LIG 0.24  C 
ATOM     28 O    GLY B   1     -20.000 -18.290  40.175  1.00 80.22 LIG-0.27  OA
BRANCH 27 29
ATOM     29  CA  GLY B   1     -22.314 -18.007  39.663  1.00 80.17 LIG 0.33  C 
BRANCH 29 30
ATOM     30  N   GLY B   1     -22.659 -18.939  38.550  1.00 80.00 LIG-0.07  N 
ATOM     31 H3   GLY B   1     -21.934 -19.398  38.311  1.00 80.00 LIG 0.27  HD
ATOM     32 H2   GLY B   1     -22.957 -18.472  37.853  1.00 80.00 LIG 0.27  HD
ATOM     33 H1   GLY B   1     -23.291 -19.504  38.821  1.00 80.00 LIG 0.27  HD
ENDBRANCH 29 30
ENDBRANCH 27 29
ENDBRANCH 23 25
ENDBRANCH 20 23
ENDBRANCH 1 19
TORSDOF 12
ENDMDL
MODEL 84
USER: ADFR SOLUTION from run 42
USER: SCORE 10.138520 LL:  -2.455 LR:  -9.073 RR:   0.000 FEB:  -5.493
USER: RMSD 8.908473
USER: SEED 41
USER: STATUS no improvement in best 33 clusters for 5 generations
USER: GENES 14
USER: genes 0 Translation |==|  0.25012 0.52208 0.55676
USER: genes 1 Rotation |==|  0.90642 0.38456 0.23268 0.50635
USER: genes 2 Torsion [C]-CA--CB-[CG] |==|  0.99954
USER: genes 3 Torsion [CA]-CB--CG-[CD1] |==|  0.19955
USER: genes 4 Torsion [N]-CA--C-[N] |==|  0.86506
USER: genes 5 Torsion [C]-N--CA-[CB] |==|  0.79700
USER: genes 6 Torsion [N]-CA--C-[N] |==|  0.16376
USER: genes 7 Torsion [C]-N--CA-[C] |==|  0.85753
USER: genes 8 Torsion [N]-CA--C-[O] |==|  0.72290
USER: genes 9 Torsion [CB]-CA--N-[C] |==|  0.92222
USER: genes 10 Torsion [N]-C--CA-[N] |==|  0.46831
USER: genes 11 Torsion [C]-CA--N-[C] |==|  0.80189
USER: genes 12 Torsion [N]-C--CA-[N] |==|  0.04447
USER: genes 13 Torsion [C]-CA--N-[H2] |==|  0.30356
ROOT
ATOM      1  CA  LEU B   3     -23.066 -23.718  41.743  1.00 80.55 LIG 0.18  C 
ENDROOT
BRANCH 1 2
ATOM      2  CB  LEU B   3     -23.380 -24.796  40.694  1.00 80.55 LIG 0.04  C 
BRANCH 2 3
ATOM      3  CG  LEU B   3     -23.017 -26.282  40.944  1.00 80.55 LIG-0.02  C 
ATOM      4  CD1 LEU B   3     -23.963 -26.908  42.027  1.00 80.53 LIG 0.01  C 
ATOM      5  CD2 LEU B   3     -23.068 -27.139  39.654  1.00 80.44 LIG 0.01  C 
ENDBRANCH 2 3
ENDBRANCH 1 2
BRANCH 1 6
ATOM      6  C   LEU B   3     -22.395 -24.330  42.970  1.00 80.58 LIG 0.24  C 
ATOM      7  N   ALA B   4     -21.141 -24.755  42.770  1.00 80.60 LIG-0.35  N 
ATOM      8 H    ALA B   4     -20.762 -24.715  42.000  1.00 80.60 LIG 0.16  HD
ATOM      9 O    LEU B   3     -22.985 -24.388  44.055  1.00 80.60 LIG-0.27  OA
BRANCH 7 10
ATOM     10  CA  ALA B   4     -20.267 -25.329  43.806  1.00 80.57 LIG 0.17  C 
ATOM     11  CB  ALA B   4     -19.782 -24.243  44.758  1.00 80.56 LIG 0.04  C 
BRANCH 10 12
ATOM     12  C   ALA B   4     -20.930 -26.483  44.560  1.00 80.56 LIG 0.24  C 
ATOM     13  N   GLY B   5     -21.308 -27.510  43.798  1.00 80.55 LIG-0.35  N 
ATOM     14 H    GLY B   5     -21.132 -27.555  42.958  1.00 80.55 LIG 0.16  HD
ATOM     15 O    ALA B   4     -21.093 -26.438  45.787  1.00 80.59 LIG-0.27  OA
BRANCH 13 16
ATOM     16  CA  GLY B   5     -22.057 -28.670  44.297  1.00 80.50 LIG 0.21  C 
BRANCH 16 17
ATOM     17  C   GLY B   5     -21.498 -29.368  45.525  1.00 80.51 LIG 0.21  C 
ATOM     18 O    GLY B   5     -20.825 -30.429  45.387  1.00 80.50 LIG-0.29  OA
ENDBRANCH 16 17
ENDBRANCH 13 16
ENDBRANCH 10 12
ENDBRANCH 7 10
ENDBRANCH 1 6
BRANCH 1 19
ATOM     19  N   LEU B   3     -22.072 -22.781  41.247  1.00 80.50 LIG-0.35  N 
ATOM     20  C   ALA B   2     -21.144 -23.133  40.332  1.00 80.42 LIG 0.24  C 
ATOM     21 O    ALA B   2     -20.651 -24.291  40.260  1.00 80.43 LIG-0.27  OA
ATOM     22 H    LEU B   3     -22.131 -21.992  41.587  1.00 80.50 LIG 0.16  HD
BRANCH 20 23
ATOM     23  CA  ALA B   2     -20.545 -21.975  39.530  1.00 80.35 LIG 0.17  C 
ATOM     24  CB  ALA B   2     -21.565 -21.408  38.569  1.00 80.34 LIG 0.04  C 
BRANCH 23 25
ATOM     25  N   ALA B   2     -19.380 -22.473  38.790  1.00 80.28 LIG-0.35  N 
ATOM     26 H    ALA B   2     -19.512 -22.531  37.942  1.00 80.28 LIG 0.16  HD
ATOM     27  C   GLY B   1     -18.227 -22.806  39.367  1.00 80.20 LIG 0.24  C 
ATOM     28 O    GLY B   1     -18.034 -22.769  40.582  1.00 80.22 LIG-0.27  OA
BRANCH 27 29
ATOM     29  CA  GLY B   1     -17.124 -23.247  38.429  1.00 80.17 LIG 0.33  C 
BRANCH 29 30
ATOM     30  N   GLY B   1     -17.379 -22.881  37.004  1.00 80.00 LIG-0.07  N 
ATOM     31 H3   GLY B   1     -17.252 -23.595  36.487  1.00 80.00 LIG 0.27  HD
ATOM     32 H2   GLY B   1     -16.818 -22.234  36.758  1.00 80.00 LIG 0.27  HD
ATOM     33 H1   GLY B   1     -18.218 -22.596  36.916  1.00 80.00 LIG 0.27  HD
ENDBRANCH 29 30
ENDBRANCH 27 29
ENDBRANCH 23 25
ENDBRANCH 20 23
ENDBRANCH 1 19
TORSDOF 12
ENDMDL
MODEL 85
USER: ADFR SOLUTION from run 138
USER: SCORE 10.174090 LL:  -2.508 LR:  -9.064 RR:   0.000 FEB:  -5.485
USER: RMSD 6.767674
USER: SEED 137
USER: STATUS no improvement in best 28 clusters for 5 generations
USER: GENES 14
USER: genes 0 Translation |==|  0.44788 0.45427 0.45700
USER: genes 1 Rotation |==|  0.92666 0.53393 0.26612 0.61006
USER: genes 2 Torsion [C]-CA--CB-[CG] |==|  0.21696
USER: genes 3 Torsion [CA]-CB--CG-[CD1] |==|  0.35121
USER: genes 4 Torsion [N]-CA--C-[N] |==|  0.37249
USER: genes 5 Torsion [C]-N--CA-[CB] |==|  0.74444
USER: genes 6 Torsion [N]-CA--C-[N] |==|  0.29710
USER: genes 7 Torsion [C]-N--CA-[C] |==|  0.09444
USER: genes 8 Torsion [N]-CA--C-[O] |==|  0.10901
USER: genes 9 Torsion [CB]-CA--N-[C] |==|  0.54550
USER: genes 10 Torsion [N]-C--CA-[N] |==|  0.57985
USER: genes 11 Torsion [C]-CA--N-[C] |==|  0.64396
USER: genes 12 Torsion [N]-C--CA-[N] |==|  0.12784
USER: genes 13 Torsion [C]-CA--N-[H2] |==|  0.11922
ROOT
ATOM      1  CA  LEU B   3     -17.133 -25.752  38.750  1.00 80.55 LIG 0.18  C 
ENDROOT
BRANCH 1 2
ATOM      2  CB  LEU B   3     -16.568 -26.784  37.762  1.00 80.55 LIG 0.04  C 
BRANCH 2 3
ATOM      3  CG  LEU B   3     -16.838 -28.298  37.948  1.00 80.55 LIG-0.02  C 
ATOM      4  CD1 LEU B   3     -17.446 -28.918  36.642  1.00 80.53 LIG 0.01  C 
ATOM      5  CD2 LEU B   3     -15.570 -29.091  38.354  1.00 80.44 LIG 0.01  C 
ENDBRANCH 2 3
ENDBRANCH 1 2
BRANCH 1 6
ATOM      6  C   LEU B   3     -16.304 -25.713  40.031  1.00 80.58 LIG 0.24  C 
ATOM      7  N   ALA B   4     -16.892 -26.269  41.098  1.00 80.60 LIG-0.35  N 
ATOM      8 H    ALA B   4     -17.689 -26.589  41.066  1.00 80.60 LIG 0.16  HD
ATOM      9 O    LEU B   3     -15.169 -25.221  40.039  1.00 80.60 LIG-0.27  OA
BRANCH 7 10
ATOM     10  CA  ALA B   4     -16.276 -26.404  42.428  1.00 80.57 LIG 0.17  C 
ATOM     11  CB  ALA B   4     -15.568 -27.747  42.556  1.00 80.56 LIG 0.04  C 
BRANCH 10 12
ATOM     12  C   ALA B   4     -15.341 -25.241  42.763  1.00 80.56 LIG 0.24  C 
ATOM     13  N   GLY B   5     -15.812 -24.382  43.668  1.00 80.55 LIG-0.35  N 
ATOM     14 H    GLY B   5     -16.554 -24.505  44.084  1.00 80.55 LIG 0.16  HD
ATOM     15 O    ALA B   4     -14.235 -25.130  42.218  1.00 80.59 LIG-0.27  OA
BRANCH 13 16
ATOM     16  CA  GLY B   5     -15.129 -23.141  44.054  1.00 80.50 LIG 0.21  C 
BRANCH 16 17
ATOM     17  C   GLY B   5     -14.349 -22.422  42.967  1.00 80.51 LIG 0.21  C 
ATOM     18 O    GLY B   5     -14.820 -22.366  41.795  1.00 80.50 LIG-0.29  OA
ENDBRANCH 16 17
ENDBRANCH 13 16
ENDBRANCH 10 12
ENDBRANCH 7 10
ENDBRANCH 1 6
BRANCH 1 19
ATOM     19  N   LEU B   3     -17.006 -24.403  38.225  1.00 80.50 LIG-0.35  N 
ATOM     20  C   ALA B   2     -17.122 -23.310  39.009  1.00 80.42 LIG 0.24  C 
ATOM     21 O    ALA B   2     -17.879 -23.261  40.016  1.00 80.43 LIG-0.27  OA
ATOM     22 H    LEU B   3     -16.852 -24.368  37.379  1.00 80.50 LIG 0.16  HD
BRANCH 20 23
ATOM     23  CA  ALA B   2     -16.454 -22.043  38.468  1.00 80.35 LIG 0.17  C 
ATOM     24  CB  ALA B   2     -15.247 -22.394  37.628  1.00 80.34 LIG 0.04  C 
BRANCH 23 25
ATOM     25  N   ALA B   2     -16.050 -21.208  39.604  1.00 80.28 LIG-0.35  N 
ATOM     26 H    ALA B   2     -15.583 -21.630  40.191  1.00 80.28 LIG 0.16  HD
ATOM     27  C   GLY B   1     -16.369 -19.920  39.723  1.00 80.20 LIG 0.24  C 
ATOM     28 O    GLY B   1     -17.070 -19.312  38.915  1.00 80.22 LIG-0.27  OA
BRANCH 27 29
ATOM     29  CA  GLY B   1     -15.811 -19.214  40.940  1.00 80.17 LIG 0.33  C 
BRANCH 29 30
ATOM     30  N   GLY B   1     -14.366 -19.498  41.178  1.00 80.00 LIG-0.07  N 
ATOM     31 H3   GLY B   1     -14.030 -18.887  41.732  1.00 80.00 LIG 0.27  HD
ATOM     32 H2   GLY B   1     -13.926 -19.469  40.405  1.00 80.00 LIG 0.27  HD
ATOM     33 H1   GLY B   1     -14.277 -20.307  41.540  1.00 80.00 LIG 0.27  HD
ENDBRANCH 29 30
ENDBRANCH 27 29
ENDBRANCH 23 25
ENDBRANCH 20 23
ENDBRANCH 1 19
TORSDOF 12
ENDMDL
MODEL 86
USER: ADFR SOLUTION from run 148
USER: SCORE 9.462583 LL:  -2.298 LR:  -9.050 RR:   0.000 FEB:  -5.471
USER: RMSD 10.899562
USER: SEED 147
USER: STATUS no improvement in best 23 clusters for 5 generations
USER: GENES 14
USER: genes 0 Translation |==|  0.22671 0.49985 0.56439
USER: genes 1 Rotation |==|  0.92286 0.42985 0.24433 0.53006
USER: genes 2 Torsion [C]-CA--CB-[CG] |==|  0.00965
USER: genes 3 Torsion [CA]-CB--CG-[CD1] |==|  0.19058
USER: genes 4 Torsion [N]-CA--C-[N] |==|  0.39444
USER: genes 5 Torsion [C]-N--CA-[CB] |==|  0.23167
USER: genes 6 Torsion [N]-CA--C-[N] |==|  0.04029
USER: genes 7 Torsion [C]-N--CA-[C] |==|  0.75060
USER: genes 8 Torsion [N]-CA--C-[O] |==|  0.64951
USER: genes 9 Torsion [CB]-CA--N-[C] |==|  0.92713
USER: genes 10 Torsion [N]-C--CA-[N] |==|  0.12516
USER: genes 11 Torsion [C]-CA--N-[C] |==|  0.17138
USER: genes 12 Torsion [N]-C--CA-[N] |==|  0.26060
USER: genes 13 Torsion [C]-CA--N-[H2] |==|  0.94319
ROOT
ATOM      1  CA  LEU B   3     -23.769 -24.385  41.972  1.00 80.55 LIG 0.18  C 
ENDROOT
BRANCH 1 2
ATOM      2  CB  LEU B   3     -23.795 -25.489  40.904  1.00 80.55 LIG 0.04  C 
BRANCH 2 3
ATOM      3  CG  LEU B   3     -23.212 -26.895  41.194  1.00 80.55 LIG-0.02  C 
ATOM      4  CD1 LEU B   3     -24.090 -27.653  42.249  1.00 80.53 LIG 0.01  C 
ATOM      5  CD2 LEU B   3     -23.069 -27.764  39.919  1.00 80.44 LIG 0.01  C 
ENDBRANCH 2 3
ENDBRANCH 1 2
BRANCH 1 6
ATOM      6  C   LEU B   3     -23.041 -24.859  43.227  1.00 80.58 LIG 0.24  C 
ATOM      7  N   ALA B   4     -23.843 -25.273  44.218  1.00 80.60 LIG-0.35  N 
ATOM      8 H    ALA B   4     -24.699 -25.239  44.158  1.00 80.60 LIG 0.16  HD
ATOM      9 O    LEU B   3     -21.806 -24.870  43.281  1.00 80.60 LIG-0.27  OA
BRANCH 7 10
ATOM     10  CA  ALA B   4     -23.384 -25.825  45.502  1.00 80.57 LIG 0.17  C 
ATOM     11  CB  ALA B   4     -23.048 -24.704  46.478  1.00 80.56 LIG 0.04  C 
BRANCH 10 12
ATOM     12  C   ALA B   4     -24.382 -26.815  46.106  1.00 80.56 LIG 0.24  C 
ATOM     13  N   GLY B   5     -25.325 -27.246  45.267  1.00 80.55 LIG-0.35  N 
ATOM     14 H    GLY B   5     -25.335 -27.038  44.433  1.00 80.55 LIG 0.16  HD
ATOM     15 O    ALA B   4     -24.297 -27.172  47.288  1.00 80.59 LIG-0.27  OA
BRANCH 13 16
ATOM     16  CA  GLY B   5     -26.443 -28.111  45.663  1.00 80.50 LIG 0.21  C 
BRANCH 16 17
ATOM     17  C   GLY B   5     -26.212 -29.610  45.572  1.00 80.51 LIG 0.21  C 
ATOM     18 O    GLY B   5     -27.020 -30.326  44.916  1.00 80.50 LIG-0.29  OA
ENDBRANCH 16 17
ENDBRANCH 13 16
ENDBRANCH 10 12
ENDBRANCH 7 10
ENDBRANCH 1 6
BRANCH 1 19
ATOM     19  N   LEU B   3     -22.974 -23.251  41.530  1.00 80.50 LIG-0.35  N 
ATOM     20  C   ALA B   2     -21.972 -23.379  40.634  1.00 80.42 LIG 0.24  C 
ATOM     21 O    ALA B   2     -21.253 -24.411  40.546  1.00 80.43 LIG-0.27  OA
ATOM     22 H    LEU B   3     -23.199 -22.502  41.888  1.00 80.50 LIG 0.16  HD
BRANCH 20 23
ATOM     23  CA  ALA B   2     -21.602 -22.099  39.880  1.00 80.35 LIG 0.17  C 
ATOM     24  CB  ALA B   2     -20.274 -22.260  39.175  1.00 80.34 LIG 0.04  C 
BRANCH 23 25
ATOM     25  N   ALA B   2     -21.528 -20.996  40.844  1.00 80.28 LIG-0.35  N 
ATOM     26 H    ALA B   2     -22.096 -20.368  40.690  1.00 80.28 LIG 0.16  HD
ATOM     27  C   GLY B   1     -20.669 -20.961  41.861  1.00 80.20 LIG 0.24  C 
ATOM     28 O    GLY B   1     -19.822 -21.829  42.071  1.00 80.22 LIG-0.27  OA
BRANCH 27 29
ATOM     29  CA  GLY B   1     -20.785 -19.763  42.780  1.00 80.17 LIG 0.33  C 
BRANCH 29 30
ATOM     30  N   GLY B   1     -21.655 -20.011  43.967  1.00 80.00 LIG-0.07  N 
ATOM     31 H3   GLY B   1     -21.147 -20.194  44.674  1.00 80.00 LIG 0.27  HD
ATOM     32 H2   GLY B   1     -22.194 -20.700  43.802  1.00 80.00 LIG 0.27  HD
ATOM     33 H1   GLY B   1     -22.144 -19.285  44.134  1.00 80.00 LIG 0.27  HD
ENDBRANCH 29 30
ENDBRANCH 27 29
ENDBRANCH 23 25
ENDBRANCH 20 23
ENDBRANCH 1 19
TORSDOF 12
ENDMDL
MODEL 87
USER: ADFR SOLUTION from run 92
USER: SCORE 10.018201 LL:  -2.037 LR:  -9.037 RR:   0.000 FEB:  -5.457
USER: RMSD 6.523179
USER: SEED 91
USER: STATUS no improvement in best 7 clusters for 5 generations
USER: GENES 14
USER: genes 0 Translation |==|  0.44843 0.54305 0.52299
USER: genes 1 Rotation |==|  0.21511 0.70294 0.40561 0.84460
USER: genes 2 Torsion [C]-CA--CB-[CG] |==|  0.02469
USER: genes 3 Torsion [CA]-CB--CG-[CD1] |==|  0.36007
USER: genes 4 Torsion [N]-CA--C-[N] |==|  0.28889
USER: genes 5 Torsion [C]-N--CA-[CB] |==|  0.80287
USER: genes 6 Torsion [N]-CA--C-[N] |==|  0.34870
USER: genes 7 Torsion [C]-N--CA-[C] |==|  0.33161
USER: genes 8 Torsion [N]-CA--C-[O] |==|  0.40976
USER: genes 9 Torsion [CB]-CA--N-[C] |==|  0.90052
USER: genes 10 Torsion [N]-C--CA-[N] |==|  0.92332
USER: genes 11 Torsion [C]-CA--N-[C] |==|  0.83251
USER: genes 12 Torsion [N]-C--CA-[N] |==|  0.57166
USER: genes 13 Torsion [C]-CA--N-[H2] |==|  0.39957
ROOT
ATOM      1  CA  LEU B   3     -17.117 -23.088  40.730  1.00 80.55 LIG 0.18  C 
ENDROOT
BRANCH 1 2
ATOM      2  CB  LEU B   3     -16.174 -23.448  39.571  1.00 80.55 LIG 0.04  C 
BRANCH 2 3
ATOM      3  CG  LEU B   3     -16.723 -23.720  38.148  1.00 80.55 LIG-0.02  C 
ATOM      4  CD1 LEU B   3     -15.941 -22.877  37.082  1.00 80.53 LIG 0.01  C 
ATOM      5  CD2 LEU B   3     -16.676 -25.219  37.760  1.00 80.44 LIG 0.01  C 
ENDBRANCH 2 3
ENDBRANCH 1 2
BRANCH 1 6
ATOM      6  C   LEU B   3     -18.577 -23.265  40.318  1.00 80.58 LIG 0.24  C 
ATOM      7  N   ALA B   4     -19.395 -22.281  40.713  1.00 80.60 LIG-0.35  N 
ATOM      8 H    ALA B   4     -19.120 -21.622  41.191  1.00 80.60 LIG 0.16  HD
ATOM      9 O    LEU B   3     -18.935 -24.242  39.649  1.00 80.60 LIG-0.27  OA
BRANCH 7 10
ATOM     10  CA  ALA B   4     -20.829 -22.194  40.395  1.00 80.57 LIG 0.17  C 
ATOM     11  CB  ALA B   4     -21.031 -21.870  38.920  1.00 80.56 LIG 0.04  C 
BRANCH 10 12
ATOM     12  C   ALA B   4     -21.598 -23.451  40.804  1.00 80.56 LIG 0.24  C 
ATOM     13  N   GLY B   5     -22.649 -23.236  41.597  1.00 80.55 LIG-0.35  N 
ATOM     14 H    GLY B   5     -22.917 -22.447  41.808  1.00 80.55 LIG 0.16  HD
ATOM     15 O    ALA B   4     -21.248 -24.573  40.415  1.00 80.59 LIG-0.27  OA
BRANCH 13 16
ATOM     16  CA  GLY B   5     -23.459 -24.304  42.195  1.00 80.50 LIG 0.21  C 
BRANCH 16 17
ATOM     17  C   GLY B   5     -23.510 -24.355  43.713  1.00 80.51 LIG 0.21  C 
ATOM     18 O    GLY B   5     -24.560 -24.761  44.287  1.00 80.50 LIG-0.29  OA
ENDBRANCH 16 17
ENDBRANCH 13 16
ENDBRANCH 10 12
ENDBRANCH 7 10
ENDBRANCH 1 6
BRANCH 1 19
ATOM     19  N   LEU B   3     -16.964 -24.019  41.835  1.00 80.50 LIG-0.35  N 
ATOM     20  C   ALA B   2     -16.714 -25.332  41.643  1.00 80.42 LIG 0.24  C 
ATOM     21 O    ALA B   2     -17.150 -25.979  40.653  1.00 80.43 LIG-0.27  OA
ATOM     22 H    LEU B   3     -17.046 -23.659  42.613  1.00 80.50 LIG 0.16  HD
BRANCH 20 23
ATOM     23  CA  ALA B   2     -16.061 -26.053  42.825  1.00 80.35 LIG 0.17  C 
ATOM     24  CB  ALA B   2     -17.111 -26.690  43.706  1.00 80.34 LIG 0.04  C 
BRANCH 23 25
ATOM     25  N   ALA B   2     -15.284 -25.077  43.595  1.00 80.28 LIG-0.35  N 
ATOM     26 H    ALA B   2     -15.546 -24.997  44.410  1.00 80.28 LIG 0.16  HD
ATOM     27  C   GLY B   1     -14.269 -24.378  43.089  1.00 80.20 LIG 0.24  C 
ATOM     28 O    GLY B   1     -13.907 -24.449  41.915  1.00 80.22 LIG-0.27  OA
BRANCH 27 29
ATOM     29  CA  GLY B   1     -13.554 -23.460  44.058  1.00 80.17 LIG 0.33  C 
BRANCH 29 30
ATOM     30  N   GLY B   1     -12.887 -22.302  43.392  1.00 80.00 LIG-0.07  N 
ATOM     31 H3   GLY B   1     -12.029 -22.494  43.254  1.00 80.00 LIG 0.27  HD
ATOM     32 H2   GLY B   1     -12.950 -21.583  43.913  1.00 80.00 LIG 0.27  HD
ATOM     33 H1   GLY B   1     -13.284 -22.139  42.612  1.00 80.00 LIG 0.27  HD
ENDBRANCH 29 30
ENDBRANCH 27 29
ENDBRANCH 23 25
ENDBRANCH 20 23
ENDBRANCH 1 19
TORSDOF 12
ENDMDL
MODEL 88
USER: ADFR SOLUTION from run 81
USER: SCORE 10.392033 LL:  -2.537 LR:  -9.033 RR:   0.000 FEB:  -5.454
USER: RMSD 7.112064
USER: SEED 80
USER: STATUS no improvement in best 12 clusters for 5 generations
USER: GENES 14
USER: genes 0 Translation |==|  0.33442 0.58857 0.49965
USER: genes 1 Rotation |==|  0.21516 0.15188 0.43896 0.70965
USER: genes 2 Torsion [C]-CA--CB-[CG] |==|  0.44921
USER: genes 3 Torsion [CA]-CB--CG-[CD1] |==|  0.03980
USER: genes 4 Torsion [N]-CA--C-[N] |==|  0.79478
USER: genes 5 Torsion [C]-N--CA-[CB] |==|  0.73890
USER: genes 6 Torsion [N]-CA--C-[N] |==|  0.18628
USER: genes 7 Torsion [C]-N--CA-[C] |==|  0.38679
USER: genes 8 Torsion [N]-CA--C-[O] |==|  0.22024
USER: genes 9 Torsion [CB]-CA--N-[C] |==|  0.57712
USER: genes 10 Torsion [N]-C--CA-[N] |==|  0.98787
USER: genes 11 Torsion [C]-CA--N-[C] |==|  0.78395
USER: genes 12 Torsion [N]-C--CA-[N] |==|  0.74492
USER: genes 13 Torsion [C]-CA--N-[H2] |==|  0.42573
ROOT
ATOM      1  CA  LEU B   3     -20.537 -21.723  40.029  1.00 80.55 LIG 0.18  C 
ENDROOT
BRANCH 1 2
ATOM      2  CB  LEU B   3     -20.037 -20.311  40.373  1.00 80.55 LIG 0.04  C 
BRANCH 2 3
ATOM      3  CG  LEU B   3     -20.820 -19.054  39.920  1.00 80.55 LIG-0.02  C 
ATOM      4  CD1 LEU B   3     -22.264 -19.441  39.446  1.00 80.53 LIG 0.01  C 
ATOM      5  CD2 LEU B   3     -20.911 -17.970  41.024  1.00 80.44 LIG 0.01  C 
ENDBRANCH 2 3
ENDBRANCH 1 2
BRANCH 1 6
ATOM      6  C   LEU B   3     -19.415 -22.748  40.171  1.00 80.58 LIG 0.24  C 
ATOM      7  N   ALA B   4     -18.681 -22.626  41.285  1.00 80.60 LIG-0.35  N 
ATOM      8 H    ALA B   4     -18.814 -21.996  41.854  1.00 80.60 LIG 0.16  HD
ATOM      9 O    LEU B   3     -19.243 -23.626  39.317  1.00 80.60 LIG-0.27  OA
BRANCH 7 10
ATOM     10  CA  ALA B   4     -17.582 -23.524  41.676  1.00 80.57 LIG 0.17  C 
ATOM     11  CB  ALA B   4     -18.091 -24.622  42.600  1.00 80.56 LIG 0.04  C 
BRANCH 10 12
ATOM     12  C   ALA B   4     -16.840 -24.103  40.470  1.00 80.56 LIG 0.24  C 
ATOM     13  N   GLY B   5     -16.152 -23.214  39.752  1.00 80.55 LIG-0.35  N 
ATOM     14 H    GLY B   5     -16.073 -22.390  39.985  1.00 80.55 LIG 0.16  HD
ATOM     15 O    ALA B   4     -16.893 -25.311  40.203  1.00 80.59 LIG-0.27  OA
BRANCH 13 16
ATOM     16  CA  GLY B   5     -15.458 -23.533  38.498  1.00 80.50 LIG 0.21  C 
BRANCH 16 17
ATOM     17  C   GLY B   5     -15.556 -22.505  37.383  1.00 80.51 LIG 0.21  C 
ATOM     18 O    GLY B   5     -14.820 -21.479  37.415  1.00 80.50 LIG-0.29  OA
ENDBRANCH 16 17
ENDBRANCH 13 16
ENDBRANCH 10 12
ENDBRANCH 7 10
ENDBRANCH 1 6
BRANCH 1 19
ATOM     19  N   LEU B   3     -21.529 -22.173  40.992  1.00 80.50 LIG-0.35  N 
ATOM     20  C   ALA B   2     -21.722 -23.480  41.269  1.00 80.42 LIG 0.24  C 
ATOM     21 O    ALA B   2     -21.570 -24.396  40.416  1.00 80.43 LIG-0.27  OA
ATOM     22 H    LEU B   3     -21.974 -21.537  41.362  1.00 80.50 LIG 0.16  HD
BRANCH 20 23
ATOM     23  CA  ALA B   2     -22.369 -23.772  42.626  1.00 80.35 LIG 0.17  C 
ATOM     24  CB  ALA B   2     -23.715 -24.435  42.442  1.00 80.34 LIG 0.04  C 
BRANCH 23 25
ATOM     25  N   ALA B   2     -22.528 -22.505  43.348  1.00 80.28 LIG-0.35  N 
ATOM     26 H    ALA B   2     -23.332 -22.200  43.332  1.00 80.28 LIG 0.16  HD
ATOM     27  C   GLY B   1     -21.530 -21.882  43.971  1.00 80.20 LIG 0.24  C 
ATOM     28 O    GLY B   1     -20.366 -22.281  43.969  1.00 80.22 LIG-0.27  OA
BRANCH 27 29
ATOM     29  CA  GLY B   1     -21.904 -20.613  44.709  1.00 80.17 LIG 0.33  C 
BRANCH 29 30
ATOM     30  N   GLY B   1     -21.759 -19.382  43.878  1.00 80.00 LIG-0.07  N 
ATOM     31 H3   GLY B   1     -20.923 -19.081  43.937  1.00 80.00 LIG 0.27  HD
ATOM     32 H2   GLY B   1     -22.320 -18.757  44.173  1.00 80.00 LIG 0.27  HD
ATOM     33 H1   GLY B   1     -21.946 -19.573  43.029  1.00 80.00 LIG 0.27  HD
ENDBRANCH 29 30
ENDBRANCH 27 29
ENDBRANCH 23 25
ENDBRANCH 20 23
ENDBRANCH 1 19
TORSDOF 12
ENDMDL
MODEL 89
USER: ADFR SOLUTION from run 158
USER: SCORE 10.120486 LL:  -2.841 LR:  -9.019 RR:   0.000 FEB:  -5.440
USER: RMSD 10.407593
USER: SEED 157
USER: STATUS no improvement in best 12 clusters for 5 generations
USER: GENES 14
USER: genes 0 Translation |==|  0.23698 0.38307 0.60406
USER: genes 1 Rotation |==|  0.61156 0.91085 0.27367 0.63240
USER: genes 2 Torsion [C]-CA--CB-[CG] |==|  0.06413
USER: genes 3 Torsion [CA]-CB--CG-[CD1] |==|  0.42568
USER: genes 4 Torsion [N]-CA--C-[N] |==|  0.86690
USER: genes 5 Torsion [C]-N--CA-[CB] |==|  0.78669
USER: genes 6 Torsion [N]-CA--C-[N] |==|  0.23090
USER: genes 7 Torsion [C]-N--CA-[C] |==|  0.30988
USER: genes 8 Torsion [N]-CA--C-[O] |==|  0.86334
USER: genes 9 Torsion [CB]-CA--N-[C] |==|  0.36910
USER: genes 10 Torsion [N]-C--CA-[N] |==|  0.99462
USER: genes 11 Torsion [C]-CA--N-[C] |==|  0.70598
USER: genes 12 Torsion [N]-C--CA-[N] |==|  0.33163
USER: genes 13 Torsion [C]-CA--N-[H2] |==|  0.65809
ROOT
ATOM      1  CA  LEU B   3     -23.461 -27.888  43.162  1.00 80.55 LIG 0.18  C 
ENDROOT
BRANCH 1 2
ATOM      2  CB  LEU B   3     -23.797 -27.755  41.668  1.00 80.55 LIG 0.04  C 
BRANCH 2 3
ATOM      3  CG  LEU B   3     -23.118 -26.674  40.790  1.00 80.55 LIG-0.02  C 
ATOM      4  CD1 LEU B   3     -23.070 -27.128  39.290  1.00 80.53 LIG 0.01  C 
ATOM      5  CD2 LEU B   3     -23.813 -25.292  40.890  1.00 80.44 LIG 0.01  C 
ENDBRANCH 2 3
ENDBRANCH 1 2
BRANCH 1 6
ATOM      6  C   LEU B   3     -22.909 -26.576  43.715  1.00 80.58 LIG 0.24  C 
ATOM      7  N   ALA B   4     -23.811 -25.594  43.834  1.00 80.60 LIG-0.35  N 
ATOM      8 H    ALA B   4     -24.628 -25.690  43.583  1.00 80.60 LIG 0.16  HD
ATOM      9 O    LEU B   3     -21.721 -26.473  44.042  1.00 80.60 LIG-0.27  OA
BRANCH 7 10
ATOM     10  CA  ALA B   4     -23.540 -24.259  44.391  1.00 80.57 LIG 0.17  C 
ATOM     11  CB  ALA B   4     -23.465 -24.318  45.911  1.00 80.56 LIG 0.04  C 
BRANCH 10 12
ATOM     12  C   ALA B   4     -22.288 -23.616  43.791  1.00 80.56 LIG 0.24  C 
ATOM     13  N   GLY B   5     -22.475 -23.000  42.623  1.00 80.55 LIG-0.35  N 
ATOM     14 H    GLY B   5     -23.252 -22.909  42.265  1.00 80.55 LIG 0.16  HD
ATOM     15 O    ALA B   4     -21.194 -23.680  44.368  1.00 80.59 LIG-0.27  OA
BRANCH 13 16
ATOM     16  CA  GLY B   5     -21.394 -22.412  41.822  1.00 80.50 LIG 0.21  C 
BRANCH 16 17
ATOM     17  C   GLY B   5     -21.074 -23.094  40.502  1.00 80.51 LIG 0.21  C 
ATOM     18 O    GLY B   5     -20.906 -24.346  40.472  1.00 80.50 LIG-0.29  OA
ENDBRANCH 16 17
ENDBRANCH 13 16
ENDBRANCH 10 12
ENDBRANCH 7 10
ENDBRANCH 1 6
BRANCH 1 19
ATOM     19  N   LEU B   3     -24.662 -28.107  43.949  1.00 80.50 LIG-0.35  N 
ATOM     20  C   ALA B   2     -24.740 -29.069  44.893  1.00 80.42 LIG 0.24  C 
ATOM     21 O    ALA B   2     -24.130 -30.169  44.808  1.00 80.43 LIG-0.27  OA
ATOM     22 H    LEU B   3     -25.310 -27.572  43.759  1.00 80.50 LIG 0.16  HD
BRANCH 20 23
ATOM     23  CA  ALA B   2     -25.805 -28.844  45.970  1.00 80.35 LIG 0.17  C 
ATOM     24  CB  ALA B   2     -26.822 -29.962  45.955  1.00 80.34 LIG 0.04  C 
BRANCH 23 25
ATOM     25  N   ALA B   2     -26.466 -27.561  45.710  1.00 80.28 LIG-0.35  N 
ATOM     26 H    ALA B   2     -27.008 -27.584  45.043  1.00 80.28 LIG 0.16  HD
ATOM     27  C   GLY B   1     -26.253 -26.462  46.433  1.00 80.20 LIG 0.24  C 
ATOM     28 O    GLY B   1     -25.450 -26.400  47.363  1.00 80.22 LIG-0.27  OA
BRANCH 27 29
ATOM     29  CA  GLY B   1     -27.072 -25.250  46.044  1.00 80.17 LIG 0.33  C 
BRANCH 29 30
ATOM     30  N   GLY B   1     -27.954 -24.755  47.141  1.00 80.00 LIG-0.07  N 
ATOM     31 H3   GLY B   1     -27.883 -25.295  47.845  1.00 80.00 LIG 0.27  HD
ATOM     32 H2   GLY B   1     -28.799 -24.743  46.861  1.00 80.00 LIG 0.27  HD
ATOM     33 H1   GLY B   1     -27.707 -23.931  47.373  1.00 80.00 LIG 0.27  HD
ENDBRANCH 29 30
ENDBRANCH 27 29
ENDBRANCH 23 25
ENDBRANCH 20 23
ENDBRANCH 1 19
TORSDOF 12
ENDMDL
MODEL 90
USER: ADFR SOLUTION from run 47
USER: SCORE 10.030113 LL:  -2.249 LR:  -9.002 RR:   0.000 FEB:  -5.422
USER: RMSD 7.756625
USER: SEED 46
USER: STATUS no improvement in best 39 clusters for 5 generations
USER: GENES 14
USER: genes 0 Translation |==|  0.45131 0.46434 0.47586
USER: genes 1 Rotation |==|  0.88786 0.54838 0.21528 0.62712
USER: genes 2 Torsion [C]-CA--CB-[CG] |==|  0.20359
USER: genes 3 Torsion [CA]-CB--CG-[CD1] |==|  0.42433
USER: genes 4 Torsion [N]-CA--C-[N] |==|  0.38218
USER: genes 5 Torsion [C]-N--CA-[CB] |==|  0.16253
USER: genes 6 Torsion [N]-CA--C-[N] |==|  0.11005
USER: genes 7 Torsion [C]-N--CA-[C] |==|  0.15308
USER: genes 8 Torsion [N]-CA--C-[O] |==|  0.23099
USER: genes 9 Torsion [CB]-CA--N-[C] |==|  0.56226
USER: genes 10 Torsion [N]-C--CA-[N] |==|  0.56083
USER: genes 11 Torsion [C]-CA--N-[C] |==|  0.56696
USER: genes 12 Torsion [N]-C--CA-[N] |==|  0.35432
USER: genes 13 Torsion [C]-CA--N-[H2] |==|  0.47938
ROOT
ATOM      1  CA  LEU B   3     -17.031 -25.450  39.316  1.00 80.55 LIG 0.18  C 
ENDROOT
BRANCH 1 2
ATOM      2  CB  LEU B   3     -16.673 -26.540  38.294  1.00 80.55 LIG 0.04  C 
BRANCH 2 3
ATOM      3  CG  LEU B   3     -16.695 -28.039  38.685  1.00 80.55 LIG-0.02  C 
ATOM      4  CD1 LEU B   3     -16.982 -28.936  37.431  1.00 80.53 LIG 0.01  C 
ATOM      5  CD2 LEU B   3     -15.382 -28.505  39.364  1.00 80.44 LIG 0.01  C 
ENDBRANCH 2 3
ENDBRANCH 1 2
BRANCH 1 6
ATOM      6  C   LEU B   3     -15.910 -25.273  40.338  1.00 80.58 LIG 0.24  C 
ATOM      7  N   ALA B   4     -16.151 -25.822  41.535  1.00 80.60 LIG-0.35  N 
ATOM      8 H    ALA B   4     -16.895 -26.212  41.719  1.00 80.60 LIG 0.16  HD
ATOM      9 O    LEU B   3     -14.864 -24.684  40.040  1.00 80.60 LIG-0.27  OA
BRANCH 7 10
ATOM     10  CA  ALA B   4     -15.208 -25.834  42.665  1.00 80.57 LIG 0.17  C 
ATOM     11  CB  ALA B   4     -14.823 -24.413  43.056  1.00 80.56 LIG 0.04  C 
BRANCH 10 12
ATOM     12  C   ALA B   4     -15.738 -26.623  43.864  1.00 80.56 LIG 0.24  C 
ATOM     13  N   GLY B   5     -16.388 -27.746  43.556  1.00 80.55 LIG-0.35  N 
ATOM     14 H    GLY B   5     -16.448 -28.043  42.751  1.00 80.55 LIG 0.16  HD
ATOM     15 O    ALA B   4     -15.562 -26.225  45.023  1.00 80.59 LIG-0.27  OA
BRANCH 13 16
ATOM     16  CA  GLY B   5     -17.070 -28.596  44.540  1.00 80.50 LIG 0.21  C 
BRANCH 16 17
ATOM     17  C   GLY B   5     -18.111 -27.923  45.419  1.00 80.51 LIG 0.21  C 
ATOM     18 O    GLY B   5     -19.287 -27.766  44.984  1.00 80.50 LIG-0.29  OA
ENDBRANCH 16 17
ENDBRANCH 13 16
ENDBRANCH 10 12
ENDBRANCH 7 10
ENDBRANCH 1 6
BRANCH 1 19
ATOM     19  N   LEU B   3     -17.115 -24.146  38.679  1.00 80.50 LIG-0.35  N 
ATOM     20  C   ALA B   2     -16.973 -22.996  39.371  1.00 80.42 LIG 0.24  C 
ATOM     21 O    ALA B   2     -17.340 -22.863  40.570  1.00 80.43 LIG-0.27  OA
ATOM     22 H    LEU B   3     -17.262 -24.177  37.832  1.00 80.50 LIG 0.16  HD
BRANCH 20 23
ATOM     23  CA  ALA B   2     -16.554 -21.780  38.540  1.00 80.35 LIG 0.17  C 
ATOM     24  CB  ALA B   2     -15.570 -22.183  37.466  1.00 80.34 LIG 0.04  C 
BRANCH 23 25
ATOM     25  N   ALA B   2     -15.945 -20.791  39.435  1.00 80.28 LIG-0.35  N 
ATOM     26 H    ALA B   2     -15.621 -21.134  40.154  1.00 80.28 LIG 0.16  HD
ATOM     27  C   GLY B   1     -15.894 -19.487  39.168  1.00 80.20 LIG 0.24  C 
ATOM     28 O    GLY B   1     -16.389 -18.974  38.165  1.00 80.22 LIG-0.27  OA
BRANCH 27 29
ATOM     29  CA  GLY B   1     -15.173 -18.634  40.190  1.00 80.17 LIG 0.33  C 
BRANCH 29 30
ATOM     30  N   GLY B   1     -14.115 -17.766  39.595  1.00 80.00 LIG-0.07  N 
ATOM     31 H3   GLY B   1     -13.451 -18.275  39.289  1.00 80.00 LIG 0.27  HD
ATOM     32 H2   GLY B   1     -13.800 -17.212  40.217  1.00 80.00 LIG 0.27  HD
ATOM     33 H1   GLY B   1     -14.460 -17.294  38.924  1.00 80.00 LIG 0.27  HD
ENDBRANCH 29 30
ENDBRANCH 27 29
ENDBRANCH 23 25
ENDBRANCH 20 23
ENDBRANCH 1 19
TORSDOF 12
ENDMDL
MODEL 91
USER: ADFR SOLUTION from run 18
USER: SCORE 10.346971 LL:  -2.494 LR:  -9.004 RR:   0.000 FEB:  -5.424
USER: RMSD 5.533919
USER: SEED 17
USER: STATUS no improvement in best 14 clusters for 5 generations
USER: GENES 14
USER: genes 0 Translation |==|  0.49347 0.44617 0.50373
USER: genes 1 Rotation |==|  0.30457 0.80681 0.15723 0.51348
USER: genes 2 Torsion [C]-CA--CB-[CG] |==|  0.26479
USER: genes 3 Torsion [CA]-CB--CG-[CD1] |==|  0.80510
USER: genes 4 Torsion [N]-CA--C-[N] |==|  0.34449
USER: genes 5 Torsion [C]-N--CA-[CB] |==|  0.88359
USER: genes 6 Torsion [N]-CA--C-[N] |==|  0.81687
USER: genes 7 Torsion [C]-N--CA-[C] |==|  0.07686
USER: genes 8 Torsion [N]-CA--C-[O] |==|  0.25267
USER: genes 9 Torsion [CB]-CA--N-[C] |==|  0.54347
USER: genes 10 Torsion [N]-C--CA-[N] |==|  0.44409
USER: genes 11 Torsion [C]-CA--N-[C] |==|  0.82217
USER: genes 12 Torsion [N]-C--CA-[N] |==|  0.58324
USER: genes 13 Torsion [C]-CA--N-[H2] |==|  0.17619
ROOT
ATOM      1  CA  LEU B   3     -15.766 -25.995  40.152  1.00 80.55 LIG 0.18  C 
ENDROOT
BRANCH 1 2
ATOM      2  CB  LEU B   3     -16.694 -27.215  40.053  1.00 80.55 LIG 0.04  C 
BRANCH 2 3
ATOM      3  CG  LEU B   3     -16.456 -28.315  38.987  1.00 80.55 LIG-0.02  C 
ATOM      4  CD1 LEU B   3     -16.781 -27.774  37.551  1.00 80.53 LIG 0.01  C 
ATOM      5  CD2 LEU B   3     -15.013 -28.879  39.014  1.00 80.44 LIG 0.01  C 
ENDBRANCH 2 3
ENDBRANCH 1 2
BRANCH 1 6
ATOM      6  C   LEU B   3     -16.338 -24.811  39.376  1.00 80.58 LIG 0.24  C 
ATOM      7  N   ALA B   4     -15.587 -24.399  38.346  1.00 80.60 LIG-0.35  N 
ATOM      8 H    ALA B   4     -14.827 -24.755  38.163  1.00 80.60 LIG 0.16  HD
ATOM      9 O    LEU B   3     -17.427 -24.313  39.687  1.00 80.60 LIG-0.27  OA
BRANCH 7 10
ATOM     10  CA  ALA B   4     -15.948 -23.317  37.416  1.00 80.57 LIG 0.17  C 
ATOM     11  CB  ALA B   4     -17.421 -23.406  37.036  1.00 80.56 LIG 0.04  C 
BRANCH 10 12
ATOM     12  C   ALA B   4     -15.591 -21.933  37.959  1.00 80.56 LIG 0.24  C 
ATOM     13  N   GLY B   5     -16.276 -21.557  39.040  1.00 80.55 LIG-0.35  N 
ATOM     14 H    GLY B   5     -16.828 -22.078  39.444  1.00 80.55 LIG 0.16  HD
ATOM     15 O    ALA B   4     -14.726 -21.233  37.415  1.00 80.59 LIG-0.27  OA
BRANCH 13 16
ATOM     16  CA  GLY B   5     -16.171 -20.230  39.659  1.00 80.50 LIG 0.21  C 
BRANCH 16 17
ATOM     17  C   GLY B   5     -15.786 -19.079  38.745  1.00 80.51 LIG 0.21  C 
ATOM     18 O    GLY B   5     -16.691 -18.410  38.169  1.00 80.50 LIG-0.29  OA
ENDBRANCH 16 17
ENDBRANCH 13 16
ENDBRANCH 10 12
ENDBRANCH 7 10
ENDBRANCH 1 6
BRANCH 1 19
ATOM     19  N   LEU B   3     -15.697 -25.501  41.517  1.00 80.50 LIG-0.35  N 
ATOM     20  C   ALA B   2     -15.211 -24.278  41.817  1.00 80.42 LIG 0.24  C 
ATOM     21 O    ALA B   2     -14.290 -23.722  41.161  1.00 80.43 LIG-0.27  OA
ATOM     22 H    LEU B   3     -15.992 -26.054  42.107  1.00 80.50 LIG 0.16  HD
BRANCH 20 23
ATOM     23  CA  ALA B   2     -15.682 -23.698  43.154  1.00 80.35 LIG 0.17  C 
ATOM     24  CB  ALA B   2     -17.074 -23.123  43.024  1.00 80.34 LIG 0.04  C 
BRANCH 23 25
ATOM     25  N   ALA B   2     -14.741 -22.649  43.563  1.00 80.28 LIG-0.35  N 
ATOM     26 H    ALA B   2     -15.096 -21.866  43.599  1.00 80.28 LIG 0.16  HD
ATOM     27  C   GLY B   1     -13.462 -22.879  43.854  1.00 80.20 LIG 0.24  C 
ATOM     28 O    GLY B   1     -12.928 -23.984  43.768  1.00 80.22 LIG-0.27  OA
BRANCH 27 29
ATOM     29  CA  GLY B   1     -12.665 -21.675  44.312  1.00 80.17 LIG 0.33  C 
BRANCH 29 30
ATOM     30  N   GLY B   1     -11.218 -21.754  43.956  1.00 80.00 LIG-0.07  N 
ATOM     31 H3   GLY B   1     -10.791 -21.049  44.290  1.00 80.00 LIG 0.27  HD
ATOM     32 H2   GLY B   1     -11.130 -21.762  43.070  1.00 80.00 LIG 0.27  HD
ATOM     33 H1   GLY B   1     -10.869 -22.500  44.295  1.00 80.00 LIG 0.27  HD
ENDBRANCH 29 30
ENDBRANCH 27 29
ENDBRANCH 23 25
ENDBRANCH 20 23
ENDBRANCH 1 19
TORSDOF 12
ENDMDL
MODEL 92
USER: ADFR SOLUTION from run 130
USER: SCORE 10.664630 LL:  -2.672 LR:  -9.001 RR:   0.000 FEB:  -5.421
USER: RMSD 4.826498
USER: SEED 129
USER: STATUS no improvement in best 11 clusters for 5 generations
USER: GENES 14
USER: genes 0 Translation |==|  0.50473 0.44234 0.51226
USER: genes 1 Rotation |==|  0.27073 0.80419 0.17871 0.54101
USER: genes 2 Torsion [C]-CA--CB-[CG] |==|  0.22177
USER: genes 3 Torsion [CA]-CB--CG-[CD1] |==|  0.52336
USER: genes 4 Torsion [N]-CA--C-[N] |==|  0.32614
USER: genes 5 Torsion [C]-N--CA-[CB] |==|  0.80470
USER: genes 6 Torsion [N]-CA--C-[N] |==|  0.27197
USER: genes 7 Torsion [C]-N--CA-[C] |==|  0.66413
USER: genes 8 Torsion [N]-CA--C-[O] |==|  0.08447
USER: genes 9 Torsion [CB]-CA--N-[C] |==|  0.52845
USER: genes 10 Torsion [N]-C--CA-[N] |==|  0.97221
USER: genes 11 Torsion [C]-CA--N-[C] |==|  0.78184
USER: genes 12 Torsion [N]-C--CA-[N] |==|  0.52048
USER: genes 13 Torsion [C]-CA--N-[H2] |==|  0.67115
ROOT
ATOM      1  CA  LEU B   3     -15.428 -26.110  40.408  1.00 80.55 LIG 0.18  C 
ENDROOT
BRANCH 1 2
ATOM      2  CB  LEU B   3     -16.151 -27.456  40.248  1.00 80.55 LIG 0.04  C 
BRANCH 2 3
ATOM      3  CG  LEU B   3     -16.082 -28.246  38.917  1.00 80.55 LIG-0.02  C 
ATOM      4  CD1 LEU B   3     -17.068 -29.466  38.944  1.00 80.53 LIG 0.01  C 
ATOM      5  CD2 LEU B   3     -16.382 -27.366  37.677  1.00 80.44 LIG 0.01  C 
ENDBRANCH 2 3
ENDBRANCH 1 2
BRANCH 1 6
ATOM      6  C   LEU B   3     -16.234 -24.980  39.771  1.00 80.58 LIG 0.24  C 
ATOM      7  N   ALA B   4     -15.576 -24.278  38.839  1.00 80.60 LIG-0.35  N 
ATOM      8 H    ALA B   4     -14.754 -24.433  38.645  1.00 80.60 LIG 0.16  HD
ATOM      9 O    LEU B   3     -17.409 -24.775  40.097  1.00 80.60 LIG-0.27  OA
BRANCH 7 10
ATOM     10  CA  ALA B   4     -16.151 -23.180  38.046  1.00 80.57 LIG 0.17  C 
ATOM     11  CB  ALA B   4     -17.168 -23.716  37.047  1.00 80.56 LIG 0.04  C 
BRANCH 10 12
ATOM     12  C   ALA B   4     -16.750 -22.075  38.919  1.00 80.56 LIG 0.24  C 
ATOM     13  N   GLY B   5     -15.957 -21.022  39.117  1.00 80.55 LIG-0.35  N 
ATOM     14 H    GLY B   5     -15.194 -20.935  38.730  1.00 80.55 LIG 0.16  HD
ATOM     15 O    ALA B   4     -17.888 -22.180  39.395  1.00 80.59 LIG-0.27  OA
BRANCH 13 16
ATOM     16  CA  GLY B   5     -16.287 -19.902  40.007  1.00 80.50 LIG 0.21  C 
BRANCH 16 17
ATOM     17  C   GLY B   5     -16.348 -18.522  39.375  1.00 80.51 LIG 0.21  C 
ATOM     18 O    GLY B   5     -16.695 -18.405  38.165  1.00 80.50 LIG-0.29  OA
ENDBRANCH 16 17
ENDBRANCH 13 16
ENDBRANCH 10 12
ENDBRANCH 7 10
ENDBRANCH 1 6
BRANCH 1 19
ATOM     19  N   LEU B   3     -15.351 -25.722  41.807  1.00 80.50 LIG-0.35  N 
ATOM     20  C   ALA B   2     -14.947 -24.493  42.192  1.00 80.42 LIG 0.24  C 
ATOM     21 O    ALA B   2     -14.092 -23.818  41.558  1.00 80.43 LIG-0.27  OA
ATOM     22 H    LEU B   3     -15.585 -26.341  42.357  1.00 80.50 LIG 0.16  HD
BRANCH 20 23
ATOM     23  CA  ALA B   2     -15.415 -24.058  43.584  1.00 80.35 LIG 0.17  C 
ATOM     24  CB  ALA B   2     -14.248 -23.993  44.542  1.00 80.34 LIG 0.04  C 
BRANCH 23 25
ATOM     25  N   ALA B   2     -16.408 -25.025  44.064  1.00 80.28 LIG-0.35  N 
ATOM     26 H    ALA B   2     -16.090 -25.588  44.631  1.00 80.28 LIG 0.16  HD
ATOM     27  C   GLY B   1     -17.679 -25.035  43.668  1.00 80.20 LIG 0.24  C 
ATOM     28 O    GLY B   1     -18.140 -24.264  42.827  1.00 80.22 LIG-0.27  OA
BRANCH 27 29
ATOM     29  CA  GLY B   1     -18.564 -26.076  44.321  1.00 80.17 LIG 0.33  C 
BRANCH 29 30
ATOM     30  N   GLY B   1     -19.926 -26.158  43.716  1.00 80.00 LIG-0.07  N 
ATOM     31 H3   GLY B   1     -19.986 -25.582  43.040  1.00 80.00 LIG 0.27  HD
ATOM     32 H2   GLY B   1     -20.537 -25.957  44.332  1.00 80.00 LIG 0.27  HD
ATOM     33 H1   GLY B   1     -20.069 -26.984  43.415  1.00 80.00 LIG 0.27  HD
ENDBRANCH 29 30
ENDBRANCH 27 29
ENDBRANCH 23 25
ENDBRANCH 20 23
ENDBRANCH 1 19
TORSDOF 12
ENDMDL
MODEL 93
USER: ADFR SOLUTION from run 112
USER: SCORE 9.963347 LL:  -2.204 LR:  -9.005 RR:   0.000 FEB:  -5.425
USER: RMSD 7.233683
USER: SEED 111
USER: STATUS no improvement in best 13 clusters for 5 generations
USER: GENES 14
USER: genes 0 Translation |==|  0.31788 0.53353 0.50257
USER: genes 1 Rotation |==|  0.36400 0.08816 0.53118 0.74681
USER: genes 2 Torsion [C]-CA--CB-[CG] |==|  0.11488
USER: genes 3 Torsion [CA]-CB--CG-[CD1] |==|  0.22669
USER: genes 4 Torsion [N]-CA--C-[N] |==|  0.43890
USER: genes 5 Torsion [C]-N--CA-[CB] |==|  0.84976
USER: genes 6 Torsion [N]-CA--C-[N] |==|  0.86196
USER: genes 7 Torsion [C]-N--CA-[C] |==|  0.31580
USER: genes 8 Torsion [N]-CA--C-[O] |==|  0.91195
USER: genes 9 Torsion [CB]-CA--N-[C] |==|  0.16200
USER: genes 10 Torsion [N]-C--CA-[N] |==|  0.41796
USER: genes 11 Torsion [C]-CA--N-[C] |==|  0.78333
USER: genes 12 Torsion [N]-C--CA-[N] |==|  0.15381
USER: genes 13 Torsion [C]-CA--N-[H2] |==|  0.84830
ROOT
ATOM      1  CA  LEU B   3     -21.034 -23.374  40.117  1.00 80.55 LIG 0.18  C 
ENDROOT
BRANCH 1 2
ATOM      2  CB  LEU B   3     -21.578 -21.999  40.533  1.00 80.55 LIG 0.04  C 
BRANCH 2 3
ATOM      3  CG  LEU B   3     -20.974 -20.693  39.958  1.00 80.55 LIG-0.02  C 
ATOM      4  CD1 LEU B   3     -21.570 -20.386  38.540  1.00 80.53 LIG 0.01  C 
ATOM      5  CD2 LEU B   3     -21.188 -19.470  40.885  1.00 80.44 LIG 0.01  C 
ENDBRANCH 2 3
ENDBRANCH 1 2
BRANCH 1 6
ATOM      6  C   LEU B   3     -19.509 -23.356  40.043  1.00 80.58 LIG 0.24  C 
ATOM      7  N   ALA B   4     -19.008 -22.879  38.896  1.00 80.60 LIG-0.35  N 
ATOM      8 H    ALA B   4     -19.512 -22.635  38.243  1.00 80.60 LIG 0.16  HD
ATOM      9 O    LEU B   3     -18.821 -23.737  40.997  1.00 80.60 LIG-0.27  OA
BRANCH 7 10
ATOM     10  CA  ALA B   4     -17.576 -22.709  38.604  1.00 80.57 LIG 0.17  C 
ATOM     11  CB  ALA B   4     -16.905 -21.872  39.686  1.00 80.56 LIG 0.04  C 
BRANCH 10 12
ATOM     12  C   ALA B   4     -16.857 -24.043  38.398  1.00 80.56 LIG 0.24  C 
ATOM     13  N   GLY B   5     -17.075 -24.953  39.347  1.00 80.55 LIG-0.35  N 
ATOM     14 H    GLY B   5     -17.631 -24.829  39.992  1.00 80.55 LIG 0.16  HD
ATOM     15 O    ALA B   4     -16.131 -24.235  37.413  1.00 80.59 LIG-0.27  OA
BRANCH 13 16
ATOM     16  CA  GLY B   5     -16.403 -26.257  39.405  1.00 80.50 LIG 0.21  C 
BRANCH 16 17
ATOM     17  C   GLY B   5     -15.458 -26.488  40.572  1.00 80.51 LIG 0.21  C 
ATOM     18 O    GLY B   5     -14.820 -25.512  41.060  1.00 80.50 LIG-0.29  OA
ENDBRANCH 16 17
ENDBRANCH 13 16
ENDBRANCH 10 12
ENDBRANCH 7 10
ENDBRANCH 1 6
BRANCH 1 19
ATOM     19  N   LEU B   3     -21.310 -24.374  41.135  1.00 80.50 LIG-0.35  N 
ATOM     20  C   ALA B   2     -22.564 -24.659  41.544  1.00 80.42 LIG 0.24  C 
ATOM     21 O    ALA B   2     -23.486 -23.800  41.589  1.00 80.43 LIG-0.27  OA
ATOM     22 H    LEU B   3     -20.607 -24.762  41.447  1.00 80.50 LIG 0.16  HD
BRANCH 20 23
ATOM     23  CA  ALA B   2     -22.747 -26.039  42.180  1.00 80.35 LIG 0.17  C 
ATOM     24  CB  ALA B   2     -23.070 -27.073  41.126  1.00 80.34 LIG 0.04  C 
BRANCH 23 25
ATOM     25  N   ALA B   2     -23.837 -25.961  43.158  1.00 80.28 LIG-0.35  N 
ATOM     26 H    ALA B   2     -24.579 -26.289  42.871  1.00 80.28 LIG 0.16  HD
ATOM     27  C   GLY B   1     -23.700 -25.436  44.375  1.00 80.20 LIG 0.24  C 
ATOM     28 O    GLY B   1     -22.659 -24.925  44.786  1.00 80.22 LIG-0.27  OA
BRANCH 27 29
ATOM     29  CA  GLY B   1     -24.927 -25.498  45.260  1.00 80.17 LIG 0.33  C 
BRANCH 29 30
ATOM     30  N   GLY B   1     -25.464 -26.879  45.430  1.00 80.00 LIG-0.07  N 
ATOM     31 H3   GLY B   1     -24.871 -27.377  45.870  1.00 80.00 LIG 0.27  HD
ATOM     32 H2   GLY B   1     -25.618 -27.239  44.631  1.00 80.00 LIG 0.27  HD
ATOM     33 H1   GLY B   1     -26.225 -26.848  45.893  1.00 80.00 LIG 0.27  HD
ENDBRANCH 29 30
ENDBRANCH 27 29
ENDBRANCH 23 25
ENDBRANCH 20 23
ENDBRANCH 1 19
TORSDOF 12
ENDMDL
MODEL 94
USER: ADFR SOLUTION from run 83
USER: SCORE 9.394340 LL:  -2.078 LR:  -8.998 RR:   0.000 FEB:  -5.419
USER: RMSD 5.218289
USER: SEED 82
USER: STATUS no improvement in best 22 clusters for 5 generations
USER: GENES 14
USER: genes 0 Translation |==|  0.48003 0.42961 0.50992
USER: genes 1 Rotation |==|  0.34108 0.81598 0.17229 0.63232
USER: genes 2 Torsion [C]-CA--CB-[CG] |==|  0.18686
USER: genes 3 Torsion [CA]-CB--CG-[CD1] |==|  0.48305
USER: genes 4 Torsion [N]-CA--C-[N] |==|  0.34849
USER: genes 5 Torsion [C]-N--CA-[CB] |==|  0.83583
USER: genes 6 Torsion [N]-CA--C-[N] |==|  0.33660
USER: genes 7 Torsion [C]-N--CA-[C] |==|  0.63019
USER: genes 8 Torsion [N]-CA--C-[O] |==|  0.08254
USER: genes 9 Torsion [CB]-CA--N-[C] |==|  0.26108
USER: genes 10 Torsion [N]-C--CA-[N] |==|  0.49923
USER: genes 11 Torsion [C]-CA--N-[C] |==|  0.81682
USER: genes 12 Torsion [N]-C--CA-[N] |==|  0.75663
USER: genes 13 Torsion [C]-CA--N-[H2] |==|  0.32292
ROOT
ATOM      1  CA  LEU B   3     -16.169 -26.492  40.338  1.00 80.55 LIG 0.18  C 
ENDROOT
BRANCH 1 2
ATOM      2  CB  LEU B   3     -16.658 -27.773  39.645  1.00 80.55 LIG 0.04  C 
BRANCH 2 3
ATOM      3  CG  LEU B   3     -16.216 -28.118  38.200  1.00 80.55 LIG-0.02  C 
ATOM      4  CD1 LEU B   3     -16.727 -29.543  37.790  1.00 80.53 LIG 0.01  C 
ATOM      5  CD2 LEU B   3     -16.695 -27.077  37.158  1.00 80.44 LIG 0.01  C 
ENDBRANCH 2 3
ENDBRANCH 1 2
BRANCH 1 6
ATOM      6  C   LEU B   3     -16.745 -25.252  39.659  1.00 80.58 LIG 0.24  C 
ATOM      7  N   ALA B   4     -15.838 -24.457  39.077  1.00 80.60 LIG-0.35  N 
ATOM      8 H    ALA B   4     -14.995 -24.620  39.117  1.00 80.60 LIG 0.16  HD
ATOM      9 O    LEU B   3     -17.964 -25.042  39.645  1.00 80.60 LIG-0.27  OA
BRANCH 7 10
ATOM     10  CA  ALA B   4     -16.147 -23.236  38.315  1.00 80.57 LIG 0.17  C 
ATOM     11  CB  ALA B   4     -17.053 -23.558  37.134  1.00 80.56 LIG 0.04  C 
BRANCH 10 12
ATOM     12  C   ALA B   4     -16.737 -22.131  39.192  1.00 80.56 LIG 0.24  C 
ATOM     13  N   GLY B   5     -16.045 -20.991  39.203  1.00 80.55 LIG-0.35  N 
ATOM     14 H    GLY B   5     -15.357 -20.860  38.704  1.00 80.55 LIG 0.16  HD
ATOM     15 O    ALA B   4     -17.781 -22.309  39.833  1.00 80.59 LIG-0.27  OA
BRANCH 13 16
ATOM     16  CA  GLY B   5     -16.370 -19.842  40.057  1.00 80.50 LIG 0.21  C 
BRANCH 16 17
ATOM     17  C   GLY B   5     -16.388 -18.477  39.388  1.00 80.51 LIG 0.21  C 
ATOM     18 O    GLY B   5     -16.692 -18.386  38.165  1.00 80.50 LIG-0.29  OA
ENDBRANCH 16 17
ENDBRANCH 13 16
ENDBRANCH 10 12
ENDBRANCH 7 10
ENDBRANCH 1 6
BRANCH 1 19
ATOM     19  N   LEU B   3     -16.684 -26.403  41.694  1.00 80.50 LIG-0.35  N 
ATOM     20  C   ALA B   2     -15.985 -26.848  42.760  1.00 80.42 LIG 0.24  C 
ATOM     21 O    ALA B   2     -15.203 -27.835  42.709  1.00 80.43 LIG-0.27  OA
ATOM     22 H    LEU B   3     -17.465 -26.046  41.752  1.00 80.50 LIG 0.16  HD
BRANCH 20 23
ATOM     23  CA  ALA B   2     -16.377 -26.227  44.104  1.00 80.35 LIG 0.17  C 
ATOM     24  CB  ALA B   2     -16.191 -24.727  44.072  1.00 80.34 LIG 0.04  C 
BRANCH 23 25
ATOM     25  N   ALA B   2     -15.537 -26.815  45.152  1.00 80.28 LIG-0.35  N 
ATOM     26 H    ALA B   2     -15.002 -26.250  45.519  1.00 80.28 LIG 0.16  HD
ATOM     27  C   GLY B   1     -15.591 -28.098  45.507  1.00 80.20 LIG 0.24  C 
ATOM     28 O    GLY B   1     -16.319 -28.928  44.965  1.00 80.22 LIG-0.27  OA
BRANCH 27 29
ATOM     29  CA  GLY B   1     -14.683 -28.503  46.650  1.00 80.17 LIG 0.33  C 
BRANCH 29 30
ATOM     30  N   GLY B   1     -13.315 -28.898  46.205  1.00 80.00 LIG-0.07  N 
ATOM     31 H3   GLY B   1     -13.134 -29.720  46.494  1.00 80.00 LIG 0.27  HD
ATOM     32 H2   GLY B   1     -12.717 -28.329  46.541  1.00 80.00 LIG 0.27  HD
ATOM     33 H1   GLY B   1     -13.274 -28.880  45.316  1.00 80.00 LIG 0.27  HD
ENDBRANCH 29 30
ENDBRANCH 27 29
ENDBRANCH 23 25
ENDBRANCH 20 23
ENDBRANCH 1 19
TORSDOF 12
ENDMDL
MODEL 95
USER: ADFR SOLUTION from run 15
USER: SCORE 9.509962 LL:  -2.355 LR:  -8.990 RR:   0.000 FEB:  -5.410
USER: RMSD 5.429326
USER: SEED 656160
USER: STATUS searching
USER: GENES 14
USER: genes 0 Translation |==|  0.45866 0.48229 0.48128
USER: genes 1 Rotation |==|  0.20299 0.79795 0.25897 0.62212
USER: genes 2 Torsion [C]-CA--CB-[CG] |==|  0.54258
USER: genes 3 Torsion [CA]-CB--CG-[CD1] |==|  0.21954
USER: genes 4 Torsion [N]-CA--C-[N] |==|  0.89224
USER: genes 5 Torsion [C]-N--CA-[CB] |==|  0.53412
USER: genes 6 Torsion [N]-CA--C-[N] |==|  0.40636
USER: genes 7 Torsion [C]-N--CA-[C] |==|  0.72819
USER: genes 8 Torsion [N]-CA--C-[O] |==|  0.27361
USER: genes 9 Torsion [CB]-CA--N-[C] |==|  0.35147
USER: genes 10 Torsion [N]-C--CA-[N] |==|  0.06968
USER: genes 11 Torsion [C]-CA--N-[C] |==|  0.18889
USER: genes 12 Torsion [N]-C--CA-[N] |==|  0.10542
USER: genes 13 Torsion [C]-CA--N-[H2] |==|  0.69475
ROOT
ATOM      1  CA  LEU B   3     -16.810 -24.911  39.479  1.00 80.55 LIG 0.18  C 
ENDROOT
BRANCH 1 2
ATOM      2  CB  LEU B   3     -16.987 -26.338  38.936  1.00 80.55 LIG 0.04  C 
BRANCH 2 3
ATOM      3  CG  LEU B   3     -15.995 -27.466  39.317  1.00 80.55 LIG-0.02  C 
ATOM      4  CD1 LEU B   3     -16.312 -28.022  40.749  1.00 80.53 LIG 0.01  C 
ATOM      5  CD2 LEU B   3     -15.989 -28.634  38.298  1.00 80.44 LIG 0.01  C 
ENDBRANCH 2 3
ENDBRANCH 1 2
BRANCH 1 6
ATOM      6  C   LEU B   3     -18.083 -24.093  39.282  1.00 80.58 LIG 0.24  C 
ATOM      7  N   ALA B   4     -19.039 -24.312  40.194  1.00 80.60 LIG-0.35  N 
ATOM      8 H    ALA B   4     -18.949 -24.896  40.819  1.00 80.60 LIG 0.16  HD
ATOM      9 O    LEU B   3     -18.180 -23.279  38.355  1.00 80.60 LIG-0.27  OA
BRANCH 7 10
ATOM     10  CA  ALA B   4     -20.331 -23.609  40.253  1.00 80.57 LIG 0.17  C 
ATOM     11  CB  ALA B   4     -21.033 -23.890  41.575  1.00 80.56 LIG 0.04  C 
BRANCH 10 12
ATOM     12  C   ALA B   4     -20.193 -22.108  39.997  1.00 80.56 LIG 0.24  C 
ATOM     13  N   GLY B   5     -21.222 -21.549  39.359  1.00 80.55 LIG-0.35  N 
ATOM     14 H    GLY B   5     -21.940 -21.981  39.166  1.00 80.55 LIG 0.16  HD
ATOM     15 O    ALA B   4     -19.189 -21.483  40.364  1.00 80.59 LIG-0.27  OA
BRANCH 13 16
ATOM     16  CA  GLY B   5     -21.252 -20.149  38.917  1.00 80.50 LIG 0.21  C 
BRANCH 16 17
ATOM     17  C   GLY B   5     -21.971 -19.162  39.821  1.00 80.51 LIG 0.21  C 
ATOM     18 O    GLY B   5     -21.301 -18.449  40.622  1.00 80.50 LIG-0.29  OA
ENDBRANCH 16 17
ENDBRANCH 13 16
ENDBRANCH 10 12
ENDBRANCH 7 10
ENDBRANCH 1 6
BRANCH 1 19
ATOM     19  N   LEU B   3     -16.635 -24.920  40.921  1.00 80.50 LIG-0.35  N 
ATOM     20  C   ALA B   2     -15.587 -24.317  41.523  1.00 80.42 LIG 0.24  C 
ATOM     21 O    ALA B   2     -14.445 -24.232  40.997  1.00 80.43 LIG-0.27  OA
ATOM     22 H    LEU B   3     -17.253 -25.340  41.348  1.00 80.50 LIG 0.16  HD
BRANCH 20 23
ATOM     23  CA  ALA B   2     -15.804 -23.945  42.993  1.00 80.35 LIG 0.17  C 
ATOM     24  CB  ALA B   2     -14.516 -24.079  43.772  1.00 80.34 LIG 0.04  C 
BRANCH 23 25
ATOM     25  N   ALA B   2     -16.825 -24.837  43.553  1.00 80.28 LIG-0.35  N 
ATOM     26 H    ALA B   2     -17.560 -24.435  43.748  1.00 80.28 LIG 0.16  HD
ATOM     27  C   GLY B   1     -16.641 -26.142  43.744  1.00 80.20 LIG 0.24  C 
ATOM     28 O    GLY B   1     -15.582 -26.725  43.511  1.00 80.22 LIG-0.27  OA
BRANCH 27 29
ATOM     29  CA  GLY B   1     -17.834 -26.904  44.281  1.00 80.17 LIG 0.33  C 
BRANCH 29 30
ATOM     30  N   GLY B   1     -19.135 -26.439  43.716  1.00 80.00 LIG-0.07  N 
ATOM     31 H3   GLY B   1     -18.983 -25.881  43.040  1.00 80.00 LIG 0.27  HD
ATOM     32 H2   GLY B   1     -19.600 -26.019  44.348  1.00 80.00 LIG 0.27  HD
ATOM     33 H1   GLY B   1     -19.598 -27.141  43.423  1.00 80.00 LIG 0.27  HD
ENDBRANCH 29 30
ENDBRANCH 27 29
ENDBRANCH 23 25
ENDBRANCH 20 23
ENDBRANCH 1 19
TORSDOF 12
ENDMDL
MODEL 96
USER: ADFR SOLUTION from run 12
USER: SCORE 9.977482 LL:  -2.195 LR:  -8.992 RR:   0.000 FEB:  -5.412
USER: RMSD 8.029790
USER: SEED 588861
USER: STATUS no improvement in best 14 clusters for 5 generations
USER: GENES 14
USER: genes 0 Translation |==|  0.44433 0.54069 0.50379
USER: genes 1 Rotation |==|  0.13969 0.52572 0.82242 0.62474
USER: genes 2 Torsion [C]-CA--CB-[CG] |==|  0.85583
USER: genes 3 Torsion [CA]-CB--CG-[CD1] |==|  0.86304
USER: genes 4 Torsion [N]-CA--C-[N] |==|  0.46465
USER: genes 5 Torsion [C]-N--CA-[CB] |==|  0.85703
USER: genes 6 Torsion [N]-CA--C-[N] |==|  0.32796
USER: genes 7 Torsion [C]-N--CA-[C] |==|  0.62945
USER: genes 8 Torsion [N]-CA--C-[O] |==|  0.96517
USER: genes 9 Torsion [CB]-CA--N-[C] |==|  0.18537
USER: genes 10 Torsion [N]-C--CA-[N] |==|  0.44993
USER: genes 11 Torsion [C]-CA--N-[C] |==|  0.79238
USER: genes 12 Torsion [N]-C--CA-[N] |==|  0.19707
USER: genes 13 Torsion [C]-CA--N-[H2] |==|  0.34985
ROOT
ATOM      1  CA  LEU B   3     -17.240 -23.159  40.154  1.00 80.55 LIG 0.18  C 
ENDROOT
BRANCH 1 2
ATOM      2  CB  LEU B   3     -17.789 -23.345  38.730  1.00 80.55 LIG 0.04  C 
BRANCH 2 3
ATOM      3  CG  LEU B   3     -16.860 -23.774  37.566  1.00 80.55 LIG-0.02  C 
ATOM      4  CD1 LEU B   3     -15.570 -22.883  37.530  1.00 80.53 LIG 0.01  C 
ATOM      5  CD2 LEU B   3     -16.455 -25.268  37.637  1.00 80.44 LIG 0.01  C 
ENDBRANCH 2 3
ENDBRANCH 1 2
BRANCH 1 6
ATOM      6  C   LEU B   3     -16.458 -24.392  40.601  1.00 80.58 LIG 0.24  C 
ATOM      7  N   ALA B   4     -17.213 -25.457  40.902  1.00 80.60 LIG-0.35  N 
ATOM      8 H    ALA B   4     -18.072 -25.431  40.877  1.00 80.60 LIG 0.16  HD
ATOM      9 O    LEU B   3     -15.222 -24.380  40.645  1.00 80.60 LIG-0.27  OA
BRANCH 7 10
ATOM     10  CA  ALA B   4     -16.695 -26.775  41.303  1.00 80.57 LIG 0.17  C 
ATOM     11  CB  ALA B   4     -15.654 -27.267  40.306  1.00 80.56 LIG 0.04  C 
BRANCH 10 12
ATOM     12  C   ALA B   4     -16.151 -26.781  42.733  1.00 80.56 LIG 0.24  C 
ATOM     13  N   GLY B   5     -16.783 -27.602  43.572  1.00 80.55 LIG-0.35  N 
ATOM     14 H    GLY B   5     -17.405 -28.138  43.317  1.00 80.55 LIG 0.16  HD
ATOM     15 O    ALA B   4     -15.195 -26.065  43.059  1.00 80.59 LIG-0.27  OA
BRANCH 13 16
ATOM     16  CA  GLY B   5     -16.498 -27.685  45.010  1.00 80.50 LIG 0.21  C 
BRANCH 16 17
ATOM     17  C   GLY B   5     -16.346 -29.078  45.597  1.00 80.51 LIG 0.21  C 
ATOM     18 O    GLY B   5     -16.697 -30.083  44.916  1.00 80.50 LIG-0.29  OA
ENDBRANCH 16 17
ENDBRANCH 13 16
ENDBRANCH 10 12
ENDBRANCH 7 10
ENDBRANCH 1 6
BRANCH 1 19
ATOM     19  N   LEU B   3     -16.248 -22.098  40.196  1.00 80.50 LIG-0.35  N 
ATOM     20  C   ALA B   2     -16.567 -20.804  39.975  1.00 80.42 LIG 0.24  C 
ATOM     21 O    ALA B   2     -17.482 -20.445  39.186  1.00 80.43 LIG-0.27  OA
ATOM     22 H    LEU B   3     -15.451 -22.368  40.373  1.00 80.50 LIG 0.16  HD
BRANCH 20 23
ATOM     23  CA  ALA B   2     -15.592 -19.781  40.563  1.00 80.35 LIG 0.17  C 
ATOM     24  CB  ALA B   2     -15.804 -19.637  42.053  1.00 80.34 LIG 0.04  C 
BRANCH 23 25
ATOM     25  N   ALA B   2     -15.811 -18.493  39.897  1.00 80.28 LIG-0.35  N 
ATOM     26 H    ALA B   2     -16.226 -17.921  40.387  1.00 80.28 LIG 0.16  HD
ATOM     27  C   GLY B   1     -15.409 -18.226  38.656  1.00 80.20 LIG 0.24  C 
ATOM     28 O    GLY B   1     -14.852 -19.046  37.926  1.00 80.22 LIG-0.27  OA
BRANCH 27 29
ATOM     29  CA  GLY B   1     -15.678 -16.820  38.165  1.00 80.17 LIG 0.33  C 
BRANCH 29 30
ATOM     30  N   GLY B   1     -14.820 -15.790  38.820  1.00 80.00 LIG-0.07  N 
ATOM     31 H3   GLY B   1     -15.328 -15.250  39.313  1.00 80.00 LIG 0.27  HD
ATOM     32 H2   GLY B   1     -14.399 -15.313  38.197  1.00 80.00 LIG 0.27  HD
ATOM     33 H1   GLY B   1     -14.220 -16.191  39.342  1.00 80.00 LIG 0.27  HD
ENDBRANCH 29 30
ENDBRANCH 27 29
ENDBRANCH 23 25
ENDBRANCH 20 23
ENDBRANCH 1 19
TORSDOF 12
ENDMDL
MODEL 97
USER: ADFR SOLUTION from run 13
USER: SCORE 9.794368 LL:  -2.666 LR:  -8.984 RR:   0.000 FEB:  -5.404
USER: RMSD 6.338031
USER: SEED 810799
USER: STATUS no improvement in best 28 clusters for 5 generations
USER: GENES 14
USER: genes 0 Translation |==|  0.47888 0.49260 0.57698
USER: genes 1 Rotation |==|  0.55722 0.40510 0.98736 0.51414
USER: genes 2 Torsion [C]-CA--CB-[CG] |==|  0.24671
USER: genes 3 Torsion [CA]-CB--CG-[CD1] |==|  0.85161
USER: genes 4 Torsion [N]-CA--C-[N] |==|  0.80927
USER: genes 5 Torsion [C]-N--CA-[CB] |==|  0.84220
USER: genes 6 Torsion [N]-CA--C-[N] |==|  0.98852
USER: genes 7 Torsion [C]-N--CA-[C] |==|  0.90996
USER: genes 8 Torsion [N]-CA--C-[O] |==|  0.65325
USER: genes 9 Torsion [CB]-CA--N-[C] |==|  0.50013
USER: genes 10 Torsion [N]-C--CA-[N] |==|  0.91155
USER: genes 11 Torsion [C]-CA--N-[C] |==|  0.69140
USER: genes 12 Torsion [N]-C--CA-[N] |==|  0.54514
USER: genes 13 Torsion [C]-CA--N-[H2] |==|  0.57142
ROOT
ATOM      1  CA  LEU B   3     -16.204 -24.602  42.349  1.00 80.55 LIG 0.18  C 
ENDROOT
BRANCH 1 2
ATOM      2  CB  LEU B   3     -17.370 -25.506  42.778  1.00 80.55 LIG 0.04  C 
BRANCH 2 3
ATOM      3  CG  LEU B   3     -17.128 -26.975  43.203  1.00 80.55 LIG-0.02  C 
ATOM      4  CD1 LEU B   3     -16.326 -27.747  42.098  1.00 80.53 LIG 0.01  C 
ATOM      5  CD2 LEU B   3     -16.387 -27.097  44.559  1.00 80.44 LIG 0.01  C 
ENDBRANCH 2 3
ENDBRANCH 1 2
BRANCH 1 6
ATOM      6  C   LEU B   3     -15.943 -24.724  40.850  1.00 80.58 LIG 0.24  C 
ATOM      7  N   ALA B   4     -17.029 -24.580  40.078  1.00 80.60 LIG-0.35  N 
ATOM      8 H    ALA B   4     -17.813 -24.463  40.409  1.00 80.60 LIG 0.16  HD
ATOM      9 O    LEU B   3     -14.801 -24.915  40.416  1.00 80.60 LIG-0.27  OA
BRANCH 7 10
ATOM     10  CA  ALA B   4     -17.029 -24.600  38.607  1.00 80.57 LIG 0.17  C 
ATOM     11  CB  ALA B   4     -16.087 -23.536  38.057  1.00 80.56 LIG 0.04  C 
BRANCH 10 12
ATOM     12  C   ALA B   4     -16.707 -25.983  38.038  1.00 80.56 LIG 0.24  C 
ATOM     13  N   GLY B   5     -16.398 -26.908  38.948  1.00 80.55 LIG-0.35  N 
ATOM     14 H    GLY B   5     -16.442 -26.760  39.794  1.00 80.55 LIG 0.16  HD
ATOM     15 O    ALA B   4     -16.737 -26.199  36.820  1.00 80.59 LIG-0.27  OA
BRANCH 13 16
ATOM     16  CA  GLY B   5     -15.953 -28.267  38.618  1.00 80.50 LIG 0.21  C 
BRANCH 16 17
ATOM     17  C   GLY B   5     -16.522 -28.884  37.352  1.00 80.51 LIG 0.21  C 
ATOM     18 O    GLY B   5     -17.111 -30.001  37.413  1.00 80.50 LIG-0.29  OA
ENDBRANCH 16 17
ENDBRANCH 13 16
ENDBRANCH 10 12
ENDBRANCH 7 10
ENDBRANCH 1 6
BRANCH 1 19
ATOM     19  N   LEU B   3     -16.541 -23.199  42.520  1.00 80.50 LIG-0.35  N 
ATOM     20  C   ALA B   2     -15.677 -22.208  42.211  1.00 80.42 LIG 0.24  C 
ATOM     21 O    ALA B   2     -14.427 -22.320  42.329  1.00 80.43 LIG-0.27  OA
ATOM     22 H    LEU B   3     -17.331 -23.062  42.832  1.00 80.50 LIG 0.16  HD
BRANCH 20 23
ATOM     23  CA  ALA B   2     -16.319 -20.846  41.929  1.00 80.35 LIG 0.17  C 
ATOM     24  CB  ALA B   2     -16.458 -20.048  43.206  1.00 80.34 LIG 0.04  C 
BRANCH 23 25
ATOM     25  N   ALA B   2     -17.639 -21.069  41.330  1.00 80.28 LIG-0.35  N 
ATOM     26 H    ALA B   2     -18.211 -21.405  41.877  1.00 80.28 LIG 0.16  HD
ATOM     27  C   GLY B   1     -17.931 -20.779  40.063  1.00 80.20 LIG 0.24  C 
ATOM     28 O    GLY B   1     -17.115 -20.337  39.256  1.00 80.22 LIG-0.27  OA
BRANCH 27 29
ATOM     29  CA  GLY B   1     -19.365 -21.029  39.645  1.00 80.17 LIG 0.33  C 
BRANCH 29 30
ATOM     30  N   GLY B   1     -19.552 -21.062  38.165  1.00 80.00 LIG-0.07  N 
ATOM     31 H3   GLY B   1     -18.993 -20.485  37.782  1.00 80.00 LIG 0.27  HD
ATOM     32 H2   GLY B   1     -20.391 -20.838  37.966  1.00 80.00 LIG 0.27  HD
ATOM     33 H1   GLY B   1     -19.385 -21.882  37.862  1.00 80.00 LIG 0.27  HD
ENDBRANCH 29 30
ENDBRANCH 27 29
ENDBRANCH 23 25
ENDBRANCH 20 23
ENDBRANCH 1 19
TORSDOF 12
ENDMDL
MODEL 98
USER: ADFR SOLUTION from run 146
USER: SCORE 10.832255 LL:  -2.958 LR:  -8.983 RR:   0.000 FEB:  -5.404
USER: RMSD 5.453227
USER: SEED 145
USER: STATUS no improvement in best 11 clusters for 5 generations
USER: GENES 14
USER: genes 0 Translation |==|  0.47605 0.44254 0.46919
USER: genes 1 Rotation |==|  0.39639 0.84395 0.16670 0.59940
USER: genes 2 Torsion [C]-CA--CB-[CG] |==|  0.34555
USER: genes 3 Torsion [CA]-CB--CG-[CD1] |==|  0.09740
USER: genes 4 Torsion [N]-CA--C-[N] |==|  0.15126
USER: genes 5 Torsion [C]-N--CA-[CB] |==|  0.86658
USER: genes 6 Torsion [N]-CA--C-[N] |==|  0.94435
USER: genes 7 Torsion [C]-N--CA-[C] |==|  0.52942
USER: genes 8 Torsion [N]-CA--C-[O] |==|  0.07527
USER: genes 9 Torsion [CB]-CA--N-[C] |==|  0.19429
USER: genes 10 Torsion [N]-C--CA-[N] |==|  0.16230
USER: genes 11 Torsion [C]-CA--N-[C] |==|  0.75029
USER: genes 12 Torsion [N]-C--CA-[N] |==|  0.90815
USER: genes 13 Torsion [C]-CA--N-[H2] |==|  0.43859
ROOT
ATOM      1  CA  LEU B   3     -16.288 -26.104  39.116  1.00 80.55 LIG 0.18  C 
ENDROOT
BRANCH 1 2
ATOM      2  CB  LEU B   3     -17.063 -27.157  38.308  1.00 80.55 LIG 0.04  C 
BRANCH 2 3
ATOM      3  CG  LEU B   3     -16.344 -28.391  37.709  1.00 80.55 LIG-0.02  C 
ATOM      4  CD1 LEU B   3     -15.196 -28.880  38.659  1.00 80.53 LIG 0.01  C 
ATOM      5  CD2 LEU B   3     -17.309 -29.568  37.415  1.00 80.44 LIG 0.01  C 
ENDBRANCH 2 3
ENDBRANCH 1 2
BRANCH 1 6
ATOM      6  C   LEU B   3     -16.484 -24.711  38.523  1.00 80.58 LIG 0.24  C 
ATOM      7  N   ALA B   4     -15.954 -23.714  39.244  1.00 80.60 LIG-0.35  N 
ATOM      8 H    ALA B   4     -15.566 -23.852  39.999  1.00 80.60 LIG 0.16  HD
ATOM      9 O    LEU B   3     -17.068 -24.554  37.444  1.00 80.60 LIG-0.27  OA
BRANCH 7 10
ATOM     10  CA  ALA B   4     -15.961 -22.294  38.858  1.00 80.57 LIG 0.17  C 
ATOM     11  CB  ALA B   4     -15.502 -22.129  37.415  1.00 80.56 LIG 0.04  C 
BRANCH 10 12
ATOM     12  C   ALA B   4     -17.318 -21.628  39.096  1.00 80.56 LIG 0.24  C 
ATOM     13  N   GLY B   5     -18.348 -22.469  39.197  1.00 80.55 LIG-0.35  N 
ATOM     14 H    GLY B   5     -18.252 -23.323  39.197  1.00 80.55 LIG 0.16  HD
ATOM     15 O    ALA B   4     -17.422 -20.397  39.183  1.00 80.59 LIG-0.27  OA
BRANCH 13 16
ATOM     16  CA  GLY B   5     -19.747 -22.041  39.316  1.00 80.50 LIG 0.21  C 
BRANCH 16 17
ATOM     17  C   GLY B   5     -20.762 -23.116  39.669  1.00 80.51 LIG 0.21  C 
ATOM     18 O    GLY B   5     -20.393 -24.131  40.325  1.00 80.50 LIG-0.29  OA
ENDBRANCH 16 17
ENDBRANCH 13 16
ENDBRANCH 10 12
ENDBRANCH 7 10
ENDBRANCH 1 6
BRANCH 1 19
ATOM     19  N   LEU B   3     -16.828 -25.977  40.460  1.00 80.50 LIG-0.35  N 
ATOM     20  C   ALA B   2     -16.687 -26.948  41.387  1.00 80.42 LIG 0.24  C 
ATOM     21 O    ALA B   2     -16.653 -28.175  41.101  1.00 80.43 LIG-0.27  OA
ATOM     22 H    LEU B   3     -17.238 -25.234  40.605  1.00 80.50 LIG 0.16  HD
BRANCH 20 23
ATOM     23  CA  ALA B   2     -16.809 -26.484  42.841  1.00 80.35 LIG 0.17  C 
ATOM     24  CB  ALA B   2     -16.654 -27.653  43.788  1.00 80.34 LIG 0.04  C 
BRANCH 23 25
ATOM     25  N   ALA B   2     -18.125 -25.862  43.023  1.00 80.28 LIG-0.35  N 
ATOM     26 H    ALA B   2     -18.735 -26.417  43.265  1.00 80.28 LIG 0.16  HD
ATOM     27  C   GLY B   1     -18.358 -24.564  42.835  1.00 80.20 LIG 0.24  C 
ATOM     28 O    GLY B   1     -17.507 -23.764  42.448  1.00 80.22 LIG-0.27  OA
BRANCH 27 29
ATOM     29  CA  GLY B   1     -19.770 -24.101  43.128  1.00 80.17 LIG 0.33  C 
BRANCH 29 30
ATOM     30  N   GLY B   1     -20.806 -25.130  42.820  1.00 80.00 LIG-0.07  N 
ATOM     31 H3   GLY B   1     -20.993 -25.112  41.950  1.00 80.00 LIG 0.27  HD
ATOM     32 H2   GLY B   1     -21.545 -24.957  43.285  1.00 80.00 LIG 0.27  HD
ATOM     33 H1   GLY B   1     -20.499 -25.936  43.040  1.00 80.00 LIG 0.27  HD
ENDBRANCH 29 30
ENDBRANCH 27 29
ENDBRANCH 23 25
ENDBRANCH 20 23
ENDBRANCH 1 19
TORSDOF 12
ENDMDL
MODEL 99
USER: ADFR SOLUTION from run 42
USER: SCORE 10.210817 LL:  -2.569 LR:  -8.972 RR:   0.000 FEB:  -5.393
USER: RMSD 9.546074
USER: SEED 41
USER: STATUS no improvement in best 33 clusters for 5 generations
USER: GENES 14
USER: genes 0 Translation |==|  0.25497 0.52295 0.55292
USER: genes 1 Rotation |==|  0.07652 0.62433 0.73483 0.50759
USER: genes 2 Torsion [C]-CA--CB-[CG] |==|  0.01664
USER: genes 3 Torsion [CA]-CB--CG-[CD1] |==|  0.17487
USER: genes 4 Torsion [N]-CA--C-[N] |==|  0.86239
USER: genes 5 Torsion [C]-N--CA-[CB] |==|  0.81107
USER: genes 6 Torsion [N]-CA--C-[N] |==|  0.16896
USER: genes 7 Torsion [C]-N--CA-[C] |==|  0.83744
USER: genes 8 Torsion [N]-CA--C-[O] |==|  0.79730
USER: genes 9 Torsion [CB]-CA--N-[C] |==|  0.91586
USER: genes 10 Torsion [N]-C--CA-[N] |==|  0.97424
USER: genes 11 Torsion [C]-CA--N-[C] |==|  0.72558
USER: genes 12 Torsion [N]-C--CA-[N] |==|  0.49840
USER: genes 13 Torsion [C]-CA--N-[H2] |==|  0.25793
ROOT
ATOM      1  CA  LEU B   3     -22.921 -23.691  41.628  1.00 80.55 LIG 0.18  C 
ENDROOT
BRANCH 1 2
ATOM      2  CB  LEU B   3     -23.112 -24.762  40.543  1.00 80.55 LIG 0.04  C 
BRANCH 2 3
ATOM      3  CG  LEU B   3     -22.993 -26.270  40.879  1.00 80.55 LIG-0.02  C 
ATOM      4  CD1 LEU B   3     -24.101 -26.699  41.903  1.00 80.53 LIG 0.01  C 
ATOM      5  CD2 LEU B   3     -23.070 -27.176  39.624  1.00 80.44 LIG 0.01  C 
ENDBRANCH 2 3
ENDBRANCH 1 2
BRANCH 1 6
ATOM      6  C   LEU B   3     -22.474 -24.323  42.943  1.00 80.58 LIG 0.24  C 
ATOM      7  N   ALA B   4     -21.229 -24.819  42.934  1.00 80.60 LIG-0.35  N 
ATOM      8 H    ALA B   4     -20.739 -24.810  42.228  1.00 80.60 LIG 0.16  HD
ATOM      9 O    LEU B   3     -23.220 -24.335  43.930  1.00 80.60 LIG-0.27  OA
BRANCH 7 10
ATOM     10  CA  ALA B   4     -20.552 -25.426  44.091  1.00 80.57 LIG 0.17  C 
ATOM     11  CB  ALA B   4     -20.264 -24.375  45.155  1.00 80.56 LIG 0.04  C 
BRANCH 10 12
ATOM     12  C   ALA B   4     -21.325 -26.613  44.668  1.00 80.56 LIG 0.24  C 
ATOM     13  N   GLY B   5     -21.509 -27.629  43.824  1.00 80.55 LIG-0.35  N 
ATOM     14 H    GLY B   5     -21.161 -27.649  43.038  1.00 80.55 LIG 0.16  HD
ATOM     15 O    ALA B   4     -21.740 -26.602  45.834  1.00 80.59 LIG-0.27  OA
BRANCH 13 16
ATOM     16  CA  GLY B   5     -22.314 -28.817  44.134  1.00 80.50 LIG 0.21  C 
BRANCH 16 17
ATOM     17  C   GLY B   5     -21.894 -29.630  45.347  1.00 80.51 LIG 0.21  C 
ATOM     18 O    GLY B   5     -20.852 -30.342  45.290  1.00 80.50 LIG-0.29  OA
ENDBRANCH 16 17
ENDBRANCH 13 16
ENDBRANCH 10 12
ENDBRANCH 7 10
ENDBRANCH 1 6
BRANCH 1 19
ATOM     19  N   LEU B   3     -21.824 -22.799  41.292  1.00 80.50 LIG-0.35  N 
ATOM     20  C   ALA B   2     -20.758 -23.207  40.570  1.00 80.42 LIG 0.24  C 
ATOM     21 O    ALA B   2     -20.299 -24.380  40.621  1.00 80.43 LIG-0.27  OA
ATOM     22 H    LEU B   3     -21.917 -21.998  41.593  1.00 80.50 LIG 0.16  HD
BRANCH 20 23
ATOM     23  CA  ALA B   2     -19.988 -22.094  39.856  1.00 80.35 LIG 0.17  C 
ATOM     24  CB  ALA B   2     -18.618 -21.914  40.470  1.00 80.34 LIG 0.04  C 
BRANCH 23 25
ATOM     25  N   ALA B   2     -20.756 -20.850  39.968  1.00 80.28 LIG-0.35  N 
ATOM     26 H    ALA B   2     -20.649 -20.448  40.721  1.00 80.28 LIG 0.16  HD
ATOM     27  C   GLY B   1     -21.544 -20.380  39.003  1.00 80.20 LIG 0.24  C 
ATOM     28 O    GLY B   1     -21.742 -20.962  37.937  1.00 80.22 LIG-0.27  OA
BRANCH 27 29
ATOM     29  CA  GLY B   1     -22.211 -19.050  39.286  1.00 80.17 LIG 0.33  C 
BRANCH 29 30
ATOM     30  N   GLY B   1     -23.070 -18.569  38.165  1.00 80.00 LIG-0.07  N 
ATOM     31 H3   GLY B   1     -23.047 -17.680  38.134  1.00 80.00 LIG 0.27  HD
ATOM     32 H2   GLY B   1     -23.908 -18.839  38.296  1.00 80.00 LIG 0.27  HD
ATOM     33 H1   GLY B   1     -22.768 -18.900  37.396  1.00 80.00 LIG 0.27  HD
ENDBRANCH 29 30
ENDBRANCH 27 29
ENDBRANCH 23 25
ENDBRANCH 20 23
ENDBRANCH 1 19
TORSDOF 12
ENDMDL
MODEL 100
USER: ADFR SOLUTION from run 13
USER: SCORE 10.229954 LL:  -2.338 LR:  -8.959 RR:   0.000 FEB:  -5.379
USER: RMSD 6.963925
USER: SEED 810799
USER: STATUS no improvement in best 28 clusters for 5 generations
USER: GENES 14
USER: genes 0 Translation |==|  0.49659 0.44815 0.59456
USER: genes 1 Rotation |==|  0.56143 0.35436 0.96724 0.58188
USER: genes 2 Torsion [C]-CA--CB-[CG] |==|  0.36247
USER: genes 3 Torsion [CA]-CB--CG-[CD1] |==|  0.03507
USER: genes 4 Torsion [N]-CA--C-[N] |==|  0.78323
USER: genes 5 Torsion [C]-N--CA-[CB] |==|  0.84276
USER: genes 6 Torsion [N]-CA--C-[N] |==|  0.95555
USER: genes 7 Torsion [C]-N--CA-[C] |==|  0.80806
USER: genes 8 Torsion [N]-CA--C-[O] |==|  0.26548
USER: genes 9 Torsion [CB]-CA--N-[C] |==|  0.56176
USER: genes 10 Torsion [N]-C--CA-[N] |==|  0.44980
USER: genes 11 Torsion [C]-CA--N-[C] |==|  0.80039
USER: genes 12 Torsion [N]-C--CA-[N] |==|  0.64371
USER: genes 13 Torsion [C]-CA--N-[H2] |==|  0.23546
ROOT
ATOM      1  CA  LEU B   3     -15.672 -25.936  42.877  1.00 80.55 LIG 0.18  C 
ENDROOT
BRANCH 1 2
ATOM      2  CB  LEU B   3     -17.030 -26.547  43.257  1.00 80.55 LIG 0.04  C 
BRANCH 2 3
ATOM      3  CG  LEU B   3     -17.124 -27.716  44.269  1.00 80.55 LIG-0.02  C 
ATOM      4  CD1 LEU B   3     -15.762 -27.909  45.021  1.00 80.53 LIG 0.01  C 
ATOM      5  CD2 LEU B   3     -18.264 -27.528  45.302  1.00 80.44 LIG 0.01  C 
ENDBRANCH 2 3
ENDBRANCH 1 2
BRANCH 1 6
ATOM      6  C   LEU B   3     -15.525 -25.837  41.361  1.00 80.58 LIG 0.24  C 
ATOM      7  N   ALA B   4     -16.628 -25.439  40.714  1.00 80.60 LIG-0.35  N 
ATOM      8 H    ALA B   4     -17.368 -25.287  41.123  1.00 80.60 LIG 0.16  HD
ATOM      9 O    LEU B   3     -14.446 -26.088  40.809  1.00 80.60 LIG-0.27  OA
BRANCH 7 10
ATOM     10  CA  ALA B   4     -16.723 -25.215  39.262  1.00 80.57 LIG 0.17  C 
ATOM     11  CB  ALA B   4     -15.684 -24.198  38.809  1.00 80.56 LIG 0.04  C 
BRANCH 10 12
ATOM     12  C   ALA B   4     -16.625 -26.514  38.460  1.00 80.56 LIG 0.24  C 
ATOM     13  N   GLY B   5     -16.146 -27.559  39.136  1.00 80.55 LIG-0.35  N 
ATOM     14 H    GLY B   5     -15.970 -27.527  39.977  1.00 80.55 LIG 0.16  HD
ATOM     15 O    ALA B   4     -16.971 -26.562  37.272  1.00 80.59 LIG-0.27  OA
BRANCH 13 16
ATOM     16  CA  GLY B   5     -15.868 -28.868  38.534  1.00 80.50 LIG 0.21  C 
BRANCH 16 17
ATOM     17  C   GLY B   5     -17.070 -29.684  38.086  1.00 80.51 LIG 0.21  C 
ATOM     18 O    GLY B   5     -17.445 -29.630  36.880  1.00 80.50 LIG-0.29  OA
ENDBRANCH 16 17
ENDBRANCH 13 16
ENDBRANCH 10 12
ENDBRANCH 7 10
ENDBRANCH 1 6
BRANCH 1 19
ATOM     19  N   LEU B   3     -15.582 -24.553  43.315  1.00 80.50 LIG-0.35  N 
ATOM     20  C   ALA B   2     -14.726 -23.673  42.752  1.00 80.42 LIG 0.24  C 
ATOM     21 O    ALA B   2     -13.601 -24.005  42.290  1.00 80.43 LIG-0.27  OA
ATOM     22 H    LEU B   3     -16.118 -24.351  43.957  1.00 80.50 LIG 0.16  HD
BRANCH 20 23
ATOM     23  CA  ALA B   2     -15.102 -22.198  42.918  1.00 80.35 LIG 0.17  C 
ATOM     24  CB  ALA B   2     -16.209 -21.819  41.961  1.00 80.34 LIG 0.04  C 
BRANCH 23 25
ATOM     25  N   ALA B   2     -13.912 -21.382  42.659  1.00 80.28 LIG-0.35  N 
ATOM     26 H    ALA B   2     -13.947 -20.952  41.915  1.00 80.28 LIG 0.16  HD
ATOM     27  C   GLY B   1     -12.873 -21.308  43.490  1.00 80.20 LIG 0.24  C 
ATOM     28 O    GLY B   1     -12.787 -21.949  44.537  1.00 80.22 LIG-0.27  OA
BRANCH 27 29
ATOM     29  CA  GLY B   1     -11.762 -20.367  43.073  1.00 80.17 LIG 0.33  C 
BRANCH 29 30
ATOM     30  N   GLY B   1     -10.413 -21.005  43.080  1.00 80.00 LIG-0.07  N 
ATOM     31 H3   GLY B   1      -9.789 -20.379  43.186  1.00 80.00 LIG 0.27  HD
ATOM     32 H2   GLY B   1     -10.280 -21.428  42.308  1.00 80.00 LIG 0.27  HD
ATOM     33 H1   GLY B   1     -10.364 -21.589  43.751  1.00 80.00 LIG 0.27  HD
ENDBRANCH 29 30
ENDBRANCH 27 29
ENDBRANCH 23 25
ENDBRANCH 20 23
ENDBRANCH 1 19
TORSDOF 12
ENDMDL
MODEL 101
USER: ADFR SOLUTION from run 138
USER: SCORE 10.330871 LL:  -2.259 LR:  -8.954 RR:   0.000 FEB:  -5.375
USER: RMSD 7.707427
USER: SEED 137
USER: STATUS no improvement in best 28 clusters for 5 generations
USER: GENES 14
USER: genes 0 Translation |==|  0.45105 0.44814 0.46929
USER: genes 1 Rotation |==|  0.88316 0.59530 0.23340 0.65175
USER: genes 2 Torsion [C]-CA--CB-[CG] |==|  0.28432
USER: genes 3 Torsion [CA]-CB--CG-[CD1] |==|  0.33491
USER: genes 4 Torsion [N]-CA--C-[N] |==|  0.37974
USER: genes 5 Torsion [C]-N--CA-[CB] |==|  0.14564
USER: genes 6 Torsion [N]-CA--C-[N] |==|  0.11366
USER: genes 7 Torsion [C]-N--CA-[C] |==|  0.16283
USER: genes 8 Torsion [N]-CA--C-[O] |==|  0.39736
USER: genes 9 Torsion [CB]-CA--N-[C] |==|  0.52223
USER: genes 10 Torsion [N]-C--CA-[N] |==|  0.46955
USER: genes 11 Torsion [C]-CA--N-[C] |==|  0.80129
USER: genes 12 Torsion [N]-C--CA-[N] |==|  0.57187
USER: genes 13 Torsion [C]-CA--N-[H2] |==|  0.87658
ROOT
ATOM      1  CA  LEU B   3     -17.039 -25.936  39.119  1.00 80.55 LIG 0.18  C 
ENDROOT
BRANCH 1 2
ATOM      2  CB  LEU B   3     -16.445 -26.886  38.067  1.00 80.55 LIG 0.04  C 
BRANCH 2 3
ATOM      3  CG  LEU B   3     -16.732 -28.408  38.113  1.00 80.55 LIG-0.02  C 
ATOM      4  CD1 LEU B   3     -17.434 -28.880  36.792  1.00 80.53 LIG 0.01  C 
ATOM      5  CD2 LEU B   3     -15.457 -29.255  38.353  1.00 80.44 LIG 0.01  C 
ENDBRANCH 2 3
ENDBRANCH 1 2
BRANCH 1 6
ATOM      6  C   LEU B   3     -15.989 -25.550  40.158  1.00 80.58 LIG 0.24  C 
ATOM      7  N   ALA B   4     -16.118 -26.165  41.341  1.00 80.60 LIG-0.35  N 
ATOM      8 H    ALA B   4     -16.764 -26.706  41.507  1.00 80.60 LIG 0.16  HD
ATOM      9 O    LEU B   3     -15.088 -24.748  39.885  1.00 80.60 LIG-0.27  OA
BRANCH 7 10
ATOM     10  CA  ALA B   4     -15.202 -26.004  42.482  1.00 80.57 LIG 0.17  C 
ATOM     11  CB  ALA B   4     -15.011 -24.529  42.811  1.00 80.56 LIG 0.04  C 
BRANCH 10 12
ATOM     12  C   ALA B   4     -15.647 -26.801  43.709  1.00 80.56 LIG 0.24  C 
ATOM     13  N   GLY B   5     -16.116 -28.022  43.448  1.00 80.55 LIG-0.35  N 
ATOM     14 H    GLY B   5     -16.106 -28.364  42.659  1.00 80.55 LIG 0.16  HD
ATOM     15 O    ALA B   4     -15.569 -26.323  44.848  1.00 80.59 LIG-0.27  OA
BRANCH 13 16
ATOM     16  CA  GLY B   5     -16.696 -28.912  44.461  1.00 80.50 LIG 0.21  C 
BRANCH 16 17
ATOM     17  C   GLY B   5     -17.903 -28.389  45.220  1.00 80.51 LIG 0.21  C 
ATOM     18 O    GLY B   5     -18.836 -29.183  45.532  1.00 80.50 LIG-0.29  OA
ENDBRANCH 16 17
ENDBRANCH 13 16
ENDBRANCH 10 12
ENDBRANCH 7 10
ENDBRANCH 1 6
BRANCH 1 19
ATOM     19  N   LEU B   3     -17.406 -24.662  38.522  1.00 80.50 LIG-0.35  N 
ATOM     20  C   ALA B   2     -17.801 -23.606  39.266  1.00 80.42 LIG 0.24  C 
ATOM     21 O    ALA B   2     -18.439 -23.723  40.346  1.00 80.43 LIG-0.27  OA
ATOM     22 H    LEU B   3     -17.349 -24.646  37.664  1.00 80.50 LIG 0.16  HD
BRANCH 20 23
ATOM     23  CA  ALA B   2     -17.635 -22.239  38.597  1.00 80.35 LIG 0.17  C 
ATOM     24  CB  ALA B   2     -16.172 -21.876  38.482  1.00 80.34 LIG 0.04  C 
BRANCH 23 25
ATOM     25  N   ALA B   2     -18.339 -21.237  39.405  1.00 80.28 LIG-0.35  N 
ATOM     26 H    ALA B   2     -17.811 -20.706  39.829  1.00 80.28 LIG 0.16  HD
ATOM     27  C   GLY B   1     -19.666 -21.150  39.479  1.00 80.20 LIG 0.24  C 
ATOM     28 O    GLY B   1     -20.435 -21.926  38.914  1.00 80.22 LIG-0.27  OA
BRANCH 27 29
ATOM     29  CA  GLY B   1     -20.205 -20.013  40.322  1.00 80.17 LIG 0.33  C 
BRANCH 29 30
ATOM     30  N   GLY B   1     -21.563 -20.281  40.877  1.00 80.00 LIG-0.07  N 
ATOM     31 H3   GLY B   1     -21.499 -20.854  41.556  1.00 80.00 LIG 0.27  HD
ATOM     32 H2   GLY B   1     -22.080 -20.632  40.242  1.00 80.00 LIG 0.27  HD
ATOM     33 H1   GLY B   1     -21.923 -19.519  41.165  1.00 80.00 LIG 0.27  HD
ENDBRANCH 29 30
ENDBRANCH 27 29
ENDBRANCH 23 25
ENDBRANCH 20 23
ENDBRANCH 1 19
TORSDOF 12
ENDMDL
MODEL 102
USER: ADFR SOLUTION from run 115
USER: SCORE 9.770153 LL:  -2.532 LR:  -8.932 RR:   0.000 FEB:  -5.352
USER: RMSD 8.271092
USER: SEED 114
USER: STATUS no improvement in best 15 clusters for 5 generations
USER: GENES 14
USER: genes 0 Translation |==|  0.44671 0.59584 0.48235
USER: genes 1 Rotation |==|  0.09030 0.55002 0.21819 0.51497
USER: genes 2 Torsion [C]-CA--CB-[CG] |==|  0.23245
USER: genes 3 Torsion [CA]-CB--CG-[CD1] |==|  0.71581
USER: genes 4 Torsion [N]-CA--C-[N] |==|  0.93596
USER: genes 5 Torsion [C]-N--CA-[CB] |==|  0.83986
USER: genes 6 Torsion [N]-CA--C-[N] |==|  0.38664
USER: genes 7 Torsion [C]-N--CA-[C] |==|  0.81526
USER: genes 8 Torsion [N]-CA--C-[O] |==|  0.16486
USER: genes 9 Torsion [CB]-CA--N-[C] |==|  0.41268
USER: genes 10 Torsion [N]-C--CA-[N] |==|  0.94220
USER: genes 11 Torsion [C]-CA--N-[C] |==|  0.66427
USER: genes 12 Torsion [N]-C--CA-[N] |==|  0.34891
USER: genes 13 Torsion [C]-CA--N-[H2] |==|  0.83720
ROOT
ATOM      1  CA  LEU B   3     -17.169 -21.505  39.510  1.00 80.55 LIG 0.18  C 
ENDROOT
BRANCH 1 2
ATOM      2  CB  LEU B   3     -16.405 -22.556  40.331  1.00 80.55 LIG 0.04  C 
BRANCH 2 3
ATOM      3  CG  LEU B   3     -15.794 -23.808  39.654  1.00 80.55 LIG-0.02  C 
ATOM      4  CD1 LEU B   3     -16.690 -25.070  39.909  1.00 80.53 LIG 0.01  C 
ATOM      5  CD2 LEU B   3     -15.579 -23.625  38.130  1.00 80.44 LIG 0.01  C 
ENDBRANCH 2 3
ENDBRANCH 1 2
BRANCH 1 6
ATOM      6  C   LEU B   3     -18.622 -21.924  39.307  1.00 80.58 LIG 0.24  C 
ATOM      7  N   ALA B   4     -19.486 -21.399  40.185  1.00 80.60 LIG-0.35  N 
ATOM      8 H    ALA B   4     -19.231 -20.894  40.832  1.00 80.60 LIG 0.16  HD
ATOM      9 O    LEU B   3     -18.945 -22.671  38.376  1.00 80.60 LIG-0.27  OA
BRANCH 7 10
ATOM     10  CA  ALA B   4     -20.943 -21.605  40.166  1.00 80.57 LIG 0.17  C 
ATOM     11  CB  ALA B   4     -21.530 -21.153  38.835  1.00 80.56 LIG 0.04  C 
BRANCH 10 12
ATOM     12  C   ALA B   4     -21.336 -23.047  40.492  1.00 80.56 LIG 0.24  C 
ATOM     13  N   GLY B   5     -22.400 -23.176  41.285  1.00 80.55 LIG-0.35  N 
ATOM     14 H    GLY B   5     -22.873 -22.505  41.540  1.00 80.55 LIG 0.16  HD
ATOM     15 O    ALA B   4     -20.694 -24.005  40.040  1.00 80.59 LIG-0.27  OA
BRANCH 13 16
ATOM     16  CA  GLY B   5     -22.883 -24.459  41.810  1.00 80.50 LIG 0.21  C 
BRANCH 16 17
ATOM     17  C   GLY B   5     -23.436 -25.447  40.797  1.00 80.51 LIG 0.21  C 
ATOM     18 O    GLY B   5     -22.695 -25.857  39.858  1.00 80.50 LIG-0.29  OA
ENDBRANCH 16 17
ENDBRANCH 13 16
ENDBRANCH 10 12
ENDBRANCH 7 10
ENDBRANCH 1 6
BRANCH 1 19
ATOM     19  N   LEU B   3     -17.278 -20.252  40.240  1.00 80.50 LIG-0.35  N 
ATOM     20  C   ALA B   2     -17.310 -19.056  39.615  1.00 80.42 LIG 0.24  C 
ATOM     21 O    ALA B   2     -16.695 -18.822  38.540  1.00 80.43 LIG-0.27  OA
ATOM     22 H    LEU B   3     -17.320 -20.345  41.094  1.00 80.50 LIG 0.16  HD
BRANCH 20 23
ATOM     23  CA  ALA B   2     -17.949 -17.918  40.416  1.00 80.35 LIG 0.17  C 
ATOM     24  CB  ALA B   2     -16.886 -17.051  41.051  1.00 80.34 LIG 0.04  C 
BRANCH 23 25
ATOM     25  N   ALA B   2     -18.806 -18.502  41.453  1.00 80.28 LIG-0.35  N 
ATOM     26 H    ALA B   2     -18.383 -19.017  41.997  1.00 80.28 LIG 0.16  HD
ATOM     27  C   GLY B   1     -20.113 -18.263  41.550  1.00 80.20 LIG 0.24  C 
ATOM     28 O    GLY B   1     -20.742 -17.564  40.756  1.00 80.22 LIG-0.27  OA
BRANCH 27 29
ATOM     29  CA  GLY B   1     -20.816 -18.915  42.722  1.00 80.17 LIG 0.33  C 
BRANCH 29 30
ATOM     30  N   GLY B   1     -21.570 -17.948  43.572  1.00 80.00 LIG-0.07  N 
ATOM     31 H3   GLY B   1     -22.204 -17.556  43.085  1.00 80.00 LIG 0.27  HD
ATOM     32 H2   GLY B   1     -21.012 -17.328  43.884  1.00 80.00 LIG 0.27  HD
ATOM     33 H1   GLY B   1     -21.945 -18.380  44.254  1.00 80.00 LIG 0.27  HD
ENDBRANCH 29 30
ENDBRANCH 27 29
ENDBRANCH 23 25
ENDBRANCH 20 23
ENDBRANCH 1 19
TORSDOF 12
ENDMDL
MODEL 103
USER: ADFR SOLUTION from run 23
USER: SCORE 9.741383 LL:  -2.124 LR:  -8.934 RR:   0.000 FEB:  -5.354
USER: RMSD 8.227600
USER: SEED 22
USER: STATUS no improvement in best 9 clusters for 5 generations
USER: GENES 14
USER: genes 0 Translation |==|  0.46118 0.40860 0.54922
USER: genes 1 Rotation |==|  0.90938 0.65257 0.29591 0.63219
USER: genes 2 Torsion [C]-CA--CB-[CG] |==|  0.48112
USER: genes 3 Torsion [CA]-CB--CG-[CD1] |==|  0.24610
USER: genes 4 Torsion [N]-CA--C-[N] |==|  0.34464
USER: genes 5 Torsion [C]-N--CA-[CB] |==|  0.14366
USER: genes 6 Torsion [N]-CA--C-[N] |==|  0.11355
USER: genes 7 Torsion [C]-N--CA-[C] |==|  0.17882
USER: genes 8 Torsion [N]-CA--C-[O] |==|  0.15896
USER: genes 9 Torsion [CB]-CA--N-[C] |==|  0.90545
USER: genes 10 Torsion [N]-C--CA-[N] |==|  0.15665
USER: genes 11 Torsion [C]-CA--N-[C] |==|  0.69050
USER: genes 12 Torsion [N]-C--CA-[N] |==|  0.39270
USER: genes 13 Torsion [C]-CA--N-[H2] |==|  0.65580
ROOT
ATOM      1  CA  LEU B   3     -16.735 -27.122  41.517  1.00 80.55 LIG 0.18  C 
ENDROOT
BRANCH 1 2
ATOM      2  CB  LEU B   3     -15.820 -27.638  40.395  1.00 80.55 LIG 0.04  C 
BRANCH 2 3
ATOM      3  CG  LEU B   3     -16.406 -28.121  39.045  1.00 80.55 LIG-0.02  C 
ATOM      4  CD1 LEU B   3     -16.538 -26.925  38.038  1.00 80.53 LIG 0.01  C 
ATOM      5  CD2 LEU B   3     -15.572 -29.254  38.396  1.00 80.44 LIG 0.01  C 
ENDBRANCH 2 3
ENDBRANCH 1 2
BRANCH 1 6
ATOM      6  C   LEU B   3     -15.939 -26.866  42.794  1.00 80.58 LIG 0.24  C 
ATOM      7  N   ALA B   4     -16.290 -27.631  43.837  1.00 80.60 LIG-0.35  N 
ATOM      8 H    ALA B   4     -16.937 -28.194  43.793  1.00 80.60 LIG 0.16  HD
ATOM      9 O    LEU B   3     -15.029 -26.029  42.820  1.00 80.60 LIG-0.27  OA
BRANCH 7 10
ATOM     10  CA  ALA B   4     -15.638 -27.612  45.156  1.00 80.57 LIG 0.17  C 
ATOM     11  CB  ALA B   4     -15.557 -26.189  45.693  1.00 80.56 LIG 0.04  C 
BRANCH 10 12
ATOM     12  C   ALA B   4     -16.312 -28.553  46.157  1.00 80.56 LIG 0.24  C 
ATOM     13  N   GLY B   5     -16.687 -29.731  45.658  1.00 80.55 LIG-0.35  N 
ATOM     14 H    GLY B   5     -16.504 -29.975  44.854  1.00 80.55 LIG 0.16  HD
ATOM     15 O    ALA B   4     -16.486 -28.218  47.336  1.00 80.59 LIG-0.27  OA
BRANCH 13 16
ATOM     16  CA  GLY B   5     -17.445 -30.738  46.411  1.00 80.50 LIG 0.21  C 
BRANCH 16 17
ATOM     17  C   GLY B   5     -18.851 -30.354  46.840  1.00 80.51 LIG 0.21  C 
ATOM     18 O    GLY B   5     -19.696 -30.005  45.967  1.00 80.50 LIG-0.29  OA
ENDBRANCH 16 17
ENDBRANCH 13 16
ENDBRANCH 10 12
ENDBRANCH 7 10
ENDBRANCH 1 6
BRANCH 1 19
ATOM     19  N   LEU B   3     -17.275 -25.813  41.189  1.00 80.50 LIG-0.35  N 
ATOM     20  C   ALA B   2     -16.572 -24.899  40.486  1.00 80.42 LIG 0.24  C 
ATOM     21 O    ALA B   2     -15.318 -24.792  40.555  1.00 80.43 LIG-0.27  OA
ATOM     22 H    LEU B   3     -18.073 -25.679  41.481  1.00 80.50 LIG 0.16  HD
BRANCH 20 23
ATOM     23  CA  ALA B   2     -17.413 -23.837  39.773  1.00 80.35 LIG 0.17  C 
ATOM     24  CB  ALA B   2     -16.523 -22.832  39.077  1.00 80.34 LIG 0.04  C 
BRANCH 23 25
ATOM     25  N   ALA B   2     -18.252 -23.161  40.768  1.00 80.28 LIG-0.35  N 
ATOM     26 H    ALA B   2     -17.805 -22.674  41.319  1.00 80.28 LIG 0.16  HD
ATOM     27  C   GLY B   1     -19.577 -23.283  40.820  1.00 80.20 LIG 0.24  C 
ATOM     28 O    GLY B   1     -20.228 -24.007  40.068  1.00 80.22 LIG-0.27  OA
BRANCH 27 29
ATOM     29  CA  GLY B   1     -20.272 -22.462  41.886  1.00 80.17 LIG 0.33  C 
BRANCH 29 30
ATOM     30  N   GLY B   1     -21.570 -21.882  41.433  1.00 80.00 LIG-0.07  N 
ATOM     31 H3   GLY B   1     -21.697 -22.074  40.573  1.00 80.00 LIG 0.27  HD
ATOM     32 H2   GLY B   1     -21.555 -20.998  41.540  1.00 80.00 LIG 0.27  HD
ATOM     33 H1   GLY B   1     -22.234 -22.228  41.914  1.00 80.00 LIG 0.27  HD
ENDBRANCH 29 30
ENDBRANCH 27 29
ENDBRANCH 23 25
ENDBRANCH 20 23
ENDBRANCH 1 19
TORSDOF 12
ENDMDL
MODEL 104
USER: ADFR SOLUTION from run 3
USER: SCORE 9.806092 LL:  -2.659 LR:  -8.918 RR:   0.000 FEB:  -5.339
USER: RMSD 5.990223
USER: SEED 906478
USER: STATUS no improvement in best 43 clusters for 5 generations
USER: GENES 14
USER: genes 0 Translation |==|  0.49372 0.39174 0.51030
USER: genes 1 Rotation |==|  0.41634 0.92157 0.25715 0.57938
USER: genes 2 Torsion [C]-CA--CB-[CG] |==|  0.20133
USER: genes 3 Torsion [CA]-CB--CG-[CD1] |==|  0.45851
USER: genes 4 Torsion [N]-CA--C-[N] |==|  0.79785
USER: genes 5 Torsion [C]-N--CA-[CB] |==|  0.51171
USER: genes 6 Torsion [N]-CA--C-[N] |==|  0.26503
USER: genes 7 Torsion [C]-N--CA-[C] |==|  0.21067
USER: genes 8 Torsion [N]-CA--C-[O] |==|  0.08805
USER: genes 9 Torsion [CB]-CA--N-[C] |==|  0.58418
USER: genes 10 Torsion [N]-C--CA-[N] |==|  0.35000
USER: genes 11 Torsion [C]-CA--N-[C] |==|  0.69492
USER: genes 12 Torsion [N]-C--CA-[N] |==|  0.72071
USER: genes 13 Torsion [C]-CA--N-[H2] |==|  0.52625
ROOT
ATOM      1  CA  LEU B   3     -15.758 -27.628  40.349  1.00 80.55 LIG 0.18  C 
ENDROOT
BRANCH 1 2
ATOM      2  CB  LEU B   3     -16.748 -28.153  39.297  1.00 80.55 LIG 0.04  C 
BRANCH 2 3
ATOM      3  CG  LEU B   3     -16.492 -27.941  37.784  1.00 80.55 LIG-0.02  C 
ATOM      4  CD1 LEU B   3     -17.418 -28.875  36.929  1.00 80.53 LIG 0.01  C 
ATOM      5  CD2 LEU B   3     -16.688 -26.470  37.339  1.00 80.44 LIG 0.01  C 
ENDBRANCH 2 3
ENDBRANCH 1 2
BRANCH 1 6
ATOM      6  C   LEU B   3     -15.837 -26.107  40.459  1.00 80.58 LIG 0.24  C 
ATOM      7  N   ALA B   4     -17.080 -25.612  40.527  1.00 80.60 LIG-0.35  N 
ATOM      8 H    ALA B   4     -17.775 -26.115  40.477  1.00 80.60 LIG 0.16  HD
ATOM      9 O    LEU B   3     -14.810 -25.419  40.506  1.00 80.60 LIG-0.27  OA
BRANCH 7 10
ATOM     10  CA  ALA B   4     -17.416 -24.189  40.693  1.00 80.57 LIG 0.17  C 
ATOM     11  CB  ALA B   4     -18.922 -24.007  40.833  1.00 80.56 LIG 0.04  C 
BRANCH 10 12
ATOM     12  C   ALA B   4     -16.660 -23.539  41.853  1.00 80.56 LIG 0.24  C 
ATOM     13  N   GLY B   5     -15.540 -22.902  41.510  1.00 80.55 LIG-0.35  N 
ATOM     14 H    GLY B   5     -15.294 -22.804  40.692  1.00 80.55 LIG 0.16  HD
ATOM     15 O    ALA B   4     -17.081 -23.615  43.015  1.00 80.59 LIG-0.27  OA
BRANCH 13 16
ATOM     16  CA  GLY B   5     -14.608 -22.303  42.473  1.00 80.50 LIG 0.21  C 
BRANCH 16 17
ATOM     17  C   GLY B   5     -13.705 -23.258  43.234  1.00 80.51 LIG 0.21  C 
ATOM     18 O    GLY B   5     -13.320 -24.327  42.680  1.00 80.50 LIG-0.29  OA
ENDBRANCH 16 17
ENDBRANCH 13 16
ENDBRANCH 10 12
ENDBRANCH 7 10
ENDBRANCH 1 6
BRANCH 1 19
ATOM     19  N   LEU B   3     -16.123 -28.081  41.681  1.00 80.50 LIG-0.35  N 
ATOM     20  C   ALA B   2     -15.854 -27.356  42.788  1.00 80.42 LIG 0.24  C 
ATOM     21 O    ALA B   2     -14.839 -26.617  42.898  1.00 80.43 LIG-0.27  OA
ATOM     22 H    LEU B   3     -16.521 -28.844  41.696  1.00 80.50 LIG 0.16  HD
BRANCH 20 23
ATOM     23  CA  ALA B   2     -16.734 -27.667  44.002  1.00 80.35 LIG 0.17  C 
ATOM     24  CB  ALA B   2     -17.617 -26.487  44.336  1.00 80.34 LIG 0.04  C 
BRANCH 23 25
ATOM     25  N   ALA B   2     -15.863 -27.981  45.140  1.00 80.28 LIG-0.35  N 
ATOM     26 H    ALA B   2     -15.435 -27.298  45.442  1.00 80.28 LIG 0.16  HD
ATOM     27  C   GLY B   1     -15.742 -29.200  45.661  1.00 80.20 LIG 0.24  C 
ATOM     28 O    GLY B   1     -16.313 -30.195  45.216  1.00 80.22 LIG-0.27  OA
BRANCH 27 29
ATOM     29  CA  GLY B   1     -14.836 -29.312  46.869  1.00 80.17 LIG 0.33  C 
BRANCH 29 30
ATOM     30  N   GLY B   1     -13.480 -29.844  46.544  1.00 80.00 LIG-0.07  N 
ATOM     31 H3   GLY B   1     -13.560 -30.592  46.069  1.00 80.00 LIG 0.27  HD
ATOM     32 H2   GLY B   1     -13.040 -30.017  47.299  1.00 80.00 LIG 0.27  HD
ATOM     33 H1   GLY B   1     -13.029 -29.239  46.071  1.00 80.00 LIG 0.27  HD
ENDBRANCH 29 30
ENDBRANCH 27 29
ENDBRANCH 23 25
ENDBRANCH 20 23
ENDBRANCH 1 19
TORSDOF 12
ENDMDL
MODEL 105
USER: ADFR SOLUTION from run 159
USER: SCORE 10.409372 LL:  -2.769 LR:  -8.905 RR:   0.000 FEB:  -5.326
USER: RMSD 7.584621
USER: SEED 158
USER: STATUS no improvement in best 18 clusters for 5 generations
USER: GENES 14
USER: genes 0 Translation |==|  0.44744 0.55105 0.50995
USER: genes 1 Rotation |==|  0.10696 0.52887 0.80403 0.54738
USER: genes 2 Torsion [C]-CA--CB-[CG] |==|  0.85366
USER: genes 3 Torsion [CA]-CB--CG-[CD1] |==|  0.38359
USER: genes 4 Torsion [N]-CA--C-[N] |==|  0.56852
USER: genes 5 Torsion [C]-N--CA-[CB] |==|  0.17221
USER: genes 6 Torsion [N]-CA--C-[N] |==|  0.12696
USER: genes 7 Torsion [C]-N--CA-[C] |==|  0.50859
USER: genes 8 Torsion [N]-CA--C-[O] |==|  0.55919
USER: genes 9 Torsion [CB]-CA--N-[C] |==|  0.20934
USER: genes 10 Torsion [N]-C--CA-[N] |==|  0.97279
USER: genes 11 Torsion [C]-CA--N-[C] |==|  0.76369
USER: genes 12 Torsion [N]-C--CA-[N] |==|  0.85093
USER: genes 13 Torsion [C]-CA--N-[H2] |==|  0.76941
ROOT
ATOM      1  CA  LEU B   3     -17.147 -22.848  40.339  1.00 80.55 LIG 0.18  C 
ENDROOT
BRANCH 1 2
ATOM      2  CB  LEU B   3     -17.453 -23.490  38.976  1.00 80.55 LIG 0.04  C 
BRANCH 2 3
ATOM      3  CG  LEU B   3     -16.312 -23.996  38.058  1.00 80.55 LIG-0.02  C 
ATOM      4  CD1 LEU B   3     -16.690 -25.376  37.415  1.00 80.53 LIG 0.01  C 
ATOM      5  CD2 LEU B   3     -15.945 -22.988  36.940  1.00 80.44 LIG 0.01  C 
ENDBRANCH 2 3
ENDBRANCH 1 2
BRANCH 1 6
ATOM      6  C   LEU B   3     -16.248 -23.754  41.177  1.00 80.58 LIG 0.24  C 
ATOM      7  N   ALA B   4     -16.488 -25.065  41.041  1.00 80.60 LIG-0.35  N 
ATOM      8 H    ALA B   4     -17.123 -25.364  40.545  1.00 80.60 LIG 0.16  HD
ATOM      9 O    LEU B   3     -15.360 -23.280  41.896  1.00 80.60 LIG-0.27  OA
BRANCH 7 10
ATOM     10  CA  ALA B   4     -15.724 -26.137  41.698  1.00 80.57 LIG 0.17  C 
ATOM     11  CB  ALA B   4     -15.841 -26.027  43.213  1.00 80.56 LIG 0.04  C 
BRANCH 10 12
ATOM     12  C   ALA B   4     -16.121 -27.529  41.203  1.00 80.56 LIG 0.24  C 
ATOM     13  N   GLY B   5     -16.231 -27.645  39.879  1.00 80.55 LIG-0.35  N 
ATOM     14 H    GLY B   5     -16.028 -27.008  39.338  1.00 80.55 LIG 0.16  HD
ATOM     15 O    ALA B   4     -16.320 -28.459  41.995  1.00 80.59 LIG-0.27  OA
BRANCH 13 16
ATOM     16  CA  GLY B   5     -16.704 -28.857  39.198  1.00 80.50 LIG 0.21  C 
BRANCH 16 17
ATOM     17  C   GLY B   5     -16.695 -28.834  37.679  1.00 80.51 LIG 0.21  C 
ATOM     18 O    GLY B   5     -17.437 -29.634  37.040  1.00 80.50 LIG-0.29  OA
ENDBRANCH 16 17
ENDBRANCH 13 16
ENDBRANCH 10 12
ENDBRANCH 7 10
ENDBRANCH 1 6
BRANCH 1 19
ATOM     19  N   LEU B   3     -16.354 -21.641  40.180  1.00 80.50 LIG-0.35  N 
ATOM     20  C   ALA B   2     -16.888 -20.481  39.742  1.00 80.42 LIG 0.24  C 
ATOM     21 O    ALA B   2     -17.839 -20.428  38.916  1.00 80.43 LIG-0.27  OA
ATOM     22 H    LEU B   3     -15.525 -21.734  40.389  1.00 80.50 LIG 0.16  HD
BRANCH 20 23
ATOM     23  CA  ALA B   2     -16.113 -19.218  40.127  1.00 80.35 LIG 0.17  C 
ATOM     24  CB  ALA B   2     -15.480 -18.588  38.907  1.00 80.34 LIG 0.04  C 
BRANCH 23 25
ATOM     25  N   ALA B   2     -15.077 -19.585  41.098  1.00 80.28 LIG-0.35  N 
ATOM     26 H    ALA B   2     -14.310 -19.736  40.740  1.00 80.28 LIG 0.16  HD
ATOM     27  C   GLY B   1     -15.295 -19.677  42.409  1.00 80.20 LIG 0.24  C 
ATOM     28 O    GLY B   1     -16.394 -19.506  42.934  1.00 80.22 LIG-0.27  OA
BRANCH 27 29
ATOM     29  CA  GLY B   1     -14.085 -20.015  43.255  1.00 80.17 LIG 0.33  C 
BRANCH 29 30
ATOM     30  N   GLY B   1     -13.374 -21.247  42.804  1.00 80.00 LIG-0.07  N 
ATOM     31 H3   GLY B   1     -13.388 -21.290  41.915  1.00 80.00 LIG 0.27  HD
ATOM     32 H2   GLY B   1     -13.780 -21.964  43.141  1.00 80.00 LIG 0.27  HD
ATOM     33 H1   GLY B   1     -12.530 -21.224  43.087  1.00 80.00 LIG 0.27  HD
ENDBRANCH 29 30
ENDBRANCH 27 29
ENDBRANCH 23 25
ENDBRANCH 20 23
ENDBRANCH 1 19
TORSDOF 12
ENDMDL
MODEL 106
USER: ADFR SOLUTION from run 64
USER: SCORE 10.034911 LL:  -2.181 LR:  -8.914 RR:   0.000 FEB:  -5.334
USER: RMSD 11.685942
USER: SEED 63
USER: STATUS searching
USER: GENES 14
USER: genes 0 Translation |==|  0.22200 0.42271 0.57898
USER: genes 1 Rotation |==|  0.96786 0.44974 0.33264 0.52392
USER: genes 2 Torsion [C]-CA--CB-[CG] |==|  0.58990
USER: genes 3 Torsion [CA]-CB--CG-[CD1] |==|  0.57790
USER: genes 4 Torsion [N]-CA--C-[N] |==|  0.39560
USER: genes 5 Torsion [C]-N--CA-[CB] |==|  0.18880
USER: genes 6 Torsion [N]-CA--C-[N] |==|  0.16035
USER: genes 7 Torsion [C]-N--CA-[C] |==|  0.68770
USER: genes 8 Torsion [N]-CA--C-[O] |==|  0.88704
USER: genes 9 Torsion [CB]-CA--N-[C] |==|  0.54094
USER: genes 10 Torsion [N]-C--CA-[N] |==|  0.18334
USER: genes 11 Torsion [C]-CA--N-[C] |==|  0.76795
USER: genes 12 Torsion [N]-C--CA-[N] |==|  0.00865
USER: genes 13 Torsion [C]-CA--N-[H2] |==|  0.42837
ROOT
ATOM      1  CA  LEU B   3     -23.910 -26.699  42.409  1.00 80.55 LIG 0.18  C 
ENDROOT
BRANCH 1 2
ATOM      2  CB  LEU B   3     -23.414 -27.755  41.410  1.00 80.55 LIG 0.04  C 
BRANCH 2 3
ATOM      3  CG  LEU B   3     -22.843 -27.343  40.030  1.00 80.55 LIG-0.02  C 
ATOM      4  CD1 LEU B   3     -23.070 -28.480  38.974  1.00 80.53 LIG 0.01  C 
ATOM      5  CD2 LEU B   3     -23.445 -26.017  39.500  1.00 80.44 LIG 0.01  C 
ENDBRANCH 2 3
ENDBRANCH 1 2
BRANCH 1 6
ATOM      6  C   LEU B   3     -23.670 -27.154  43.847  1.00 80.58 LIG 0.24  C 
ATOM      7  N   ALA B   4     -24.738 -27.691  44.451  1.00 80.60 LIG-0.35  N 
ATOM      8 H    ALA B   4     -25.505 -27.741  44.066  1.00 80.60 LIG 0.16  HD
ATOM      9 O    LEU B   3     -22.556 -27.044  44.372  1.00 80.60 LIG-0.27  OA
BRANCH 7 10
ATOM     10  CA  ALA B   4     -24.746 -28.253  45.811  1.00 80.57 LIG 0.17  C 
ATOM     11  CB  ALA B   4     -24.551 -27.152  46.846  1.00 80.56 LIG 0.04  C 
BRANCH 10 12
ATOM     12  C   ALA B   4     -26.002 -29.078  46.098  1.00 80.56 LIG 0.24  C 
ATOM     13  N   GLY B   5     -26.209 -30.098  45.265  1.00 80.55 LIG-0.35  N 
ATOM     14 H    GLY B   5     -25.645 -30.320  44.654  1.00 80.55 LIG 0.16  HD
ATOM     15 O    ALA B   4     -26.754 -28.795  47.040  1.00 80.59 LIG-0.27  OA
BRANCH 13 16
ATOM     16  CA  GLY B   5     -27.404 -30.950  45.290  1.00 80.50 LIG 0.21  C 
BRANCH 16 17
ATOM     17  C   GLY B   5     -27.204 -32.396  45.712  1.00 80.51 LIG 0.21  C 
ATOM     18 O    GLY B   5     -26.190 -33.030  45.303  1.00 80.50 LIG-0.29  OA
ENDBRANCH 16 17
ENDBRANCH 13 16
ENDBRANCH 10 12
ENDBRANCH 7 10
ENDBRANCH 1 6
BRANCH 1 19
ATOM     19  N   LEU B   3     -23.129 -25.477  42.308  1.00 80.50 LIG-0.35  N 
ATOM     20  C   ALA B   2     -23.167 -24.517  43.257  1.00 80.42 LIG 0.24  C 
ATOM     21 O    ALA B   2     -24.196 -24.260  43.937  1.00 80.43 LIG-0.27  OA
ATOM     22 H    LEU B   3     -22.647 -25.426  41.597  1.00 80.50 LIG 0.16  HD
BRANCH 20 23
ATOM     23  CA  ALA B   2     -21.948 -23.591  43.298  1.00 80.35 LIG 0.17  C 
ATOM     24  CB  ALA B   2     -22.019 -22.669  44.494  1.00 80.34 LIG 0.04  C 
BRANCH 23 25
ATOM     25  N   ALA B   2     -21.917 -22.806  42.060  1.00 80.28 LIG-0.35  N 
ATOM     26 H    ALA B   2     -22.269 -22.026  42.140  1.00 80.28 LIG 0.16  HD
ATOM     27  C   GLY B   1     -21.395 -23.251  40.918  1.00 80.20 LIG 0.24  C 
ATOM     28 O    GLY B   1     -20.925 -24.379  40.773  1.00 80.22 LIG-0.27  OA
BRANCH 27 29
ATOM     29  CA  GLY B   1     -21.407 -22.271  39.763  1.00 80.17 LIG 0.33  C 
BRANCH 29 30
ATOM     30  N   GLY B   1     -21.945 -20.929  40.132  1.00 80.00 LIG-0.07  N 
ATOM     31 H3   GLY B   1     -22.832 -20.934  40.057  1.00 80.00 LIG 0.27  HD
ATOM     32 H2   GLY B   1     -21.605 -20.312  39.588  1.00 80.00 LIG 0.27  HD
ATOM     33 H1   GLY B   1     -21.720 -20.739  40.973  1.00 80.00 LIG 0.27  HD
ENDBRANCH 29 30
ENDBRANCH 27 29
ENDBRANCH 23 25
ENDBRANCH 20 23
ENDBRANCH 1 19
TORSDOF 12
ENDMDL
MODEL 107
USER: ADFR SOLUTION from run 121
USER: SCORE 10.262037 LL:  -2.669 LR:  -8.887 RR:   0.000 FEB:  -5.307
USER: RMSD 7.987307
USER: SEED 120
USER: STATUS no improvement in best 15 clusters for 5 generations
USER: GENES 14
USER: genes 0 Translation |==|  0.33996 0.57887 0.50091
USER: genes 1 Rotation |==|  0.32751 0.76346 0.77345 0.77579
USER: genes 2 Torsion [C]-CA--CB-[CG] |==|  0.38422
USER: genes 3 Torsion [CA]-CB--CG-[CD1] |==|  0.64187
USER: genes 4 Torsion [N]-CA--C-[N] |==|  0.53782
USER: genes 5 Torsion [C]-N--CA-[CB] |==|  0.85556
USER: genes 6 Torsion [N]-CA--C-[N] |==|  0.43829
USER: genes 7 Torsion [C]-N--CA-[C] |==|  0.31420
USER: genes 8 Torsion [N]-CA--C-[O] |==|  0.13673
USER: genes 9 Torsion [CB]-CA--N-[C] |==|  0.23135
USER: genes 10 Torsion [N]-C--CA-[N] |==|  0.89752
USER: genes 11 Torsion [C]-CA--N-[C] |==|  0.83551
USER: genes 12 Torsion [N]-C--CA-[N] |==|  0.64891
USER: genes 13 Torsion [C]-CA--N-[H2] |==|  0.11033
ROOT
ATOM      1  CA  LEU B   3     -20.371 -22.014  40.067  1.00 80.55 LIG 0.18  C 
ENDROOT
BRANCH 1 2
ATOM      2  CB  LEU B   3     -21.231 -21.132  39.149  1.00 80.55 LIG 0.04  C 
BRANCH 2 3
ATOM      3  CG  LEU B   3     -21.228 -19.589  39.292  1.00 80.55 LIG-0.02  C 
ATOM      4  CD1 LEU B   3     -22.694 -19.039  39.392  1.00 80.53 LIG 0.01  C 
ATOM      5  CD2 LEU B   3     -20.407 -19.098  40.511  1.00 80.44 LIG 0.01  C 
ENDBRANCH 2 3
ENDBRANCH 1 2
BRANCH 1 6
ATOM      6  C   LEU B   3     -21.144 -23.253  40.512  1.00 80.58 LIG 0.24  C 
ATOM      7  N   ALA B   4     -22.386 -23.011  40.953  1.00 80.60 LIG-0.35  N 
ATOM      8 H    ALA B   4     -22.704 -22.215  41.011  1.00 80.60 LIG 0.16  HD
ATOM      9 O    LEU B   3     -20.641 -24.380  40.433  1.00 80.60 LIG-0.27  OA
BRANCH 7 10
ATOM     10  CA  ALA B   4     -23.346 -24.040  41.384  1.00 80.57 LIG 0.17  C 
ATOM     11  CB  ALA B   4     -23.491 -25.117  40.317  1.00 80.56 LIG 0.04  C 
BRANCH 10 12
ATOM     12  C   ALA B   4     -22.990 -24.642  42.745  1.00 80.56 LIG 0.24  C 
ATOM     13  N   GLY B   5     -24.008 -25.207  43.395  1.00 80.55 LIG-0.35  N 
ATOM     14 H    GLY B   5     -24.791 -25.290  43.049  1.00 80.55 LIG 0.16  HD
ATOM     15 O    ALA B   4     -21.834 -24.592  43.186  1.00 80.59 LIG-0.27  OA
BRANCH 13 16
ATOM     16  CA  GLY B   5     -23.914 -25.747  44.757  1.00 80.50 LIG 0.21  C 
BRANCH 16 17
ATOM     17  C   GLY B   5     -24.707 -25.025  45.834  1.00 80.51 LIG 0.21  C 
ATOM     18 O    GLY B   5     -25.925 -24.755  45.635  1.00 80.50 LIG-0.29  OA
ENDBRANCH 16 17
ENDBRANCH 13 16
ENDBRANCH 10 12
ENDBRANCH 7 10
ENDBRANCH 1 6
BRANCH 1 19
ATOM     19  N   LEU B   3     -19.236 -22.566  39.347  1.00 80.50 LIG-0.35  N 
ATOM     20  C   ALA B   2     -18.092 -21.873  39.165  1.00 80.42 LIG 0.24  C 
ATOM     21 O    ALA B   2     -18.058 -20.620  39.034  1.00 80.43 LIG-0.27  OA
ATOM     22 H    LEU B   3     -19.361 -23.365  39.052  1.00 80.50 LIG 0.16  HD
BRANCH 20 23
ATOM     23  CA  ALA B   2     -16.849 -22.725  38.890  1.00 80.35 LIG 0.17  C 
ATOM     24  CB  ALA B   2     -16.759 -23.078  37.423  1.00 80.34 LIG 0.04  C 
BRANCH 23 25
ATOM     25  N   ALA B   2     -16.933 -23.946  39.697  1.00 80.28 LIG-0.35  N 
ATOM     26 H    ALA B   2     -16.925 -24.667  39.228  1.00 80.28 LIG 0.16  HD
ATOM     27  C   GLY B   1     -17.014 -23.948  41.026  1.00 80.20 LIG 0.24  C 
ATOM     28 O    GLY B   1     -17.071 -22.926  41.710  1.00 80.22 LIG-0.27  OA
BRANCH 27 29
ATOM     29  CA  GLY B   1     -17.037 -25.312  41.682  1.00 80.17 LIG 0.33  C 
BRANCH 29 30
ATOM     30  N   GLY B   1     -18.195 -25.507  42.602  1.00 80.00 LIG-0.07  N 
ATOM     31 H3   GLY B   1     -18.333 -26.377  42.727  1.00 80.00 LIG 0.27  HD
ATOM     32 H2   GLY B   1     -18.924 -25.140  42.245  1.00 80.00 LIG 0.27  HD
ATOM     33 H1   GLY B   1     -18.022 -25.120  43.385  1.00 80.00 LIG 0.27  HD
ENDBRANCH 29 30
ENDBRANCH 27 29
ENDBRANCH 23 25
ENDBRANCH 20 23
ENDBRANCH 1 19
TORSDOF 12
ENDMDL
MODEL 108
USER: ADFR SOLUTION from run 3
USER: SCORE 10.144389 LL:  -2.337 LR:  -8.888 RR:   0.000 FEB:  -5.308
USER: RMSD 7.818517
USER: SEED 906478
USER: STATUS no improvement in best 43 clusters for 5 generations
USER: GENES 14
USER: genes 0 Translation |==|  0.44533 0.44853 0.51645
USER: genes 1 Rotation |==|  0.95278 0.64314 0.37186 0.58992
USER: genes 2 Torsion [C]-CA--CB-[CG] |==|  0.28869
USER: genes 3 Torsion [CA]-CB--CG-[CD1] |==|  0.90223
USER: genes 4 Torsion [N]-CA--C-[N] |==|  0.19319
USER: genes 5 Torsion [C]-N--CA-[CB] |==|  0.21258
USER: genes 6 Torsion [N]-CA--C-[N] |==|  0.04475
USER: genes 7 Torsion [C]-N--CA-[C] |==|  0.70272
USER: genes 8 Torsion [N]-CA--C-[O] |==|  0.09808
USER: genes 9 Torsion [CB]-CA--N-[C] |==|  0.15380
USER: genes 10 Torsion [N]-C--CA-[N] |==|  0.93889
USER: genes 11 Torsion [C]-CA--N-[C] |==|  0.78127
USER: genes 12 Torsion [N]-C--CA-[N] |==|  0.34420
USER: genes 13 Torsion [C]-CA--N-[H2] |==|  0.26343
ROOT
ATOM      1  CA  LEU B   3     -17.210 -25.924  40.533  1.00 80.55 LIG 0.18  C 
ENDROOT
BRANCH 1 2
ATOM      2  CB  LEU B   3     -16.034 -26.243  39.597  1.00 80.55 LIG 0.04  C 
BRANCH 2 3
ATOM      3  CG  LEU B   3     -15.968 -27.586  38.827  1.00 80.55 LIG-0.02  C 
ATOM      4  CD1 LEU B   3     -16.564 -28.750  39.692  1.00 80.53 LIG 0.01  C 
ATOM      5  CD2 LEU B   3     -16.694 -27.533  37.459  1.00 80.44 LIG 0.01  C 
ENDBRANCH 2 3
ENDBRANCH 1 2
BRANCH 1 6
ATOM      6  C   LEU B   3     -16.799 -26.079  41.995  1.00 80.58 LIG 0.24  C 
ATOM      7  N   ALA B   4     -17.806 -25.997  42.874  1.00 80.60 LIG-0.35  N 
ATOM      8 H    ALA B   4     -18.614 -25.835  42.630  1.00 80.60 LIG 0.16  HD
ATOM      9 O    LEU B   3     -15.620 -26.288  42.306  1.00 80.60 LIG-0.27  OA
BRANCH 7 10
ATOM     10  CA  ALA B   4     -17.675 -26.168  44.330  1.00 80.57 LIG 0.17  C 
ATOM     11  CB  ALA B   4     -17.070 -24.921  44.963  1.00 80.56 LIG 0.04  C 
BRANCH 10 12
ATOM     12  C   ALA B   4     -18.997 -26.552  44.997  1.00 80.56 LIG 0.24  C 
ATOM     13  N   GLY B   5     -19.941 -26.994  44.165  1.00 80.55 LIG-0.35  N 
ATOM     14 H    GLY B   5     -19.799 -27.119  43.326  1.00 80.55 LIG 0.16  HD
ATOM     15 O    ALA B   4     -19.151 -26.449  46.221  1.00 80.59 LIG-0.27  OA
BRANCH 13 16
ATOM     16  CA  GLY B   5     -21.313 -27.312  44.576  1.00 80.50 LIG 0.21  C 
BRANCH 16 17
ATOM     17  C   GLY B   5     -21.684 -28.785  44.637  1.00 80.51 LIG 0.21  C 
ATOM     18 O    GLY B   5     -20.820 -29.630  45.006  1.00 80.50 LIG-0.29  OA
ENDBRANCH 16 17
ENDBRANCH 13 16
ENDBRANCH 10 12
ENDBRANCH 7 10
ENDBRANCH 1 6
BRANCH 1 19
ATOM     19  N   LEU B   3     -17.590 -24.525  40.436  1.00 80.50 LIG-0.35  N 
ATOM     20  C   ALA B   2     -17.916 -23.947  39.261  1.00 80.42 LIG 0.24  C 
ATOM     21 O    ALA B   2     -17.401 -24.283  38.161  1.00 80.43 LIG-0.27  OA
ATOM     22 H    LEU B   3     -17.587 -24.106  41.188  1.00 80.50 LIG 0.16  HD
BRANCH 20 23
ATOM     23  CA  ALA B   2     -18.783 -22.689  39.369  1.00 80.35 LIG 0.17  C 
ATOM     24  CB  ALA B   2     -17.932 -21.444  39.258  1.00 80.34 LIG 0.04  C 
BRANCH 23 25
ATOM     25  N   ALA B   2     -19.475 -22.710  40.662  1.00 80.28 LIG-0.35  N 
ATOM     26 H    ALA B   2     -19.113 -22.201  41.253  1.00 80.28 LIG 0.16  HD
ATOM     27  C   GLY B   1     -20.560 -23.443  40.905  1.00 80.20 LIG 0.24  C 
ATOM     28 O    GLY B   1     -21.067 -24.209  40.085  1.00 80.22 LIG-0.27  OA
BRANCH 27 29
ATOM     29  CA  GLY B   1     -21.164 -23.288  42.285  1.00 80.17 LIG 0.33  C 
BRANCH 29 30
ATOM     30  N   GLY B   1     -22.601 -22.887  42.259  1.00 80.00 LIG-0.07  N 
ATOM     31 H3   GLY B   1     -22.772 -22.349  42.947  1.00 80.00 LIG 0.27  HD
ATOM     32 H2   GLY B   1     -23.114 -23.613  42.317  1.00 80.00 LIG 0.27  HD
ATOM     33 H1   GLY B   1     -22.777 -22.460  41.498  1.00 80.00 LIG 0.27  HD
ENDBRANCH 29 30
ENDBRANCH 27 29
ENDBRANCH 23 25
ENDBRANCH 20 23
ENDBRANCH 1 19
TORSDOF 12
ENDMDL
MODEL 109
USER: ADFR SOLUTION from run 40
USER: SCORE 9.560959 LL:  -2.437 LR:  -8.891 RR:   0.000 FEB:  -5.311
USER: RMSD 9.561292
USER: SEED 39
USER: STATUS no improvement in best 15 clusters for 5 generations
USER: GENES 14
USER: genes 0 Translation |==|  0.25806 0.49425 0.52057
USER: genes 1 Rotation |==|  0.10207 0.78768 0.59343 0.51297
USER: genes 2 Torsion [C]-CA--CB-[CG] |==|  0.82760
USER: genes 3 Torsion [CA]-CB--CG-[CD1] |==|  0.22387
USER: genes 4 Torsion [N]-CA--C-[N] |==|  0.89436
USER: genes 5 Torsion [C]-N--CA-[CB] |==|  0.80745
USER: genes 6 Torsion [N]-CA--C-[N] |==|  0.26484
USER: genes 7 Torsion [C]-N--CA-[C] |==|  0.39759
USER: genes 8 Torsion [N]-CA--C-[O] |==|  0.50038
USER: genes 9 Torsion [CB]-CA--N-[C] |==|  0.36799
USER: genes 10 Torsion [N]-C--CA-[N] |==|  0.39735
USER: genes 11 Torsion [C]-CA--N-[C] |==|  0.75223
USER: genes 12 Torsion [N]-C--CA-[N] |==|  0.68282
USER: genes 13 Torsion [C]-CA--N-[H2] |==|  0.82586
ROOT
ATOM      1  CA  LEU B   3     -22.828 -24.553  40.657  1.00 80.55 LIG 0.18  C 
ENDROOT
BRANCH 1 2
ATOM      2  CB  LEU B   3     -23.365 -25.807  39.950  1.00 80.55 LIG 0.04  C 
BRANCH 2 3
ATOM      3  CG  LEU B   3     -22.926 -27.224  40.395  1.00 80.55 LIG-0.02  C 
ATOM      4  CD1 LEU B   3     -23.737 -27.686  41.655  1.00 80.53 LIG 0.01  C 
ATOM      5  CD2 LEU B   3     -23.070 -28.281  39.271  1.00 80.44 LIG 0.01  C 
ENDBRANCH 2 3
ENDBRANCH 1 2
BRANCH 1 6
ATOM      6  C   LEU B   3     -23.241 -24.538  42.127  1.00 80.58 LIG 0.24  C 
ATOM      7  N   ALA B   4     -22.478 -25.289  42.932  1.00 80.60 LIG-0.35  N 
ATOM      8 H    ALA B   4     -21.830 -25.768  42.632  1.00 80.60 LIG 0.16  HD
ATOM      9 O    LEU B   3     -24.195 -23.852  42.513  1.00 80.60 LIG-0.27  OA
BRANCH 7 10
ATOM     10  CA  ALA B   4     -22.638 -25.396  44.391  1.00 80.57 LIG 0.17  C 
ATOM     11  CB  ALA B   4     -22.249 -24.089  45.069  1.00 80.56 LIG 0.04  C 
BRANCH 10 12
ATOM     12  C   ALA B   4     -24.043 -25.843  44.796  1.00 80.56 LIG 0.24  C 
ATOM     13  N   GLY B   5     -24.178 -27.153  45.008  1.00 80.55 LIG-0.35  N 
ATOM     14 H    GLY B   5     -23.514 -27.698  44.987  1.00 80.55 LIG 0.16  HD
ATOM     15 O    ALA B   4     -24.968 -25.028  44.910  1.00 80.59 LIG-0.27  OA
BRANCH 13 16
ATOM     16  CA  GLY B   5     -25.459 -27.809  45.299  1.00 80.50 LIG 0.21  C 
BRANCH 16 17
ATOM     17  C   GLY B   5     -25.670 -29.190  44.701  1.00 80.51 LIG 0.21  C 
ATOM     18 O    GLY B   5     -26.755 -29.803  44.915  1.00 80.50 LIG-0.29  OA
ENDBRANCH 16 17
ENDBRANCH 13 16
ENDBRANCH 10 12
ENDBRANCH 7 10
ENDBRANCH 1 6
BRANCH 1 19
ATOM     19  N   LEU B   3     -21.376 -24.567  40.715  1.00 80.50 LIG-0.35  N 
ATOM     20  C   ALA B   2     -20.630 -23.495  40.373  1.00 80.42 LIG 0.24  C 
ATOM     21 O    ALA B   2     -20.971 -22.675  39.478  1.00 80.43 LIG-0.27  OA
ATOM     22 H    LEU B   3     -21.042 -25.314  40.984  1.00 80.50 LIG 0.16  HD
BRANCH 20 23
ATOM     23  CA  ALA B   2     -19.222 -23.460  40.973  1.00 80.35 LIG 0.17  C 
ATOM     24  CB  ALA B   2     -19.199 -22.618  42.228  1.00 80.34 LIG 0.04  C 
BRANCH 23 25
ATOM     25  N   ALA B   2     -18.304 -22.901  39.976  1.00 80.28 LIG-0.35  N 
ATOM     26 H    ALA B   2     -18.218 -22.047  40.030  1.00 80.28 LIG 0.16  HD
ATOM     27  C   GLY B   1     -17.661 -23.637  39.071  1.00 80.20 LIG 0.24  C 
ATOM     28 O    GLY B   1     -17.804 -24.853  38.952  1.00 80.22 LIG-0.27  OA
BRANCH 27 29
ATOM     29  CA  GLY B   1     -16.713 -22.883  38.163  1.00 80.17 LIG 0.33  C 
BRANCH 29 30
ATOM     30  N   GLY B   1     -17.141 -22.880  36.733  1.00 80.00 LIG-0.07  N 
ATOM     31 H3   GLY B   1     -17.958 -22.531  36.668  1.00 80.00 LIG 0.27  HD
ATOM     32 H2   GLY B   1     -17.151 -23.715  36.423  1.00 80.00 LIG 0.27  HD
ATOM     33 H1   GLY B   1     -16.572 -22.392  36.253  1.00 80.00 LIG 0.27  HD
ENDBRANCH 29 30
ENDBRANCH 27 29
ENDBRANCH 23 25
ENDBRANCH 20 23
ENDBRANCH 1 19
TORSDOF 12
ENDMDL
MODEL 110
USER: ADFR SOLUTION from run 8
USER: SCORE 9.913183 LL:  -2.127 LR:  -8.882 RR:   0.000 FEB:  -5.302
USER: RMSD 6.696014
USER: SEED 523327
USER: STATUS no improvement in best 28 clusters for 5 generations
USER: GENES 14
USER: genes 0 Translation |==|  0.49193 0.49253 0.53317
USER: genes 1 Rotation |==|  0.85701 0.50684 0.19285 0.66779
USER: genes 2 Torsion [C]-CA--CB-[CG] |==|  0.29632
USER: genes 3 Torsion [CA]-CB--CG-[CD1] |==|  0.49117
USER: genes 4 Torsion [N]-CA--C-[N] |==|  0.11552
USER: genes 5 Torsion [C]-N--CA-[CB] |==|  0.53131
USER: genes 6 Torsion [N]-CA--C-[N] |==|  0.40000
USER: genes 7 Torsion [C]-N--CA-[C] |==|  0.50409
USER: genes 8 Torsion [N]-CA--C-[O] |==|  0.95415
USER: genes 9 Torsion [CB]-CA--N-[C] |==|  0.15956
USER: genes 10 Torsion [N]-C--CA-[N] |==|  0.64309
USER: genes 11 Torsion [C]-CA--N-[C] |==|  0.15993
USER: genes 12 Torsion [N]-C--CA-[N] |==|  0.94990
USER: genes 13 Torsion [C]-CA--N-[H2] |==|  0.63000
ROOT
ATOM      1  CA  LEU B   3     -15.812 -24.604  41.035  1.00 80.55 LIG 0.18  C 
ENDROOT
BRANCH 1 2
ATOM      2  CB  LEU B   3     -15.584 -25.939  40.309  1.00 80.55 LIG 0.04  C 
BRANCH 2 3
ATOM      3  CG  LEU B   3     -16.317 -27.228  40.758  1.00 80.55 LIG-0.02  C 
ATOM      4  CD1 LEU B   3     -15.970 -28.424  39.805  1.00 80.53 LIG 0.01  C 
ATOM      5  CD2 LEU B   3     -15.996 -27.624  42.222  1.00 80.44 LIG 0.01  C 
ENDBRANCH 2 3
ENDBRANCH 1 2
BRANCH 1 6
ATOM      6  C   LEU B   3     -14.601 -24.235  41.889  1.00 80.58 LIG 0.24  C 
ATOM      7  N   ALA B   4     -14.525 -22.942  42.226  1.00 80.60 LIG-0.35  N 
ATOM      8 H    ALA B   4     -15.098 -22.362  41.951  1.00 80.60 LIG 0.16  HD
ATOM      9 O    LEU B   3     -13.788 -25.096  42.245  1.00 80.60 LIG-0.27  OA
BRANCH 7 10
ATOM     10  CA  ALA B   4     -13.487 -22.351  43.086  1.00 80.57 LIG 0.17  C 
ATOM     11  CB  ALA B   4     -13.863 -20.928  43.479  1.00 80.56 LIG 0.04  C 
BRANCH 10 12
ATOM     12  C   ALA B   4     -13.181 -23.212  44.313  1.00 80.56 LIG 0.24  C 
ATOM     13  N   GLY B   5     -11.903 -23.221  44.691  1.00 80.55 LIG-0.35  N 
ATOM     14 H    GLY B   5     -11.305 -22.729  44.318  1.00 80.55 LIG 0.16  HD
ATOM     15 O    ALA B   4     -14.075 -23.844  44.892  1.00 80.59 LIG-0.27  OA
BRANCH 13 16
ATOM     16  CA  GLY B   5     -11.372 -24.061  45.771  1.00 80.50 LIG 0.21  C 
BRANCH 16 17
ATOM     17  C   GLY B   5      -9.893 -23.915  46.087  1.00 80.51 LIG 0.21  C 
ATOM     18 O    GLY B   5      -9.130 -23.353  45.251  1.00 80.50 LIG-0.29  OA
ENDBRANCH 16 17
ENDBRANCH 13 16
ENDBRANCH 10 12
ENDBRANCH 7 10
ENDBRANCH 1 6
BRANCH 1 19
ATOM     19  N   LEU B   3     -15.905 -23.505  40.089  1.00 80.50 LIG-0.35  N 
ATOM     20  C   ALA B   2     -16.820 -23.483  39.097  1.00 80.42 LIG 0.24  C 
ATOM     21 O    ALA B   2     -17.235 -24.524  38.519  1.00 80.43 LIG-0.27  OA
ATOM     22 H    LEU B   3     -15.329 -22.878  40.220  1.00 80.50 LIG 0.16  HD
BRANCH 20 23
ATOM     23  CA  ALA B   2     -17.155 -22.094  38.547  1.00 80.35 LIG 0.17  C 
ATOM     24  CB  ALA B   2     -16.503 -21.018  39.384  1.00 80.34 LIG 0.04  C 
BRANCH 23 25
ATOM     25  N   ALA B   2     -18.612 -21.927  38.558  1.00 80.28 LIG-0.35  N 
ATOM     26 H    ALA B   2     -18.943 -21.752  37.784  1.00 80.28 LIG 0.16  HD
ATOM     27  C   GLY B   1     -19.357 -22.035  39.657  1.00 80.20 LIG 0.24  C 
ATOM     28 O    GLY B   1     -18.897 -22.243  40.779  1.00 80.22 LIG-0.27  OA
BRANCH 27 29
ATOM     29  CA  GLY B   1     -20.851 -21.885  39.456  1.00 80.17 LIG 0.33  C 
BRANCH 29 30
ATOM     30  N   GLY B   1     -21.210 -21.228  38.165  1.00 80.00 LIG-0.07  N 
ATOM     31 H3   GLY B   1     -20.483 -20.859  37.807  1.00 80.00 LIG 0.27  HD
ATOM     32 H2   GLY B   1     -21.821 -20.596  38.313  1.00 80.00 LIG 0.27  HD
ATOM     33 H1   GLY B   1     -21.541 -21.835  37.604  1.00 80.00 LIG 0.27  HD
ENDBRANCH 29 30
ENDBRANCH 27 29
ENDBRANCH 23 25
ENDBRANCH 20 23
ENDBRANCH 1 19
TORSDOF 12
ENDMDL
MODEL 111
USER: ADFR SOLUTION from run 109
USER: SCORE 10.246545 LL:  -2.449 LR:  -8.866 RR:   0.000 FEB:  -5.286
USER: RMSD 11.549975
USER: SEED 108
USER: STATUS no improvement in best 11 clusters for 5 generations
USER: GENES 14
USER: genes 0 Translation |==|  0.25094 0.40202 0.61172
USER: genes 1 Rotation |==|  0.96608 0.43875 0.50250 0.67034
USER: genes 2 Torsion [C]-CA--CB-[CG] |==|  0.00960
USER: genes 3 Torsion [CA]-CB--CG-[CD1] |==|  0.40283
USER: genes 4 Torsion [N]-CA--C-[N] |==|  0.44326
USER: genes 5 Torsion [C]-N--CA-[CB] |==|  0.23357
USER: genes 6 Torsion [N]-CA--C-[N] |==|  0.03384
USER: genes 7 Torsion [C]-N--CA-[C] |==|  0.22529
USER: genes 8 Torsion [N]-CA--C-[O] |==|  0.04952
USER: genes 9 Torsion [CB]-CA--N-[C] |==|  0.52778
USER: genes 10 Torsion [N]-C--CA-[N] |==|  0.34762
USER: genes 11 Torsion [C]-CA--N-[C] |==|  0.75674
USER: genes 12 Torsion [N]-C--CA-[N] |==|  0.39197
USER: genes 13 Torsion [C]-CA--N-[H2] |==|  0.14131
ROOT
ATOM      1  CA  LEU B   3     -23.042 -27.319  43.391  1.00 80.55 LIG 0.18  C 
ENDROOT
BRANCH 1 2
ATOM      2  CB  LEU B   3     -22.074 -28.487  43.642  1.00 80.55 LIG 0.04  C 
BRANCH 2 3
ATOM      3  CG  LEU B   3     -21.909 -29.097  45.056  1.00 80.55 LIG-0.02  C 
ATOM      4  CD1 LEU B   3     -21.661 -30.643  44.967  1.00 80.53 LIG 0.01  C 
ATOM      5  CD2 LEU B   3     -20.765 -28.436  45.868  1.00 80.44 LIG 0.01  C 
ENDBRANCH 2 3
ENDBRANCH 1 2
BRANCH 1 6
ATOM      6  C   LEU B   3     -23.682 -26.853  44.697  1.00 80.58 LIG 0.24  C 
ATOM      7  N   ALA B   4     -24.724 -27.590  45.105  1.00 80.60 LIG-0.35  N 
ATOM      8 H    ALA B   4     -25.025 -28.251  44.645  1.00 80.60 LIG 0.16  HD
ATOM      9 O    LEU B   3     -23.231 -25.882  45.316  1.00 80.60 LIG-0.27  OA
BRANCH 7 10
ATOM     10  CA  ALA B   4     -25.471 -27.378  46.355  1.00 80.57 LIG 0.17  C 
ATOM     11  CB  ALA B   4     -26.542 -26.311  46.164  1.00 80.56 LIG 0.04  C 
BRANCH 10 12
ATOM     12  C   ALA B   4     -26.063 -28.674  46.912  1.00 80.56 LIG 0.24  C 
ATOM     13  N   GLY B   5     -25.607 -29.791  46.344  1.00 80.55 LIG-0.35  N 
ATOM     14 H    GLY B   5     -24.979 -29.791  45.757  1.00 80.55 LIG 0.16  HD
ATOM     15 O    ALA B   4     -26.902 -28.656  47.823  1.00 80.59 LIG-0.27  OA
BRANCH 13 16
ATOM     16  CA  GLY B   5     -26.117 -31.133  46.649  1.00 80.50 LIG 0.21  C 
BRANCH 16 17
ATOM     17  C   GLY B   5     -27.401 -31.551  45.953  1.00 80.51 LIG 0.21  C 
ATOM     18 O    GLY B   5     -27.787 -30.922  44.927  1.00 80.50 LIG-0.29  OA
ENDBRANCH 16 17
ENDBRANCH 13 16
ENDBRANCH 10 12
ENDBRANCH 7 10
ENDBRANCH 1 6
BRANCH 1 19
ATOM     19  N   LEU B   3     -22.328 -26.141  42.927  1.00 80.50 LIG-0.35  N 
ATOM     20  C   ALA B   2     -22.922 -24.933  42.826  1.00 80.42 LIG 0.24  C 
ATOM     21 O    ALA B   2     -24.139 -24.784  42.536  1.00 80.43 LIG-0.27  OA
ATOM     22 H    LEU B   3     -21.504 -26.286  42.726  1.00 80.50 LIG 0.16  HD
BRANCH 20 23
ATOM     23  CA  ALA B   2     -21.970 -23.733  42.854  1.00 80.35 LIG 0.17  C 
ATOM     24  CB  ALA B   2     -22.194 -22.904  44.098  1.00 80.34 LIG 0.04  C 
BRANCH 23 25
ATOM     25  N   ALA B   2     -22.211 -22.920  41.657  1.00 80.28 LIG-0.35  N 
ATOM     26 H    ALA B   2     -22.782 -22.290  41.781  1.00 80.28 LIG 0.16  HD
ATOM     27  C   GLY B   1     -21.606 -23.131  40.489  1.00 80.20 LIG 0.24  C 
ATOM     28 O    GLY B   1     -20.818 -24.053  40.283  1.00 80.22 LIG-0.27  OA
BRANCH 27 29
ATOM     29  CA  GLY B   1     -21.945 -22.149  39.387  1.00 80.17 LIG 0.33  C 
BRANCH 29 30
ATOM     30  N   GLY B   1     -20.772 -21.784  38.540  1.00 80.00 LIG-0.07  N 
ATOM     31 H3   GLY B   1     -21.049 -21.315  37.835  1.00 80.00 LIG 0.27  HD
ATOM     32 H2   GLY B   1     -20.364 -22.525  38.261  1.00 80.00 LIG 0.27  HD
ATOM     33 H1   GLY B   1     -20.202 -21.293  39.017  1.00 80.00 LIG 0.27  HD
ENDBRANCH 29 30
ENDBRANCH 27 29
ENDBRANCH 23 25
ENDBRANCH 20 23
ENDBRANCH 1 19
TORSDOF 12
ENDMDL
MODEL 112
USER: ADFR SOLUTION from run 154
USER: SCORE 10.069627 LL:  -2.160 LR:  -8.867 RR:   0.000 FEB:  -5.287
USER: RMSD 6.705044
USER: SEED 153
USER: STATUS no improvement in best 15 clusters for 5 generations
USER: GENES 14
USER: genes 0 Translation |==|  0.37278 0.53987 0.49813
USER: genes 1 Rotation |==|  0.28114 0.14771 0.48774 0.77900
USER: genes 2 Torsion [C]-CA--CB-[CG] |==|  0.44042
USER: genes 3 Torsion [CA]-CB--CG-[CD1] |==|  0.57282
USER: genes 4 Torsion [N]-CA--C-[N] |==|  0.33334
USER: genes 5 Torsion [C]-N--CA-[CB] |==|  0.83696
USER: genes 6 Torsion [N]-CA--C-[N] |==|  0.34061
USER: genes 7 Torsion [C]-N--CA-[C] |==|  0.32306
USER: genes 8 Torsion [N]-CA--C-[O] |==|  0.10417
USER: genes 9 Torsion [CB]-CA--N-[C] |==|  0.91111
USER: genes 10 Torsion [N]-C--CA-[N] |==|  0.03153
USER: genes 11 Torsion [C]-CA--N-[C] |==|  0.75889
USER: genes 12 Torsion [N]-C--CA-[N] |==|  0.27197
USER: genes 13 Torsion [C]-CA--N-[H2] |==|  0.99627
ROOT
ATOM      1  CA  LEU B   3     -19.387 -23.184  39.984  1.00 80.55 LIG 0.18  C 
ENDROOT
BRANCH 1 2
ATOM      2  CB  LEU B   3     -19.233 -21.722  40.431  1.00 80.55 LIG 0.04  C 
BRANCH 2 3
ATOM      3  CG  LEU B   3     -20.416 -20.727  40.329  1.00 80.55 LIG-0.02  C 
ATOM      4  CD1 LEU B   3     -19.893 -19.255  40.194  1.00 80.53 LIG 0.01  C 
ATOM      5  CD2 LEU B   3     -21.373 -21.046  39.152  1.00 80.44 LIG 0.01  C 
ENDBRANCH 2 3
ENDBRANCH 1 2
BRANCH 1 6
ATOM      6  C   LEU B   3     -18.026 -23.806  39.679  1.00 80.58 LIG 0.24  C 
ATOM      7  N   ALA B   4     -17.885 -24.262  38.427  1.00 80.60 LIG-0.35  N 
ATOM      8 H    ALA B   4     -18.527 -24.236  37.856  1.00 80.60 LIG 0.16  HD
ATOM      9 O    LEU B   3     -17.137 -23.845  40.538  1.00 80.60 LIG-0.27  OA
BRANCH 7 10
ATOM     10  CA  ALA B   4     -16.655 -24.852  37.875  1.00 80.57 LIG 0.17  C 
ATOM     11  CB  ALA B   4     -15.501 -23.862  37.964  1.00 80.56 LIG 0.04  C 
BRANCH 10 12
ATOM     12  C   ALA B   4     -16.301 -26.189  38.529  1.00 80.56 LIG 0.24  C 
ATOM     13  N   GLY B   5     -16.193 -27.216  37.686  1.00 80.55 LIG-0.35  N 
ATOM     14 H    GLY B   5     -16.250 -27.125  36.833  1.00 80.55 LIG 0.16  HD
ATOM     15 O    ALA B   4     -16.133 -26.281  39.752  1.00 80.59 LIG-0.27  OA
BRANCH 13 16
ATOM     16  CA  GLY B   5     -15.968 -28.604  38.108  1.00 80.50 LIG 0.21  C 
BRANCH 16 17
ATOM     17  C   GLY B   5     -17.069 -29.602  37.791  1.00 80.51 LIG 0.21  C 
ATOM     18 O    GLY B   5     -17.699 -29.509  36.699  1.00 80.50 LIG-0.29  OA
ENDBRANCH 16 17
ENDBRANCH 13 16
ENDBRANCH 10 12
ENDBRANCH 7 10
ENDBRANCH 1 6
BRANCH 1 19
ATOM     19  N   LEU B   3     -19.899 -24.009  41.065  1.00 80.50 LIG-0.35  N 
ATOM     20  C   ALA B   2     -19.615 -23.757  42.361  1.00 80.42 LIG 0.24  C 
ATOM     21 O    ALA B   2     -18.522 -23.258  42.742  1.00 80.43 LIG-0.27  OA
ATOM     22 H    LEU B   3     -20.394 -24.663  40.804  1.00 80.50 LIG 0.16  HD
BRANCH 20 23
ATOM     23  CA  ALA B   2     -20.610 -24.333  43.372  1.00 80.35 LIG 0.17  C 
ATOM     24  CB  ALA B   2     -19.882 -25.053  44.484  1.00 80.34 LIG 0.04  C 
BRANCH 23 25
ATOM     25  N   ALA B   2     -21.501 -25.263  42.670  1.00 80.28 LIG-0.35  N 
ATOM     26 H    ALA B   2     -21.233 -26.080  42.697  1.00 80.28 LIG 0.16  HD
ATOM     27  C   GLY B   1     -22.619 -24.887  42.051  1.00 80.20 LIG 0.24  C 
ATOM     28 O    GLY B   1     -22.995 -23.719  41.967  1.00 80.22 LIG-0.27  OA
BRANCH 27 29
ATOM     29  CA  GLY B   1     -23.435 -26.003  41.432  1.00 80.17 LIG 0.33  C 
BRANCH 29 30
ATOM     30  N   GLY B   1     -24.570 -26.451  42.290  1.00 80.00 LIG-0.07  N 
ATOM     31 H3   GLY B   1     -25.338 -26.313  41.863  1.00 80.00 LIG 0.27  HD
ATOM     32 H2   GLY B   1     -24.567 -25.990  43.052  1.00 80.00 LIG 0.27  HD
ATOM     33 H1   GLY B   1     -24.483 -27.319  42.469  1.00 80.00 LIG 0.27  HD
ENDBRANCH 29 30
ENDBRANCH 27 29
ENDBRANCH 23 25
ENDBRANCH 20 23
ENDBRANCH 1 19
TORSDOF 12
ENDMDL
MODEL 113
USER: ADFR SOLUTION from run 52
USER: SCORE 10.072773 LL:  -2.579 LR:  -8.871 RR:   0.000 FEB:  -5.291
USER: RMSD 7.780869
USER: SEED 51
USER: STATUS no improvement in best 12 clusters for 5 generations
USER: GENES 14
USER: genes 0 Translation |==|  0.44688 0.56438 0.51377
USER: genes 1 Rotation |==|  0.09148 0.56483 0.76732 0.58628
USER: genes 2 Torsion [C]-CA--CB-[CG] |==|  0.84823
USER: genes 3 Torsion [CA]-CB--CG-[CD1] |==|  0.34894
USER: genes 4 Torsion [N]-CA--C-[N] |==|  0.91863
USER: genes 5 Torsion [C]-N--CA-[CB] |==|  0.76950
USER: genes 6 Torsion [N]-CA--C-[N] |==|  0.16923
USER: genes 7 Torsion [C]-N--CA-[C] |==|  0.42754
USER: genes 8 Torsion [N]-CA--C-[O] |==|  0.16677
USER: genes 9 Torsion [CB]-CA--N-[C] |==|  0.20918
USER: genes 10 Torsion [N]-C--CA-[N] |==|  0.49443
USER: genes 11 Torsion [C]-CA--N-[C] |==|  0.79327
USER: genes 12 Torsion [N]-C--CA-[N] |==|  0.22682
USER: genes 13 Torsion [C]-CA--N-[H2] |==|  0.95817
ROOT
ATOM      1  CA  LEU B   3     -17.164 -22.449  40.453  1.00 80.55 LIG 0.18  C 
ENDROOT
BRANCH 1 2
ATOM      2  CB  LEU B   3     -17.393 -23.003  39.038  1.00 80.55 LIG 0.04  C 
BRANCH 2 3
ATOM      3  CG  LEU B   3     -16.251 -23.702  38.259  1.00 80.55 LIG-0.02  C 
ATOM      4  CD1 LEU B   3     -16.696 -25.129  37.785  1.00 80.53 LIG 0.01  C 
ATOM      5  CD2 LEU B   3     -15.762 -22.880  37.040  1.00 80.44 LIG 0.01  C 
ENDBRANCH 2 3
ENDBRANCH 1 2
BRANCH 1 6
ATOM      6  C   LEU B   3     -16.616 -23.531  41.380  1.00 80.58 LIG 0.24  C 
ATOM      7  N   ALA B   4     -15.280 -23.621  41.411  1.00 80.60 LIG-0.35  N 
ATOM      8 H    ALA B   4     -14.777 -23.128  40.918  1.00 80.60 LIG 0.16  HD
ATOM      9 O    LEU B   3     -17.376 -24.236  42.054  1.00 80.60 LIG-0.27  OA
BRANCH 7 10
ATOM     10  CA  ALA B   4     -14.513 -24.544  42.263  1.00 80.57 LIG 0.17  C 
ATOM     11  CB  ALA B   4     -14.342 -23.964  43.661  1.00 80.56 LIG 0.04  C 
BRANCH 10 12
ATOM     12  C   ALA B   4     -15.124 -25.946  42.307  1.00 80.56 LIG 0.24  C 
ATOM     13  N   GLY B   5     -15.191 -26.568  41.130  1.00 80.55 LIG-0.35  N 
ATOM     14 H    GLY B   5     -14.856 -26.239  40.410  1.00 80.55 LIG 0.16  HD
ATOM     15 O    ALA B   4     -15.519 -26.440  43.371  1.00 80.59 LIG-0.27  OA
BRANCH 13 16
ATOM     16  CA  GLY B   5     -15.836 -27.871  40.926  1.00 80.50 LIG 0.21  C 
BRANCH 16 17
ATOM     17  C   GLY B   5     -16.367 -28.160  39.531  1.00 80.51 LIG 0.21  C 
ATOM     18 O    GLY B   5     -15.570 -28.164  38.550  1.00 80.50 LIG-0.29  OA
ENDBRANCH 16 17
ENDBRANCH 13 16
ENDBRANCH 10 12
ENDBRANCH 7 10
ENDBRANCH 1 6
BRANCH 1 19
ATOM     19  N   LEU B   3     -16.116 -21.442  40.455  1.00 80.50 LIG-0.35  N 
ATOM     20  C   ALA B   2     -16.316 -20.192  39.986  1.00 80.42 LIG 0.24  C 
ATOM     21 O    ALA B   2     -17.099 -19.931  39.033  1.00 80.43 LIG-0.27  OA
ATOM     22 H    LEU B   3     -15.367 -21.714  40.780  1.00 80.50 LIG 0.16  HD
BRANCH 20 23
ATOM     23  CA  ALA B   2     -15.355 -19.129  40.525  1.00 80.35 LIG 0.17  C 
ATOM     24  CB  ALA B   2     -15.484 -19.006  42.027  1.00 80.34 LIG 0.04  C 
BRANCH 23 25
ATOM     25  N   ALA B   2     -15.673 -17.847  39.887  1.00 80.28 LIG-0.35  N 
ATOM     26 H    ALA B   2     -16.079 -17.297  40.408  1.00 80.28 LIG 0.16  HD
ATOM     27  C   GLY B   1     -15.364 -17.555  38.625  1.00 80.20 LIG 0.24  C 
ATOM     28 O    GLY B   1     -14.820 -18.345  37.853  1.00 80.22 LIG-0.27  OA
BRANCH 27 29
ATOM     29  CA  GLY B   1     -15.725 -16.159  38.165  1.00 80.17 LIG 0.33  C 
BRANCH 29 30
ATOM     30  N   GLY B   1     -14.724 -15.127  38.566  1.00 80.00 LIG-0.07  N 
ATOM     31 H3   GLY B   1     -14.239 -14.892  37.858  1.00 80.00 LIG 0.27  HD
ATOM     32 H2   GLY B   1     -14.189 -15.460  39.195  1.00 80.00 LIG 0.27  HD
ATOM     33 H1   GLY B   1     -15.147 -14.411  38.886  1.00 80.00 LIG 0.27  HD
ENDBRANCH 29 30
ENDBRANCH 27 29
ENDBRANCH 23 25
ENDBRANCH 20 23
ENDBRANCH 1 19
TORSDOF 12
ENDMDL
MODEL 114
USER: ADFR SOLUTION from run 47
USER: SCORE 10.374904 LL:  -2.799 LR:  -8.838 RR:   0.000 FEB:  -5.259
USER: RMSD 6.405058
USER: SEED 46
USER: STATUS no improvement in best 39 clusters for 5 generations
USER: GENES 14
USER: genes 0 Translation |==|  0.46519 0.40245 0.51812
USER: genes 1 Rotation |==|  0.95653 0.54305 0.33260 0.60819
USER: genes 2 Torsion [C]-CA--CB-[CG] |==|  0.48760
USER: genes 3 Torsion [CA]-CB--CG-[CD1] |==|  0.76461
USER: genes 4 Torsion [N]-CA--C-[N] |==|  0.27855
USER: genes 5 Torsion [C]-N--CA-[CB] |==|  0.77923
USER: genes 6 Torsion [N]-CA--C-[N] |==|  0.09482
USER: genes 7 Torsion [C]-N--CA-[C] |==|  0.32392
USER: genes 8 Torsion [N]-CA--C-[O] |==|  0.98036
USER: genes 9 Torsion [CB]-CA--N-[C] |==|  0.56162
USER: genes 10 Torsion [N]-C--CA-[N] |==|  0.11158
USER: genes 11 Torsion [C]-CA--N-[C] |==|  0.14474
USER: genes 12 Torsion [N]-C--CA-[N] |==|  0.93154
USER: genes 13 Torsion [C]-CA--N-[H2] |==|  0.35358
ROOT
ATOM      1  CA  LEU B   3     -16.614 -27.306  40.584  1.00 80.55 LIG 0.18  C 
ENDROOT
BRANCH 1 2
ATOM      2  CB  LEU B   3     -15.717 -28.218  39.732  1.00 80.55 LIG 0.04  C 
BRANCH 2 3
ATOM      3  CG  LEU B   3     -16.026 -28.467  38.234  1.00 80.55 LIG-0.02  C 
ATOM      4  CD1 LEU B   3     -17.069 -29.627  38.068  1.00 80.53 LIG 0.01  C 
ATOM      5  CD2 LEU B   3     -16.540 -27.200  37.505  1.00 80.44 LIG 0.01  C 
ENDBRANCH 2 3
ENDBRANCH 1 2
BRANCH 1 6
ATOM      6  C   LEU B   3     -16.166 -27.311  42.043  1.00 80.58 LIG 0.24  C 
ATOM      7  N   ALA B   4     -17.163 -27.309  42.937  1.00 80.60 LIG-0.35  N 
ATOM      8 H    ALA B   4     -17.989 -27.273  42.701  1.00 80.60 LIG 0.16  HD
ATOM      9 O    LEU B   3     -14.965 -27.340  42.339  1.00 80.60 LIG-0.27  OA
BRANCH 7 10
ATOM     10  CA  ALA B   4     -16.989 -27.368  44.397  1.00 80.57 LIG 0.17  C 
ATOM     11  CB  ALA B   4     -16.715 -28.797  44.847  1.00 80.56 LIG 0.04  C 
BRANCH 10 12
ATOM     12  C   ALA B   4     -15.913 -26.404  44.900  1.00 80.56 LIG 0.24  C 
ATOM     13  N   GLY B   5     -15.820 -25.260  44.221  1.00 80.55 LIG-0.35  N 
ATOM     14 H    GLY B   5     -16.367 -25.047  43.593  1.00 80.55 LIG 0.16  HD
ATOM     15 O    ALA B   4     -15.194 -26.692  45.866  1.00 80.59 LIG-0.27  OA
BRANCH 13 16
ATOM     16  CA  GLY B   5     -14.789 -24.244  44.463  1.00 80.50 LIG 0.21  C 
BRANCH 16 17
ATOM     17  C   GLY B   5     -13.823 -23.965  43.324  1.00 80.51 LIG 0.21  C 
ATOM     18 O    GLY B   5     -13.853 -24.692  42.290  1.00 80.50 LIG-0.29  OA
ENDBRANCH 16 17
ENDBRANCH 13 16
ENDBRANCH 10 12
ENDBRANCH 7 10
ENDBRANCH 1 6
BRANCH 1 19
ATOM     19  N   LEU B   3     -16.468 -25.915  40.190  1.00 80.50 LIG-0.35  N 
ATOM     20  C   ALA B   2     -16.778 -24.895  41.019  1.00 80.42 LIG 0.24  C 
ATOM     21 O    ALA B   2     -17.702 -24.958  41.874  1.00 80.43 LIG-0.27  OA
ATOM     22 H    LEU B   3     -16.168 -25.805  39.391  1.00 80.50 LIG 0.16  HD
BRANCH 20 23
ATOM     23  CA  ALA B   2     -16.093 -23.563  40.702  1.00 80.35 LIG 0.17  C 
ATOM     24  CB  ALA B   2     -16.828 -22.416  41.356  1.00 80.34 LIG 0.04  C 
BRANCH 23 25
ATOM     25  N   ALA B   2     -16.075 -23.384  39.246  1.00 80.28 LIG-0.35  N 
ATOM     26 H    ALA B   2     -15.294 -23.208  38.932  1.00 80.28 LIG 0.16  HD
ATOM     27  C   GLY B   1     -17.158 -23.483  38.478  1.00 80.20 LIG 0.24  C 
ATOM     28 O    GLY B   1     -18.290 -23.692  38.914  1.00 80.22 LIG-0.27  OA
BRANCH 27 29
ATOM     29  CA  GLY B   1     -16.927 -23.320  36.990  1.00 80.17 LIG 0.33  C 
BRANCH 29 30
ATOM     30  N   GLY B   1     -15.706 -22.526  36.665  1.00 80.00 LIG-0.07  N 
ATOM     31 H3   GLY B   1     -15.945 -21.755  36.290  1.00 80.00 LIG 0.27  HD
ATOM     32 H2   GLY B   1     -15.195 -22.985  36.099  1.00 80.00 LIG 0.27  HD
ATOM     33 H1   GLY B   1     -15.250 -22.363  37.412  1.00 80.00 LIG 0.27  HD
ENDBRANCH 29 30
ENDBRANCH 27 29
ENDBRANCH 23 25
ENDBRANCH 20 23
ENDBRANCH 1 19
TORSDOF 12
ENDMDL
MODEL 115
USER: ADFR SOLUTION from run 148
USER: SCORE 9.970631 LL:  -2.589 LR:  -8.836 RR:   0.000 FEB:  -5.257
USER: RMSD 6.360040
USER: SEED 147
USER: STATUS no improvement in best 23 clusters for 5 generations
USER: GENES 14
USER: genes 0 Translation |==|  0.46259 0.48532 0.57376
USER: genes 1 Rotation |==|  0.45380 0.56481 0.01521 0.59299
USER: genes 2 Torsion [C]-CA--CB-[CG] |==|  0.20863
USER: genes 3 Torsion [CA]-CB--CG-[CD1] |==|  0.88564
USER: genes 4 Torsion [N]-CA--C-[N] |==|  0.85843
USER: genes 5 Torsion [C]-N--CA-[CB] |==|  0.87158
USER: genes 6 Torsion [N]-CA--C-[N] |==|  0.95556
USER: genes 7 Torsion [C]-N--CA-[C] |==|  0.77191
USER: genes 8 Torsion [N]-CA--C-[O] |==|  0.23063
USER: genes 9 Torsion [CB]-CA--N-[C] |==|  0.55261
USER: genes 10 Torsion [N]-C--CA-[N] |==|  0.01105
USER: genes 11 Torsion [C]-CA--N-[C] |==|  0.74647
USER: genes 12 Torsion [N]-C--CA-[N] |==|  0.26704
USER: genes 13 Torsion [C]-CA--N-[H2] |==|  0.94796
ROOT
ATOM      1  CA  LEU B   3     -16.692 -24.821  42.253  1.00 80.55 LIG 0.18  C 
ENDROOT
BRANCH 1 2
ATOM      2  CB  LEU B   3     -17.434 -26.109  42.640  1.00 80.55 LIG 0.04  C 
BRANCH 2 3
ATOM      3  CG  LEU B   3     -16.660 -27.423  42.919  1.00 80.55 LIG-0.02  C 
ATOM      4  CD1 LEU B   3     -15.501 -27.614  41.880  1.00 80.53 LIG 0.01  C 
ATOM      5  CD2 LEU B   3     -16.083 -27.490  44.355  1.00 80.44 LIG 0.01  C 
ENDBRANCH 2 3
ENDBRANCH 1 2
BRANCH 1 6
ATOM      6  C   LEU B   3     -16.211 -24.883  40.805  1.00 80.58 LIG 0.24  C 
ATOM      7  N   ALA B   4     -17.187 -24.864  39.888  1.00 80.60 LIG-0.35  N 
ATOM      8 H    ALA B   4     -18.018 -24.853  40.105  1.00 80.60 LIG 0.16  HD
ATOM      9 O    LEU B   3     -15.004 -24.922  40.537  1.00 80.60 LIG-0.27  OA
BRANCH 7 10
ATOM     10  CA  ALA B   4     -16.978 -24.860  38.431  1.00 80.57 LIG 0.17  C 
ATOM     11  CB  ALA B   4     -15.911 -23.843  38.046  1.00 80.56 LIG 0.04  C 
BRANCH 10 12
ATOM     12  C   ALA B   4     -16.655 -26.250  37.880  1.00 80.56 LIG 0.24  C 
ATOM     13  N   GLY B   5     -16.288 -27.147  38.795  1.00 80.55 LIG-0.35  N 
ATOM     14 H    GLY B   5     -16.297 -26.981  39.639  1.00 80.55 LIG 0.16  HD
ATOM     15 O    ALA B   4     -16.736 -26.495  36.669  1.00 80.59 LIG-0.27  OA
BRANCH 13 16
ATOM     16  CA  GLY B   5     -15.832 -28.506  38.476  1.00 80.50 LIG 0.21  C 
BRANCH 16 17
ATOM     17  C   GLY B   5     -16.909 -29.546  38.220  1.00 80.51 LIG 0.21  C 
ATOM     18 O    GLY B   5     -17.436 -29.628  37.074  1.00 80.50 LIG-0.29  OA
ENDBRANCH 16 17
ENDBRANCH 13 16
ENDBRANCH 10 12
ENDBRANCH 7 10
ENDBRANCH 1 6
BRANCH 1 19
ATOM     19  N   LEU B   3     -17.592 -23.679  42.259  1.00 80.50 LIG-0.35  N 
ATOM     20  C   ALA B   2     -17.303 -22.530  41.612  1.00 80.42 LIG 0.24  C 
ATOM     21 O    ALA B   2     -16.128 -22.093  41.474  1.00 80.43 LIG-0.27  OA
ATOM     22 H    LEU B   3     -18.316 -23.804  42.708  1.00 80.50 LIG 0.16  HD
BRANCH 20 23
ATOM     23  CA  ALA B   2     -18.510 -21.659  41.257  1.00 80.35 LIG 0.17  C 
ATOM     24  CB  ALA B   2     -18.343 -20.263  41.812  1.00 80.34 LIG 0.04  C 
BRANCH 23 25
ATOM     25  N   ALA B   2     -19.715 -22.281  41.816  1.00 80.28 LIG-0.35  N 
ATOM     26 H    ALA B   2     -19.888 -22.030  42.620  1.00 80.28 LIG 0.16  HD
ATOM     27  C   GLY B   1     -20.472 -23.150  41.150  1.00 80.20 LIG 0.24  C 
ATOM     28 O    GLY B   1     -20.217 -23.553  40.016  1.00 80.22 LIG-0.27  OA
BRANCH 27 29
ATOM     29  CA  GLY B   1     -21.707 -23.640  41.878  1.00 80.17 LIG 0.33  C 
BRANCH 29 30
ATOM     30  N   GLY B   1     -22.943 -22.885  41.520  1.00 80.00 LIG-0.07  N 
ATOM     31 H3   GLY B   1     -23.424 -23.360  40.942  1.00 80.00 LIG 0.27  HD
ATOM     32 H2   GLY B   1     -22.719 -22.106  41.150  1.00 80.00 LIG 0.27  HD
ATOM     33 H1   GLY B   1     -23.424 -22.736  42.255  1.00 80.00 LIG 0.27  HD
ENDBRANCH 29 30
ENDBRANCH 27 29
ENDBRANCH 23 25
ENDBRANCH 20 23
ENDBRANCH 1 19
TORSDOF 12
ENDMDL
MODEL 116
USER: ADFR SOLUTION from run 15
USER: SCORE 9.759706 LL:  -2.329 LR:  -8.830 RR:   0.000 FEB:  -5.250
USER: RMSD 7.559619
USER: SEED 656160
USER: STATUS searching
USER: GENES 14
USER: genes 0 Translation |==|  0.46413 0.41004 0.52109
USER: genes 1 Rotation |==|  0.95830 0.51912 0.34824 0.62870
USER: genes 2 Torsion [C]-CA--CB-[CG] |==|  0.48108
USER: genes 3 Torsion [CA]-CB--CG-[CD1] |==|  0.77217
USER: genes 4 Torsion [N]-CA--C-[N] |==|  0.29689
USER: genes 5 Torsion [C]-N--CA-[CB] |==|  0.51276
USER: genes 6 Torsion [N]-CA--C-[N] |==|  0.36815
USER: genes 7 Torsion [C]-N--CA-[C] |==|  0.49370
USER: genes 8 Torsion [N]-CA--C-[O] |==|  0.80665
USER: genes 9 Torsion [CB]-CA--N-[C] |==|  0.50821
USER: genes 10 Torsion [N]-C--CA-[N] |==|  0.41267
USER: genes 11 Torsion [C]-CA--N-[C] |==|  0.81239
USER: genes 12 Torsion [N]-C--CA-[N] |==|  0.57613
USER: genes 13 Torsion [C]-CA--N-[H2] |==|  0.66810
ROOT
ATOM      1  CA  LEU B   3     -16.646 -27.079  40.673  1.00 80.55 LIG 0.18  C 
ENDROOT
BRANCH 1 2
ATOM      2  CB  LEU B   3     -15.728 -28.110  39.998  1.00 80.55 LIG 0.04  C 
BRANCH 2 3
ATOM      3  CG  LEU B   3     -15.954 -28.537  38.526  1.00 80.55 LIG-0.02  C 
ATOM      4  CD1 LEU B   3     -17.070 -29.635  38.432  1.00 80.53 LIG 0.01  C 
ATOM      5  CD2 LEU B   3     -16.320 -27.348  37.602  1.00 80.44 LIG 0.01  C 
ENDBRANCH 2 3
ENDBRANCH 1 2
BRANCH 1 6
ATOM      6  C   LEU B   3     -16.324 -26.954  42.160  1.00 80.58 LIG 0.24  C 
ATOM      7  N   ALA B   4     -17.391 -26.958  42.968  1.00 80.60 LIG-0.35  N 
ATOM      8 H    ALA B   4     -18.195 -26.994  42.665  1.00 80.60 LIG 0.16  HD
ATOM      9 O    LEU B   3     -15.153 -26.882  42.553  1.00 80.60 LIG-0.27  OA
BRANCH 7 10
ATOM     10  CA  ALA B   4     -17.339 -26.906  44.438  1.00 80.57 LIG 0.17  C 
ATOM     11  CB  ALA B   4     -18.737 -27.042  45.028  1.00 80.56 LIG 0.04  C 
BRANCH 10 12
ATOM     12  C   ALA B   4     -16.376 -27.937  45.029  1.00 80.56 LIG 0.24  C 
ATOM     13  N   GLY B   5     -15.541 -27.463  45.954  1.00 80.55 LIG-0.35  N 
ATOM     14 H    GLY B   5     -15.584 -26.656  46.249  1.00 80.55 LIG 0.16  HD
ATOM     15 O    ALA B   4     -16.392 -29.117  44.655  1.00 80.59 LIG-0.27  OA
BRANCH 13 16
ATOM     16  CA  GLY B   5     -14.467 -28.251  46.571  1.00 80.50 LIG 0.21  C 
BRANCH 16 17
ATOM     17  C   GLY B   5     -13.578 -27.529  47.570  1.00 80.51 LIG 0.21  C 
ATOM     18 O    GLY B   5     -12.778 -26.640  47.164  1.00 80.50 LIG-0.29  OA
ENDBRANCH 16 17
ENDBRANCH 13 16
ENDBRANCH 10 12
ENDBRANCH 7 10
ENDBRANCH 1 6
BRANCH 1 19
ATOM     19  N   LEU B   3     -16.396 -25.742  40.160  1.00 80.50 LIG-0.35  N 
ATOM     20  C   ALA B   2     -17.036 -24.655  40.639  1.00 80.42 LIG 0.24  C 
ATOM     21 O    ALA B   2     -18.221 -24.686  41.069  1.00 80.43 LIG-0.27  OA
ATOM     22 H    LEU B   3     -15.808 -25.711  39.532  1.00 80.50 LIG 0.16  HD
BRANCH 20 23
ATOM     23  CA  ALA B   2     -16.319 -23.321  40.413  1.00 80.35 LIG 0.17  C 
ATOM     24  CB  ALA B   2     -15.411 -23.000  41.577  1.00 80.34 LIG 0.04  C 
BRANCH 23 25
ATOM     25  N   ALA B   2     -17.330 -22.269  40.258  1.00 80.28 LIG-0.35  N 
ATOM     26 H    ALA B   2     -17.336 -21.702  40.905  1.00 80.28 LIG 0.16  HD
ATOM     27  C   GLY B   1     -18.161 -22.191  39.220  1.00 80.20 LIG 0.24  C 
ATOM     28 O    GLY B   1     -18.195 -23.016  38.308  1.00 80.22 LIG-0.27  OA
BRANCH 27 29
ATOM     29  CA  GLY B   1     -19.095 -21.000  39.213  1.00 80.17 LIG 0.33  C 
BRANCH 29 30
ATOM     30  N   GLY B   1     -20.370 -21.253  38.479  1.00 80.00 LIG-0.07  N 
ATOM     31 H3   GLY B   1     -20.371 -22.086  38.165  1.00 80.00 LIG 0.27  HD
ATOM     32 H2   GLY B   1     -20.441 -20.681  37.800  1.00 80.00 LIG 0.27  HD
ATOM     33 H1   GLY B   1     -21.059 -21.144  39.032  1.00 80.00 LIG 0.27  HD
ENDBRANCH 29 30
ENDBRANCH 27 29
ENDBRANCH 23 25
ENDBRANCH 20 23
ENDBRANCH 1 19
TORSDOF 12
ENDMDL
