MODEL 1
USER: ADFR SOLUTION from run 111
USER: SCORE 14.308108 LL:  -1.003 LR: -13.305 RR:   0.000 FEB: -11.217
USER: RMSD 3.579968
USER: SEED 110
USER: STATUS no improvement in best 4 clusters for 5 generations
USER: GENES 9
USER: genes 0 Translation |==|  0.44470 0.49094 0.60248
USER: genes 1 Rotation |==|  0.54623 0.42897 0.20505 0.89474
USER: genes 2 Torsion [C]-CA--N-[C] |==|  0.18165
USER: genes 3 Torsion [N]-C--CA-[N] |==|  0.97510
USER: genes 4 Torsion [C]-CA--N-[H1] |==|  0.49833
USER: genes 5 Torsion [N]-CA--C-[O] |==|  0.72439
USER: genes 6 Torsion [N]-CA--CB-[CG] |==|  0.63331
USER: genes 7 Torsion [CA]-CB--CG-[CD1] |==|  0.35702
USER: genes 8 Torsion [CE1]-CZ--OH-[HH] |==|  0.48795
ROOT
ATOM      1  CA  TYR A 502      -3.859  29.428  -6.596  1.00 10.00 LIG 0.19  C 
ENDROOT
BRANCH 1 2
ATOM      2  N   TYR A 502      -4.227  30.381  -5.543  1.00 10.00 LIG-0.34  N 
ATOM      3  C   GLY A 501      -3.322  30.840  -4.697  1.00 10.00 LIG 0.24  C 
ATOM      4 O    GLY A 501      -2.135  30.479  -4.692  1.00 10.00 LIG-0.27  OA
ATOM      5 H    TYR A 502      -5.058  30.602  -5.531  1.00 10.00 LIG 0.16  HD
BRANCH 3 6
ATOM      6  CA  GLY A 501      -3.831  31.870  -3.693  1.00 10.00 LIG 0.33  C 
BRANCH 6 7
ATOM      7  N   GLY A 501      -5.200  32.274  -4.049  1.00 10.00 LIG-0.07  N 
ATOM      8 H1   GLY A 501      -5.498  32.868  -3.457  1.00 10.00 LIG 0.27  HD
ATOM      9 H2   GLY A 501      -5.201  32.638  -4.861  1.00 10.00 LIG 0.27  HD
ATOM     10 H3   GLY A 501      -5.731  31.559  -4.044  1.00 10.00 LIG 0.27  HD
ENDBRANCH 6 7
ENDBRANCH 3 6
ENDBRANCH 1 2
BRANCH 1 11
ATOM     11  C   TYR A 502      -3.453  28.200  -5.774  1.00 10.00 LIG 0.20  C 
ATOM     12 O    TYR A 502      -2.259  27.952  -5.545  1.00 10.00 LIG-0.65  OA
ATOM     13 OXT  TYR A 502      -4.450  27.450  -5.343  1.00 10.00 LIG-0.65  OA
ENDBRANCH 1 11
BRANCH 1 14
ATOM     14  CB  TYR A 502      -2.750  30.049  -7.467  1.00 10.00 LIG 0.07  C 
BRANCH 14 15
ATOM     15  CG  TYR A 502      -3.031  29.926  -8.970  1.00 10.00 LIG-0.06  A 
ATOM     16  CD1 TYR A 502      -2.951  31.093  -9.750  1.00 10.00 LIG 0.01  A 
ATOM     17  CE1 TYR A 502      -3.227  30.989 -11.175  1.00 10.00 LIG 0.04  A 
ATOM     18  CZ  TYR A 502      -3.619  29.801 -11.690  1.00 10.00 LIG 0.07  A 
ATOM     19  CE2 TYR A 502      -3.699  28.627 -10.930  1.00 10.00 LIG 0.04  A 
ATOM     20  CD2 TYR A 502      -3.425  28.739  -9.536  1.00 10.00 LIG 0.01  A 
BRANCH 18 21
ATOM     21 OH   TYR A 502      -3.904  29.706 -13.034  1.00 10.00 LIG-0.36  OA
ATOM     22 HH   TYR A 502      -4.075  28.908 -13.229  1.00 10.00 LIG 0.22  HD
ENDBRANCH 18 21
ENDBRANCH 14 15
ENDBRANCH 1 14
TORSDOF 7
ENDMDL
MODEL 2
USER: ADFR SOLUTION from run 120
USER: SCORE 14.229949 LL:  -1.074 LR: -13.156 RR:   0.000 FEB: -11.068
USER: RMSD 8.584503
USER: SEED 119
USER: STATUS no improvement in best 5 clusters for 5 generations
USER: GENES 9
USER: genes 0 Translation |==|  0.46252 0.51194 0.65563
USER: genes 1 Rotation |==|  0.11691 0.80414 0.39762 0.51621
USER: genes 2 Torsion [C]-CA--N-[C] |==|  0.79909
USER: genes 3 Torsion [N]-C--CA-[N] |==|  0.16393
USER: genes 4 Torsion [C]-CA--N-[H1] |==|  0.44886
USER: genes 5 Torsion [N]-CA--C-[O] |==|  0.76820
USER: genes 6 Torsion [N]-CA--CB-[CG] |==|  0.69558
USER: genes 7 Torsion [CA]-CB--CG-[CD1] |==|  0.28613
USER: genes 8 Torsion [CE1]-CZ--OH-[HH] |==|  0.38174
ROOT
ATOM      1  CA  TYR A 502      -3.324  30.058  -5.001  1.00 10.00 LIG 0.19  C 
ENDROOT
BRANCH 1 2
ATOM      2  N   TYR A 502      -3.328  30.602  -6.364  1.00 10.00 LIG-0.34  N 
ATOM      3  C   GLY A 501      -2.212  30.675  -7.066  1.00 10.00 LIG 0.24  C 
ATOM      4 O    GLY A 501      -1.097  30.348  -6.630  1.00 10.00 LIG-0.27  OA
ATOM      5 H    TYR A 502      -4.098  30.857  -6.648  1.00 10.00 LIG 0.16  HD
BRANCH 3 6
ATOM      6  CA  GLY A 501      -2.370  31.203  -8.490  1.00 10.00 LIG 0.33  C 
BRANCH 6 7
ATOM      7  N   GLY A 501      -2.950  32.555  -8.453  1.00 10.00 LIG-0.07  N 
ATOM      8 H1   GLY A 501      -2.800  32.964  -9.230  1.00 10.00 LIG 0.27  HD
ATOM      9 H2   GLY A 501      -3.828  32.499  -8.313  1.00 10.00 LIG 0.27  HD
ATOM     10 H3   GLY A 501      -2.574  33.022  -7.795  1.00 10.00 LIG 0.27  HD
ENDBRANCH 6 7
ENDBRANCH 3 6
ENDBRANCH 1 2
BRANCH 1 11
ATOM     11  C   TYR A 502      -3.116  28.563  -5.264  1.00 10.00 LIG 0.20  C 
ATOM     12 O    TYR A 502      -4.073  27.825  -5.545  1.00 10.00 LIG-0.65  OA
ATOM     13 OXT  TYR A 502      -1.870  28.138  -5.170  1.00 10.00 LIG-0.65  OA
ENDBRANCH 1 11
BRANCH 1 14
ATOM     14  CB  TYR A 502      -4.647  30.440  -4.307  1.00 10.00 LIG 0.07  C 
BRANCH 14 15
ATOM     15  CG  TYR A 502      -4.460  31.484  -3.199  1.00 10.00 LIG-0.06  A 
ATOM     16  CD1 TYR A 502      -4.824  32.812  -3.483  1.00 10.00 LIG 0.01  A 
ATOM     17  CE1 TYR A 502      -4.641  33.814  -2.443  1.00 10.00 LIG 0.04  A 
ATOM     18  CZ  TYR A 502      -4.065  33.456  -1.272  1.00 10.00 LIG 0.07  A 
ATOM     19  CE2 TYR A 502      -3.701  32.139  -0.969  1.00 10.00 LIG 0.04  A 
ATOM     20  CD2 TYR A 502      -3.886  31.165  -1.994  1.00 10.00 LIG 0.01  A 
BRANCH 18 21
ATOM     21 OH   TYR A 502      -3.868  34.408  -0.296  1.00 10.00 LIG-0.36  OA
ATOM     22 HH   TYR A 502      -4.074  34.088   0.453  1.00 10.00 LIG 0.22  HD
ENDBRANCH 18 21
ENDBRANCH 14 15
ENDBRANCH 1 14
TORSDOF 7
ENDMDL
MODEL 3
USER: ADFR SOLUTION from run 151
USER: SCORE 14.087928 LL:  -1.277 LR: -12.811 RR:   0.000 FEB: -10.723
USER: RMSD 7.649000
USER: SEED 150
USER: STATUS no improvement in best 7 clusters for 5 generations
USER: GENES 9
USER: genes 0 Translation |==|  0.52625 0.49236 0.61605
USER: genes 1 Rotation |==|  0.72527 0.10719 0.48352 0.71138
USER: genes 2 Torsion [C]-CA--N-[C] |==|  0.55618
USER: genes 3 Torsion [N]-C--CA-[N] |==|  0.20718
USER: genes 4 Torsion [C]-CA--N-[H1] |==|  0.57631
USER: genes 5 Torsion [N]-CA--C-[O] |==|  0.06790
USER: genes 6 Torsion [N]-CA--CB-[CG] |==|  0.24551
USER: genes 7 Torsion [CA]-CB--CG-[CD1] |==|  0.34660
USER: genes 8 Torsion [CE1]-CZ--OH-[HH] |==|  0.45448
ROOT
ATOM      1  CA  TYR A 502      -1.412  29.471  -6.188  1.00 10.00 LIG 0.19  C 
ENDROOT
BRANCH 1 2
ATOM      2  N   TYR A 502      -2.174  29.910  -7.363  1.00 10.00 LIG-0.34  N 
ATOM      3  C   GLY A 501      -1.575  30.517  -8.371  1.00 10.00 LIG 0.24  C 
ATOM      4 O    GLY A 501      -0.367  30.800  -8.388  1.00 10.00 LIG-0.27  OA
ATOM      5 H    TYR A 502      -3.016  29.740  -7.330  1.00 10.00 LIG 0.16  HD
BRANCH 3 6
ATOM      6  CA  GLY A 501      -2.476  30.864  -9.553  1.00 10.00 LIG 0.33  C 
BRANCH 6 7
ATOM      7  N   GLY A 501      -3.325  32.014  -9.206  1.00 10.00 LIG-0.07  N 
ATOM      8 H1   GLY A 501      -4.081  31.978  -9.674  1.00 10.00 LIG 0.27  HD
ATOM      9 H2   GLY A 501      -3.514  31.993  -8.336  1.00 10.00 LIG 0.27  HD
ATOM     10 H3   GLY A 501      -2.894  32.769  -9.396  1.00 10.00 LIG 0.27  HD
ENDBRANCH 6 7
ENDBRANCH 3 6
ENDBRANCH 1 2
BRANCH 1 11
ATOM     11  C   TYR A 502      -2.349  28.417  -5.588  1.00 10.00 LIG 0.20  C 
ATOM     12 O    TYR A 502      -3.180  27.825  -6.293  1.00 10.00 LIG-0.65  OA
ATOM     13 OXT  TYR A 502      -2.201  28.197  -4.294  1.00 10.00 LIG-0.65  OA
ENDBRANCH 1 11
BRANCH 1 14
ATOM     14  CB  TYR A 502      -1.118  30.693  -5.296  1.00 10.00 LIG 0.07  C 
BRANCH 14 15
ATOM     15  CG  TYR A 502      -2.229  30.970  -4.276  1.00 10.00 LIG-0.06  A 
ATOM     16  CD1 TYR A 502      -1.870  31.039  -2.919  1.00 10.00 LIG 0.01  A 
ATOM     17  CE1 TYR A 502      -2.918  31.290  -1.941  1.00 10.00 LIG 0.04  A 
ATOM     18  CZ  TYR A 502      -4.204  31.377  -2.354  1.00 10.00 LIG 0.07  A 
ATOM     19  CE2 TYR A 502      -4.580  31.316  -3.702  1.00 10.00 LIG 0.04  A 
ATOM     20  CD2 TYR A 502      -3.545  31.072  -4.652  1.00 10.00 LIG 0.01  A 
BRANCH 18 21
ATOM     21 OH   TYR A 502      -5.200  31.590  -1.428  1.00 10.00 LIG-0.36  OA
ATOM     22 HH   TYR A 502      -5.898  31.844  -1.820  1.00 10.00 LIG 0.22  HD
ENDBRANCH 18 21
ENDBRANCH 14 15
ENDBRANCH 1 14
TORSDOF 7
ENDMDL
MODEL 4
USER: ADFR SOLUTION from run 46
USER: SCORE 13.527763 LL:  -1.142 LR: -12.386 RR:   0.000 FEB: -10.298
USER: RMSD 3.784771
USER: SEED 45
USER: STATUS no improvement in best 5 clusters for 5 generations
USER: GENES 9
USER: genes 0 Translation |==|  0.47160 0.48496 0.58403
USER: genes 1 Rotation |==|  0.37748 0.40160 0.20201 0.86947
USER: genes 2 Torsion [C]-CA--N-[C] |==|  0.81993
USER: genes 3 Torsion [N]-C--CA-[N] |==|  0.25563
USER: genes 4 Torsion [C]-CA--N-[H1] |==|  0.89268
USER: genes 5 Torsion [N]-CA--C-[O] |==|  0.82001
USER: genes 6 Torsion [N]-CA--CB-[CG] |==|  0.95360
USER: genes 7 Torsion [CA]-CB--CG-[CD1] |==|  0.31918
USER: genes 8 Torsion [CE1]-CZ--OH-[HH] |==|  0.82410
ROOT
ATOM      1  CA  TYR A 502      -3.052  29.249  -7.149  1.00 10.00 LIG 0.19  C 
ENDROOT
BRANCH 1 2
ATOM      2  N   TYR A 502      -2.975  30.669  -6.790  1.00 10.00 LIG-0.34  N 
ATOM      3  C   GLY A 501      -3.700  31.157  -5.800  1.00 10.00 LIG 0.24  C 
ATOM      4 O    GLY A 501      -4.516  30.490  -5.145  1.00 10.00 LIG-0.27  OA
ATOM      5 H    TYR A 502      -2.432  31.133  -7.268  1.00 10.00 LIG 0.16  HD
BRANCH 3 6
ATOM      6  CA  GLY A 501      -3.476  32.636  -5.494  1.00 10.00 LIG 0.33  C 
BRANCH 6 7
ATOM      7  N   GLY A 501      -4.436  33.449  -6.257  1.00 10.00 LIG-0.07  N 
ATOM      8 H1   GLY A 501      -4.543  33.099  -7.069  1.00 10.00 LIG 0.27  HD
ATOM      9 H2   GLY A 501      -5.219  33.461  -5.834  1.00 10.00 LIG 0.27  HD
ATOM     10 H3   GLY A 501      -4.127  34.281  -6.332  1.00 10.00 LIG 0.27  HD
ENDBRANCH 6 7
ENDBRANCH 3 6
ENDBRANCH 1 2
BRANCH 1 11
ATOM     11  C   TYR A 502      -2.492  28.580  -5.889  1.00 10.00 LIG 0.20  C 
ATOM     12 O    TYR A 502      -1.313  28.753  -5.545  1.00 10.00 LIG-0.65  OA
ATOM     13 OXT  TYR A 502      -3.345  27.825  -5.221  1.00 10.00 LIG-0.65  OA
ENDBRANCH 1 11
BRANCH 1 14
ATOM     14  CB  TYR A 502      -2.251  29.016  -8.445  1.00 10.00 LIG 0.07  C 
BRANCH 14 15
ATOM     15  CG  TYR A 502      -1.957  30.314  -9.207  1.00 10.00 LIG-0.06  A 
ATOM     16  CD1 TYR A 502      -0.615  30.715  -9.327  1.00 10.00 LIG 0.01  A 
ATOM     17  CE1 TYR A 502      -0.325  31.951 -10.038  1.00 10.00 LIG 0.04  A 
ATOM     18  CZ  TYR A 502      -1.349  32.708 -10.497  1.00 10.00 LIG 0.07  A 
ATOM     19  CE2 TYR A 502      -2.692  32.323 -10.391  1.00 10.00 LIG 0.04  A 
ATOM     20  CD2 TYR A 502      -2.964  31.109  -9.694  1.00 10.00 LIG 0.01  A 
BRANCH 18 21
ATOM     21 OH   TYR A 502      -1.078  33.890 -11.149  1.00 10.00 LIG-0.36  OA
ATOM     22 HH   TYR A 502      -0.696  34.420 -10.621  1.00 10.00 LIG 0.22  HD
ENDBRANCH 18 21
ENDBRANCH 14 15
ENDBRANCH 1 14
TORSDOF 7
ENDMDL
MODEL 5
USER: ADFR SOLUTION from run 77
USER: SCORE 13.291669 LL:  -1.043 LR: -12.248 RR:   0.000 FEB: -10.160
USER: RMSD 4.467156
USER: SEED 76
USER: STATUS no improvement in best 5 clusters for 5 generations
USER: GENES 9
USER: genes 0 Translation |==|  0.44658 0.50150 0.63659
USER: genes 1 Rotation |==|  0.65921 0.45546 0.20098 0.86504
USER: genes 2 Torsion [C]-CA--N-[C] |==|  0.19603
USER: genes 3 Torsion [N]-C--CA-[N] |==|  0.83102
USER: genes 4 Torsion [C]-CA--N-[H1] |==|  0.77016
USER: genes 5 Torsion [N]-CA--C-[O] |==|  0.19374
USER: genes 6 Torsion [N]-CA--CB-[CG] |==|  0.50808
USER: genes 7 Torsion [CA]-CB--CG-[CD1] |==|  0.24156
USER: genes 8 Torsion [CE1]-CZ--OH-[HH] |==|  0.46276
ROOT
ATOM      1  CA  TYR A 502      -3.803  29.745  -5.572  1.00 10.00 LIG 0.19  C 
ENDROOT
BRANCH 1 2
ATOM      2  N   TYR A 502      -4.401  30.186  -4.308  1.00 10.00 LIG-0.34  N 
ATOM      3  C   GLY A 501      -3.669  30.298  -3.214  1.00 10.00 LIG 0.24  C 
ATOM      4 O    GLY A 501      -2.465  30.003  -3.155  1.00 10.00 LIG-0.27  OA
ATOM      5 H    TYR A 502      -5.243  30.358  -4.348  1.00 10.00 LIG 0.16  HD
BRANCH 3 6
ATOM      6  CA  GLY A 501      -4.406  30.825  -1.986  1.00 10.00 LIG 0.33  C 
BRANCH 6 7
ATOM      7  N   GLY A 501      -4.921  32.175  -2.261  1.00 10.00 LIG-0.07  N 
ATOM      8 H1   GLY A 501      -4.275  32.773  -2.130  1.00 10.00 LIG 0.27  HD
ATOM      9 H2   GLY A 501      -5.200  32.221  -3.106  1.00 10.00 LIG 0.27  HD
ATOM     10 H3   GLY A 501      -5.602  32.350  -1.715  1.00 10.00 LIG 0.27  HD
ENDBRANCH 6 7
ENDBRANCH 3 6
ENDBRANCH 1 2
BRANCH 1 11
ATOM     11  C   TYR A 502      -3.522  28.267  -5.284  1.00 10.00 LIG 0.20  C 
ATOM     12 O    TYR A 502      -4.450  27.451  -5.170  1.00 10.00 LIG-0.65  OA
ATOM     13 OXT  TYR A 502      -2.247  27.943  -5.170  1.00 10.00 LIG-0.65  OA
ENDBRANCH 1 11
BRANCH 1 14
ATOM     14  CB  TYR A 502      -2.567  30.617  -5.872  1.00 10.00 LIG 0.07  C 
BRANCH 14 15
ATOM     15  CG  TYR A 502      -1.909  30.278  -7.216  1.00 10.00 LIG-0.06  A 
ATOM     16  CD1 TYR A 502      -2.399  30.921  -8.365  1.00 10.00 LIG 0.01  A 
ATOM     17  CE1 TYR A 502      -1.790  30.600  -9.647  1.00 10.00 LIG 0.04  A 
ATOM     18  CZ  TYR A 502      -0.829  29.649  -9.705  1.00 10.00 LIG 0.07  A 
ATOM     19  CE2 TYR A 502      -0.325  29.001  -8.570  1.00 10.00 LIG 0.04  A 
ATOM     20  CD2 TYR A 502      -0.927  29.325  -7.319  1.00 10.00 LIG 0.01  A 
BRANCH 18 21
ATOM     21 OH   TYR A 502      -0.268  29.325 -10.921  1.00 10.00 LIG-0.36  OA
ATOM     22 HH   TYR A 502       0.425  28.868 -10.797  1.00 10.00 LIG 0.22  HD
ENDBRANCH 18 21
ENDBRANCH 14 15
ENDBRANCH 1 14
TORSDOF 7
ENDMDL
MODEL 6
USER: ADFR SOLUTION from run 117
USER: SCORE 13.158862 LL:  -1.167 LR: -11.992 RR:   0.000 FEB:  -9.904
USER: RMSD 8.134575
USER: SEED 116
USER: STATUS no improvement in best 5 clusters for 5 generations
USER: GENES 9
USER: genes 0 Translation |==|  0.45302 0.49964 0.62576
USER: genes 1 Rotation |==|  0.87998 0.22029 0.58205 0.64369
USER: genes 2 Torsion [C]-CA--N-[C] |==|  0.79554
USER: genes 3 Torsion [N]-C--CA-[N] |==|  0.19385
USER: genes 4 Torsion [C]-CA--N-[H1] |==|  0.72286
USER: genes 5 Torsion [N]-CA--C-[O] |==|  0.85032
USER: genes 6 Torsion [N]-CA--CB-[CG] |==|  0.54298
USER: genes 7 Torsion [CA]-CB--CG-[CD1] |==|  0.00369
USER: genes 8 Torsion [CE1]-CZ--OH-[HH] |==|  0.25407
ROOT
ATOM      1  CA  TYR A 502      -3.609  29.689  -5.897  1.00 10.00 LIG 0.19  C 
ENDROOT
BRANCH 1 2
ATOM      2  N   TYR A 502      -4.231  29.599  -7.223  1.00 10.00 LIG-0.34  N 
ATOM      3  C   GLY A 501      -3.531  29.214  -8.274  1.00 10.00 LIG 0.24  C 
ATOM      4 O    GLY A 501      -2.318  28.951  -8.239  1.00 10.00 LIG-0.27  OA
ATOM      5 H    TYR A 502      -5.063  29.814  -7.246  1.00 10.00 LIG 0.16  HD
BRANCH 3 6
ATOM      6  CA  GLY A 501      -4.317  29.106  -9.578  1.00 10.00 LIG 0.33  C 
BRANCH 6 7
ATOM      7  N   GLY A 501      -4.691  30.451 -10.042  1.00 10.00 LIG-0.07  N 
ATOM      8 H1   GLY A 501      -5.537  30.618  -9.820  1.00 10.00 LIG 0.27  HD
ATOM      9 H2   GLY A 501      -4.160  31.056  -9.661  1.00 10.00 LIG 0.27  HD
ATOM     10 H3   GLY A 501      -4.603  30.495 -10.927  1.00 10.00 LIG 0.27  HD
ENDBRANCH 6 7
ENDBRANCH 3 6
ENDBRANCH 1 2
BRANCH 1 11
ATOM     11  C   TYR A 502      -3.470  28.211  -5.519  1.00 10.00 LIG 0.20  C 
ATOM     12 O    TYR A 502      -4.450  27.450  -5.545  1.00 10.00 LIG-0.65  OA
ATOM     13 OXT  TYR A 502      -2.255  27.825  -5.174  1.00 10.00 LIG-0.65  OA
ENDBRANCH 1 11
BRANCH 1 14
ATOM     14  CB  TYR A 502      -4.512  30.535  -4.977  1.00 10.00 LIG 0.07  C 
BRANCH 14 15
ATOM     15  CG  TYR A 502      -3.795  31.006  -3.705  1.00 10.00 LIG-0.06  A 
ATOM     16  CD1 TYR A 502      -2.445  30.652  -3.546  1.00 10.00 LIG 0.01  A 
ATOM     17  CE1 TYR A 502      -1.757  31.084  -2.338  1.00 10.00 LIG 0.04  A 
ATOM     18  CZ  TYR A 502      -2.450  31.744  -1.381  1.00 10.00 LIG 0.07  A 
ATOM     19  CE2 TYR A 502      -3.794  32.110  -1.524  1.00 10.00 LIG 0.04  A 
ATOM     20  CD2 TYR A 502      -4.457  31.683  -2.712  1.00 10.00 LIG 0.01  A 
BRANCH 18 21
ATOM     21 OH   TYR A 502      -1.808  32.133  -0.226  1.00 10.00 LIG-0.36  OA
ATOM     22 HH   TYR A 502      -1.504  32.909  -0.322  1.00 10.00 LIG 0.22  HD
ENDBRANCH 18 21
ENDBRANCH 14 15
ENDBRANCH 1 14
TORSDOF 7
ENDMDL
MODEL 7
USER: ADFR SOLUTION from run 133
USER: SCORE 12.894620 LL:  -1.139 LR: -11.756 RR:   0.000 FEB:  -9.667
USER: RMSD 7.280734
USER: SEED 132
USER: STATUS no improvement in best 5 clusters for 5 generations
USER: GENES 9
USER: genes 0 Translation |==|  0.47974 0.51322 0.62314
USER: genes 1 Rotation |==|  0.88081 0.18626 0.58001 0.51218
USER: genes 2 Torsion [C]-CA--N-[C] |==|  0.78159
USER: genes 3 Torsion [N]-C--CA-[N] |==|  0.00412
USER: genes 4 Torsion [C]-CA--N-[H1] |==|  0.54418
USER: genes 5 Torsion [N]-CA--C-[O] |==|  0.05239
USER: genes 6 Torsion [N]-CA--CB-[CG] |==|  0.81268
USER: genes 7 Torsion [CA]-CB--CG-[CD1] |==|  0.60060
USER: genes 8 Torsion [CE1]-CZ--OH-[HH] |==|  0.12924
ROOT
ATOM      1  CA  TYR A 502      -2.808  30.097  -5.976  1.00 10.00 LIG 0.19  C 
ENDROOT
BRANCH 1 2
ATOM      2  N   TYR A 502      -2.969  30.611  -7.340  1.00 10.00 LIG-0.34  N 
ATOM      3  C   GLY A 501      -1.931  30.722  -8.149  1.00 10.00 LIG 0.24  C 
ATOM      4 O    GLY A 501      -0.765  30.455  -7.819  1.00 10.00 LIG-0.27  OA
ATOM      5 H    TYR A 502      -3.774  30.825  -7.552  1.00 10.00 LIG 0.16  HD
BRANCH 3 6
ATOM      6  CA  GLY A 501      -2.252  31.213  -9.559  1.00 10.00 LIG 0.33  C 
BRANCH 6 7
ATOM      7  N   GLY A 501      -3.693  31.488  -9.670  1.00 10.00 LIG-0.07  N 
ATOM      8 H1   GLY A 501      -3.919  31.548 -10.530  1.00 10.00 LIG 0.27  HD
ATOM      9 H2   GLY A 501      -4.152  30.827  -9.289  1.00 10.00 LIG 0.27  HD
ATOM     10 H3   GLY A 501      -3.881  32.255  -9.260  1.00 10.00 LIG 0.27  HD
ENDBRANCH 6 7
ENDBRANCH 3 6
ENDBRANCH 1 2
BRANCH 1 11
ATOM     11  C   TYR A 502      -2.718  28.587  -6.223  1.00 10.00 LIG 0.20  C 
ATOM     12 O    TYR A 502      -2.440  28.139  -7.346  1.00 10.00 LIG-0.65  OA
ATOM     13 OXT  TYR A 502      -2.954  27.825  -5.170  1.00 10.00 LIG-0.65  OA
ENDBRANCH 1 11
BRANCH 1 14
ATOM     14  CB  TYR A 502      -4.000  30.567  -5.119  1.00 10.00 LIG 0.07  C 
BRANCH 14 15
ATOM     15  CG  TYR A 502      -4.009  32.083  -4.889  1.00 10.00 LIG-0.06  A 
ATOM     16  CD1 TYR A 502      -4.450  32.554  -3.640  1.00 10.00 LIG 0.01  A 
ATOM     17  CE1 TYR A 502      -4.474  33.991  -3.414  1.00 10.00 LIG 0.04  A 
ATOM     18  CZ  TYR A 502      -4.142  34.827  -4.426  1.00 10.00 LIG 0.07  A 
ATOM     19  CE2 TYR A 502      -3.695  34.377  -5.674  1.00 10.00 LIG 0.04  A 
ATOM     20  CD2 TYR A 502      -3.674  32.967  -5.884  1.00 10.00 LIG 0.01  A 
BRANCH 18 21
ATOM     21 OH   TYR A 502      -4.187  36.188  -4.222  1.00 10.00 LIG-0.36  OA
ATOM     22 HH   TYR A 502      -3.812  36.375  -3.494  1.00 10.00 LIG 0.22  HD
ENDBRANCH 18 21
ENDBRANCH 14 15
ENDBRANCH 1 14
TORSDOF 7
ENDMDL
MODEL 8
USER: ADFR SOLUTION from run 122
USER: SCORE 13.042342 LL:  -1.314 LR: -11.728 RR:   0.000 FEB:  -9.640
USER: RMSD 7.969342
USER: SEED 121
USER: STATUS no improvement in best 6 clusters for 5 generations
USER: GENES 9
USER: genes 0 Translation |==|  0.51972 0.50333 0.62608
USER: genes 1 Rotation |==|  0.77834 0.12540 0.52018 0.67831
USER: genes 2 Torsion [C]-CA--N-[C] |==|  0.62828
USER: genes 3 Torsion [N]-C--CA-[N] |==|  0.17728
USER: genes 4 Torsion [C]-CA--N-[H1] |==|  0.61449
USER: genes 5 Torsion [N]-CA--C-[O] |==|  0.05209
USER: genes 6 Torsion [N]-CA--CB-[CG] |==|  0.52683
USER: genes 7 Torsion [CA]-CB--CG-[CD1] |==|  0.20405
USER: genes 8 Torsion [CE1]-CZ--OH-[HH] |==|  0.53940
ROOT
ATOM      1  CA  TYR A 502      -1.608  29.800  -5.888  1.00 10.00 LIG 0.19  C 
ENDROOT
BRANCH 1 2
ATOM      2  N   TYR A 502      -2.286  30.097  -7.154  1.00 10.00 LIG-0.34  N 
ATOM      3  C   GLY A 501      -1.595  30.431  -8.229  1.00 10.00 LIG 0.24  C 
ATOM      4 O    GLY A 501      -0.362  30.565  -8.245  1.00 10.00 LIG-0.27  OA
ATOM      5 H    TYR A 502      -3.142  30.034  -7.128  1.00 10.00 LIG 0.16  HD
BRANCH 3 6
ATOM      6  CA  GLY A 501      -2.422  30.653  -9.493  1.00 10.00 LIG 0.33  C 
BRANCH 6 7
ATOM      7  N   GLY A 501      -3.325  31.798  -9.298  1.00 10.00 LIG-0.07  N 
ATOM      8 H1   GLY A 501      -4.122  31.611  -9.649  1.00 10.00 LIG 0.27  HD
ATOM      9 H2   GLY A 501      -3.415  31.961  -8.427  1.00 10.00 LIG 0.27  HD
ATOM     10 H3   GLY A 501      -2.985  32.516  -9.700  1.00 10.00 LIG 0.27  HD
ENDBRANCH 6 7
ENDBRANCH 3 6
ENDBRANCH 1 2
BRANCH 1 11
ATOM     11  C   TYR A 502      -2.317  28.513  -5.452  1.00 10.00 LIG 0.20  C 
ATOM     12 O    TYR A 502      -2.950  27.825  -6.267  1.00 10.00 LIG-0.65  OA
ATOM     13 OXT  TYR A 502      -2.200  28.206  -4.173  1.00 10.00 LIG-0.65  OA
ENDBRANCH 1 11
BRANCH 1 14
ATOM     14  CB  TYR A 502      -1.765  31.006  -4.941  1.00 10.00 LIG 0.07  C 
BRANCH 14 15
ATOM     15  CG  TYR A 502      -0.897  30.894  -3.681  1.00 10.00 LIG-0.06  A 
ATOM     16  CD1 TYR A 502       0.487  31.093  -3.820  1.00 10.00 LIG 0.01  A 
ATOM     17  CE1 TYR A 502       1.322  30.977  -2.634  1.00 10.00 LIG 0.04  A 
ATOM     18  CZ  TYR A 502       0.758  30.616  -1.458  1.00 10.00 LIG 0.07  A 
ATOM     19  CE2 TYR A 502      -0.619  30.418  -1.299  1.00 10.00 LIG 0.04  A 
ATOM     20  CD2 TYR A 502      -1.429  30.536  -2.468  1.00 10.00 LIG 0.01  A 
BRANCH 18 21
ATOM     21 OH   TYR A 502       1.550  30.482  -0.339  1.00 10.00 LIG-0.36  OA
ATOM     22 HH   TYR A 502       1.124  30.075   0.259  1.00 10.00 LIG 0.22  HD
ENDBRANCH 18 21
ENDBRANCH 14 15
ENDBRANCH 1 14
TORSDOF 7
ENDMDL
MODEL 9
USER: ADFR SOLUTION from run 7
USER: SCORE 13.153423 LL:  -1.477 LR: -11.677 RR:   0.000 FEB:  -9.589
USER: RMSD 8.835253
USER: SEED 315470
USER: STATUS no improvement in best 6 clusters for 5 generations
USER: GENES 9
USER: genes 0 Translation |==|  0.49912 0.49664 0.67385
USER: genes 1 Rotation |==|  0.14632 0.82712 0.63149 0.52474
USER: genes 2 Torsion [C]-CA--N-[C] |==|  0.60682
USER: genes 3 Torsion [N]-C--CA-[N] |==|  0.96948
USER: genes 4 Torsion [C]-CA--N-[H1] |==|  0.96528
USER: genes 5 Torsion [N]-CA--C-[O] |==|  0.22249
USER: genes 6 Torsion [N]-CA--CB-[CG] |==|  0.90546
USER: genes 7 Torsion [CA]-CB--CG-[CD1] |==|  0.75418
USER: genes 8 Torsion [CE1]-CZ--OH-[HH] |==|  0.76383
ROOT
ATOM      1  CA  TYR A 502      -2.226  29.599  -4.455  1.00 10.00 LIG 0.19  C 
ENDROOT
BRANCH 1 2
ATOM      2  N   TYR A 502      -2.838  30.831  -4.966  1.00 10.00 LIG-0.34  N 
ATOM      3  C   GLY A 501      -2.200  31.985  -4.890  1.00 10.00 LIG 0.24  C 
ATOM      4 O    GLY A 501      -1.090  32.128  -4.355  1.00 10.00 LIG-0.27  OA
ATOM      5 H    TYR A 502      -3.620  30.730  -5.306  1.00 10.00 LIG 0.16  HD
BRANCH 3 6
ATOM      6  CA  GLY A 501      -2.926  33.174  -5.516  1.00 10.00 LIG 0.33  C 
BRANCH 6 7
ATOM      7  N   GLY A 501      -4.075  32.694  -6.299  1.00 10.00 LIG-0.07  N 
ATOM      8 H1   GLY A 501      -4.016  31.812  -6.404  1.00 10.00 LIG 0.27  HD
ATOM      9 H2   GLY A 501      -4.830  32.892  -5.871  1.00 10.00 LIG 0.27  HD
ATOM     10 H3   GLY A 501      -4.075  33.088  -7.098  1.00 10.00 LIG 0.27  HD
ENDBRANCH 6 7
ENDBRANCH 3 6
ENDBRANCH 1 2
BRANCH 1 11
ATOM     11  C   TYR A 502      -2.667  28.575  -5.506  1.00 10.00 LIG 0.20  C 
ATOM     12 O    TYR A 502      -2.073  28.479  -6.591  1.00 10.00 LIG-0.65  OA
ATOM     13 OXT  TYR A 502      -3.700  27.825  -5.170  1.00 10.00 LIG-0.65  OA
ENDBRANCH 1 11
BRANCH 1 14
ATOM     14  CB  TYR A 502      -2.732  29.347  -3.020  1.00 10.00 LIG 0.07  C 
BRANCH 14 15
ATOM     15  CG  TYR A 502      -2.969  30.643  -2.234  1.00 10.00 LIG-0.06  A 
ATOM     16  CD1 TYR A 502      -1.888  31.182  -1.517  1.00 10.00 LIG 0.01  A 
ATOM     17  CE1 TYR A 502      -2.105  32.405  -0.758  1.00 10.00 LIG 0.04  A 
ATOM     18  CZ  TYR A 502      -3.345  32.943  -0.708  1.00 10.00 LIG 0.07  A 
ATOM     19  CE2 TYR A 502      -4.434  32.423  -1.420  1.00 10.00 LIG 0.04  A 
ATOM     20  CD2 TYR A 502      -4.210  31.226  -2.161  1.00 10.00 LIG 0.01  A 
BRANCH 18 21
ATOM     21 OH   TYR A 502      -3.558  34.087   0.029  1.00 10.00 LIG-0.36  OA
ATOM     22 HH   TYR A 502      -3.700  33.881   0.830  1.00 10.00 LIG 0.22  HD
ENDBRANCH 18 21
ENDBRANCH 14 15
ENDBRANCH 1 14
TORSDOF 7
ENDMDL
