MODEL 1
USER: ADFR SOLUTION from run 142
USER: SCORE 15.218838 LL:  -1.405 LR: -14.441 RR:   0.000 FEB: -11.159
USER: RMSD 6.791262
USER: SEED 141
USER: STATUS no improvement in best 4 clusters for 5 generations
USER: GENES 13
USER: genes 0 Translation |==|  0.44466 0.52972 0.53455
USER: genes 1 Rotation |==|  0.17821 0.24627 0.46982 0.78488
USER: genes 2 Torsion [C]-N--CA-[CB] |==|  0.49446
USER: genes 3 Torsion [N]-CA--C-[N] |==|  0.36187
USER: genes 4 Torsion [C]-N--CA-[C] |==|  0.58073
USER: genes 5 Torsion [N]-CA--C-[OXT] |==|  0.71629
USER: genes 6 Torsion [N]-CA--CB-[OG] |==|  0.04173
USER: genes 7 Torsion [CA]-CB--OG-[HG] |==|  0.09720
USER: genes 8 Torsion [N]-C--CA-[N] |==|  0.91294
USER: genes 9 Torsion [C]-CA--N-[H1] |==|  0.20239
USER: genes 10 Torsion [C]-CA--CB-[CG] |==|  0.57200
USER: genes 11 Torsion [CA]-CB--CG-[SD] |==|  0.82668
USER: genes 12 Torsion [CB]-CG--SD-[CE] |==|  0.64484
ROOT
ATOM      1  C   MET F   1       0.490  62.052  80.257  1.00 63.86 LIG 0.25  C 
ATOM      2 O    MET F   1       0.275  61.577  81.377  1.00 63.40 LIG-0.27  OA
ATOM      3  N   ALA F   2       1.267  61.444  79.362  1.00107.99 LIG-0.35  N 
ATOM      4 H    ALA F   2       1.423  61.745  78.571  1.00107.99 LIG 0.16  HD
ENDROOT
BRANCH 3 5
ATOM      5  CA  ALA F   2       1.931  60.179  79.673  1.00108.71 LIG 0.17  C 
ATOM      6  CB  ALA F   2       2.718  59.677  78.462  1.00102.49 LIG 0.04  C 
BRANCH 5 7
ATOM      7  C   ALA F   2       2.859  60.279  80.875  1.00108.72 LIG 0.24  C 
ATOM      8  N   SER F   3       2.682  59.331  81.791  1.00165.57 LIG-0.34  N 
ATOM      9 H    SER F   3       2.089  58.713  81.715  1.00165.57 LIG 0.16  HD
ATOM     10 O    ALA F   2       3.703  61.175  80.963  1.00108.45 LIG-0.27  OA
BRANCH 8 11
ATOM     11  CA  SER F   3       3.467  59.232  83.014  1.00165.78 LIG 0.21  C 
BRANCH 11 12
ATOM     12  C   SER F   3       3.601  57.796  83.518  1.00165.56 LIG 0.20  C 
ATOM     13 O    SER F   3       4.446  57.037  83.039  1.00164.94 LIG-0.65  OA
ATOM     14 OXT  SER F   3       2.900  57.410  84.470  1.00118.74 LIG-0.65  OA
ENDBRANCH 11 12
BRANCH 11 15
ATOM     15  CB  SER F   3       2.833  60.113  84.094  1.00113.97 LIG 0.20  C 
BRANCH 15 16
ATOM     16 OG   SER F   3       1.509  60.494  83.737  1.00114.22 LIG-0.40  OA
ATOM     17 HG   SER F   3       1.140  59.866  83.319  1.00114.22 LIG 0.21  HD
ENDBRANCH 15 16
ENDBRANCH 11 15
ENDBRANCH 8 11
ENDBRANCH 5 7
ENDBRANCH 3 5
BRANCH 1 18
ATOM     18  CA  MET F   1      -0.165  63.373  79.814  1.00 62.90 LIG 0.28  C 
BRANCH 18 19
ATOM     19  N   MET F   1       0.608  64.161  78.864  1.00 61.98 LIG-0.07  N 
ATOM     20 H1   MET F   1       0.586  63.769  78.065  1.00 61.98 LIG 0.28  HD
ATOM     21 H2   MET F   1       0.260  64.979  78.803  1.00 61.98 LIG 0.28  HD
ATOM     22 H3   MET F   1       1.451  64.218  79.142  1.00 61.98 LIG 0.28  HD
ENDBRANCH 18 19
BRANCH 18 23
ATOM     23  CB  MET F   1      -1.564  63.095  79.249  1.00 75.38 LIG 0.05  C 
BRANCH 23 24
ATOM     24  CG  MET F   1      -2.054  64.140  78.243  1.00 74.73 LIG 0.08  C 
BRANCH 24 25
ATOM     25 SD   MET F   1      -2.227  65.819  78.952  1.00 74.60 LIG-0.17  SA
ATOM     26  CE  MET F   1      -3.868  66.232  78.494  1.00 70.92 LIG 0.09  C 
ENDBRANCH 24 25
ENDBRANCH 23 24
ENDBRANCH 18 23
ENDBRANCH 1 18
TORSDOF 11
ENDMDL
MODEL 2
USER: ADFR SOLUTION from run 13
USER: SCORE 15.356277 LL:  -1.590 LR: -14.346 RR:   0.000 FEB: -11.065
USER: RMSD 6.327400
USER: SEED 64079
USER: STATUS no improvement in best 2 clusters for 5 generations
USER: GENES 13
USER: genes 0 Translation |==|  0.44207 0.52527 0.53792
USER: genes 1 Rotation |==|  0.19118 0.23872 0.48614 0.79355
USER: genes 2 Torsion [C]-N--CA-[CB] |==|  0.50569
USER: genes 3 Torsion [N]-CA--C-[N] |==|  0.35489
USER: genes 4 Torsion [C]-N--CA-[C] |==|  0.56937
USER: genes 5 Torsion [N]-CA--C-[OXT] |==|  0.21147
USER: genes 6 Torsion [N]-CA--CB-[OG] |==|  0.02598
USER: genes 7 Torsion [CA]-CB--OG-[HG] |==|  0.21330
USER: genes 8 Torsion [N]-C--CA-[N] |==|  0.25943
USER: genes 9 Torsion [C]-CA--N-[H1] |==|  0.62886
USER: genes 10 Torsion [C]-CA--CB-[CG] |==|  0.07121
USER: genes 11 Torsion [CA]-CB--CG-[SD] |==|  0.59190
USER: genes 12 Torsion [CB]-CG--SD-[CE] |==|  0.22634
ROOT
ATOM      1  C   MET F   1       0.412  61.918  80.358  1.00 63.86 LIG 0.25  C 
ATOM      2 O    MET F   1       0.283  61.410  81.476  1.00 63.40 LIG-0.27  OA
ATOM      3  N   ALA F   2       1.202  61.392  79.422  1.00107.99 LIG-0.35  N 
ATOM      4 H    ALA F   2       1.300  61.718  78.632  1.00107.99 LIG 0.16  HD
ENDROOT
BRANCH 3 5
ATOM      5  CA  ALA F   2       1.982  60.185  79.685  1.00108.71 LIG 0.17  C 
ATOM      6  CB  ALA F   2       2.837  59.826  78.468  1.00102.49 LIG 0.04  C 
BRANCH 5 7
ATOM      7  C   ALA F   2       2.874  60.312  80.911  1.00108.72 LIG 0.24  C 
ATOM      8  N   SER F   3       2.738  59.330  81.799  1.00165.57 LIG-0.34  N 
ATOM      9 H    SER F   3       2.187  58.679  81.693  1.00165.57 LIG 0.16  HD
ATOM     10 O    ALA F   2       3.657  61.256  81.042  1.00108.45 LIG-0.27  OA
BRANCH 8 11
ATOM     11  CA  SER F   3       3.498  59.250  83.038  1.00165.78 LIG 0.21  C 
BRANCH 11 12
ATOM     12  C   SER F   3       3.628  57.820  83.561  1.00165.56 LIG 0.20  C 
ATOM     13 O    SER F   3       2.900  57.412  84.468  1.00164.94 LIG-0.65  OA
ATOM     14 OXT  SER F   3       4.428  57.037  83.018  1.00118.74 LIG-0.65  OA
ENDBRANCH 11 12
BRANCH 11 15
ATOM     15  CB  SER F   3       2.840  60.141  84.094  1.00113.97 LIG 0.20  C 
BRANCH 15 16
ATOM     16 OG   SER F   3       1.575  60.618  83.651  1.00114.22 LIG-0.40  OA
ATOM     17 HG   SER F   3       1.005  60.005  83.716  1.00114.22 LIG 0.21  HD
ENDBRANCH 15 16
ENDBRANCH 11 15
ENDBRANCH 8 11
ENDBRANCH 5 7
ENDBRANCH 3 5
BRANCH 1 18
ATOM     18  CA  MET F   1      -0.369  63.186  79.965  1.00 62.90 LIG 0.28  C 
BRANCH 18 19
ATOM     19  N   MET F   1      -1.714  62.953  79.455  1.00 61.98 LIG-0.07  N 
ATOM     20 H1   MET F   1      -1.840  63.437  78.718  1.00 61.98 LIG 0.28  HD
ATOM     21 H2   MET F   1      -1.814  62.089  79.263  1.00 61.98 LIG 0.28  HD
ATOM     22 H3   MET F   1      -2.310  63.191  80.071  1.00 61.98 LIG 0.28  HD
ENDBRANCH 18 19
BRANCH 18 23
ATOM     23  CB  MET F   1      -0.419  64.153  81.154  1.00 75.38 LIG 0.05  C 
BRANCH 23 24
ATOM     24  CG  MET F   1       0.738  63.992  82.144  1.00 74.73 LIG 0.08  C 
BRANCH 24 25
ATOM     25 SD   MET F   1       0.274  64.344  83.879  1.00 74.60 LIG-0.17  SA
ATOM     26  CE  MET F   1      -0.471  62.832  84.363  1.00 70.92 LIG 0.09  C 
ENDBRANCH 24 25
ENDBRANCH 23 24
ENDBRANCH 18 23
ENDBRANCH 1 18
TORSDOF 11
ENDMDL
MODEL 3
USER: ADFR SOLUTION from run 142
USER: SCORE 15.105078 LL:  -1.656 LR: -14.059 RR:   0.000 FEB: -10.778
USER: RMSD 6.777807
USER: SEED 141
USER: STATUS no improvement in best 4 clusters for 5 generations
USER: GENES 13
USER: genes 0 Translation |==|  0.44954 0.52656 0.51768
USER: genes 1 Rotation |==|  0.15120 0.24445 0.45989 0.74784
USER: genes 2 Torsion [C]-N--CA-[CB] |==|  0.48383
USER: genes 3 Torsion [N]-CA--C-[N] |==|  0.39445
USER: genes 4 Torsion [C]-N--CA-[C] |==|  0.57520
USER: genes 5 Torsion [N]-CA--C-[OXT] |==|  0.21756
USER: genes 6 Torsion [N]-CA--CB-[OG] |==|  0.01091
USER: genes 7 Torsion [CA]-CB--OG-[HG] |==|  0.21700
USER: genes 8 Torsion [N]-C--CA-[N] |==|  0.61194
USER: genes 9 Torsion [C]-CA--N-[H1] |==|  0.47568
USER: genes 10 Torsion [C]-CA--CB-[CG] |==|  0.81417
USER: genes 11 Torsion [CA]-CB--CG-[SD] |==|  0.31899
USER: genes 12 Torsion [CB]-CG--SD-[CE] |==|  0.35741
ROOT
ATOM      1  C   MET F   1       0.636  61.957  79.750  1.00 63.86 LIG 0.25  C 
ATOM      2 O    MET F   1       0.278  61.662  80.895  1.00 63.40 LIG-0.27  OA
ATOM      3  N   ALA F   2       1.437  61.173  79.029  1.00107.99 LIG-0.35  N 
ATOM      4 H    ALA F   2       1.690  61.347  78.226  1.00107.99 LIG 0.16  HD
ENDROOT
BRANCH 3 5
ATOM      5  CA  ALA F   2       1.955  59.919  79.573  1.00108.71 LIG 0.17  C 
ATOM      6  CB  ALA F   2       2.723  59.148  78.498  1.00102.49 LIG 0.04  C 
BRANCH 5 7
ATOM      7  C   ALA F   2       2.849  60.125  80.787  1.00108.72 LIG 0.24  C 
ATOM      8  N   SER F   3       2.711  59.206  81.739  1.00165.57 LIG-0.34  N 
ATOM      9 H    SER F   3       2.158  58.551  81.678  1.00165.57 LIG 0.16  HD
ATOM     10 O    ALA F   2       3.635  61.074  80.852  1.00108.45 LIG-0.27  OA
BRANCH 8 11
ATOM     11  CA  SER F   3       3.473  59.207  82.979  1.00165.78 LIG 0.21  C 
BRANCH 11 12
ATOM     12  C   SER F   3       3.643  57.809  83.571  1.00165.56 LIG 0.20  C 
ATOM     13 O    SER F   3       2.900  57.410  84.470  1.00164.94 LIG-0.65  OA
ATOM     14 OXT  SER F   3       4.493  57.037  83.092  1.00118.74 LIG-0.65  OA
ENDBRANCH 11 12
BRANCH 11 15
ATOM     15  CB  SER F   3       2.791  60.130  83.992  1.00113.97 LIG 0.20  C 
BRANCH 15 16
ATOM     16 OG   SER F   3       1.570  60.649  83.476  1.00114.22 LIG-0.40  OA
ATOM     17 HG   SER F   3       0.971  60.063  83.530  1.00114.22 LIG 0.21  HD
ENDBRANCH 15 16
ENDBRANCH 11 15
ENDBRANCH 8 11
ENDBRANCH 5 7
ENDBRANCH 3 5
BRANCH 1 18
ATOM     18  CA  MET F   1       0.144  63.248  79.071  1.00 62.90 LIG 0.28  C 
BRANCH 18 19
ATOM     19  N   MET F   1       0.111  64.426  79.926  1.00 61.98 LIG-0.07  N 
ATOM     20 H1   MET F   1      -0.060  65.147  79.433  1.00 61.98 LIG 0.28  HD
ATOM     21 H2   MET F   1      -0.526  64.329  80.541  1.00 61.98 LIG 0.28  HD
ATOM     22 H3   MET F   1       0.899  64.522  80.329  1.00 61.98 LIG 0.28  HD
ENDBRANCH 18 19
BRANCH 18 23
ATOM     23  CB  MET F   1       0.988  63.530  77.821  1.00 75.38 LIG 0.05  C 
BRANCH 23 24
ATOM     24  CG  MET F   1       2.449  63.881  78.116  1.00 74.73 LIG 0.08  C 
BRANCH 24 25
ATOM     25 SD   MET F   1       3.643  62.645  77.484  1.00 74.60 LIG-0.17  SA
ATOM     26  CE  MET F   1       4.761  63.656  76.588  1.00 70.92 LIG 0.09  C 
ENDBRANCH 24 25
ENDBRANCH 23 24
ENDBRANCH 18 23
ENDBRANCH 1 18
TORSDOF 11
ENDMDL
MODEL 4
USER: ADFR SOLUTION from run 103
USER: SCORE 14.809295 LL:  -1.205 LR: -14.012 RR:   0.000 FEB: -10.730
USER: RMSD 7.319296
USER: SEED 102
USER: STATUS no improvement in best 3 clusters for 5 generations
USER: GENES 13
USER: genes 0 Translation |==|  0.42226 0.57149 0.55768
USER: genes 1 Rotation |==|  0.38244 0.04979 0.33285 0.57452
USER: genes 2 Torsion [C]-N--CA-[CB] |==|  0.85937
USER: genes 3 Torsion [N]-CA--C-[N] |==|  0.46260
USER: genes 4 Torsion [C]-N--CA-[C] |==|  0.56317
USER: genes 5 Torsion [N]-CA--C-[OXT] |==|  0.72181
USER: genes 6 Torsion [N]-CA--CB-[OG] |==|  0.01211
USER: genes 7 Torsion [CA]-CB--OG-[HG] |==|  0.25028
USER: genes 8 Torsion [N]-C--CA-[N] |==|  0.20307
USER: genes 9 Torsion [C]-CA--N-[H1] |==|  0.55198
USER: genes 10 Torsion [C]-CA--CB-[CG] |==|  0.43197
USER: genes 11 Torsion [CA]-CB--CG-[SD] |==|  0.53814
USER: genes 12 Torsion [CB]-CG--SD-[CE] |==|  0.47804
ROOT
ATOM      1  C   MET F   1      -0.182  63.305  80.950  1.00 63.86 LIG 0.25  C 
ATOM      2 O    MET F   1      -0.925  62.323  81.056  1.00 63.40 LIG-0.27  OA
ATOM      3  N   ALA F   2       0.919  63.448  81.686  1.00107.99 LIG-0.35  N 
ATOM      4 H    ALA F   2       1.460  64.114  81.624  1.00107.99 LIG 0.16  HD
ENDROOT
BRANCH 3 5
ATOM      5  CA  ALA F   2       1.295  62.448  82.684  1.00108.71 LIG 0.17  C 
ATOM      6  CB  ALA F   2       0.113  62.140  83.604  1.00102.49 LIG 0.04  C 
BRANCH 5 7
ATOM      7  C   ALA F   2       1.806  61.156  82.064  1.00108.72 LIG 0.24  C 
ATOM      8  N   SER F   3       2.417  60.337  82.916  1.00165.57 LIG-0.34  N 
ATOM      9 H    SER F   3       2.520  60.522  83.748  1.00165.57 LIG 0.16  HD
ATOM     10 O    ALA F   2       1.646  60.911  80.865  1.00108.45 LIG-0.27  OA
BRANCH 8 11
ATOM     11  CA  SER F   3       2.973  59.045  82.537  1.00165.78 LIG 0.21  C 
BRANCH 11 12
ATOM     12  C   SER F   3       3.108  58.088  83.720  1.00165.56 LIG 0.20  C 
ATOM     13 O    SER F   3       2.150  57.410  84.095  1.00164.94 LIG-0.65  OA
ATOM     14 OXT  SER F   3       4.216  57.938  84.266  1.00118.74 LIG-0.65  OA
ENDBRANCH 11 12
BRANCH 11 15
ATOM     15  CB  SER F   3       4.335  59.257  81.871  1.00113.97 LIG 0.20  C 
BRANCH 15 16
ATOM     16 OG   SER F   3       4.715  60.628  81.900  1.00114.22 LIG-0.40  OA
ATOM     17 HG   SER F   3       5.150  60.783  82.601  1.00114.22 LIG 0.21  HD
ENDBRANCH 15 16
ENDBRANCH 11 15
ENDBRANCH 8 11
ENDBRANCH 5 7
ENDBRANCH 3 5
BRANCH 1 18
ATOM     18  CA  MET F   1      -0.473  64.416  79.925  1.00 62.90 LIG 0.28  C 
BRANCH 18 19
ATOM     19  N   MET F   1       0.390  64.419  78.751  1.00 61.98 LIG-0.07  N 
ATOM     20 H1   MET F   1       0.350  65.215  78.356  1.00 61.98 LIG 0.28  HD
ATOM     21 H2   MET F   1       1.229  64.251  78.998  1.00 61.98 LIG 0.28  HD
ATOM     22 H3   MET F   1       0.118  63.791  78.182  1.00 61.98 LIG 0.28  HD
ENDBRANCH 18 19
BRANCH 18 23
ATOM     23  CB  MET F   1      -1.944  64.352  79.494  1.00 75.38 LIG 0.05  C 
BRANCH 23 24
ATOM     24  CG  MET F   1      -2.505  65.680  78.977  1.00 74.73 LIG 0.08  C 
BRANCH 24 25
ATOM     25 SD   MET F   1      -4.330  65.705  78.845  1.00 74.60 LIG-0.17  SA
ATOM     26  CE  MET F   1      -4.638  67.389  78.467  1.00 70.92 LIG 0.09  C 
ENDBRANCH 24 25
ENDBRANCH 23 24
ENDBRANCH 18 23
ENDBRANCH 1 18
TORSDOF 11
ENDMDL
MODEL 5
USER: ADFR SOLUTION from run 142
USER: SCORE 14.727850 LL:  -1.603 LR: -13.735 RR:   0.000 FEB: -10.454
USER: RMSD 6.769261
USER: SEED 141
USER: STATUS no improvement in best 4 clusters for 5 generations
USER: GENES 13
USER: genes 0 Translation |==|  0.44487 0.52740 0.53088
USER: genes 1 Rotation |==|  0.17174 0.24577 0.47547 0.77751
USER: genes 2 Torsion [C]-N--CA-[CB] |==|  0.49681
USER: genes 3 Torsion [N]-CA--C-[N] |==|  0.36855
USER: genes 4 Torsion [C]-N--CA-[C] |==|  0.57660
USER: genes 5 Torsion [N]-CA--C-[OXT] |==|  0.21365
USER: genes 6 Torsion [N]-CA--CB-[OG] |==|  0.01130
USER: genes 7 Torsion [CA]-CB--OG-[HG] |==|  0.21673
USER: genes 8 Torsion [N]-C--CA-[N] |==|  0.87842
USER: genes 9 Torsion [C]-CA--N-[H1] |==|  0.86736
USER: genes 10 Torsion [C]-CA--CB-[CG] |==|  0.82303
USER: genes 11 Torsion [CA]-CB--CG-[SD] |==|  0.33100
USER: genes 12 Torsion [CB]-CG--SD-[CE] |==|  0.63011
ROOT
ATOM      1  C   MET F   1       0.496  61.982  80.146  1.00 63.86 LIG 0.25  C 
ATOM      2 O    MET F   1       0.281  61.559  81.287  1.00 63.40 LIG-0.27  OA
ATOM      3  N   ALA F   2       1.273  61.334  79.280  1.00107.99 LIG-0.35  N 
ATOM      4 H    ALA F   2       1.429  61.599  78.477  1.00107.99 LIG 0.16  HD
ENDROOT
BRANCH 3 5
ATOM      5  CA  ALA F   2       1.936  60.084  79.649  1.00108.71 LIG 0.17  C 
ATOM      6  CB  ALA F   2       2.739  59.538  78.468  1.00102.49 LIG 0.04  C 
BRANCH 5 7
ATOM      7  C   ALA F   2       2.848  60.233  80.858  1.00108.72 LIG 0.24  C 
ATOM      8  N   SER F   3       2.697  59.291  81.784  1.00165.57 LIG-0.34  N 
ATOM      9 H    SER F   3       2.127  58.652  81.711  1.00165.57 LIG 0.16  HD
ATOM     10 O    ALA F   2       3.659  61.159  80.941  1.00108.45 LIG-0.27  OA
BRANCH 8 11
ATOM     11  CA  SER F   3       3.473  59.237  83.016  1.00165.78 LIG 0.21  C 
BRANCH 11 12
ATOM     12  C   SER F   3       3.623  57.817  83.559  1.00165.56 LIG 0.20  C 
ATOM     13 O    SER F   3       2.900  57.410  84.470  1.00164.94 LIG-0.65  OA
ATOM     14 OXT  SER F   3       4.435  57.038  83.028  1.00118.74 LIG-0.65  OA
ENDBRANCH 11 12
BRANCH 11 15
ATOM     15  CB  SER F   3       2.818  60.137  84.066  1.00113.97 LIG 0.20  C 
BRANCH 15 16
ATOM     16 OG   SER F   3       1.600  60.692  83.582  1.00114.22 LIG-0.40  OA
ATOM     17 HG   SER F   3       0.992  60.114  83.624  1.00114.22 LIG 0.21  HD
ENDBRANCH 15 16
ENDBRANCH 11 15
ENDBRANCH 8 11
ENDBRANCH 5 7
ENDBRANCH 3 5
BRANCH 1 18
ATOM     18  CA  MET F   1      -0.158  63.283  79.644  1.00 62.90 LIG 0.28  C 
BRANCH 18 19
ATOM     19  N   MET F   1       0.718  64.166  78.887  1.00 61.98 LIG-0.07  N 
ATOM     20 H1   MET F   1       1.488  64.267  79.323  1.00 61.98 LIG 0.28  HD
ATOM     21 H2   MET F   1       0.876  63.812  78.085  1.00 61.98 LIG 0.28  HD
ATOM     22 H3   MET F   1       0.327  64.959  78.789  1.00 61.98 LIG 0.28  HD
ENDBRANCH 18 19
BRANCH 18 23
ATOM     23  CB  MET F   1      -1.408  62.950  78.820  1.00 75.38 LIG 0.05  C 
BRANCH 23 24
ATOM     24  CG  MET F   1      -1.124  62.160  77.539  1.00 74.73 LIG 0.08  C 
BRANCH 24 25
ATOM     25 SD   MET F   1      -1.939  60.522  77.490  1.00 74.60 LIG-0.17  SA
ATOM     26  CE  MET F   1      -0.626  59.486  76.963  1.00 70.92 LIG 0.09  C 
ENDBRANCH 24 25
ENDBRANCH 23 24
ENDBRANCH 18 23
ENDBRANCH 1 18
TORSDOF 11
ENDMDL
MODEL 6
USER: ADFR SOLUTION from run 152
USER: SCORE 14.366794 LL:  -1.358 LR: -13.276 RR:   0.000 FEB:  -9.995
USER: RMSD 7.135381
USER: SEED 151
USER: STATUS no improvement in best 7 clusters for 5 generations
USER: GENES 13
USER: genes 0 Translation |==|  0.43127 0.56402 0.56312
USER: genes 1 Rotation |==|  0.42150 0.03914 0.34537 0.58681
USER: genes 2 Torsion [C]-N--CA-[CB] |==|  0.81496
USER: genes 3 Torsion [N]-CA--C-[N] |==|  0.48386
USER: genes 4 Torsion [C]-N--CA-[C] |==|  0.57578
USER: genes 5 Torsion [N]-CA--C-[OXT] |==|  0.34715
USER: genes 6 Torsion [N]-CA--CB-[OG] |==|  0.97329
USER: genes 7 Torsion [CA]-CB--OG-[HG] |==|  0.18080
USER: genes 8 Torsion [N]-C--CA-[N] |==|  0.20409
USER: genes 9 Torsion [C]-CA--N-[H1] |==|  0.22230
USER: genes 10 Torsion [C]-CA--CB-[CG] |==|  0.72076
USER: genes 11 Torsion [CA]-CB--CG-[SD] |==|  0.14629
USER: genes 12 Torsion [CB]-CG--SD-[CE] |==|  0.39834
ROOT
ATOM      1  C   MET F   1       0.088  63.081  81.114  1.00 63.86 LIG 0.25  C 
ATOM      2 O    MET F   1      -0.474  61.988  81.243  1.00 63.40 LIG-0.27  OA
ATOM      3  N   ALA F   2       1.144  63.431  81.846  1.00107.99 LIG-0.35  N 
ATOM      4 H    ALA F   2       1.561  64.179  81.768  1.00107.99 LIG 0.16  HD
ENDROOT
BRANCH 3 5
ATOM      5  CA  ALA F   2       1.684  62.537  82.869  1.00108.71 LIG 0.17  C 
ATOM      6  CB  ALA F   2       0.681  62.365  84.011  1.00102.49 LIG 0.04  C 
BRANCH 5 7
ATOM      7  C   ALA F   2       2.065  61.170  82.318  1.00108.72 LIG 0.24  C 
ATOM      8  N   SER F   3       2.671  60.371  83.191  1.00165.57 LIG-0.34  N 
ATOM      9 H    SER F   3       2.841  60.607  84.000  1.00165.57 LIG 0.16  HD
ATOM     10 O    ALA F   2       1.812  60.854  81.153  1.00108.45 LIG-0.27  OA
BRANCH 8 11
ATOM     11  CA  SER F   3       3.113  59.019  82.878  1.00165.78 LIG 0.21  C 
BRANCH 11 12
ATOM     12  C   SER F   3       3.152  58.110  84.106  1.00165.56 LIG 0.20  C 
ATOM     13 O    SER F   3       3.738  58.460  85.131  1.00164.94 LIG-0.65  OA
ATOM     14 OXT  SER F   3       2.525  57.035  84.095  1.00118.74 LIG-0.65  OA
ENDBRANCH 11 12
BRANCH 11 15
ATOM     15  CB  SER F   3       4.494  59.078  82.220  1.00113.97 LIG 0.20  C 
BRANCH 15 16
ATOM     16 OG   SER F   3       4.856  60.416  81.900  1.00114.22 LIG-0.40  OA
ATOM     17 HG   SER F   3       4.943  60.860  82.608  1.00114.22 LIG 0.21  HD
ENDBRANCH 15 16
ENDBRANCH 11 15
ENDBRANCH 8 11
ENDBRANCH 5 7
ENDBRANCH 3 5
BRANCH 1 18
ATOM     18  CA  MET F   1      -0.387  64.099  80.061  1.00 62.90 LIG 0.28  C 
BRANCH 18 19
ATOM     19  N   MET F   1       0.463  64.218  78.884  1.00 61.98 LIG-0.07  N 
ATOM     20 H1   MET F   1       0.289  63.549  78.323  1.00 61.98 LIG 0.28  HD
ATOM     21 H2   MET F   1       0.303  64.994  78.479  1.00 61.98 LIG 0.28  HD
ATOM     22 H3   MET F   1       1.317  64.182  79.131  1.00 61.98 LIG 0.28  HD
ENDBRANCH 18 19
BRANCH 18 23
ATOM     23  CB  MET F   1      -1.826  63.776  79.638  1.00 75.38 LIG 0.05  C 
BRANCH 23 24
ATOM     24  CG  MET F   1      -1.936  63.030  78.305  1.00 74.73 LIG 0.08  C 
BRANCH 24 25
ATOM     25 SD   MET F   1      -0.904  61.520  78.220  1.00 74.60 LIG-0.17  SA
ATOM     26  CE  MET F   1      -1.929  60.440  77.295  1.00 70.92 LIG 0.09  C 
ENDBRANCH 24 25
ENDBRANCH 23 24
ENDBRANCH 18 23
ENDBRANCH 1 18
TORSDOF 11
ENDMDL
MODEL 7
USER: ADFR SOLUTION from run 72
USER: SCORE 13.607461 LL:  -1.026 LR: -13.247 RR:   0.000 FEB:  -9.966
USER: RMSD 6.900273
USER: SEED 71
USER: STATUS no improvement in best 2 clusters for 5 generations
USER: GENES 13
USER: genes 0 Translation |==|  0.43989 0.54751 0.52887
USER: genes 1 Rotation |==|  0.55181 0.03881 0.31515 0.52130
USER: genes 2 Torsion [C]-N--CA-[CB] |==|  0.79417
USER: genes 3 Torsion [N]-CA--C-[N] |==|  0.56211
USER: genes 4 Torsion [C]-N--CA-[C] |==|  0.46001
USER: genes 5 Torsion [N]-CA--C-[OXT] |==|  0.17326
USER: genes 6 Torsion [N]-CA--CB-[OG] |==|  0.06489
USER: genes 7 Torsion [CA]-CB--OG-[HG] |==|  0.45963
USER: genes 8 Torsion [N]-C--CA-[N] |==|  0.92434
USER: genes 9 Torsion [C]-CA--N-[H1] |==|  0.05775
USER: genes 10 Torsion [C]-CA--CB-[CG] |==|  0.93308
USER: genes 11 Torsion [CA]-CB--CG-[SD] |==|  0.34481
USER: genes 12 Torsion [CB]-CG--SD-[CE] |==|  0.27919
ROOT
ATOM      1  C   MET F   1       0.347  62.585  80.086  1.00 63.86 LIG 0.25  C 
ATOM      2 O    MET F   1       0.260  61.371  79.879  1.00 63.40 LIG-0.27  OA
ATOM      3  N   ALA F   2       0.821  63.082  81.228  1.00107.99 LIG-0.35  N 
ATOM      4 H    ALA F   2       0.905  63.922  81.393  1.00107.99 LIG 0.16  HD
ENDROOT
BRANCH 3 5
ATOM      5  CA  ALA F   2       1.247  62.202  82.314  1.00108.71 LIG 0.17  C 
ATOM      6  CB  ALA F   2       0.032  61.591  83.014  1.00102.49 LIG 0.04  C 
BRANCH 5 7
ATOM      7  C   ALA F   2       2.175  61.090  81.846  1.00108.72 LIG 0.24  C 
ATOM      8  N   SER F   3       2.214  60.028  82.647  1.00165.57 LIG-0.34  N 
ATOM      9 H    SER F   3       1.758  59.974  83.373  1.00165.57 LIG 0.16  HD
ATOM     10 O    ALA F   2       2.820  61.189  80.800  1.00108.45 LIG-0.27  OA
BRANCH 8 11
ATOM     11  CA  SER F   3       3.027  58.849  82.385  1.00165.78 LIG 0.21  C 
BRANCH 11 12
ATOM     12  C   SER F   3       3.164  57.941  83.607  1.00165.56 LIG 0.20  C 
ATOM     13 O    SER F   3       4.255  57.785  84.157  1.00164.94 LIG-0.65  OA
ATOM     14 OXT  SER F   3       2.150  57.410  84.095  1.00118.74 LIG-0.65  OA
ENDBRANCH 11 12
BRANCH 11 15
ATOM     15  CB  SER F   3       4.410  59.286  81.895  1.00113.97 LIG 0.20  C 
BRANCH 15 16
ATOM     16 OG   SER F   3       4.713  60.609  82.322  1.00114.22 LIG-0.40  OA
ATOM     17 HG   SER F   3       5.534  60.756  82.220  1.00114.22 LIG 0.21  HD
ENDBRANCH 15 16
ENDBRANCH 11 15
ENDBRANCH 8 11
ENDBRANCH 5 7
ENDBRANCH 3 5
BRANCH 1 18
ATOM     18  CA  MET F   1      -0.062  63.607  79.009  1.00 62.90 LIG 0.28  C 
BRANCH 18 19
ATOM     19  N   MET F   1      -0.475  64.910  79.514  1.00 61.98 LIG-0.07  N 
ATOM     20 H1   MET F   1      -0.152  65.026  80.335  1.00 61.98 LIG 0.28  HD
ATOM     21 H2   MET F   1      -0.162  65.549  78.979  1.00 61.98 LIG 0.28  HD
ATOM     22 H3   MET F   1      -1.363  64.951  79.537  1.00 61.98 LIG 0.28  HD
ENDBRANCH 18 19
BRANCH 18 23
ATOM     23  CB  MET F   1       1.075  63.774  77.994  1.00 75.38 LIG 0.05  C 
BRANCH 23 24
ATOM     24  CG  MET F   1       2.461  63.414  78.538  1.00 74.73 LIG 0.08  C 
BRANCH 24 25
ATOM     25 SD   MET F   1       3.330  62.141  77.551  1.00 74.60 LIG-0.17  SA
ATOM     26  CE  MET F   1       4.432  63.118  76.600  1.00 70.92 LIG 0.09  C 
ENDBRANCH 24 25
ENDBRANCH 23 24
ENDBRANCH 18 23
ENDBRANCH 1 18
TORSDOF 11
ENDMDL
MODEL 8
USER: ADFR SOLUTION from run 103
USER: SCORE 13.209146 LL:  -0.336 LR: -13.205 RR:   0.000 FEB:  -9.924
USER: RMSD 7.450434
USER: SEED 102
USER: STATUS no improvement in best 3 clusters for 5 generations
USER: GENES 13
USER: genes 0 Translation |==|  0.45123 0.54436 0.60246
USER: genes 1 Rotation |==|  0.30837 0.06346 0.44747 0.64126
USER: genes 2 Torsion [C]-N--CA-[CB] |==|  0.81611
USER: genes 3 Torsion [N]-CA--C-[N] |==|  0.30840
USER: genes 4 Torsion [C]-N--CA-[C] |==|  0.88677
USER: genes 5 Torsion [N]-CA--C-[OXT] |==|  0.24353
USER: genes 6 Torsion [N]-CA--CB-[OG] |==|  0.24007
USER: genes 7 Torsion [CA]-CB--OG-[HG] |==|  0.71028
USER: genes 8 Torsion [N]-C--CA-[N] |==|  0.91429
USER: genes 9 Torsion [C]-CA--N-[H1] |==|  0.08368
USER: genes 10 Torsion [C]-CA--CB-[CG] |==|  0.78106
USER: genes 11 Torsion [CA]-CB--CG-[SD] |==|  0.19574
USER: genes 12 Torsion [CB]-CG--SD-[CE] |==|  0.30398
ROOT
ATOM      1  C   MET F   1       0.687  62.491  82.294  1.00 63.86 LIG 0.25  C 
ATOM      2 O    MET F   1       0.044  61.771  83.065  1.00 63.40 LIG-0.27  OA
ATOM      3  N   ALA F   2       2.007  62.644  82.393  1.00107.99 LIG-0.35  N 
ATOM      4 H    ALA F   2       2.479  63.128  81.862  1.00107.99 LIG 0.16  HD
ENDROOT
BRANCH 3 5
ATOM      5  CA  ALA F   2       2.767  61.976  83.448  1.00108.71 LIG 0.17  C 
ATOM      6  CB  ALA F   2       2.377  62.531  84.819  1.00102.49 LIG 0.04  C 
BRANCH 5 7
ATOM      7  C   ALA F   2       2.585  60.465  83.442  1.00108.72 LIG 0.24  C 
ATOM      8  N   SER F   3       3.667  59.780  83.081  1.00165.57 LIG-0.34  N 
ATOM      9 H    SER F   3       4.408  60.158  82.864  1.00165.57 LIG 0.16  HD
ATOM     10 O    ALA F   2       1.513  59.945  83.758  1.00108.45 LIG-0.27  OA
BRANCH 8 11
ATOM     11  CA  SER F   3       3.718  58.326  83.016  1.00165.78 LIG 0.21  C 
BRANCH 11 12
ATOM     12  C   SER F   3       2.994  57.655  84.182  1.00165.56 LIG 0.20  C 
ATOM     13 O    SER F   3       3.586  57.410  85.234  1.00164.94 LIG-0.65  OA
ATOM     14 OXT  SER F   3       1.775  57.419  84.095  1.00118.74 LIG-0.65  OA
ENDBRANCH 11 12
BRANCH 11 15
ATOM     15  CB  SER F   3       5.179  57.872  82.970  1.00113.97 LIG 0.20  C 
BRANCH 15 16
ATOM     16 OG   SER F   3       5.718  57.739  84.280  1.00114.22 LIG-0.40  OA
ATOM     17 HG   SER F   3       6.223  58.390  84.443  1.00114.22 LIG 0.21  HD
ENDBRANCH 15 16
ENDBRANCH 11 15
ENDBRANCH 8 11
ENDBRANCH 5 7
ENDBRANCH 3 5
BRANCH 1 18
ATOM     18  CA  MET F   1      -0.006  63.235  81.137  1.00 62.90 LIG 0.28  C 
BRANCH 18 19
ATOM     19  N   MET F   1       0.619  64.489  80.742  1.00 61.98 LIG-0.07  N 
ATOM     20 H1   MET F   1       1.496  64.444  80.894  1.00 61.98 LIG 0.28  HD
ATOM     21 H2   MET F   1       0.476  64.633  79.875  1.00 61.98 LIG 0.28  HD
ATOM     22 H3   MET F   1       0.270  65.156  81.215  1.00 61.98 LIG 0.28  HD
ENDBRANCH 18 19
BRANCH 18 23
ATOM     23  CB  MET F   1      -0.132  62.305  79.924  1.00 75.38 LIG 0.05  C 
BRANCH 23 24
ATOM     24  CG  MET F   1       1.158  62.156  79.111  1.00 74.73 LIG 0.08  C 
BRANCH 24 25
ATOM     25 SD   MET F   1       2.462  61.203  79.972  1.00 74.60 LIG-0.17  SA
ATOM     26  CE  MET F   1       2.494  59.719  79.039  1.00 70.92 LIG 0.09  C 
ENDBRANCH 24 25
ENDBRANCH 23 24
ENDBRANCH 18 23
ENDBRANCH 1 18
TORSDOF 11
ENDMDL
MODEL 9
USER: ADFR SOLUTION from run 94
USER: SCORE 14.502363 LL:  -1.718 LR: -13.131 RR:   0.000 FEB:  -9.850
USER: RMSD 6.320915
USER: SEED 93
USER: STATUS no improvement in best 4 clusters for 5 generations
USER: GENES 13
USER: genes 0 Translation |==|  0.42262 0.53457 0.58380
USER: genes 1 Rotation |==|  0.56098 0.40718 0.02005 0.58550
USER: genes 2 Torsion [C]-N--CA-[CB] |==|  0.15557
USER: genes 3 Torsion [N]-CA--C-[N] |==|  0.04494
USER: genes 4 Torsion [C]-N--CA-[C] |==|  0.50363
USER: genes 5 Torsion [N]-CA--C-[OXT] |==|  0.13764
USER: genes 6 Torsion [N]-CA--CB-[OG] |==|  0.02624
USER: genes 7 Torsion [CA]-CB--OG-[HG] |==|  0.52915
USER: genes 8 Torsion [N]-C--CA-[N] |==|  0.90972
USER: genes 9 Torsion [C]-CA--N-[H1] |==|  0.62126
USER: genes 10 Torsion [C]-CA--CB-[CG] |==|  0.86365
USER: genes 11 Torsion [CA]-CB--CG-[SD] |==|  0.83169
USER: genes 12 Torsion [CB]-CG--SD-[CE] |==|  0.42321
ROOT
ATOM      1  C   MET F   1      -0.171  62.197  81.734  1.00 63.86 LIG 0.25  C 
ATOM      2 O    MET F   1      -0.579  62.719  80.691  1.00 63.40 LIG-0.27  OA
ATOM      3  N   ALA F   2       0.818  61.305  81.745  1.00107.99 LIG-0.35  N 
ATOM      4 H    ALA F   2       1.130  60.937  82.457  1.00107.99 LIG 0.16  HD
ENDROOT
BRANCH 3 5
ATOM      5  CA  ALA F   2       1.464  60.878  80.506  1.00108.71 LIG 0.17  C 
ATOM      6  CB  ALA F   2       2.009  62.086  79.743  1.00102.49 LIG 0.04  C 
BRANCH 5 7
ATOM      7  C   ALA F   2       2.585  59.875  80.737  1.00108.72 LIG 0.24  C 
ATOM      8  N   SER F   3       2.576  59.304  81.939  1.00165.57 LIG-0.34  N 
ATOM      9 H    SER F   3       1.989  59.488  82.539  1.00165.57 LIG 0.16  HD
ATOM     10 O    ALA F   2       3.417  59.627  79.861  1.00108.45 LIG-0.27  OA
BRANCH 8 11
ATOM     11  CA  SER F   3       3.552  58.311  82.368  1.00165.78 LIG 0.21  C 
BRANCH 11 12
ATOM     12  C   SER F   3       3.290  57.796  83.782  1.00165.56 LIG 0.20  C 
ATOM     13 O    SER F   3       4.176  57.826  84.638  1.00164.94 LIG-0.65  OA
ATOM     14 OXT  SER F   3       2.149  57.410  84.095  1.00118.74 LIG-0.65  OA
ENDBRANCH 11 12
BRANCH 11 15
ATOM     15  CB  SER F   3       4.957  58.910  82.276  1.00113.97 LIG 0.20  C 
BRANCH 15 16
ATOM     16 OG   SER F   3       4.906  60.308  82.014  1.00114.22 LIG-0.40  OA
ATOM     17 HG   SER F   3       5.675  60.586  81.826  1.00114.22 LIG 0.21  HD
ENDBRANCH 15 16
ENDBRANCH 11 15
ENDBRANCH 8 11
ENDBRANCH 5 7
ENDBRANCH 3 5
BRANCH 1 18
ATOM     18  CA  MET F   1      -0.769  62.579  83.101  1.00 62.90 LIG 0.28  C 
BRANCH 18 19
ATOM     19  N   MET F   1      -0.775  61.514  84.095  1.00 61.98 LIG-0.07  N 
ATOM     20 H1   MET F   1      -1.559  61.505  84.516  1.00 61.98 LIG 0.28  HD
ATOM     21 H2   MET F   1      -0.645  60.731  83.693  1.00 61.98 LIG 0.28  HD
ATOM     22 H3   MET F   1      -0.123  61.656  84.685  1.00 61.98 LIG 0.28  HD
ENDBRANCH 18 19
BRANCH 18 23
ATOM     23  CB  MET F   1      -0.046  63.812  83.657  1.00 75.38 LIG 0.05  C 
BRANCH 23 24
ATOM     24  CG  MET F   1       1.482  63.714  83.622  1.00 74.73 LIG 0.08  C 
BRANCH 24 25
ATOM     25 SD   MET F   1       2.151  62.321  84.602  1.00 74.60 LIG-0.17  SA
ATOM     26  CE  MET F   1       3.649  61.978  83.758  1.00 70.92 LIG 0.09  C 
ENDBRANCH 24 25
ENDBRANCH 23 24
ENDBRANCH 18 23
ENDBRANCH 1 18
TORSDOF 11
ENDMDL
MODEL 10
USER: ADFR SOLUTION from run 98
USER: SCORE 14.442351 LL:  -1.582 LR: -13.039 RR:   0.000 FEB:  -9.758
USER: RMSD 6.366372
USER: SEED 97
USER: STATUS no improvement in best 2 clusters for 5 generations
USER: GENES 13
USER: genes 0 Translation |==|  0.50094 0.54044 0.48434
USER: genes 1 Rotation |==|  0.18650 0.68358 0.78975 0.68456
USER: genes 2 Torsion [C]-N--CA-[CB] |==|  0.85811
USER: genes 3 Torsion [N]-CA--C-[N] |==|  0.33333
USER: genes 4 Torsion [C]-N--CA-[C] |==|  0.61645
USER: genes 5 Torsion [N]-CA--C-[OXT] |==|  0.71925
USER: genes 6 Torsion [N]-CA--CB-[OG] |==|  0.03693
USER: genes 7 Torsion [CA]-CB--OG-[HG] |==|  0.12933
USER: genes 8 Torsion [N]-C--CA-[N] |==|  0.61102
USER: genes 9 Torsion [C]-CA--N-[H1] |==|  0.19380
USER: genes 10 Torsion [C]-CA--CB-[CG] |==|  0.26302
USER: genes 11 Torsion [CA]-CB--CG-[SD] |==|  0.94227
USER: genes 12 Torsion [CB]-CG--SD-[CE] |==|  0.64321
ROOT
ATOM      1  C   MET F   1       2.178  62.373  78.750  1.00 63.86 LIG 0.25  C 
ATOM      2 O    MET F   1       3.373  62.232  78.469  1.00 63.40 LIG-0.27  OA
ATOM      3  N   ALA F   2       1.458  61.403  79.312  1.00107.99 LIG-0.35  N 
ATOM      4 H    ALA F   2       0.629  61.479  79.529  1.00107.99 LIG 0.16  HD
ENDROOT
BRANCH 3 5
ATOM      5  CA  ALA F   2       2.048  60.099  79.607  1.00108.71 LIG 0.17  C 
ATOM      6  CB  ALA F   2       2.753  59.540  78.370  1.00102.49 LIG 0.04  C 
BRANCH 5 7
ATOM      7  C   ALA F   2       3.026  60.142  80.772  1.00108.72 LIG 0.24  C 
ATOM      8  N   SER F   3       2.699  59.360  81.798  1.00165.57 LIG-0.34  N 
ATOM      9 H    SER F   3       1.990  58.873  81.806  1.00165.57 LIG 0.16  HD
ATOM     10 O    ALA F   2       4.036  60.848  80.738  1.00108.45 LIG-0.27  OA
BRANCH 8 11
ATOM     11  CA  SER F   3       3.497  59.242  83.010  1.00165.78 LIG 0.21  C 
BRANCH 11 12
ATOM     12  C   SER F   3       3.611  57.801  83.506  1.00165.56 LIG 0.20  C 
ATOM     13 O    SER F   3       4.449  57.035  83.027  1.00164.94 LIG-0.65  OA
ATOM     14 OXT  SER F   3       2.901  57.418  84.453  1.00118.74 LIG-0.65  OA
ENDBRANCH 11 12
BRANCH 11 15
ATOM     15  CB  SER F   3       2.893  60.129  84.102  1.00113.97 LIG 0.20  C 
BRANCH 15 16
ATOM     16 OG   SER F   3       1.587  60.568  83.745  1.00114.22 LIG-0.40  OA
ATOM     17 HG   SER F   3       1.140  59.917  83.459  1.00114.22 LIG 0.21  HD
ENDBRANCH 15 16
ENDBRANCH 11 15
ENDBRANCH 8 11
ENDBRANCH 5 7
ENDBRANCH 3 5
BRANCH 1 18
ATOM     18  CA  MET F   1       1.454  63.708  78.495  1.00 62.90 LIG 0.28  C 
BRANCH 18 19
ATOM     19  N   MET F   1       1.777  64.358  77.232  1.00 61.98 LIG-0.07  N 
ATOM     20 H1   MET F   1       1.436  63.887  76.559  1.00 61.98 LIG 0.28  HD
ATOM     21 H2   MET F   1       1.434  65.180  77.224  1.00 61.98 LIG 0.28  HD
ATOM     22 H3   MET F   1       2.661  64.406  77.142  1.00 61.98 LIG 0.28  HD
ENDBRANCH 18 19
BRANCH 18 23
ATOM     23  CB  MET F   1      -0.063  63.504  78.606  1.00 75.38 LIG 0.05  C 
BRANCH 23 24
ATOM     24  CG  MET F   1      -0.639  63.825  79.989  1.00 74.73 LIG 0.08  C 
BRANCH 24 25
ATOM     25 SD   MET F   1       0.606  63.790  81.330  1.00 74.60 LIG-0.17  SA
ATOM     26  CE  MET F   1      -0.159  62.730  82.499  1.00 70.92 LIG 0.09  C 
ENDBRANCH 24 25
ENDBRANCH 23 24
ENDBRANCH 18 23
ENDBRANCH 1 18
TORSDOF 11
ENDMDL
MODEL 11
USER: ADFR SOLUTION from run 152
USER: SCORE 13.866953 LL:  -1.213 LR: -12.888 RR:   0.000 FEB:  -9.607
USER: RMSD 7.212066
USER: SEED 151
USER: STATUS no improvement in best 7 clusters for 5 generations
USER: GENES 13
USER: genes 0 Translation |==|  0.53556 0.51110 0.47829
USER: genes 1 Rotation |==|  0.03065 0.39545 0.42549 0.61503
USER: genes 2 Torsion [C]-N--CA-[CB] |==|  0.52778
USER: genes 3 Torsion [N]-CA--C-[N] |==|  0.47072
USER: genes 4 Torsion [C]-N--CA-[C] |==|  0.57872
USER: genes 5 Torsion [N]-CA--C-[OXT] |==|  0.39175
USER: genes 6 Torsion [N]-CA--CB-[OG] |==|  0.09975
USER: genes 7 Torsion [CA]-CB--OG-[HG] |==|  0.14291
USER: genes 8 Torsion [N]-C--CA-[N] |==|  0.05550
USER: genes 9 Torsion [C]-CA--N-[H1] |==|  0.62649
USER: genes 10 Torsion [C]-CA--CB-[CG] |==|  0.44924
USER: genes 11 Torsion [CA]-CB--CG-[SD] |==|  0.91191
USER: genes 12 Torsion [CB]-CG--SD-[CE] |==|  0.53839
ROOT
ATOM      1  C   MET F   1       3.217  61.493  78.569  1.00 63.86 LIG 0.25  C 
ATOM      2 O    MET F   1       2.950  62.080  79.622  1.00 63.40 LIG-0.27  OA
ATOM      3  N   ALA F   2       3.108  60.171  78.441  1.00107.99 LIG-0.35  N 
ATOM      4 H    ALA F   2       3.274  59.739  77.716  1.00107.99 LIG 0.16  HD
ENDROOT
BRANCH 3 5
ATOM      5  CA  ALA F   2       2.683  59.337  79.564  1.00108.71 LIG 0.17  C 
ATOM      6  CB  ALA F   2       2.877  57.857  79.232  1.00102.49 LIG 0.04  C 
BRANCH 5 7
ATOM      7  C   ALA F   2       3.414  59.668  80.857  1.00108.72 LIG 0.24  C 
ATOM      8  N   SER F   3       2.906  59.091  81.942  1.00165.57 LIG-0.34  N 
ATOM      9 H    SER F   3       2.218  58.576  81.919  1.00165.57 LIG 0.16  HD
ATOM     10 O    ALA F   2       4.399  60.410  80.866  1.00108.45 LIG-0.27  OA
BRANCH 8 11
ATOM     11  CA  SER F   3       3.455  59.264  83.280  1.00165.78 LIG 0.21  C 
BRANCH 11 12
ATOM     12  C   SER F   3       3.197  58.061  84.186  1.00165.56 LIG 0.20  C 
ATOM     13 O    SER F   3       2.151  57.415  84.095  1.00164.94 LIG-0.65  OA
ATOM     14 OXT  SER F   3       4.082  57.684  84.975  1.00118.74 LIG-0.65  OA
ENDBRANCH 11 12
BRANCH 11 15
ATOM     15  CB  SER F   3       2.869  60.531  83.907  1.00113.97 LIG 0.20  C 
BRANCH 15 16
ATOM     16 OG   SER F   3       1.512  60.718  83.521  1.00114.22 LIG-0.40  OA
ATOM     17 HG   SER F   3       1.080  60.013  83.668  1.00114.22 LIG 0.21  HD
ENDBRANCH 15 16
ENDBRANCH 11 15
ENDBRANCH 8 11
ENDBRANCH 5 7
ENDBRANCH 3 5
BRANCH 1 18
ATOM     18  CA  MET F   1       3.664  62.270  77.317  1.00 62.90 LIG 0.28  C 
BRANCH 18 19
ATOM     19  N   MET F   1       3.480  61.570  76.053  1.00 61.98 LIG-0.07  N 
ATOM     20 H1   MET F   1       4.215  61.654  75.557  1.00 61.98 LIG 0.28  HD
ATOM     21 H2   MET F   1       3.325  60.707  76.210  1.00 61.98 LIG 0.28  HD
ATOM     22 H3   MET F   1       2.787  61.921  75.618  1.00 61.98 LIG 0.28  HD
ENDBRANCH 18 19
BRANCH 18 23
ATOM     23  CB  MET F   1       2.957  63.631  77.271  1.00 75.38 LIG 0.05  C 
BRANCH 23 24
ATOM     24  CG  MET F   1       3.625  64.655  76.348  1.00 74.73 LIG 0.08  C 
BRANCH 24 25
ATOM     25 SD   MET F   1       5.443  64.468  76.238  1.00 74.60 LIG-0.17  SA
ATOM     26  CE  MET F   1       5.911  65.979  75.481  1.00 70.92 LIG 0.09  C 
ENDBRANCH 24 25
ENDBRANCH 23 24
ENDBRANCH 18 23
ENDBRANCH 1 18
TORSDOF 11
ENDMDL
MODEL 12
USER: ADFR SOLUTION from run 59
USER: SCORE 12.516996 LL:  -1.533 LR: -12.688 RR:   0.000 FEB:  -9.407
USER: RMSD 6.462244
USER: SEED 58
USER: STATUS no improvement in best 3 clusters for 5 generations
USER: GENES 13
USER: genes 0 Translation |==|  0.45531 0.46125 0.44968
USER: genes 1 Rotation |==|  0.43267 0.06018 0.29171 0.59297
USER: genes 2 Torsion [C]-N--CA-[CB] |==|  0.22296
USER: genes 3 Torsion [N]-CA--C-[N] |==|  0.36740
USER: genes 4 Torsion [C]-N--CA-[C] |==|  0.61833
USER: genes 5 Torsion [N]-CA--C-[OXT] |==|  0.76056
USER: genes 6 Torsion [N]-CA--CB-[OG] |==|  0.67499
USER: genes 7 Torsion [CA]-CB--OG-[HG] |==|  0.82124
USER: genes 8 Torsion [N]-C--CA-[N] |==|  0.43871
USER: genes 9 Torsion [C]-CA--N-[H1] |==|  0.32970
USER: genes 10 Torsion [C]-CA--CB-[CG] |==|  0.20661
USER: genes 11 Torsion [CA]-CB--CG-[SD] |==|  0.71168
USER: genes 12 Torsion [CB]-CG--SD-[CE] |==|  0.59566
ROOT
ATOM      1  C   MET F   1       0.809  59.997  77.711  1.00 63.86 LIG 0.25  C 
ATOM      2 O    MET F   1       0.246  58.906  77.575  1.00 63.40 LIG-0.27  OA
ATOM      3  N   ALA F   2       1.858  60.164  78.515  1.00107.99 LIG-0.35  N 
ATOM      4 H    ALA F   2       2.276  60.908  78.618  1.00107.99 LIG 0.16  HD
ENDROOT
BRANCH 3 5
ATOM      5  CA  ALA F   2       2.387  59.054  79.305  1.00108.71 LIG 0.17  C 
ATOM      6  CB  ALA F   2       3.278  58.160  78.441  1.00102.49 LIG 0.04  C 
BRANCH 5 7
ATOM      7  C   ALA F   2       3.165  59.516  80.528  1.00108.72 LIG 0.24  C 
ATOM      8  N   SER F   3       2.839  58.895  81.659  1.00165.57 LIG-0.34  N 
ATOM      9 H    SER F   3       2.234  58.285  81.699  1.00165.57 LIG 0.16  HD
ATOM     10 O    ALA F   2       4.029  60.393  80.447  1.00108.45 LIG-0.27  OA
BRANCH 8 11
ATOM     11  CA  SER F   3       3.464  59.175  82.944  1.00165.78 LIG 0.21  C 
BRANCH 11 12
ATOM     12  C   SER F   3       3.776  57.908  83.740  1.00165.56 LIG 0.20  C 
ATOM     13 O    SER F   3       4.905  57.415  83.723  1.00164.94 LIG-0.65  OA
ATOM     14 OXT  SER F   3       2.900  57.410  84.470  1.00118.74 LIG-0.65  OA
ENDBRANCH 11 12
BRANCH 11 15
ATOM     15  CB  SER F   3       2.555  60.099  83.758  1.00113.97 LIG 0.20  C 
BRANCH 15 16
ATOM     16 OG   SER F   3       3.187  61.348  84.015  1.00114.22 LIG-0.40  OA
ATOM     17 HG   SER F   3       3.863  61.226  84.499  1.00114.22 LIG 0.21  HD
ENDBRANCH 15 16
ENDBRANCH 11 15
ENDBRANCH 8 11
ENDBRANCH 5 7
ENDBRANCH 3 5
BRANCH 1 18
ATOM     18  CA  MET F   1       0.346  61.235  76.920  1.00 62.90 LIG 0.28  C 
BRANCH 18 19
ATOM     19  N   MET F   1      -0.428  60.951  75.719  1.00 61.98 LIG-0.07  N 
ATOM     20 H1   MET F   1      -1.240  61.308  75.798  1.00 61.98 LIG 0.28  HD
ATOM     21 H2   MET F   1      -0.017  61.301  75.011  1.00 61.98 LIG 0.28  HD
ATOM     22 H3   MET F   1      -0.500  60.070  75.615  1.00 61.98 LIG 0.28  HD
ENDBRANCH 18 19
BRANCH 18 23
ATOM     23  CB  MET F   1      -0.442  62.174  77.842  1.00 75.38 LIG 0.05  C 
BRANCH 23 24
ATOM     24  CG  MET F   1       0.426  62.956  78.833  1.00 74.73 LIG 0.08  C 
BRANCH 24 25
ATOM     25 SD   MET F   1       0.356  62.306  80.543  1.00 74.60 LIG-0.17  SA
ATOM     26  CE  MET F   1       0.494  63.776  81.489  1.00 70.92 LIG 0.09  C 
ENDBRANCH 24 25
ENDBRANCH 23 24
ENDBRANCH 18 23
ENDBRANCH 1 18
TORSDOF 11
ENDMDL
MODEL 13
USER: ADFR SOLUTION from run 45
USER: SCORE 13.748121 LL:  -1.389 LR: -12.599 RR:   0.000 FEB:  -9.318
USER: RMSD 6.714371
USER: SEED 44
USER: STATUS no improvement in best 5 clusters for 5 generations
USER: GENES 13
USER: genes 0 Translation |==|  0.52600 0.52812 0.47946
USER: genes 1 Rotation |==|  0.05053 0.36637 0.41819 0.65306
USER: genes 2 Torsion [C]-N--CA-[CB] |==|  0.51720
USER: genes 3 Torsion [N]-CA--C-[N] |==|  0.44809
USER: genes 4 Torsion [C]-N--CA-[C] |==|  0.64161
USER: genes 5 Torsion [N]-CA--C-[OXT] |==|  0.17705
USER: genes 6 Torsion [N]-CA--CB-[OG] |==|  0.71574
USER: genes 7 Torsion [CA]-CB--OG-[HG] |==|  0.78420
USER: genes 8 Torsion [N]-C--CA-[N] |==|  0.79759
USER: genes 9 Torsion [C]-CA--N-[H1] |==|  0.81334
USER: genes 10 Torsion [C]-CA--CB-[CG] |==|  0.25577
USER: genes 11 Torsion [CA]-CB--CG-[SD] |==|  0.94058
USER: genes 12 Torsion [CB]-CG--SD-[CE] |==|  0.74163
ROOT
ATOM      1  C   MET F   1       2.930  62.004  78.604  1.00 63.86 LIG 0.25  C 
ATOM      2 O    MET F   1       2.557  62.382  79.719  1.00 63.40 LIG-0.27  OA
ATOM      3  N   ALA F   2       3.015  60.714  78.279  1.00107.99 LIG-0.35  N 
ATOM      4 H    ALA F   2       3.258  60.424  77.507  1.00107.99 LIG 0.16  HD
ENDROOT
BRANCH 3 5
ATOM      5  CA  ALA F   2       2.688  59.669  79.247  1.00108.71 LIG 0.17  C 
ATOM      6  CB  ALA F   2       3.013  58.289  78.674  1.00102.49 LIG 0.04  C 
BRANCH 5 7
ATOM      7  C   ALA F   2       3.406  59.849  80.577  1.00108.72 LIG 0.24  C 
ATOM      8  N   SER F   3       2.865  59.181  81.593  1.00165.57 LIG-0.34  N 
ATOM      9 H    SER F   3       2.163  58.692  81.508  1.00165.57 LIG 0.16  HD
ATOM     10 O    ALA F   2       4.412  60.556  80.674  1.00108.45 LIG-0.27  OA
BRANCH 8 11
ATOM     11  CA  SER F   3       3.396  59.204  82.948  1.00165.78 LIG 0.21  C 
BRANCH 11 12
ATOM     12  C   SER F   3       3.593  57.805  83.531  1.00165.56 LIG 0.20  C 
ATOM     13 O    SER F   3       2.900  57.410  84.470  1.00164.94 LIG-0.65  OA
ATOM     14 OXT  SER F   3       4.412  57.030  83.005  1.00118.74 LIG-0.65  OA
ENDBRANCH 11 12
BRANCH 11 15
ATOM     15  CB  SER F   3       2.461  60.021  83.844  1.00113.97 LIG 0.20  C 
BRANCH 15 16
ATOM     16 OG   SER F   3       2.986  61.322  84.086  1.00114.22 LIG-0.40  OA
ATOM     17 HG   SER F   3       3.592  61.276  84.666  1.00114.22 LIG 0.21  HD
ENDBRANCH 15 16
ENDBRANCH 11 15
ENDBRANCH 8 11
ENDBRANCH 5 7
ENDBRANCH 3 5
BRANCH 1 18
ATOM     18  CA  MET F   1       3.290  63.016  77.501  1.00 62.90 LIG 0.28  C 
BRANCH 18 19
ATOM     19  N   MET F   1       4.709  63.115  77.188  1.00 61.98 LIG-0.07  N 
ATOM     20 H1   MET F   1       5.142  63.464  77.883  1.00 61.98 LIG 0.28  HD
ATOM     21 H2   MET F   1       5.033  62.304  77.013  1.00 61.98 LIG 0.28  HD
ATOM     22 H3   MET F   1       4.820  63.638  76.477  1.00 61.98 LIG 0.28  HD
ENDBRANCH 18 19
BRANCH 18 23
ATOM     23  CB  MET F   1       2.493  62.701  76.228  1.00 75.38 LIG 0.05  C 
BRANCH 23 24
ATOM     24  CG  MET F   1       1.162  63.451  76.119  1.00 74.73 LIG 0.08  C 
BRANCH 24 25
ATOM     25 SD   MET F   1       0.521  64.047  77.726  1.00 74.60 LIG-0.17  SA
ATOM     26  CE  MET F   1      -0.524  62.723  78.206  1.00 70.92 LIG 0.09  C 
ENDBRANCH 24 25
ENDBRANCH 23 24
ENDBRANCH 18 23
ENDBRANCH 1 18
TORSDOF 11
ENDMDL
