MODEL 1
USER: ADFR SOLUTION from run 160
USER: SCORE 12.426863 LL:  -1.352 LR: -11.075 RR:   0.000 FEB:  -8.987
USER: RMSD 1.197208
USER: SEED 159
USER: STATUS no improvement in best 3 clusters for 5 generations
USER: GENES 9
USER: genes 0 Translation |==|  0.45957 0.50359 0.45953
USER: genes 1 Rotation |==|  0.55279 0.49100 0.49486 0.99710
USER: genes 2 Torsion [N]-C--CA-[N] |==|  0.37800
USER: genes 3 Torsion [C]-CA--N-[H1] |==|  0.43109
USER: genes 4 Torsion [C]-CA--CB-[CG2] |==|  0.08916
USER: genes 5 Torsion [CA]-CB--CG1-[CD1] |==|  0.76771
USER: genes 6 Torsion [C]-N--CA-[C] |==|  0.70049
USER: genes 7 Torsion [N]-CA--C-[O] |==|  0.33868
USER: genes 8 Torsion [N]-CA--CB-[CG1] |==|  0.52034
ROOT
ATOM      1  C   ILE Z1016      20.147  65.098  12.536  1.00 25.98 LIG 0.25  C 
ATOM      2 O    ILE Z1016      20.251  64.990  11.278  1.00 25.98 LIG-0.27  OA
ATOM      3  N   VAL Z1017      21.141  65.390  13.410  1.00 26.46 LIG-0.34  N 
ATOM      4 H    VAL Z1017      20.985  65.575  14.236  1.00 26.46 LIG 0.16  HD
ENDROOT
BRANCH 1 5
ATOM      5  CA  ILE Z1016      18.735  64.990  13.139  1.00 25.98 LIG 0.28  C 
BRANCH 5 6
ATOM      6  N   ILE Z1016      17.790  65.698  12.250  1.00 25.98 LIG-0.07  N 
ATOM      7 H1   ILE Z1016      16.972  65.365  12.359  1.00 25.98 LIG 0.28  HD
ATOM      8 H2   ILE Z1016      17.785  66.566  12.452  1.00 25.98 LIG 0.28  HD
ATOM      9 H3   ILE Z1016      18.042  65.593  11.403  1.00 25.98 LIG 0.28  HD
ENDBRANCH 5 6
BRANCH 5 10
ATOM     10  CB  ILE Z1016      18.374  63.476  13.333  1.00 25.98 LIG 0.02  C 
ATOM     11  CG2 ILE Z1016      19.634  62.635  13.653  1.00 20.29 LIG 0.01  C 
BRANCH 10 12
ATOM     12  CG1 ILE Z1016      17.235  63.165  14.370  1.00 20.29 LIG 0.00  C 
ATOM     13  CD1 ILE Z1016      17.802  63.115  15.807  1.00 20.29 LIG 0.01  C 
ENDBRANCH 10 12
ENDBRANCH 5 10
ENDBRANCH 1 5
BRANCH 3 14
ATOM     14  CA  VAL Z1017      22.607  65.430  13.067  1.00 26.46 LIG 0.19  C 
BRANCH 14 15
ATOM     15  C   VAL Z1017      23.393  64.249  13.652  1.00 26.46 LIG 0.20  C 
ATOM     16 O    VAL Z1017      24.029  63.490  12.862  1.00 26.46 LIG-0.65  OA
ATOM     17 OXT  VAL Z1017      23.707  64.240  14.875  1.00 31.30 LIG-0.65  OA
ENDBRANCH 14 15
BRANCH 14 18
ATOM     18  CB  VAL Z1017      23.270  66.635  13.671  1.00 26.46 LIG 0.01  C 
ATOM     19  CG1 VAL Z1017      24.694  66.685  13.119  1.00 20.78 LIG 0.01  C 
ATOM     20  CG2 VAL Z1017      22.512  67.937  13.375  1.00 20.78 LIG 0.01  C 
ENDBRANCH 14 18
ENDBRANCH 3 14
TORSDOF 7
ENDMDL
MODEL 2
USER: ADFR SOLUTION from run 72
USER: SCORE 12.151684 LL:  -1.301 LR: -10.851 RR:   0.000 FEB:  -8.763
USER: RMSD 1.451633
USER: SEED 71
USER: STATUS no improvement in best 4 clusters for 5 generations
USER: GENES 9
USER: genes 0 Translation |==|  0.50534 0.50654 0.47481
USER: genes 1 Rotation |==|  0.52092 0.50864 0.49069 0.99940
USER: genes 2 Torsion [N]-C--CA-[N] |==|  0.26195
USER: genes 3 Torsion [C]-CA--N-[H1] |==|  0.65923
USER: genes 4 Torsion [C]-CA--CB-[CG2] |==|  0.29888
USER: genes 5 Torsion [CA]-CB--CG1-[CD1] |==|  0.24072
USER: genes 6 Torsion [C]-N--CA-[C] |==|  0.70838
USER: genes 7 Torsion [N]-CA--C-[O] |==|  0.96779
USER: genes 8 Torsion [N]-CA--CB-[CG1] |==|  0.60579
ROOT
ATOM      1  C   ILE Z1016      21.520  65.186  12.994  1.00 25.98 LIG 0.25  C 
ATOM      2 O    ILE Z1016      21.530  64.919  11.757  1.00 25.98 LIG-0.27  OA
ATOM      3  N   VAL Z1017      22.578  65.570  13.750  1.00 26.46 LIG-0.34  N 
ATOM      4 H    VAL Z1017      22.485  65.860  14.555  1.00 26.46 LIG 0.16  HD
ENDROOT
BRANCH 1 5
ATOM      5  CA  ILE Z1016      20.156  65.178  13.707  1.00 25.98 LIG 0.28  C 
BRANCH 5 6
ATOM      6  N   ILE Z1016      19.485  66.470  13.452  1.00 25.98 LIG-0.07  N 
ATOM      7 H1   ILE Z1016      19.296  66.865  14.227  1.00 25.98 LIG 0.28  HD
ATOM      8 H2   ILE Z1016      20.023  66.995  12.975  1.00 25.98 LIG 0.28  HD
ATOM      9 H3   ILE Z1016      18.731  66.330  13.000  1.00 25.98 LIG 0.28  HD
ENDBRANCH 5 6
BRANCH 5 10
ATOM     10  CB  ILE Z1016      19.323  63.947  13.205  1.00 25.98 LIG 0.02  C 
ATOM     11  CG2 ILE Z1016      19.227  62.852  14.294  1.00 20.29 LIG 0.01  C 
BRANCH 10 12
ATOM     12  CG1 ILE Z1016      17.896  64.267  12.629  1.00 20.29 LIG 0.00  C 
ATOM     13  CD1 ILE Z1016      17.978  64.615  11.125  1.00 20.29 LIG 0.01  C 
ENDBRANCH 10 12
ENDBRANCH 5 10
ENDBRANCH 1 5
BRANCH 3 14
ATOM     14  CA  VAL Z1017      24.015  65.544  13.300  1.00 26.46 LIG 0.19  C 
BRANCH 14 15
ATOM     15  C   VAL Z1017      24.816  64.390  13.918  1.00 26.46 LIG 0.20  C 
ATOM     16 O    VAL Z1017      24.303  63.737  14.875  1.00 26.46 LIG-0.65  OA
ATOM     17 OXT  VAL Z1017      25.770  63.865  13.277  1.00 31.30 LIG-0.65  OA
ENDBRANCH 14 15
BRANCH 14 18
ATOM     18  CB  VAL Z1017      24.747  66.774  13.756  1.00 26.46 LIG 0.01  C 
ATOM     19  CG1 VAL Z1017      25.693  67.175  12.625  1.00 20.78 LIG 0.01  C 
ATOM     20  CG2 VAL Z1017      23.798  67.923  14.123  1.00 20.78 LIG 0.01  C 
ENDBRANCH 14 18
ENDBRANCH 3 14
TORSDOF 7
ENDMDL
MODEL 3
USER: ADFR SOLUTION from run 13
USER: SCORE 11.453293 LL:  -1.196 LR: -10.257 RR:   0.000 FEB:  -8.169
USER: RMSD 2.261144
USER: SEED 425898
USER: STATUS no improvement in best 3 clusters for 5 generations
USER: GENES 9
USER: genes 0 Translation |==|  0.46675 0.47714 0.47614
USER: genes 1 Rotation |==|  0.41282 0.49675 0.40459 0.98300
USER: genes 2 Torsion [N]-C--CA-[N] |==|  0.21714
USER: genes 3 Torsion [C]-CA--N-[H1] |==|  0.67933
USER: genes 4 Torsion [C]-CA--CB-[CG2] |==|  0.80999
USER: genes 5 Torsion [CA]-CB--CG1-[CD1] |==|  0.15008
USER: genes 6 Torsion [C]-N--CA-[C] |==|  0.52551
USER: genes 7 Torsion [N]-CA--C-[O] |==|  0.86285
USER: genes 8 Torsion [N]-CA--CB-[CG1] |==|  0.41765
ROOT
ATOM      1  C   ILE Z1016      20.363  64.304  13.034  1.00 25.98 LIG 0.25  C 
ATOM      2 O    ILE Z1016      20.220  63.551  12.026  1.00 25.98 LIG-0.27  OA
ATOM      3  N   VAL Z1017      21.525  64.610  13.661  1.00 26.46 LIG-0.34  N 
ATOM      4 H    VAL Z1017      21.575  65.226  14.260  1.00 26.46 LIG 0.16  HD
ENDROOT
BRANCH 1 5
ATOM      5  CA  ILE Z1016      19.111  65.037  13.550  1.00 25.98 LIG 0.28  C 
BRANCH 5 6
ATOM      6  N   ILE Z1016      19.110  66.409  13.000  1.00 25.98 LIG-0.07  N 
ATOM      7 H1   ILE Z1016      19.191  66.996  13.665  1.00 25.98 LIG 0.28  HD
ATOM      8 H2   ILE Z1016      19.793  66.504  12.437  1.00 25.98 LIG 0.28  HD
ATOM      9 H3   ILE Z1016      18.346  66.555  12.567  1.00 25.98 LIG 0.28  HD
ENDBRANCH 5 6
BRANCH 5 10
ATOM     10  CB  ILE Z1016      17.835  64.216  13.149  1.00 25.98 LIG 0.02  C 
ATOM     11  CG2 ILE Z1016      17.610  64.240  11.618  1.00 20.29 LIG 0.01  C 
BRANCH 10 12
ATOM     12  CG1 ILE Z1016      17.768  62.740  13.685  1.00 20.29 LIG 0.00  C 
ATOM     13  CD1 ILE Z1016      17.950  62.707  15.220  1.00 20.29 LIG 0.01  C 
ENDBRANCH 10 12
ENDBRANCH 5 10
ENDBRANCH 1 5
BRANCH 3 14
ATOM     14  CA  VAL Z1017      22.847  63.935  13.404  1.00 26.46 LIG 0.19  C 
BRANCH 14 15
ATOM     15  C   VAL Z1017      23.930  64.334  14.415  1.00 26.46 LIG 0.20  C 
ATOM     16 O    VAL Z1017      24.117  65.564  14.653  1.00 26.46 LIG-0.65  OA
ATOM     17 OXT  VAL Z1017      24.361  63.490  15.250  1.00 31.30 LIG-0.65  OA
ENDBRANCH 14 15
BRANCH 14 18
ATOM     18  CB  VAL Z1017      23.419  64.354  12.080  1.00 26.46 LIG 0.01  C 
ATOM     19  CG1 VAL Z1017      24.940  64.282  12.208  1.00 20.78 LIG 0.01  C 
ATOM     20  CG2 VAL Z1017      22.916  63.488  10.918  1.00 20.78 LIG 0.01  C 
ENDBRANCH 14 18
ENDBRANCH 3 14
TORSDOF 7
ENDMDL
MODEL 4
USER: ADFR SOLUTION from run 63
USER: SCORE 11.081151 LL:  -1.333 LR:  -9.749 RR:   0.000 FEB:  -7.661
USER: RMSD 2.987479
USER: SEED 62
USER: STATUS no improvement in best 5 clusters for 5 generations
USER: GENES 9
USER: genes 0 Translation |==|  0.46180 0.44122 0.52678
USER: genes 1 Rotation |==|  0.24588 0.59942 0.53791 0.91725
USER: genes 2 Torsion [N]-C--CA-[N] |==|  0.06924
USER: genes 3 Torsion [C]-CA--N-[H1] |==|  0.18163
USER: genes 4 Torsion [C]-CA--CB-[CG2] |==|  0.51747
USER: genes 5 Torsion [CA]-CB--CG1-[CD1] |==|  0.87760
USER: genes 6 Torsion [C]-N--CA-[C] |==|  0.63869
USER: genes 7 Torsion [N]-CA--C-[O] |==|  0.94158
USER: genes 8 Torsion [N]-CA--CB-[CG1] |==|  0.54359
ROOT
ATOM      1  C   ILE Z1016      20.214  63.227  14.554  1.00 25.98 LIG 0.25  C 
ATOM      2 O    ILE Z1016      20.085  61.985  14.339  1.00 25.98 LIG-0.27  OA
ATOM      3  N   VAL Z1017      21.170  64.043  14.046  1.00 26.46 LIG-0.34  N 
ATOM      4 H    VAL Z1017      21.131  64.899  14.125  1.00 26.46 LIG 0.16  HD
ENDROOT
BRANCH 1 5
ATOM      5  CA  ILE Z1016      19.122  63.915  15.392  1.00 25.98 LIG 0.28  C 
BRANCH 5 6
ATOM      6  N   ILE Z1016      19.023  65.327  14.966  1.00 25.98 LIG-0.07  N 
ATOM      7 H1   ILE Z1016      18.735  65.365  14.125  1.00 25.98 LIG 0.28  HD
ATOM      8 H2   ILE Z1016      18.451  65.757  15.495  1.00 25.98 LIG 0.28  HD
ATOM      9 H3   ILE Z1016      19.824  65.711  15.022  1.00 25.98 LIG 0.28  HD
ENDBRANCH 5 6
BRANCH 5 10
ATOM     10  CB  ILE Z1016      17.775  63.129  15.223  1.00 25.98 LIG 0.02  C 
ATOM     11  CG2 ILE Z1016      16.604  63.865  15.918  1.00 20.29 LIG 0.01  C 
BRANCH 10 12
ATOM     12  CG1 ILE Z1016      17.378  62.747  13.750  1.00 20.29 LIG 0.00  C 
ATOM     13  CD1 ILE Z1016      17.610  63.940  12.794  1.00 20.29 LIG 0.01  C 
ENDBRANCH 10 12
ENDBRANCH 5 10
ENDBRANCH 1 5
BRANCH 3 14
ATOM     14  CA  VAL Z1017      22.392  63.578  13.297  1.00 26.46 LIG 0.19  C 
BRANCH 14 15
ATOM     15  C   VAL Z1017      23.692  64.196  13.830  1.00 26.46 LIG 0.20  C 
ATOM     16 O    VAL Z1017      23.626  65.269  14.500  1.00 26.46 LIG-0.65  OA
ATOM     17 OXT  VAL Z1017      24.735  63.490  13.929  1.00 31.30 LIG-0.65  OA
ENDBRANCH 14 15
BRANCH 14 18
ATOM     18  CB  VAL Z1017      22.347  64.020  11.863  1.00 26.46 LIG 0.01  C 
ATOM     19  CG1 VAL Z1017      23.386  63.193  11.108  1.00 20.78 LIG 0.01  C 
ATOM     20  CG2 VAL Z1017      20.952  63.865  11.241  1.00 20.78 LIG 0.01  C 
ENDBRANCH 14 18
ENDBRANCH 3 14
TORSDOF 7
ENDMDL
MODEL 5
USER: ADFR SOLUTION from run 144
USER: SCORE 10.690789 LL:  -1.319 LR:  -9.372 RR:   0.000 FEB:  -7.284
USER: RMSD 2.285041
USER: SEED 143
USER: STATUS no improvement in best 5 clusters for 5 generations
USER: GENES 9
USER: genes 0 Translation |==|  0.48031 0.48961 0.48665
USER: genes 1 Rotation |==|  0.12585 0.55601 0.57149 0.81900
USER: genes 2 Torsion [N]-C--CA-[N] |==|  0.93721
USER: genes 3 Torsion [C]-CA--N-[H1] |==|  0.02306
USER: genes 4 Torsion [C]-CA--CB-[CG2] |==|  0.84422
USER: genes 5 Torsion [CA]-CB--CG1-[CD1] |==|  0.11709
USER: genes 6 Torsion [C]-N--CA-[C] |==|  0.19514
USER: genes 7 Torsion [N]-CA--C-[O] |==|  0.94419
USER: genes 8 Torsion [N]-CA--CB-[CG1] |==|  0.49293
ROOT
ATOM      1  C   ILE Z1016      20.769  64.678  13.349  1.00 25.98 LIG 0.25  C 
ATOM      2 O    ILE Z1016      21.044  63.544  13.842  1.00 25.98 LIG-0.27  OA
ATOM      3  N   VAL Z1017      21.494  65.360  12.429  1.00 26.46 LIG-0.34  N 
ATOM      4 H    VAL Z1017      21.192  66.065  12.039  1.00 26.46 LIG 0.16  HD
ENDROOT
BRANCH 1 5
ATOM      5  CA  ILE Z1016      19.426  65.314  13.750  1.00 25.98 LIG 0.28  C 
BRANCH 5 6
ATOM      6  N   ILE Z1016      19.485  66.761  13.454  1.00 25.98 LIG-0.07  N 
ATOM      7 H1   ILE Z1016      20.229  66.942  13.000  1.00 25.98 LIG 0.28  HD
ATOM      8 H2   ILE Z1016      18.776  66.994  12.968  1.00 25.98 LIG 0.28  HD
ATOM      9 H3   ILE Z1016      19.485  67.221  14.217  1.00 25.98 LIG 0.28  HD
ENDBRANCH 5 6
BRANCH 5 10
ATOM     10  CB  ILE Z1016      18.265  64.581  12.992  1.00 25.98 LIG 0.02  C 
ATOM     11  CG2 ILE Z1016      18.485  64.615  11.461  1.00 20.29 LIG 0.01  C 
BRANCH 10 12
ATOM     12  CG1 ILE Z1016      17.950  63.115  13.463  1.00 20.29 LIG 0.00  C 
ATOM     13  CD1 ILE Z1016      17.981  63.018  15.006  1.00 20.29 LIG 0.01  C 
ENDBRANCH 10 12
ENDBRANCH 5 10
ENDBRANCH 1 5
BRANCH 3 14
ATOM     14  CA  VAL Z1017      22.882  64.989  11.976  1.00 26.46 LIG 0.19  C 
BRANCH 14 15
ATOM     15  C   VAL Z1017      22.913  63.712  11.125  1.00 26.46 LIG 0.20  C 
ATOM     16 O    VAL Z1017      21.938  62.907  11.199  1.00 26.46 LIG-0.65  OA
ATOM     17 OXT  VAL Z1017      23.678  63.637  10.122  1.00 31.30 LIG-0.65  OA
ENDBRANCH 14 15
BRANCH 14 18
ATOM     18  CB  VAL Z1017      23.763  64.662  13.147  1.00 26.46 LIG 0.01  C 
ATOM     19  CG1 VAL Z1017      25.119  64.240  12.581  1.00 20.78 LIG 0.01  C 
ATOM     20  CG2 VAL Z1017      23.908  65.838  14.123  1.00 20.78 LIG 0.01  C 
ENDBRANCH 14 18
ENDBRANCH 3 14
TORSDOF 7
ENDMDL
MODEL 6
USER: ADFR SOLUTION from run 158
USER: SCORE 10.740823 LL:  -1.435 LR:  -9.306 RR:   0.000 FEB:  -7.218
USER: RMSD 2.320579
USER: SEED 157
USER: STATUS no improvement in best 4 clusters for 5 generations
USER: GENES 9
USER: genes 0 Translation |==|  0.50152 0.52523 0.48252
USER: genes 1 Rotation |==|  0.92042 0.51265 0.37432 0.73935
USER: genes 2 Torsion [N]-C--CA-[N] |==|  0.61541
USER: genes 3 Torsion [C]-CA--N-[H1] |==|  0.75651
USER: genes 4 Torsion [C]-CA--CB-[CG2] |==|  0.24323
USER: genes 5 Torsion [CA]-CB--CG1-[CD1] |==|  0.20753
USER: genes 6 Torsion [C]-N--CA-[C] |==|  0.56232
USER: genes 7 Torsion [N]-CA--C-[O] |==|  0.65166
USER: genes 8 Torsion [N]-CA--CB-[CG1] |==|  0.74422
ROOT
ATOM      1  C   ILE Z1016      21.406  65.747  13.226  1.00 25.98 LIG 0.25  C 
ATOM      2 O    ILE Z1016      21.839  66.923  13.408  1.00 25.98 LIG-0.27  OA
ATOM      3  N   VAL Z1017      22.128  64.666  12.844  1.00 26.46 LIG-0.34  N 
ATOM      4 H    VAL Z1017      21.804  63.869  12.860  1.00 26.46 LIG 0.16  HD
ENDROOT
BRANCH 1 5
ATOM      5  CA  ILE Z1016      19.929  65.479  13.568  1.00 25.98 LIG 0.28  C 
BRANCH 5 6
ATOM      6  N   ILE Z1016      19.110  66.572  13.003  1.00 25.98 LIG-0.07  N 
ATOM      7 H1   ILE Z1016      19.060  67.240  13.588  1.00 25.98 LIG 0.28  HD
ATOM      8 H2   ILE Z1016      19.484  66.865  12.250  1.00 25.98 LIG 0.28  HD
ATOM      9 H3   ILE Z1016      18.291  66.270  12.828  1.00 25.98 LIG 0.28  HD
ENDBRANCH 5 6
BRANCH 5 10
ATOM     10  CB  ILE Z1016      19.524  64.065  13.022  1.00 25.98 LIG 0.02  C 
ATOM     11  CG2 ILE Z1016      19.834  62.955  14.054  1.00 20.29 LIG 0.01  C 
BRANCH 10 12
ATOM     12  CG1 ILE Z1016      18.049  63.924  12.499  1.00 20.29 LIG 0.00  C 
ATOM     13  CD1 ILE Z1016      17.887  64.614  11.125  1.00 20.29 LIG 0.01  C 
ENDBRANCH 10 12
ENDBRANCH 5 10
ENDBRANCH 1 5
BRANCH 3 14
ATOM     14  CA  VAL Z1017      23.552  64.708  12.354  1.00 26.46 LIG 0.19  C 
BRANCH 14 15
ATOM     15  C   VAL Z1017      23.929  63.490  11.500  1.00 26.46 LIG 0.20  C 
ATOM     16 O    VAL Z1017      24.942  62.805  11.831  1.00 26.46 LIG-0.65  OA
ATOM     17 OXT  VAL Z1017      23.074  62.964  10.733  1.00 31.30 LIG-0.65  OA
ENDBRANCH 14 15
BRANCH 14 18
ATOM     18  CB  VAL Z1017      24.520  64.657  13.501  1.00 26.46 LIG 0.01  C 
ATOM     19  CG1 VAL Z1017      24.831  66.102  13.887  1.00 20.78 LIG 0.01  C 
ATOM     20  CG2 VAL Z1017      23.975  63.865  14.698  1.00 20.78 LIG 0.01  C 
ENDBRANCH 14 18
ENDBRANCH 3 14
TORSDOF 7
ENDMDL
MODEL 7
USER: ADFR SOLUTION from run 2
USER: SCORE 10.682921 LL:  -1.446 LR:  -9.237 RR:   0.000 FEB:  -7.149
USER: RMSD 2.622660
USER: SEED 271331
USER: STATUS no improvement in best 4 clusters for 5 generations
USER: GENES 9
USER: genes 0 Translation |==|  0.50261 0.51673 0.48660
USER: genes 1 Rotation |==|  0.79260 0.46685 0.33675 0.86964
USER: genes 2 Torsion [N]-C--CA-[N] |==|  0.50705
USER: genes 3 Torsion [C]-CA--N-[H1] |==|  0.54404
USER: genes 4 Torsion [C]-CA--CB-[CG2] |==|  0.35608
USER: genes 5 Torsion [CA]-CB--CG1-[CD1] |==|  0.20705
USER: genes 6 Torsion [C]-N--CA-[C] |==|  0.20067
USER: genes 7 Torsion [N]-CA--C-[O] |==|  0.00726
USER: genes 8 Torsion [N]-CA--CB-[CG1] |==|  0.53035
ROOT
ATOM      1  C   ILE Z1016      21.438  65.492  13.348  1.00 25.98 LIG 0.25  C 
ATOM      2 O    ILE Z1016      21.920  66.413  12.625  1.00 25.98 LIG-0.27  OA
ATOM      3  N   VAL Z1017      22.062  64.352  13.733  1.00 26.46 LIG-0.34  N 
ATOM      4 H    VAL Z1017      21.731  63.826  14.327  1.00 26.46 LIG 0.16  HD
ENDROOT
BRANCH 1 5
ATOM      5  CA  ILE Z1016      20.038  65.723  13.944  1.00 25.98 LIG 0.28  C 
BRANCH 5 6
ATOM      6  N   ILE Z1016      19.485  66.970  13.375  1.00 25.98 LIG-0.07  N 
ATOM      7 H1   ILE Z1016      18.794  67.240  13.866  1.00 25.98 LIG 0.28  HD
ATOM      8 H2   ILE Z1016      20.113  67.601  13.375  1.00 25.98 LIG 0.28  HD
ATOM      9 H3   ILE Z1016      19.215  66.821  12.540  1.00 25.98 LIG 0.28  HD
ENDBRANCH 5 6
BRANCH 5 10
ATOM     10  CB  ILE Z1016      19.144  64.467  13.653  1.00 25.98 LIG 0.02  C 
ATOM     11  CG2 ILE Z1016      18.479  63.939  14.947  1.00 20.29 LIG 0.01  C 
BRANCH 10 12
ATOM     12  CG1 ILE Z1016      18.068  64.635  12.519  1.00 20.29 LIG 0.00  C 
ATOM     13  CD1 ILE Z1016      18.735  64.615  11.125  1.00 20.29 LIG 0.01  C 
ENDBRANCH 10 12
ENDBRANCH 5 10
ENDBRANCH 1 5
BRANCH 3 14
ATOM     14  CA  VAL Z1017      23.381  63.865  13.190  1.00 26.46 LIG 0.19  C 
BRANCH 14 15
ATOM     15  C   VAL Z1017      24.575  64.696  13.681  1.00 26.46 LIG 0.20  C 
ATOM     16 O    VAL Z1017      24.364  65.639  14.500  1.00 26.46 LIG-0.65  OA
ATOM     17 OXT  VAL Z1017      25.748  64.240  13.580  1.00 31.30 LIG-0.65  OA
ENDBRANCH 14 15
BRANCH 14 18
ATOM     18  CB  VAL Z1017      23.436  64.006  11.696  1.00 26.46 LIG 0.01  C 
ATOM     19  CG1 VAL Z1017      24.673  63.244  11.221  1.00 20.78 LIG 0.01  C 
ATOM     20  CG2 VAL Z1017      22.165  63.490  11.007  1.00 20.78 LIG 0.01  C 
ENDBRANCH 14 18
ENDBRANCH 3 14
TORSDOF 7
ENDMDL
MODEL 8
USER: ADFR SOLUTION from run 6
USER: SCORE 10.556411 LL:  -1.334 LR:  -9.222 RR:   0.000 FEB:  -7.134
USER: RMSD 2.685634
USER: SEED 57786
USER: STATUS no improvement in best 4 clusters for 5 generations
USER: GENES 9
USER: genes 0 Translation |==|  0.50357 0.53066 0.48467
USER: genes 1 Rotation |==|  0.45756 0.43947 0.57991 0.98801
USER: genes 2 Torsion [N]-C--CA-[N] |==|  0.24269
USER: genes 3 Torsion [C]-CA--N-[H1] |==|  0.08189
USER: genes 4 Torsion [C]-CA--CB-[CG2] |==|  0.17422
USER: genes 5 Torsion [CA]-CB--CG1-[CD1] |==|  0.72333
USER: genes 6 Torsion [C]-N--CA-[C] |==|  0.26356
USER: genes 7 Torsion [N]-CA--C-[O] |==|  0.90393
USER: genes 8 Torsion [N]-CA--CB-[CG1] |==|  0.45660
ROOT
ATOM      1  C   ILE Z1016      21.467  65.910  13.290  1.00 25.98 LIG 0.25  C 
ATOM      2 O    ILE Z1016      21.952  65.434  12.222  1.00 25.98 LIG-0.27  OA
ATOM      3  N   VAL Z1017      22.060  66.797  14.125  1.00 26.46 LIG-0.34  N 
ATOM      4 H    VAL Z1017      21.632  67.181  14.766  1.00 26.46 LIG 0.16  HD
ENDROOT
BRANCH 1 5
ATOM      5  CA  ILE Z1016      20.016  65.531  13.636  1.00 25.98 LIG 0.28  C 
BRANCH 5 6
ATOM      6  N   ILE Z1016      19.110  66.511  13.000  1.00 25.98 LIG-0.07  N 
ATOM      7 H1   ILE Z1016      19.485  66.823  12.256  1.00 25.98 LIG 0.28  HD
ATOM      8 H2   ILE Z1016      18.338  66.115  12.799  1.00 25.98 LIG 0.28  HD
ATOM      9 H3   ILE Z1016      18.960  67.185  13.561  1.00 25.98 LIG 0.28  HD
ENDBRANCH 5 6
BRANCH 5 10
ATOM     10  CB  ILE Z1016      19.746  64.057  13.172  1.00 25.98 LIG 0.02  C 
ATOM     11  CG2 ILE Z1016      20.655  63.056  13.925  1.00 20.29 LIG 0.01  C 
BRANCH 10 12
ATOM     12  CG1 ILE Z1016      18.250  63.579  13.226  1.00 20.29 LIG 0.00  C 
ATOM     13  CD1 ILE Z1016      17.989  62.740  14.498  1.00 20.29 LIG 0.01  C 
ENDBRANCH 10 12
ENDBRANCH 5 10
ENDBRANCH 1 5
BRANCH 3 14
ATOM     14  CA  VAL Z1017      23.504  67.222  14.049  1.00 26.46 LIG 0.19  C 
BRANCH 14 15
ATOM     15  C   VAL Z1017      23.706  68.515  13.248  1.00 26.46 LIG 0.20  C 
ATOM     16 O    VAL Z1017      22.958  68.737  12.250  1.00 26.46 LIG-0.65  OA
ATOM     17 OXT  VAL Z1017      24.323  69.490  13.762  1.00 31.30 LIG-0.65  OA
ENDBRANCH 14 15
BRANCH 14 18
ATOM     18  CB  VAL Z1017      24.327  66.208  13.308  1.00 26.46 LIG 0.01  C 
ATOM     19  CG1 VAL Z1017      25.646  66.886  12.941  1.00 20.78 LIG 0.01  C 
ATOM     20  CG2 VAL Z1017      24.565  64.930  14.125  1.00 20.78 LIG 0.01  C 
ENDBRANCH 14 18
ENDBRANCH 3 14
TORSDOF 7
ENDMDL
MODEL 9
USER: ADFR SOLUTION from run 101
USER: SCORE 11.447016 LL:  -1.175 LR: -10.272 RR:   0.000 FEB:  -8.184
USER: RMSD 2.265439
USER: SEED 100
USER: STATUS no improvement in best 116 clusters for 5 generations
USER: GENES 9
USER: genes 0 Translation |==|  0.46640 0.47672 0.47730
USER: genes 1 Rotation |==|  0.41232 0.49996 0.40550 0.98310
USER: genes 2 Torsion [N]-C--CA-[N] |==|  0.21407
USER: genes 3 Torsion [C]-CA--N-[H1] |==|  0.00587
USER: genes 4 Torsion [C]-CA--CB-[CG2] |==|  0.81328
USER: genes 5 Torsion [CA]-CB--CG1-[CD1] |==|  0.14134
USER: genes 6 Torsion [C]-N--CA-[C] |==|  0.52551
USER: genes 7 Torsion [N]-CA--C-[O] |==|  0.85853
USER: genes 8 Torsion [N]-CA--CB-[CG1] |==|  0.41937
ROOT
ATOM      1  C   ILE Z1016      20.352  64.291  13.069  1.00 25.98 LIG 0.25  C 
ATOM      2 O    ILE Z1016      20.197  63.539  12.062  1.00 25.98 LIG-0.27  OA
ATOM      3  N   VAL Z1017      21.522  64.598  13.680  1.00 26.46 LIG-0.34  N 
ATOM      4 H    VAL Z1017      21.579  65.214  14.279  1.00 26.46 LIG 0.16  HD
ENDROOT
BRANCH 1 5
ATOM      5  CA  ILE Z1016      19.106  65.022  13.602  1.00 25.98 LIG 0.28  C 
BRANCH 5 6
ATOM      6  N   ILE Z1016      19.110  66.403  13.074  1.00 25.98 LIG-0.07  N 
ATOM      7 H1   ILE Z1016      19.811  66.515  12.537  1.00 25.98 LIG 0.28  HD
ATOM      8 H2   ILE Z1016      18.360  66.549  12.617  1.00 25.98 LIG 0.28  HD
ATOM      9 H3   ILE Z1016      19.161  66.979  13.751  1.00 25.98 LIG 0.28  HD
ENDBRANCH 5 6
BRANCH 5 10
ATOM     10  CB  ILE Z1016      17.825  64.215  13.193  1.00 25.98 LIG 0.02  C 
ATOM     11  CG2 ILE Z1016      17.610  64.240  11.661  1.00 20.29 LIG 0.01  C 
BRANCH 10 12
ATOM     12  CG1 ILE Z1016      17.738  62.740  13.730  1.00 20.29 LIG 0.00  C 
ATOM     13  CD1 ILE Z1016      17.989  62.697  15.255  1.00 20.29 LIG 0.01  C 
ENDBRANCH 10 12
ENDBRANCH 5 10
ENDBRANCH 1 5
BRANCH 3 14
ATOM     14  CA  VAL Z1017      22.842  63.925  13.405  1.00 26.46 LIG 0.19  C 
BRANCH 14 15
ATOM     15  C   VAL Z1017      23.938  64.326  14.402  1.00 26.46 LIG 0.20  C 
ATOM     16 O    VAL Z1017      24.146  65.557  14.616  1.00 26.46 LIG-0.65  OA
ATOM     17 OXT  VAL Z1017      24.360  63.490  15.250  1.00 31.30 LIG-0.65  OA
ENDBRANCH 14 15
BRANCH 14 18
ATOM     18  CB  VAL Z1017      23.395  64.346  12.074  1.00 26.46 LIG 0.01  C 
ATOM     19  CG1 VAL Z1017      24.918  64.261  12.177  1.00 20.78 LIG 0.01  C 
ATOM     20  CG2 VAL Z1017      22.866  63.489  10.916  1.00 20.78 LIG 0.01  C 
ENDBRANCH 14 18
ENDBRANCH 3 14
TORSDOF 7
ENDMDL
MODEL 10
USER: ADFR SOLUTION from run 5
USER: SCORE 11.026514 LL:  -1.239 LR:  -9.787 RR:   0.000 FEB:  -7.699
USER: RMSD 1.704817
USER: SEED 599296
USER: STATUS searching
USER: GENES 9
USER: genes 0 Translation |==|  0.50394 0.53293 0.48622
USER: genes 1 Rotation |==|  0.90579 0.52353 0.43094 0.78286
USER: genes 2 Torsion [N]-C--CA-[N] |==|  0.56812
USER: genes 3 Torsion [C]-CA--N-[H1] |==|  0.44512
USER: genes 4 Torsion [C]-CA--CB-[CG2] |==|  0.87400
USER: genes 5 Torsion [CA]-CB--CG1-[CD1] |==|  0.22288
USER: genes 6 Torsion [C]-N--CA-[C] |==|  0.41841
USER: genes 7 Torsion [N]-CA--C-[O] |==|  0.95414
USER: genes 8 Torsion [N]-CA--CB-[CG1] |==|  0.28385
ROOT
ATOM      1  C   ILE Z1016      21.478  65.978  13.337  1.00 25.98 LIG 0.25  C 
ATOM      2 O    ILE Z1016      21.661  67.230  13.375  1.00 25.98 LIG-0.27  OA
ATOM      3  N   VAL Z1017      22.434  65.021  13.252  1.00 26.46 LIG-0.34  N 
ATOM      4 H    VAL Z1017      22.257  64.186  13.358  1.00 26.46 LIG 0.16  HD
ENDROOT
BRANCH 1 5
ATOM      5  CA  ILE Z1016      20.035  65.470  13.506  1.00 25.98 LIG 0.28  C 
BRANCH 5 6
ATOM      6  N   ILE Z1016      19.110  66.506  13.000  1.00 25.98 LIG-0.07  N 
ATOM      7 H1   ILE Z1016      18.319  66.138  12.822  1.00 25.98 LIG 0.28  HD
ATOM      8 H2   ILE Z1016      19.009  67.141  13.616  1.00 25.98 LIG 0.28  HD
ATOM      9 H3   ILE Z1016      19.443  66.865  12.257  1.00 25.98 LIG 0.28  HD
ENDBRANCH 5 6
BRANCH 5 10
ATOM     10  CB  ILE Z1016      19.884  64.098  12.761  1.00 25.98 LIG 0.02  C 
ATOM     11  CG2 ILE Z1016      20.526  64.149  11.354  1.00 20.29 LIG 0.01  C 
BRANCH 10 12
ATOM     12  CG1 ILE Z1016      20.385  62.829  13.542  1.00 20.29 LIG 0.00  C 
ATOM     13  CD1 ILE Z1016      19.328  62.366  14.569  1.00 20.29 LIG 0.01  C 
ENDBRANCH 10 12
ENDBRANCH 5 10
ENDBRANCH 1 5
BRANCH 3 14
ATOM     14  CA  VAL Z1017      23.891  65.279  12.970  1.00 26.46 LIG 0.19  C 
BRANCH 14 15
ATOM     15  C   VAL Z1017      24.819  64.234  13.605  1.00 26.46 LIG 0.20  C 
ATOM     16 O    VAL Z1017      24.361  63.490  14.521  1.00 26.46 LIG-0.65  OA
ATOM     17 OXT  VAL Z1017      25.867  63.867  13.002  1.00 31.30 LIG-0.65  OA
ENDBRANCH 14 15
BRANCH 14 18
ATOM     18  CB  VAL Z1017      24.338  66.575  13.582  1.00 26.46 LIG 0.01  C 
ATOM     19  CG1 VAL Z1017      25.110  66.226  14.854  1.00 20.78 LIG 0.01  C 
ATOM     20  CG2 VAL Z1017      25.194  67.417  12.625  1.00 20.78 LIG 0.01  C 
ENDBRANCH 14 18
ENDBRANCH 3 14
TORSDOF 7
ENDMDL
MODEL 11
USER: ADFR SOLUTION from run 167
USER: SCORE 11.009402 LL:  -1.292 LR:  -9.718 RR:   0.000 FEB:  -7.630
USER: RMSD 3.016683
USER: SEED 166
USER: STATUS searching
USER: GENES 9
USER: genes 0 Translation |==|  0.46016 0.44121 0.52923
USER: genes 1 Rotation |==|  0.24794 0.59975 0.53861 0.91836
USER: genes 2 Torsion [N]-C--CA-[N] |==|  0.06903
USER: genes 3 Torsion [C]-CA--N-[H1] |==|  0.50539
USER: genes 4 Torsion [C]-CA--CB-[CG2] |==|  0.51985
USER: genes 5 Torsion [CA]-CB--CG1-[CD1] |==|  0.88140
USER: genes 6 Torsion [C]-N--CA-[C] |==|  0.65678
USER: genes 7 Torsion [N]-CA--C-[O] |==|  0.44986
USER: genes 8 Torsion [N]-CA--CB-[CG1] |==|  0.59831
ROOT
ATOM      1  C   ILE Z1016      20.165  63.226  14.627  1.00 25.98 LIG 0.25  C 
ATOM      2 O    ILE Z1016      20.035  61.987  14.401  1.00 25.98 LIG-0.27  OA
ATOM      3  N   VAL Z1017      21.120  64.047  14.125  1.00 26.46 LIG-0.34  N 
ATOM      4 H    VAL Z1017      21.081  64.902  14.212  1.00 26.46 LIG 0.16  HD
ENDROOT
BRANCH 1 5
ATOM      5  CA  ILE Z1016      19.075  63.907  15.474  1.00 25.98 LIG 0.28  C 
BRANCH 5 6
ATOM      6  N   ILE Z1016      18.977  65.324  15.064  1.00 25.98 LIG-0.07  N 
ATOM      7 H1   ILE Z1016      18.369  65.737  15.565  1.00 25.98 LIG 0.28  HD
ATOM      8 H2   ILE Z1016      19.767  65.719  15.170  1.00 25.98 LIG 0.28  HD
ATOM      9 H3   ILE Z1016      18.735  65.369  14.208  1.00 25.98 LIG 0.28  HD
ENDBRANCH 5 6
BRANCH 5 10
ATOM     10  CB  ILE Z1016      17.726  63.124  15.299  1.00 25.98 LIG 0.02  C 
ATOM     11  CG2 ILE Z1016      16.554  63.865  15.986  1.00 20.29 LIG 0.01  C 
BRANCH 10 12
ATOM     12  CG1 ILE Z1016      17.338  62.740  13.825  1.00 20.29 LIG 0.00  C 
ATOM     13  CD1 ILE Z1016      17.610  63.919  12.863  1.00 20.29 LIG 0.01  C 
ENDBRANCH 10 12
ENDBRANCH 5 10
ENDBRANCH 1 5
BRANCH 3 14
ATOM     14  CA  VAL Z1017      22.340  63.590  13.369  1.00 26.46 LIG 0.19  C 
BRANCH 14 15
ATOM     15  C   VAL Z1017      23.652  64.073  14.001  1.00 26.46 LIG 0.20  C 
ATOM     16 O    VAL Z1017      24.731  63.490  13.683  1.00 26.46 LIG-0.65  OA
ATOM     17 OXT  VAL Z1017      23.722  65.224  14.516  1.00 31.30 LIG-0.65  OA
ENDBRANCH 14 15
BRANCH 14 18
ATOM     18  CB  VAL Z1017      22.370  64.175  11.987  1.00 26.46 LIG 0.01  C 
ATOM     19  CG1 VAL Z1017      22.973  63.115  11.066  1.00 20.78 LIG 0.01  C 
ATOM     20  CG2 VAL Z1017      20.981  64.611  11.500  1.00 20.78 LIG 0.01  C 
ENDBRANCH 14 18
ENDBRANCH 3 14
TORSDOF 7
ENDMDL
MODEL 12
USER: ADFR SOLUTION from run 174
USER: SCORE 10.678491 LL:  -1.304 LR:  -9.374 RR:   0.000 FEB:  -7.286
USER: RMSD 2.287582
USER: SEED 173
USER: STATUS searching
USER: GENES 9
USER: genes 0 Translation |==|  0.48172 0.48786 0.48799
USER: genes 1 Rotation |==|  0.12288 0.56388 0.58495 0.81061
USER: genes 2 Torsion [N]-C--CA-[N] |==|  0.94112
USER: genes 3 Torsion [C]-CA--N-[H1] |==|  0.34825
USER: genes 4 Torsion [C]-CA--CB-[CG2] |==|  0.83780
USER: genes 5 Torsion [CA]-CB--CG1-[CD1] |==|  0.14771
USER: genes 6 Torsion [C]-N--CA-[C] |==|  0.19423
USER: genes 7 Torsion [N]-CA--C-[O] |==|  0.95203
USER: genes 8 Torsion [N]-CA--CB-[CG1] |==|  0.49637
ROOT
ATOM      1  C   ILE Z1016      20.812  64.626  13.390  1.00 25.98 LIG 0.25  C 
ATOM      2 O    ILE Z1016      21.136  63.512  13.898  1.00 25.98 LIG-0.27  OA
ATOM      3  N   VAL Z1017      21.465  65.290  12.405  1.00 26.46 LIG-0.34  N 
ATOM      4 H    VAL Z1017      21.127  65.977  12.014  1.00 26.46 LIG 0.16  HD
ENDROOT
BRANCH 1 5
ATOM      5  CA  ILE Z1016      19.485  65.253  13.854  1.00 25.98 LIG 0.28  C 
BRANCH 5 6
ATOM      6  N   ILE Z1016      19.485  66.683  13.481  1.00 25.98 LIG-0.07  N 
ATOM      7 H1   ILE Z1016      18.759  66.865  13.000  1.00 25.98 LIG 0.28  HD
ATOM      8 H2   ILE Z1016      19.485  67.183  14.218  1.00 25.98 LIG 0.28  HD
ATOM      9 H3   ILE Z1016      20.212  66.865  13.000  1.00 25.98 LIG 0.28  HD
ENDBRANCH 5 6
BRANCH 5 10
ATOM     10  CB  ILE Z1016      18.292  64.455  13.221  1.00 25.98 LIG 0.02  C 
ATOM     11  CG2 ILE Z1016      18.369  64.461  11.676  1.00 20.29 LIG 0.01  C 
BRANCH 10 12
ATOM     12  CG1 ILE Z1016      18.084  62.989  13.750  1.00 20.29 LIG 0.00  C 
ATOM     13  CD1 ILE Z1016      17.985  62.972  15.292  1.00 20.29 LIG 0.01  C 
ENDBRANCH 10 12
ENDBRANCH 5 10
ENDBRANCH 1 5
BRANCH 3 14
ATOM     14  CA  VAL Z1017      22.829  64.927  11.878  1.00 26.46 LIG 0.19  C 
BRANCH 14 15
ATOM     15  C   VAL Z1017      22.832  63.620  11.073  1.00 26.46 LIG 0.20  C 
ATOM     16 O    VAL Z1017      21.853  62.826  11.197  1.00 26.46 LIG-0.65  OA
ATOM     17 OXT  VAL Z1017      23.573  63.503  10.057  1.00 31.30 LIG-0.65  OA
ENDBRANCH 14 15
BRANCH 14 18
ATOM     18  CB  VAL Z1017      23.789  64.659  13.001  1.00 26.46 LIG 0.01  C 
ATOM     19  CG1 VAL Z1017      25.123  64.270  12.365  1.00 20.78 LIG 0.01  C 
ATOM     20  CG2 VAL Z1017      23.949  65.862  13.941  1.00 20.78 LIG 0.01  C 
ENDBRANCH 14 18
ENDBRANCH 3 14
TORSDOF 7
ENDMDL
MODEL 13
USER: ADFR SOLUTION from run 183
USER: SCORE 10.739029 LL:  -1.437 LR:  -9.302 RR:   0.000 FEB:  -7.214
USER: RMSD 2.312673
USER: SEED 182
USER: STATUS searching
USER: GENES 9
USER: genes 0 Translation |==|  0.50146 0.52540 0.48326
USER: genes 1 Rotation |==|  0.92125 0.51164 0.37577 0.73870
USER: genes 2 Torsion [N]-C--CA-[N] |==|  0.61663
USER: genes 3 Torsion [C]-CA--N-[H1] |==|  0.08996
USER: genes 4 Torsion [C]-CA--CB-[CG2] |==|  0.24379
USER: genes 5 Torsion [CA]-CB--CG1-[CD1] |==|  0.20677
USER: genes 6 Torsion [C]-N--CA-[C] |==|  0.56076
USER: genes 7 Torsion [N]-CA--C-[O] |==|  0.64117
USER: genes 8 Torsion [N]-CA--CB-[CG1] |==|  0.74696
ROOT
ATOM      1  C   ILE Z1016      21.404  65.752  13.248  1.00 25.98 LIG 0.25  C 
ATOM      2 O    ILE Z1016      21.838  66.926  13.437  1.00 25.98 LIG-0.27  OA
ATOM      3  N   VAL Z1017      22.128  64.671  12.868  1.00 26.46 LIG-0.34  N 
ATOM      4 H    VAL Z1017      21.802  63.874  12.880  1.00 26.46 LIG 0.16  HD
ENDROOT
BRANCH 1 5
ATOM      5  CA  ILE Z1016      19.925  65.485  13.578  1.00 25.98 LIG 0.28  C 
BRANCH 5 6
ATOM      6  N   ILE Z1016      19.110  66.575  13.001  1.00 25.98 LIG-0.07  N 
ATOM      7 H1   ILE Z1016      19.490  66.865  12.250  1.00 25.98 LIG 0.28  HD
ATOM      8 H2   ILE Z1016      18.293  66.272  12.821  1.00 25.98 LIG 0.28  HD
ATOM      9 H3   ILE Z1016      19.055  67.246  13.583  1.00 25.98 LIG 0.28  HD
ENDBRANCH 5 6
BRANCH 5 10
ATOM     10  CB  ILE Z1016      19.525  64.069  13.035  1.00 25.98 LIG 0.02  C 
ATOM     11  CG2 ILE Z1016      19.821  62.964  14.077  1.00 20.29 LIG 0.01  C 
BRANCH 10 12
ATOM     12  CG1 ILE Z1016      18.056  63.926  12.495  1.00 20.29 LIG 0.00  C 
ATOM     13  CD1 ILE Z1016      17.910  64.615  11.118  1.00 20.29 LIG 0.01  C 
ENDBRANCH 10 12
ENDBRANCH 5 10
ENDBRANCH 1 5
BRANCH 3 14
ATOM     14  CA  VAL Z1017      23.556  64.713  12.389  1.00 26.46 LIG 0.19  C 
BRANCH 14 15
ATOM     15  C   VAL Z1017      23.942  63.490  11.546  1.00 26.46 LIG 0.20  C 
ATOM     16 O    VAL Z1017      24.994  62.852  11.847  1.00 26.46 LIG-0.65  OA
ATOM     17 OXT  VAL Z1017      23.075  62.914  10.830  1.00 31.30 LIG-0.65  OA
ENDBRANCH 14 15
BRANCH 14 18
ATOM     18  CB  VAL Z1017      24.514  64.670  13.544  1.00 26.46 LIG 0.01  C 
ATOM     19  CG1 VAL Z1017      24.801  66.119  13.940  1.00 20.78 LIG 0.01  C 
ATOM     20  CG2 VAL Z1017      23.971  63.865  14.733  1.00 20.78 LIG 0.01  C 
ENDBRANCH 14 18
ENDBRANCH 3 14
TORSDOF 7
ENDMDL
MODEL 14
USER: ADFR SOLUTION from run 6
USER: SCORE 10.682511 LL:  -1.443 LR:  -9.239 RR:   0.000 FEB:  -7.151
USER: RMSD 2.622569
USER: SEED 167861
USER: STATUS searching
USER: GENES 9
USER: genes 0 Translation |==|  0.50262 0.51677 0.48652
USER: genes 1 Rotation |==|  0.79308 0.46708 0.33644 0.86915
USER: genes 2 Torsion [N]-C--CA-[N] |==|  0.50753
USER: genes 3 Torsion [C]-CA--N-[H1] |==|  0.87725
USER: genes 4 Torsion [C]-CA--CB-[CG2] |==|  0.35622
USER: genes 5 Torsion [CA]-CB--CG1-[CD1] |==|  0.20703
USER: genes 6 Torsion [C]-N--CA-[C] |==|  0.20060
USER: genes 7 Torsion [N]-CA--C-[O] |==|  0.00822
USER: genes 8 Torsion [N]-CA--CB-[CG1] |==|  0.52954
ROOT
ATOM      1  C   ILE Z1016      21.439  65.493  13.346  1.00 25.98 LIG 0.25  C 
ATOM      2 O    ILE Z1016      21.921  66.416  12.625  1.00 25.98 LIG-0.27  OA
ATOM      3  N   VAL Z1017      22.062  64.352  13.726  1.00 26.46 LIG-0.34  N 
ATOM      4 H    VAL Z1017      21.730  63.824  14.319  1.00 26.46 LIG 0.16  HD
ENDROOT
BRANCH 1 5
ATOM      5  CA  ILE Z1016      20.039  65.724  13.943  1.00 25.98 LIG 0.28  C 
BRANCH 5 6
ATOM      6  N   ILE Z1016      19.485  66.971  13.375  1.00 25.98 LIG-0.07  N 
ATOM      7 H1   ILE Z1016      20.112  67.602  13.375  1.00 25.98 LIG 0.28  HD
ATOM      8 H2   ILE Z1016      19.214  66.822  12.540  1.00 25.98 LIG 0.28  HD
ATOM      9 H3   ILE Z1016      18.794  67.240  13.867  1.00 25.98 LIG 0.28  HD
ENDBRANCH 5 6
BRANCH 5 10
ATOM     10  CB  ILE Z1016      19.145  64.468  13.653  1.00 25.98 LIG 0.02  C 
ATOM     11  CG2 ILE Z1016      18.481  63.940  14.947  1.00 20.29 LIG 0.01  C 
BRANCH 10 12
ATOM     12  CG1 ILE Z1016      18.068  64.635  12.520  1.00 20.29 LIG 0.00  C 
ATOM     13  CD1 ILE Z1016      18.735  64.615  11.125  1.00 20.29 LIG 0.01  C 
ENDBRANCH 10 12
ENDBRANCH 5 10
ENDBRANCH 1 5
BRANCH 3 14
ATOM     14  CA  VAL Z1017      23.380  63.865  13.182  1.00 26.46 LIG 0.19  C 
BRANCH 14 15
ATOM     15  C   VAL Z1017      24.574  64.693  13.674  1.00 26.46 LIG 0.20  C 
ATOM     16 O    VAL Z1017      24.366  65.630  14.500  1.00 26.46 LIG-0.65  OA
ATOM     17 OXT  VAL Z1017      25.748  64.240  13.565  1.00 31.30 LIG-0.65  OA
ENDBRANCH 14 15
BRANCH 14 18
ATOM     18  CB  VAL Z1017      23.433  64.010  11.688  1.00 26.46 LIG 0.01  C 
ATOM     19  CG1 VAL Z1017      24.673  63.254  11.211  1.00 20.78 LIG 0.01  C 
ATOM     20  CG2 VAL Z1017      22.164  63.490  10.998  1.00 20.78 LIG 0.01  C 
ENDBRANCH 14 18
ENDBRANCH 3 14
TORSDOF 7
ENDMDL
MODEL 15
USER: ADFR SOLUTION from run 185
USER: SCORE 10.550625 LL:  -1.320 LR:  -9.230 RR:   0.000 FEB:  -7.142
USER: RMSD 2.675014
USER: SEED 184
USER: STATUS no improvement in best 118 clusters for 5 generations
USER: GENES 9
USER: genes 0 Translation |==|  0.50335 0.52955 0.48493
USER: genes 1 Rotation |==|  0.45348 0.43798 0.57913 0.98757
USER: genes 2 Torsion [N]-C--CA-[N] |==|  0.23963
USER: genes 3 Torsion [C]-CA--N-[H1] |==|  0.75142
USER: genes 4 Torsion [C]-CA--CB-[CG2] |==|  0.17236
USER: genes 5 Torsion [CA]-CB--CG1-[CD1] |==|  0.71850
USER: genes 6 Torsion [C]-N--CA-[C] |==|  0.26883
USER: genes 7 Torsion [N]-CA--C-[O] |==|  0.89638
USER: genes 8 Torsion [N]-CA--CB-[CG1] |==|  0.44754
ROOT
ATOM      1  C   ILE Z1016      21.461  65.877  13.298  1.00 25.98 LIG 0.25  C 
ATOM      2 O    ILE Z1016      21.953  65.383  12.241  1.00 25.98 LIG-0.27  OA
ATOM      3  N   VAL Z1017      22.050  66.774  14.125  1.00 26.46 LIG-0.34  N 
ATOM      4 H    VAL Z1017      21.618  67.168  14.756  1.00 26.46 LIG 0.16  HD
ENDROOT
BRANCH 1 5
ATOM      5  CA  ILE Z1016      20.005  65.509  13.636  1.00 25.98 LIG 0.28  C 
BRANCH 5 6
ATOM      6  N   ILE Z1016      19.110  66.498  13.000  1.00 25.98 LIG-0.07  N 
ATOM      7 H1   ILE Z1016      18.975  67.179  13.557  1.00 25.98 LIG 0.28  HD
ATOM      8 H2   ILE Z1016      19.485  66.799  12.250  1.00 25.98 LIG 0.28  HD
ATOM      9 H3   ILE Z1016      18.330  66.114  12.808  1.00 25.98 LIG 0.28  HD
ENDBRANCH 5 6
BRANCH 5 10
ATOM     10  CB  ILE Z1016      19.725  64.039  13.166  1.00 25.98 LIG 0.02  C 
ATOM     11  CG2 ILE Z1016      20.633  63.029  13.907  1.00 20.29 LIG 0.01  C 
BRANCH 10 12
ATOM     12  CG1 ILE Z1016      18.226  63.568  13.228  1.00 20.29 LIG 0.00  C 
ATOM     13  CD1 ILE Z1016      17.980  62.687  14.474  1.00 20.29 LIG 0.01  C 
ENDBRANCH 10 12
ENDBRANCH 5 10
ENDBRANCH 1 5
BRANCH 3 14
ATOM     14  CA  VAL Z1017      23.496  67.192  14.056  1.00 26.46 LIG 0.19  C 
BRANCH 14 15
ATOM     15  C   VAL Z1017      23.706  68.497  13.276  1.00 26.46 LIG 0.20  C 
ATOM     16 O    VAL Z1017      22.994  68.716  12.252  1.00 26.46 LIG-0.65  OA
ATOM     17 OXT  VAL Z1017      24.284  69.477  13.825  1.00 31.30 LIG-0.65  OA
ENDBRANCH 14 15
BRANCH 14 18
ATOM     18  CB  VAL Z1017      24.313  66.185  13.298  1.00 26.46 LIG 0.01  C 
ATOM     19  CG1 VAL Z1017      25.602  66.887  12.870  1.00 20.78 LIG 0.01  C 
ATOM     20  CG2 VAL Z1017      24.612  64.925  14.122  1.00 20.78 LIG 0.01  C 
ENDBRANCH 14 18
ENDBRANCH 3 14
TORSDOF 7
ENDMDL
MODEL 16
USER: ADFR SOLUTION from run 91
USER: SCORE 10.107056 LL:  -1.028 LR:  -9.079 RR:   0.000 FEB:  -6.991
USER: RMSD 5.388542
USER: SEED 90
USER: STATUS searching
USER: GENES 9
USER: genes 0 Translation |==|  0.46267 0.48892 0.48852
USER: genes 1 Rotation |==|  0.50130 0.24379 0.14836 0.74638
USER: genes 2 Torsion [N]-C--CA-[N] |==|  0.87496
USER: genes 3 Torsion [C]-CA--N-[H1] |==|  0.53507
USER: genes 4 Torsion [C]-CA--CB-[CG2] |==|  0.13842
USER: genes 5 Torsion [CA]-CB--CG1-[CD1] |==|  0.44914
USER: genes 6 Torsion [C]-N--CA-[C] |==|  0.07283
USER: genes 7 Torsion [N]-CA--C-[O] |==|  0.69324
USER: genes 8 Torsion [N]-CA--CB-[CG1] |==|  0.75485
ROOT
ATOM      1  C   ILE Z1016      20.240  64.657  13.406  1.00 25.98 LIG 0.25  C 
ATOM      2 O    ILE Z1016      20.569  63.740  12.597  1.00 25.98 LIG-0.27  OA
ATOM      3  N   VAL Z1017      19.669  64.499  14.624  1.00 26.46 LIG-0.34  N 
ATOM      4 H    VAL Z1017      19.587  65.150  15.180  1.00 26.46 LIG 0.16  HD
ENDROOT
BRANCH 1 5
ATOM      5  CA  ILE Z1016      20.614  66.101  13.024  1.00 25.98 LIG 0.28  C 
BRANCH 5 6
ATOM      6  N   ILE Z1016      19.485  66.988  13.375  1.00 25.98 LIG-0.07  N 
ATOM      7 H1   ILE Z1016      19.606  67.786  13.000  1.00 25.98 LIG 0.28  HD
ATOM      8 H2   ILE Z1016      18.725  66.632  13.078  1.00 25.98 LIG 0.28  HD
ATOM      9 H3   ILE Z1016      19.443  67.080  14.260  1.00 25.98 LIG 0.28  HD
ENDBRANCH 5 6
BRANCH 5 10
ATOM     10  CB  ILE Z1016      21.949  66.493  13.749  1.00 25.98 LIG 0.02  C 
ATOM     11  CG2 ILE Z1016      23.039  65.414  13.542  1.00 20.29 LIG 0.01  C 
BRANCH 10 12
ATOM     12  CG1 ILE Z1016      22.524  67.917  13.414  1.00 20.29 LIG 0.00  C 
ATOM     13  CD1 ILE Z1016      23.540  68.365  14.490  1.00 20.29 LIG 0.01  C 
ENDBRANCH 10 12
ENDBRANCH 5 10
ENDBRANCH 1 5
BRANCH 3 14
ATOM     14  CA  VAL Z1017      19.120  63.201  15.158  1.00 26.46 LIG 0.19  C 
BRANCH 14 15
ATOM     15  C   VAL Z1017      19.787  61.967  14.536  1.00 26.46 LIG 0.20  C 
ATOM     16 O    VAL Z1017      19.110  61.240  13.750  1.00 26.46 LIG-0.65  OA
ATOM     17 OXT  VAL Z1017      21.046  61.878  14.500  1.00 31.30 LIG-0.65  OA
ENDBRANCH 14 15
BRANCH 14 18
ATOM     18  CB  VAL Z1017      17.669  63.043  14.802  1.00 26.46 LIG 0.01  C 
ATOM     19  CG1 VAL Z1017      16.861  63.705  15.918  1.00 20.78 LIG 0.01  C 
ATOM     20  CG2 VAL Z1017      17.327  63.646  13.433  1.00 20.78 LIG 0.01  C 
ENDBRANCH 14 18
ENDBRANCH 3 14
TORSDOF 7
ENDMDL
MODEL 17
USER: ADFR SOLUTION from run 4
USER: SCORE 10.438712 LL:  -1.365 LR:  -9.073 RR:   0.000 FEB:  -6.985
USER: RMSD 3.338469
USER: SEED 211747
USER: STATUS searching
USER: GENES 9
USER: genes 0 Translation |==|  0.46694 0.48628 0.44041
USER: genes 1 Rotation |==|  0.52350 0.64535 0.34841 0.95314
USER: genes 2 Torsion [N]-C--CA-[N] |==|  0.35634
USER: genes 3 Torsion [C]-CA--N-[H1] |==|  0.56011
USER: genes 4 Torsion [C]-CA--CB-[CG2] |==|  0.81185
USER: genes 5 Torsion [CA]-CB--CG1-[CD1] |==|  0.50047
USER: genes 6 Torsion [C]-N--CA-[C] |==|  0.85295
USER: genes 7 Torsion [N]-CA--C-[O] |==|  0.48376
USER: genes 8 Torsion [N]-CA--CB-[CG1] |==|  0.57040
ROOT
ATOM      1  C   ILE Z1016      20.368  64.578  11.962  1.00 25.98 LIG 0.25  C 
ATOM      2 O    ILE Z1016      19.594  64.563  10.960  1.00 25.98 LIG-0.27  OA
ATOM      3  N   VAL Z1017      21.682  64.245  11.978  1.00 26.46 LIG-0.34  N 
ATOM      4 H    VAL Z1017      22.185  64.398  12.659  1.00 26.46 LIG 0.16  HD
ENDROOT
BRANCH 1 5
ATOM      5  CA  ILE Z1016      19.800  65.128  13.283  1.00 25.98 LIG 0.28  C 
BRANCH 5 6
ATOM      6  N   ILE Z1016      19.110  66.404  13.003  1.00 25.98 LIG-0.07  N 
ATOM      7 H1   ILE Z1016      19.053  66.883  13.751  1.00 25.98 LIG 0.28  HD
ATOM      8 H2   ILE Z1016      19.568  66.862  12.392  1.00 25.98 LIG 0.28  HD
ATOM      9 H3   ILE Z1016      18.291  66.238  12.695  1.00 25.98 LIG 0.28  HD
ENDBRANCH 5 6
BRANCH 5 10
ATOM     10  CB  ILE Z1016      18.857  64.050  13.924  1.00 25.98 LIG 0.02  C 
ATOM     11  CG2 ILE Z1016      17.581  63.843  13.073  1.00 20.29 LIG 0.01  C 
BRANCH 10 12
ATOM     12  CG1 ILE Z1016      19.520  62.663  14.255  1.00 20.29 LIG 0.00  C 
ATOM     13  CD1 ILE Z1016      18.485  61.696  14.875  1.00 20.29 LIG 0.01  C 
ENDBRANCH 10 12
ENDBRANCH 5 10
ENDBRANCH 1 5
BRANCH 3 14
ATOM     14  CA  VAL Z1017      22.419  63.584  10.842  1.00 26.46 LIG 0.19  C 
BRANCH 14 15
ATOM     15  C   VAL Z1017      21.734  62.303  10.349  1.00 26.46 LIG 0.20  C 
ATOM     16 O    VAL Z1017      22.198  61.720   9.325  1.00 26.46 LIG-0.65  OA
ATOM     17 OXT  VAL Z1017      20.985  61.645  11.125  1.00 31.30 LIG-0.65  OA
ENDBRANCH 14 15
BRANCH 14 18
ATOM     18  CB  VAL Z1017      23.778  63.120  11.278  1.00 26.46 LIG 0.01  C 
ATOM     19  CG1 VAL Z1017      24.656  63.072  10.028  1.00 20.78 LIG 0.01  C 
ATOM     20  CG2 VAL Z1017      24.394  64.024  12.356  1.00 20.78 LIG 0.01  C 
ENDBRANCH 14 18
ENDBRANCH 3 14
TORSDOF 7
ENDMDL
MODEL 18
USER: ADFR SOLUTION from run 181
USER: SCORE 10.414268 LL:  -1.350 LR:  -9.064 RR:   0.000 FEB:  -6.976
USER: RMSD 6.195902
USER: SEED 180
USER: STATUS no improvement in best 118 clusters for 5 generations
USER: GENES 9
USER: genes 0 Translation |==|  0.66087 0.49798 0.44944
USER: genes 1 Rotation |==|  0.19572 0.81601 0.61370 0.71124
USER: genes 2 Torsion [N]-C--CA-[N] |==|  0.87827
USER: genes 3 Torsion [C]-CA--N-[H1] |==|  0.05100
USER: genes 4 Torsion [C]-CA--CB-[CG2] |==|  0.17576
USER: genes 5 Torsion [CA]-CB--CG1-[CD1] |==|  0.58281
USER: genes 6 Torsion [C]-N--CA-[C] |==|  0.56752
USER: genes 7 Torsion [N]-CA--C-[O] |==|  0.69613
USER: genes 8 Torsion [N]-CA--CB-[CG1] |==|  0.54632
ROOT
ATOM      1  C   ILE Z1016      26.186  64.929  12.233  1.00 25.98 LIG 0.25  C 
ATOM      2 O    ILE Z1016      26.235  63.865  12.918  1.00 25.98 LIG-0.27  OA
ATOM      3  N   VAL Z1017      26.012  65.025  10.893  1.00 26.46 LIG-0.34  N 
ATOM      4 H    VAL Z1017      25.860  65.776  10.502  1.00 26.46 LIG 0.16  HD
ENDROOT
BRANCH 1 5
ATOM      5  CA  ILE Z1016      26.224  66.263  13.000  1.00 25.98 LIG 0.28  C 
BRANCH 5 6
ATOM      6  N   ILE Z1016      27.065  67.216  12.245  1.00 25.98 LIG-0.07  N 
ATOM      7 H1   ILE Z1016      27.153  66.934  11.405  1.00 25.98 LIG 0.28  HD
ATOM      8 H2   ILE Z1016      26.681  68.019  12.250  1.00 25.98 LIG 0.28  HD
ATOM      9 H3   ILE Z1016      27.868  67.269  12.625  1.00 25.98 LIG 0.28  HD
ENDBRANCH 5 6
BRANCH 5 10
ATOM     10  CB  ILE Z1016      24.756  66.776  13.210  1.00 25.98 LIG 0.02  C 
ATOM     11  CG2 ILE Z1016      23.940  65.798  14.089  1.00 20.29 LIG 0.01  C 
BRANCH 10 12
ATOM     12  CG1 ILE Z1016      24.608  68.244  13.750  1.00 20.29 LIG 0.00  C 
ATOM     13  CD1 ILE Z1016      23.318  68.392  14.589  1.00 20.29 LIG 0.01  C 
ENDBRANCH 10 12
ENDBRANCH 5 10
ENDBRANCH 1 5
BRANCH 3 14
ATOM     14  CA  VAL Z1017      26.059  63.865   9.931  1.00 26.46 LIG 0.19  C 
BRANCH 14 15
ATOM     15  C   VAL Z1017      26.420  64.286   8.501  1.00 26.46 LIG 0.20  C 
ATOM     16 O    VAL Z1017      25.523  64.240   7.608  1.00 26.46 LIG-0.65  OA
ATOM     17 OXT  VAL Z1017      27.441  64.999   8.288  1.00 31.30 LIG-0.65  OA
ENDBRANCH 14 15
BRANCH 14 18
ATOM     18  CB  VAL Z1017      24.707  63.228   9.788  1.00 26.46 LIG 0.01  C 
ATOM     19  CG1 VAL Z1017      24.926  61.853   9.157  1.00 20.78 LIG 0.01  C 
ATOM     20  CG2 VAL Z1017      23.962  63.115  11.125  1.00 20.78 LIG 0.01  C 
ENDBRANCH 14 18
ENDBRANCH 3 14
TORSDOF 7
ENDMDL
MODEL 19
USER: ADFR SOLUTION from run 144
USER: SCORE 10.216087 LL:  -1.382 LR:  -8.834 RR:   0.000 FEB:  -6.746
USER: RMSD 3.310443
USER: SEED 143
USER: STATUS searching
USER: GENES 9
USER: genes 0 Translation |==|  0.49187 0.50695 0.49713
USER: genes 1 Rotation |==|  0.16327 0.35497 0.54035 0.83757
USER: genes 2 Torsion [N]-C--CA-[N] |==|  0.95440
USER: genes 3 Torsion [C]-CA--N-[H1] |==|  0.82210
USER: genes 4 Torsion [C]-CA--CB-[CG2] |==|  0.59014
USER: genes 5 Torsion [CA]-CB--CG1-[CD1] |==|  0.32720
USER: genes 6 Torsion [C]-N--CA-[C] |==|  0.57365
USER: genes 7 Torsion [N]-CA--C-[O] |==|  0.33622
USER: genes 8 Torsion [N]-CA--CB-[CG1] |==|  0.49627
ROOT
ATOM      1  C   ILE Z1016      21.116  65.198  13.664  1.00 25.98 LIG 0.25  C 
ATOM      2 O    ILE Z1016      21.670  64.157  14.125  1.00 25.98 LIG-0.27  OA
ATOM      3  N   VAL Z1017      21.706  66.396  13.429  1.00 26.46 LIG-0.34  N 
ATOM      4 H    VAL Z1017      21.310  67.025  12.997  1.00 26.46 LIG 0.16  HD
ENDROOT
BRANCH 1 5
ATOM      5  CA  ILE Z1016      19.646  65.078  13.223  1.00 25.98 LIG 0.28  C 
BRANCH 5 6
ATOM      6  N   ILE Z1016      19.110  66.438  13.000  1.00 25.98 LIG-0.07  N 
ATOM      7 H1   ILE Z1016      19.108  66.887  13.769  1.00 25.98 LIG 0.28  HD
ATOM      8 H2   ILE Z1016      19.620  66.865  12.408  1.00 25.98 LIG 0.28  HD
ATOM      9 H3   ILE Z1016      18.278  66.382  12.688  1.00 25.98 LIG 0.28  HD
ENDBRANCH 5 6
BRANCH 5 10
ATOM     10  CB  ILE Z1016      19.567  64.172  11.945  1.00 25.98 LIG 0.02  C 
ATOM     11  CG2 ILE Z1016      18.414  64.615  11.013  1.00 20.29 LIG 0.01  C 
BRANCH 10 12
ATOM     12  CG1 ILE Z1016      20.899  64.017  11.125  1.00 20.29 LIG 0.00  C 
ATOM     13  CD1 ILE Z1016      21.360  62.541  11.105  1.00 20.29 LIG 0.01  C 
ENDBRANCH 10 12
ENDBRANCH 5 10
ENDBRANCH 1 5
BRANCH 3 14
ATOM     14  CA  VAL Z1017      23.093  66.777  13.878  1.00 26.46 LIG 0.19  C 
BRANCH 14 15
ATOM     15  C   VAL Z1017      23.267  68.290  14.068  1.00 26.46 LIG 0.20  C 
ATOM     16 O    VAL Z1017      23.610  68.725  15.207  1.00 26.46 LIG-0.65  OA
ATOM     17 OXT  VAL Z1017      23.433  69.039  13.065  1.00 31.30 LIG-0.65  OA
ENDBRANCH 14 15
BRANCH 14 18
ATOM     18  CB  VAL Z1017      24.114  66.426  12.834  1.00 26.46 LIG 0.01  C 
ATOM     19  CG1 VAL Z1017      25.472  66.880  13.368  1.00 20.78 LIG 0.01  C 
ATOM     20  CG2 VAL Z1017      24.121  64.929  12.495  1.00 20.78 LIG 0.01  C 
ENDBRANCH 14 18
ENDBRANCH 3 14
TORSDOF 7
ENDMDL
MODEL 20
USER: ADFR SOLUTION from run 33
USER: SCORE 9.968841 LL:  -1.293 LR:  -8.676 RR:   0.000 FEB:  -6.588
USER: RMSD 2.113246
USER: SEED 32
USER: STATUS searching
USER: GENES 9
USER: genes 0 Translation |==|  0.49120 0.47863 0.47406
USER: genes 1 Rotation |==|  0.48450 0.52244 0.66839 0.97000
USER: genes 2 Torsion [N]-C--CA-[N] |==|  0.89477
USER: genes 3 Torsion [C]-CA--N-[H1] |==|  0.29052
USER: genes 4 Torsion [C]-CA--CB-[CG2] |==|  0.15297
USER: genes 5 Torsion [CA]-CB--CG1-[CD1] |==|  0.94587
USER: genes 6 Torsion [C]-N--CA-[C] |==|  0.74197
USER: genes 7 Torsion [N]-CA--C-[O] |==|  0.50626
USER: genes 8 Torsion [N]-CA--CB-[CG1] |==|  0.22923
ROOT
ATOM      1  C   ILE Z1016      21.096  64.349  12.972  1.00 25.98 LIG 0.25  C 
ATOM      2 O    ILE Z1016      21.302  63.998  11.772  1.00 25.98 LIG-0.27  OA
ATOM      3  N   VAL Z1017      21.615  65.430  13.602  1.00 26.46 LIG-0.34  N 
ATOM      4 H    VAL Z1017      21.339  65.687  14.375  1.00 26.46 LIG 0.16  HD
ENDROOT
BRANCH 1 5
ATOM      5  CA  ILE Z1016      20.072  63.531  13.779  1.00 25.98 LIG 0.28  C 
BRANCH 5 6
ATOM      6  N   ILE Z1016      20.511  63.490  15.190  1.00 25.98 LIG-0.07  N 
ATOM      7 H1   ILE Z1016      20.008  64.042  15.674  1.00 25.98 LIG 0.28  HD
ATOM      8 H2   ILE Z1016      20.426  62.661  15.503  1.00 25.98 LIG 0.28  HD
ATOM      9 H3   ILE Z1016      21.363  63.742  15.244  1.00 25.98 LIG 0.28  HD
ENDBRANCH 5 6
BRANCH 5 10
ATOM     10  CB  ILE Z1016      18.650  64.169  13.598  1.00 25.98 LIG 0.02  C 
ATOM     11  CG2 ILE Z1016      18.273  64.287  12.102  1.00 20.29 LIG 0.01  C 
BRANCH 10 12
ATOM     12  CG1 ILE Z1016      17.482  63.489  14.401  1.00 20.29 LIG 0.00  C 
ATOM     13  CD1 ILE Z1016      17.871  62.053  14.822  1.00 20.29 LIG 0.01  C 
ENDBRANCH 10 12
ENDBRANCH 5 10
ENDBRANCH 1 5
BRANCH 3 14
ATOM     14  CA  VAL Z1017      22.713  66.305  13.052  1.00 26.46 LIG 0.19  C 
BRANCH 14 15
ATOM     15  C   VAL Z1017      24.112  65.870  13.510  1.00 26.46 LIG 0.20  C 
ATOM     16 O    VAL Z1017      25.112  66.556  13.146  1.00 26.46 LIG-0.65  OA
ATOM     17 OXT  VAL Z1017      24.243  65.097  14.501  1.00 31.30 LIG-0.65  OA
ENDBRANCH 14 15
BRANCH 14 18
ATOM     18  CB  VAL Z1017      22.589  67.711  13.563  1.00 26.46 LIG 0.01  C 
ATOM     19  CG1 VAL Z1017      23.235  67.741  14.948  1.00 20.78 LIG 0.01  C 
ATOM     20  CG2 VAL Z1017      23.235  68.740  12.625  1.00 20.78 LIG 0.01  C 
ENDBRANCH 14 18
ENDBRANCH 3 14
TORSDOF 7
ENDMDL
