MODEL 1
USER: ADFR SOLUTION from run 25
USER: SCORE 14.847375 LL:  -2.416 LR: -12.666 RR:   0.000 FEB:  -9.981
USER: RMSD 1.255849
USER: SEED 24
USER: STATUS 1 or 2 clusters left
USER: GENES 11
USER: genes 0 Translation |==|  0.56866 0.51535 0.52045
USER: genes 1 Rotation |==|  0.49970 0.51384 0.46687 0.99871
USER: genes 2 Torsion [N]-CA--C-[O] |==|  0.97547
USER: genes 3 Torsion [C]-N--CA-[CB] |==|  0.33768
USER: genes 4 Torsion [N]-CA--CB-[CG] |==|  0.79688
USER: genes 5 Torsion [CA]-CB--CG-[CD1] |==|  0.84766
USER: genes 6 Torsion [CE1]-CZ--OH-[HH] |==|  0.80311
USER: genes 7 Torsion [N]-CA--C-[O] |==|  0.08941
USER: genes 8 Torsion [N]-C--CA-[N] |==|  0.42316
USER: genes 9 Torsion [C]-CA--N-[C] |==|  0.63035
USER: genes 10 Torsion [N]-C--CA-[N] |==|  0.52555
ROOT
ATOM      1  N   PRO P   2     -15.990  25.120  23.494  1.00 14.82 LIG-0.34  N 
ATOM      2  CA  PRO P   2     -15.066  23.989  23.529  1.00 14.93 LIG 0.18  C 
ATOM      3  CB  PRO P   2     -13.715  24.563  23.907  1.00 16.92 LIG 0.04  C 
ATOM      4  CG  PRO P   2     -13.894  26.058  24.021  1.00 18.84 LIG 0.02  C 
ATOM      5  CD  PRO P   2     -15.391  26.353  24.043  1.00 20.22 LIG 0.13  C 
ATOM      6  C   ALA P   3     -17.207  24.976  22.965  1.00 17.18 LIG 0.24  C 
ATOM      7 O    ALA P   3     -17.669  23.903  22.506  1.00 13.58 LIG-0.27  OA
ENDROOT
BRANCH 2 8
ATOM      8  C   PRO P   2     -15.589  22.993  24.545  1.00 18.07 LIG 0.24  C 
ATOM      9  N   TYR P   1     -15.006  21.813  24.578  1.00 10.00 LIG-0.34  N 
ATOM     10 H    TYR P   1     -14.377  21.547  24.055  1.00 10.00 LIG 0.16  HD
ATOM     11 O    PRO P   2     -16.561  23.338  25.282  1.00 18.25 LIG-0.27  OA
BRANCH 9 12
ATOM     12  CA  TYR P   1     -15.459  20.845  25.601  1.00 13.52 LIG 0.19  C 
BRANCH 12 13
ATOM     13  CB  TYR P   1     -15.942  19.594  24.910  1.00 19.13 LIG 0.07  C 
BRANCH 13 14
ATOM     14  CG  TYR P   1     -17.266  19.720  24.204  1.00 19.60 LIG-0.06  A 
ATOM     15  CD1 TYR P   1     -18.425  20.160  24.840  1.00 21.46 LIG 0.01  A 
ATOM     16  CE1 TYR P   1     -19.650  20.242  24.139  1.00 23.96 LIG 0.04  A 
ATOM     17  CZ  TYR P   1     -19.694  19.853  22.812  1.00 27.70 LIG 0.07  A 
ATOM     18  CE2 TYR P   1     -18.541  19.410  22.158  1.00 27.12 LIG 0.04  A 
ATOM     19  CD2 TYR P   1     -17.335  19.333  22.864  1.00 19.18 LIG 0.01  A 
BRANCH 17 20
ATOM     20 OH   TYR P   1     -20.840  19.896  22.055  1.00 32.50 LIG-0.36  OA
ATOM     21 HH   TYR P   1     -21.370  19.298  22.315  1.00 32.50 LIG 0.22  HD
ENDBRANCH 17 20
ENDBRANCH 13 14
ENDBRANCH 12 13
BRANCH 12 22
ATOM     22  C   TYR P   1     -14.315  20.614  26.630  1.00 14.95 LIG 0.20  C 
ATOM     23 O    TYR P   1     -13.550  21.621  26.853  1.00 13.05 LIG-0.65  OA
ATOM     24 OXT  TYR P   1     -13.925  19.454  27.080  1.00 12.36 LIG-0.65  OA
ENDBRANCH 12 22
ENDBRANCH 9 12
ENDBRANCH 2 8
BRANCH 6 25
ATOM     25  CA  ALA P   3     -18.049  26.239  22.991  1.00 19.37 LIG 0.17  C 
ATOM     26  CB  ALA P   3     -18.808  26.287  24.320  1.00 20.42 LIG 0.04  C 
BRANCH 25 27
ATOM     27  N   ALA P   3     -19.019  26.216  21.876  1.00 19.05 LIG-0.35  N 
ATOM     28 H    ALA P   3     -19.439  25.469  21.798  1.00 19.05 LIG 0.16  HD
ATOM     29  C   PRO P   4     -19.221  27.246  21.077  1.00 21.72 LIG 0.24  C 
ATOM     30 O    PRO P   4     -18.618  28.362  21.201  1.00 18.44 LIG-0.27  OA
BRANCH 29 31
ATOM     31  CA  PRO P   4     -20.259  27.000  20.010  1.00 25.21 LIG 0.18  C 
ATOM     32  N   PRO P   4     -20.235  28.122  19.059  1.00 32.27 LIG-0.34  N 
ATOM     33  CD  PRO P   4     -19.655  27.734  17.751  1.00 30.21 LIG 0.13  C 
ATOM     34  C   ACE P   5     -20.626  29.336  19.491  1.00 41.02 LIG 0.22  C 
ATOM     35  CG  PRO P   4     -19.175  26.292  17.994  1.00 29.86 LIG 0.02  C 
ATOM     36  CB  PRO P   4     -20.037  25.785  19.123  1.00 29.41 LIG 0.04  C 
ATOM     37 O    ACE P   5     -20.934  29.570  20.674  1.00 36.79 LIG-0.27  OA
ATOM     38  CH3 ACE P   5     -20.675  30.400  18.431  1.00 44.01 LIG 0.12  C 
ENDBRANCH 29 31
ENDBRANCH 25 27
ENDBRANCH 6 25
TORSDOF 9
ENDMDL
MODEL 2
USER: ADFR SOLUTION from run 54
USER: SCORE 13.193271 LL:  -2.647 LR: -10.892 RR:   0.000 FEB:  -8.207
USER: RMSD 2.038258
USER: SEED 53
USER: STATUS no improvement in best 1 clusters for 5 generations
USER: GENES 11
USER: genes 0 Translation |==|  0.55432 0.52270 0.53113
USER: genes 1 Rotation |==|  0.55379 0.56802 0.43571 0.98821
USER: genes 2 Torsion [N]-CA--C-[O] |==|  0.06421
USER: genes 3 Torsion [C]-N--CA-[CB] |==|  0.29841
USER: genes 4 Torsion [N]-CA--CB-[CG] |==|  0.78100
USER: genes 5 Torsion [CA]-CB--CG-[CD1] |==|  0.86779
USER: genes 6 Torsion [CE1]-CZ--OH-[HH] |==|  0.76498
USER: genes 7 Torsion [N]-CA--C-[O] |==|  0.05454
USER: genes 8 Torsion [N]-C--CA-[N] |==|  0.33514
USER: genes 9 Torsion [C]-CA--N-[C] |==|  0.69652
USER: genes 10 Torsion [N]-C--CA-[N] |==|  0.96753
ROOT
ATOM      1  N   PRO P   2     -16.420  25.341  23.814  1.00 14.82 LIG-0.34  N 
ATOM      2  CA  PRO P   2     -15.692  24.140  23.411  1.00 14.93 LIG 0.18  C 
ATOM      3  CB  PRO P   2     -14.221  24.458  23.601  1.00 16.92 LIG 0.04  C 
ATOM      4  CG  PRO P   2     -14.143  25.894  24.062  1.00 18.84 LIG 0.02  C 
ATOM      5  CD  PRO P   2     -15.547  26.335  24.468  1.00 20.22 LIG 0.13  C 
ATOM      6  C   ALA P   3     -17.721  25.459  23.541  1.00 17.18 LIG 0.24  C 
ATOM      7 O    ALA P   3     -18.420  24.582  22.977  1.00 13.58 LIG-0.27  OA
ENDROOT
BRANCH 2 8
ATOM      8  C   PRO P   2     -16.165  22.994  24.283  1.00 18.07 LIG 0.24  C 
ATOM      9  N   TYR P   1     -15.357  21.962  24.401  1.00 10.00 LIG-0.34  N 
ATOM     10 H    TYR P   1     -14.600  21.866  24.004  1.00 10.00 LIG 0.16  HD
ATOM     11 O    PRO P   2     -17.307  23.082  24.827  1.00 18.25 LIG-0.27  OA
BRANCH 9 12
ATOM     12  CA  TYR P   1     -15.771  20.857  25.295  1.00 13.52 LIG 0.19  C 
BRANCH 12 13
ATOM     13  CB  TYR P   1     -16.173  19.672  24.453  1.00 19.13 LIG 0.07  C 
BRANCH 13 14
ATOM     14  CG  TYR P   1     -17.549  19.751  23.846  1.00 19.60 LIG-0.06  A 
ATOM     15  CD1 TYR P   1     -18.680  20.111  24.578  1.00 21.46 LIG 0.01  A 
ATOM     16  CE1 TYR P   1     -19.954  20.152  23.968  1.00 23.96 LIG 0.04  A 
ATOM     17  CZ  TYR P   1     -20.075  19.803  22.635  1.00 27.70 LIG 0.07  A 
ATOM     18  CE2 TYR P   1     -18.952  19.440  21.886  1.00 27.12 LIG 0.04  A 
ATOM     19  CD2 TYR P   1     -17.695  19.403  22.502  1.00 19.18 LIG 0.01  A 
BRANCH 17 20
ATOM     20 OH   TYR P   1     -21.274  19.810  21.963  1.00 32.50 LIG-0.36  OA
ATOM     21 HH   TYR P   1     -21.674  19.083  22.096  1.00 32.50 LIG 0.22  HD
ENDBRANCH 17 20
ENDBRANCH 13 14
ENDBRANCH 12 13
BRANCH 12 22
ATOM     22  C   TYR P   1     -14.630  20.568  26.314  1.00 14.95 LIG 0.20  C 
ATOM     23 O    TYR P   1     -13.775  21.512  26.479  1.00 13.05 LIG-0.65  OA
ATOM     24 OXT  TYR P   1     -14.336  19.399  26.809  1.00 12.36 LIG-0.65  OA
ENDBRANCH 12 22
ENDBRANCH 9 12
ENDBRANCH 2 8
BRANCH 6 25
ATOM     25  CA  ALA P   3     -18.339  26.763  24.013  1.00 19.37 LIG 0.17  C 
ATOM     26  CB  ALA P   3     -19.460  26.437  25.003  1.00 20.42 LIG 0.04  C 
BRANCH 25 27
ATOM     27  N   ALA P   3     -18.904  27.495  22.860  1.00 19.05 LIG-0.35  N 
ATOM     28 H    ALA P   3     -19.611  27.130  22.531  1.00 19.05 LIG 0.16  HD
ATOM     29  C   PRO P   4     -18.373  28.603  22.380  1.00 21.72 LIG 0.24  C 
ATOM     30 O    PRO P   4     -17.340  29.159  22.876  1.00 18.44 LIG-0.27  OA
BRANCH 29 31
ATOM     31  CA  PRO P   4     -19.118  29.180  21.203  1.00 25.21 LIG 0.18  C 
ATOM     32  N   PRO P   4     -20.094  28.187  20.726  1.00 32.27 LIG-0.34  N 
ATOM     33  CD  PRO P   4     -21.488  28.576  21.046  1.00 30.21 LIG 0.13  C 
ATOM     34  C   ACE P   5     -19.631  27.049  20.175  1.00 41.02 LIG 0.22  C 
ATOM     35  CG  PRO P   4     -21.313  29.843  21.899  1.00 29.86 LIG 0.02  C 
ATOM     36  CB  PRO P   4     -19.975  30.404  21.484  1.00 29.41 LIG 0.04  C 
ATOM     37 O    ACE P   5     -18.421  26.764  20.117  1.00 36.79 LIG-0.27  OA
ATOM     38  CH3 ACE P   5     -20.689  26.140  19.616  1.00 44.01 LIG 0.12  C 
ENDBRANCH 29 31
ENDBRANCH 25 27
ENDBRANCH 6 25
TORSDOF 9
ENDMDL
MODEL 3
USER: ADFR SOLUTION from run 140
USER: SCORE 12.947856 LL:  -2.477 LR: -10.766 RR:   0.000 FEB:  -8.081
USER: RMSD 10.063980
USER: SEED 139
USER: STATUS no improvement in best 32 clusters for 5 generations
USER: GENES 11
USER: genes 0 Translation |==|  0.62509 0.42788 0.67805
USER: genes 1 Rotation |==|  0.80289 0.89350 0.47344 0.55206
USER: genes 2 Torsion [N]-CA--C-[O] |==|  0.45156
USER: genes 3 Torsion [C]-N--CA-[CB] |==|  0.20509
USER: genes 4 Torsion [N]-CA--CB-[CG] |==|  0.58677
USER: genes 5 Torsion [CA]-CB--CG-[CD1] |==|  0.20311
USER: genes 6 Torsion [CE1]-CZ--OH-[HH] |==|  0.81347
USER: genes 7 Torsion [N]-CA--C-[O] |==|  0.05610
USER: genes 8 Torsion [N]-C--CA-[N] |==|  0.47717
USER: genes 9 Torsion [C]-CA--N-[C] |==|  0.83889
USER: genes 10 Torsion [N]-C--CA-[N] |==|  0.47568
ROOT
ATOM      1  N   PRO P   2     -14.297  22.496  28.221  1.00 14.82 LIG-0.34  N 
ATOM      2  CA  PRO P   2     -15.513  23.218  27.850  1.00 14.93 LIG 0.18  C 
ATOM      3  CB  PRO P   2     -15.051  24.487  27.160  1.00 16.92 LIG 0.04  C 
ATOM      4  CG  PRO P   2     -13.542  24.487  27.211  1.00 18.84 LIG 0.02  C 
ATOM      5  CD  PRO P   2     -13.085  23.090  27.622  1.00 20.22 LIG 0.13  C 
ATOM      6  C   ALA P   3     -14.364  21.453  29.051  1.00 17.18 LIG 0.24  C 
ATOM      7 O    ALA P   3     -15.425  20.988  29.537  1.00 13.58 LIG-0.27  OA
ENDROOT
BRANCH 2 8
ATOM      8  C   PRO P   2     -16.330  22.318  26.945  1.00 18.07 LIG 0.24  C 
ATOM      9  N   TYR P   1     -15.697  21.315  26.373  1.00 10.00 LIG-0.34  N 
ATOM     10 H    TYR P   1     -14.857  21.143  26.442  1.00 10.00 LIG 0.16  HD
ATOM     11 O    PRO P   2     -17.556  22.589  26.772  1.00 18.25 LIG-0.27  OA
BRANCH 9 12
ATOM     12  CA  TYR P   1     -16.486  20.387  25.532  1.00 13.52 LIG 0.19  C 
BRANCH 12 13
ATOM     13  CB  TYR P   1     -16.825  21.074  24.233  1.00 19.13 LIG 0.07  C 
BRANCH 13 14
ATOM     14  CG  TYR P   1     -18.131  20.662  23.608  1.00 19.60 LIG-0.06  A 
ATOM     15  CD1 TYR P   1     -19.369  21.051  24.117  1.00 21.46 LIG 0.01  A 
ATOM     16  CE1 TYR P   1     -20.570  20.622  23.507  1.00 23.96 LIG 0.04  A 
ATOM     17  CZ  TYR P   1     -20.505  19.785  22.408  1.00 27.70 LIG 0.07  A 
ATOM     18  CE2 TYR P   1     -19.273  19.386  21.883  1.00 27.12 LIG 0.04  A 
ATOM     19  CD2 TYR P   1     -18.091  19.817  22.497  1.00 19.18 LIG 0.01  A 
BRANCH 17 20
ATOM     20 OH   TYR P   1     -21.621  19.317  21.755  1.00 32.50 LIG-0.36  OA
ATOM     21 HH   TYR P   1     -22.042  18.794  22.260  1.00 32.50 LIG 0.22  HD
ENDBRANCH 17 20
ENDBRANCH 13 14
ENDBRANCH 12 13
BRANCH 12 22
ATOM     22  C   TYR P   1     -15.704  19.051  25.372  1.00 14.95 LIG 0.20  C 
ATOM     23 O    TYR P   1     -14.800  18.822  26.255  1.00 13.05 LIG-0.65  OA
ATOM     24 OXT  TYR P   1     -15.715  18.290  24.314  1.00 12.36 LIG-0.65  OA
ENDBRANCH 12 22
ENDBRANCH 9 12
ENDBRANCH 2 8
BRANCH 6 25
ATOM     25  CA  ALA P   3     -13.022  20.811  29.351  1.00 19.37 LIG 0.17  C 
ATOM     26  CB  ALA P   3     -12.520  20.123  28.079  1.00 20.42 LIG 0.04  C 
BRANCH 25 27
ATOM     27  N   ALA P   3     -13.178  19.803  30.421  1.00 19.05 LIG-0.35  N 
ATOM     28 H    ALA P   3     -12.929  19.013  30.191  1.00 19.05 LIG 0.16  HD
ATOM     29  C   PRO P   4     -13.655  20.091  31.616  1.00 21.72 LIG 0.24  C 
ATOM     30 O    PRO P   4     -14.005  21.264  31.970  1.00 18.44 LIG-0.27  OA
BRANCH 29 31
ATOM     31  CA  PRO P   4     -13.723  18.909  32.551  1.00 25.21 LIG 0.18  C 
ATOM     32  N   PRO P   4     -14.065  19.390  33.899  1.00 32.27 LIG-0.34  N 
ATOM     33  CD  PRO P   4     -15.449  19.026  34.287  1.00 30.21 LIG 0.13  C 
ATOM     34  C   ACE P   5     -13.169  20.154  34.552  1.00 41.02 LIG 0.22  C 
ATOM     35  CG  PRO P   4     -16.017  18.387  33.008  1.00 29.86 LIG 0.02  C 
ATOM     36  CB  PRO P   4     -14.807  17.883  32.260  1.00 29.41 LIG 0.04  C 
ATOM     37 O    ACE P   5     -12.100  20.535  34.042  1.00 36.79 LIG-0.27  OA
ATOM     38  CH3 ACE P   5     -13.550  20.511  35.961  1.00 44.01 LIG 0.12  C 
ENDBRANCH 29 31
ENDBRANCH 25 27
ENDBRANCH 6 25
TORSDOF 9
ENDMDL
MODEL 4
USER: ADFR SOLUTION from run 74
USER: SCORE 12.557750 LL:  -2.274 LR: -10.741 RR:   0.000 FEB:  -8.056
USER: RMSD 7.860654
USER: SEED 73
USER: STATUS no improvement in best 24 clusters for 5 generations
USER: GENES 11
USER: genes 0 Translation |==|  0.63114 0.39953 0.63909
USER: genes 1 Rotation |==|  0.37355 0.39877 0.61617 0.95855
USER: genes 2 Torsion [N]-CA--C-[O] |==|  0.29621
USER: genes 3 Torsion [C]-N--CA-[CB] |==|  0.23466
USER: genes 4 Torsion [N]-CA--CB-[CG] |==|  0.58315
USER: genes 5 Torsion [CA]-CB--CG-[CD1] |==|  0.56443
USER: genes 6 Torsion [CE1]-CZ--OH-[HH] |==|  0.60028
USER: genes 7 Torsion [N]-CA--C-[O] |==|  0.44013
USER: genes 8 Torsion [N]-C--CA-[N] |==|  0.15399
USER: genes 9 Torsion [C]-CA--N-[C] |==|  0.64986
USER: genes 10 Torsion [N]-C--CA-[N] |==|  0.51776
ROOT
ATOM      1  N   PRO P   2     -14.116  21.646  27.053  1.00 14.82 LIG-0.34  N 
ATOM      2  CA  PRO P   2     -12.975  21.476  27.950  1.00 14.93 LIG 0.18  C 
ATOM      3  CB  PRO P   2     -12.432  22.869  28.206  1.00 16.92 LIG 0.04  C 
ATOM      4  CG  PRO P   2     -13.261  23.818  27.374  1.00 18.84 LIG 0.02  C 
ATOM      5  CD  PRO P   2     -14.495  23.063  26.887  1.00 20.22 LIG 0.13  C 
ATOM      6  C   ALA P   3     -14.664  20.585  26.457  1.00 17.18 LIG 0.24  C 
ATOM      7 O    ALA P   3     -14.300  19.396  26.630  1.00 13.58 LIG-0.27  OA
ENDROOT
BRANCH 2 8
ATOM      8  C   PRO P   2     -13.473  20.797  29.211  1.00 18.07 LIG 0.24  C 
ATOM      9  N   TYR P   1     -14.171  21.534  30.049  1.00 10.00 LIG-0.34  N 
ATOM     10 H    TYR P   1     -14.343  22.372  29.960  1.00 10.00 LIG 0.16  HD
ATOM     11 O    PRO P   2     -13.175  19.579  29.398  1.00 18.25 LIG-0.27  OA
BRANCH 9 12
ATOM     12  CA  TYR P   1     -14.718  20.879  31.258  1.00 13.52 LIG 0.19  C 
BRANCH 12 13
ATOM     13  CB  TYR P   1     -13.655  20.862  32.328  1.00 19.13 LIG 0.07  C 
BRANCH 13 14
ATOM     14  CG  TYR P   1     -13.728  19.705  33.290  1.00 19.60 LIG-0.06  A 
ATOM     15  CD1 TYR P   1     -13.175  19.748  34.568  1.00 21.46 LIG 0.01  A 
ATOM     16  CE1 TYR P   1     -13.251  18.630  35.429  1.00 23.96 LIG 0.04  A 
ATOM     17  CZ  TYR P   1     -13.861  17.473  34.977  1.00 27.70 LIG 0.07  A 
ATOM     18  CE2 TYR P   1     -14.422  17.412  33.698  1.00 27.12 LIG 0.04  A 
ATOM     19  CD2 TYR P   1     -14.339  18.527  32.856  1.00 19.18 LIG 0.01  A 
BRANCH 17 20
ATOM     20 OH   TYR P   1     -13.977  16.338  35.742  1.00 32.50 LIG-0.36  OA
ATOM     21 HH   TYR P   1     -13.892  15.660  35.253  1.00 32.50 LIG 0.22  HD
ENDBRANCH 17 20
ENDBRANCH 13 14
ENDBRANCH 12 13
BRANCH 12 22
ATOM     22  C   TYR P   1     -16.040  21.589  31.671  1.00 14.95 LIG 0.20  C 
ATOM     23 O    TYR P   1     -16.839  20.902  32.405  1.00 13.05 LIG-0.65  OA
ATOM     24 OXT  TYR P   1     -16.503  22.689  31.147  1.00 12.36 LIG-0.65  OA
ENDBRANCH 12 22
ENDBRANCH 9 12
ENDBRANCH 2 8
BRANCH 6 25
ATOM     25  CA  ALA P   3     -15.833  20.918  25.548  1.00 19.37 LIG 0.17  C 
ATOM     26  CB  ALA P   3     -16.274  19.636  24.837  1.00 20.42 LIG 0.04  C 
BRANCH 25 27
ATOM     27  N   ALA P   3     -15.415  21.916  24.541  1.00 19.05 LIG-0.35  N 
ATOM     28 H    ALA P   3     -14.719  21.684  24.093  1.00 19.05 LIG 0.16  HD
ATOM     29  C   PRO P   4     -16.052  23.055  24.349  1.00 21.72 LIG 0.24  C 
ATOM     30 O    PRO P   4     -17.098  23.393  24.995  1.00 18.44 LIG-0.27  OA
BRANCH 29 31
ATOM     31  CA  PRO P   4     -15.453  23.918  23.268  1.00 25.21 LIG 0.18  C 
ATOM     32  N   PRO P   4     -16.150  25.213  23.255  1.00 32.27 LIG-0.34  N 
ATOM     33  CD  PRO P   4     -15.303  26.310  23.780  1.00 30.21 LIG 0.13  C 
ATOM     34  C   ACE P   5     -17.445  25.239  22.884  1.00 41.02 LIG 0.22  C 
ATOM     35  CG  PRO P   4     -14.041  25.577  24.267  1.00 29.86 LIG 0.02  C 
ATOM     36  CB  PRO P   4     -13.994  24.309  23.451  1.00 29.41 LIG 0.04  C 
ATOM     37 O    ACE P   5     -18.099  24.212  22.625  1.00 36.79 LIG-0.27  OA
ATOM     38  CH3 ACE P   5     -18.050  26.611  22.793  1.00 44.01 LIG 0.12  C 
ENDBRANCH 29 31
ENDBRANCH 25 27
ENDBRANCH 6 25
TORSDOF 9
ENDMDL
MODEL 5
USER: ADFR SOLUTION from run 97
USER: SCORE 12.924679 LL:  -2.347 LR: -10.722 RR:   0.000 FEB:  -8.038
USER: RMSD 7.221903
USER: SEED 96
USER: STATUS no improvement in best 15 clusters for 5 generations
USER: GENES 11
USER: genes 0 Translation |==|  0.59077 0.50729 0.55701
USER: genes 1 Rotation |==|  0.49548 0.96690 0.32587 0.54077
USER: genes 2 Torsion [N]-CA--C-[O] |==|  0.92188
USER: genes 3 Torsion [C]-N--CA-[CB] |==|  0.86636
USER: genes 4 Torsion [N]-CA--CB-[CG] |==|  0.82687
USER: genes 5 Torsion [CA]-CB--CG-[CD1] |==|  0.48870
USER: genes 6 Torsion [CE1]-CZ--OH-[HH] |==|  0.27659
USER: genes 7 Torsion [N]-CA--C-[O] |==|  0.92949
USER: genes 8 Torsion [N]-C--CA-[N] |==|  0.46543
USER: genes 9 Torsion [C]-CA--N-[C] |==|  0.81059
USER: genes 10 Torsion [N]-C--CA-[N] |==|  0.89211
ROOT
ATOM      1  N   PRO P   2     -15.327  24.879  24.590  1.00 14.82 LIG-0.34  N 
ATOM      2  CA  PRO P   2     -16.401  23.985  25.021  1.00 14.93 LIG 0.18  C 
ATOM      3  CB  PRO P   2     -17.524  24.166  24.018  1.00 16.92 LIG 0.04  C 
ATOM      4  CG  PRO P   2     -17.074  25.234  23.049  1.00 18.84 LIG 0.02  C 
ATOM      5  CD  PRO P   2     -15.578  25.456  23.255  1.00 20.22 LIG 0.13  C 
ATOM      6  C   ALA P   3     -14.293  25.122  25.398  1.00 17.18 LIG 0.24  C 
ATOM      7 O    ALA P   3     -14.128  24.605  26.530  1.00 13.58 LIG-0.27  OA
ENDROOT
BRANCH 2 8
ATOM      8  C   PRO P   2     -15.850  22.573  25.042  1.00 18.07 LIG 0.24  C 
ATOM      9  N   TYR P   1     -16.384  21.739  25.909  1.00 10.00 LIG-0.34  N 
ATOM     10 H    TYR P   1     -16.994  21.931  26.485  1.00 10.00 LIG 0.16  HD
ATOM     11 O    PRO P   2     -14.904  22.283  24.250  1.00 18.25 LIG-0.27  OA
BRANCH 9 12
ATOM     12  CA  TYR P   1     -15.904  20.338  25.908  1.00 13.52 LIG 0.19  C 
BRANCH 12 13
ATOM     13  CB  TYR P   1     -15.895  19.826  24.489  1.00 19.13 LIG 0.07  C 
BRANCH 13 14
ATOM     14  CG  TYR P   1     -17.239  19.778  23.813  1.00 19.60 LIG-0.06  A 
ATOM     15  CD1 TYR P   1     -17.403  19.410  22.479  1.00 21.46 LIG 0.01  A 
ATOM     16  CE1 TYR P   1     -18.684  19.399  21.882  1.00 23.96 LIG 0.04  A 
ATOM     17  CZ  TYR P   1     -19.780  19.785  22.633  1.00 27.70 LIG 0.07  A 
ATOM     18  CE2 TYR P   1     -19.635  20.156  23.972  1.00 27.12 LIG 0.04  A 
ATOM     19  CD2 TYR P   1     -18.360  20.163  24.551  1.00 19.18 LIG 0.01  A 
BRANCH 17 20
ATOM     20 OH   TYR P   1     -21.060  19.808  22.134  1.00 32.50 LIG-0.36  OA
ATOM     21 HH   TYR P   1     -21.469  19.117  22.378  1.00 32.50 LIG 0.22  HD
ENDBRANCH 17 20
ENDBRANCH 13 14
ENDBRANCH 12 13
BRANCH 12 22
ATOM     22  C   TYR P   1     -14.528  20.269  26.630  1.00 14.95 LIG 0.20  C 
ATOM     23 O    TYR P   1     -13.838  21.352  26.628  1.00 13.05 LIG-0.65  OA
ATOM     24 OXT  TYR P   1     -13.925  19.175  27.005  1.00 12.36 LIG-0.65  OA
ENDBRANCH 12 22
ENDBRANCH 9 12
ENDBRANCH 2 8
BRANCH 6 25
ATOM     25  CA  ALA P   3     -13.263  26.074  24.818  1.00 19.37 LIG 0.17  C 
ATOM     26  CB  ALA P   3     -12.479  25.336  23.731  1.00 20.42 LIG 0.04  C 
BRANCH 25 27
ATOM     27  N   ALA P   3     -12.331  26.509  25.880  1.00 19.05 LIG-0.35  N 
ATOM     28 H    ALA P   3     -11.531  26.209  25.783  1.00 19.05 LIG 0.16  HD
ATOM     29  C   PRO P   4     -12.694  27.285  26.883  1.00 21.72 LIG 0.24  C 
ATOM     30 O    PRO P   4     -13.873  27.751  27.021  1.00 18.44 LIG-0.27  OA
BRANCH 29 31
ATOM     31  CA  PRO P   4     -11.579  27.605  27.846  1.00 25.21 LIG 0.18  C 
ATOM     32  N   PRO P   4     -10.749  26.404  28.026  1.00 32.27 LIG-0.34  N 
ATOM     33  CD  PRO P   4      -9.426  26.535  27.371  1.00 30.21 LIG 0.13  C 
ATOM     34  C   ACE P   5     -11.293  25.337  28.644  1.00 41.02 LIG 0.22  C 
ATOM     35  CG  PRO P   4      -9.532  27.878  26.630  1.00 29.86 LIG 0.02  C 
ATOM     36  CB  PRO P   4     -10.578  28.656  27.391  1.00 29.41 LIG 0.04  C 
ATOM     37 O    ACE P   5     -12.484  25.293  29.002  1.00 36.79 LIG-0.27  OA
ATOM     38  CH3 ACE P   5     -10.347  24.195  28.884  1.00 44.01 LIG 0.12  C 
ENDBRANCH 29 31
ENDBRANCH 25 27
ENDBRANCH 6 25
TORSDOF 9
ENDMDL
MODEL 6
USER: ADFR SOLUTION from run 31
USER: SCORE 11.687513 LL:  -2.227 LR: -11.165 RR:   0.000 FEB:  -8.480
USER: RMSD 2.877004
USER: SEED 30
USER: STATUS no improvement in best 146 clusters for 5 generations
USER: GENES 11
USER: genes 0 Translation |==|  0.60077 0.54094 0.53448
USER: genes 1 Rotation |==|  0.60239 0.63356 0.33353 0.94042
USER: genes 2 Torsion [N]-CA--C-[O] |==|  0.16368
USER: genes 3 Torsion [C]-N--CA-[CB] |==|  0.29356
USER: genes 4 Torsion [N]-CA--CB-[CG] |==|  0.72995
USER: genes 5 Torsion [CA]-CB--CG-[CD1] |==|  0.91422
USER: genes 6 Torsion [CE1]-CZ--OH-[HH] |==|  0.77966
USER: genes 7 Torsion [N]-CA--C-[O] |==|  0.02725
USER: genes 8 Torsion [N]-C--CA-[N] |==|  0.35986
USER: genes 9 Torsion [C]-CA--N-[C] |==|  0.18949
USER: genes 10 Torsion [N]-C--CA-[N] |==|  0.40821
ROOT
ATOM      1  N   PRO P   2     -15.027  25.888  23.915  1.00 14.82 LIG-0.34  N 
ATOM      2  CA  PRO P   2     -15.018  24.639  23.156  1.00 14.93 LIG 0.18  C 
ATOM      3  CB  PRO P   2     -13.559  24.322  22.888  1.00 16.92 LIG 0.04  C 
ATOM      4  CG  PRO P   2     -12.754  25.462  23.463  1.00 18.84 LIG 0.02  C 
ATOM      5  CD  PRO P   2     -13.676  26.287  24.357  1.00 20.22 LIG 0.13  C 
ATOM      6  C   ALA P   3     -16.170  26.551  24.101  1.00 17.18 LIG 0.24  C 
ATOM      7 O    ALA P   3     -17.297  26.169  23.700  1.00 13.58 LIG-0.27  OA
ENDROOT
BRANCH 2 8
ATOM      8  C   PRO P   2     -15.707  23.581  23.994  1.00 18.07 LIG 0.24  C 
ATOM      9  N   TYR P   1     -15.011  22.501  24.281  1.00 10.00 LIG-0.34  N 
ATOM     10 H    TYR P   1     -14.213  22.329  24.010  1.00 10.00 LIG 0.16  HD
ATOM     11 O    PRO P   2     -16.907  23.781  24.350  1.00 18.25 LIG-0.27  OA
BRANCH 9 12
ATOM     12  CA  TYR P   1     -15.641  21.480  25.148  1.00 13.52 LIG 0.19  C 
BRANCH 12 13
ATOM     13  CB  TYR P   1     -16.044  20.300  24.299  1.00 19.13 LIG 0.07  C 
BRANCH 13 14
ATOM     14  CG  TYR P   1     -17.486  20.283  23.863  1.00 19.60 LIG-0.06  A 
ATOM     15  CD1 TYR P   1     -18.514  20.832  24.627  1.00 21.46 LIG 0.01  A 
ATOM     16  CE1 TYR P   1     -19.855  20.774  24.185  1.00 23.96 LIG 0.04  A 
ATOM     17  CZ  TYR P   1     -20.143  20.139  22.990  1.00 27.70 LIG 0.07  A 
ATOM     18  CE2 TYR P   1     -19.125  19.584  22.211  1.00 27.12 LIG 0.04  A 
ATOM     19  CD2 TYR P   1     -17.801  19.648  22.660  1.00 19.18 LIG 0.01  A 
BRANCH 17 20
ATOM     20 OH   TYR P   1     -21.418  20.031  22.486  1.00 32.50 LIG-0.36  OA
ATOM     21 HH   TYR P   1     -21.823  19.410  22.879  1.00 32.50 LIG 0.22  HD
ENDBRANCH 17 20
ENDBRANCH 13 14
ENDBRANCH 12 13
BRANCH 12 22
ATOM     22  C   TYR P   1     -14.675  21.135  26.318  1.00 14.95 LIG 0.20  C 
ATOM     23 O    TYR P   1     -13.649  21.897  26.440  1.00 13.05 LIG-0.65  OA
ATOM     24 OXT  TYR P   1     -14.685  20.027  27.005  1.00 12.36 LIG-0.65  OA
ENDBRANCH 12 22
ENDBRANCH 9 12
ENDBRANCH 2 8
BRANCH 6 25
ATOM     25  CA  ALA P   3     -16.021  27.833  24.900  1.00 19.37 LIG 0.17  C 
ATOM     26  CB  ALA P   3     -16.702  27.640  26.257  1.00 20.42 LIG 0.04  C 
BRANCH 25 27
ATOM     27  N   ALA P   3     -16.674  28.948  24.182  1.00 19.05 LIG-0.35  N 
ATOM     28 H    ALA P   3     -16.122  29.536  23.881  1.00 19.05 LIG 0.16  HD
ATOM     29  C   PRO P   4     -17.980  29.033  24.018  1.00 21.72 LIG 0.24  C 
ATOM     30 O    PRO P   4     -18.800  28.154  24.442  1.00 18.44 LIG-0.27  OA
BRANCH 29 31
ATOM     31  CA  PRO P   4     -18.425  30.253  23.252  1.00 25.21 LIG 0.18  C 
ATOM     32  N   PRO P   4     -19.621  29.909  22.467  1.00 32.27 LIG-0.34  N 
ATOM     33  CD  PRO P   4     -20.849  30.533  23.015  1.00 30.21 LIG 0.13  C 
ATOM     34  C   ACE P   5     -19.490  29.030  21.454  1.00 41.02 LIG 0.22  C 
ATOM     35  CG  PRO P   4     -20.356  31.197  24.312  1.00 29.86 LIG 0.02  C 
ATOM     36  CB  PRO P   4     -18.884  31.440  24.084  1.00 29.41 LIG 0.04  C 
ATOM     37 O    ACE P   5     -18.425  28.440  21.199  1.00 36.79 LIG-0.27  OA
ATOM     38  CH3 ACE P   5     -20.733  28.818  20.636  1.00 44.01 LIG 0.12  C 
ENDBRANCH 29 31
ENDBRANCH 25 27
ENDBRANCH 6 25
TORSDOF 9
ENDMDL
MODEL 7
USER: ADFR SOLUTION from run 64
USER: SCORE 12.451221 LL:  -1.866 LR: -11.040 RR:   0.000 FEB:  -8.355
USER: RMSD 7.752424
USER: SEED 63
USER: STATUS no improvement in best 148 clusters for 5 generations
USER: GENES 11
USER: genes 0 Translation |==|  0.64543 0.40348 0.65252
USER: genes 1 Rotation |==|  0.38308 0.41342 0.62426 0.96194
USER: genes 2 Torsion [N]-CA--C-[O] |==|  0.25862
USER: genes 3 Torsion [C]-N--CA-[CB] |==|  0.88132
USER: genes 4 Torsion [N]-CA--CB-[CG] |==|  0.47476
USER: genes 5 Torsion [CA]-CB--CG-[CD1] |==|  0.79982
USER: genes 6 Torsion [CE1]-CZ--OH-[HH] |==|  0.34618
USER: genes 7 Torsion [N]-CA--C-[O] |==|  0.93797
USER: genes 8 Torsion [N]-C--CA-[N] |==|  0.16997
USER: genes 9 Torsion [C]-CA--N-[C] |==|  0.63069
USER: genes 10 Torsion [N]-C--CA-[N] |==|  0.51590
ROOT
ATOM      1  N   PRO P   2     -13.687  21.765  27.456  1.00 14.82 LIG-0.34  N 
ATOM      2  CA  PRO P   2     -12.480  21.602  28.264  1.00 14.93 LIG 0.18  C 
ATOM      3  CB  PRO P   2     -11.946  23.001  28.505  1.00 16.92 LIG 0.04  C 
ATOM      4  CG  PRO P   2     -12.852  23.948  27.755  1.00 18.84 LIG 0.02  C 
ATOM      5  CD  PRO P   2     -14.104  23.177  27.345  1.00 20.22 LIG 0.13  C 
ATOM      6  C   ALA P   3     -14.257  20.703  26.882  1.00 17.18 LIG 0.24  C 
ATOM      7 O    ALA P   3     -13.860  19.519  27.005  1.00 13.58 LIG-0.27  OA
ENDROOT
BRANCH 2 8
ATOM      8  C   PRO P   2     -12.871  20.891  29.544  1.00 18.07 LIG 0.24  C 
ATOM      9  N   TYR P   1     -13.267  21.646  30.548  1.00 10.00 LIG-0.34  N 
ATOM     10 H    TYR P   1     -13.294  22.506  30.552  1.00 10.00 LIG 0.16  HD
ATOM     11 O    PRO P   2     -12.776  19.628  29.586  1.00 18.25 LIG-0.27  OA
BRANCH 9 12
ATOM     12  CA  TYR P   1     -13.710  20.972  31.789  1.00 13.52 LIG 0.19  C 
BRANCH 12 13
ATOM     13  CB  TYR P   1     -14.572  19.790  31.422  1.00 19.13 LIG 0.07  C 
BRANCH 13 14
ATOM     14  CG  TYR P   1     -14.928  18.873  32.563  1.00 19.60 LIG-0.06  A 
ATOM     15  CD1 TYR P   1     -14.006  18.017  33.162  1.00 21.46 LIG 0.01  A 
ATOM     16  CE1 TYR P   1     -14.392  17.160  34.217  1.00 23.96 LIG 0.04  A 
ATOM     17  CZ  TYR P   1     -15.711  17.160  34.636  1.00 27.70 LIG 0.07  A 
ATOM     18  CE2 TYR P   1     -16.649  18.013  34.048  1.00 27.12 LIG 0.04  A 
ATOM     19  CD2 TYR P   1     -16.253  18.856  33.003  1.00 19.18 LIG 0.01  A 
BRANCH 17 20
ATOM     20 OH   TYR P   1     -16.175  16.358  35.651  1.00 32.50 LIG-0.36  OA
ATOM     21 HH   TYR P   1     -16.545  16.833  36.236  1.00 32.50 LIG 0.22  HD
ENDBRANCH 17 20
ENDBRANCH 13 14
ENDBRANCH 12 13
BRANCH 12 22
ATOM     22  C   TYR P   1     -12.464  20.620  32.653  1.00 14.95 LIG 0.20  C 
ATOM     23 O    TYR P   1     -11.350  20.535  32.020  1.00 13.05 LIG-0.65  OA
ATOM     24 OXT  TYR P   1     -12.494  20.172  33.877  1.00 12.36 LIG-0.65  OA
ENDBRANCH 12 22
ENDBRANCH 9 12
ENDBRANCH 2 8
BRANCH 6 25
ATOM     25  CA  ALA P   3     -15.497  21.029  26.068  1.00 19.37 LIG 0.17  C 
ATOM     26  CB  ALA P   3     -16.048  19.726  25.483  1.00 20.42 LIG 0.04  C 
BRANCH 25 27
ATOM     27  N   ALA P   3     -15.143  21.947  24.965  1.00 19.05 LIG-0.35  N 
ATOM     28 H    ALA P   3     -14.443  21.708  24.527  1.00 19.05 LIG 0.16  HD
ATOM     29  C   PRO P   4     -15.838  23.031  24.681  1.00 21.72 LIG 0.24  C 
ATOM     30 O    PRO P   4     -16.890  23.379  25.312  1.00 18.44 LIG-0.27  OA
BRANCH 29 31
ATOM     31  CA  PRO P   4     -15.298  23.818  23.513  1.00 25.21 LIG 0.18  C 
ATOM     32  N   PRO P   4     -16.069  25.064  23.384  1.00 32.27 LIG-0.34  N 
ATOM     33  CD  PRO P   4     -15.282  26.253  23.789  1.00 30.21 LIG 0.13  C 
ATOM     34  C   ACE P   5     -17.366  24.980  23.029  1.00 41.02 LIG 0.22  C 
ATOM     35  CG  PRO P   4     -13.977  25.644  24.327  1.00 29.86 LIG 0.02  C 
ATOM     36  CB  PRO P   4     -13.863  24.306  23.637  1.00 29.41 LIG 0.04  C 
ATOM     37 O    ACE P   5     -17.962  23.898  22.880  1.00 36.79 LIG-0.27  OA
ATOM     38  CH3 ACE P   5     -18.050  26.301  22.814  1.00 44.01 LIG 0.12  C 
ENDBRANCH 29 31
ENDBRANCH 25 27
ENDBRANCH 6 25
TORSDOF 9
ENDMDL
MODEL 8
USER: ADFR SOLUTION from run 24
USER: SCORE 13.204975 LL:  -2.393 LR: -10.986 RR:   0.000 FEB:  -8.301
USER: RMSD 2.487204
USER: SEED 23
USER: STATUS no improvement in best 144 clusters for 5 generations
USER: GENES 11
USER: genes 0 Translation |==|  0.56823 0.51948 0.52329
USER: genes 1 Rotation |==|  0.50451 0.53278 0.40251 0.98928
USER: genes 2 Torsion [N]-CA--C-[O] |==|  0.06999
USER: genes 3 Torsion [C]-N--CA-[CB] |==|  0.18180
USER: genes 4 Torsion [N]-CA--CB-[CG] |==|  0.11634
USER: genes 5 Torsion [CA]-CB--CG-[CD1] |==|  0.07629
USER: genes 6 Torsion [CE1]-CZ--OH-[HH] |==|  0.79142
USER: genes 7 Torsion [N]-CA--C-[O] |==|  0.72471
USER: genes 8 Torsion [N]-C--CA-[N] |==|  0.42784
USER: genes 9 Torsion [C]-CA--N-[C] |==|  0.56239
USER: genes 10 Torsion [N]-C--CA-[N] |==|  0.91478
ROOT
ATOM      1  N   PRO P   2     -16.003  25.244  23.579  1.00 14.82 LIG-0.34  N 
ATOM      2  CA  PRO P   2     -15.403  23.913  23.535  1.00 14.93 LIG 0.18  C 
ATOM      3  CB  PRO P   2     -13.925  24.110  23.812  1.00 16.92 LIG 0.04  C 
ATOM      4  CG  PRO P   2     -13.703  25.598  23.950  1.00 18.84 LIG 0.02  C 
ATOM      5  CD  PRO P   2     -15.068  26.266  24.090  1.00 20.22 LIG 0.13  C 
ATOM      6  C   ALA P   3     -17.251  25.432  23.144  1.00 17.18 LIG 0.24  C 
ATOM      7 O    ALA P   3     -18.006  24.526  22.714  1.00 13.58 LIG-0.27  OA
ENDROOT
BRANCH 2 8
ATOM      8  C   PRO P   2     -16.090  23.058  24.581  1.00 18.07 LIG 0.24  C 
ATOM      9  N   TYR P   1     -15.416  22.027  25.044  1.00 10.00 LIG-0.34  N 
ATOM     10 H    TYR P   1     -14.635  21.776  24.785  1.00 10.00 LIG 0.16  HD
ATOM     11 O    PRO P   2     -17.269  23.366  24.932  1.00 18.25 LIG-0.27  OA
BRANCH 9 12
ATOM     12  CA  TYR P   1     -16.043  21.211  26.109  1.00 13.52 LIG 0.19  C 
BRANCH 12 13
ATOM     13  CB  TYR P   1     -17.269  20.535  25.549  1.00 19.13 LIG 0.07  C 
BRANCH 13 14
ATOM     14  CG  TYR P   1     -17.116  19.968  24.163  1.00 19.60 LIG-0.06  A 
ATOM     15  CD1 TYR P   1     -15.891  19.543  23.650  1.00 21.46 LIG 0.01  A 
ATOM     16  CE1 TYR P   1     -15.793  19.036  22.335  1.00 23.96 LIG 0.04  A 
ATOM     17  CZ  TYR P   1     -16.928  18.989  21.545  1.00 27.70 LIG 0.07  A 
ATOM     18  CE2 TYR P   1     -18.164  19.410  22.043  1.00 27.12 LIG 0.04  A 
ATOM     19  CD2 TYR P   1     -18.247  19.911  23.347  1.00 19.18 LIG 0.01  A 
BRANCH 17 20
ATOM     20 OH   TYR P   1     -16.925  18.516  20.255  1.00 32.50 LIG-0.36  OA
ATOM     21 HH   TYR P   1     -16.574  19.086  19.748  1.00 32.50 LIG 0.22  HD
ENDBRANCH 17 20
ENDBRANCH 13 14
ENDBRANCH 12 13
BRANCH 12 22
ATOM     22  C   TYR P   1     -14.981  20.239  26.700  1.00 14.95 LIG 0.20  C 
ATOM     23 O    TYR P   1     -15.015  19.035  26.255  1.00 13.05 LIG-0.65  OA
ATOM     24 OXT  TYR P   1     -14.250  20.468  27.755  1.00 12.36 LIG-0.65  OA
ENDBRANCH 12 22
ENDBRANCH 9 12
ENDBRANCH 2 8
BRANCH 6 25
ATOM     25  CA  ALA P   3     -17.734  26.867  23.244  1.00 19.37 LIG 0.17  C 
ATOM     26  CB  ALA P   3     -18.319  27.085  24.642  1.00 20.42 LIG 0.04  C 
BRANCH 25 27
ATOM     27  N   ALA P   3     -18.784  27.113  22.233  1.00 19.05 LIG-0.35  N 
ATOM     28 H    ALA P   3     -19.179  26.397  21.964  1.00 19.05 LIG 0.16  HD
ATOM     29  C   PRO P   4     -19.086  28.316  21.786  1.00 21.72 LIG 0.24  C 
ATOM     30 O    PRO P   4     -18.519  29.381  22.197  1.00 18.44 LIG-0.27  OA
BRANCH 29 31
ATOM     31  CA  PRO P   4     -20.191  28.331  20.760  1.00 25.21 LIG 0.18  C 
ATOM     32  N   PRO P   4     -20.149  27.071  20.001  1.00 32.27 LIG-0.34  N 
ATOM     33  CD  PRO P   4     -21.280  26.175  20.342  1.00 30.21 LIG 0.13  C 
ATOM     34  C   ACE P   5     -19.091  26.841  19.201  1.00 41.02 LIG 0.22  C 
ATOM     35  CG  PRO P   4     -21.978  26.913  21.497  1.00 29.86 LIG 0.02  C 
ATOM     36  CB  PRO P   4     -21.611  28.364  21.303  1.00 29.41 LIG 0.04  C 
ATOM     37 O    ACE P   5     -18.112  27.607  19.130  1.00 36.79 LIG-0.27  OA
ATOM     38  CH3 ACE P   5     -19.178  25.586  18.380  1.00 44.01 LIG 0.12  C 
ENDBRANCH 29 31
ENDBRANCH 25 27
ENDBRANCH 6 25
TORSDOF 9
ENDMDL
MODEL 9
USER: ADFR SOLUTION from run 108
USER: SCORE 11.031132 LL:  -1.884 LR: -10.852 RR:   0.000 FEB:  -8.167
USER: RMSD 7.535539
USER: SEED 107
USER: STATUS no improvement in best 146 clusters for 5 generations
USER: GENES 11
USER: genes 0 Translation |==|  0.59430 0.38163 0.58491
USER: genes 1 Rotation |==|  0.24185 0.37135 0.67483 0.86911
USER: genes 2 Torsion [N]-CA--C-[O] |==|  0.23135
USER: genes 3 Torsion [C]-N--CA-[CB] |==|  0.22886
USER: genes 4 Torsion [N]-CA--CB-[CG] |==|  0.74247
USER: genes 5 Torsion [CA]-CB--CG-[CD1] |==|  0.80730
USER: genes 6 Torsion [CE1]-CZ--OH-[HH] |==|  0.35619
USER: genes 7 Torsion [N]-CA--C-[O] |==|  0.48582
USER: genes 8 Torsion [N]-C--CA-[N] |==|  0.86850
USER: genes 9 Torsion [C]-CA--N-[C] |==|  0.43723
USER: genes 10 Torsion [N]-C--CA-[N] |==|  0.67249
ROOT
ATOM      1  N   PRO P   2     -15.221  21.109  25.427  1.00 14.82 LIG-0.34  N 
ATOM      2  CA  PRO P   2     -14.375  21.769  26.419  1.00 14.93 LIG 0.18  C 
ATOM      3  CB  PRO P   2     -14.122  23.168  25.890  1.00 16.92 LIG 0.04  C 
ATOM      4  CG  PRO P   2     -14.799  23.252  24.543  1.00 18.84 LIG 0.02  C 
ATOM      5  CD  PRO P   2     -15.726  22.047  24.405  1.00 20.22 LIG 0.13  C 
ATOM      6  C   ALA P   3     -15.425  19.792  25.490  1.00 17.18 LIG 0.24  C 
ATOM      7 O    ALA P   3     -14.968  19.035  26.382  1.00 13.58 LIG-0.27  OA
ENDROOT
BRANCH 2 8
ATOM      8  C   PRO P   2     -15.116  21.763  27.741  1.00 18.07 LIG 0.24  C 
ATOM      9  N   TYR P   1     -15.769  22.859  28.063  1.00 10.00 LIG-0.34  N 
ATOM     10 H    TYR P   1     -15.787  23.588  27.606  1.00 10.00 LIG 0.16  HD
ATOM     11 O    PRO P   2     -15.050  20.724  28.465  1.00 18.25 LIG-0.27  OA
BRANCH 9 12
ATOM     12  CA  TYR P   1     -16.550  22.857  29.321  1.00 13.52 LIG 0.19  C 
BRANCH 12 13
ATOM     13  CB  TYR P   1     -15.621  23.147  30.473  1.00 19.13 LIG 0.07  C 
BRANCH 13 14
ATOM     14  CG  TYR P   1     -15.037  21.935  31.150  1.00 19.60 LIG-0.06  A 
ATOM     15  CD1 TYR P   1     -15.799  21.058  31.921  1.00 21.46 LIG 0.01  A 
ATOM     16  CE1 TYR P   1     -15.202  19.944  32.553  1.00 23.96 LIG 0.04  A 
ATOM     17  CZ  TYR P   1     -13.839  19.746  32.422  1.00 27.70 LIG 0.07  A 
ATOM     18  CE2 TYR P   1     -13.060  20.614  31.652  1.00 27.12 LIG 0.04  A 
ATOM     19  CD2 TYR P   1     -13.664  21.714  31.031  1.00 19.18 LIG 0.01  A 
BRANCH 17 20
ATOM     20 OH   TYR P   1     -13.175  18.693  33.005  1.00 32.50 LIG-0.36  OA
ATOM     21 HH   TYR P   1     -12.717  18.295  32.424  1.00 32.50 LIG 0.22  HD
ENDBRANCH 17 20
ENDBRANCH 13 14
ENDBRANCH 12 13
BRANCH 12 22
ATOM     22  C   TYR P   1     -17.741  23.849  29.185  1.00 14.95 LIG 0.20  C 
ATOM     23 O    TYR P   1     -18.565  23.874  30.170  1.00 13.05 LIG-0.65  OA
ATOM     24 OXT  TYR P   1     -18.101  24.454  28.087  1.00 12.36 LIG-0.65  OA
ENDBRANCH 12 22
ENDBRANCH 9 12
ENDBRANCH 2 8
BRANCH 6 25
ATOM     25  CA  ALA P   3     -16.318  19.248  24.389  1.00 19.37 LIG 0.17  C 
ATOM     26  CB  ALA P   3     -15.537  19.279  23.073  1.00 20.42 LIG 0.04  C 
BRANCH 25 27
ATOM     27  N   ALA P   3     -17.524  20.093  24.261  1.00 19.05 LIG-0.35  N 
ATOM     28 H    ALA P   3     -17.708  20.542  24.971  1.00 19.05 LIG 0.16  HD
ATOM     29  C   PRO P   4     -18.249  20.151  23.161  1.00 21.72 LIG 0.24  C 
ATOM     30 O    PRO P   4     -17.968  19.504  22.099  1.00 18.44 LIG-0.27  OA
BRANCH 29 31
ATOM     31  CA  PRO P   4     -19.432  21.081  23.254  1.00 25.21 LIG 0.18  C 
ATOM     32  N   PRO P   4     -20.665  20.297  23.081  1.00 32.27 LIG-0.34  N 
ATOM     33  CD  PRO P   4     -21.423  20.160  24.347  1.00 30.21 LIG 0.13  C 
ATOM     34  C   ACE P   5     -20.903  19.736  21.880  1.00 41.02 LIG 0.22  C 
ATOM     35  CG  PRO P   4     -20.492  20.808  25.386  1.00 29.86 LIG 0.02  C 
ATOM     36  CB  PRO P   4     -19.642  21.770  24.594  1.00 29.41 LIG 0.04  C 
ATOM     37 O    ACE P   5     -20.095  19.785  20.934  1.00 36.79 LIG-0.27  OA
ATOM     38  CH3 ACE P   5     -22.232  19.047  21.755  1.00 44.01 LIG 0.12  C 
ENDBRANCH 29 31
ENDBRANCH 25 27
ENDBRANCH 6 25
TORSDOF 9
ENDMDL
MODEL 10
USER: ADFR SOLUTION from run 31
USER: SCORE 12.377932 LL:  -1.814 LR: -10.822 RR:   0.000 FEB:  -8.137
USER: RMSD 8.255820
USER: SEED 30
USER: STATUS no improvement in best 146 clusters for 5 generations
USER: GENES 11
USER: genes 0 Translation |==|  0.64791 0.41236 0.65619
USER: genes 1 Rotation |==|  0.39428 0.43692 0.60286 0.97357
USER: genes 2 Torsion [N]-CA--C-[O] |==|  0.30334
USER: genes 3 Torsion [C]-N--CA-[CB] |==|  0.86683
USER: genes 4 Torsion [N]-CA--CB-[CG] |==|  0.48286
USER: genes 5 Torsion [CA]-CB--CG-[CD1] |==|  0.78742
USER: genes 6 Torsion [CE1]-CZ--OH-[HH] |==|  0.38980
USER: genes 7 Torsion [N]-CA--C-[O] |==|  0.92072
USER: genes 8 Torsion [N]-C--CA-[N] |==|  0.48463
USER: genes 9 Torsion [C]-CA--N-[C] |==|  0.54594
USER: genes 10 Torsion [N]-C--CA-[N] |==|  0.48896
ROOT
ATOM      1  N   PRO P   2     -13.613  22.031  27.566  1.00 14.82 LIG-0.34  N 
ATOM      2  CA  PRO P   2     -12.367  21.706  28.258  1.00 14.93 LIG 0.18  C 
ATOM      3  CB  PRO P   2     -11.668  23.029  28.505  1.00 16.92 LIG 0.04  C 
ATOM      4  CG  PRO P   2     -12.528  24.100  27.875  1.00 18.84 LIG 0.02  C 
ATOM      5  CD  PRO P   2     -13.884  23.482  27.548  1.00 20.22 LIG 0.13  C 
ATOM      6  C   ALA P   3     -14.339  21.063  27.003  1.00 17.18 LIG 0.24  C 
ATOM      7 O    ALA P   3     -14.061  19.839  27.045  1.00 13.58 LIG-0.27  OA
ENDROOT
BRANCH 2 8
ATOM      8  C   PRO P   2     -12.723  20.979  29.539  1.00 18.07 LIG 0.24  C 
ATOM      9  N   TYR P   1     -13.263  21.696  30.501  1.00 10.00 LIG-0.34  N 
ATOM     10 H    TYR P   1     -13.403  22.545  30.480  1.00 10.00 LIG 0.16  HD
ATOM     11 O    PRO P   2     -12.464  19.740  29.621  1.00 18.25 LIG-0.27  OA
BRANCH 9 12
ATOM     12  CA  TYR P   1     -13.674  20.997  31.740  1.00 13.52 LIG 0.19  C 
BRANCH 12 13
ATOM     13  CB  TYR P   1     -14.466  19.769  31.368  1.00 19.13 LIG 0.07  C 
BRANCH 13 14
ATOM     14  CG  TYR P   1     -14.835  18.868  32.516  1.00 19.60 LIG-0.06  A 
ATOM     15  CD1 TYR P   1     -13.925  18.002  33.121  1.00 21.46 LIG 0.01  A 
ATOM     16  CE1 TYR P   1     -14.323  17.160  34.184  1.00 23.96 LIG 0.04  A 
ATOM     17  CZ  TYR P   1     -15.641  17.184  34.605  1.00 27.70 LIG 0.07  A 
ATOM     18  CE2 TYR P   1     -16.566  18.046  34.011  1.00 27.12 LIG 0.04  A 
ATOM     19  CD2 TYR P   1     -16.159  18.874  32.958  1.00 19.18 LIG 0.01  A 
BRANCH 17 20
ATOM     20 OH   TYR P   1     -16.116  16.397  35.627  1.00 32.50 LIG-0.36  OA
ATOM     21 HH   TYR P   1     -16.656  16.841  36.093  1.00 32.50 LIG 0.22  HD
ENDBRANCH 17 20
ENDBRANCH 13 14
ENDBRANCH 12 13
BRANCH 12 22
ATOM     22  C   TYR P   1     -12.414  20.715  32.609  1.00 14.95 LIG 0.20  C 
ATOM     23 O    TYR P   1     -11.311  20.570  31.968  1.00 13.05 LIG-0.65  OA
ATOM     24 OXT  TYR P   1     -12.425  20.375  33.868  1.00 12.36 LIG-0.65  OA
ENDBRANCH 12 22
ENDBRANCH 9 12
ENDBRANCH 2 8
BRANCH 6 25
ATOM     25  CA  ALA P   3     -15.600  21.552  26.315  1.00 19.37 LIG 0.17  C 
ATOM     26  CB  ALA P   3     -16.549  22.108  27.380  1.00 20.42 LIG 0.04  C 
BRANCH 25 27
ATOM     27  N   ALA P   3     -16.257  20.428  25.616  1.00 19.05 LIG-0.35  N 
ATOM     28 H    ALA P   3     -15.982  19.654  25.873  1.00 19.05 LIG 0.16  HD
ATOM     29  C   PRO P   4     -17.176  20.597  24.686  1.00 21.72 LIG 0.24  C 
ATOM     30 O    PRO P   4     -17.602  21.740  24.318  1.00 18.44 LIG-0.27  OA
BRANCH 29 31
ATOM     31  CA  PRO P   4     -17.712  19.309  24.111  1.00 25.21 LIG 0.18  C 
ATOM     32  N   PRO P   4     -18.790  19.627  23.161  1.00 32.27 LIG-0.34  N 
ATOM     33  CD  PRO P   4     -18.382  19.396  21.755  1.00 30.21 LIG 0.13  C 
ATOM     34  C   ACE P   5     -19.929  20.160  23.642  1.00 41.02 LIG 0.22  C 
ATOM     35  CG  PRO P   4     -16.892  19.035  21.876  1.00 29.86 LIG 0.02  C 
ATOM     36  CB  PRO P   4     -16.740  18.491  23.275  1.00 29.41 LIG 0.04  C 
ATOM     37 O    ACE P   5     -20.085  20.466  24.838  1.00 36.79 LIG-0.27  OA
ATOM     38  CH3 ACE P   5     -21.017  20.352  22.624  1.00 44.01 LIG 0.12  C 
ENDBRANCH 29 31
ENDBRANCH 25 27
ENDBRANCH 6 25
TORSDOF 9
ENDMDL
MODEL 11
USER: ADFR SOLUTION from run 134
USER: SCORE 12.840438 LL:  -2.891 LR: -10.815 RR:   0.000 FEB:  -8.130
USER: RMSD 3.991934
USER: SEED 133
USER: STATUS no improvement in best 147 clusters for 5 generations
USER: GENES 11
USER: genes 0 Translation |==|  0.56563 0.50165 0.52879
USER: genes 1 Rotation |==|  0.45480 0.55048 0.48624 0.99520
USER: genes 2 Torsion [N]-CA--C-[O] |==|  0.96379
USER: genes 3 Torsion [C]-N--CA-[CB] |==|  0.34227
USER: genes 4 Torsion [N]-CA--CB-[CG] |==|  0.90366
USER: genes 5 Torsion [CA]-CB--CG-[CD1] |==|  0.29553
USER: genes 6 Torsion [CE1]-CZ--OH-[HH] |==|  0.55926
USER: genes 7 Torsion [N]-CA--C-[O] |==|  0.58129
USER: genes 8 Torsion [N]-C--CA-[N] |==|  0.52420
USER: genes 9 Torsion [C]-CA--N-[C] |==|  0.20114
USER: genes 10 Torsion [N]-C--CA-[N] |==|  0.39158
ROOT
ATOM      1  N   PRO P   2     -16.081  24.709  23.744  1.00 14.82 LIG-0.34  N 
ATOM      2  CA  PRO P   2     -15.060  23.666  23.807  1.00 14.93 LIG 0.18  C 
ATOM      3  CB  PRO P   2     -13.727  24.386  23.862  1.00 16.92 LIG 0.04  C 
ATOM      4  CG  PRO P   2     -14.026  25.863  23.763  1.00 18.84 LIG 0.02  C 
ATOM      5  CD  PRO P   2     -15.524  26.056  23.984  1.00 20.22 LIG 0.13  C 
ATOM      6  C   ALA P   3     -17.345  24.395  23.452  1.00 17.18 LIG 0.24  C 
ATOM      7 O    ALA P   3     -17.768  23.229  23.252  1.00 13.58 LIG-0.27  OA
ENDROOT
BRANCH 2 8
ATOM      8  C   PRO P   2     -15.329  22.827  25.041  1.00 18.07 LIG 0.24  C 
ATOM      9  N   TYR P   1     -14.702  21.672  25.124  1.00 10.00 LIG-0.34  N 
ATOM     10 H    TYR P   1     -14.180  21.337  24.528  1.00 10.00 LIG 0.16  HD
ATOM     11 O    PRO P   2     -16.147  23.267  25.903  1.00 18.25 LIG-0.27  OA
BRANCH 9 12
ATOM     12  CA  TYR P   1     -14.902  20.862  26.347  1.00 13.52 LIG 0.19  C 
BRANCH 12 13
ATOM     13  CB  TYR P   1     -15.423  19.503  25.953  1.00 19.13 LIG 0.07  C 
BRANCH 13 14
ATOM     14  CG  TYR P   1     -16.345  19.487  24.762  1.00 19.60 LIG-0.06  A 
ATOM     15  CD1 TYR P   1     -15.958  19.011  23.511  1.00 21.46 LIG 0.01  A 
ATOM     16  CE1 TYR P   1     -16.853  19.035  22.418  1.00 23.96 LIG 0.04  A 
ATOM     17  CZ  TYR P   1     -18.119  19.564  22.596  1.00 27.70 LIG 0.07  A 
ATOM     18  CE2 TYR P   1     -18.525  20.045  23.843  1.00 27.12 LIG 0.04  A 
ATOM     19  CD2 TYR P   1     -17.628  20.016  24.918  1.00 19.18 LIG 0.01  A 
BRANCH 17 20
ATOM     20 OH   TYR P   1     -19.052  19.631  21.589  1.00 32.50 LIG-0.36  OA
ATOM     21 HH   TYR P   1     -19.623  20.218  21.774  1.00 32.50 LIG 0.22  HD
ENDBRANCH 17 20
ENDBRANCH 13 14
ENDBRANCH 12 13
BRANCH 12 22
ATOM     22  C   TYR P   1     -13.578  20.835  27.165  1.00 14.95 LIG 0.20  C 
ATOM     23 O    TYR P   1     -13.381  19.785  27.877  1.00 13.05 LIG-0.65  OA
ATOM     24 OXT  TYR P   1     -12.800  21.859  27.377  1.00 12.36 LIG-0.65  OA
ENDBRANCH 12 22
ENDBRANCH 9 12
ENDBRANCH 2 8
BRANCH 6 25
ATOM     25  CA  ALA P   3     -18.288  25.583  23.414  1.00 19.37 LIG 0.17  C 
ATOM     26  CB  ALA P   3     -18.133  26.366  24.721  1.00 20.42 LIG 0.04  C 
BRANCH 25 27
ATOM     27  N   ALA P   3     -19.683  25.110  23.292  1.00 19.05 LIG-0.35  N 
ATOM     28 H    ALA P   3     -20.028  25.248  22.516  1.00 19.05 LIG 0.16  HD
ATOM     29  C   PRO P   4     -20.336  24.532  24.282  1.00 21.72 LIG 0.24  C 
ATOM     30 O    PRO P   4     -19.823  24.306  25.426  1.00 18.44 LIG-0.27  OA
BRANCH 29 31
ATOM     31  CA  PRO P   4     -21.746  24.127  23.932  1.00 25.21 LIG 0.18  C 
ATOM     32  N   PRO P   4     -22.034  22.827  24.557  1.00 32.27 LIG-0.34  N 
ATOM     33  CD  PRO P   4     -22.980  22.949  25.692  1.00 30.21 LIG 0.13  C 
ATOM     34  C   ACE P   5     -21.364  21.744  24.118  1.00 41.02 LIG 0.22  C 
ATOM     35  CG  PRO P   4     -23.166  24.469  25.833  1.00 29.86 LIG 0.02  C 
ATOM     36  CB  PRO P   4     -22.855  25.023  24.464  1.00 29.41 LIG 0.04  C 
ATOM     37 O    ACE P   5     -20.461  21.803  23.264  1.00 36.79 LIG-0.27  OA
ATOM     38  CH3 ACE P   5     -21.795  20.442  24.731  1.00 44.01 LIG 0.12  C 
ENDBRANCH 29 31
ENDBRANCH 25 27
ENDBRANCH 6 25
TORSDOF 9
ENDMDL
MODEL 12
USER: ADFR SOLUTION from run 10
USER: SCORE 12.475645 LL:  -1.935 LR: -10.801 RR:   0.000 FEB:  -8.116
USER: RMSD 7.462630
USER: SEED 471921
USER: STATUS no improvement in best 145 clusters for 5 generations
USER: GENES 11
USER: genes 0 Translation |==|  0.59990 0.51144 0.56059
USER: genes 1 Rotation |==|  0.50585 0.03026 0.67112 0.50497
USER: genes 2 Torsion [N]-CA--C-[O] |==|  0.94654
USER: genes 3 Torsion [C]-N--CA-[CB] |==|  0.86992
USER: genes 4 Torsion [N]-CA--CB-[CG] |==|  0.80482
USER: genes 5 Torsion [CA]-CB--CG-[CD1] |==|  0.51612
USER: genes 6 Torsion [CE1]-CZ--OH-[HH] |==|  0.34059
USER: genes 7 Torsion [N]-CA--C-[O] |==|  0.91700
USER: genes 8 Torsion [N]-C--CA-[N] |==|  0.49406
USER: genes 9 Torsion [C]-CA--N-[C] |==|  0.79375
USER: genes 10 Torsion [N]-C--CA-[N] |==|  0.42558
ROOT
ATOM      1  N   PRO P   2     -15.053  25.003  24.698  1.00 14.82 LIG-0.34  N 
ATOM      2  CA  PRO P   2     -16.087  24.164  25.301  1.00 14.93 LIG 0.18  C 
ATOM      3  CB  PRO P   2     -17.353  24.426  24.509  1.00 16.92 LIG 0.04  C 
ATOM      4  CG  PRO P   2     -17.015  25.484  23.485  1.00 18.84 LIG 0.02  C 
ATOM      5  CD  PRO P   2     -15.496  25.618  23.431  1.00 20.22 LIG 0.13  C 
ATOM      6  C   ALA P   3     -13.882  25.173  25.316  1.00 17.18 LIG 0.24  C 
ATOM      7 O    ALA P   3     -13.555  24.627  26.398  1.00 13.58 LIG-0.27  OA
ENDROOT
BRANCH 2 8
ATOM      8  C   PRO P   2     -15.625  22.723  25.215  1.00 18.07 LIG 0.24  C 
ATOM      9  N   TYR P   1     -16.187  21.867  26.042  1.00 10.00 LIG-0.34  N 
ATOM     10 H    TYR P   1     -16.768  22.058  26.647  1.00 10.00 LIG 0.16  HD
ATOM     11 O    PRO P   2     -14.719  22.429  24.378  1.00 18.25 LIG-0.27  OA
BRANCH 9 12
ATOM     12  CA  TYR P   1     -15.795  20.443  25.937  1.00 13.52 LIG 0.19  C 
BRANCH 12 13
ATOM     13  CB  TYR P   1     -15.824  20.035  24.485  1.00 19.13 LIG 0.07  C 
BRANCH 13 14
ATOM     14  CG  TYR P   1     -17.195  19.938  23.870  1.00 19.60 LIG-0.06  A 
ATOM     15  CD1 TYR P   1     -17.414  19.463  22.579  1.00 21.46 LIG 0.01  A 
ATOM     16  CE1 TYR P   1     -18.718  19.410  22.037  1.00 23.96 LIG 0.04  A 
ATOM     17  CZ  TYR P   1     -19.782  19.863  22.798  1.00 27.70 LIG 0.07  A 
ATOM     18  CE2 TYR P   1     -19.581  20.342  24.095  1.00 27.12 LIG 0.04  A 
ATOM     19  CD2 TYR P   1     -18.284  20.390  24.619  1.00 19.18 LIG 0.01  A 
BRANCH 17 20
ATOM     20 OH   TYR P   1     -21.081  19.853  22.350  1.00 32.50 LIG-0.36  OA
ATOM     21 HH   TYR P   1     -21.557  19.407  22.881  1.00 32.50 LIG 0.22  HD
ENDBRANCH 17 20
ENDBRANCH 13 14
ENDBRANCH 12 13
BRANCH 12 22
ATOM     22  C   TYR P   1     -14.422  20.237  26.640  1.00 14.95 LIG 0.20  C 
ATOM     23 O    TYR P   1     -13.630  21.248  26.630  1.00 13.05 LIG-0.65  OA
ATOM     24 OXT  TYR P   1     -13.925  19.089  27.005  1.00 12.36 LIG-0.65  OA
ENDBRANCH 12 22
ENDBRANCH 9 12
ENDBRANCH 2 8
BRANCH 6 25
ATOM     25  CA  ALA P   3     -12.913  26.076  24.574  1.00 19.37 LIG 0.17  C 
ATOM     26  CB  ALA P   3     -12.574  25.422  23.232  1.00 20.42 LIG 0.04  C 
BRANCH 25 27
ATOM     27  N   ALA P   3     -11.675  26.237  25.365  1.00 19.05 LIG-0.35  N 
ATOM     28 H    ALA P   3     -11.006  25.797  25.053  1.00 19.05 LIG 0.16  HD
ATOM     29  C   PRO P   4     -11.606  26.987  26.448  1.00 21.72 LIG 0.24  C 
ATOM     30 O    PRO P   4     -12.589  27.660  26.902  1.00 18.44 LIG-0.27  OA
BRANCH 29 31
ATOM     31  CA  PRO P   4     -10.243  27.009  27.093  1.00 25.21 LIG 0.18  C 
ATOM     32  N   PRO P   4     -10.084  28.276  27.823  1.00 32.27 LIG-0.34  N 
ATOM     33  CD  PRO P   4     -10.126  28.084  29.293  1.00 30.21 LIG 0.13  C 
ATOM     34  C   ACE P   5     -10.026  29.420  27.114  1.00 41.02 LIG 0.22  C 
ATOM     35  CG  PRO P   4     -10.468  26.592  29.442  1.00 29.86 LIG 0.02  C 
ATOM     36  CB  PRO P   4      -9.988  25.956  28.161  1.00 29.41 LIG 0.04  C 
ATOM     37 O    ACE P   5     -10.175  29.463  25.880  1.00 36.79 LIG-0.27  OA
ATOM     38  CH3 ACE P   5      -9.755  30.655  27.927  1.00 44.01 LIG 0.12  C 
ENDBRANCH 29 31
ENDBRANCH 25 27
ENDBRANCH 6 25
TORSDOF 9
ENDMDL
MODEL 13
USER: ADFR SOLUTION from run 3
USER: SCORE 13.039339 LL:  -2.491 LR: -10.792 RR:   0.000 FEB:  -8.108
USER: RMSD 10.104070
USER: SEED 552127
USER: STATUS no improvement in best 149 clusters for 5 generations
USER: GENES 11
USER: genes 0 Translation |==|  0.62509 0.42832 0.68053
USER: genes 1 Rotation |==|  0.80581 0.89185 0.47232 0.54654
USER: genes 2 Torsion [N]-CA--C-[O] |==|  0.44095
USER: genes 3 Torsion [C]-N--CA-[CB] |==|  0.21518
USER: genes 4 Torsion [N]-CA--CB-[CG] |==|  0.57679
USER: genes 5 Torsion [CA]-CB--CG-[CD1] |==|  0.21581
USER: genes 6 Torsion [CE1]-CZ--OH-[HH] |==|  0.76559
USER: genes 7 Torsion [N]-CA--C-[O] |==|  0.06070
USER: genes 8 Torsion [N]-C--CA-[N] |==|  0.47564
USER: genes 9 Torsion [C]-CA--N-[C] |==|  0.83306
USER: genes 10 Torsion [N]-C--CA-[N] |==|  0.48867
ROOT
ATOM      1  N   PRO P   2     -14.297  22.509  28.296  1.00 14.82 LIG-0.34  N 
ATOM      2  CA  PRO P   2     -15.508  23.253  27.955  1.00 14.93 LIG 0.18  C 
ATOM      3  CB  PRO P   2     -15.041  24.523  27.270  1.00 16.92 LIG 0.04  C 
ATOM      4  CG  PRO P   2     -13.531  24.500  27.293  1.00 18.84 LIG 0.02  C 
ATOM      5  CD  PRO P   2     -13.088  23.092  27.680  1.00 20.22 LIG 0.13  C 
ATOM      6  C   ALA P   3     -14.364  21.459  29.116  1.00 17.18 LIG 0.24  C 
ATOM      7 O    ALA P   3     -15.422  21.004  29.617  1.00 13.58 LIG-0.27  OA
ENDROOT
BRANCH 2 8
ATOM      8  C   PRO P   2     -16.356  22.375  27.056  1.00 18.07 LIG 0.24  C 
ATOM      9  N   TYR P   1     -15.734  21.417  26.402  1.00 10.00 LIG-0.34  N 
ATOM     10 H    TYR P   1     -14.887  21.264  26.414  1.00 10.00 LIG 0.16  HD
ATOM     11 O    PRO P   2     -17.596  22.622  26.967  1.00 18.25 LIG-0.27  OA
BRANCH 9 12
ATOM     12  CA  TYR P   1     -16.549  20.509  25.563  1.00 13.52 LIG 0.19  C 
BRANCH 12 13
ATOM     13  CB  TYR P   1     -16.904  21.216  24.279  1.00 19.13 LIG 0.07  C 
BRANCH 13 14
ATOM     14  CG  TYR P   1     -18.185  20.767  23.630  1.00 19.60 LIG-0.06  A 
ATOM     15  CD1 TYR P   1     -19.443  21.164  24.081  1.00 21.46 LIG 0.01  A 
ATOM     16  CE1 TYR P   1     -20.619  20.699  23.450  1.00 23.96 LIG 0.04  A 
ATOM     17  CZ  TYR P   1     -20.511  19.819  22.389  1.00 27.70 LIG 0.07  A 
ATOM     18  CE2 TYR P   1     -19.259  19.410  21.922  1.00 27.12 LIG 0.04  A 
ATOM     19  CD2 TYR P   1     -18.101  19.877  22.556  1.00 19.18 LIG 0.01  A 
BRANCH 17 20
ATOM     20 OH   TYR P   1     -21.600  19.313  21.719  1.00 32.50 LIG-0.36  OA
ATOM     21 HH   TYR P   1     -21.895  18.643  22.131  1.00 32.50 LIG 0.22  HD
ENDBRANCH 17 20
ENDBRANCH 13 14
ENDBRANCH 12 13
BRANCH 12 22
ATOM     22  C   TYR P   1     -15.785  19.166  25.372  1.00 14.95 LIG 0.20  C 
ATOM     23 O    TYR P   1     -14.890  18.900  26.253  1.00 13.05 LIG-0.65  OA
ATOM     24 OXT  TYR P   1     -15.800  18.435  24.293  1.00 12.36 LIG-0.65  OA
ENDBRANCH 12 22
ENDBRANCH 9 12
ENDBRANCH 2 8
BRANCH 6 25
ATOM     25  CA  ALA P   3     -13.027  20.793  29.383  1.00 19.37 LIG 0.17  C 
ATOM     26  CB  ALA P   3     -12.565  20.100  28.099  1.00 20.42 LIG 0.04  C 
BRANCH 25 27
ATOM     27  N   ALA P   3     -13.175  19.786  30.454  1.00 19.05 LIG-0.35  N 
ATOM     28 H    ALA P   3     -12.972  18.987  30.208  1.00 19.05 LIG 0.16  HD
ATOM     29  C   PRO P   4     -13.582  20.085  31.673  1.00 21.72 LIG 0.24  C 
ATOM     30 O    PRO P   4     -13.863  21.270  32.049  1.00 18.44 LIG-0.27  OA
BRANCH 29 31
ATOM     31  CA  PRO P   4     -13.655  18.901  32.604  1.00 25.21 LIG 0.18  C 
ATOM     32  N   PRO P   4     -14.023  19.376  33.946  1.00 32.27 LIG-0.34  N 
ATOM     33  CD  PRO P   4     -15.410  19.001  34.312  1.00 30.21 LIG 0.13  C 
ATOM     34  C   ACE P   5     -13.143  20.145  34.616  1.00 41.02 LIG 0.22  C 
ATOM     35  CG  PRO P   4     -15.953  18.361  33.023  1.00 29.86 LIG 0.02  C 
ATOM     36  CB  PRO P   4     -14.727  17.868  32.293  1.00 29.41 LIG 0.04  C 
ATOM     37 O    ACE P   5     -12.069  20.535  34.125  1.00 36.79 LIG-0.27  OA
ATOM     38  CH3 ACE P   5     -13.550  20.496  36.019  1.00 44.01 LIG 0.12  C 
ENDBRANCH 29 31
ENDBRANCH 25 27
ENDBRANCH 6 25
TORSDOF 9
ENDMDL
MODEL 14
USER: ADFR SOLUTION from run 124
USER: SCORE 12.899539 LL:  -2.530 LR: -10.777 RR:   0.000 FEB:  -8.092
USER: RMSD 1.702960
USER: SEED 123
USER: STATUS no improvement in best 146 clusters for 5 generations
USER: GENES 11
USER: genes 0 Translation |==|  0.57111 0.52109 0.52240
USER: genes 1 Rotation |==|  0.49851 0.55394 0.42284 0.99105
USER: genes 2 Torsion [N]-CA--C-[O] |==|  0.98019
USER: genes 3 Torsion [C]-N--CA-[CB] |==|  0.34364
USER: genes 4 Torsion [N]-CA--CB-[CG] |==|  0.80528
USER: genes 5 Torsion [CA]-CB--CG-[CD1] |==|  0.36722
USER: genes 6 Torsion [CE1]-CZ--OH-[HH] |==|  0.32894
USER: genes 7 Torsion [N]-CA--C-[O] |==|  0.08395
USER: genes 8 Torsion [N]-C--CA-[N] |==|  0.46615
USER: genes 9 Torsion [C]-CA--N-[C] |==|  0.86111
USER: genes 10 Torsion [N]-C--CA-[N] |==|  0.97894
ROOT
ATOM      1  N   PRO P   2     -15.917  25.293  23.552  1.00 14.82 LIG-0.34  N 
ATOM      2  CA  PRO P   2     -15.214  24.015  23.454  1.00 14.93 LIG 0.18  C 
ATOM      3  CB  PRO P   2     -13.739  24.337  23.603  1.00 16.92 LIG 0.04  C 
ATOM      4  CG  PRO P   2     -13.631  25.838  23.724  1.00 18.84 LIG 0.02  C 
ATOM      5  CD  PRO P   2     -15.029  26.392  23.982  1.00 20.22 LIG 0.13  C 
ATOM      6  C   ALA P   3     -17.208  25.374  23.226  1.00 17.18 LIG 0.24  C 
ATOM      7 O    ALA P   3     -17.920  24.405  22.862  1.00 13.58 LIG-0.27  OA
ENDROOT
BRANCH 2 8
ATOM      8  C   PRO P   2     -15.735  23.112  24.554  1.00 18.07 LIG 0.24  C 
ATOM      9  N   TYR P   1     -15.343  21.856  24.528  1.00 10.00 LIG-0.34  N 
ATOM     10 H    TYR P   1     -14.844  21.495  23.928  1.00 10.00 LIG 0.16  HD
ATOM     11 O    PRO P   2     -16.526  23.603  25.413  1.00 18.25 LIG-0.27  OA
BRANCH 9 12
ATOM     12  CA  TYR P   1     -15.791  20.968  25.625  1.00 13.52 LIG 0.19  C 
BRANCH 12 13
ATOM     13  CB  TYR P   1     -16.511  19.783  25.031  1.00 19.13 LIG 0.07  C 
BRANCH 13 14
ATOM     14  CG  TYR P   1     -17.852  20.085  24.418  1.00 19.60 LIG-0.06  A 
ATOM     15  CD1 TYR P   1     -18.227  19.629  23.155  1.00 21.46 LIG 0.01  A 
ATOM     16  CE1 TYR P   1     -19.491  19.955  22.613  1.00 23.96 LIG 0.04  A 
ATOM     17  CZ  TYR P   1     -20.348  20.760  23.341  1.00 27.70 LIG 0.07  A 
ATOM     18  CE2 TYR P   1     -19.990  21.226  24.609  1.00 27.12 LIG 0.04  A 
ATOM     19  CD2 TYR P   1     -18.735  20.896  25.135  1.00 19.18 LIG 0.01  A 
BRANCH 17 20
ATOM     20 OH   TYR P   1     -21.593  21.131  22.891  1.00 32.50 LIG-0.36  OA
ATOM     21 HH   TYR P   1     -22.180  20.837  23.415  1.00 32.50 LIG 0.22  HD
ENDBRANCH 17 20
ENDBRANCH 13 14
ENDBRANCH 12 13
BRANCH 12 22
ATOM     22  C   TYR P   1     -14.570  20.602  26.518  1.00 14.95 LIG 0.20  C 
ATOM     23 O    TYR P   1     -13.643  21.488  26.590  1.00 13.05 LIG-0.65  OA
ATOM     24 OXT  TYR P   1     -14.302  19.414  26.982  1.00 12.36 LIG-0.65  OA
ENDBRANCH 12 22
ENDBRANCH 9 12
ENDBRANCH 2 8
BRANCH 6 25
ATOM     25  CA  ALA P   3     -17.799  26.764  23.371  1.00 19.37 LIG 0.17  C 
ATOM     26  CB  ALA P   3     -17.958  27.071  24.862  1.00 20.42 LIG 0.04  C 
BRANCH 25 27
ATOM     27  N   ALA P   3     -19.125  26.814  22.719  1.00 19.05 LIG-0.35  N 
ATOM     28 H    ALA P   3     -19.743  27.147  23.217  1.00 19.05 LIG 0.16  HD
ATOM     29  C   PRO P   4     -19.340  26.386  21.490  1.00 21.72 LIG 0.24  C 
ATOM     30 O    PRO P   4     -18.424  25.912  20.741  1.00 18.44 LIG-0.27  OA
BRANCH 29 31
ATOM     31  CA  PRO P   4     -20.767  26.537  21.028  1.00 25.21 LIG 0.18  C 
ATOM     32  N   PRO P   4     -21.591  26.968  22.168  1.00 32.27 LIG-0.34  N 
ATOM     33  CD  PRO P   4     -22.023  28.381  22.044  1.00 30.21 LIG 0.13  C 
ATOM     34  C   ACE P   5     -21.765  26.111  23.192  1.00 41.02 LIG 0.22  C 
ATOM     35  CG  PRO P   4     -21.282  28.865  20.785  1.00 29.86 LIG 0.02  C 
ATOM     36  CB  PRO P   4     -21.026  27.612  19.984  1.00 29.41 LIG 0.04  C 
ATOM     37 O    ACE P   5     -21.203  25.002  23.254  1.00 36.79 LIG-0.27  OA
ATOM     38  CH3 ACE P   5     -22.706  26.586  24.263  1.00 44.01 LIG 0.12  C 
ENDBRANCH 29 31
ENDBRANCH 25 27
ENDBRANCH 6 25
TORSDOF 9
ENDMDL
MODEL 15
USER: ADFR SOLUTION from run 26
USER: SCORE 12.338225 LL:  -2.021 LR: -10.764 RR:   0.000 FEB:  -8.079
USER: RMSD 3.370742
USER: SEED 25
USER: STATUS no improvement in best 144 clusters for 5 generations
USER: GENES 11
USER: genes 0 Translation |==|  0.55127 0.51252 0.54291
USER: genes 1 Rotation |==|  0.55216 0.50961 0.49203 0.99712
USER: genes 2 Torsion [N]-CA--C-[O] |==|  0.02426
USER: genes 3 Torsion [C]-N--CA-[CB] |==|  0.28514
USER: genes 4 Torsion [N]-CA--CB-[CG] |==|  0.78780
USER: genes 5 Torsion [CA]-CB--CG-[CD1] |==|  0.89836
USER: genes 6 Torsion [CE1]-CZ--OH-[HH] |==|  0.71546
USER: genes 7 Torsion [N]-CA--C-[O] |==|  0.06001
USER: genes 8 Torsion [N]-C--CA-[N] |==|  0.11495
USER: genes 9 Torsion [C]-CA--N-[C] |==|  0.61399
USER: genes 10 Torsion [N]-C--CA-[N] |==|  0.32872
ROOT
ATOM      1  N   PRO P   2     -16.512  25.036  24.167  1.00 14.82 LIG-0.34  N 
ATOM      2  CA  PRO P   2     -15.484  24.010  24.003  1.00 14.93 LIG 0.18  C 
ATOM      3  CB  PRO P   2     -14.202  24.611  24.547  1.00 16.92 LIG 0.04  C 
ATOM      4  CG  PRO P   2     -14.527  26.027  24.962  1.00 18.84 LIG 0.02  C 
ATOM      5  CD  PRO P   2     -16.046  26.173  24.985  1.00 20.22 LIG 0.13  C 
ATOM      6  C   ALA P   3     -17.698  24.897  23.571  1.00 17.18 LIG 0.24  C 
ATOM      7 O    ALA P   3     -18.044  23.907  22.881  1.00 13.58 LIG-0.27  OA
ENDROOT
BRANCH 2 8
ATOM      8  C   PRO P   2     -15.929  22.779  24.768  1.00 18.07 LIG 0.24  C 
ATOM      9  N   TYR P   1     -15.061  21.795  24.869  1.00 10.00 LIG-0.34  N 
ATOM     10 H    TYR P   1     -14.277  21.774  24.514  1.00 10.00 LIG 0.16  HD
ATOM     11 O    PRO P   2     -17.104  22.757  25.243  1.00 18.25 LIG-0.27  OA
BRANCH 9 12
ATOM     12  CA  TYR P   1     -15.450  20.606  25.661  1.00 13.52 LIG 0.19  C 
BRANCH 12 13
ATOM     13  CB  TYR P   1     -15.836  19.495  24.717  1.00 19.13 LIG 0.07  C 
BRANCH 13 14
ATOM     14  CG  TYR P   1     -17.193  19.633  24.080  1.00 19.60 LIG-0.06  A 
ATOM     15  CD1 TYR P   1     -18.295  20.157  24.753  1.00 21.46 LIG 0.01  A 
ATOM     16  CE1 TYR P   1     -19.555  20.248  24.119  1.00 23.96 LIG 0.04  A 
ATOM     17  CZ  TYR P   1     -19.691  19.783  22.823  1.00 27.70 LIG 0.07  A 
ATOM     18  CE2 TYR P   1     -18.597  19.256  22.133  1.00 27.12 LIG 0.04  A 
ATOM     19  CD2 TYR P   1     -17.355  19.171  22.773  1.00 19.18 LIG 0.01  A 
BRANCH 17 20
ATOM     20 OH   TYR P   1     -20.878  19.829  22.131  1.00 32.50 LIG-0.36  OA
ATOM     21 HH   TYR P   1     -21.229  19.065  22.126  1.00 32.50 LIG 0.22  HD
ENDBRANCH 17 20
ENDBRANCH 13 14
ENDBRANCH 12 13
BRANCH 12 22
ATOM     22  C   TYR P   1     -14.300  20.249  26.646  1.00 14.95 LIG 0.20  C 
ATOM     23 O    TYR P   1     -13.483  21.200  26.923  1.00 13.05 LIG-0.65  OA
ATOM     24 OXT  TYR P   1     -13.959  19.043  27.005  1.00 12.36 LIG-0.65  OA
ENDBRANCH 12 22
ENDBRANCH 9 12
ENDBRANCH 2 8
BRANCH 6 25
ATOM     25  CA  ALA P   3     -18.659  26.044  23.826  1.00 19.37 LIG 0.17  C 
ATOM     26  CB  ALA P   3     -19.743  26.018  22.746  1.00 20.42 LIG 0.04  C 
BRANCH 25 27
ATOM     27  N   ALA P   3     -17.932  27.330  23.756  1.00 19.05 LIG-0.35  N 
ATOM     28 H    ALA P   3     -17.357  27.368  23.118  1.00 19.05 LIG 0.16  HD
ATOM     29  C   PRO P   4     -18.146  28.324  24.596  1.00 21.72 LIG 0.24  C 
ATOM     30 O    PRO P   4     -19.012  28.282  25.530  1.00 18.44 LIG-0.27  OA
BRANCH 29 31
ATOM     31  CA  PRO P   4     -17.295  29.541  24.335  1.00 25.21 LIG 0.18  C 
ATOM     32  N   PRO P   4     -18.176  30.676  24.018  1.00 32.27 LIG-0.34  N 
ATOM     33  CD  PRO P   4     -18.221  31.672  25.116  1.00 30.21 LIG 0.13  C 
ATOM     34  C   ACE P   5     -18.883  30.636  22.873  1.00 41.02 LIG 0.22  C 
ATOM     35  CG  PRO P   4     -17.399  31.005  26.231  1.00 29.86 LIG 0.02  C 
ATOM     36  CB  PRO P   4     -16.476  30.053  25.510  1.00 29.41 LIG 0.04  C 
ATOM     37 O    ACE P   5     -18.886  29.654  22.109  1.00 36.79 LIG-0.27  OA
ATOM     38  CH3 ACE P   5     -19.672  31.879  22.572  1.00 44.01 LIG 0.12  C 
ENDBRANCH 29 31
ENDBRANCH 25 27
ENDBRANCH 6 25
TORSDOF 9
ENDMDL
MODEL 16
USER: ADFR SOLUTION from run 184
USER: SCORE 12.953602 LL:  -2.436 LR: -10.687 RR:   0.000 FEB:  -8.002
USER: RMSD 7.231323
USER: SEED 183
USER: STATUS no improvement in best 140 clusters for 5 generations
USER: GENES 11
USER: genes 0 Translation |==|  0.59347 0.50735 0.55755
USER: genes 1 Rotation |==|  0.49017 0.96452 0.32125 0.54665
USER: genes 2 Torsion [N]-CA--C-[O] |==|  0.93165
USER: genes 3 Torsion [C]-N--CA-[CB] |==|  0.84744
USER: genes 4 Torsion [N]-CA--CB-[CG] |==|  0.83830
USER: genes 5 Torsion [CA]-CB--CG-[CD1] |==|  0.47986
USER: genes 6 Torsion [CE1]-CZ--OH-[HH] |==|  0.27178
USER: genes 7 Torsion [N]-CA--C-[O] |==|  0.45731
USER: genes 8 Torsion [N]-C--CA-[N] |==|  0.47146
USER: genes 9 Torsion [C]-CA--N-[C] |==|  0.81350
USER: genes 10 Torsion [N]-C--CA-[N] |==|  0.88948
ROOT
ATOM      1  N   PRO P   2     -15.246  24.880  24.607  1.00 14.82 LIG-0.34  N 
ATOM      2  CA  PRO P   2     -16.302  23.968  25.041  1.00 14.93 LIG 0.18  C 
ATOM      3  CB  PRO P   2     -17.414  24.097  24.017  1.00 16.92 LIG 0.04  C 
ATOM      4  CG  PRO P   2     -16.977  25.154  23.031  1.00 18.84 LIG 0.02  C 
ATOM      5  CD  PRO P   2     -15.491  25.422  23.255  1.00 20.22 LIG 0.13  C 
ATOM      6  C   ALA P   3     -14.232  25.169  25.424  1.00 17.18 LIG 0.24  C 
ATOM      7 O    ALA P   3     -14.071  24.682  26.570  1.00 13.58 LIG-0.27  OA
ENDROOT
BRANCH 2 8
ATOM      8  C   PRO P   2     -15.715  22.572  25.102  1.00 18.07 LIG 0.24  C 
ATOM      9  N   TYR P   1     -16.286  21.721  25.928  1.00 10.00 LIG-0.34  N 
ATOM     10 H    TYR P   1     -16.941  21.895  26.458  1.00 10.00 LIG 0.16  HD
ATOM     11 O    PRO P   2     -14.706  22.310  24.380  1.00 18.25 LIG-0.27  OA
BRANCH 9 12
ATOM     12  CA  TYR P   1     -15.768  20.335  25.962  1.00 13.52 LIG 0.19  C 
BRANCH 12 13
ATOM     13  CB  TYR P   1     -15.800  19.767  24.565  1.00 19.13 LIG 0.07  C 
BRANCH 13 14
ATOM     14  CG  TYR P   1     -17.155  19.747  23.908  1.00 19.60 LIG-0.06  A 
ATOM     15  CD1 TYR P   1     -17.344  19.395  22.573  1.00 21.46 LIG 0.01  A 
ATOM     16  CE1 TYR P   1     -18.634  19.410  21.995  1.00 23.96 LIG 0.04  A 
ATOM     17  CZ  TYR P   1     -19.712  19.805  22.767  1.00 27.70 LIG 0.07  A 
ATOM     18  CE2 TYR P   1     -19.542  20.160  24.108  1.00 27.12 LIG 0.04  A 
ATOM     19  CD2 TYR P   1     -18.259  20.142  24.667  1.00 19.18 LIG 0.01  A 
BRANCH 17 20
ATOM     20 OH   TYR P   1     -21.000  19.854  22.288  1.00 32.50 LIG-0.36  OA
ATOM     21 HH   TYR P   1     -21.408  19.155  22.511  1.00 32.50 LIG 0.22  HD
ENDBRANCH 17 20
ENDBRANCH 13 14
ENDBRANCH 12 13
BRANCH 12 22
ATOM     22  C   TYR P   1     -14.363  20.330  26.630  1.00 14.95 LIG 0.20  C 
ATOM     23 O    TYR P   1     -13.925  19.183  27.005  1.00 13.05 LIG-0.65  OA
ATOM     24 OXT  TYR P   1     -13.724  21.384  27.054  1.00 12.36 LIG-0.65  OA
ENDBRANCH 12 22
ENDBRANCH 9 12
ENDBRANCH 2 8
BRANCH 6 25
ATOM     25  CA  ALA P   3     -13.218  26.135  24.839  1.00 19.37 LIG 0.17  C 
ATOM     26  CB  ALA P   3     -12.434  25.410  23.742  1.00 20.42 LIG 0.04  C 
BRANCH 25 27
ATOM     27  N   ALA P   3     -12.282  26.578  25.895  1.00 19.05 LIG-0.35  N 
ATOM     28 H    ALA P   3     -11.476  26.299  25.782  1.00 19.05 LIG 0.16  HD
ATOM     29  C   PRO P   4     -12.651  27.330  26.914  1.00 21.72 LIG 0.24  C 
ATOM     30 O    PRO P   4     -13.838  27.763  27.075  1.00 18.44 LIG-0.27  OA
BRANCH 29 31
ATOM     31  CA  PRO P   4     -11.530  27.664  27.867  1.00 25.21 LIG 0.18  C 
ATOM     32  N   PRO P   4     -10.681  26.474  28.035  1.00 32.27 LIG-0.34  N 
ATOM     33  CD  PRO P   4      -9.367  26.626  27.367  1.00 30.21 LIG 0.13  C 
ATOM     34  C   ACE P   5     -11.203  25.398  28.655  1.00 41.02 LIG 0.22  C 
ATOM     35  CG  PRO P   4      -9.501  27.970  26.630  1.00 29.86 LIG 0.02  C 
ATOM     36  CB  PRO P   4     -10.550  28.730  27.404  1.00 29.41 LIG 0.04  C 
ATOM     37 O    ACE P   5     -12.389  25.335  29.025  1.00 36.79 LIG-0.27  OA
ATOM     38  CH3 ACE P   5     -10.238  24.269  28.882  1.00 44.01 LIG 0.12  C 
ENDBRANCH 29 31
ENDBRANCH 25 27
ENDBRANCH 6 25
TORSDOF 9
ENDMDL
MODEL 17
USER: ADFR SOLUTION from run 124
USER: SCORE 11.355870 LL:  -2.444 LR: -10.616 RR:   0.000 FEB:  -7.932
USER: RMSD 7.538844
USER: SEED 123
USER: STATUS no improvement in best 146 clusters for 5 generations
USER: GENES 11
USER: genes 0 Translation |==|  0.45146 0.37521 0.53395
USER: genes 1 Rotation |==|  0.14400 0.78625 0.44058 0.69440
USER: genes 2 Torsion [N]-CA--C-[O] |==|  0.88736
USER: genes 3 Torsion [C]-N--CA-[CB] |==|  0.18375
USER: genes 4 Torsion [N]-CA--CB-[CG] |==|  0.62360
USER: genes 5 Torsion [CA]-CB--CG-[CD1] |==|  0.16546
USER: genes 6 Torsion [CE1]-CZ--OH-[HH] |==|  0.53847
USER: genes 7 Torsion [N]-CA--C-[O] |==|  0.51862
USER: genes 8 Torsion [N]-C--CA-[N] |==|  0.28072
USER: genes 9 Torsion [C]-CA--N-[C] |==|  0.18936
USER: genes 10 Torsion [N]-C--CA-[N] |==|  0.38032
ROOT
ATOM      1  N   PRO P   2     -19.506  20.916  23.899  1.00 14.82 LIG-0.34  N 
ATOM      2  CA  PRO P   2     -18.393  20.032  24.236  1.00 14.93 LIG 0.18  C 
ATOM      3  CB  PRO P   2     -18.262  19.062  23.077  1.00 16.92 LIG 0.04  C 
ATOM      4  CG  PRO P   2     -19.375  19.388  22.109  1.00 18.84 LIG 0.02  C 
ATOM      5  CD  PRO P   2     -19.962  20.740  22.505  1.00 20.22 LIG 0.13  C 
ATOM      6  C   ALA P   3     -20.020  21.730  24.823  1.00 17.18 LIG 0.24  C 
ATOM      7 O    ALA P   3     -19.595  21.839  26.000  1.00 13.58 LIG-0.27  OA
ENDROOT
BRANCH 2 8
ATOM      8  C   PRO P   2     -17.159  20.890  24.428  1.00 18.07 LIG 0.24  C 
ATOM      9  N   TYR P   1     -16.372  20.584  25.438  1.00 10.00 LIG-0.34  N 
ATOM     10 H    TYR P   1     -16.512  19.963  26.016  1.00 10.00 LIG 0.16  HD
ATOM     11 O    PRO P   2     -16.965  21.856  23.630  1.00 18.25 LIG-0.27  OA
BRANCH 9 12
ATOM     12  CA  TYR P   1     -15.130  21.371  25.612  1.00 13.52 LIG 0.19  C 
BRANCH 12 13
ATOM     13  CB  TYR P   1     -15.496  22.792  25.960  1.00 19.13 LIG 0.07  C 
BRANCH 13 14
ATOM     14  CG  TYR P   1     -14.723  23.855  25.225  1.00 19.60 LIG-0.06  A 
ATOM     15  CD1 TYR P   1     -14.726  23.969  23.836  1.00 21.46 LIG 0.01  A 
ATOM     16  CE1 TYR P   1     -13.968  24.972  23.190  1.00 23.96 LIG 0.04  A 
ATOM     17  CZ  TYR P   1     -13.196  25.829  23.953  1.00 27.70 LIG 0.07  A 
ATOM     18  CE2 TYR P   1     -13.181  25.729  25.347  1.00 27.12 LIG 0.04  A 
ATOM     19  CD2 TYR P   1     -13.936  24.731  25.975  1.00 19.18 LIG 0.01  A 
BRANCH 17 20
ATOM     20 OH   TYR P   1     -12.425  26.829  23.410  1.00 32.50 LIG-0.36  OA
ATOM     21 HH   TYR P   1     -11.890  27.117  23.990  1.00 32.50 LIG 0.22  HD
ENDBRANCH 17 20
ENDBRANCH 13 14
ENDBRANCH 12 13
BRANCH 12 22
ATOM     22  C   TYR P   1     -14.218  20.663  26.656  1.00 14.95 LIG 0.20  C 
ATOM     23 O    TYR P   1     -13.163  21.306  27.005  1.00 13.05 LIG-0.65  OA
ATOM     24 OXT  TYR P   1     -14.300  19.410  27.005  1.00 12.36 LIG-0.65  OA
ENDBRANCH 12 22
ENDBRANCH 9 12
ENDBRANCH 2 8
BRANCH 6 25
ATOM     25  CA  ALA P   3     -21.175  22.582  24.329  1.00 19.37 LIG 0.17  C 
ATOM     26  CB  ALA P   3     -21.027  23.987  24.918  1.00 20.42 LIG 0.04  C 
BRANCH 25 27
ATOM     27  N   ALA P   3     -22.455  21.997  24.779  1.00 19.05 LIG-0.35  N 
ATOM     28 H    ALA P   3     -22.933  21.677  24.139  1.00 19.05 LIG 0.16  HD
ATOM     29  C   PRO P   4     -22.829  21.968  26.043  1.00 21.72 LIG 0.24  C 
ATOM     30 O    PRO P   4     -22.116  22.420  26.998  1.00 18.44 LIG-0.27  OA
BRANCH 29 31
ATOM     31  CA  PRO P   4     -24.172  21.320  26.272  1.00 25.21 LIG 0.18  C 
ATOM     32  N   PRO P   4     -24.080  20.443  27.450  1.00 32.27 LIG-0.34  N 
ATOM     33  CD  PRO P   4     -24.809  20.996  28.617  1.00 30.21 LIG 0.13  C 
ATOM     34  C   ACE P   5     -23.301  19.347  27.372  1.00 41.02 LIG 0.22  C 
ATOM     35  CG  PRO P   4     -25.261  22.381  28.125  1.00 29.86 LIG 0.02  C 
ATOM     36  CB  PRO P   4     -25.319  22.256  26.622  1.00 29.41 LIG 0.04  C 
ATOM     37 O    ACE P   5     -22.598  19.081  26.380  1.00 36.79 LIG-0.27  OA
ATOM     38  CH3 ACE P   5     -23.349  18.450  28.576  1.00 44.01 LIG 0.12  C 
ENDBRANCH 29 31
ENDBRANCH 25 27
ENDBRANCH 6 25
TORSDOF 9
ENDMDL
MODEL 18
USER: ADFR SOLUTION from run 83
USER: SCORE 12.797080 LL:  -2.286 LR: -10.608 RR:   0.000 FEB:  -7.923
USER: RMSD 3.250472
USER: SEED 82
USER: STATUS no improvement in best 146 clusters for 5 generations
USER: GENES 11
USER: genes 0 Translation |==|  0.59127 0.53575 0.54081
USER: genes 1 Rotation |==|  0.60143 0.65072 0.34616 0.93969
USER: genes 2 Torsion [N]-CA--C-[O] |==|  0.16091
USER: genes 3 Torsion [C]-N--CA-[CB] |==|  0.30659
USER: genes 4 Torsion [N]-CA--CB-[CG] |==|  0.74787
USER: genes 5 Torsion [CA]-CB--CG-[CD1] |==|  0.40681
USER: genes 6 Torsion [CE1]-CZ--OH-[HH] |==|  0.29773
USER: genes 7 Torsion [N]-CA--C-[O] |==|  0.48192
USER: genes 8 Torsion [N]-C--CA-[N] |==|  0.44437
USER: genes 9 Torsion [C]-CA--N-[C] |==|  0.82597
USER: genes 10 Torsion [N]-C--CA-[N] |==|  0.27621
ROOT
ATOM      1  N   PRO P   2     -15.312  25.733  24.104  1.00 14.82 LIG-0.34  N 
ATOM      2  CA  PRO P   2     -15.271  24.511  23.303  1.00 14.93 LIG 0.18  C 
ATOM      3  CB  PRO P   2     -13.813  24.290  22.950  1.00 16.92 LIG 0.04  C 
ATOM      4  CG  PRO P   2     -13.045  25.458  23.523  1.00 18.84 LIG 0.02  C 
ATOM      5  CD  PRO P   2     -13.964  26.197  24.491  1.00 20.22 LIG 0.13  C 
ATOM      6  C   ALA P   3     -16.480  26.320  24.372  1.00 17.18 LIG 0.24  C 
ATOM      7 O    ALA P   3     -17.602  25.885  24.015  1.00 13.58 LIG-0.27  OA
ENDROOT
BRANCH 2 8
ATOM      8  C   PRO P   2     -15.853  23.388  24.138  1.00 18.07 LIG 0.24  C 
ATOM      9  N   TYR P   1     -15.088  22.334  24.333  1.00 10.00 LIG-0.34  N 
ATOM     10 H    TYR P   1     -14.303  22.213  24.005  1.00 10.00 LIG 0.16  HD
ATOM     11 O    PRO P   2     -17.035  23.513  24.577  1.00 18.25 LIG-0.27  OA
BRANCH 9 12
ATOM     12  CA  TYR P   1     -15.611  21.249  25.195  1.00 13.52 LIG 0.19  C 
BRANCH 12 13
ATOM     13  CB  TYR P   1     -15.904  20.043  24.337  1.00 19.13 LIG 0.07  C 
BRANCH 13 14
ATOM     14  CG  TYR P   1     -17.303  19.971  23.785  1.00 19.60 LIG-0.06  A 
ATOM     15  CD1 TYR P   1     -17.597  19.420  22.538  1.00 21.46 LIG 0.01  A 
ATOM     16  CE1 TYR P   1     -18.924  19.392  22.053  1.00 23.96 LIG 0.04  A 
ATOM     17  CZ  TYR P   1     -19.933  19.945  22.822  1.00 27.70 LIG 0.07  A 
ATOM     18  CE2 TYR P   1     -19.657  20.500  24.074  1.00 27.12 LIG 0.04  A 
ATOM     19  CD2 TYR P   1     -18.338  20.522  24.543  1.00 19.18 LIG 0.01  A 
BRANCH 17 20
ATOM     20 OH   TYR P   1     -21.250  19.965  22.428  1.00 32.50 LIG-0.36  OA
ATOM     21 HH   TYR P   1     -21.687  19.410  22.882  1.00 32.50 LIG 0.22  HD
ENDBRANCH 17 20
ENDBRANCH 13 14
ENDBRANCH 12 13
BRANCH 12 22
ATOM     22  C   TYR P   1     -14.608  20.989  26.355  1.00 14.95 LIG 0.20  C 
ATOM     23 O    TYR P   1     -14.996  20.160  27.256  1.00 13.05 LIG-0.65  OA
ATOM     24 OXT  TYR P   1     -13.550  21.705  26.615  1.00 12.36 LIG-0.65  OA
ENDBRANCH 12 22
ENDBRANCH 9 12
ENDBRANCH 2 8
BRANCH 6 25
ATOM     25  CA  ALA P   3     -16.363  27.583  25.207  1.00 19.37 LIG 0.17  C 
ATOM     26  CB  ALA P   3     -16.212  27.180  26.676  1.00 20.42 LIG 0.04  C 
BRANCH 25 27
ATOM     27  N   ALA P   3     -17.584  28.401  25.049  1.00 19.05 LIG-0.35  N 
ATOM     28 H    ALA P   3     -18.025  28.508  25.779  1.00 19.05 LIG 0.16  HD
ATOM     29  C   PRO P   4     -17.960  28.917  23.895  1.00 21.72 LIG 0.24  C 
ATOM     30 O    PRO P   4     -17.299  28.779  22.814  1.00 18.44 LIG-0.27  OA
BRANCH 29 31
ATOM     31  CA  PRO P   4     -19.235  29.719  23.968  1.00 25.21 LIG 0.18  C 
ATOM     32  N   PRO P   4     -18.893  31.148  24.036  1.00 32.27 LIG-0.34  N 
ATOM     33  CD  PRO P   4     -19.212  31.861  22.777  1.00 30.21 LIG 0.13  C 
ATOM     34  C   ACE P   5     -18.266  31.603  25.138  1.00 41.02 LIG 0.22  C 
ATOM     35  CG  PRO P   4     -19.663  30.729  21.837  1.00 29.86 LIG 0.02  C 
ATOM     36  CB  PRO P   4     -20.152  29.637  22.757  1.00 29.41 LIG 0.04  C 
ATOM     37 O    ACE P   5     -17.896  30.861  26.066  1.00 36.79 LIG-0.27  OA
ATOM     38  CH3 ACE P   5     -18.050  33.090  25.175  1.00 44.01 LIG 0.12  C 
ENDBRANCH 29 31
ENDBRANCH 25 27
ENDBRANCH 6 25
TORSDOF 9
ENDMDL
