MODEL 1
USER: ADFR SOLUTION from run 27
USER: SCORE 11.703636 LL:  -0.994 LR: -11.284 RR:   0.000 FEB:  -8.898
USER: RMSD 7.553430
USER: SEED 26
USER: STATUS 1 or 2 clusters left
USER: GENES 10
USER: genes 0 Translation |==|  0.37506 0.61166 0.59440
USER: genes 1 Rotation |==|  0.34448 0.17527 0.31956 0.79632
USER: genes 2 Torsion [C]-N--CA-[C] |==|  0.23624
USER: genes 3 Torsion [N]-CA--C-[O] |==|  0.39444
USER: genes 4 Torsion [N]-CA--CB-[CG] |==|  0.68975
USER: genes 5 Torsion [CA]-CB--CG-[CD2] |==|  0.22664
USER: genes 6 Torsion [N]-C--CA-[N] |==|  0.41211
USER: genes 7 Torsion [C]-CA--N-[C] |==|  0.90556
USER: genes 8 Torsion [N]-C--CA-[N] |==|  0.07724
USER: genes 9 Torsion [C]-CA--N-[H2] |==|  0.87911
ROOT
ATOM      1  C   ALA C 251      25.072   5.850  43.012  1.00 17.89 LIG 0.24  C 
ATOM      2 O    ALA C 251      23.945   5.503  42.632  1.00 18.07 LIG-0.27  OA
ATOM      3  N   TRP C 252      26.112   6.031  42.216  1.00 16.45 LIG-0.34  N 
ATOM      4 H    TRP C 252      26.901   6.258  42.472  1.00 16.45 LIG 0.16  HD
ENDROOT
BRANCH 3 5
ATOM      5  CA  TRP C 252      25.937   5.833  40.740  1.00 14.97 LIG 0.19  C 
BRANCH 5 6
ATOM      6  C   TRP C 252      25.414   7.117  40.149  1.00 14.13 LIG 0.20  C 
ATOM      7 O    TRP C 252      25.834   7.483  39.017  1.00 13.79 LIG-0.65  OA
ATOM      8 OXT  TRP C 252      24.588   7.750  40.855  0.30 14.18 LIG-0.65  OA
ENDBRANCH 5 6
BRANCH 5 9
ATOM      9  CB  TRP C 252      25.176   4.542  40.516  1.00 15.10 LIG 0.08  C 
BRANCH 9 10
ATOM     10  CG  TRP C 252      26.048   3.501  39.880  1.00 15.42 LIG-0.03  A 
ATOM     11  CD1 TRP C 252      26.036   3.172  38.545  1.00 15.27 LIG 0.10  A 
ATOM     12  NE1 TRP C 252      26.940   2.161  38.305  1.00 15.23 LIG-0.36  N 
ATOM     13 HE1  TRP C 252      27.107   1.809  37.538  1.00 15.23 LIG 0.17  HD
ATOM     14  CE2 TRP C 252      27.529   1.807  39.492  1.00 15.53 LIG 0.04  A 
ATOM     15  CZ2 TRP C 252      28.495   0.824  39.717  1.00 15.28 LIG 0.03  A 
ATOM     16  CD2 TRP C 252      26.997   2.634  40.505  1.00 15.41 LIG-0.00  A 
ATOM     17  CH2 TRP C 252      28.931   0.684  41.039  1.00 15.35 LIG 0.00  A 
ATOM     18  CZ3 TRP C 252      28.408   1.503  42.053  1.00 15.31 LIG 0.00  A 
ATOM     19  CE3 TRP C 252      27.450   2.471  41.807  1.00 15.90 LIG 0.01  A 
ENDBRANCH 9 10
ENDBRANCH 5 9
ENDBRANCH 3 5
BRANCH 1 20
ATOM     20  CA  ALA C 251      25.372   6.098  44.492  1.00 18.99 LIG 0.17  C 
ATOM     21  CB  ALA C 251      25.820   4.823  45.186  1.00 19.07 LIG 0.04  C 
BRANCH 20 22
ATOM     22  N   ALA C 251      24.150   6.610  45.114  1.00 20.05 LIG-0.35  N 
ATOM     23 H    ALA C 251      24.054   6.353  45.929  1.00 20.05 LIG 0.16  HD
ATOM     24  C   GLY C 250      23.277   7.383  44.514  1.00 20.79 LIG 0.24  C 
ATOM     25 O    GLY C 250      23.367   7.791  43.340  1.00 21.58 LIG-0.27  OA
BRANCH 24 26
ATOM     26  CA  GLY C 250      22.074   7.767  45.369  1.00 21.39 LIG 0.33  C 
BRANCH 26 27
ATOM     27  N   GLY C 250      22.435   7.765  46.797  1.00 22.00 LIG-0.07  N 
ATOM     28 H1   GLY C 250      21.695   7.751  47.291  1.00 22.00 LIG 0.27  HD
ATOM     29 H2   GLY C 250      22.926   7.045  46.979  1.00 22.00 LIG 0.27  HD
ATOM     30 H3   GLY C 250      22.904   8.498  46.985  1.00 22.00 LIG 0.27  HD
ENDBRANCH 26 27
ENDBRANCH 24 26
ENDBRANCH 20 22
ENDBRANCH 1 20
TORSDOF 8
ENDMDL
MODEL 2
USER: ADFR SOLUTION from run 4
USER: SCORE 12.374666 LL:  -1.754 LR: -10.783 RR:   0.000 FEB:  -8.396
USER: RMSD 0.780739
USER: SEED 211438
USER: STATUS no improvement in best 11 clusters for 5 generations
USER: GENES 10
USER: genes 0 Translation |==|  0.52729 0.47433 0.46133
USER: genes 1 Rotation |==|  0.41024 0.50841 0.55190 0.98906
USER: genes 2 Torsion [C]-N--CA-[C] |==|  0.71046
USER: genes 3 Torsion [N]-CA--C-[O] |==|  0.65874
USER: genes 4 Torsion [N]-CA--CB-[CG] |==|  0.75193
USER: genes 5 Torsion [CA]-CB--CG-[CD2] |==|  0.43515
USER: genes 6 Torsion [N]-C--CA-[N] |==|  0.43229
USER: genes 7 Torsion [C]-CA--N-[C] |==|  0.85249
USER: genes 8 Torsion [N]-C--CA-[N] |==|  0.42373
USER: genes 9 Torsion [C]-CA--N-[H2] |==|  0.24936
ROOT
ATOM      1  C   ALA C 251      29.639   1.730  39.020  1.00 17.89 LIG 0.24  C 
ATOM      2 O    ALA C 251      29.634   0.735  39.759  1.00 18.07 LIG-0.27  OA
ATOM      3  N   TRP C 252      28.572   2.223  38.415  1.00 16.45 LIG-0.34  N 
ATOM      4 H    TRP C 252      28.567   2.904  37.889  1.00 16.45 LIG 0.16  HD
ENDROOT
BRANCH 3 5
ATOM      5  CA  TRP C 252      27.242   1.566  38.641  1.00 14.97 LIG 0.19  C 
BRANCH 5 6
ATOM      6  C   TRP C 252      26.900   0.759  37.415  1.00 14.13 LIG 0.20  C 
ATOM      7 O    TRP C 252      25.820   1.000  36.808  1.00 13.79 LIG-0.65  OA
ATOM      8 OXT  TRP C 252      27.733  -0.125  37.089  0.30 14.18 LIG-0.65  OA
ENDBRANCH 5 6
BRANCH 5 9
ATOM      9  CB  TRP C 252      26.269   2.613  39.143  1.00 15.10 LIG 0.08  C 
BRANCH 9 10
ATOM     10  CG  TRP C 252      26.300   2.709  40.639  1.00 15.42 LIG-0.03  A 
ATOM     11  CD1 TRP C 252      26.671   1.691  41.486  1.00 15.27 LIG 0.10  A 
ATOM     12  NE1 TRP C 252      26.560   2.109  42.794  1.00 15.23 LIG-0.36  N 
ATOM     13 HE1  TRP C 252      26.754   1.639  43.488  1.00 15.23 LIG 0.17  HD
ATOM     14  CE2 TRP C 252      26.090   3.397  42.806  1.00 15.53 LIG 0.04  A 
ATOM     15  CZ2 TRP C 252      25.819   4.207  43.911  1.00 15.28 LIG 0.03  A 
ATOM     16  CD2 TRP C 252      25.920   3.811  41.467  1.00 15.41 LIG-0.00  A 
ATOM     17  CH2 TRP C 252      25.354   5.496  43.628  1.00 15.35 LIG 0.00  A 
ATOM     18  CZ3 TRP C 252      25.184   5.916  42.298  1.00 15.31 LIG 0.00  A 
ATOM     19  CE3 TRP C 252      25.457   5.096  41.218  1.00 15.90 LIG 0.01  A 
ENDBRANCH 9 10
ENDBRANCH 5 9
ENDBRANCH 3 5
BRANCH 1 20
ATOM     20  CA  ALA C 251      30.930   2.496  38.724  1.00 18.99 LIG 0.17  C 
ATOM     21  CB  ALA C 251      31.555   2.040  37.416  1.00 19.07 LIG 0.04  C 
BRANCH 20 22
ATOM     22  N   ALA C 251      31.853   2.260  39.835  1.00 20.05 LIG-0.35  N 
ATOM     23 H    ALA C 251      32.621   1.973  39.579  1.00 20.05 LIG 0.16  HD
ATOM     24  C   GLY C 250      31.561   2.458  41.098  1.00 20.79 LIG 0.24  C 
ATOM     25 O    GLY C 250      30.469   2.875  41.526  1.00 21.58 LIG-0.27  OA
BRANCH 24 26
ATOM     26  CA  GLY C 250      32.686   2.117  42.071  1.00 21.39 LIG 0.33  C 
BRANCH 26 27
ATOM     27  N   GLY C 250      32.570   2.928  43.295  1.00 22.00 LIG-0.07  N 
ATOM     28 H1   GLY C 250      32.196   3.711  43.099  1.00 22.00 LIG 0.27  HD
ATOM     29 H2   GLY C 250      32.064   2.498  43.889  1.00 22.00 LIG 0.27  HD
ATOM     30 H3   GLY C 250      33.379   3.063  43.640  1.00 22.00 LIG 0.27  HD
ENDBRANCH 26 27
ENDBRANCH 24 26
ENDBRANCH 20 22
ENDBRANCH 1 20
TORSDOF 8
ENDMDL
MODEL 3
USER: ADFR SOLUTION from run 107
USER: SCORE 12.033801 LL:  -1.955 LR: -10.465 RR:   0.000 FEB:  -8.079
USER: RMSD 2.080154
USER: SEED 106
USER: STATUS no improvement in best 16 clusters for 5 generations
USER: GENES 10
USER: genes 0 Translation |==|  0.49664 0.48313 0.48854
USER: genes 1 Rotation |==|  0.36927 0.43174 0.48188 0.97741
USER: genes 2 Torsion [C]-N--CA-[C] |==|  0.74464
USER: genes 3 Torsion [N]-CA--C-[O] |==|  0.60094
USER: genes 4 Torsion [N]-CA--CB-[CG] |==|  0.81490
USER: genes 5 Torsion [CA]-CB--CG-[CD2] |==|  0.91374
USER: genes 6 Torsion [N]-C--CA-[N] |==|  0.50000
USER: genes 7 Torsion [C]-CA--N-[C] |==|  0.62468
USER: genes 8 Torsion [N]-C--CA-[N] |==|  0.57752
USER: genes 9 Torsion [C]-CA--N-[H2] |==|  0.91889
ROOT
ATOM      1  C   ALA C 251      28.719   1.994  39.836  1.00 17.89 LIG 0.24  C 
ATOM      2 O    ALA C 251      28.232   1.163  40.615  1.00 18.07 LIG-0.27  OA
ATOM      3  N   TRP C 252      28.069   2.556  38.832  1.00 16.45 LIG-0.34  N 
ATOM      4 H    TRP C 252      28.403   3.123  38.278  1.00 16.45 LIG 0.16  HD
ENDROOT
BRANCH 3 5
ATOM      5  CA  TRP C 252      26.629   2.200  38.611  1.00 14.97 LIG 0.19  C 
BRANCH 5 6
ATOM      6  C   TRP C 252      26.571   1.044  37.645  1.00 14.13 LIG 0.20  C 
ATOM      7 O    TRP C 252      25.632   0.999  36.803  1.00 13.79 LIG-0.65  OA
ATOM      8 OXT  TRP C 252      27.480   0.183  37.764  0.30 14.18 LIG-0.65  OA
ENDBRANCH 5 6
BRANCH 5 9
ATOM      9  CB  TRP C 252      25.862   3.470  38.304  1.00 15.10 LIG 0.08  C 
BRANCH 9 10
ATOM     10  CG  TRP C 252      25.823   4.381  39.495  1.00 15.42 LIG-0.03  A 
ATOM     11  CD1 TRP C 252      25.830   5.755  39.435  1.00 15.27 LIG 0.10  A 
ATOM     12  NE1 TRP C 252      25.813   6.277  40.710  1.00 15.23 LIG-0.36  N 
ATOM     13 HE1  TRP C 252      25.800   7.114  40.908  1.00 15.23 LIG 0.17  HD
ATOM     14  CE2 TRP C 252      25.822   5.242  41.609  1.00 15.53 LIG 0.04  A 
ATOM     15  CZ2 TRP C 252      25.821   5.310  43.004  1.00 15.28 LIG 0.03  A 
ATOM     16  CD2 TRP C 252      25.822   4.033  40.881  1.00 15.41 LIG-0.00  A 
ATOM     17  CH2 TRP C 252      25.820   4.084  43.678  1.00 15.35 LIG 0.00  A 
ATOM     18  CZ3 TRP C 252      25.819   2.877  42.961  1.00 15.31 LIG 0.00  A 
ATOM     19  CE3 TRP C 252      25.822   2.832  41.578  1.00 15.90 LIG 0.01  A 
ENDBRANCH 9 10
ENDBRANCH 5 9
ENDBRANCH 3 5
BRANCH 1 20
ATOM     20  CA  ALA C 251      30.174   2.450  39.967  1.00 18.99 LIG 0.17  C 
ATOM     21  CB  ALA C 251      30.964   2.147  38.706  1.00 19.07 LIG 0.04  C 
BRANCH 20 22
ATOM     22  N   ALA C 251      30.759   1.750  41.111  1.00 20.05 LIG-0.35  N 
ATOM     23 H    ALA C 251      30.567   0.912  41.127  1.00 20.05 LIG 0.16  HD
ATOM     24  C   GLY C 250      31.503   2.318  42.030  1.00 20.79 LIG 0.24  C 
ATOM     25 O    GLY C 250      31.818   3.523  42.055  1.00 21.58 LIG-0.27  OA
BRANCH 24 26
ATOM     26  CA  GLY C 250      31.977   1.379  43.134  1.00 21.39 LIG 0.33  C 
BRANCH 26 27
ATOM     27  N   GLY C 250      32.196   2.125  44.385  1.00 22.00 LIG-0.07  N 
ATOM     28 H1   GLY C 250      32.847   1.738  44.852  1.00 22.00 LIG 0.27  HD
ATOM     29 H2   GLY C 250      32.426   2.964  44.195  1.00 22.00 LIG 0.27  HD
ATOM     30 H3   GLY C 250      31.446   2.125  44.866  1.00 22.00 LIG 0.27  HD
ENDBRANCH 26 27
ENDBRANCH 24 26
ENDBRANCH 20 22
ENDBRANCH 1 20
TORSDOF 8
ENDMDL
MODEL 4
USER: ADFR SOLUTION from run 57
USER: SCORE 11.926245 LL:  -1.796 LR: -10.335 RR:   0.000 FEB:  -7.949
USER: RMSD 5.061725
USER: SEED 56
USER: STATUS no improvement in best 11 clusters for 5 generations
USER: GENES 10
USER: genes 0 Translation |==|  0.47266 0.45205 0.46011
USER: genes 1 Rotation |==|  0.85661 0.39762 0.17957 0.59834
USER: genes 2 Torsion [C]-N--CA-[C] |==|  0.64792
USER: genes 3 Torsion [N]-CA--C-[O] |==|  0.27370
USER: genes 4 Torsion [N]-CA--CB-[CG] |==|  0.59896
USER: genes 5 Torsion [CA]-CB--CG-[CD2] |==|  0.12873
USER: genes 6 Torsion [N]-C--CA-[N] |==|  0.46208
USER: genes 7 Torsion [C]-CA--N-[C] |==|  0.53917
USER: genes 8 Torsion [N]-C--CA-[N] |==|  0.40167
USER: genes 9 Torsion [C]-CA--N-[H2] |==|  0.83848
ROOT
ATOM      1  C   ALA C 251      28.000   1.062  38.983  1.00 17.89 LIG 0.24  C 
ATOM      2 O    ALA C 251      27.686   2.170  38.527  1.00 18.07 LIG-0.27  OA
ATOM      3  N   TRP C 252      28.263   0.819  40.256  1.00 16.45 LIG-0.34  N 
ATOM      4 H    TRP C 252      28.495   0.057  40.580  1.00 16.45 LIG 0.16  HD
ENDROOT
BRANCH 3 5
ATOM      5  CA  TRP C 252      28.158   1.942  41.245  1.00 14.97 LIG 0.19  C 
BRANCH 5 6
ATOM      6  C   TRP C 252      29.455   2.022  42.007  1.00 14.13 LIG 0.20  C 
ATOM      7 O    TRP C 252      30.317   2.875  41.657  1.00 13.79 LIG-0.65  OA
ATOM      8 OXT  TRP C 252      29.588   1.203  42.952  0.30 14.18 LIG-0.65  OA
ENDBRANCH 5 6
BRANCH 5 9
ATOM      9  CB  TRP C 252      26.854   1.795  42.001  1.00 15.10 LIG 0.08  C 
BRANCH 9 10
ATOM     10  CG  TRP C 252      26.253   3.134  42.312  1.00 15.42 LIG-0.03  A 
ATOM     11  CD1 TRP C 252      25.703   3.487  43.522  1.00 15.27 LIG 0.10  A 
ATOM     12  NE1 TRP C 252      25.222   4.776  43.457  1.00 15.23 LIG-0.36  N 
ATOM     13 HE1  TRP C 252      24.850   5.206  44.102  1.00 15.23 LIG 0.17  HD
ATOM     14  CE2 TRP C 252      25.434   5.261  42.191  1.00 15.53 LIG 0.04  A 
ATOM     15  CZ2 TRP C 252      25.097   6.516  41.680  1.00 15.28 LIG 0.03  A 
ATOM     16  CD2 TRP C 252      26.087   4.257  41.444  1.00 15.41 LIG-0.00  A 
ATOM     17  CH2 TRP C 252      25.445   6.748  40.345  1.00 15.35 LIG 0.00  A 
ATOM     18  CZ3 TRP C 252      26.096   5.755  39.595  1.00 15.31 LIG 0.00  A 
ATOM     19  CE3 TRP C 252      26.419   4.517  40.122  1.00 15.90 LIG 0.01  A 
ENDBRANCH 9 10
ENDBRANCH 5 9
ENDBRANCH 3 5
BRANCH 1 20
ATOM     20  CA  ALA C 251      28.125  -0.166  38.079  1.00 18.99 LIG 0.17  C 
ATOM     21  CB  ALA C 251      29.580  -0.553  37.871  1.00 19.07 LIG 0.04  C 
BRANCH 20 22
ATOM     22  N   ALA C 251      27.501   0.161  36.796  1.00 20.05 LIG-0.35  N 
ATOM     23 H    ALA C 251      27.355   1.002  36.697  1.00 20.05 LIG 0.16  HD
ATOM     24  C   GLY C 250      27.186  -0.720  35.877  1.00 20.79 LIG 0.24  C 
ATOM     25 O    GLY C 250      27.377  -1.948  35.963  1.00 21.58 LIG-0.27  OA
BRANCH 24 26
ATOM     26  CA  GLY C 250      26.524  -0.133  34.634  1.00 21.39 LIG 0.33  C 
BRANCH 26 27
ATOM     27  N   GLY C 250      26.946  -0.870  33.430  1.00 22.00 LIG-0.07  N 
ATOM     28 H1   GLY C 250      26.574  -0.500  32.710  1.00 22.00 LIG 0.27  HD
ATOM     29 H2   GLY C 250      27.832  -0.836  33.356  1.00 22.00 LIG 0.27  HD
ATOM     30 H3   GLY C 250      26.686  -1.719  33.495  1.00 22.00 LIG 0.27  HD
ENDBRANCH 26 27
ENDBRANCH 24 26
ENDBRANCH 20 22
ENDBRANCH 1 20
TORSDOF 8
ENDMDL
MODEL 5
USER: ADFR SOLUTION from run 51
USER: SCORE 11.714269 LL:  -1.813 LR: -10.197 RR:   0.000 FEB:  -7.810
USER: RMSD 3.925397
USER: SEED 50
USER: STATUS no improvement in best 15 clusters for 5 generations
USER: GENES 10
USER: genes 0 Translation |==|  0.46457 0.46968 0.47590
USER: genes 1 Rotation |==|  0.58380 0.83586 0.31213 0.80802
USER: genes 2 Torsion [C]-N--CA-[C] |==|  0.22305
USER: genes 3 Torsion [N]-CA--C-[O] |==|  0.72004
USER: genes 4 Torsion [N]-CA--CB-[CG] |==|  0.72411
USER: genes 5 Torsion [CA]-CB--CG-[CD2] |==|  0.15336
USER: genes 6 Torsion [N]-C--CA-[N] |==|  0.11930
USER: genes 7 Torsion [C]-CA--N-[C] |==|  0.18807
USER: genes 8 Torsion [N]-C--CA-[N] |==|  0.10657
USER: genes 9 Torsion [C]-CA--N-[H2] |==|  0.03218
ROOT
ATOM      1  C   ALA C 251      27.757   1.590  39.457  1.00 17.89 LIG 0.24  C 
ATOM      2 O    ALA C 251      27.239   0.639  40.059  1.00 18.07 LIG-0.27  OA
ATOM      3  N   TRP C 252      28.262   2.665  40.039  1.00 16.45 LIG-0.34  N 
ATOM      4 H    TRP C 252      28.610   3.336  39.629  1.00 16.45 LIG 0.16  HD
ENDROOT
BRANCH 3 5
ATOM      5  CA  TRP C 252      28.242   2.754  41.536  1.00 14.97 LIG 0.19  C 
BRANCH 5 6
ATOM      6  C   TRP C 252      29.393   1.943  42.073  1.00 14.13 LIG 0.20  C 
ATOM      7 O    TRP C 252      29.165   0.788  42.528  1.00 13.79 LIG-0.65  OA
ATOM      8 OXT  TRP C 252      30.520   2.500  42.039  0.30 14.18 LIG-0.65  OA
ENDBRANCH 5 6
BRANCH 5 9
ATOM      9  CB  TRP C 252      26.834   2.463  42.015  1.00 15.10 LIG 0.08  C 
BRANCH 9 10
ATOM     10  CG  TRP C 252      26.091   3.731  42.316  1.00 15.42 LIG-0.03  A 
ATOM     11  CD1 TRP C 252      25.445   4.003  43.500  1.00 15.27 LIG 0.10  A 
ATOM     12  NE1 TRP C 252      24.845   5.241  43.430  1.00 15.23 LIG-0.36  N 
ATOM     13 HE1  TRP C 252      24.399   5.618  44.062  1.00 15.23 LIG 0.17  HD
ATOM     14  CE2 TRP C 252      25.076   5.772  42.187  1.00 15.53 LIG 0.04  A 
ATOM     15  CZ2 TRP C 252      24.646   7.000  41.680  1.00 15.28 LIG 0.03  A 
ATOM     16  CD2 TRP C 252      25.863   4.852  41.460  1.00 15.41 LIG-0.00  A 
ATOM     17  CH2 TRP C 252      25.041   7.295  40.371  1.00 15.35 LIG 0.00  A 
ATOM     18  CZ3 TRP C 252      25.824   6.386  39.640  1.00 15.31 LIG 0.00  A 
ATOM     19  CE3 TRP C 252      26.238   5.173  40.163  1.00 15.90 LIG 0.01  A 
ENDBRANCH 9 10
ENDBRANCH 5 9
ENDBRANCH 3 5
BRANCH 1 20
ATOM     20  CA  ALA C 251      27.851   1.610  37.930  1.00 18.99 LIG 0.17  C 
ATOM     21  CB  ALA C 251      27.631   0.225  37.345  1.00 19.07 LIG 0.04  C 
BRANCH 20 22
ATOM     22  N   ALA C 251      29.181   2.104  37.572  1.00 20.05 LIG-0.35  N 
ATOM     23 H    ALA C 251      29.163   2.875  37.191  1.00 20.05 LIG 0.16  HD
ATOM     24  C   GLY C 250      30.300   1.459  37.797  1.00 20.79 LIG 0.24  C 
ATOM     25 O    GLY C 250      30.389   0.345  38.347  1.00 21.58 LIG-0.27  OA
BRANCH 24 26
ATOM     26  CA  GLY C 250      31.556   2.174  37.310  1.00 21.39 LIG 0.33  C 
BRANCH 26 27
ATOM     27  N   GLY C 250      31.445   3.625  37.543  1.00 22.00 LIG-0.07  N 
ATOM     28 H1   GLY C 250      31.332   4.043  36.765  1.00 22.00 LIG 0.27  HD
ATOM     29 H2   GLY C 250      30.747   3.789  38.071  1.00 22.00 LIG 0.27  HD
ATOM     30 H3   GLY C 250      32.188   3.921  37.934  1.00 22.00 LIG 0.27  HD
ENDBRANCH 26 27
ENDBRANCH 24 26
ENDBRANCH 20 22
ENDBRANCH 1 20
TORSDOF 8
ENDMDL
MODEL 6
USER: ADFR SOLUTION from run 95
USER: SCORE 10.840117 LL:  -1.621 LR: -10.167 RR:   0.000 FEB:  -7.780
USER: RMSD 6.942167
USER: SEED 94
USER: STATUS no improvement in best 14 clusters for 5 generations
USER: GENES 10
USER: genes 0 Translation |==|  0.42505 0.51515 0.55492
USER: genes 1 Rotation |==|  0.40034 0.08051 0.68978 0.66756
USER: genes 2 Torsion [C]-N--CA-[C] |==|  0.77700
USER: genes 3 Torsion [N]-CA--C-[O] |==|  0.26559
USER: genes 4 Torsion [N]-CA--CB-[CG] |==|  0.76757
USER: genes 5 Torsion [CA]-CB--CG-[CD2] |==|  0.63849
USER: genes 6 Torsion [N]-C--CA-[N] |==|  0.69444
USER: genes 7 Torsion [C]-CA--N-[C] |==|  0.53382
USER: genes 8 Torsion [N]-C--CA-[N] |==|  0.59095
USER: genes 9 Torsion [C]-CA--N-[H2] |==|  0.33043
ROOT
ATOM      1  C   ALA C 251      26.571   2.955  41.827  1.00 17.89 LIG 0.24  C 
ATOM      2 O    ALA C 251      26.412   1.899  42.457  1.00 18.07 LIG-0.27  OA
ATOM      3  N   TRP C 252      27.547   3.176  40.963  1.00 16.45 LIG-0.34  N 
ATOM      4 H    TRP C 252      27.673   3.910  40.532  1.00 16.45 LIG 0.16  HD
ENDROOT
BRANCH 3 5
ATOM      5  CA  TRP C 252      28.532   2.079  40.686  1.00 14.97 LIG 0.19  C 
BRANCH 5 6
ATOM      6  C   TRP C 252      29.546   2.063  41.800  1.00 14.13 LIG 0.20  C 
ATOM      7 O    TRP C 252      29.379   1.267  42.765  1.00 13.79 LIG-0.65  OA
ATOM      8 OXT  TRP C 252      30.500   2.874  41.687  0.30 14.18 LIG-0.65  OA
ENDBRANCH 5 6
BRANCH 5 9
ATOM      9  CB  TRP C 252      29.000   2.207  39.251  1.00 15.10 LIG 0.08  C 
BRANCH 9 10
ATOM     10  CG  TRP C 252      28.039   1.547  38.306  1.00 15.42 LIG-0.03  A 
ATOM     11  CD1 TRP C 252      26.674   1.715  38.327  1.00 15.27 LIG 0.10  A 
ATOM     12  NE1 TRP C 252      26.094   0.946  37.343  1.00 15.23 LIG-0.36  N 
ATOM     13 HE1  TRP C 252      25.253   0.908  37.167  1.00 15.23 LIG 0.17  HD
ATOM     14  CE2 TRP C 252      27.080   0.251  36.690  1.00 15.53 LIG 0.04  A 
ATOM     15  CZ2 TRP C 252      26.945  -0.652  35.633  1.00 15.28 LIG 0.03  A 
ATOM     16  CD2 TRP C 252      28.319   0.609  37.265  1.00 15.41 LIG-0.00  A 
ATOM     17  CH2 TRP C 252      28.132  -1.210  35.148  1.00 15.35 LIG 0.00  A 
ATOM     18  CZ3 TRP C 252      29.369  -0.859  35.713  1.00 15.31 LIG 0.00  A 
ATOM     19  CE3 TRP C 252      29.479   0.037  36.762  1.00 15.90 LIG 0.01  A 
ENDBRANCH 9 10
ENDBRANCH 5 9
ENDBRANCH 3 5
BRANCH 1 20
ATOM     20  CA  ALA C 251      25.624   4.142  42.012  1.00 18.99 LIG 0.17  C 
ATOM     21  CB  ALA C 251      25.866   5.210  40.959  1.00 19.07 LIG 0.04  C 
BRANCH 20 22
ATOM     22  N   ALA C 251      25.850   4.689  43.350  1.00 20.05 LIG-0.35  N 
ATOM     23 H    ALA C 251      26.560   4.380  43.724  1.00 20.05 LIG 0.16  HD
ATOM     24  C   GLY C 250      25.068   5.561  43.939  1.00 20.79 LIG 0.24  C 
ATOM     25 O    GLY C 250      24.033   6.046  43.444  1.00 21.58 LIG-0.27  OA
BRANCH 24 26
ATOM     26  CA  GLY C 250      25.506   5.963  45.343  1.00 21.39 LIG 0.33  C 
BRANCH 26 27
ATOM     27  N   GLY C 250      24.333   6.250  46.186  1.00 22.00 LIG-0.07  N 
ATOM     28 H1   GLY C 250      23.590   6.147  45.707  1.00 22.00 LIG 0.27  HD
ATOM     29 H2   GLY C 250      24.319   5.689  46.877  1.00 22.00 LIG 0.27  HD
ATOM     30 H3   GLY C 250      24.380   7.087  46.485  1.00 22.00 LIG 0.27  HD
ENDBRANCH 26 27
ENDBRANCH 24 26
ENDBRANCH 20 22
ENDBRANCH 1 20
TORSDOF 8
ENDMDL
MODEL 7
USER: ADFR SOLUTION from run 133
USER: SCORE 11.406837 LL:  -1.692 LR: -10.163 RR:   0.000 FEB:  -7.776
USER: RMSD 4.136837
USER: SEED 132
USER: STATUS no improvement in best 18 clusters for 5 generations
USER: GENES 10
USER: genes 0 Translation |==|  0.49607 0.45062 0.41736
USER: genes 1 Rotation |==|  0.03049 0.63802 0.59669 0.53413
USER: genes 2 Torsion [C]-N--CA-[C] |==|  0.22529
USER: genes 3 Torsion [N]-CA--C-[O] |==|  0.08921
USER: genes 4 Torsion [N]-CA--CB-[CG] |==|  0.61628
USER: genes 5 Torsion [CA]-CB--CG-[CD2] |==|  0.72181
USER: genes 6 Torsion [N]-C--CA-[N] |==|  0.27424
USER: genes 7 Torsion [C]-CA--N-[C] |==|  0.82777
USER: genes 8 Torsion [N]-C--CA-[N] |==|  0.33592
USER: genes 9 Torsion [C]-CA--N-[H2] |==|  0.52592
ROOT
ATOM      1  C   ALA C 251      28.702   1.019  37.701  1.00 17.89 LIG 0.24  C 
ATOM      2 O    ALA C 251      29.032   2.199  37.517  1.00 18.07 LIG-0.27  OA
ATOM      3  N   TRP C 252      27.648   0.632  38.398  1.00 16.45 LIG-0.34  N 
ATOM      4 H    TRP C 252      27.419  -0.185  38.542  1.00 16.45 LIG 0.16  HD
ENDROOT
BRANCH 3 5
ATOM      5  CA  TRP C 252      26.755   1.675  39.000  1.00 14.97 LIG 0.19  C 
BRANCH 5 6
ATOM      6  C   TRP C 252      25.820   2.173  37.928  1.00 14.13 LIG 0.20  C 
ATOM      7 O    TRP C 252      25.449   1.375  37.024  1.00 13.79 LIG-0.65  OA
ATOM      8 OXT  TRP C 252      25.483   3.382  38.011  0.30 14.18 LIG-0.65  OA
ENDBRANCH 5 6
BRANCH 5 9
ATOM      9  CB  TRP C 252      27.616   2.663  39.759  1.00 15.10 LIG 0.08  C 
BRANCH 9 10
ATOM     10  CG  TRP C 252      26.988   3.036  41.070  1.00 15.42 LIG-0.03  A 
ATOM     11  CD1 TRP C 252      26.993   2.249  42.197  1.00 15.27 LIG 0.10  A 
ATOM     12  NE1 TRP C 252      26.306   2.881  43.210  1.00 15.23 LIG-0.36  N 
ATOM     13 HE1  TRP C 252      26.196   2.576  44.007  1.00 15.23 LIG 0.17  HD
ATOM     14  CE2 TRP C 252      25.827   4.076  42.738  1.00 15.53 LIG 0.04  A 
ATOM     15  CZ2 TRP C 252      25.070   5.032  43.418  1.00 15.28 LIG 0.03  A 
ATOM     16  CD2 TRP C 252      26.242   4.211  41.395  1.00 15.41 LIG-0.00  A 
ATOM     17  CH2 TRP C 252      24.725   6.174  42.688  1.00 15.35 LIG 0.00  A 
ATOM     18  CZ3 TRP C 252      25.134   6.317  41.352  1.00 15.31 LIG 0.00  A 
ATOM     19  CE3 TRP C 252      25.883   5.355  40.696  1.00 15.90 LIG 0.01  A 
ENDBRANCH 9 10
ENDBRANCH 5 9
ENDBRANCH 3 5
BRANCH 1 20
ATOM     20  CA  ALA C 251      29.524  -0.136  37.125  1.00 18.99 LIG 0.17  C 
ATOM     21  CB  ALA C 251      31.014   0.143  37.221  1.00 19.07 LIG 0.04  C 
BRANCH 20 22
ATOM     22  N   ALA C 251      29.131  -0.308  35.725  1.00 20.05 LIG-0.35  N 
ATOM     23 H    ALA C 251      29.778  -0.177  35.175  1.00 20.05 LIG 0.16  HD
ATOM     24  C   GLY C 250      27.923  -0.627  35.326  1.00 20.79 LIG 0.24  C 
ATOM     25 O    GLY C 250      26.950  -0.833  36.075  1.00 21.58 LIG-0.27  OA
BRANCH 24 26
ATOM     26  CA  GLY C 250      27.759  -0.726  33.812  1.00 21.39 LIG 0.33  C 
BRANCH 26 27
ATOM     27  N   GLY C 250      27.309  -2.075  33.430  1.00 22.00 LIG-0.07  N 
ATOM     28 H1   GLY C 250      26.471  -2.198  33.703  1.00 22.00 LIG 0.27  HD
ATOM     29 H2   GLY C 250      27.347  -2.162  32.545  1.00 22.00 LIG 0.27  HD
ATOM     30 H3   GLY C 250      27.837  -2.683  33.810  1.00 22.00 LIG 0.27  HD
ENDBRANCH 26 27
ENDBRANCH 24 26
ENDBRANCH 20 22
ENDBRANCH 1 20
TORSDOF 8
ENDMDL
MODEL 8
USER: ADFR SOLUTION from run 45
USER: SCORE 11.677954 LL:  -1.749 LR: -10.045 RR:   0.000 FEB:  -7.659
USER: RMSD 4.922145
USER: SEED 44
USER: STATUS no improvement in best 13 clusters for 5 generations
USER: GENES 10
USER: genes 0 Translation |==|  0.50108 0.43243 0.44418
USER: genes 1 Rotation |==|  0.87695 0.29583 0.24704 0.54728
USER: genes 2 Torsion [C]-N--CA-[C] |==|  0.65501
USER: genes 3 Torsion [N]-CA--C-[O] |==|  0.36850
USER: genes 4 Torsion [N]-CA--CB-[CG] |==|  0.68583
USER: genes 5 Torsion [CA]-CB--CG-[CD2] |==|  0.64611
USER: genes 6 Torsion [N]-C--CA-[N] |==|  0.45912
USER: genes 7 Torsion [C]-CA--N-[C] |==|  0.78101
USER: genes 8 Torsion [N]-C--CA-[N] |==|  0.35842
USER: genes 9 Torsion [C]-CA--N-[H2] |==|  0.59779
ROOT
ATOM      1  C   ALA C 251      28.853   0.473  38.505  1.00 17.89 LIG 0.24  C 
ATOM      2 O    ALA C 251      29.135   1.499  37.872  1.00 18.07 LIG-0.27  OA
ATOM      3  N   TRP C 252      28.577   0.438  39.798  1.00 16.45 LIG-0.34  N 
ATOM      4 H    TRP C 252      28.394  -0.271  40.249  1.00 16.45 LIG 0.16  HD
ENDROOT
BRANCH 3 5
ATOM      5  CA  TRP C 252      28.576   1.722  40.573  1.00 14.97 LIG 0.19  C 
BRANCH 5 6
ATOM      6  C   TRP C 252      29.535   1.578  41.727  1.00 14.13 LIG 0.20  C 
ATOM      7 O    TRP C 252      30.368   2.500  41.947  1.00 13.79 LIG-0.65  OA
ATOM      8 OXT  TRP C 252      29.437   0.515  42.393  0.30 14.18 LIG-0.65  OA
ENDBRANCH 5 6
BRANCH 5 9
ATOM      9  CB  TRP C 252      27.139   2.119  40.840  1.00 15.10 LIG 0.08  C 
BRANCH 9 10
ATOM     10  CG  TRP C 252      26.776   3.374  40.102  1.00 15.42 LIG-0.03  A 
ATOM     11  CD1 TRP C 252      26.998   3.590  38.762  1.00 15.27 LIG 0.10  A 
ATOM     12  NE1 TRP C 252      26.570   4.853  38.417  1.00 15.23 LIG-0.36  N 
ATOM     13 HE1  TRP C 252      26.599   5.194  37.628  1.00 15.23 LIG 0.17  HD
ATOM     14  CE2 TRP C 252      26.089   5.477  39.540  1.00 15.53 LIG 0.04  A 
ATOM     15  CZ2 TRP C 252      25.565   6.766  39.653  1.00 15.28 LIG 0.03  A 
ATOM     16  CD2 TRP C 252      26.197   4.573  40.619  1.00 15.41 LIG-0.00  A 
ATOM     17  CH2 TRP C 252      25.134   7.143  40.930  1.00 15.35 LIG 0.00  A 
ATOM     18  CZ3 TRP C 252      25.237   6.250  42.009  1.00 15.31 LIG 0.00  A 
ATOM     19  CE3 TRP C 252      25.762   4.977  41.874  1.00 15.90 LIG 0.01  A 
ENDBRANCH 9 10
ENDBRANCH 5 9
ENDBRANCH 3 5
BRANCH 1 20
ATOM     20  CA  ALA C 251      28.806  -0.896  37.824  1.00 18.99 LIG 0.17  C 
ATOM     21  CB  ALA C 251      30.012  -1.741  38.198  1.00 19.07 LIG 0.04  C 
BRANCH 20 22
ATOM     22  N   ALA C 251      28.775  -0.672  36.377  1.00 20.05 LIG-0.35  N 
ATOM     23 H    ALA C 251      29.539  -0.789  36.002  1.00 20.05 LIG 0.16  HD
ATOM     24  C   GLY C 250      27.704  -0.330  35.701  1.00 20.79 LIG 0.24  C 
ATOM     25 O    GLY C 250      26.573  -0.153  36.190  1.00 21.58 LIG-0.27  OA
BRANCH 24 26
ATOM     26  CA  GLY C 250      27.932  -0.135  34.206  1.00 21.39 LIG 0.33  C 
BRANCH 26 27
ATOM     27  N   GLY C 250      26.945  -0.905  33.430  1.00 22.00 LIG-0.07  N 
ATOM     28 H1   GLY C 250      26.260  -0.379  33.215  1.00 22.00 LIG 0.27  HD
ATOM     29 H2   GLY C 250      27.326  -1.213  32.687  1.00 22.00 LIG 0.27  HD
ATOM     30 H3   GLY C 250      26.652  -1.589  33.918  1.00 22.00 LIG 0.27  HD
ENDBRANCH 26 27
ENDBRANCH 24 26
ENDBRANCH 20 22
ENDBRANCH 1 20
TORSDOF 8
ENDMDL
MODEL 9
USER: ADFR SOLUTION from run 49
USER: SCORE 11.444852 LL:  -1.483 LR:  -9.997 RR:   0.000 FEB:  -7.610
USER: RMSD 4.712033
USER: SEED 48
USER: STATUS no improvement in best 13 clusters for 5 generations
USER: GENES 10
USER: genes 0 Translation |==|  0.49697 0.42475 0.41486
USER: genes 1 Rotation |==|  0.87777 0.24820 0.29427 0.53954
USER: genes 2 Torsion [C]-N--CA-[C] |==|  0.67807
USER: genes 3 Torsion [N]-CA--C-[O] |==|  0.92550
USER: genes 4 Torsion [N]-CA--CB-[CG] |==|  0.32896
USER: genes 5 Torsion [CA]-CB--CG-[CD2] |==|  0.34363
USER: genes 6 Torsion [N]-C--CA-[N] |==|  0.43702
USER: genes 7 Torsion [C]-CA--N-[C] |==|  0.79624
USER: genes 8 Torsion [N]-C--CA-[N] |==|  0.23056
USER: genes 9 Torsion [C]-CA--N-[H2] |==|  0.14233
ROOT
ATOM      1  C   ALA C 251      28.729   0.243  37.626  1.00 17.89 LIG 0.24  C 
ATOM      2 O    ALA C 251      29.264   1.110  36.921  1.00 18.07 LIG-0.27  OA
ATOM      3  N   TRP C 252      28.245   0.451  38.838  1.00 16.45 LIG-0.34  N 
ATOM      4 H    TRP C 252      27.885  -0.148  39.340  1.00 16.45 LIG 0.16  HD
ENDROOT
BRANCH 3 5
ATOM      5  CA  TRP C 252      28.313   1.832  39.418  1.00 14.97 LIG 0.19  C 
BRANCH 5 6
ATOM      6  C   TRP C 252      29.210   1.794  40.628  1.00 14.13 LIG 0.20  C 
ATOM      7 O    TRP C 252      29.327   0.711  41.266  1.00 13.79 LIG-0.65  OA
ATOM      8 OXT  TRP C 252      29.779   2.875  40.925  0.30 14.18 LIG-0.65  OA
ENDBRANCH 5 6
BRANCH 5 9
ATOM      9  CB  TRP C 252      26.901   2.366  39.551  1.00 15.10 LIG 0.08  C 
BRANCH 9 10
ATOM     10  CG  TRP C 252      26.562   2.654  40.983  1.00 15.42 LIG-0.03  A 
ATOM     11  CD1 TRP C 252      26.586   1.727  41.999  1.00 15.27 LIG 0.10  A 
ATOM     12  NE1 TRP C 252      26.195   2.319  43.180  1.00 15.23 LIG-0.36  N 
ATOM     13 HE1  TRP C 252      26.151   1.929  43.945  1.00 15.23 LIG 0.17  HD
ATOM     14  CE2 TRP C 252      25.889   3.633  42.933  1.00 15.53 LIG 0.04  A 
ATOM     15  CZ2 TRP C 252      25.442   4.599  43.836  1.00 15.28 LIG 0.03  A 
ATOM     16  CD2 TRP C 252      26.114   3.881  41.562  1.00 15.41 LIG-0.00  A 
ATOM     17  CH2 TRP C 252      25.217   5.875  43.307  1.00 15.35 LIG 0.00  A 
ATOM     18  CZ3 TRP C 252      25.439   6.132  41.944  1.00 15.31 LIG 0.00  A 
ATOM     19  CE3 TRP C 252      25.881   5.157  41.067  1.00 15.90 LIG 0.01  A 
ENDBRANCH 9 10
ENDBRANCH 5 9
ENDBRANCH 3 5
BRANCH 1 20
ATOM     20  CA  ALA C 251      28.587  -1.201  37.140  1.00 18.99 LIG 0.17  C 
ATOM     21  CB  ALA C 251      29.695  -2.081  37.692  1.00 19.07 LIG 0.04  C 
BRANCH 20 22
ATOM     22  N   ALA C 251      28.634  -1.186  35.677  1.00 20.05 LIG-0.35  N 
ATOM     23 H    ALA C 251      29.373  -1.490  35.361  1.00 20.05 LIG 0.16  HD
ATOM     24  C   GLY C 250      27.663  -0.759  34.906  1.00 20.79 LIG 0.24  C 
ATOM     25 O    GLY C 250      26.571  -0.314  35.307  1.00 21.58 LIG-0.27  OA
BRANCH 24 26
ATOM     26  CA  GLY C 250      27.962  -0.824  33.412  1.00 21.39 LIG 0.33  C 
BRANCH 26 27
ATOM     27  N   GLY C 250      27.695  -2.177  32.893  1.00 22.00 LIG-0.07  N 
ATOM     28 H1   GLY C 250      28.295  -2.746  33.224  1.00 22.00 LIG 0.27  HD
ATOM     29 H2   GLY C 250      26.878  -2.434  33.138  1.00 22.00 LIG 0.27  HD
ATOM     30 H3   GLY C 250      27.750  -2.171  32.005  1.00 22.00 LIG 0.27  HD
ENDBRANCH 26 27
ENDBRANCH 24 26
ENDBRANCH 20 22
ENDBRANCH 1 20
TORSDOF 8
ENDMDL
MODEL 10
USER: ADFR SOLUTION from run 48
USER: SCORE 11.216257 LL:  -2.009 LR:  -9.896 RR:   0.000 FEB:  -7.510
USER: RMSD 4.410136
USER: SEED 47
USER: STATUS no improvement in best 11 clusters for 5 generations
USER: GENES 10
USER: genes 0 Translation |==|  0.47145 0.46022 0.43757
USER: genes 1 Rotation |==|  0.47543 0.61875 0.31914 0.95010
USER: genes 2 Torsion [C]-N--CA-[C] |==|  0.79159
USER: genes 3 Torsion [N]-CA--C-[O] |==|  0.02991
USER: genes 4 Torsion [N]-CA--CB-[CG] |==|  0.57801
USER: genes 5 Torsion [CA]-CB--CG-[CD2] |==|  0.12621
USER: genes 6 Torsion [N]-C--CA-[N] |==|  0.78931
USER: genes 7 Torsion [C]-CA--N-[C] |==|  0.83883
USER: genes 8 Torsion [N]-C--CA-[N] |==|  0.55885
USER: genes 9 Torsion [C]-CA--N-[H2] |==|  0.74865
ROOT
ATOM      1  C   ALA C 251      27.963   1.307  38.307  1.00 17.89 LIG 0.24  C 
ATOM      2 O    ALA C 251      27.231   0.594  39.007  1.00 18.07 LIG-0.27  OA
ATOM      3  N   TRP C 252      27.774   2.597  38.091  1.00 16.45 LIG-0.34  N 
ATOM      4 H    TRP C 252      28.269   3.096  37.595  1.00 16.45 LIG 0.16  HD
ENDROOT
BRANCH 3 5
ATOM      5  CA  TRP C 252      26.611   3.279  38.747  1.00 14.97 LIG 0.19  C 
BRANCH 5 6
ATOM      6  C   TRP C 252      25.355   2.875  38.020  1.00 14.13 LIG 0.20  C 
ATOM      7 O    TRP C 252      25.412   1.935  37.180  1.00 13.79 LIG-0.65  OA
ATOM      8 OXT  TRP C 252      24.320   3.532  38.304  0.30 14.18 LIG-0.65  OA
ENDBRANCH 5 6
BRANCH 5 9
ATOM      9  CB  TRP C 252      26.944   4.748  38.906  1.00 15.10 LIG 0.08  C 
BRANCH 9 10
ATOM     10  CG  TRP C 252      26.226   5.344  40.081  1.00 15.42 LIG-0.03  A 
ATOM     11  CD1 TRP C 252      25.605   6.571  40.084  1.00 15.27 LIG 0.10  A 
ATOM     12  NE1 TRP C 252      25.069   6.819  41.329  1.00 15.23 LIG-0.36  N 
ATOM     13 HE1  TRP C 252      24.625   7.520  41.553  1.00 15.23 LIG 0.17  HD
ATOM     14  CE2 TRP C 252      25.362   5.761  42.152  1.00 15.53 LIG 0.04  A 
ATOM     15  CZ2 TRP C 252      25.023   5.595  43.496  1.00 15.28 LIG 0.03  A 
ATOM     16  CD2 TRP C 252      26.083   4.810  41.399  1.00 15.41 LIG-0.00  A 
ATOM     17  CH2 TRP C 252      25.445   4.401  44.092  1.00 15.35 LIG 0.00  A 
ATOM     18  CZ3 TRP C 252      26.163   3.449  43.350  1.00 15.31 LIG 0.00  A 
ATOM     19  CE3 TRP C 252      26.489   3.636  42.018  1.00 15.90 LIG 0.01  A 
ENDBRANCH 9 10
ENDBRANCH 5 9
ENDBRANCH 3 5
BRANCH 1 20
ATOM     20  CA  ALA C 251      29.190   0.731  37.596  1.00 18.99 LIG 0.17  C 
ATOM     21  CB  ALA C 251      30.397   1.640  37.754  1.00 19.07 LIG 0.04  C 
BRANCH 20 22
ATOM     22  N   ALA C 251      28.854   0.578  36.180  1.00 20.05 LIG-0.35  N 
ATOM     23 H    ALA C 251      29.382   1.013  35.660  1.00 20.05 LIG 0.16  HD
ATOM     24  C   GLY C 250      27.856  -0.142  35.726  1.00 20.79 LIG 0.24  C 
ATOM     25 O    GLY C 250      27.063  -0.795  36.431  1.00 21.58 LIG-0.27  OA
BRANCH 24 26
ATOM     26  CA  GLY C 250      27.698  -0.125  34.210  1.00 21.39 LIG 0.33  C 
BRANCH 26 27
ATOM     27  N   GLY C 250      26.327  -0.507  33.831  1.00 22.00 LIG-0.07  N 
ATOM     28 H1   GLY C 250      26.103  -0.098  33.072  1.00 22.00 LIG 0.27  HD
ATOM     29 H2   GLY C 250      26.285  -1.389  33.714  1.00 22.00 LIG 0.27  HD
ATOM     30 H3   GLY C 250      25.762  -0.267  34.475  1.00 22.00 LIG 0.27  HD
ENDBRANCH 26 27
ENDBRANCH 24 26
ENDBRANCH 20 22
ENDBRANCH 1 20
TORSDOF 8
ENDMDL
MODEL 11
USER: ADFR SOLUTION from run 63
USER: SCORE 10.799829 LL:  -1.610 LR:  -9.855 RR:   0.000 FEB:  -7.469
USER: RMSD 3.284001
USER: SEED 62
USER: STATUS no improvement in best 16 clusters for 5 generations
USER: GENES 10
USER: genes 0 Translation |==|  0.52624 0.43568 0.42956
USER: genes 1 Rotation |==|  0.45631 0.57679 0.46779 0.99108
USER: genes 2 Torsion [C]-N--CA-[C] |==|  0.74976
USER: genes 3 Torsion [N]-CA--C-[O] |==|  0.64524
USER: genes 4 Torsion [N]-CA--CB-[CG] |==|  0.69889
USER: genes 5 Torsion [CA]-CB--CG-[CD2] |==|  0.51434
USER: genes 6 Torsion [N]-C--CA-[N] |==|  0.74823
USER: genes 7 Torsion [C]-CA--N-[C] |==|  0.61733
USER: genes 8 Torsion [N]-C--CA-[N] |==|  0.33136
USER: genes 9 Torsion [C]-CA--N-[H2] |==|  0.83209
ROOT
ATOM      1  C   ALA C 251      29.607   0.571  38.067  1.00 17.89 LIG 0.24  C 
ATOM      2 O    ALA C 251      29.359  -0.477  38.680  1.00 18.07 LIG-0.27  OA
ATOM      3  N   TRP C 252      28.721   1.514  37.798  1.00 16.45 LIG-0.34  N 
ATOM      4 H    TRP C 252      28.881   2.237  37.361  1.00 16.45 LIG 0.16  HD
ENDROOT
BRANCH 3 5
ATOM      5  CA  TRP C 252      27.311   1.341  38.280  1.00 14.97 LIG 0.19  C 
BRANCH 5 6
ATOM      6  C   TRP C 252      26.530   0.625  37.208  1.00 14.13 LIG 0.20  C 
ATOM      7 O    TRP C 252      25.445   1.128  36.805  1.00 13.79 LIG-0.65  OA
ATOM      8 OXT  TRP C 252      27.026  -0.455  36.796  0.30 14.18 LIG-0.65  OA
ENDBRANCH 5 6
BRANCH 5 9
ATOM      9  CB  TRP C 252      26.816   2.675  38.801  1.00 15.10 LIG 0.08  C 
BRANCH 9 10
ATOM     10  CG  TRP C 252      26.700   2.664  40.296  1.00 15.42 LIG-0.03  A 
ATOM     11  CD1 TRP C 252      27.049   1.608  41.105  1.00 15.27 LIG 0.10  A 
ATOM     12  NE1 TRP C 252      26.790   1.923  42.421  1.00 15.23 LIG-0.36  N 
ATOM     13 HE1  TRP C 252      26.945   1.415  43.097  1.00 15.23 LIG 0.17  HD
ATOM     14  CE2 TRP C 252      26.245   3.181  42.473  1.00 15.53 LIG 0.04  A 
ATOM     15  CZ2 TRP C 252      25.824   3.893  43.597  1.00 15.28 LIG 0.03  A 
ATOM     16  CD2 TRP C 252      26.179   3.681  41.154  1.00 15.41 LIG-0.00  A 
ATOM     17  CH2 TRP C 252      25.312   5.173  43.357  1.00 15.35 LIG 0.00  A 
ATOM     18  CZ3 TRP C 252      25.243   5.678  42.049  1.00 15.31 LIG 0.00  A 
ATOM     19  CE3 TRP C 252      25.665   4.954  40.948  1.00 15.90 LIG 0.01  A 
ENDBRANCH 9 10
ENDBRANCH 5 9
ENDBRANCH 3 5
BRANCH 1 20
ATOM     20  CA  ALA C 251      31.011   0.869  37.538  1.00 18.99 LIG 0.17  C 
ATOM     21  CB  ALA C 251      31.282   2.364  37.502  1.00 19.07 LIG 0.04  C 
BRANCH 20 22
ATOM     22  N   ALA C 251      31.110   0.305  36.191  1.00 20.05 LIG-0.35  N 
ATOM     23 H    ALA C 251      30.406   0.441  35.717  1.00 20.05 LIG 0.16  HD
ATOM     24  C   GLY C 250      32.152  -0.345  35.732  1.00 20.79 LIG 0.24  C 
ATOM     25 O    GLY C 250      33.198  -0.568  36.370  1.00 21.58 LIG-0.27  OA
BRANCH 24 26
ATOM     26  CA  GLY C 250      32.004  -0.856  34.302  1.00 21.39 LIG 0.33  C 
BRANCH 26 27
ATOM     27  N   GLY C 250      33.034  -0.261  33.434  1.00 22.00 LIG-0.07  N 
ATOM     28 H1   GLY C 250      32.940  -0.571  32.605  1.00 22.00 LIG 0.27  HD
ATOM     29 H2   GLY C 250      32.945   0.625  33.430  1.00 22.00 LIG 0.27  HD
ATOM     30 H3   GLY C 250      33.842  -0.476  33.741  1.00 22.00 LIG 0.27  HD
ENDBRANCH 26 27
ENDBRANCH 24 26
ENDBRANCH 20 22
ENDBRANCH 1 20
TORSDOF 8
ENDMDL
MODEL 12
USER: ADFR SOLUTION from run 98
USER: SCORE 11.014219 LL:  -1.446 LR:  -9.820 RR:   0.000 FEB:  -7.433
USER: RMSD 5.243020
USER: SEED 97
USER: STATUS no improvement in best 8 clusters for 5 generations
USER: GENES 10
USER: genes 0 Translation |==|  0.45274 0.42441 0.37742
USER: genes 1 Rotation |==|  0.74524 0.57237 0.15763 0.75962
USER: genes 2 Torsion [C]-N--CA-[C] |==|  0.54740
USER: genes 3 Torsion [N]-CA--C-[O] |==|  0.10427
USER: genes 4 Torsion [N]-CA--CB-[CG] |==|  0.47717
USER: genes 5 Torsion [CA]-CB--CG-[CD2] |==|  0.15213
USER: genes 6 Torsion [N]-C--CA-[N] |==|  0.42019
USER: genes 7 Torsion [C]-CA--N-[C] |==|  0.66671
USER: genes 8 Torsion [N]-C--CA-[N] |==|  0.22933
USER: genes 9 Torsion [C]-CA--N-[H2] |==|  0.31646
ROOT
ATOM      1  C   ALA C 251      27.402   0.232  36.503  1.00 17.89 LIG 0.24  C 
ATOM      2 O    ALA C 251      26.227   0.625  36.508  1.00 18.07 LIG-0.27  OA
ATOM      3  N   TRP C 252      28.339   0.650  37.337  1.00 16.45 LIG-0.34  N 
ATOM      4 H    TRP C 252      29.160   0.394  37.331  1.00 16.45 LIG 0.16  HD
ENDROOT
BRANCH 3 5
ATOM      5  CA  TRP C 252      27.976   1.651  38.392  1.00 14.97 LIG 0.19  C 
BRANCH 5 6
ATOM      6  C   TRP C 252      29.247   2.268  38.915  1.00 14.13 LIG 0.20  C 
ATOM      7 O    TRP C 252      30.190   2.500  38.108  1.00 13.79 LIG-0.65  OA
ATOM      8 OXT  TRP C 252      29.278   2.498  40.151  0.30 14.18 LIG-0.65  OA
ENDBRANCH 5 6
BRANCH 5 9
ATOM      9  CB  TRP C 252      27.008   1.000  39.358  1.00 15.10 LIG 0.08  C 
BRANCH 9 10
ATOM     10  CG  TRP C 252      26.757   1.878  40.549  1.00 15.42 LIG-0.03  A 
ATOM     11  CD1 TRP C 252      26.880   1.480  41.860  1.00 15.27 LIG 0.10  A 
ATOM     12  NE1 TRP C 252      26.550   2.524  42.696  1.00 15.23 LIG-0.36  N 
ATOM     13 HE1  TRP C 252      26.570   2.503  43.555  1.00 15.23 LIG 0.17  HD
ATOM     14  CE2 TRP C 252      26.184   3.602  41.931  1.00 15.53 LIG 0.04  A 
ATOM     15  CZ2 TRP C 252      25.767   4.863  42.360  1.00 15.28 LIG 0.03  A 
ATOM     16  CD2 TRP C 252      26.308   3.234  40.574  1.00 15.41 LIG-0.00  A 
ATOM     17  CH2 TRP C 252      25.463   5.785  41.353  1.00 15.35 LIG 0.00  A 
ATOM     18  CZ3 TRP C 252      25.584   5.428  40.000  1.00 15.31 LIG 0.00  A 
ATOM     19  CE3 TRP C 252      25.999   4.171  39.597  1.00 15.90 LIG 0.01  A 
ENDBRANCH 9 10
ENDBRANCH 5 9
ENDBRANCH 3 5
BRANCH 1 20
ATOM     20  CA  ALA C 251      27.892  -0.799  35.484  1.00 18.99 LIG 0.17  C 
ATOM     21  CB  ALA C 251      28.452  -0.127  34.243  1.00 19.07 LIG 0.04  C 
BRANCH 20 22
ATOM     22  N   ALA C 251      26.754  -1.650  35.130  1.00 20.05 LIG-0.35  N 
ATOM     23 H    ALA C 251      26.101  -1.211  34.783  1.00 20.05 LIG 0.16  HD
ATOM     24  C   GLY C 250      26.712  -2.948  35.311  1.00 20.79 LIG 0.24  C 
ATOM     25 O    GLY C 250      27.627  -3.635  35.803  1.00 21.58 LIG-0.27  OA
BRANCH 24 26
ATOM     26  CA  GLY C 250      25.406  -3.608  34.880  1.00 21.39 LIG 0.33  C 
BRANCH 26 27
ATOM     27  N   GLY C 250      25.414  -3.864  33.429  1.00 22.00 LIG-0.07  N 
ATOM     28 H1   GLY C 250      26.144  -3.505  33.068  1.00 22.00 LIG 0.27  HD
ATOM     29 H2   GLY C 250      25.412  -4.742  33.282  1.00 22.00 LIG 0.27  HD
ATOM     30 H3   GLY C 250      24.691  -3.500  33.059  1.00 22.00 LIG 0.27  HD
ENDBRANCH 26 27
ENDBRANCH 24 26
ENDBRANCH 20 22
ENDBRANCH 1 20
TORSDOF 8
ENDMDL
MODEL 13
USER: ADFR SOLUTION from run 91
USER: SCORE 11.165843 LL:  -1.681 LR:  -9.696 RR:   0.000 FEB:  -7.309
USER: RMSD 2.404542
USER: SEED 90
USER: STATUS no improvement in best 16 clusters for 5 generations
USER: GENES 10
USER: genes 0 Translation |==|  0.50420 0.48223 0.45107
USER: genes 1 Rotation |==|  0.98625 0.54601 0.56042 0.58829
USER: genes 2 Torsion [C]-N--CA-[C] |==|  0.20440
USER: genes 3 Torsion [N]-CA--C-[O] |==|  0.56932
USER: genes 4 Torsion [N]-CA--CB-[CG] |==|  0.82810
USER: genes 5 Torsion [CA]-CB--CG-[CD2] |==|  0.48366
USER: genes 6 Torsion [N]-C--CA-[N] |==|  0.47447
USER: genes 7 Torsion [C]-CA--N-[C] |==|  0.55742
USER: genes 8 Torsion [N]-C--CA-[N] |==|  0.98716
USER: genes 9 Torsion [C]-CA--N-[H2] |==|  0.60169
ROOT
ATOM      1  C   ALA C 251      28.946   1.967  38.712  1.00 17.89 LIG 0.24  C 
ATOM      2 O    ALA C 251      28.637   2.875  37.928  1.00 18.07 LIG-0.27  OA
ATOM      3  N   TRP C 252      28.101   1.077  39.203  1.00 16.45 LIG-0.34  N 
ATOM      4 H    TRP C 252      28.303   0.452  39.759  1.00 16.45 LIG 0.16  HD
ENDROOT
BRANCH 3 5
ATOM      5  CA  TRP C 252      26.664   1.131  38.778  1.00 14.97 LIG 0.19  C 
BRANCH 5 6
ATOM      6  C   TRP C 252      26.571   0.625  37.362  1.00 14.13 LIG 0.20  C 
ATOM      7 O    TRP C 252      25.606   1.003  36.641  1.00 13.79 LIG-0.65  OA
ATOM      8 OXT  TRP C 252      27.478  -0.166  37.000  0.30 14.18 LIG-0.65  OA
ENDBRANCH 5 6
BRANCH 5 9
ATOM      9  CB  TRP C 252      26.114   2.500  39.121  1.00 15.10 LIG 0.08  C 
BRANCH 9 10
ATOM     10  CG  TRP C 252      26.159   2.748  40.600  1.00 15.42 LIG-0.03  A 
ATOM     11  CD1 TRP C 252      26.480   1.804  41.547  1.00 15.27 LIG 0.10  A 
ATOM     12  NE1 TRP C 252      26.399   2.359  42.805  1.00 15.23 LIG-0.36  N 
ATOM     13 HE1  TRP C 252      26.572   1.954  43.544  1.00 15.23 LIG 0.17  HD
ATOM     14  CE2 TRP C 252      25.999   3.665  42.684  1.00 15.53 LIG 0.04  A 
ATOM     15  CZ2 TRP C 252      25.780   4.598  43.700  1.00 15.28 LIG 0.03  A 
ATOM     16  CD2 TRP C 252      25.844   3.948  41.310  1.00 15.41 LIG-0.00  A 
ATOM     17  CH2 TRP C 252      25.383   5.874  43.286  1.00 15.35 LIG 0.00  A 
ATOM     18  CZ3 TRP C 252      25.227   6.164  41.920  1.00 15.31 LIG 0.00  A 
ATOM     19  CE3 TRP C 252      25.449   5.223  40.930  1.00 15.90 LIG 0.01  A 
ENDBRANCH 9 10
ENDBRANCH 5 9
ENDBRANCH 3 5
BRANCH 1 20
ATOM     20  CA  ALA C 251      30.384   1.798  39.207  1.00 18.99 LIG 0.17  C 
ATOM     21  CB  ALA C 251      30.500   2.123  40.687  1.00 19.07 LIG 0.04  C 
BRANCH 20 22
ATOM     22  N   ALA C 251      31.234   2.695  38.423  1.00 20.05 LIG-0.35  N 
ATOM     23 H    ALA C 251      30.796   3.335  38.052  1.00 20.05 LIG 0.16  HD
ATOM     24  C   GLY C 250      32.531   2.558  38.285  1.00 20.79 LIG 0.24  C 
ATOM     25 O    GLY C 250      33.217   1.656  38.802  1.00 21.58 LIG-0.27  OA
BRANCH 24 26
ATOM     26  CA  GLY C 250      33.190   3.610  37.399  1.00 21.39 LIG 0.33  C 
BRANCH 26 27
ATOM     27  N   GLY C 250      32.172   4.493  36.804  1.00 22.00 LIG-0.07  N 
ATOM     28 H1   GLY C 250      32.098   5.233  37.293  1.00 22.00 LIG 0.27  HD
ATOM     29 H2   GLY C 250      32.414   4.709  35.975  1.00 22.00 LIG 0.27  HD
ATOM     30 H3   GLY C 250      31.388   4.072  36.784  1.00 22.00 LIG 0.27  HD
ENDBRANCH 26 27
ENDBRANCH 24 26
ENDBRANCH 20 22
ENDBRANCH 1 20
TORSDOF 8
ENDMDL
MODEL 14
USER: ADFR SOLUTION from run 149
USER: SCORE 11.039605 LL:  -1.700 LR:  -9.685 RR:   0.000 FEB:  -7.299
USER: RMSD 4.720047
USER: SEED 148
USER: STATUS no improvement in best 15 clusters for 5 generations
USER: GENES 10
USER: genes 0 Translation |==|  0.47442 0.40741 0.39609
USER: genes 1 Rotation |==|  0.31239 0.86312 0.40763 0.77279
USER: genes 2 Torsion [C]-N--CA-[C] |==|  0.18745
USER: genes 3 Torsion [N]-CA--C-[O] |==|  0.04908
USER: genes 4 Torsion [N]-CA--CB-[CG] |==|  0.57474
USER: genes 5 Torsion [CA]-CB--CG-[CD2] |==|  0.09119
USER: genes 6 Torsion [N]-C--CA-[N] |==|  0.33527
USER: genes 7 Torsion [C]-CA--N-[C] |==|  0.69459
USER: genes 8 Torsion [N]-C--CA-[N] |==|  0.43453
USER: genes 9 Torsion [C]-CA--N-[H2] |==|  0.78121
ROOT
ATOM      1  C   ALA C 251      28.052  -0.278  37.063  1.00 17.89 LIG 0.24  C 
ATOM      2 O    ALA C 251      28.798  -0.799  37.903  1.00 18.07 LIG-0.27  OA
ATOM      3  N   TRP C 252      27.501   0.918  37.184  1.00 16.45 LIG-0.34  N 
ATOM      4 H    TRP C 252      26.971   1.282  36.613  1.00 16.45 LIG 0.16  HD
ENDROOT
BRANCH 3 5
ATOM      5  CA  TRP C 252      27.801   1.733  38.406  1.00 14.97 LIG 0.19  C 
BRANCH 5 6
ATOM      6  C   TRP C 252      29.255   2.130  38.363  1.00 14.13 LIG 0.20  C 
ATOM      7 O    TRP C 252      29.874   2.059  37.266  1.00 13.79 LIG-0.65  OA
ATOM      8 OXT  TRP C 252      29.756   2.500  39.456  0.30 14.18 LIG-0.65  OA
ENDBRANCH 5 6
BRANCH 5 9
ATOM      9  CB  TRP C 252      27.262   1.000  39.617  1.00 15.10 LIG 0.08  C 
BRANCH 9 10
ATOM     10  CG  TRP C 252      26.927   1.955  40.725  1.00 15.42 LIG-0.03  A 
ATOM     11  CD1 TRP C 252      26.993   1.658  42.066  1.00 15.27 LIG 0.10  A 
ATOM     12  NE1 TRP C 252      26.594   2.750  42.805  1.00 15.23 LIG-0.36  N 
ATOM     13 HE1  TRP C 252      26.570   2.792  43.664  1.00 15.23 LIG 0.17  HD
ATOM     14  CE2 TRP C 252      26.240   3.758  41.945  1.00 15.53 LIG 0.04  A 
ATOM     15  CZ2 TRP C 252      25.769   5.034  42.258  1.00 15.28 LIG 0.03  A 
ATOM     16  CD2 TRP C 252      26.443   3.296  40.627  1.00 15.41 LIG-0.00  A 
ATOM     17  CH2 TRP C 252      25.495   5.871  41.171  1.00 15.35 LIG 0.00  A 
ATOM     18  CZ3 TRP C 252      25.695   5.420  39.856  1.00 15.31 LIG 0.00  A 
ATOM     19  CE3 TRP C 252      26.161   4.149  39.568  1.00 15.90 LIG 0.01  A 
ENDBRANCH 9 10
ENDBRANCH 5 9
ENDBRANCH 3 5
BRANCH 1 20
ATOM     20  CA  ALA C 251      27.683  -1.003  35.768  1.00 18.99 LIG 0.17  C 
ATOM     21  CB  ALA C 251      26.945  -2.300  36.052  1.00 19.07 LIG 0.04  C 
BRANCH 20 22
ATOM     22  N   ALA C 251      28.923  -1.276  35.040  1.00 20.05 LIG-0.35  N 
ATOM     23 H    ALA C 251      29.411  -1.874  35.418  1.00 20.05 LIG 0.16  HD
ATOM     24  C   GLY C 250      29.277  -0.684  33.925  1.00 20.79 LIG 0.24  C 
ATOM     25 O    GLY C 250      28.610   0.184  33.330  1.00 21.58 LIG-0.27  OA
BRANCH 24 26
ATOM     26  CA  GLY C 250      30.627  -1.125  33.370  1.00 21.39 LIG 0.33  C 
BRANCH 26 27
ATOM     27  N   GLY C 250      30.695  -0.875  31.920  1.00 22.00 LIG-0.07  N 
ATOM     28 H1   GLY C 250      31.546  -0.875  31.658  1.00 22.00 LIG 0.27  HD
ATOM     29 H2   GLY C 250      30.252  -1.514  31.487  1.00 22.00 LIG 0.27  HD
ATOM     30 H3   GLY C 250      30.328  -0.085  31.738  1.00 22.00 LIG 0.27  HD
ENDBRANCH 26 27
ENDBRANCH 24 26
ENDBRANCH 20 22
ENDBRANCH 1 20
TORSDOF 8
ENDMDL
MODEL 15
USER: ADFR SOLUTION from run 102
USER: SCORE 10.842792 LL:  -1.452 LR:  -9.633 RR:   0.000 FEB:  -7.247
USER: RMSD 5.067754
USER: SEED 101
USER: STATUS no improvement in best 5 clusters for 5 generations
USER: GENES 10
USER: genes 0 Translation |==|  0.52680 0.37317 0.57180
USER: genes 1 Rotation |==|  0.34904 0.55457 0.16614 0.83581
USER: genes 2 Torsion [C]-N--CA-[C] |==|  0.22735
USER: genes 3 Torsion [N]-CA--C-[O] |==|  0.40968
USER: genes 4 Torsion [N]-CA--CB-[CG] |==|  0.59720
USER: genes 5 Torsion [CA]-CB--CG-[CD2] |==|  0.68842
USER: genes 6 Torsion [N]-C--CA-[N] |==|  0.38430
USER: genes 7 Torsion [C]-CA--N-[C] |==|  0.59913
USER: genes 8 Torsion [N]-C--CA-[N] |==|  0.08984
USER: genes 9 Torsion [C]-CA--N-[H2] |==|  0.68360
ROOT
ATOM      1  C   ALA C 251      29.624  -1.305  42.334  1.00 17.89 LIG 0.24  C 
ATOM      2 O    ALA C 251      28.820  -0.888  43.180  1.00 18.07 LIG-0.27  OA
ATOM      3  N   TRP C 252      30.070  -0.600  41.308  1.00 16.45 LIG-0.34  N 
ATOM      4 H    TRP C 252      30.616  -0.886  40.708  1.00 16.45 LIG 0.16  HD
ENDROOT
BRANCH 3 5
ATOM      5  CA  TRP C 252      29.606   0.817  41.146  1.00 14.97 LIG 0.19  C 
BRANCH 5 6
ATOM      6  C   TRP C 252      30.439   1.693  42.045  1.00 14.13 LIG 0.20  C 
ATOM      7 O    TRP C 252      30.695   2.873  41.680  1.00 13.79 LIG-0.65  OA
ATOM      8 OXT  TRP C 252      30.839   1.162  43.113  0.30 14.18 LIG-0.65  OA
ENDBRANCH 5 6
BRANCH 5 9
ATOM      9  CB  TRP C 252      28.096   0.843  41.266  1.00 15.10 LIG 0.08  C 
BRANCH 9 10
ATOM     10  CG  TRP C 252      27.497   1.875  40.357  1.00 15.42 LIG-0.03  A 
ATOM     11  CD1 TRP C 252      27.542   1.834  38.983  1.00 15.27 LIG 0.10  A 
ATOM     12  NE1 TRP C 252      26.921   2.948  38.463  1.00 15.23 LIG-0.36  N 
ATOM     13 HE1  TRP C 252      26.820   3.121  37.626  1.00 15.23 LIG 0.17  HD
ATOM     14  CE2 TRP C 252      26.490   3.736  39.500  1.00 15.53 LIG 0.04  A 
ATOM     15  CZ2 TRP C 252      25.820   4.959  39.434  1.00 15.28 LIG 0.03  A 
ATOM     16  CD2 TRP C 252      26.829   3.089  40.708  1.00 15.41 LIG-0.00  A 
ATOM     17  CH2 TRP C 252      25.487   5.543  40.661  1.00 15.35 LIG 0.00  A 
ATOM     18  CZ3 TRP C 252      25.820   4.906  41.867  1.00 15.31 LIG 0.00  A 
ATOM     19  CE3 TRP C 252      26.486   3.694  41.909  1.00 15.90 LIG 0.01  A 
ENDBRANCH 9 10
ENDBRANCH 5 9
ENDBRANCH 3 5
BRANCH 1 20
ATOM     20  CA  ALA C 251      30.182  -2.728  42.399  1.00 18.99 LIG 0.17  C 
ATOM     21  CB  ALA C 251      29.181  -3.739  41.868  1.00 19.07 LIG 0.04  C 
BRANCH 20 22
ATOM     22  N   ALA C 251      30.500  -3.018  43.798  1.00 20.05 LIG-0.35  N 
ATOM     23 H    ALA C 251      29.945  -2.663  44.350  1.00 20.05 LIG 0.16  HD
ATOM     24  C   GLY C 250      31.519  -3.742  44.195  1.00 20.79 LIG 0.24  C 
ATOM     25 O    GLY C 250      32.350  -4.285  43.442  1.00 21.58 LIG-0.27  OA
BRANCH 24 26
ATOM     26  CA  GLY C 250      31.650  -3.882  45.708  1.00 21.39 LIG 0.33  C 
BRANCH 26 27
ATOM     27  N   GLY C 250      30.320  -3.875  46.342  1.00 22.00 LIG-0.07  N 
ATOM     28 H1   GLY C 250      30.232  -4.597  46.855  1.00 22.00 LIG 0.27  HD
ATOM     29 H2   GLY C 250      30.233  -3.144  46.843  1.00 22.00 LIG 0.27  HD
ATOM     30 H3   GLY C 250      29.691  -3.879  45.713  1.00 22.00 LIG 0.27  HD
ENDBRANCH 26 27
ENDBRANCH 24 26
ENDBRANCH 20 22
ENDBRANCH 1 20
TORSDOF 8
ENDMDL
MODEL 16
USER: ADFR SOLUTION from run 142
USER: SCORE 11.502585 LL:  -1.919 LR:  -9.611 RR:   0.000 FEB:  -7.225
USER: RMSD 2.981000
USER: SEED 141
USER: STATUS no improvement in best 9 clusters for 5 generations
USER: GENES 10
USER: genes 0 Translation |==|  0.48089 0.46247 0.50290
USER: genes 1 Rotation |==|  0.41085 0.39929 0.38807 0.96838
USER: genes 2 Torsion [C]-N--CA-[C] |==|  0.77720
USER: genes 3 Torsion [N]-CA--C-[O] |==|  0.52928
USER: genes 4 Torsion [N]-CA--CB-[CG] |==|  0.77944
USER: genes 5 Torsion [CA]-CB--CG-[CD2] |==|  0.99119
USER: genes 6 Torsion [N]-C--CA-[N] |==|  0.93689
USER: genes 7 Torsion [C]-CA--N-[C] |==|  0.80556
USER: genes 8 Torsion [N]-C--CA-[N] |==|  0.81396
USER: genes 9 Torsion [C]-CA--N-[H2] |==|  0.87498
ROOT
ATOM      1  C   ALA C 251      28.247   1.374  40.267  1.00 17.89 LIG 0.24  C 
ATOM      2 O    ALA C 251      27.367   0.631  40.725  1.00 18.07 LIG-0.27  OA
ATOM      3  N   TRP C 252      28.056   2.264  39.308  1.00 16.45 LIG-0.34  N 
ATOM      4 H    TRP C 252      28.663   2.774  38.974  1.00 16.45 LIG 0.16  HD
ENDROOT
BRANCH 3 5
ATOM      5  CA  TRP C 252      26.680   2.424  38.732  1.00 14.97 LIG 0.19  C 
BRANCH 5 6
ATOM      6  C   TRP C 252      26.456   1.320  37.731  1.00 14.13 LIG 0.20  C 
ATOM      7 O    TRP C 252      25.445   1.375  36.978  1.00 13.79 LIG-0.65  OA
ATOM      8 OXT  TRP C 252      27.310   0.396  37.732  0.30 14.18 LIG-0.65  OA
ENDBRANCH 5 6
BRANCH 5 9
ATOM      9  CB  TRP C 252      26.505   3.867  38.305  1.00 15.10 LIG 0.08  C 
BRANCH 9 10
ATOM     10  CG  TRP C 252      26.193   4.746  39.480  1.00 15.42 LIG-0.03  A 
ATOM     11  CD1 TRP C 252      26.090   6.116  39.432  1.00 15.27 LIG 0.10  A 
ATOM     12  NE1 TRP C 252      25.821   6.608  40.690  1.00 15.23 LIG-0.36  N 
ATOM     13 HE1  TRP C 252      25.703   7.436  40.890  1.00 15.23 LIG 0.17  HD
ATOM     14  CE2 TRP C 252      25.774   5.558  41.572  1.00 15.53 LIG 0.04  A 
ATOM     15  CZ2 TRP C 252      25.540   5.596  42.948  1.00 15.28 LIG 0.03  A 
ATOM     16  CD2 TRP C 252      25.998   4.369  40.844  1.00 15.41 LIG-0.00  A 
ATOM     17  CH2 TRP C 252      25.536   4.361  43.604  1.00 15.35 LIG 0.00  A 
ATOM     18  CZ3 TRP C 252      25.757   3.173  42.888  1.00 15.31 LIG 0.00  A 
ATOM     19  CE3 TRP C 252      25.989   3.158  41.524  1.00 15.90 LIG 0.01  A 
ENDBRANCH 9 10
ENDBRANCH 5 9
ENDBRANCH 3 5
BRANCH 1 20
ATOM     20  CA  ALA C 251      29.686   1.317  40.783  1.00 18.99 LIG 0.17  C 
ATOM     21  CB  ALA C 251      29.846   2.121  42.062  1.00 19.07 LIG 0.04  C 
BRANCH 20 22
ATOM     22  N   ALA C 251      30.557   1.852  39.736  1.00 20.05 LIG-0.35  N 
ATOM     23 H    ALA C 251      30.897   2.615  39.939  1.00 20.05 LIG 0.16  HD
ATOM     24  C   GLY C 250      30.807   1.251  38.598  1.00 20.79 LIG 0.24  C 
ATOM     25 O    GLY C 250      30.347   0.146  38.253  1.00 21.58 LIG-0.27  OA
BRANCH 24 26
ATOM     26  CA  GLY C 250      31.730   2.022  37.661  1.00 21.39 LIG 0.33  C 
BRANCH 26 27
ATOM     27  N   GLY C 250      31.070   3.250  37.184  1.00 22.00 LIG-0.07  N 
ATOM     28 H1   GLY C 250      31.515   3.575  36.485  1.00 22.00 LIG 0.27  HD
ATOM     29 H2   GLY C 250      30.234   3.064  36.943  1.00 22.00 LIG 0.27  HD
ATOM     30 H3   GLY C 250      31.062   3.856  37.837  1.00 22.00 LIG 0.27  HD
ENDBRANCH 26 27
ENDBRANCH 24 26
ENDBRANCH 20 22
ENDBRANCH 1 20
TORSDOF 8
ENDMDL
MODEL 17
USER: ADFR SOLUTION from run 136
USER: SCORE 10.729290 LL:  -1.732 LR:  -9.558 RR:   0.000 FEB:  -7.171
USER: RMSD 6.244164
USER: SEED 135
USER: STATUS no improvement in best 14 clusters for 5 generations
USER: GENES 10
USER: genes 0 Translation |==|  0.40372 0.59082 0.49548
USER: genes 1 Rotation |==|  0.68756 0.71314 0.87365 0.67257
USER: genes 2 Torsion [C]-N--CA-[C] |==|  0.77629
USER: genes 3 Torsion [N]-CA--C-[O] |==|  0.03257
USER: genes 4 Torsion [N]-CA--CB-[CG] |==|  0.71117
USER: genes 5 Torsion [CA]-CB--CG-[CD2] |==|  0.86826
USER: genes 6 Torsion [N]-C--CA-[N] |==|  0.13574
USER: genes 7 Torsion [C]-CA--N-[C] |==|  0.56800
USER: genes 8 Torsion [N]-C--CA-[N] |==|  0.49863
USER: genes 9 Torsion [C]-CA--N-[H2] |==|  0.70577
ROOT
ATOM      1  C   ALA C 251      25.932   5.225  40.044  1.00 17.89 LIG 0.24  C 
ATOM      2 O    ALA C 251      26.570   5.606  39.053  1.00 18.07 LIG-0.27  OA
ATOM      3  N   TRP C 252      25.863   3.971  40.458  1.00 16.45 LIG-0.34  N 
ATOM      4 H    TRP C 252      25.411   3.695  41.136  1.00 16.45 LIG 0.16  HD
ENDROOT
BRANCH 3 5
ATOM      5  CA  TRP C 252      26.622   2.917  39.709  1.00 14.97 LIG 0.19  C 
BRANCH 5 6
ATOM      6  C   TRP C 252      25.821   2.535  38.490  1.00 14.13 LIG 0.20  C 
ATOM      7 O    TRP C 252      24.835   3.251  38.160  1.00 13.79 LIG-0.65  OA
ATOM      8 OXT  TRP C 252      26.198   1.498  37.888  0.30 14.18 LIG-0.65  OA
ENDBRANCH 5 6
BRANCH 5 9
ATOM      9  CB  TRP C 252      27.048   1.845  40.689  1.00 15.10 LIG 0.08  C 
BRANCH 9 10
ATOM     10  CG  TRP C 252      28.507   1.960  41.019  1.00 15.42 LIG-0.03  A 
ATOM     11  CD1 TRP C 252      29.028   1.974  42.292  1.00 15.27 LIG 0.10  A 
ATOM     12  NE1 TRP C 252      30.397   2.118  42.234  1.00 15.23 LIG-0.36  N 
ATOM     13 HE1  TRP C 252      30.927   2.138  42.910  1.00 15.23 LIG 0.17  HD
ATOM     14  CE2 TRP C 252      30.772   2.227  40.919  1.00 15.53 LIG 0.04  A 
ATOM     15  CZ2 TRP C 252      32.058   2.396  40.400  1.00 15.28 LIG 0.03  A 
ATOM     16  CD2 TRP C 252      29.610   2.125  40.125  1.00 15.41 LIG-0.00  A 
ATOM     17  CH2 TRP C 252      32.152   2.464  39.006  1.00 15.35 LIG 0.00  A 
ATOM     18  CZ3 TRP C 252      31.001   2.364  38.208  1.00 15.31 LIG 0.00  A 
ATOM     19  CE3 TRP C 252      29.736   2.197  38.744  1.00 15.90 LIG 0.01  A 
ENDBRANCH 9 10
ENDBRANCH 5 9
ENDBRANCH 3 5
BRANCH 1 20
ATOM     20  CA  ALA C 251      25.129   6.207  40.900  1.00 18.99 LIG 0.17  C 
ATOM     21  CB  ALA C 251      25.443   7.646  40.531  1.00 19.07 LIG 0.04  C 
BRANCH 20 22
ATOM     22  N   ALA C 251      25.469   5.958  42.302  1.00 20.05 LIG-0.35  N 
ATOM     23 H    ALA C 251      26.242   5.594  42.401  1.00 20.05 LIG 0.16  HD
ATOM     24  C   GLY C 250      24.694   6.250  43.318  1.00 20.79 LIG 0.24  C 
ATOM     25 O    GLY C 250      23.571   6.780  43.235  1.00 21.58 LIG-0.27  OA
BRANCH 24 26
ATOM     26  CA  GLY C 250      25.265   5.873  44.682  1.00 21.39 LIG 0.33  C 
BRANCH 26 27
ATOM     27  N   GLY C 250      24.328   6.251  45.754  1.00 22.00 LIG-0.07  N 
ATOM     28 H1   GLY C 250      24.247   5.577  46.330  1.00 22.00 LIG 0.27  HD
ATOM     29 H2   GLY C 250      24.638   6.969  46.180  1.00 22.00 LIG 0.27  HD
ATOM     30 H3   GLY C 250      23.532   6.437  45.401  1.00 22.00 LIG 0.27  HD
ENDBRANCH 26 27
ENDBRANCH 24 26
ENDBRANCH 20 22
ENDBRANCH 1 20
TORSDOF 8
ENDMDL
MODEL 18
USER: ADFR SOLUTION from run 36
USER: SCORE 10.502295 LL:  -1.316 LR:  -9.494 RR:   0.000 FEB:  -7.108
USER: RMSD 7.687313
USER: SEED 35
USER: STATUS no improvement in best 5 clusters for 5 generations
USER: GENES 10
USER: genes 0 Translation |==|  0.38801 0.59522 0.63080
USER: genes 1 Rotation |==|  0.38954 0.18299 0.59081 0.85924
USER: genes 2 Torsion [C]-N--CA-[C] |==|  0.86992
USER: genes 3 Torsion [N]-CA--C-[O] |==|  0.84925
USER: genes 4 Torsion [N]-CA--CB-[CG] |==|  0.47384
USER: genes 5 Torsion [CA]-CB--CG-[CD2] |==|  0.78128
USER: genes 6 Torsion [N]-C--CA-[N] |==|  0.31236
USER: genes 7 Torsion [C]-CA--N-[C] |==|  0.83819
USER: genes 8 Torsion [N]-C--CA-[N] |==|  0.01313
USER: genes 9 Torsion [C]-CA--N-[H2] |==|  0.54389
ROOT
ATOM      1  C   ALA C 251      25.460   5.357  44.104  1.00 17.89 LIG 0.24  C 
ATOM      2 O    ALA C 251      25.070   4.275  44.566  1.00 18.07 LIG-0.27  OA
ATOM      3  N   TRP C 252      25.742   5.573  42.831  1.00 16.45 LIG-0.34  N 
ATOM      4 H    TRP C 252      26.027   6.316  42.503  1.00 16.45 LIG 0.16  HD
ENDROOT
BRANCH 3 5
ATOM      5  CA  TRP C 252      25.562   4.455  41.848  1.00 14.97 LIG 0.19  C 
BRANCH 5 6
ATOM      6  C   TRP C 252      26.187   3.212  42.428  1.00 14.13 LIG 0.20  C 
ATOM      7 O    TRP C 252      27.391   3.253  42.805  1.00 13.79 LIG-0.65  OA
ATOM      8 OXT  TRP C 252      25.445   2.198  42.482  0.30 14.18 LIG-0.65  OA
ENDBRANCH 5 6
BRANCH 5 9
ATOM      9  CB  TRP C 252      25.998   4.942  40.482  1.00 15.10 LIG 0.08  C 
BRANCH 9 10
ATOM     10  CG  TRP C 252      26.060   3.812  39.497  1.00 15.42 LIG-0.03  A 
ATOM     11  CD1 TRP C 252      25.078   3.509  38.583  1.00 15.27 LIG 0.10  A 
ATOM     12  NE1 TRP C 252      25.445   2.399  37.855  1.00 15.23 LIG-0.36  N 
ATOM     13 HE1  TRP C 252      24.988   2.042  37.221  1.00 15.23 LIG 0.17  HD
ATOM     14  CE2 TRP C 252      26.661   1.956  38.311  1.00 15.53 LIG 0.04  A 
ATOM     15  CZ2 TRP C 252      27.401   0.859  37.868  1.00 15.28 LIG 0.03  A 
ATOM     16  CD2 TRP C 252      27.082   2.826  39.340  1.00 15.41 LIG-0.00  A 
ATOM     17  CH2 TRP C 252      28.626   0.645  38.510  1.00 15.35 LIG 0.00  A 
ATOM     18  CZ3 TRP C 252      29.053   1.505  39.534  1.00 15.31 LIG 0.00  A 
ATOM     19  CE3 TRP C 252      28.302   2.587  39.959  1.00 15.90 LIG 0.01  A 
ENDBRANCH 9 10
ENDBRANCH 5 9
ENDBRANCH 3 5
BRANCH 1 20
ATOM     20  CA  ALA C 251      25.668   6.578  45.002  1.00 18.99 LIG 0.17  C 
ATOM     21  CB  ALA C 251      26.570   6.250  46.180  1.00 19.07 LIG 0.04  C 
BRANCH 20 22
ATOM     22  N   ALA C 251      24.353   7.010  45.478  1.00 20.05 LIG-0.35  N 
ATOM     23 H    ALA C 251      24.290   7.015  46.335  1.00 20.05 LIG 0.16  HD
ATOM     24  C   GLY C 250      23.358   7.358  44.698  1.00 20.79 LIG 0.24  C 
ATOM     25 O    GLY C 250      23.393   7.375  43.453  1.00 21.58 LIG-0.27  OA
BRANCH 24 26
ATOM     26  CA  GLY C 250      22.080   7.750  45.433  1.00 21.39 LIG 0.33  C 
BRANCH 26 27
ATOM     27  N   GLY C 250      22.304   7.750  46.889  1.00 22.00 LIG-0.07  N 
ATOM     28 H1   GLY C 250      22.764   8.476  47.119  1.00 22.00 LIG 0.27  HD
ATOM     29 H2   GLY C 250      21.520   7.752  47.310  1.00 22.00 LIG 0.27  HD
ATOM     30 H3   GLY C 250      22.763   7.023  47.119  1.00 22.00 LIG 0.27  HD
ENDBRANCH 26 27
ENDBRANCH 24 26
ENDBRANCH 20 22
ENDBRANCH 1 20
TORSDOF 8
ENDMDL
MODEL 19
USER: ADFR SOLUTION from run 97
USER: SCORE 11.444947 LL:  -2.007 LR:  -9.481 RR:   0.000 FEB:  -7.095
USER: RMSD 5.155748
USER: SEED 96
USER: STATUS no improvement in best 13 clusters for 5 generations
USER: GENES 10
USER: genes 0 Translation |==|  0.44068 0.41239 0.35955
USER: genes 1 Rotation |==|  0.71887 0.53130 0.10208 0.70683
USER: genes 2 Torsion [C]-N--CA-[C] |==|  0.52404
USER: genes 3 Torsion [N]-CA--C-[O] |==|  0.51639
USER: genes 4 Torsion [N]-CA--CB-[CG] |==|  0.58726
USER: genes 5 Torsion [CA]-CB--CG-[CD2] |==|  0.62319
USER: genes 6 Torsion [N]-C--CA-[N] |==|  0.90769
USER: genes 7 Torsion [C]-CA--N-[C] |==|  0.81222
USER: genes 8 Torsion [N]-C--CA-[N] |==|  0.37910
USER: genes 9 Torsion [C]-CA--N-[H2] |==|  0.45349
ROOT
ATOM      1  C   ALA C 251      27.040  -0.128  35.967  1.00 17.89 LIG 0.24  C 
ATOM      2 O    ALA C 251      26.061   0.625  36.055  1.00 18.07 LIG-0.27  OA
ATOM      3  N   TRP C 252      28.168   0.021  36.640  1.00 16.45 LIG-0.34  N 
ATOM      4 H    TRP C 252      28.858  -0.488  36.575  1.00 16.45 LIG 0.16  HD
ENDROOT
BRANCH 3 5
ATOM      5  CA  TRP C 252      28.289   1.161  37.607  1.00 14.97 LIG 0.19  C 
BRANCH 5 6
ATOM      6  C   TRP C 252      29.720   1.234  38.074  1.00 14.13 LIG 0.20  C 
ATOM      7 O    TRP C 252      30.024   2.056  38.983  1.00 13.79 LIG-0.65  OA
ATOM      8 OXT  TRP C 252      30.526   0.460  37.499  0.30 14.18 LIG-0.65  OA
ENDBRANCH 5 6
BRANCH 5 9
ATOM      9  CB  TRP C 252      27.174   1.046  38.626  1.00 15.10 LIG 0.08  C 
BRANCH 9 10
ATOM     10  CG  TRP C 252      26.739   2.398  39.109  1.00 15.42 LIG-0.03  A 
ATOM     11  CD1 TRP C 252      26.570   3.503  38.308  1.00 15.27 LIG 0.10  A 
ATOM     12  NE1 TRP C 252      26.191   4.582  39.076  1.00 15.23 LIG-0.36  N 
ATOM     13 HE1  TRP C 252      26.018   5.371  38.781  1.00 15.23 LIG 0.17  HD
ATOM     14  CE2 TRP C 252      26.136   4.189  40.390  1.00 15.53 LIG 0.04  A 
ATOM     15  CZ2 TRP C 252      25.806   4.958  41.507  1.00 15.28 LIG 0.03  A 
ATOM     16  CD2 TRP C 252      26.469   2.819  40.448  1.00 15.41 LIG-0.00  A 
ATOM     17  CH2 TRP C 252      25.820   4.291  42.737  1.00 15.35 LIG 0.00  A 
ATOM     18  CZ3 TRP C 252      26.149   2.927  42.804  1.00 15.31 LIG 0.00  A 
ATOM     19  CE3 TRP C 252      26.474   2.184  41.683  1.00 15.90 LIG 0.01  A 
ENDBRANCH 9 10
ENDBRANCH 5 9
ENDBRANCH 3 5
BRANCH 1 20
ATOM     20  CA  ALA C 251      27.034  -1.335  35.026  1.00 18.99 LIG 0.17  C 
ATOM     21  CB  ALA C 251      26.570  -2.592  35.743  1.00 19.07 LIG 0.04  C 
BRANCH 20 22
ATOM     22  N   ALA C 251      28.396  -1.515  34.522  1.00 20.05 LIG-0.35  N 
ATOM     23 H    ALA C 251      28.769  -2.234  34.809  1.00 20.05 LIG 0.16  HD
ATOM     24  C   GLY C 250      29.007  -0.680  33.716  1.00 20.79 LIG 0.24  C 
ATOM     25 O    GLY C 250      28.516   0.372  33.266  1.00 21.58 LIG-0.27  OA
BRANCH 24 26
ATOM     26  CA  GLY C 250      30.433  -1.078  33.350  1.00 21.39 LIG 0.33  C 
BRANCH 26 27
ATOM     27  N   GLY C 250      30.670  -0.876  31.910  1.00 22.00 LIG-0.07  N 
ATOM     28 H1   GLY C 250      30.322  -0.096  31.658  1.00 22.00 LIG 0.27  HD
ATOM     29 H2   GLY C 250      31.546  -0.874  31.750  1.00 22.00 LIG 0.27  HD
ATOM     30 H3   GLY C 250      30.286  -1.534  31.450  1.00 22.00 LIG 0.27  HD
ENDBRANCH 26 27
ENDBRANCH 24 26
ENDBRANCH 20 22
ENDBRANCH 1 20
TORSDOF 8
ENDMDL
MODEL 20
USER: ADFR SOLUTION from run 122
USER: SCORE 10.885545 LL:  -1.892 LR:  -9.419 RR:   0.000 FEB:  -7.033
USER: RMSD 4.344591
USER: SEED 121
USER: STATUS no improvement in best 12 clusters for 5 generations
USER: GENES 10
USER: genes 0 Translation |==|  0.52145 0.48254 0.49784
USER: genes 1 Rotation |==|  0.11368 0.61279 0.70186 0.71746
USER: genes 2 Torsion [C]-N--CA-[C] |==|  0.71362
USER: genes 3 Torsion [N]-CA--C-[O] |==|  0.63372
USER: genes 4 Torsion [N]-CA--CB-[CG] |==|  0.69521
USER: genes 5 Torsion [CA]-CB--CG-[CD2] |==|  0.23374
USER: genes 6 Torsion [N]-C--CA-[N] |==|  0.11508
USER: genes 7 Torsion [C]-CA--N-[C] |==|  0.74210
USER: genes 8 Torsion [N]-C--CA-[N] |==|  0.88845
USER: genes 9 Torsion [C]-CA--N-[H2] |==|  0.06648
ROOT
ATOM      1  C   ALA C 251      29.464   1.976  40.115  1.00 17.89 LIG 0.24  C 
ATOM      2 O    ALA C 251      29.990   2.870  40.793  1.00 18.07 LIG-0.27  OA
ATOM      3  N   TRP C 252      28.493   1.185  40.537  1.00 16.45 LIG-0.34  N 
ATOM      4 H    TRP C 252      28.131   0.552  40.080  1.00 16.45 LIG 0.16  HD
ENDROOT
BRANCH 3 5
ATOM      5  CA  TRP C 252      27.953   1.376  41.924  1.00 14.97 LIG 0.19  C 
BRANCH 5 6
ATOM      6  C   TRP C 252      28.522   0.294  42.805  1.00 14.13 LIG 0.20  C 
ATOM      7 O    TRP C 252      27.741  -0.355  43.555  1.00 13.79 LIG-0.65  OA
ATOM      8 OXT  TRP C 252      29.766   0.124  42.734  0.30 14.18 LIG-0.65  OA
ENDBRANCH 5 6
BRANCH 5 9
ATOM      9  CB  TRP C 252      26.452   1.555  41.833  1.00 15.10 LIG 0.08  C 
BRANCH 9 10
ATOM     10  CG  TRP C 252      26.053   2.965  42.154  1.00 15.42 LIG-0.03  A 
ATOM     11  CD1 TRP C 252      25.589   3.393  43.376  1.00 15.27 LIG 0.10  A 
ATOM     12  NE1 TRP C 252      25.292   4.737  43.317  1.00 15.23 LIG-0.36  N 
ATOM     13 HE1  TRP C 252      25.000   5.215  43.969  1.00 15.23 LIG 0.17  HD
ATOM     14  CE2 TRP C 252      25.537   5.186  42.044  1.00 15.53 LIG 0.04  A 
ATOM     15  CZ2 TRP C 252      25.366   6.475  41.536  1.00 15.28 LIG 0.03  A 
ATOM     16  CD2 TRP C 252      26.024   4.099  41.286  1.00 15.41 LIG-0.00  A 
ATOM     17  CH2 TRP C 252      25.709   6.655  40.192  1.00 15.35 LIG 0.00  A 
ATOM     18  CZ3 TRP C 252      26.195   5.580  39.430  1.00 15.31 LIG 0.00  A 
ATOM     19  CE3 TRP C 252      26.355   4.309  39.954  1.00 15.90 LIG 0.01  A 
ENDBRANCH 9 10
ENDBRANCH 5 9
ENDBRANCH 3 5
BRANCH 1 20
ATOM     20  CA  ALA C 251      29.916   1.693  38.681  1.00 18.99 LIG 0.17  C 
ATOM     21  CB  ALA C 251      30.695   2.864  38.107  1.00 19.07 LIG 0.04  C 
BRANCH 20 22
ATOM     22  N   ALA C 251      28.719   1.440  37.878  1.00 20.05 LIG-0.35  N 
ATOM     23 H    ALA C 251      28.370   2.157  37.557  1.00 20.05 LIG 0.16  HD
ATOM     24  C   GLY C 250      28.210   0.251  37.656  1.00 20.79 LIG 0.24  C 
ATOM     25 O    GLY C 250      28.674  -0.820  38.090  1.00 21.58 LIG-0.27  OA
BRANCH 24 26
ATOM     26  CA  GLY C 250      26.945   0.250  36.805  1.00 21.39 LIG 0.33  C 
BRANCH 26 27
ATOM     27  N   GLY C 250      26.071   1.375  37.180  1.00 22.00 LIG-0.07  N 
ATOM     28 H1   GLY C 250      25.457   1.094  37.760  1.00 22.00 LIG 0.27  HD
ATOM     29 H2   GLY C 250      26.559   2.018  37.555  1.00 22.00 LIG 0.27  HD
ATOM     30 H3   GLY C 250      25.669   1.694  36.453  1.00 22.00 LIG 0.27  HD
ENDBRANCH 26 27
ENDBRANCH 24 26
ENDBRANCH 20 22
ENDBRANCH 1 20
TORSDOF 8
ENDMDL
MODEL 21
USER: ADFR SOLUTION from run 28
USER: SCORE 10.683351 LL:  -1.614 LR:  -9.351 RR:   0.000 FEB:  -6.965
USER: RMSD 2.385376
USER: SEED 27
USER: STATUS no improvement in best 10 clusters for 5 generations
USER: GENES 10
USER: genes 0 Translation |==|  0.54996 0.48746 0.52739
USER: genes 1 Rotation |==|  0.24609 0.41069 0.49010 0.92125
USER: genes 2 Torsion [C]-N--CA-[C] |==|  0.62778
USER: genes 3 Torsion [N]-CA--C-[O] |==|  0.05509
USER: genes 4 Torsion [N]-CA--CB-[CG] |==|  0.72743
USER: genes 5 Torsion [CA]-CB--CG-[CD2] |==|  0.47637
USER: genes 6 Torsion [N]-C--CA-[N] |==|  0.45289
USER: genes 7 Torsion [C]-CA--N-[C] |==|  0.51111
USER: genes 8 Torsion [N]-C--CA-[N] |==|  0.08745
USER: genes 9 Torsion [C]-CA--N-[H2] |==|  0.29566
ROOT
ATOM      1  C   ALA C 251      30.319   2.124  41.002  1.00 17.89 LIG 0.24  C 
ATOM      2 O    ALA C 251      29.738   1.815  42.052  1.00 18.07 LIG-0.27  OA
ATOM      3  N   TRP C 252      29.771   2.084  39.799  1.00 16.45 LIG-0.34  N 
ATOM      4 H    TRP C 252      30.171   2.283  39.064  1.00 16.45 LIG 0.16  HD
ENDROOT
BRANCH 3 5
ATOM      5  CA  TRP C 252      28.338   1.663  39.669  1.00 14.97 LIG 0.19  C 
BRANCH 5 6
ATOM      6  C   TRP C 252      28.239   0.670  38.539  1.00 14.13 LIG 0.20  C 
ATOM      7 O    TRP C 252      29.282   0.070  38.161  1.00 13.79 LIG-0.65  OA
ATOM      8 OXT  TRP C 252      27.095   0.522  38.037  0.30 14.18 LIG-0.65  OA
ENDBRANCH 5 6
BRANCH 5 9
ATOM      9  CB  TRP C 252      27.472   2.906  39.650  1.00 15.10 LIG 0.08  C 
BRANCH 9 10
ATOM     10  CG  TRP C 252      26.892   3.183  41.006  1.00 15.42 LIG-0.03  A 
ATOM     11  CD1 TRP C 252      26.927   2.312  42.070  1.00 15.27 LIG 0.10  A 
ATOM     12  NE1 TRP C 252      26.281   2.871  43.151  1.00 15.23 LIG-0.36  N 
ATOM     13 HE1  TRP C 252      26.195   2.508  43.925  1.00 15.23 LIG 0.17  HD
ATOM     14  CE2 TRP C 252      25.797   4.101  42.785  1.00 15.53 LIG 0.04  A 
ATOM     15  CZ2 TRP C 252      25.072   5.008  43.561  1.00 15.28 LIG 0.03  A 
ATOM     16  CD2 TRP C 252      26.168   4.334  41.444  1.00 15.41 LIG-0.00  A 
ATOM     17  CH2 TRP C 252      24.712   6.204  42.931  1.00 15.35 LIG 0.00  A 
ATOM     18  CZ3 TRP C 252      25.077   6.445  41.596  1.00 15.31 LIG 0.00  A 
ATOM     19  CE3 TRP C 252      25.795   5.531  40.846  1.00 15.90 LIG 0.01  A 
ENDBRANCH 9 10
ENDBRANCH 5 9
ENDBRANCH 3 5
BRANCH 1 20
ATOM     20  CA  ALA C 251      31.778   2.584  41.005  1.00 18.99 LIG 0.17  C 
ATOM     21  CB  ALA C 251      32.706   1.483  40.522  1.00 19.07 LIG 0.04  C 
BRANCH 20 22
ATOM     22  N   ALA C 251      32.120   2.969  42.375  1.00 20.05 LIG-0.35  N 
ATOM     23 H    ALA C 251      31.484   2.823  42.935  1.00 20.05 LIG 0.16  HD
ATOM     24  C   GLY C 250      33.270   3.486  42.737  1.00 20.79 LIG 0.24  C 
ATOM     25 O    GLY C 250      34.227   3.714  41.973  1.00 21.58 LIG-0.27  OA
BRANCH 24 26
ATOM     26  CA  GLY C 250      33.377   3.823  44.221  1.00 21.39 LIG 0.33  C 
BRANCH 26 27
ATOM     27  N   GLY C 250      32.570   2.886  45.021  1.00 22.00 LIG-0.07  N 
ATOM     28 H1   GLY C 250      32.025   2.430  44.485  1.00 22.00 LIG 0.27  HD
ATOM     29 H2   GLY C 250      33.108   2.319  45.447  1.00 22.00 LIG 0.27  HD
ATOM     30 H3   GLY C 250      32.089   3.341  45.616  1.00 22.00 LIG 0.27  HD
ENDBRANCH 26 27
ENDBRANCH 24 26
ENDBRANCH 20 22
ENDBRANCH 1 20
TORSDOF 8
ENDMDL
MODEL 22
USER: ADFR SOLUTION from run 120
USER: SCORE 10.814469 LL:  -1.691 LR:  -9.345 RR:   0.000 FEB:  -6.959
USER: RMSD 4.792595
USER: SEED 119
USER: STATUS no improvement in best 13 clusters for 5 generations
USER: GENES 10
USER: genes 0 Translation |==|  0.50348 0.45094 0.41509
USER: genes 1 Rotation |==|  0.91424 0.32484 0.28219 0.51668
USER: genes 2 Torsion [C]-N--CA-[C] |==|  0.64968
USER: genes 3 Torsion [N]-CA--C-[O] |==|  0.30532
USER: genes 4 Torsion [N]-CA--CB-[CG] |==|  0.52874
USER: genes 5 Torsion [CA]-CB--CG-[CD2] |==|  0.76394
USER: genes 6 Torsion [N]-C--CA-[N] |==|  0.42913
USER: genes 7 Torsion [C]-CA--N-[C] |==|  0.52263
USER: genes 8 Torsion [N]-C--CA-[N] |==|  0.33251
USER: genes 9 Torsion [C]-CA--N-[H2] |==|  0.82354
ROOT
ATOM      1  C   ALA C 251      28.924   1.028  37.633  1.00 17.89 LIG 0.24  C 
ATOM      2 O    ALA C 251      29.220   2.143  37.180  1.00 18.07 LIG-0.27  OA
ATOM      3  N   TRP C 252      28.386   0.818  38.821  1.00 16.45 LIG-0.34  N 
ATOM      4 H    TRP C 252      28.190   0.047  39.150  1.00 16.45 LIG 0.16  HD
ENDROOT
BRANCH 3 5
ATOM      5  CA  TRP C 252      28.077   1.996  39.696  1.00 14.97 LIG 0.19  C 
BRANCH 5 6
ATOM      6  C   TRP C 252      28.738   1.779  41.032  1.00 14.13 LIG 0.20  C 
ATOM      7 O    TRP C 252      29.724   2.500  41.349  1.00 13.79 LIG-0.65  OA
ATOM      8 OXT  TRP C 252      28.253   0.862  41.743  0.30 14.18 LIG-0.65  OA
ENDBRANCH 5 6
BRANCH 5 9
ATOM      9  CB  TRP C 252      26.587   2.262  39.633  1.00 15.10 LIG 0.08  C 
BRANCH 9 10
ATOM     10  CG  TRP C 252      26.241   3.571  40.281  1.00 15.42 LIG-0.03  A 
ATOM     11  CD1 TRP C 252      26.148   4.774  39.622  1.00 15.27 LIG 0.10  A 
ATOM     12  NE1 TRP C 252      25.840   5.774  40.518  1.00 15.23 LIG-0.36  N 
ATOM     13 HE1  TRP C 252      25.720   6.603  40.323  1.00 15.23 LIG 0.17  HD
ATOM     14  CE2 TRP C 252      25.758   5.228  41.774  1.00 15.53 LIG 0.04  A 
ATOM     15  CZ2 TRP C 252      25.478   5.875  42.980  1.00 15.28 LIG 0.03  A 
ATOM     16  CD2 TRP C 252      25.998   3.842  41.663  1.00 15.41 LIG-0.00  A 
ATOM     17  CH2 TRP C 252      25.445   5.063  44.118  1.00 15.35 LIG 0.00  A 
ATOM     18  CZ3 TRP C 252      25.682   3.682  44.017  1.00 15.31 LIG 0.00  A 
ATOM     19  CE3 TRP C 252      25.959   3.062  42.811  1.00 15.90 LIG 0.01  A 
ENDBRANCH 9 10
ENDBRANCH 5 9
ENDBRANCH 3 5
BRANCH 1 20
ATOM     20  CA  ALA C 251      29.176  -0.250  36.830  1.00 18.99 LIG 0.17  C 
ATOM     21  CB  ALA C 251      30.504  -0.885  37.206  1.00 19.07 LIG 0.04  C 
BRANCH 20 22
ATOM     22  N   ALA C 251      29.171   0.107  35.410  1.00 20.05 LIG-0.35  N 
ATOM     23 H    ALA C 251      29.143   0.956  35.277  1.00 20.05 LIG 0.16  HD
ATOM     24  C   GLY C 250      29.203  -0.758  34.426  1.00 20.79 LIG 0.24  C 
ATOM     25 O    GLY C 250      29.248  -1.996  34.559  1.00 21.58 LIG-0.27  OA
BRANCH 24 26
ATOM     26  CA  GLY C 250      29.166  -0.139  33.033  1.00 21.39 LIG 0.33  C 
BRANCH 26 27
ATOM     27  N   GLY C 250      30.378  -0.500  32.277  1.00 22.00 LIG-0.07  N 
ATOM     28 H1   GLY C 250      30.320  -0.175  31.450  1.00 22.00 LIG 0.27  HD
ATOM     29 H2   GLY C 250      31.094  -0.157  32.680  1.00 22.00 LIG 0.27  HD
ATOM     30 H3   GLY C 250      30.453  -1.386  32.242  1.00 22.00 LIG 0.27  HD
ENDBRANCH 26 27
ENDBRANCH 24 26
ENDBRANCH 20 22
ENDBRANCH 1 20
TORSDOF 8
ENDMDL
MODEL 23
USER: ADFR SOLUTION from run 127
USER: SCORE 10.108564 LL:  -1.919 LR:  -9.343 RR:   0.000 FEB:  -6.956
USER: RMSD 6.897908
USER: SEED 126
USER: STATUS no improvement in best 13 clusters for 5 generations
USER: GENES 10
USER: genes 0 Translation |==|  0.42132 0.49896 0.56301
USER: genes 1 Rotation |==|  0.33599 0.03761 0.56535 0.57088
USER: genes 2 Torsion [C]-N--CA-[C] |==|  0.54396
USER: genes 3 Torsion [N]-CA--C-[O] |==|  0.38929
USER: genes 4 Torsion [N]-CA--CB-[CG] |==|  0.22430
USER: genes 5 Torsion [CA]-CB--CG-[CD2] |==|  0.20986
USER: genes 6 Torsion [N]-C--CA-[N] |==|  0.78902
USER: genes 7 Torsion [C]-CA--N-[C] |==|  0.53889
USER: genes 8 Torsion [N]-C--CA-[N] |==|  0.57190
USER: genes 9 Torsion [C]-CA--N-[H2] |==|  0.38565
ROOT
ATOM      1  C   ALA C 251      26.460   2.469  42.070  1.00 17.89 LIG 0.24  C 
ATOM      2 O    ALA C 251      25.866   1.382  42.103  1.00 18.07 LIG-0.27  OA
ATOM      3  N   TRP C 252      27.771   2.608  41.972  1.00 16.45 LIG-0.34  N 
ATOM      4 H    TRP C 252      28.192   3.357  41.963  1.00 16.45 LIG 0.16  HD
ENDROOT
BRANCH 3 5
ATOM      5  CA  TRP C 252      28.624   1.379  41.866  1.00 14.97 LIG 0.19  C 
BRANCH 5 6
ATOM      6  C   TRP C 252      30.050   1.768  42.158  1.00 14.13 LIG 0.20  C 
ATOM      7 O    TRP C 252      30.766   0.989  42.847  1.00 13.79 LIG-0.65  OA
ATOM      8 OXT  TRP C 252      30.425   2.874  41.693  0.30 14.18 LIG-0.65  OA
ENDBRANCH 5 6
BRANCH 5 9
ATOM      9  CB  TRP C 252      28.292   0.675  40.566  1.00 15.10 LIG 0.08  C 
BRANCH 9 10
ATOM     10  CG  TRP C 252      28.997   1.316  39.407  1.00 15.42 LIG-0.03  A 
ATOM     11  CD1 TRP C 252      28.391   2.096  38.451  1.00 15.27 LIG 0.10  A 
ATOM     12  NE1 TRP C 252      29.323   2.500  37.519  1.00 15.23 LIG-0.36  N 
ATOM     13 HE1  TRP C 252      29.167   3.006  36.842  1.00 15.23 LIG 0.17  HD
ATOM     14  CE2 TRP C 252      30.539   1.961  37.853  1.00 15.53 LIG 0.04  A 
ATOM     15  CZ2 TRP C 252      31.757   2.101  37.184  1.00 15.28 LIG 0.03  A 
ATOM     16  CD2 TRP C 252      30.374   1.215  39.039  1.00 15.41 LIG-0.00  A 
ATOM     17  CH2 TRP C 252      32.851   1.445  37.758  1.00 15.35 LIG 0.00  A 
ATOM     18  CZ3 TRP C 252      32.696   0.700  38.939  1.00 15.31 LIG 0.00  A 
ATOM     19  CE3 TRP C 252      31.479   0.574  39.585  1.00 15.90 LIG 0.01  A 
ENDBRANCH 9 10
ENDBRANCH 5 9
ENDBRANCH 3 5
BRANCH 1 20
ATOM     20  CA  ALA C 251      25.699   3.794  42.155  1.00 18.99 LIG 0.17  C 
ATOM     21  CB  ALA C 251      26.213   4.792  41.132  1.00 19.07 LIG 0.04  C 
BRANCH 20 22
ATOM     22  N   ALA C 251      25.874   4.322  43.509  1.00 20.05 LIG-0.35  N 
ATOM     23 H    ALA C 251      26.501   3.928  43.945  1.00 20.05 LIG 0.16  HD
ATOM     24  C   GLY C 250      25.162   5.294  44.025  1.00 20.79 LIG 0.24  C 
ATOM     25 O    GLY C 250      24.247   5.904  43.440  1.00 21.58 LIG-0.27  OA
BRANCH 24 26
ATOM     26  CA  GLY C 250      25.521   5.651  45.464  1.00 21.39 LIG 0.33  C 
BRANCH 26 27
ATOM     27  N   GLY C 250      24.363   6.250  46.150  1.00 22.00 LIG-0.07  N 
ATOM     28 H1   GLY C 250      23.618   6.047  45.708  1.00 22.00 LIG 0.27  HD
ATOM     29 H2   GLY C 250      24.312   5.931  46.980  1.00 22.00 LIG 0.27  HD
ATOM     30 H3   GLY C 250      24.460   7.134  46.178  1.00 22.00 LIG 0.27  HD
ENDBRANCH 26 27
ENDBRANCH 24 26
ENDBRANCH 20 22
ENDBRANCH 1 20
TORSDOF 8
ENDMDL
MODEL 24
USER: ADFR SOLUTION from run 134
USER: SCORE 11.012388 LL:  -1.720 LR:  -9.317 RR:   0.000 FEB:  -6.930
USER: RMSD 5.600362
USER: SEED 133
USER: STATUS no improvement in best 18 clusters for 5 generations
USER: GENES 10
USER: genes 0 Translation |==|  0.42035 0.52490 0.53680
USER: genes 1 Rotation |==|  0.07962 0.76856 0.53323 0.50740
USER: genes 2 Torsion [C]-N--CA-[C] |==|  0.16262
USER: genes 3 Torsion [N]-CA--C-[O] |==|  0.04672
USER: genes 4 Torsion [N]-CA--CB-[CG] |==|  0.68319
USER: genes 5 Torsion [CA]-CB--CG-[CD2] |==|  0.86962
USER: genes 6 Torsion [N]-C--CA-[N] |==|  0.43333
USER: genes 7 Torsion [C]-CA--N-[C] |==|  0.81016
USER: genes 8 Torsion [N]-C--CA-[N] |==|  0.74898
USER: genes 9 Torsion [C]-CA--N-[H2] |==|  0.69207
ROOT
ATOM      1  C   ALA C 251      26.431   3.247  41.284  1.00 17.89 LIG 0.24  C 
ATOM      2 O    ALA C 251      27.348   3.999  40.927  1.00 18.07 LIG-0.27  OA
ATOM      3  N   TRP C 252      25.293   3.651  41.823  1.00 16.45 LIG-0.34  N 
ATOM      4 H    TRP C 252      24.657   3.136  42.087  1.00 16.45 LIG 0.16  HD
ENDROOT
BRANCH 3 5
ATOM      5  CA  TRP C 252      25.059   5.121  42.005  1.00 14.97 LIG 0.19  C 
BRANCH 5 6
ATOM      6  C   TRP C 252      25.149   5.784  40.654  1.00 14.13 LIG 0.20  C 
ATOM      7 O    TRP C 252      25.067   5.070  39.617  1.00 13.79 LIG-0.65  OA
ATOM      8 OXT  TRP C 252      25.318   7.030  40.664  0.30 14.18 LIG-0.65  OA
ENDBRANCH 5 6
BRANCH 5 9
ATOM      9  CB  TRP C 252      25.937   5.610  43.138  1.00 15.10 LIG 0.08  C 
BRANCH 9 10
ATOM     10  CG  TRP C 252      25.113   6.061  44.307  1.00 15.42 LIG-0.03  A 
ATOM     11  CD1 TRP C 252      25.317   5.673  45.611  1.00 15.27 LIG 0.10  A 
ATOM     12  NE1 TRP C 252      24.367   6.250  46.424  1.00 15.23 LIG-0.36  N 
ATOM     13 HE1  TRP C 252      24.313   6.157  47.277  1.00 15.23 LIG 0.17  HD
ATOM     14  CE2 TRP C 252      23.521   7.000  45.647  1.00 15.53 LIG 0.04  A 
ATOM     15  CZ2 TRP C 252      22.413   7.748  46.051  1.00 15.28 LIG 0.03  A 
ATOM     16  CD2 TRP C 252      23.963   6.910  44.310  1.00 15.41 LIG-0.00  A 
ATOM     17  CH2 TRP C 252      21.731   8.431  45.039  1.00 15.35 LIG 0.00  A 
ATOM     18  CZ3 TRP C 252      22.165   8.347  43.705  1.00 15.31 LIG 0.00  A 
ATOM     19  CE3 TRP C 252      23.265   7.598  43.327  1.00 15.90 LIG 0.01  A 
ENDBRANCH 9 10
ENDBRANCH 5 9
ENDBRANCH 3 5
BRANCH 1 20
ATOM     20  CA  ALA C 251      26.543   1.729  41.137  1.00 18.99 LIG 0.17  C 
ATOM     21  CB  ALA C 251      27.005   1.080  42.431  1.00 19.07 LIG 0.04  C 
BRANCH 20 22
ATOM     22  N   ALA C 251      27.501   1.455  40.064  1.00 20.05 LIG-0.35  N 
ATOM     23 H    ALA C 251      28.230   1.098  40.347  1.00 20.05 LIG 0.16  HD
ATOM     24  C   GLY C 250      27.292   1.717  38.796  1.00 20.79 LIG 0.24  C 
ATOM     25 O    GLY C 250      26.256   2.227  38.329  1.00 21.58 LIG-0.27  OA
BRANCH 24 26
ATOM     26  CA  GLY C 250      28.452   1.358  37.873  1.00 21.39 LIG 0.33  C 
BRANCH 26 27
ATOM     27  N   GLY C 250      29.368   2.503  37.729  1.00 22.00 LIG-0.07  N 
ATOM     28 H1   GLY C 250      30.203   2.239  37.889  1.00 22.00 LIG 0.27  HD
ATOM     29 H2   GLY C 250      29.313   2.825  36.901  1.00 22.00 LIG 0.27  HD
ATOM     30 H3   GLY C 250      29.142   3.139  38.310  1.00 22.00 LIG 0.27  HD
ENDBRANCH 26 27
ENDBRANCH 24 26
ENDBRANCH 20 22
ENDBRANCH 1 20
TORSDOF 8
ENDMDL
MODEL 25
USER: ADFR SOLUTION from run 45
USER: SCORE 10.304051 LL:  -1.518 LR:  -9.322 RR:   0.000 FEB:  -6.935
USER: RMSD 6.910896
USER: SEED 44
USER: STATUS no improvement in best 13 clusters for 5 generations
USER: GENES 10
USER: genes 0 Translation |==|  0.40080 0.56910 0.51799
USER: genes 1 Rotation |==|  0.67212 0.69657 0.86447 0.72113
USER: genes 2 Torsion [C]-N--CA-[C] |==|  0.23709
USER: genes 3 Torsion [N]-CA--C-[O] |==|  0.47467
USER: genes 4 Torsion [N]-CA--CB-[CG] |==|  0.36339
USER: genes 5 Torsion [CA]-CB--CG-[CD2] |==|  0.31431
USER: genes 6 Torsion [N]-C--CA-[N] |==|  0.17480
USER: genes 7 Torsion [C]-CA--N-[C] |==|  0.57941
USER: genes 8 Torsion [N]-C--CA-[N] |==|  0.53508
USER: genes 9 Torsion [C]-CA--N-[H2] |==|  0.74085
ROOT
ATOM      1  C   ALA C 251      25.844   4.573  40.720  1.00 17.89 LIG 0.24  C 
ATOM      2 O    ALA C 251      26.661   4.782  39.812  1.00 18.07 LIG-0.27  OA
ATOM      3  N   TRP C 252      25.521   3.377  41.181  1.00 16.45 LIG-0.34  N 
ATOM      4 H    TRP C 252      24.945   3.221  41.801  1.00 16.45 LIG 0.16  HD
ENDROOT
BRANCH 3 5
ATOM      5  CA  TRP C 252      26.195   2.170  40.599  1.00 14.97 LIG 0.19  C 
BRANCH 5 6
ATOM      6  C   TRP C 252      27.498   1.959  41.327  1.00 14.13 LIG 0.20  C 
ATOM      7 O    TRP C 252      28.148   0.898  41.119  1.00 13.79 LIG-0.65  OA
ATOM      8 OXT  TRP C 252      27.840   2.876  42.117  0.30 14.18 LIG-0.65  OA
ENDBRANCH 5 6
BRANCH 5 9
ATOM      9  CB  TRP C 252      26.194   2.301  39.090  1.00 15.10 LIG 0.08  C 
BRANCH 9 10
ATOM     10  CG  TRP C 252      27.559   2.046  38.522  1.00 15.42 LIG-0.03  A 
ATOM     11  CD1 TRP C 252      28.645   2.875  38.680  1.00 15.27 LIG 0.10  A 
ATOM     12  NE1 TRP C 252      29.730   2.355  38.010  1.00 15.23 LIG-0.36  N 
ATOM     13 HE1  TRP C 252      30.517   2.701  37.985  1.00 15.23 LIG 0.17  HD
ATOM     14  CE2 TRP C 252      29.348   1.194  37.388  1.00 15.53 LIG 0.04  A 
ATOM     15  CZ2 TRP C 252      30.121   0.345  36.594  1.00 15.28 LIG 0.03  A 
ATOM     16  CD2 TRP C 252      27.989   0.964  37.694  1.00 15.41 LIG-0.00  A 
ATOM     17  CH2 TRP C 252      29.470  -0.787  36.092  1.00 15.35 LIG 0.00  A 
ATOM     18  CZ3 TRP C 252      28.119  -1.024  36.391  1.00 15.31 LIG 0.00  A 
ATOM     19  CE3 TRP C 252      27.371  -0.168  37.180  1.00 15.90 LIG 0.01  A 
ENDBRANCH 9 10
ENDBRANCH 5 9
ENDBRANCH 3 5
BRANCH 1 20
ATOM     20  CA  ALA C 251      25.102   5.723  41.404  1.00 18.99 LIG 0.17  C 
ATOM     21  CB  ALA C 251      25.445   7.058  40.766  1.00 19.07 LIG 0.04  C 
BRANCH 20 22
ATOM     22  N   ALA C 251      25.485   5.723  42.816  1.00 20.05 LIG-0.35  N 
ATOM     23 H    ALA C 251      26.274   5.408  42.951  1.00 20.05 LIG 0.16  HD
ATOM     24  C   GLY C 250      24.724   6.155  43.793  1.00 20.79 LIG 0.24  C 
ATOM     25 O    GLY C 250      23.579   6.625  43.657  1.00 21.58 LIG-0.27  OA
BRANCH 24 26
ATOM     26  CA  GLY C 250      25.341   6.030  45.182  1.00 21.39 LIG 0.33  C 
BRANCH 26 27
ATOM     27  N   GLY C 250      24.320   6.250  46.221  1.00 22.00 LIG-0.07  N 
ATOM     28 H1   GLY C 250      24.503   5.744  46.930  1.00 22.00 LIG 0.27  HD
ATOM     29 H2   GLY C 250      24.320   7.107  46.461  1.00 22.00 LIG 0.27  HD
ATOM     30 H3   GLY C 250      23.519   6.032  45.900  1.00 22.00 LIG 0.27  HD
ENDBRANCH 26 27
ENDBRANCH 24 26
ENDBRANCH 20 22
ENDBRANCH 1 20
TORSDOF 8
ENDMDL
MODEL 26
USER: ADFR SOLUTION from run 137
USER: SCORE 10.789477 LL:  -1.698 LR:  -9.314 RR:   0.000 FEB:  -6.928
USER: RMSD 3.734053
USER: SEED 136
USER: STATUS no improvement in best 18 clusters for 5 generations
USER: GENES 10
USER: genes 0 Translation |==|  0.46096 0.46008 0.44570
USER: genes 1 Rotation |==|  0.54785 0.75108 0.26228 0.85799
USER: genes 2 Torsion [C]-N--CA-[C] |==|  0.17833
USER: genes 3 Torsion [N]-CA--C-[O] |==|  0.20032
USER: genes 4 Torsion [N]-CA--CB-[CG] |==|  0.57084
USER: genes 5 Torsion [CA]-CB--CG-[CD2] |==|  0.79105
USER: genes 6 Torsion [N]-C--CA-[N] |==|  0.08467
USER: genes 7 Torsion [C]-CA--N-[C] |==|  0.15271
USER: genes 8 Torsion [N]-C--CA-[N] |==|  0.20647
USER: genes 9 Torsion [C]-CA--N-[H2] |==|  0.43217
ROOT
ATOM      1  C   ALA C 251      27.649   1.302  38.551  1.00 17.89 LIG 0.24  C 
ATOM      2 O    ALA C 251      26.945   0.625  39.313  1.00 18.07 LIG-0.27  OA
ATOM      3  N   TRP C 252      28.054   2.536  38.798  1.00 16.45 LIG-0.34  N 
ATOM      4 H    TRP C 252      28.530   3.019  38.269  1.00 16.45 LIG 0.16  HD
ENDROOT
BRANCH 3 5
ATOM      5  CA  TRP C 252      27.669   3.179  40.098  1.00 14.97 LIG 0.19  C 
BRANCH 5 6
ATOM      6  C   TRP C 252      28.314   2.403  41.217  1.00 14.13 LIG 0.20  C 
ATOM      7 O    TRP C 252      29.561   2.500  41.387  1.00 13.79 LIG-0.65  OA
ATOM      8 OXT  TRP C 252      27.543   1.689  41.907  0.30 14.18 LIG-0.65  OA
ENDBRANCH 5 6
BRANCH 5 9
ATOM      9  CB  TRP C 252      26.169   3.391  40.102  1.00 15.10 LIG 0.08  C 
BRANCH 9 10
ATOM     10  CG  TRP C 252      25.784   4.522  41.009  1.00 15.42 LIG-0.03  A 
ATOM     11  CD1 TRP C 252      25.448   5.788  40.590  1.00 15.27 LIG 0.10  A 
ATOM     12  NE1 TRP C 252      25.175   6.583  41.681  1.00 15.23 LIG-0.36  N 
ATOM     13 HE1  TRP C 252      24.931   7.407  41.651  1.00 15.23 LIG 0.17  HD
ATOM     14  CE2 TRP C 252      25.358   5.843  42.821  1.00 15.53 LIG 0.04  A 
ATOM     15  CZ2 TRP C 252      25.202   6.250  44.148  1.00 15.28 LIG 0.03  A 
ATOM     16  CD2 TRP C 252      25.735   4.538  42.437  1.00 15.41 LIG-0.00  A 
ATOM     17  CH2 TRP C 252      25.445   5.275  45.121  1.00 15.35 LIG 0.00  A 
ATOM     18  CZ3 TRP C 252      25.820   3.974  44.748  1.00 15.31 LIG 0.00  A 
ATOM     19  CE3 TRP C 252      25.970   3.593  43.426  1.00 15.90 LIG 0.01  A 
ENDBRANCH 9 10
ENDBRANCH 5 9
ENDBRANCH 3 5
BRANCH 1 20
ATOM     20  CA  ALA C 251      28.119   0.753  37.203  1.00 18.99 LIG 0.17  C 
ATOM     21  CB  ALA C 251      28.262  -0.759  37.242  1.00 19.07 LIG 0.04  C 
BRANCH 20 22
ATOM     22  N   ALA C 251      29.407   1.375  36.892  1.00 20.05 LIG-0.35  N 
ATOM     23 H    ALA C 251      29.415   1.768  36.128  1.00 20.05 LIG 0.16  HD
ATOM     24  C   GLY C 250      30.454   1.349  37.681  1.00 20.79 LIG 0.24  C 
ATOM     25 O    GLY C 250      30.499   0.800  38.798  1.00 21.58 LIG-0.27  OA
BRANCH 24 26
ATOM     26  CA  GLY C 250      31.687   2.052  37.123  1.00 21.39 LIG 0.33  C 
BRANCH 26 27
ATOM     27  N   GLY C 250      31.520   3.514  37.187  1.00 22.00 LIG-0.07  N 
ATOM     28 H1   GLY C 250      31.068   3.730  37.923  1.00 22.00 LIG 0.27  HD
ATOM     29 H2   GLY C 250      32.319   3.905  37.205  1.00 22.00 LIG 0.27  HD
ATOM     30 H3   GLY C 250      31.070   3.793  36.471  1.00 22.00 LIG 0.27  HD
ENDBRANCH 26 27
ENDBRANCH 24 26
ENDBRANCH 20 22
ENDBRANCH 1 20
TORSDOF 8
ENDMDL
