MODEL 1
USER: ADFR SOLUTION from run 6
USER: SCORE 13.996954 LL:  -0.855 LR: -13.142 RR:   0.000 FEB: -10.159
USER: RMSD 6.237022
USER: SEED 660733
USER: STATUS no improvement in best 5 clusters for 5 generations
USER: GENES 12
USER: genes 0 Translation |==|  0.45012 0.58960 0.47158
USER: genes 1 Rotation |==|  0.74841 0.67672 0.47006 0.89518
USER: genes 2 Torsion [C]-N--CA-[C] |==|  0.91395
USER: genes 3 Torsion [N]-CA--C-[O] |==|  0.68757
USER: genes 4 Torsion [N]-CA--CB-[CG] |==|  0.53551
USER: genes 5 Torsion [CA]-CB--CG-[CD] |==|  0.65394
USER: genes 6 Torsion [CB]-CG--CD-[CE] |==|  0.74064
USER: genes 7 Torsion [CG]-CD--CE-[NZ] |==|  0.42197
USER: genes 8 Torsion [CD]-CE--NZ-[HZ2] |==|  0.42963
USER: genes 9 Torsion [N]-C--CA-[N] |==|  0.89390
USER: genes 10 Torsion [C]-CA--N-[H1] |==|  0.18515
USER: genes 11 Torsion [C]-CA--CB-[CG1] |==|  0.03596
ROOT
ATOM      1  C   VAL E1322      36.214  42.298  -3.343  1.00 68.39 LIG 0.25  C 
ATOM      2 O    VAL E1322      37.218  42.901  -3.615  1.00 21.34 LIG-0.27  OA
ATOM      3  N   LYS E1323      35.453  41.739  -4.306  1.00 24.29 LIG-0.34  N 
ATOM      4 H    LYS E1323      34.722  41.325  -4.124  1.00 24.29 LIG 0.16  HD
ENDROOT
BRANCH 3 5
ATOM      5  CA  LYS E1323      35.761  41.753  -5.815  1.00 35.31 LIG 0.18  C 
BRANCH 5 6
ATOM      6  C   LYS E1323      36.540  42.985  -6.387  1.00 31.13 LIG 0.20  C 
ATOM      7 O    LYS E1323      35.832  43.735  -7.188  1.00 27.62 LIG-0.65  OA
ATOM      8 OXT  LYS E1323      37.745  43.176  -5.973  1.00100.00 LIG-0.65  OA
ENDBRANCH 5 6
BRANCH 5 9
ATOM      9  CB  LYS E1323      34.537  41.475  -6.647  1.00 34.48 LIG 0.04  C 
BRANCH 9 10
ATOM     10  CG  LYS E1323      34.844  41.183  -8.073  1.00 39.74 LIG 0.00  C 
BRANCH 10 11
ATOM     11  CD  LYS E1323      34.047  42.157  -8.883  1.00 52.87 LIG 0.03  C 
BRANCH 11 12
ATOM     12  CE  LYS E1323      32.725  41.570  -9.288  1.00 74.69 LIG 0.23  C 
BRANCH 12 13
ATOM     13  NZ  LYS E1323      31.710  42.611  -9.467  1.00 65.28 LIG-0.08  N 
ATOM     14 HZ1  LYS E1323      32.093  43.345  -9.795  1.00 65.28 LIG 0.27  HD
ATOM     15 HZ2  LYS E1323      31.086  42.323 -10.032  1.00 65.28 LIG 0.27  HD
ATOM     16 HZ3  LYS E1323      31.335  42.799  -8.682  1.00 65.28 LIG 0.27  HD
ENDBRANCH 12 13
ENDBRANCH 11 12
ENDBRANCH 10 11
ENDBRANCH 9 10
ENDBRANCH 5 9
ENDBRANCH 3 5
BRANCH 1 17
ATOM     17  CA  VAL E1322      35.800  42.143  -1.884  1.00 27.04 LIG 0.28  C 
BRANCH 17 18
ATOM     18  N   VAL E1322      34.337  42.229  -1.735  1.00 24.29 LIG-0.07  N 
ATOM     19 H1   VAL E1322      33.956  41.528  -2.129  1.00 24.29 LIG 0.28  HD
ATOM     20 H2   VAL E1322      34.126  42.232  -0.869  1.00 24.29 LIG 0.28  HD
ATOM     21 H3   VAL E1322      34.043  42.977  -2.114  1.00 24.29 LIG 0.28  HD
ENDBRANCH 17 18
BRANCH 17 22
ATOM     22  CB  VAL E1322      36.539  40.950  -1.256  1.00 26.94 LIG 0.02  C 
ATOM     23  CG1 VAL E1322      37.697  40.464  -2.151  1.00 31.09 LIG 0.01  C 
ATOM     24  CG2 VAL E1322      36.961  41.268   0.242  1.00 18.44 LIG 0.01  C 
ENDBRANCH 17 22
ENDBRANCH 1 17
TORSDOF 10
ENDMDL
MODEL 2
USER: ADFR SOLUTION from run 52
USER: SCORE 14.388034 LL:  -1.702 LR: -12.686 RR:   0.000 FEB:  -9.703
USER: RMSD 8.016369
USER: SEED 51
USER: STATUS searching
USER: GENES 12
USER: genes 0 Translation |==|  0.34397 0.62528 0.27785
USER: genes 1 Rotation |==|  0.57980 0.15617 0.68939 0.79924
USER: genes 2 Torsion [C]-N--CA-[C] |==|  0.74735
USER: genes 3 Torsion [N]-CA--C-[O] |==|  0.77626
USER: genes 4 Torsion [N]-CA--CB-[CG] |==|  0.57264
USER: genes 5 Torsion [CA]-CB--CG-[CD] |==|  0.73386
USER: genes 6 Torsion [CB]-CG--CD-[CE] |==|  0.32267
USER: genes 7 Torsion [CG]-CD--CE-[NZ] |==|  0.03080
USER: genes 8 Torsion [CD]-CE--NZ-[HZ2] |==|  0.13497
USER: genes 9 Torsion [N]-C--CA-[N] |==|  0.28455
USER: genes 10 Torsion [C]-CA--N-[H1] |==|  0.00604
USER: genes 11 Torsion [C]-CA--CB-[CG1] |==|  0.24466
ROOT
ATOM      1  C   VAL E1322      33.029  43.369  -9.155  1.00 68.39 LIG 0.25  C 
ATOM      2 O    VAL E1322      32.460  44.029  -8.326  1.00 21.34 LIG-0.27  OA
ATOM      3  N   LYS E1323      34.068  42.576  -8.822  1.00 24.29 LIG-0.34  N 
ATOM      4 H    LYS E1323      34.496  42.117  -9.410  1.00 24.29 LIG 0.16  HD
ENDROOT
BRANCH 3 5
ATOM      5  CA  LYS E1323      34.626  42.376  -7.400  1.00 35.31 LIG 0.18  C 
BRANCH 5 6
ATOM      6  C   LYS E1323      35.777  43.328  -6.931  1.00 31.13 LIG 0.20  C 
ATOM      7 O    LYS E1323      36.960  42.985  -7.365  1.00 27.62 LIG-0.65  OA
ATOM      8 OXT  LYS E1323      35.452  44.366  -6.240  1.00100.00 LIG-0.65  OA
ENDBRANCH 5 6
BRANCH 5 9
ATOM      9  CB  LYS E1323      34.991  40.940  -7.130  1.00 34.48 LIG 0.04  C 
BRANCH 9 10
ATOM     10  CG  LYS E1323      34.937  40.576  -5.689  1.00 39.74 LIG 0.00  C 
BRANCH 10 11
ATOM     11  CD  LYS E1323      36.333  40.713  -5.167  1.00 52.87 LIG 0.03  C 
BRANCH 11 12
ATOM     12  CE  LYS E1323      36.417  41.790  -4.124  1.00 74.69 LIG 0.23  C 
BRANCH 12 13
ATOM     13  NZ  LYS E1323      35.085  42.235  -3.707  1.00 65.28 LIG-0.08  N 
ATOM     14 HZ1  LYS E1323      34.710  42.705  -4.363  1.00 65.28 LIG 0.27  HD
ATOM     15 HZ2  LYS E1323      34.580  41.526  -3.523  1.00 65.28 LIG 0.27  HD
ATOM     16 HZ3  LYS E1323      35.156  42.744  -2.980  1.00 65.28 LIG 0.27  HD
ENDBRANCH 12 13
ENDBRANCH 11 12
ENDBRANCH 10 11
ENDBRANCH 9 10
ENDBRANCH 5 9
ENDBRANCH 3 5
BRANCH 1 17
ATOM     17  CA  VAL E1322      32.559  43.410 -10.604  1.00 27.04 LIG 0.28  C 
BRANCH 17 18
ATOM     18  N   VAL E1322      31.335  42.610 -10.788  1.00 24.29 LIG-0.07  N 
ATOM     19 H1   VAL E1322      31.079  42.274 -10.005  1.00 24.29 LIG 0.28  HD
ATOM     20 H2   VAL E1322      30.688  43.128 -11.115  1.00 24.29 LIG 0.28  HD
ATOM     21 H3   VAL E1322      31.498  41.945 -11.357  1.00 24.29 LIG 0.28  HD
ENDBRANCH 17 18
BRANCH 17 22
ATOM     22  CB  VAL E1322      32.580  44.858 -11.118  1.00 26.94 LIG 0.02  C 
ATOM     23  CG1 VAL E1322      33.955  45.231 -11.709  1.00 31.09 LIG 0.01  C 
ATOM     24  CG2 VAL E1322      31.355  45.134 -12.092  1.00 18.44 LIG 0.01  C 
ENDBRANCH 17 22
ENDBRANCH 1 17
TORSDOF 10
ENDMDL
MODEL 3
USER: ADFR SOLUTION from run 64
USER: SCORE 13.719709 LL:  -1.132 LR: -12.588 RR:   0.000 FEB:  -9.605
USER: RMSD 5.273251
USER: SEED 63
USER: STATUS no improvement in best 8 clusters for 5 generations
USER: GENES 12
USER: genes 0 Translation |==|  0.45818 0.57941 0.44413
USER: genes 1 Rotation |==|  0.68394 0.72908 0.53530 0.90305
USER: genes 2 Torsion [C]-N--CA-[C] |==|  0.85163
USER: genes 3 Torsion [N]-CA--C-[O] |==|  0.16509
USER: genes 4 Torsion [N]-CA--CB-[CG] |==|  0.69721
USER: genes 5 Torsion [CA]-CB--CG-[CD] |==|  0.69959
USER: genes 6 Torsion [CB]-CG--CD-[CE] |==|  0.52292
USER: genes 7 Torsion [CG]-CD--CE-[NZ] |==|  0.65335
USER: genes 8 Torsion [CD]-CE--NZ-[HZ2] |==|  0.37828
USER: genes 9 Torsion [N]-C--CA-[N] |==|  0.83616
USER: genes 10 Torsion [C]-CA--N-[H1] |==|  0.98353
USER: genes 11 Torsion [C]-CA--CB-[CG1] |==|  0.10952
ROOT
ATOM      1  C   VAL E1322      36.455  41.992  -4.166  1.00 68.39 LIG 0.25  C 
ATOM      2 O    VAL E1322      37.133  42.904  -4.561  1.00 21.34 LIG-0.27  OA
ATOM      3  N   LYS E1323      35.963  41.068  -5.017  1.00 24.29 LIG-0.34  N 
ATOM      4 H    LYS E1323      35.459  40.426  -4.747  1.00 24.29 LIG 0.16  HD
ENDROOT
BRANCH 3 5
ATOM      5  CA  LYS E1323      36.216  41.020  -6.535  1.00 35.31 LIG 0.18  C 
BRANCH 5 6
ATOM      6  C   LYS E1323      35.904  42.311  -7.365  1.00 31.13 LIG 0.20  C 
ATOM      7 O    LYS E1323      36.585  43.360  -6.990  1.00 27.62 LIG-0.65  OA
ATOM      8 OXT  LYS E1323      35.083  42.205  -8.353  1.00100.00 LIG-0.65  OA
ENDBRANCH 5 6
BRANCH 5 9
ATOM      9  CB  LYS E1323      35.579  39.817  -7.179  1.00 34.48 LIG 0.04  C 
BRANCH 9 10
ATOM     10  CG  LYS E1323      36.562  38.795  -7.627  1.00 39.74 LIG 0.00  C 
BRANCH 10 11
ATOM     11  CD  LYS E1323      36.585  38.860  -9.122  1.00 52.87 LIG 0.03  C 
BRANCH 11 12
ATOM     12  CE  LYS E1323      37.396  37.735  -9.700  1.00 74.69 LIG 0.23  C 
BRANCH 12 13
ATOM     13  NZ  LYS E1323      38.453  38.236 -10.582  1.00 65.28 LIG-0.08  N 
ATOM     14 HZ1  LYS E1323      38.573  39.106 -10.436  1.00 65.28 LIG 0.27  HD
ATOM     15 HZ2  LYS E1323      39.210  37.799 -10.415  1.00 65.28 LIG 0.27  HD
ATOM     16 HZ3  LYS E1323      38.217  38.108 -11.430  1.00 65.28 LIG 0.27  HD
ENDBRANCH 12 13
ENDBRANCH 11 12
ENDBRANCH 10 11
ENDBRANCH 9 10
ENDBRANCH 5 9
ENDBRANCH 3 5
BRANCH 1 17
ATOM     17  CA  VAL E1322      36.161  41.864  -2.676  1.00 27.04 LIG 0.28  C 
BRANCH 17 18
ATOM     18  N   VAL E1322      34.710  41.876  -2.418  1.00 24.29 LIG-0.07  N 
ATOM     19 H1   VAL E1322      34.275  42.042  -3.176  1.00 24.29 LIG 0.28  HD
ATOM     20 H2   VAL E1322      34.458  41.083  -2.100  1.00 24.29 LIG 0.28  HD
ATOM     21 H3   VAL E1322      34.519  42.508  -1.823  1.00 24.29 LIG 0.28  HD
ENDBRANCH 17 18
BRANCH 17 22
ATOM     22  CB  VAL E1322      37.010  40.735  -2.072  1.00 26.94 LIG 0.02  C 
ATOM     23  CG1 VAL E1322      38.435  40.719  -2.660  1.00 31.09 LIG 0.01  C 
ATOM     24  CG2 VAL E1322      36.959  40.772  -0.484  1.00 18.44 LIG 0.01  C 
ENDBRANCH 17 22
ENDBRANCH 1 17
TORSDOF 10
ENDMDL
MODEL 4
USER: ADFR SOLUTION from run 73
USER: SCORE 13.430449 LL:  -0.843 LR: -12.587 RR:   0.000 FEB:  -9.604
USER: RMSD 4.914205
USER: SEED 72
USER: STATUS no improvement in best 1 clusters for 5 generations
USER: GENES 12
USER: genes 0 Translation |==|  0.46329 0.60003 0.48651
USER: genes 1 Rotation |==|  0.75686 0.61133 0.37354 0.89451
USER: genes 2 Torsion [C]-N--CA-[C] |==|  0.83306
USER: genes 3 Torsion [N]-CA--C-[O] |==|  0.70541
USER: genes 4 Torsion [N]-CA--CB-[CG] |==|  0.57191
USER: genes 5 Torsion [CA]-CB--CG-[CD] |==|  0.26305
USER: genes 6 Torsion [CB]-CG--CD-[CE] |==|  0.23080
USER: genes 7 Torsion [CG]-CD--CE-[NZ] |==|  0.78317
USER: genes 8 Torsion [CD]-CE--NZ-[HZ2] |==|  0.16222
USER: genes 9 Torsion [N]-C--CA-[N] |==|  0.96499
USER: genes 10 Torsion [C]-CA--N-[H1] |==|  0.07182
USER: genes 11 Torsion [C]-CA--CB-[CG1] |==|  0.42646
ROOT
ATOM      1  C   VAL E1322      36.609  42.611  -2.895  1.00 68.39 LIG 0.25  C 
ATOM      2 O    VAL E1322      37.772  42.680  -3.192  1.00 21.34 LIG-0.27  OA
ATOM      3  N   LYS E1323      35.669  42.322  -3.818  1.00 24.29 LIG-0.34  N 
ATOM      4 H    LYS E1323      34.833  42.293  -3.620  1.00 24.29 LIG 0.16  HD
ENDROOT
BRANCH 3 5
ATOM      5  CA  LYS E1323      35.933  42.014  -5.303  1.00 35.31 LIG 0.18  C 
BRANCH 5 6
ATOM      6  C   LYS E1323      36.634  43.120  -6.162  1.00 31.13 LIG 0.20  C 
ATOM      7 O    LYS E1323      35.835  43.735  -6.990  1.00 27.62 LIG-0.65  OA
ATOM      8 OXT  LYS E1323      37.879  43.359  -5.930  1.00100.00 LIG-0.65  OA
ENDBRANCH 5 6
BRANCH 5 9
ATOM      9  CB  LYS E1323      34.702  41.507  -6.006  1.00 34.48 LIG 0.04  C 
BRANCH 9 10
ATOM     10  CG  LYS E1323      35.003  40.651  -7.185  1.00 39.74 LIG 0.00  C 
BRANCH 10 11
ATOM     11  CD  LYS E1323      34.970  39.237  -6.698  1.00 52.87 LIG 0.03  C 
BRANCH 11 12
ATOM     12  CE  LYS E1323      33.564  38.710  -6.662  1.00 74.69 LIG 0.23  C 
BRANCH 12 13
ATOM     13  NZ  LYS E1323      32.837  39.205  -5.490  1.00 65.28 LIG-0.08  N 
ATOM     14 HZ1  LYS E1323      33.242  38.924  -4.749  1.00 65.28 LIG 0.27  HD
ATOM     15 HZ2  LYS E1323      32.825  40.095  -5.503  1.00 65.28 LIG 0.27  HD
ATOM     16 HZ3  LYS E1323      32.002  38.898  -5.506  1.00 65.28 LIG 0.27  HD
ENDBRANCH 12 13
ENDBRANCH 11 12
ENDBRANCH 10 11
ENDBRANCH 9 10
ENDBRANCH 5 9
ENDBRANCH 3 5
BRANCH 1 17
ATOM     17  CA  VAL E1322      36.186  42.833  -1.447  1.00 27.04 LIG 0.28  C 
BRANCH 17 18
ATOM     18  N   VAL E1322      34.725  42.984  -1.337  1.00 24.29 LIG-0.07  N 
ATOM     19 H1   VAL E1322      34.331  42.565  -2.016  1.00 24.29 LIG 0.28  HD
ATOM     20 H2   VAL E1322      34.447  42.630  -0.569  1.00 24.29 LIG 0.28  HD
ATOM     21 H3   VAL E1322      34.513  43.848  -1.359  1.00 24.29 LIG 0.28  HD
ENDBRANCH 17 18
BRANCH 17 22
ATOM     22  CB  VAL E1322      36.896  41.820  -0.535  1.00 26.94 LIG 0.02  C 
ATOM     23  CG1 VAL E1322      37.051  42.360   0.901  1.00 31.09 LIG 0.01  C 
ATOM     24  CG2 VAL E1322      36.204  40.392  -0.624  1.00 18.44 LIG 0.01  C 
ENDBRANCH 17 22
ENDBRANCH 1 17
TORSDOF 10
ENDMDL
MODEL 5
USER: ADFR SOLUTION from run 98
USER: SCORE 13.153084 LL:  -0.705 LR: -12.448 RR:   0.000 FEB:  -9.465
USER: RMSD 5.768216
USER: SEED 97
USER: STATUS no improvement in best 7 clusters for 5 generations
USER: GENES 12
USER: genes 0 Translation |==|  0.40914 0.61322 0.36732
USER: genes 1 Rotation |==|  0.34320 0.33060 0.66193 0.91291
USER: genes 2 Torsion [C]-N--CA-[C] |==|  0.87582
USER: genes 3 Torsion [N]-CA--C-[O] |==|  0.05001
USER: genes 4 Torsion [N]-CA--CB-[CG] |==|  0.57762
USER: genes 5 Torsion [CA]-CB--CG-[CD] |==|  0.30425
USER: genes 6 Torsion [CB]-CG--CD-[CE] |==|  0.73727
USER: genes 7 Torsion [CG]-CD--CE-[NZ] |==|  0.21458
USER: genes 8 Torsion [CD]-CE--NZ-[HZ2] |==|  0.79146
USER: genes 9 Torsion [N]-C--CA-[N] |==|  0.37663
USER: genes 10 Torsion [C]-CA--N-[H1] |==|  0.44226
USER: genes 11 Torsion [C]-CA--CB-[CG1] |==|  0.32616
ROOT
ATOM      1  C   VAL E1322      34.984  43.007  -6.470  1.00 68.39 LIG 0.25  C 
ATOM      2 O    VAL E1322      35.459  44.110  -6.532  1.00 21.34 LIG-0.27  OA
ATOM      3  N   LYS E1323      35.476  42.081  -5.621  1.00 24.29 LIG-0.34  N 
ATOM      4 H    LYS E1323      35.159  41.283  -5.586  1.00 24.29 LIG 0.16  HD
ENDROOT
BRANCH 3 5
ATOM      5  CA  LYS E1323      36.631  42.299  -4.626  1.00 35.31 LIG 0.18  C 
BRANCH 5 6
ATOM      6  C   LYS E1323      37.904  43.050  -5.143  1.00 31.13 LIG 0.20  C 
ATOM      7 O    LYS E1323      37.710  43.731  -6.240  1.00 27.62 LIG-0.65  OA
ATOM      8 OXT  LYS E1323      38.972  42.985  -4.424  1.00100.00 LIG-0.65  OA
ENDBRANCH 5 6
BRANCH 5 9
ATOM      9  CB  LYS E1323      37.023  41.026  -3.924  1.00 34.48 LIG 0.04  C 
BRANCH 9 10
ATOM     10  CG  LYS E1323      37.603  41.250  -2.572  1.00 39.74 LIG 0.00  C 
BRANCH 10 11
ATOM     11  CD  LYS E1323      36.585  40.759  -1.591  1.00 52.87 LIG 0.03  C 
BRANCH 11 12
ATOM     12  CE  LYS E1323      35.708  41.881  -1.114  1.00 74.69 LIG 0.23  C 
BRANCH 12 13
ATOM     13  NZ  LYS E1323      34.700  42.234  -2.117  1.00 65.28 LIG-0.08  N 
ATOM     14 HZ1  LYS E1323      34.068  42.734  -1.740  1.00 65.28 LIG 0.27  HD
ATOM     15 HZ2  LYS E1323      35.086  42.691  -2.777  1.00 65.28 LIG 0.27  HD
ATOM     16 HZ3  LYS E1323      34.335  41.492  -2.446  1.00 65.28 LIG 0.27  HD
ENDBRANCH 12 13
ENDBRANCH 11 12
ENDBRANCH 10 11
ENDBRANCH 9 10
ENDBRANCH 5 9
ENDBRANCH 3 5
BRANCH 1 17
ATOM     17  CA  VAL E1322      33.793  42.649  -7.352  1.00 27.04 LIG 0.28  C 
BRANCH 17 18
ATOM     18  N   VAL E1322      32.797  43.735  -7.365  1.00 24.29 LIG-0.07  N 
ATOM     19 H1   VAL E1322      32.281  43.656  -8.085  1.00 24.29 LIG 0.28  HD
ATOM     20 H2   VAL E1322      32.293  43.685  -6.632  1.00 24.29 LIG 0.28  HD
ATOM     21 H3   VAL E1322      33.214  44.521  -7.384  1.00 24.29 LIG 0.28  HD
ENDBRANCH 17 18
BRANCH 17 22
ATOM     22  CB  VAL E1322      34.288  42.083  -8.693  1.00 26.94 LIG 0.02  C 
ATOM     23  CG1 VAL E1322      33.833  40.623  -8.894  1.00 31.09 LIG 0.01  C 
ATOM     24  CG2 VAL E1322      33.914  43.054  -9.893  1.00 18.44 LIG 0.01  C 
ENDBRANCH 17 22
ENDBRANCH 1 17
TORSDOF 10
ENDMDL
MODEL 6
USER: ADFR SOLUTION from run 94
USER: SCORE 13.388936 LL:  -0.988 LR: -12.401 RR:   0.000 FEB:  -9.418
USER: RMSD 5.527659
USER: SEED 93
USER: STATUS no improvement in best 5 clusters for 5 generations
USER: GENES 12
USER: genes 0 Translation |==|  0.42666 0.53059 0.37918
USER: genes 1 Rotation |==|  0.03789 0.47472 0.56591 0.67740
USER: genes 2 Torsion [C]-N--CA-[C] |==|  0.15320
USER: genes 3 Torsion [N]-CA--C-[O] |==|  0.55644
USER: genes 4 Torsion [N]-CA--CB-[CG] |==|  0.66706
USER: genes 5 Torsion [CA]-CB--CG-[CD] |==|  0.26172
USER: genes 6 Torsion [CB]-CG--CD-[CE] |==|  0.69015
USER: genes 7 Torsion [CG]-CD--CE-[NZ] |==|  0.20517
USER: genes 8 Torsion [CD]-CE--NZ-[HZ2] |==|  0.82031
USER: genes 9 Torsion [N]-C--CA-[N] |==|  0.88858
USER: genes 10 Torsion [C]-CA--N-[H1] |==|  0.64337
USER: genes 11 Torsion [C]-CA--CB-[CG1] |==|  0.87699
ROOT
ATOM      1  C   VAL E1322      35.510  40.528  -6.115  1.00 68.39 LIG 0.25  C 
ATOM      2 O    VAL E1322      36.555  40.277  -6.654  1.00 21.34 LIG-0.27  OA
ATOM      3  N   LYS E1323      35.447  41.392  -5.081  1.00 24.29 LIG-0.34  N 
ATOM      4 H    LYS E1323      34.709  41.560  -4.675  1.00 24.29 LIG 0.16  HD
ENDROOT
BRANCH 3 5
ATOM      5  CA  LYS E1323      36.635  42.179  -4.495  1.00 35.31 LIG 0.18  C 
BRANCH 5 6
ATOM      6  C   LYS E1323      37.473  43.067  -5.474  1.00 31.13 LIG 0.20  C 
ATOM      7 O    LYS E1323      38.667  43.360  -5.036  1.00 27.62 LIG-0.65  OA
ATOM      8 OXT  LYS E1323      36.949  43.360  -6.615  1.00100.00 LIG-0.65  OA
ENDBRANCH 5 6
BRANCH 5 9
ATOM      9  CB  LYS E1323      37.544  41.305  -3.672  1.00 34.48 LIG 0.04  C 
BRANCH 9 10
ATOM     10  CG  LYS E1323      37.661  41.741  -2.255  1.00 39.74 LIG 0.00  C 
BRANCH 10 11
ATOM     11  CD  LYS E1323      36.646  40.953  -1.487  1.00 52.87 LIG 0.03  C 
BRANCH 11 12
ATOM     12  CE  LYS E1323      35.539  41.836  -0.989  1.00 74.69 LIG 0.23  C 
BRANCH 12 13
ATOM     13  NZ  LYS E1323      34.643  42.235  -2.078  1.00 65.28 LIG-0.08  N 
ATOM     14 HZ1  LYS E1323      33.960  42.699  -1.746  1.00 65.28 LIG 0.27  HD
ATOM     15 HZ2  LYS E1323      35.089  42.738  -2.660  1.00 65.28 LIG 0.27  HD
ATOM     16 HZ3  LYS E1323      34.335  41.508  -2.490  1.00 65.28 LIG 0.27  HD
ENDBRANCH 12 13
ENDBRANCH 11 12
ENDBRANCH 10 11
ENDBRANCH 9 10
ENDBRANCH 5 9
ENDBRANCH 3 5
BRANCH 1 17
ATOM     17  CA  VAL E1322      34.228  39.873  -6.616  1.00 27.04 LIG 0.28  C 
BRANCH 17 18
ATOM     18  N   VAL E1322      33.350  39.496  -5.495  1.00 24.29 LIG-0.07  N 
ATOM     19 H1   VAL E1322      33.113  38.642  -5.578  1.00 24.29 LIG 0.28  HD
ATOM     20 H2   VAL E1322      33.784  39.610  -4.726  1.00 24.29 LIG 0.28  HD
ATOM     21 H3   VAL E1322      32.622  40.007  -5.502  1.00 24.29 LIG 0.28  HD
ENDBRANCH 17 18
BRANCH 17 22
ATOM     22  CB  VAL E1322      33.639  40.698  -7.772  1.00 26.94 LIG 0.02  C 
ATOM     23  CG1 VAL E1322      33.666  42.209  -7.462  1.00 31.09 LIG 0.01  C 
ATOM     24  CG2 VAL E1322      34.314  40.304  -9.154  1.00 18.44 LIG 0.01  C 
ENDBRANCH 17 22
ENDBRANCH 1 17
TORSDOF 10
ENDMDL
MODEL 7
USER: ADFR SOLUTION from run 58
USER: SCORE 13.354772 LL:  -1.198 LR: -12.157 RR:   0.000 FEB:  -9.174
USER: RMSD 3.959697
USER: SEED 57
USER: STATUS no improvement in best 4 clusters for 5 generations
USER: GENES 12
USER: genes 0 Translation |==|  0.46993 0.58630 0.47926
USER: genes 1 Rotation |==|  0.70547 0.64855 0.49332 0.93090
USER: genes 2 Torsion [C]-N--CA-[C] |==|  0.75595
USER: genes 3 Torsion [N]-CA--C-[O] |==|  0.72411
USER: genes 4 Torsion [N]-CA--CB-[CG] |==|  0.77429
USER: genes 5 Torsion [CA]-CB--CG-[CD] |==|  0.60438
USER: genes 6 Torsion [CB]-CG--CD-[CE] |==|  0.42090
USER: genes 7 Torsion [CG]-CD--CE-[NZ] |==|  0.61298
USER: genes 8 Torsion [CD]-CE--NZ-[HZ2] |==|  0.02822
USER: genes 9 Torsion [N]-C--CA-[N] |==|  0.92560
USER: genes 10 Torsion [C]-CA--N-[H1] |==|  0.84305
USER: genes 11 Torsion [C]-CA--CB-[CG1] |==|  0.38997
ROOT
ATOM      1  C   VAL E1322      36.808  42.199  -3.112  1.00 68.39 LIG 0.25  C 
ATOM      2 O    VAL E1322      37.800  42.846  -3.321  1.00 21.34 LIG-0.27  OA
ATOM      3  N   LYS E1323      36.276  41.409  -4.067  1.00 24.29 LIG-0.34  N 
ATOM      4 H    LYS E1323      35.555  40.960  -3.935  1.00 24.29 LIG 0.16  HD
ENDROOT
BRANCH 3 5
ATOM      5  CA  LYS E1323      36.851  41.195  -5.480  1.00 35.31 LIG 0.18  C 
BRANCH 5 6
ATOM      6  C   LYS E1323      36.412  42.195  -6.602  1.00 31.13 LIG 0.20  C 
ATOM      7 O    LYS E1323      35.463  41.741  -7.375  1.00 27.62 LIG-0.65  OA
ATOM      8 OXT  LYS E1323      36.962  43.360  -6.615  1.00100.00 LIG-0.65  OA
ENDBRANCH 5 6
BRANCH 5 9
ATOM      9  CB  LYS E1323      36.688  39.774  -5.950  1.00 34.48 LIG 0.04  C 
BRANCH 9 10
ATOM     10  CG  LYS E1323      37.729  38.852  -5.421  1.00 39.74 LIG 0.00  C 
BRANCH 10 11
ATOM     11  CD  LYS E1323      38.048  37.898  -6.529  1.00 52.87 LIG 0.03  C 
BRANCH 11 12
ATOM     12  CE  LYS E1323      39.462  37.401  -6.424  1.00 74.69 LIG 0.23  C 
BRANCH 12 13
ATOM     13  NZ  LYS E1323      40.102  37.328  -7.740  1.00 65.28 LIG-0.08  N 
ATOM     14 HZ1  LYS E1323      40.217  36.475  -7.968  1.00 65.28 LIG 0.27  HD
ATOM     15 HZ2  LYS E1323      39.586  37.730  -8.343  1.00 65.28 LIG 0.27  HD
ATOM     16 HZ3  LYS E1323      40.892  37.735  -7.709  1.00 65.28 LIG 0.27  HD
ENDBRANCH 12 13
ENDBRANCH 11 12
ENDBRANCH 10 11
ENDBRANCH 9 10
ENDBRANCH 5 9
ENDBRANCH 3 5
BRANCH 1 17
ATOM     17  CA  VAL E1322      36.148  42.255  -1.739  1.00 27.04 LIG 0.28  C 
BRANCH 17 18
ATOM     18  N   VAL E1322      34.710  41.945  -1.828  1.00 24.29 LIG-0.07  N 
ATOM     19 H1   VAL E1322      34.320  42.505  -2.399  1.00 24.29 LIG 0.28  HD
ATOM     20 H2   VAL E1322      34.604  41.109  -2.114  1.00 24.29 LIG 0.28  HD
ATOM     21 H3   VAL E1322      34.337  42.033  -1.025  1.00 24.29 LIG 0.28  HD
ENDBRANCH 17 18
BRANCH 17 22
ATOM     22  CB  VAL E1322      37.006  41.494  -0.716  1.00 26.94 LIG 0.02  C 
ATOM     23  CG1 VAL E1322      37.049  42.223   0.642  1.00 31.09 LIG 0.01  C 
ATOM     24  CG2 VAL E1322      36.567  39.971  -0.626  1.00 18.44 LIG 0.01  C 
ENDBRANCH 17 22
ENDBRANCH 1 17
TORSDOF 10
ENDMDL
MODEL 8
USER: ADFR SOLUTION from run 153
USER: SCORE 12.660221 LL:  -0.541 LR: -12.119 RR:   0.000 FEB:  -9.136
USER: RMSD 5.164558
USER: SEED 152
USER: STATUS no improvement in best 9 clusters for 5 generations
USER: GENES 12
USER: genes 0 Translation |==|  0.52099 0.53501 0.46987
USER: genes 1 Rotation |==|  0.90791 0.76075 0.49362 0.62482
USER: genes 2 Torsion [C]-N--CA-[C] |==|  0.13573
USER: genes 3 Torsion [N]-CA--C-[O] |==|  0.32820
USER: genes 4 Torsion [N]-CA--CB-[CG] |==|  0.04449
USER: genes 5 Torsion [CA]-CB--CG-[CD] |==|  0.64363
USER: genes 6 Torsion [CB]-CG--CD-[CE] |==|  0.23407
USER: genes 7 Torsion [CG]-CD--CE-[NZ] |==|  0.84163
USER: genes 8 Torsion [CD]-CE--NZ-[HZ2] |==|  0.94047
USER: genes 9 Torsion [N]-C--CA-[N] |==|  0.91390
USER: genes 10 Torsion [C]-CA--N-[H1] |==|  0.30522
USER: genes 11 Torsion [C]-CA--CB-[CG1] |==|  0.83706
ROOT
ATOM      1  C   VAL E1322      38.340  40.660  -3.394  1.00 68.39 LIG 0.25  C 
ATOM      2 O    VAL E1322      39.280  41.410  -3.419  1.00 21.34 LIG-0.27  OA
ATOM      3  N   LYS E1323      37.105  41.076  -3.744  1.00 24.29 LIG-0.34  N 
ATOM      4 H    LYS E1323      36.423  40.554  -3.707  1.00 24.29 LIG 0.16  HD
ENDROOT
BRANCH 3 5
ATOM      5  CA  LYS E1323      36.740  42.487  -4.242  1.00 35.31 LIG 0.18  C 
BRANCH 5 6
ATOM      6  C   LYS E1323      37.618  43.105  -5.382  1.00 31.13 LIG 0.20  C 
ATOM      7 O    LYS E1323      36.960  43.360  -6.480  1.00 27.62 LIG-0.65  OA
ATOM      8 OXT  LYS E1323      38.853  43.360  -5.115  1.00100.00 LIG-0.65  OA
ENDBRANCH 5 6
BRANCH 5 9
ATOM      9  CB  LYS E1323      36.586  43.467  -3.110  1.00 34.48 LIG 0.04  C 
BRANCH 9 10
ATOM     10  CG  LYS E1323      37.172  42.988  -1.829  1.00 39.74 LIG 0.00  C 
BRANCH 10 11
ATOM     11  CD  LYS E1323      36.100  43.136  -0.795  1.00 52.87 LIG 0.03  C 
BRANCH 11 12
ATOM     12  CE  LYS E1323      35.180  41.949  -0.796  1.00 74.69 LIG 0.23  C 
BRANCH 12 13
ATOM     13  NZ  LYS E1323      34.577  41.742  -2.115  1.00 65.28 LIG-0.08  N 
ATOM     14 HZ1  LYS E1323      33.729  41.488  -2.018  1.00 65.28 LIG 0.27  HD
ATOM     15 HZ2  LYS E1323      34.609  42.501  -2.578  1.00 65.28 LIG 0.27  HD
ATOM     16 HZ3  LYS E1323      35.027  41.110  -2.551  1.00 65.28 LIG 0.27  HD
ENDBRANCH 12 13
ENDBRANCH 11 12
ENDBRANCH 10 11
ENDBRANCH 9 10
ENDBRANCH 5 9
ENDBRANCH 3 5
BRANCH 1 17
ATOM     17  CA  VAL E1322      38.546  39.209  -2.978  1.00 27.04 LIG 0.28  C 
BRANCH 17 18
ATOM     18  N   VAL E1322      37.339  38.665  -2.330  1.00 24.29 LIG-0.07  N 
ATOM     19 H1   VAL E1322      36.959  38.065  -2.867  1.00 24.29 LIG 0.28  HD
ATOM     20 H2   VAL E1322      37.565  38.275  -1.562  1.00 24.29 LIG 0.28  HD
ATOM     21 H3   VAL E1322      36.765  39.325  -2.170  1.00 24.29 LIG 0.28  HD
ENDBRANCH 17 18
BRANCH 17 22
ATOM     22  CB  VAL E1322      39.185  38.420  -4.133  1.00 26.94 LIG 0.02  C 
ATOM     23  CG1 VAL E1322      38.311  38.467  -5.403  1.00 31.09 LIG 0.01  C 
ATOM     24  CG2 VAL E1322      40.692  38.867  -4.361  1.00 18.44 LIG 0.01  C 
ENDBRANCH 17 22
ENDBRANCH 1 17
TORSDOF 10
ENDMDL
MODEL 9
USER: ADFR SOLUTION from run 39
USER: SCORE 13.297769 LL:  -1.201 LR: -12.096 RR:   0.000 FEB:  -9.113
USER: RMSD 8.089332
USER: SEED 38
USER: STATUS no improvement in best 10 clusters for 5 generations
USER: GENES 12
USER: genes 0 Translation |==|  0.35106 0.60307 0.28042
USER: genes 1 Rotation |==|  0.65123 0.13775 0.66140 0.76430
USER: genes 2 Torsion [C]-N--CA-[C] |==|  0.75234
USER: genes 3 Torsion [N]-CA--C-[O] |==|  0.05031
USER: genes 4 Torsion [N]-CA--CB-[CG] |==|  0.03877
USER: genes 5 Torsion [CA]-CB--CG-[CD] |==|  0.47884
USER: genes 6 Torsion [CB]-CG--CD-[CE] |==|  0.59025
USER: genes 7 Torsion [CG]-CD--CE-[NZ] |==|  0.41076
USER: genes 8 Torsion [CD]-CE--NZ-[HZ2] |==|  0.51606
USER: genes 9 Torsion [N]-C--CA-[N] |==|  0.33845
USER: genes 10 Torsion [C]-CA--N-[H1] |==|  0.70925
USER: genes 11 Torsion [C]-CA--CB-[CG1] |==|  0.26493
ROOT
ATOM      1  C   VAL E1322      33.242  42.702  -9.077  1.00 68.39 LIG 0.25  C 
ATOM      2 O    VAL E1322      32.578  42.985  -8.115  1.00 21.34 LIG-0.27  OA
ATOM      3  N   LYS E1323      34.404  42.030  -8.950  1.00 24.29 LIG-0.34  N 
ATOM      4 H    LYS E1323      34.897  41.844  -9.630  1.00 24.29 LIG 0.16  HD
ENDROOT
BRANCH 3 5
ATOM      5  CA  LYS E1323      35.005  41.516  -7.629  1.00 35.31 LIG 0.18  C 
BRANCH 5 6
ATOM      6  C   LYS E1323      35.948  42.480  -6.835  1.00 31.13 LIG 0.20  C 
ATOM      7 O    LYS E1323      35.835  43.735  -7.178  1.00 27.62 LIG-0.65  OA
ATOM      8 OXT  LYS E1323      36.676  41.972  -5.900  1.00100.00 LIG-0.65  OA
ENDBRANCH 5 6
BRANCH 5 9
ATOM      9  CB  LYS E1323      35.650  40.165  -7.787  1.00 34.48 LIG 0.04  C 
BRANCH 9 10
ATOM     10  CG  LYS E1323      35.864  39.772  -9.206  1.00 39.74 LIG 0.00  C 
BRANCH 10 11
ATOM     11  CD  LYS E1323      36.673  38.513  -9.177  1.00 52.87 LIG 0.03  C 
BRANCH 11 12
ATOM     12  CE  LYS E1323      37.588  38.431 -10.365  1.00 74.69 LIG 0.23  C 
BRANCH 12 13
ATOM     13  NZ  LYS E1323      38.829  37.726 -10.036  1.00 65.28 LIG-0.08  N 
ATOM     14 HZ1  LYS E1323      38.646  36.875  -9.848  1.00 65.28 LIG 0.27  HD
ATOM     15 HZ2  LYS E1323      39.385  37.765 -10.730  1.00 65.28 LIG 0.27  HD
ATOM     16 HZ3  LYS E1323      39.210  38.110  -9.329  1.00 65.28 LIG 0.27  HD
ENDBRANCH 12 13
ENDBRANCH 11 12
ENDBRANCH 10 11
ENDBRANCH 9 10
ENDBRANCH 5 9
ENDBRANCH 3 5
BRANCH 1 17
ATOM     17  CA  VAL E1322      32.755  43.090 -10.468  1.00 27.04 LIG 0.28  C 
BRANCH 17 18
ATOM     18  N   VAL E1322      31.422  42.524 -10.742  1.00 24.29 LIG-0.07  N 
ATOM     19 H1   VAL E1322      31.502  41.833 -11.297  1.00 24.29 LIG 0.28  HD
ATOM     20 H2   VAL E1322      31.053  42.251  -9.979  1.00 24.29 LIG 0.28  HD
ATOM     21 H3   VAL E1322      30.906  43.145 -11.115  1.00 24.29 LIG 0.28  HD
ENDBRANCH 17 18
BRANCH 17 22
ATOM     22  CB  VAL E1322      32.981  44.593 -10.700  1.00 26.94 LIG 0.02  C 
ATOM     23  CG1 VAL E1322      34.308  44.859 -11.440  1.00 31.09 LIG 0.01  C 
ATOM     24  CG2 VAL E1322      31.710  45.262 -11.379  1.00 18.44 LIG 0.01  C 
ENDBRANCH 17 22
ENDBRANCH 1 17
TORSDOF 10
ENDMDL
MODEL 10
USER: ADFR SOLUTION from run 108
USER: SCORE 13.948142 LL:  -1.952 LR: -11.996 RR:   0.000 FEB:  -9.013
USER: RMSD 5.667395
USER: SEED 107
USER: STATUS no improvement in best 5 clusters for 5 generations
USER: GENES 12
USER: genes 0 Translation |==|  0.44657 0.57831 0.46106
USER: genes 1 Rotation |==|  0.78924 0.53174 0.26964 0.83506
USER: genes 2 Torsion [C]-N--CA-[C] |==|  0.75012
USER: genes 3 Torsion [N]-CA--C-[O] |==|  0.14203
USER: genes 4 Torsion [N]-CA--CB-[CG] |==|  0.70584
USER: genes 5 Torsion [CA]-CB--CG-[CD] |==|  0.66846
USER: genes 6 Torsion [CB]-CG--CD-[CE] |==|  0.27223
USER: genes 7 Torsion [CG]-CD--CE-[NZ] |==|  0.81900
USER: genes 8 Torsion [CD]-CE--NZ-[HZ2] |==|  0.19766
USER: genes 9 Torsion [N]-C--CA-[N] |==|  0.18763
USER: genes 10 Torsion [C]-CA--N-[H1] |==|  0.16009
USER: genes 11 Torsion [C]-CA--CB-[CG1] |==|  0.23921
ROOT
ATOM      1  C   VAL E1322      36.107  41.959  -3.658  1.00 68.39 LIG 0.25  C 
ATOM      2 O    VAL E1322      37.122  41.383  -3.949  1.00 21.34 LIG-0.27  OA
ATOM      3  N   LYS E1323      35.195  42.283  -4.598  1.00 24.29 LIG-0.34  N 
ATOM      4 H    LYS E1323      34.477  42.714  -4.403  1.00 24.29 LIG 0.16  HD
ENDROOT
BRANCH 3 5
ATOM      5  CA  LYS E1323      35.290  41.945  -6.097  1.00 35.31 LIG 0.18  C 
BRANCH 5 6
ATOM      6  C   LYS E1323      35.996  42.983  -7.032  1.00 31.13 LIG 0.20  C 
ATOM      7 O    LYS E1323      37.174  43.360  -6.614  1.00 27.62 LIG-0.65  OA
ATOM      8 OXT  LYS E1323      35.398  43.307  -8.127  1.00100.00 LIG-0.65  OA
ENDBRANCH 5 6
BRANCH 5 9
ATOM      9  CB  LYS E1323      33.960  41.539  -6.674  1.00 34.48 LIG 0.04  C 
BRANCH 9 10
ATOM     10  CG  LYS E1323      33.849  40.079  -6.937  1.00 39.74 LIG 0.00  C 
BRANCH 10 11
ATOM     11  CD  LYS E1323      33.610  39.934  -8.407  1.00 52.87 LIG 0.03  C 
BRANCH 11 12
ATOM     12  CE  LYS E1323      34.887  39.621  -9.134  1.00 74.69 LIG 0.23  C 
BRANCH 12 13
ATOM     13  NZ  LYS E1323      35.835  40.735  -9.050  1.00 65.28 LIG-0.08  N 
ATOM     14 HZ1  LYS E1323      35.422  41.494  -9.264  1.00 65.28 LIG 0.27  HD
ATOM     15 HZ2  LYS E1323      36.152  40.793  -8.221  1.00 65.28 LIG 0.27  HD
ATOM     16 HZ3  LYS E1323      36.508  40.595  -9.615  1.00 65.28 LIG 0.27  HD
ENDBRANCH 12 13
ENDBRANCH 11 12
ENDBRANCH 10 11
ENDBRANCH 9 10
ENDBRANCH 5 9
ENDBRANCH 3 5
BRANCH 1 17
ATOM     17  CA  VAL E1322      35.834  42.315  -2.202  1.00 27.04 LIG 0.28  C 
BRANCH 17 18
ATOM     18  N   VAL E1322      34.709  41.529  -1.665  1.00 24.29 LIG-0.07  N 
ATOM     19 H1   VAL E1322      34.888  40.661  -1.745  1.00 24.29 LIG 0.28  HD
ATOM     20 H2   VAL E1322      34.591  41.729  -0.805  1.00 24.29 LIG 0.28  HD
ATOM     21 H3   VAL E1322      33.968  41.722  -2.118  1.00 24.29 LIG 0.28  HD
ENDBRANCH 17 18
BRANCH 17 22
ATOM     22  CB  VAL E1322      37.154  42.348  -1.416  1.00 26.94 LIG 0.02  C 
ATOM     23  CG1 VAL E1322      37.841  43.725  -1.517  1.00 31.09 LIG 0.01  C 
ATOM     24  CG2 VAL E1322      36.944  41.832   0.072  1.00 18.44 LIG 0.01  C 
ENDBRANCH 17 22
ENDBRANCH 1 17
TORSDOF 10
ENDMDL
MODEL 11
USER: ADFR SOLUTION from run 128
USER: SCORE 13.007946 LL:  -1.060 LR: -11.948 RR:   0.000 FEB:  -8.965
USER: RMSD 3.552377
USER: SEED 127
USER: STATUS no improvement in best 7 clusters for 5 generations
USER: GENES 12
USER: genes 0 Translation |==|  0.48560 0.62692 0.48420
USER: genes 1 Rotation |==|  0.68632 0.53593 0.34215 0.93483
USER: genes 2 Torsion [C]-N--CA-[C] |==|  0.62824
USER: genes 3 Torsion [N]-CA--C-[O] |==|  0.19887
USER: genes 4 Torsion [N]-CA--CB-[CG] |==|  0.76015
USER: genes 5 Torsion [CA]-CB--CG-[CD] |==|  0.25376
USER: genes 6 Torsion [CB]-CG--CD-[CE] |==|  0.34698
USER: genes 7 Torsion [CG]-CD--CE-[NZ] |==|  0.63257
USER: genes 8 Torsion [CD]-CE--NZ-[HZ2] |==|  0.04703
USER: genes 9 Torsion [N]-C--CA-[N] |==|  0.08982
USER: genes 10 Torsion [C]-CA--N-[H1] |==|  0.64714
USER: genes 11 Torsion [C]-CA--CB-[CG1] |==|  0.37559
ROOT
ATOM      1  C   VAL E1322      37.278  43.418  -2.964  1.00 68.39 LIG 0.25  C 
ATOM      2 O    VAL E1322      38.460  43.221  -3.068  1.00 21.34 LIG-0.27  OA
ATOM      3  N   LYS E1323      36.403  42.890  -3.844  1.00 24.29 LIG-0.34  N 
ATOM      4 H    LYS E1323      35.559  43.043  -3.792  1.00 24.29 LIG 0.16  HD
ENDROOT
BRANCH 3 5
ATOM      5  CA  LYS E1323      36.762  41.971  -5.027  1.00 35.31 LIG 0.18  C 
BRANCH 5 6
ATOM      6  C   LYS E1323      36.112  42.288  -6.416  1.00 31.13 LIG 0.20  C 
ATOM      7 O    LYS E1323      36.585  43.360  -6.992  1.00 27.62 LIG-0.65  OA
ATOM      8 OXT  LYS E1323      35.249  41.450  -6.878  1.00100.00 LIG-0.65  OA
ENDBRANCH 5 6
BRANCH 5 9
ATOM      9  CB  LYS E1323      36.589  40.515  -4.688  1.00 34.48 LIG 0.04  C 
BRANCH 9 10
ATOM     10  CG  LYS E1323      37.786  39.911  -4.042  1.00 39.74 LIG 0.00  C 
BRANCH 10 11
ATOM     11  CD  LYS E1323      37.595  40.072  -2.567  1.00 52.87 LIG 0.03  C 
BRANCH 11 12
ATOM     12  CE  LYS E1323      37.693  38.750  -1.861  1.00 74.69 LIG 0.23  C 
BRANCH 12 13
ATOM     13  NZ  LYS E1323      36.585  38.562  -0.921  1.00 65.28 LIG-0.08  N 
ATOM     14 HZ1  LYS E1323      36.873  38.702  -0.091  1.00 65.28 LIG 0.27  HD
ATOM     15 HZ2  LYS E1323      35.934  39.139  -1.111  1.00 65.28 LIG 0.27  HD
ATOM     16 HZ3  LYS E1323      36.274  37.731  -0.991  1.00 65.28 LIG 0.27  HD
ENDBRANCH 12 13
ENDBRANCH 11 12
ENDBRANCH 10 11
ENDBRANCH 9 10
ENDBRANCH 5 9
ENDBRANCH 3 5
BRANCH 1 17
ATOM     17  CA  VAL E1322      36.754  44.261  -1.808  1.00 27.04 LIG 0.28  C 
BRANCH 17 18
ATOM     18  N   VAL E1322      35.430  43.790  -1.364  1.00 24.29 LIG-0.07  N 
ATOM     19 H1   VAL E1322      34.859  44.473  -1.359  1.00 24.29 LIG 0.28  HD
ATOM     20 H2   VAL E1322      35.136  43.162  -1.922  1.00 24.29 LIG 0.28  HD
ATOM     21 H3   VAL E1322      35.494  43.452  -0.544  1.00 24.29 LIG 0.28  HD
ENDBRANCH 17 18
BRANCH 17 22
ATOM     22  CB  VAL E1322      37.860  44.453  -0.758  1.00 26.94 LIG 0.02  C 
ATOM     23  CG1 VAL E1322      37.936  45.916  -0.275  1.00 31.09 LIG 0.01  C 
ATOM     24  CG2 VAL E1322      37.727  43.386   0.411  1.00 18.44 LIG 0.01  C 
ENDBRANCH 17 22
ENDBRANCH 1 17
TORSDOF 10
ENDMDL
MODEL 12
USER: ADFR SOLUTION from run 147
USER: SCORE 13.668994 LL:  -1.760 LR: -11.909 RR:   0.000 FEB:  -8.926
USER: RMSD 7.730123
USER: SEED 146
USER: STATUS no improvement in best 9 clusters for 5 generations
USER: GENES 12
USER: genes 0 Translation |==|  0.33258 0.58810 0.29243
USER: genes 1 Rotation |==|  0.51763 0.26603 0.73210 0.87560
USER: genes 2 Torsion [C]-N--CA-[C] |==|  0.81247
USER: genes 3 Torsion [N]-CA--C-[O] |==|  0.00978
USER: genes 4 Torsion [N]-CA--CB-[CG] |==|  0.65769
USER: genes 5 Torsion [CA]-CB--CG-[CD] |==|  0.71960
USER: genes 6 Torsion [CB]-CG--CD-[CE] |==|  0.30150
USER: genes 7 Torsion [CG]-CD--CE-[NZ] |==|  0.04237
USER: genes 8 Torsion [CD]-CE--NZ-[HZ2] |==|  0.42131
USER: genes 9 Torsion [N]-C--CA-[N] |==|  0.62566
USER: genes 10 Torsion [C]-CA--N-[H1] |==|  0.23485
USER: genes 11 Torsion [C]-CA--CB-[CG1] |==|  0.39804
ROOT
ATOM      1  C   VAL E1322      32.687  42.253  -8.717  1.00 68.39 LIG 0.25  C 
ATOM      2 O    VAL E1322      32.473  43.306  -8.177  1.00 21.34 LIG-0.27  OA
ATOM      3  N   LYS E1323      33.757  41.502  -8.383  1.00 24.29 LIG-0.34  N 
ATOM      4 H    LYS E1323      33.931  40.759  -8.779  1.00 24.29 LIG 0.16  HD
ENDROOT
BRANCH 3 5
ATOM      5  CA  LYS E1323      34.787  41.842  -7.290  1.00 35.31 LIG 0.18  C 
BRANCH 5 6
ATOM      6  C   LYS E1323      35.720  43.076  -7.530  1.00 31.13 LIG 0.20  C 
ATOM      7 O    LYS E1323      35.460  43.733  -8.628  1.00 27.62 LIG-0.65  OA
ATOM      8 OXT  LYS E1323      36.585  43.360  -6.617  1.00100.00 LIG-0.65  OA
ENDBRANCH 5 6
BRANCH 5 9
ATOM      9  CB  LYS E1323      35.601  40.642  -6.884  1.00 34.48 LIG 0.04  C 
BRANCH 9 10
ATOM     10  CG  LYS E1323      35.526  40.341  -5.429  1.00 39.74 LIG 0.00  C 
BRANCH 10 11
ATOM     11  CD  LYS E1323      36.785  40.876  -4.823  1.00 52.87 LIG 0.03  C 
BRANCH 11 12
ATOM     12  CE  LYS E1323      36.510  42.096  -3.992  1.00 74.69 LIG 0.23  C 
BRANCH 12 13
ATOM     13  NZ  LYS E1323      35.081  42.232  -3.698  1.00 65.28 LIG-0.08  N 
ATOM     14 HZ1  LYS E1323      34.712  41.424  -3.641  1.00 65.28 LIG 0.27  HD
ATOM     15 HZ2  LYS E1323      34.977  42.662  -2.926  1.00 65.28 LIG 0.27  HD
ATOM     16 HZ3  LYS E1323      34.687  42.692  -4.350  1.00 65.28 LIG 0.27  HD
ENDBRANCH 12 13
ENDBRANCH 11 12
ENDBRANCH 10 11
ENDBRANCH 9 10
ENDBRANCH 5 9
ENDBRANCH 3 5
BRANCH 1 17
ATOM     17  CA  VAL E1322      31.725  41.744  -9.784  1.00 27.04 LIG 0.28  C 
BRANCH 17 18
ATOM     18  N   VAL E1322      31.380  42.811 -10.740  1.00 24.29 LIG-0.07  N 
ATOM     19 H1   VAL E1322      32.005  42.856 -11.372  1.00 24.29 LIG 0.28  HD
ATOM     20 H2   VAL E1322      30.592  42.631 -11.115  1.00 24.29 LIG 0.28  HD
ATOM     21 H3   VAL E1322      31.334  43.590 -10.313  1.00 24.29 LIG 0.28  HD
ENDBRANCH 17 18
BRANCH 17 22
ATOM     22  CB  VAL E1322      32.215  40.393 -10.328  1.00 26.94 LIG 0.02  C 
ATOM     23  CG1 VAL E1322      31.039  39.444 -10.635  1.00 31.09 LIG 0.01  C 
ATOM     24  CG2 VAL E1322      33.221  40.600 -11.541  1.00 18.44 LIG 0.01  C 
ENDBRANCH 17 22
ENDBRANCH 1 17
TORSDOF 10
ENDMDL
MODEL 13
USER: ADFR SOLUTION from run 156
USER: SCORE 13.293683 LL:  -1.482 LR: -11.811 RR:   0.000 FEB:  -8.828
USER: RMSD 4.398094
USER: SEED 155
USER: STATUS no improvement in best 6 clusters for 5 generations
USER: GENES 12
USER: genes 0 Translation |==|  0.47274 0.61341 0.47864
USER: genes 1 Rotation |==|  0.71415 0.61387 0.34842 0.91012
USER: genes 2 Torsion [C]-N--CA-[C] |==|  0.79958
USER: genes 3 Torsion [N]-CA--C-[O] |==|  0.14089
USER: genes 4 Torsion [N]-CA--CB-[CG] |==|  0.67312
USER: genes 5 Torsion [CA]-CB--CG-[CD] |==|  0.93124
USER: genes 6 Torsion [CB]-CG--CD-[CE] |==|  0.32936
USER: genes 7 Torsion [CG]-CD--CE-[NZ] |==|  0.85060
USER: genes 8 Torsion [CD]-CE--NZ-[HZ2] |==|  0.68149
USER: genes 9 Torsion [N]-C--CA-[N] |==|  0.83092
USER: genes 10 Torsion [C]-CA--N-[H1] |==|  0.64547
USER: genes 11 Torsion [C]-CA--CB-[CG1] |==|  0.77713
ROOT
ATOM      1  C   VAL E1322      36.892  43.012  -3.131  1.00 68.39 LIG 0.25  C 
ATOM      2 O    VAL E1322      38.025  42.992  -3.535  1.00 21.34 LIG-0.27  OA
ATOM      3  N   LYS E1323      35.869  42.585  -3.899  1.00 24.29 LIG-0.34  N 
ATOM      4 H    LYS E1323      35.054  42.617  -3.628  1.00 24.29 LIG 0.16  HD
ENDROOT
BRANCH 3 5
ATOM      5  CA  LYS E1323      35.995  42.000  -5.318  1.00 35.31 LIG 0.18  C 
BRANCH 5 6
ATOM      6  C   LYS E1323      36.353  42.985  -6.481  1.00 31.13 LIG 0.20  C 
ATOM      7 O    LYS E1323      37.394  43.735  -6.240  1.00 27.62 LIG-0.65  OA
ATOM      8 OXT  LYS E1323      35.653  42.918  -7.561  1.00100.00 LIG-0.65  OA
ENDBRANCH 5 6
BRANCH 5 9
ATOM      9  CB  LYS E1323      34.804  41.158  -5.693  1.00 34.48 LIG 0.04  C 
BRANCH 9 10
ATOM     10  CG  LYS E1323      35.145  39.734  -5.955  1.00 39.74 LIG 0.00  C 
BRANCH 10 11
ATOM     11  CD  LYS E1323      36.586  39.712  -6.355  1.00 52.87 LIG 0.03  C 
BRANCH 11 12
ATOM     12  CE  LYS E1323      37.403  38.900  -5.392  1.00 74.69 LIG 0.23  C 
BRANCH 12 13
ATOM     13  NZ  LYS E1323      37.212  39.356  -4.013  1.00 65.28 LIG-0.08  N 
ATOM     14 HZ1  LYS E1323      36.960  38.669  -3.505  1.00 65.28 LIG 0.27  HD
ATOM     15 HZ2  LYS E1323      37.977  39.689  -3.702  1.00 65.28 LIG 0.27  HD
ATOM     16 HZ3  LYS E1323      36.584  39.986  -3.992  1.00 65.28 LIG 0.27  HD
ENDBRANCH 12 13
ENDBRANCH 11 12
ENDBRANCH 10 11
ENDBRANCH 9 10
ENDBRANCH 5 9
ENDBRANCH 3 5
BRANCH 1 17
ATOM     17  CA  VAL E1322      36.605  43.510  -1.719  1.00 27.04 LIG 0.28  C 
BRANCH 17 18
ATOM     18  N   VAL E1322      35.706  44.677  -1.740  1.00 24.29 LIG-0.07  N 
ATOM     19 H1   VAL E1322      36.068  45.339  -1.268  1.00 24.29 LIG 0.28  HD
ATOM     20 H2   VAL E1322      35.584  44.944  -2.581  1.00 24.29 LIG 0.28  HD
ATOM     21 H3   VAL E1322      34.922  44.454  -1.383  1.00 24.29 LIG 0.28  HD
ENDBRANCH 17 18
BRANCH 17 22
ATOM     22  CB  VAL E1322      36.255  42.323  -0.808  1.00 26.94 LIG 0.02  C 
ATOM     23  CG1 VAL E1322      34.789  41.881  -0.989  1.00 31.09 LIG 0.01  C 
ATOM     24  CG2 VAL E1322      37.315  41.150  -0.970  1.00 18.44 LIG 0.01  C 
ENDBRANCH 17 22
ENDBRANCH 1 17
TORSDOF 10
ENDMDL
MODEL 14
USER: ADFR SOLUTION from run 60
USER: SCORE 13.722770 LL:  -1.989 LR: -11.734 RR:   0.000 FEB:  -8.751
USER: RMSD 5.721430
USER: SEED 59
USER: STATUS no improvement in best 4 clusters for 5 generations
USER: GENES 12
USER: genes 0 Translation |==|  0.47483 0.62634 0.49591
USER: genes 1 Rotation |==|  0.70961 0.58354 0.36899 0.92652
USER: genes 2 Torsion [C]-N--CA-[C] |==|  0.84100
USER: genes 3 Torsion [N]-CA--C-[O] |==|  0.18649
USER: genes 4 Torsion [N]-CA--CB-[CG] |==|  0.19236
USER: genes 5 Torsion [CA]-CB--CG-[CD] |==|  0.41213
USER: genes 6 Torsion [CB]-CG--CD-[CE] |==|  0.74790
USER: genes 7 Torsion [CG]-CD--CE-[NZ] |==|  0.23683
USER: genes 8 Torsion [CD]-CE--NZ-[HZ2] |==|  0.41270
USER: genes 9 Torsion [N]-C--CA-[N] |==|  0.84046
USER: genes 10 Torsion [C]-CA--N-[H1] |==|  0.97338
USER: genes 11 Torsion [C]-CA--CB-[CG1] |==|  0.77813
ROOT
ATOM      1  C   VAL E1322      36.955  43.400  -2.613  1.00 68.39 LIG 0.25  C 
ATOM      2 O    VAL E1322      38.134  43.406  -2.849  1.00 21.34 LIG-0.27  OA
ATOM      3  N   LYS E1323      36.070  42.885  -3.490  1.00 24.29 LIG-0.34  N 
ATOM      4 H    LYS E1323      35.223  42.896  -3.341  1.00 24.29 LIG 0.16  HD
ENDROOT
BRANCH 3 5
ATOM      5  CA  LYS E1323      36.420  42.224  -4.837  1.00 35.31 LIG 0.18  C 
BRANCH 5 6
ATOM      6  C   LYS E1323      37.235  43.071  -5.871  1.00 31.13 LIG 0.20  C 
ATOM      7 O    LYS E1323      38.457  43.336  -5.496  1.00 27.62 LIG-0.65  OA
ATOM      8 OXT  LYS E1323      36.665  43.360  -6.991  1.00100.00 LIG-0.65  OA
ENDBRANCH 5 6
BRANCH 5 9
ATOM      9  CB  LYS E1323      35.216  41.608  -5.497  1.00 34.48 LIG 0.04  C 
BRANCH 9 10
ATOM     10  CG  LYS E1323      34.232  42.610  -5.988  1.00 39.74 LIG 0.00  C 
BRANCH 10 11
ATOM     11  CD  LYS E1323      33.592  42.012  -7.201  1.00 52.87 LIG 0.03  C 
BRANCH 11 12
ATOM     12  CE  LYS E1323      34.339  42.388  -8.448  1.00 74.69 LIG 0.23  C 
BRANCH 12 13
ATOM     13  NZ  LYS E1323      35.458  41.474  -8.696  1.00 65.28 LIG-0.08  N 
ATOM     14 HZ1  LYS E1323      35.270  40.675  -8.353  1.00 65.28 LIG 0.27  HD
ATOM     15 HZ2  LYS E1323      35.590  41.399  -9.573  1.00 65.28 LIG 0.27  HD
ATOM     16 HZ3  LYS E1323      36.194  41.796  -8.313  1.00 65.28 LIG 0.27  HD
ENDBRANCH 12 13
ENDBRANCH 11 12
ENDBRANCH 10 11
ENDBRANCH 9 10
ENDBRANCH 5 9
ENDBRANCH 3 5
BRANCH 1 17
ATOM     17  CA  VAL E1322      36.449  43.966  -1.291  1.00 27.04 LIG 0.28  C 
BRANCH 17 18
ATOM     18  N   VAL E1322      35.460  45.035  -1.514  1.00 24.29 LIG-0.07  N 
ATOM     19 H1   VAL E1322      35.443  45.248  -2.378  1.00 24.29 LIG 0.28  HD
ATOM     20 H2   VAL E1322      34.654  44.751  -1.263  1.00 24.29 LIG 0.28  HD
ATOM     21 H3   VAL E1322      35.684  45.751  -1.037  1.00 24.29 LIG 0.28  HD
ENDBRANCH 17 18
BRANCH 17 22
ATOM     22  CB  VAL E1322      36.093  42.817  -0.334  1.00 26.94 LIG 0.02  C 
ATOM     23  CG1 VAL E1322      34.710  42.217  -0.657  1.00 31.09 LIG 0.01  C 
ATOM     24  CG2 VAL E1322      37.268  41.750  -0.264  1.00 18.44 LIG 0.01  C 
ENDBRANCH 17 22
ENDBRANCH 1 17
TORSDOF 10
ENDMDL
MODEL 15
USER: ADFR SOLUTION from run 17
USER: SCORE 13.005611 LL:  -1.315 LR: -11.691 RR:   0.000 FEB:  -8.708
USER: RMSD 5.079684
USER: SEED 16
USER: STATUS no improvement in best 4 clusters for 5 generations
USER: GENES 12
USER: genes 0 Translation |==|  0.51537 0.53149 0.47450
USER: genes 1 Rotation |==|  0.93733 0.71873 0.50254 0.60439
USER: genes 2 Torsion [C]-N--CA-[C] |==|  0.18433
USER: genes 3 Torsion [N]-CA--C-[O] |==|  0.77953
USER: genes 4 Torsion [N]-CA--CB-[CG] |==|  0.74865
USER: genes 5 Torsion [CA]-CB--CG-[CD] |==|  0.26599
USER: genes 6 Torsion [CB]-CG--CD-[CE] |==|  0.67555
USER: genes 7 Torsion [CG]-CD--CE-[NZ] |==|  0.11539
USER: genes 8 Torsion [CD]-CE--NZ-[HZ2] |==|  0.88340
USER: genes 9 Torsion [N]-C--CA-[N] |==|  0.34638
USER: genes 10 Torsion [C]-CA--N-[H1] |==|  0.24762
USER: genes 11 Torsion [C]-CA--CB-[CG1] |==|  0.14261
ROOT
ATOM      1  C   VAL E1322      38.171  40.555  -3.255  1.00 68.39 LIG 0.25  C 
ATOM      2 O    VAL E1322      39.235  41.110  -3.177  1.00 21.34 LIG-0.27  OA
ATOM      3  N   LYS E1323      37.052  41.234  -3.579  1.00 24.29 LIG-0.34  N 
ATOM      4 H    LYS E1323      36.283  40.851  -3.615  1.00 24.29 LIG 0.16  HD
ENDROOT
BRANCH 3 5
ATOM      5  CA  LYS E1323      36.978  42.735  -3.919  1.00 35.31 LIG 0.18  C 
BRANCH 5 6
ATOM      6  C   LYS E1323      37.685  43.218  -5.230  1.00 31.13 LIG 0.20  C 
ATOM      7 O    LYS E1323      38.977  43.360  -5.115  1.00 27.62 LIG-0.65  OA
ATOM      8 OXT  LYS E1323      36.958  43.360  -6.285  1.00100.00 LIG-0.65  OA
ENDBRANCH 5 6
BRANCH 5 9
ATOM      9  CB  LYS E1323      37.383  43.601  -2.756  1.00 34.48 LIG 0.04  C 
BRANCH 9 10
ATOM     10  CG  LYS E1323      36.244  43.984  -1.878  1.00 39.74 LIG 0.00  C 
BRANCH 10 11
ATOM     11  CD  LYS E1323      36.231  42.999  -0.752  1.00 52.87 LIG 0.03  C 
BRANCH 11 12
ATOM     12  CE  LYS E1323      34.965  42.191  -0.756  1.00 74.69 LIG 0.23  C 
BRANCH 12 13
ATOM     13  NZ  LYS E1323      34.587  41.797  -2.115  1.00 65.28 LIG-0.08  N 
ATOM     14 HZ1  LYS E1323      33.730  41.557  -2.127  1.00 65.28 LIG 0.27  HD
ATOM     15 HZ2  LYS E1323      34.711  42.482  -2.668  1.00 65.28 LIG 0.27  HD
ATOM     16 HZ3  LYS E1323      35.090  41.111  -2.376  1.00 65.28 LIG 0.27  HD
ENDBRANCH 12 13
ENDBRANCH 11 12
ENDBRANCH 10 11
ENDBRANCH 9 10
ENDBRANCH 5 9
ENDBRANCH 3 5
BRANCH 1 17
ATOM     17  CA  VAL E1322      38.084  39.054  -3.004  1.00 27.04 LIG 0.28  C 
BRANCH 17 18
ATOM     18  N   VAL E1322      39.021  38.316  -3.869  1.00 24.29 LIG-0.07  N 
ATOM     19 H1   VAL E1322      39.808  38.242  -3.459  1.00 24.29 LIG 0.28  HD
ATOM     20 H2   VAL E1322      38.696  37.503  -4.034  1.00 24.29 LIG 0.28  HD
ATOM     21 H3   VAL E1322      39.127  38.754  -4.635  1.00 24.29 LIG 0.28  HD
ENDBRANCH 17 18
BRANCH 17 22
ATOM     22  CB  VAL E1322      38.097  38.776  -1.493  1.00 26.94 LIG 0.02  C 
ATOM     23  CG1 VAL E1322      37.041  39.621  -0.751  1.00 31.09 LIG 0.01  C 
ATOM     24  CG2 VAL E1322      38.008  37.217  -1.200  1.00 18.44 LIG 0.01  C 
ENDBRANCH 17 22
ENDBRANCH 1 17
TORSDOF 10
ENDMDL
MODEL 16
USER: ADFR SOLUTION from run 112
USER: SCORE 13.385325 LL:  -1.741 LR: -11.645 RR:   0.000 FEB:  -8.662
USER: RMSD 5.434941
USER: SEED 111
USER: STATUS no improvement in best 9 clusters for 5 generations
USER: GENES 12
USER: genes 0 Translation |==|  0.50741 0.53478 0.48008
USER: genes 1 Rotation |==|  0.84216 0.66960 0.45028 0.81889
USER: genes 2 Torsion [C]-N--CA-[C] |==|  0.78590
USER: genes 3 Torsion [N]-CA--C-[O] |==|  0.13320
USER: genes 4 Torsion [N]-CA--CB-[CG] |==|  0.04903
USER: genes 5 Torsion [CA]-CB--CG-[CD] |==|  0.36531
USER: genes 6 Torsion [CB]-CG--CD-[CE] |==|  0.87082
USER: genes 7 Torsion [CG]-CD--CE-[NZ] |==|  0.83191
USER: genes 8 Torsion [CD]-CE--NZ-[HZ2] |==|  0.08627
USER: genes 9 Torsion [N]-C--CA-[N] |==|  0.88373
USER: genes 10 Torsion [C]-CA--N-[H1] |==|  0.37368
USER: genes 11 Torsion [C]-CA--CB-[CG1] |==|  0.94264
ROOT
ATOM      1  C   VAL E1322      37.932  40.653  -3.088  1.00 68.39 LIG 0.25  C 
ATOM      2 O    VAL E1322      39.037  41.102  -3.244  1.00 21.34 LIG-0.27  OA
ATOM      3  N   LYS E1323      37.010  40.711  -4.070  1.00 24.29 LIG-0.34  N 
ATOM      4 H    LYS E1323      36.211  40.414  -3.961  1.00 24.29 LIG 0.16  HD
ENDROOT
BRANCH 3 5
ATOM      5  CA  LYS E1323      37.234  41.292  -5.479  1.00 35.31 LIG 0.18  C 
BRANCH 5 6
ATOM      6  C   LYS E1323      37.241  42.850  -5.630  1.00 31.13 LIG 0.20  C 
ATOM      7 O    LYS E1323      37.988  43.465  -4.754  1.00 27.62 LIG-0.65  OA
ATOM      8 OXT  LYS E1323      36.585  43.360  -6.615  1.00100.00 LIG-0.65  OA
ENDBRANCH 5 6
BRANCH 5 9
ATOM      9  CB  LYS E1323      36.320  40.671  -6.501  1.00 34.48 LIG 0.04  C 
BRANCH 9 10
ATOM     10  CG  LYS E1323      35.151  39.971  -5.903  1.00 39.74 LIG 0.00  C 
BRANCH 10 11
ATOM     11  CD  LYS E1323      33.946  40.450  -6.649  1.00 52.87 LIG 0.03  C 
BRANCH 11 12
ATOM     12  CE  LYS E1323      33.960  41.945  -6.796  1.00 74.69 LIG 0.23  C 
BRANCH 12 13
ATOM     13  NZ  LYS E1323      33.955  42.610  -5.490  1.00 65.28 LIG-0.08  N 
ATOM     14 HZ1  LYS E1323      33.115  42.739  -5.225  1.00 65.28 LIG 0.27  HD
ATOM     15 HZ2  LYS E1323      34.379  42.100  -4.896  1.00 65.28 LIG 0.27  HD
ATOM     16 HZ3  LYS E1323      34.369  43.395  -5.555  1.00 65.28 LIG 0.27  HD
ENDBRANCH 12 13
ENDBRANCH 11 12
ENDBRANCH 10 11
ENDBRANCH 9 10
ENDBRANCH 5 9
ENDBRANCH 3 5
BRANCH 1 17
ATOM     17  CA  VAL E1322      37.569  39.990  -1.765  1.00 27.04 LIG 0.28  C 
BRANCH 17 18
ATOM     18  N   VAL E1322      36.210  40.365  -1.337  1.00 24.29 LIG-0.07  N 
ATOM     19 H1   VAL E1322      35.773  39.639  -1.066  1.00 24.29 LIG 0.28  HD
ATOM     20 H2   VAL E1322      36.260  40.948  -0.666  1.00 24.29 LIG 0.28  HD
ATOM     21 H3   VAL E1322      35.775  40.734  -2.020  1.00 24.29 LIG 0.28  HD
ENDBRANCH 17 18
BRANCH 17 22
ATOM     22  CB  VAL E1322      37.946  38.500  -1.807  1.00 26.94 LIG 0.02  C 
ATOM     23  CG1 VAL E1322      38.085  37.991  -3.257  1.00 31.09 LIG 0.01  C 
ATOM     24  CG2 VAL E1322      39.208  38.206  -0.889  1.00 18.44 LIG 0.01  C 
ENDBRANCH 17 22
ENDBRANCH 1 17
TORSDOF 10
ENDMDL
MODEL 17
USER: ADFR SOLUTION from run 94
USER: SCORE 12.641370 LL:  -1.047 LR: -11.594 RR:   0.000 FEB:  -8.611
USER: RMSD 6.008541
USER: SEED 93
USER: STATUS no improvement in best 5 clusters for 5 generations
USER: GENES 12
USER: genes 0 Translation |==|  0.42922 0.49256 0.36079
USER: genes 1 Rotation |==|  0.03788 0.48333 0.30993 0.50659
USER: genes 2 Torsion [C]-N--CA-[C] |==|  0.34524
USER: genes 3 Torsion [N]-CA--C-[O] |==|  0.16545
USER: genes 4 Torsion [N]-CA--CB-[CG] |==|  0.52873
USER: genes 5 Torsion [CA]-CB--CG-[CD] |==|  0.37793
USER: genes 6 Torsion [CB]-CG--CD-[CE] |==|  0.68092
USER: genes 7 Torsion [CG]-CD--CE-[NZ] |==|  0.11191
USER: genes 8 Torsion [CD]-CE--NZ-[HZ2] |==|  0.86399
USER: genes 9 Torsion [N]-C--CA-[N] |==|  0.47006
USER: genes 10 Torsion [C]-CA--N-[H1] |==|  0.67334
USER: genes 11 Torsion [C]-CA--CB-[CG1] |==|  0.87699
ROOT
ATOM      1  C   VAL E1322      35.586  39.387  -6.666  1.00 68.39 LIG 0.25  C 
ATOM      2 O    VAL E1322      36.336  38.893  -5.865  1.00 21.34 LIG-0.27  OA
ATOM      3  N   LYS E1323      35.296  40.703  -6.631  1.00 24.29 LIG-0.34  N 
ATOM      4 H    LYS E1323      34.744  41.061  -7.184  1.00 24.29 LIG 0.16  HD
ENDROOT
BRANCH 3 5
ATOM      5  CA  LYS E1323      35.879  41.726  -5.638  1.00 35.31 LIG 0.18  C 
BRANCH 5 6
ATOM      6  C   LYS E1323      36.598  42.985  -6.230  1.00 31.13 LIG 0.20  C 
ATOM      7 O    LYS E1323      35.835  43.723  -6.989  1.00 27.62 LIG-0.65  OA
ATOM      8 OXT  LYS E1323      37.815  43.205  -5.868  1.00100.00 LIG-0.65  OA
ENDBRANCH 5 6
BRANCH 5 9
ATOM      9  CB  LYS E1323      36.744  41.073  -4.592  1.00 34.48 LIG 0.04  C 
BRANCH 9 10
ATOM     10  CG  LYS E1323      37.124  41.987  -3.482  1.00 39.74 LIG 0.00  C 
BRANCH 10 11
ATOM     11  CD  LYS E1323      36.948  41.208  -2.217  1.00 52.87 LIG 0.03  C 
BRANCH 11 12
ATOM     12  CE  LYS E1323      35.859  41.795  -1.366  1.00 74.69 LIG 0.23  C 
BRANCH 12 13
ATOM     13  NZ  LYS E1323      34.718  42.225  -2.180  1.00 65.28 LIG-0.08  N 
ATOM     14 HZ1  LYS E1323      34.162  42.708  -1.681  1.00 65.28 LIG 0.27  HD
ATOM     15 HZ2  LYS E1323      35.010  42.717  -2.862  1.00 65.28 LIG 0.27  HD
ATOM     16 HZ3  LYS E1323      34.291  41.510  -2.493  1.00 65.28 LIG 0.27  HD
ENDBRANCH 12 13
ENDBRANCH 11 12
ENDBRANCH 10 11
ENDBRANCH 9 10
ENDBRANCH 5 9
ENDBRANCH 3 5
BRANCH 1 17
ATOM     17  CA  VAL E1322      34.968  38.517  -7.755  1.00 27.04 LIG 0.28  C 
BRANCH 17 18
ATOM     18  N   VAL E1322      35.593  37.184  -7.789  1.00 24.29 LIG-0.07  N 
ATOM     19 H1   VAL E1322      35.991  37.062  -8.575  1.00 24.29 LIG 0.28  HD
ATOM     20 H2   VAL E1322      36.198  37.122  -7.138  1.00 24.29 LIG 0.28  HD
ATOM     21 H3   VAL E1322      34.969  36.560  -7.673  1.00 24.29 LIG 0.28  HD
ENDBRANCH 17 18
BRANCH 17 22
ATOM     22  CB  VAL E1322      33.435  38.614  -7.692  1.00 26.94 LIG 0.02  C 
ATOM     23  CG1 VAL E1322      32.920  38.520  -6.241  1.00 31.09 LIG 0.01  C 
ATOM     24  CG2 VAL E1322      32.912  39.885  -8.489  1.00 18.44 LIG 0.01  C 
ENDBRANCH 17 22
ENDBRANCH 1 17
TORSDOF 10
ENDMDL
MODEL 18
USER: ADFR SOLUTION from run 63
USER: SCORE 12.669031 LL:  -1.175 LR: -11.494 RR:   0.000 FEB:  -8.511
USER: RMSD 6.647592
USER: SEED 62
USER: STATUS no improvement in best 8 clusters for 5 generations
USER: GENES 12
USER: genes 0 Translation |==|  0.44876 0.48491 0.33022
USER: genes 1 Rotation |==|  0.82947 0.47248 0.87496 0.50986
USER: genes 2 Torsion [C]-N--CA-[C] |==|  0.47839
USER: genes 3 Torsion [N]-CA--C-[O] |==|  0.77987
USER: genes 4 Torsion [N]-CA--CB-[CG] |==|  0.44206
USER: genes 5 Torsion [CA]-CB--CG-[CD] |==|  0.45520
USER: genes 6 Torsion [CB]-CG--CD-[CE] |==|  0.64586
USER: genes 7 Torsion [CG]-CD--CE-[NZ] |==|  0.09934
USER: genes 8 Torsion [CD]-CE--NZ-[HZ2] |==|  0.20566
USER: genes 9 Torsion [N]-C--CA-[N] |==|  0.98566
USER: genes 10 Torsion [C]-CA--N-[H1] |==|  0.40424
USER: genes 11 Torsion [C]-CA--CB-[CG1] |==|  0.20653
ROOT
ATOM      1  C   VAL E1322      36.173  39.157  -7.584  1.00 68.39 LIG 0.25  C 
ATOM      2 O    VAL E1322      35.910  38.575  -6.564  1.00 21.34 LIG-0.27  OA
ATOM      3  N   LYS E1323      36.162  40.505  -7.641  1.00 24.29 LIG-0.34  N 
ATOM      4 H    LYS E1323      36.326  40.929  -8.370  1.00 24.29 LIG 0.16  HD
ENDROOT
BRANCH 3 5
ATOM      5  CA  LYS E1323      35.868  41.452  -6.462  1.00 35.31 LIG 0.18  C 
BRANCH 5 6
ATOM      6  C   LYS E1323      36.087  42.985  -6.690  1.00 31.13 LIG 0.20  C 
ATOM      7 O    LYS E1323      37.335  43.360  -6.615  1.00 27.62 LIG-0.65  OA
ATOM      8 OXT  LYS E1323      35.057  43.700  -6.988  1.00100.00 LIG-0.65  OA
ENDBRANCH 5 6
BRANCH 5 9
ATOM      9  CB  LYS E1323      36.547  41.008  -5.194  1.00 34.48 LIG 0.04  C 
BRANCH 9 10
ATOM     10  CG  LYS E1323      36.707  42.099  -4.195  1.00 39.74 LIG 0.00  C 
BRANCH 10 11
ATOM     11  CD  LYS E1323      37.012  41.433  -2.890  1.00 52.87 LIG 0.03  C 
BRANCH 11 12
ATOM     12  CE  LYS E1323      36.080  41.905  -1.811  1.00 74.69 LIG 0.23  C 
BRANCH 12 13
ATOM     13  NZ  LYS E1323      34.734  42.147  -2.336  1.00 65.28 LIG-0.08  N 
ATOM     14 HZ1  LYS E1323      34.790  42.610  -3.094  1.00 65.28 LIG 0.27  HD
ATOM     15 HZ2  LYS E1323      34.332  41.369  -2.492  1.00 65.28 LIG 0.27  HD
ATOM     16 HZ3  LYS E1323      34.262  42.610  -1.741  1.00 65.28 LIG 0.27  HD
ENDBRANCH 12 13
ENDBRANCH 11 12
ENDBRANCH 10 11
ENDBRANCH 9 10
ENDBRANCH 5 9
ENDBRANCH 3 5
BRANCH 1 17
ATOM     17  CA  VAL E1322      36.544  38.362  -8.830  1.00 27.04 LIG 0.28  C 
BRANCH 17 18
ATOM     18  N   VAL E1322      36.729  39.250  -9.991  1.00 24.29 LIG-0.07  N 
ATOM     19 H1   VAL E1322      37.373  38.927 -10.513  1.00 24.29 LIG 0.28  HD
ATOM     20 H2   VAL E1322      35.969  39.297 -10.453  1.00 24.29 LIG 0.28  HD
ATOM     21 H3   VAL E1322      36.955  40.064  -9.710  1.00 24.29 LIG 0.28  HD
ENDBRANCH 17 18
BRANCH 17 22
ATOM     22  CB  VAL E1322      37.648  37.348  -8.492  1.00 26.94 LIG 0.02  C 
ATOM     23  CG1 VAL E1322      37.095  36.154  -7.687  1.00 31.09 LIG 0.01  C 
ATOM     24  CG2 VAL E1322      38.460  36.936  -9.794  1.00 18.44 LIG 0.01  C 
ENDBRANCH 17 22
ENDBRANCH 1 17
TORSDOF 10
ENDMDL
MODEL 19
USER: ADFR SOLUTION from run 39
USER: SCORE 12.722175 LL:  -1.436 LR: -11.286 RR:   0.000 FEB:  -8.303
USER: RMSD 7.477602
USER: SEED 38
USER: STATUS no improvement in best 10 clusters for 5 generations
USER: GENES 12
USER: genes 0 Translation |==|  0.43868 0.49294 0.28510
USER: genes 1 Rotation |==|  0.13924 0.55423 0.15904 0.52562
USER: genes 2 Torsion [C]-N--CA-[C] |==|  0.46918
USER: genes 3 Torsion [N]-CA--C-[O] |==|  0.67229
USER: genes 4 Torsion [N]-CA--CB-[CG] |==|  0.58497
USER: genes 5 Torsion [CA]-CB--CG-[CD] |==|  0.64973
USER: genes 6 Torsion [CB]-CG--CD-[CE] |==|  0.45062
USER: genes 7 Torsion [CG]-CD--CE-[NZ] |==|  0.95211
USER: genes 8 Torsion [CD]-CE--NZ-[HZ2] |==|  0.51160
USER: genes 9 Torsion [N]-C--CA-[N] |==|  0.27991
USER: genes 10 Torsion [C]-CA--N-[H1] |==|  0.55995
USER: genes 11 Torsion [C]-CA--CB-[CG1] |==|  0.15909
ROOT
ATOM      1  C   VAL E1322      35.870  39.398  -8.937  1.00 68.39 LIG 0.25  C 
ATOM      2 O    VAL E1322      35.805  38.630  -8.014  1.00 21.34 LIG-0.27  OA
ATOM      3  N   LYS E1323      35.818  40.732  -8.740  1.00 24.29 LIG-0.34  N 
ATOM      4 H    LYS E1323      35.840  41.288  -9.395  1.00 24.29 LIG 0.16  HD
ENDROOT
BRANCH 3 5
ATOM      5  CA  LYS E1323      35.712  41.435  -7.374  1.00 35.31 LIG 0.18  C 
BRANCH 5 6
ATOM      6  C   LYS E1323      35.930  42.985  -7.336  1.00 31.13 LIG 0.20  C 
ATOM      7 O    LYS E1323      36.951  43.360  -6.614  1.00 27.62 LIG-0.65  OA
ATOM      8 OXT  LYS E1323      35.149  43.717  -8.053  1.00100.00 LIG-0.65  OA
ENDBRANCH 5 6
BRANCH 5 9
ATOM      9  CB  LYS E1323      36.554  40.762  -6.323  1.00 34.48 LIG 0.04  C 
BRANCH 9 10
ATOM     10  CG  LYS E1323      35.995  40.882  -4.950  1.00 39.74 LIG 0.00  C 
BRANCH 10 11
ATOM     11  CD  LYS E1323      37.084  41.459  -4.101  1.00 52.87 LIG 0.03  C 
BRANCH 11 12
ATOM     12  CE  LYS E1323      36.532  42.024  -2.823  1.00 74.69 LIG 0.23  C 
BRANCH 12 13
ATOM     13  NZ  LYS E1323      35.085  42.235  -2.913  1.00 65.28 LIG-0.08  N 
ATOM     14 HZ1  LYS E1323      34.677  41.451  -3.017  1.00 65.28 LIG 0.27  HD
ATOM     15 HZ2  LYS E1323      34.795  42.625  -2.168  1.00 65.28 LIG 0.27  HD
ATOM     16 HZ3  LYS E1323      34.904  42.757  -3.611  1.00 65.28 LIG 0.27  HD
ENDBRANCH 12 13
ENDBRANCH 11 12
ENDBRANCH 10 11
ENDBRANCH 9 10
ENDBRANCH 5 9
ENDBRANCH 3 5
BRANCH 1 17
ATOM     17  CA  VAL E1322      36.036  38.861 -10.354  1.00 27.04 LIG 0.28  C 
BRANCH 17 18
ATOM     18  N   VAL E1322      37.431  38.465 -10.612  1.00 24.29 LIG-0.07  N 
ATOM     19 H1   VAL E1322      37.580  38.456 -11.490  1.00 24.29 LIG 0.28  HD
ATOM     20 H2   VAL E1322      37.982  39.047 -10.224  1.00 24.29 LIG 0.28  HD
ATOM     21 H3   VAL E1322      37.576  37.653 -10.280  1.00 24.29 LIG 0.28  HD
ENDBRANCH 17 18
BRANCH 17 22
ATOM     22  CB  VAL E1322      34.913  37.859 -10.666  1.00 26.94 LIG 0.02  C 
ATOM     23  CG1 VAL E1322      33.519  38.496 -10.493  1.00 31.09 LIG 0.01  C 
ATOM     24  CG2 VAL E1322      35.144  37.167 -12.077  1.00 18.44 LIG 0.01  C 
ENDBRANCH 17 22
ENDBRANCH 1 17
TORSDOF 10
ENDMDL
MODEL 20
USER: ADFR SOLUTION from run 98
USER: SCORE 12.605002 LL:  -1.346 LR: -11.259 RR:   0.000 FEB:  -8.276
USER: RMSD 5.677776
USER: SEED 97
USER: STATUS no improvement in best 7 clusters for 5 generations
USER: GENES 12
USER: genes 0 Translation |==|  0.42483 0.56291 0.35584
USER: genes 1 Rotation |==|  0.43912 0.24881 0.78414 0.82010
USER: genes 2 Torsion [C]-N--CA-[C] |==|  0.84019
USER: genes 3 Torsion [N]-CA--C-[O] |==|  0.05251
USER: genes 4 Torsion [N]-CA--CB-[CG] |==|  0.56658
USER: genes 5 Torsion [CA]-CB--CG-[CD] |==|  0.22117
USER: genes 6 Torsion [CB]-CG--CD-[CE] |==|  0.72489
USER: genes 7 Torsion [CG]-CD--CE-[NZ] |==|  0.29636
USER: genes 8 Torsion [CD]-CE--NZ-[HZ2] |==|  0.30915
USER: genes 9 Torsion [N]-C--CA-[N] |==|  0.74774
USER: genes 10 Torsion [C]-CA--N-[H1] |==|  0.45711
USER: genes 11 Torsion [C]-CA--CB-[CG1] |==|  0.31293
ROOT
ATOM      1  C   VAL E1322      35.455  41.497  -6.815  1.00 68.39 LIG 0.25  C 
ATOM      2 O    VAL E1322      35.016  42.612  -6.704  1.00 21.34 LIG-0.27  OA
ATOM      3  N   LYS E1323      36.408  41.036  -5.979  1.00 24.29 LIG-0.34  N 
ATOM      4 H    LYS E1323      36.744  40.250  -6.064  1.00 24.29 LIG 0.16  HD
ENDROOT
BRANCH 3 5
ATOM      5  CA  LYS E1323      37.015  41.811  -4.794  1.00 35.31 LIG 0.18  C 
BRANCH 5 6
ATOM      6  C   LYS E1323      37.693  43.189  -5.099  1.00 31.13 LIG 0.20  C 
ATOM      7 O    LYS E1323      37.339  43.715  -6.240  1.00 27.62 LIG-0.65  OA
ATOM      8 OXT  LYS E1323      38.459  43.693  -4.193  1.00100.00 LIG-0.65  OA
ENDBRANCH 5 6
BRANCH 5 9
ATOM      9  CB  LYS E1323      37.928  40.951  -3.961  1.00 34.48 LIG 0.04  C 
BRANCH 9 10
ATOM     10  CG  LYS E1323      38.080  41.432  -2.562  1.00 39.74 LIG 0.00  C 
BRANCH 10 11
ATOM     11  CD  LYS E1323      36.861  40.975  -1.824  1.00 52.87 LIG 0.03  C 
BRANCH 11 12
ATOM     12  CE  LYS E1323      35.852  42.082  -1.708  1.00 74.69 LIG 0.23  C 
BRANCH 12 13
ATOM     13  NZ  LYS E1323      34.711  41.860  -2.600  1.00 65.28 LIG-0.08  N 
ATOM     14 HZ1  LYS E1323      34.885  41.174  -3.140  1.00 65.28 LIG 0.27  HD
ATOM     15 HZ2  LYS E1323      33.987  41.681  -2.115  1.00 65.28 LIG 0.27  HD
ATOM     16 HZ3  LYS E1323      34.568  42.591  -3.086  1.00 65.28 LIG 0.27  HD
ENDBRANCH 12 13
ENDBRANCH 11 12
ENDBRANCH 10 11
ENDBRANCH 9 10
ENDBRANCH 5 9
ENDBRANCH 3 5
BRANCH 1 17
ATOM     17  CA  VAL E1322      34.914  40.580  -7.905  1.00 27.04 LIG 0.28  C 
BRANCH 17 18
ATOM     18  N   VAL E1322      35.686  40.723  -9.152  1.00 24.29 LIG-0.07  N 
ATOM     19 H1   VAL E1322      35.509  40.038  -9.691  1.00 24.29 LIG 0.28  HD
ATOM     20 H2   VAL E1322      35.460  41.484  -9.555  1.00 24.29 LIG 0.28  HD
ATOM     21 H3   VAL E1322      36.556  40.734  -8.963  1.00 24.29 LIG 0.28  HD
ENDBRANCH 17 18
BRANCH 17 22
ATOM     22  CB  VAL E1322      34.685  39.171  -7.335  1.00 26.94 LIG 0.02  C 
ATOM     23  CG1 VAL E1322      33.185  38.815  -7.287  1.00 31.09 LIG 0.01  C 
ATOM     24  CG2 VAL E1322      35.586  38.100  -8.086  1.00 18.44 LIG 0.01  C 
ENDBRANCH 17 22
ENDBRANCH 1 17
TORSDOF 10
ENDMDL
