MODEL 1
USER: ADFR SOLUTION from run 40
USER: SCORE 11.574514 LL:  -2.046 LR:  -9.836 RR:   0.000 FEB:  -6.256
USER: RMSD 2.915138
USER: SEED 39
USER: STATUS no improvement in best in 7 clusters for 5 generations
USER: GENES 14
USER: genes 0 Translation |==|  0.50144 0.54546 0.59921
USER: genes 1 Rotation |==|  0.40080 0.59989 0.40315 0.96989
USER: genes 2 Torsion [C]-CA--N-[C] |==|  0.60000
USER: genes 3 Torsion [N]-C--CA-[N] |==|  0.35526
USER: genes 4 Torsion [C]-CA--CB-[CG] |==|  0.43848
USER: genes 5 Torsion [CA]-CB--CG-[CD] |==|  0.88775
USER: genes 6 Torsion [CB]-CG--CD-[OE1] |==|  0.18962
USER: genes 7 Torsion [N]-CA--C-[N] |==|  0.34202
USER: genes 8 Torsion [C]-N--CA-[CB] |==|  0.46926
USER: genes 9 Torsion [N]-CA--CB-[CG] |==|  0.67817
USER: genes 10 Torsion [CA]-CB--CG-[CD1] |==|  0.21827
USER: genes 11 Torsion [N]-CA--C-[O] |==|  0.29870
USER: genes 12 Torsion [N]-CA--CB-[CG] |==|  0.95581
USER: genes 13 Torsion [CA]-CB--CG-[OD2] |==|  0.26730
ROOT
ATOM      1  CA  ASP C 507       9.249  25.918   6.399  1.00 33.68 LIG 0.19  C 
ENDROOT
BRANCH 1 2
ATOM      2  N   ASP C 507       7.837  26.232   6.576  1.00 35.05 LIG-0.34  N 
ATOM      3  C   GLU C 506       7.288  27.331   6.075  1.00 36.98 LIG 0.26  C 
ATOM      4 O    GLU C 506       7.934  28.190   5.463  1.00 35.33 LIG-0.27  OA
ATOM      5 H    ASP C 507       7.401  25.646   7.029  1.00 35.05 LIG 0.16  HD
BRANCH 3 6
ATOM      6  CA  GLU C 506       5.797  27.517   6.352  1.00 38.62 LIG 0.40  C 
ATOM      7  N   GLU C 506       5.544  28.861   6.938  1.00 38.98 LIG 0.61  N 
BRANCH 6 8
ATOM      8  CB  GLU C 506       4.976  27.324   5.075  1.00 41.41 LIG 0.06  C 
BRANCH 8 9
ATOM      9  CG  GLU C 506       3.524  26.965   5.324  1.00 54.63 LIG 0.12  C 
BRANCH 9 10
ATOM     10  CD  GLU C 506       3.342  25.982   6.464  1.00 71.07 LIG 0.17  C 
ATOM     11 OE1  GLU C 506       3.593  26.361   7.631  1.00 74.77 LIG-0.65  OA
ATOM     12 OE2  GLU C 506       2.931  24.832   6.188  1.00 73.38 LIG-0.65  OA
ENDBRANCH 9 10
ENDBRANCH 8 9
ENDBRANCH 6 8
ENDBRANCH 3 6
ENDBRANCH 1 2
BRANCH 1 13
ATOM     13  C   ASP C 507       9.401  24.416   6.236  1.00 33.47 LIG 0.24  C 
ATOM     14 O    ASP C 507       8.944  23.640   7.078  1.00 34.83 LIG-0.27  OA
ATOM     15  N   LEU C 508      10.004  24.019   5.119  1.00 31.65 LIG-0.34  N 
ATOM     16 H    LEU C 508      10.314  24.561   4.526  1.00 31.65 LIG 0.16  HD
BRANCH 15 17
ATOM     17  CA  LEU C 508      10.195  22.613   4.798  1.00 32.20 LIG 0.18  C 
BRANCH 17 18
ATOM     18  CB  LEU C 508      10.657  22.488   3.353  1.00 32.28 LIG 0.04  C 
BRANCH 18 19
ATOM     19  CG  LEU C 508       9.599  21.743   2.547  1.00 33.09 LIG-0.02  C 
ATOM     20  CD1 LEU C 508       8.467  22.662   2.200  1.00 32.61 LIG 0.01  C 
ATOM     21  CD2 LEU C 508      10.240  21.112   1.319  1.00 34.13 LIG 0.01  C 
ENDBRANCH 18 19
ENDBRANCH 17 18
BRANCH 17 22
ATOM     22  C   LEU C 508      11.177  21.919   5.724  1.00 33.63 LIG 0.20  C 
ATOM     23 O    LEU C 508      10.724  21.111   6.563  0.50 32.81 LIG-0.65  OA
ATOM     24 OXT  LEU C 508      12.389  22.190   5.603  0.50 35.17 LIG-0.65  OA
ENDBRANCH 17 22
ENDBRANCH 15 17
ENDBRANCH 1 13
BRANCH 1 25
ATOM     25  CB  ASP C 507      10.046  26.433   7.595  1.00 31.02 LIG 0.15  C 
BRANCH 25 26
ATOM     26  CG  ASP C 507       9.257  27.433   8.414  1.00 34.22 LIG 0.17  C 
ATOM     27 OD2  ASP C 507       8.636  27.043   9.429  1.00 32.29 LIG-0.65  OA
ATOM     28 OD1  ASP C 507       9.224  28.611   8.011  1.00 33.73 LIG-0.65  OA
ENDBRANCH 25 26
ENDBRANCH 1 25
TORSDOF 12
ENDMDL
MODEL 2
USER: ADFR SOLUTION from run 129
USER: SCORE 11.905618 LL:  -2.280 LR:  -9.744 RR:   0.000 FEB:  -6.165
USER: RMSD 5.917024
USER: SEED 128
USER: STATUS no improvement in best in 7 clusters for 5 generations
USER: GENES 14
USER: genes 0 Translation |==|  0.33412 0.60891 0.51734
USER: genes 1 Rotation |==|  0.05055 0.69812 0.52773 0.58932
USER: genes 2 Torsion [C]-CA--N-[C] |==|  0.73976
USER: genes 3 Torsion [N]-C--CA-[N] |==|  0.92494
USER: genes 4 Torsion [C]-CA--CB-[CG] |==|  0.60743
USER: genes 5 Torsion [CA]-CB--CG-[CD] |==|  0.76930
USER: genes 6 Torsion [CB]-CG--CD-[OE1] |==|  0.89683
USER: genes 7 Torsion [N]-CA--C-[N] |==|  0.33707
USER: genes 8 Torsion [C]-N--CA-[CB] |==|  0.23207
USER: genes 9 Torsion [N]-CA--CB-[CG] |==|  0.03200
USER: genes 10 Torsion [CA]-CB--CG-[CD1] |==|  0.28084
USER: genes 11 Torsion [N]-CA--C-[O] |==|  0.57647
USER: genes 12 Torsion [N]-CA--CB-[CG] |==|  0.80577
USER: genes 13 Torsion [CA]-CB--CG-[OD2] |==|  0.03756
ROOT
ATOM      1  CA  ASP C 507       6.363  26.870   4.987  1.00 33.68 LIG 0.19  C 
ENDROOT
BRANCH 1 2
ATOM      2  N   ASP C 507       5.563  27.818   5.750  1.00 35.05 LIG-0.34  N 
ATOM      3  C   GLU C 506       4.794  27.441   6.765  1.00 36.98 LIG 0.26  C 
ATOM      4 O    GLU C 506       4.662  26.262   7.110  1.00 35.33 LIG-0.27  OA
ATOM      5 H    ASP C 507       5.635  28.633   5.485  1.00 35.05 LIG 0.16  HD
BRANCH 3 6
ATOM      6  CA  GLU C 506       4.014  28.556   7.460  1.00 38.62 LIG 0.40  C 
ATOM      7  N   GLU C 506       4.726  29.854   7.313  1.00 38.98 LIG 0.61  N 
BRANCH 6 8
ATOM      8  CB  GLU C 506       2.592  28.657   6.903  1.00 41.41 LIG 0.06  C 
BRANCH 8 9
ATOM      9  CG  GLU C 506       2.085  30.078   6.758  1.00 54.63 LIG 0.12  C 
BRANCH 9 10
ATOM     10  CD  GLU C 506       1.526  30.644   8.049  1.00 71.07 LIG 0.17  C 
ATOM     11 OE1  GLU C 506       0.883  29.885   8.810  1.00 74.77 LIG-0.65  OA
ATOM     12 OE2  GLU C 506       1.745  31.850   8.306  1.00 73.38 LIG-0.65  OA
ENDBRANCH 9 10
ENDBRANCH 8 9
ENDBRANCH 6 8
ENDBRANCH 3 6
ENDBRANCH 1 2
BRANCH 1 13
ATOM     13  C   ASP C 507       7.759  26.817   5.581  1.00 33.47 LIG 0.24  C 
ATOM     14 O    ASP C 507       8.438  27.840   5.691  1.00 34.83 LIG-0.27  OA
ATOM     15  N   LEU C 508       8.157  25.620   6.004  1.00 31.65 LIG-0.34  N 
ATOM     16 H    LEU C 508       7.680  24.907   5.935  1.00 31.65 LIG 0.16  HD
BRANCH 15 17
ATOM     17  CA  LEU C 508       9.454  25.410   6.628  1.00 32.20 LIG 0.18  C 
BRANCH 17 18
ATOM     18  CB  LEU C 508       9.360  25.757   8.107  1.00 32.28 LIG 0.04  C 
BRANCH 18 19
ATOM     19  CG  LEU C 508       7.895  25.928   8.493  1.00 33.09 LIG-0.02  C 
ATOM     20  CD1 LEU C 508       7.393  24.699   9.190  1.00 32.61 LIG 0.01  C 
ATOM     21  CD2 LEU C 508       7.728  27.186   9.332  1.00 34.13 LIG 0.01  C 
ENDBRANCH 18 19
ENDBRANCH 17 18
BRANCH 17 22
ATOM     22  C   LEU C 508       9.977  23.996   6.455  1.00 33.63 LIG 0.20  C 
ATOM     23 O    LEU C 508      10.753  23.545   7.324  0.50 32.81 LIG-0.65  OA
ATOM     24 OXT  LEU C 508       9.607  23.353   5.451  0.50 35.17 LIG-0.65  OA
ENDBRANCH 17 22
ENDBRANCH 15 17
ENDBRANCH 1 13
BRANCH 1 25
ATOM     25  CB  ASP C 507       6.395  27.286   3.519  1.00 31.02 LIG 0.15  C 
BRANCH 25 26
ATOM     26  CG  ASP C 507       5.051  27.097   2.845  1.00 34.22 LIG 0.17  C 
ATOM     27 OD2  ASP C 507       4.036  26.892   3.548  1.00 32.29 LIG-0.65  OA
ATOM     28 OD1  ASP C 507       5.023  27.111   1.601  1.00 33.73 LIG-0.65  OA
ENDBRANCH 25 26
ENDBRANCH 1 25
TORSDOF 12
ENDMDL
MODEL 3
USER: ADFR SOLUTION from run 115
USER: SCORE 11.883271 LL:  -2.338 LR:  -9.678 RR:   0.000 FEB:  -6.099
USER: RMSD 4.131074
USER: SEED 114
USER: STATUS no improvement in best in 5 clusters for 5 generations
USER: GENES 14
USER: genes 0 Translation |==|  0.53182 0.53937 0.61732
USER: genes 1 Rotation |==|  0.34438 0.58002 0.44189 0.96476
USER: genes 2 Torsion [C]-CA--N-[C] |==|  0.56242
USER: genes 3 Torsion [N]-C--CA-[N] |==|  0.29947
USER: genes 4 Torsion [C]-CA--CB-[CG] |==|  0.50354
USER: genes 5 Torsion [CA]-CB--CG-[CD] |==|  0.90615
USER: genes 6 Torsion [CB]-CG--CD-[OE1] |==|  0.22821
USER: genes 7 Torsion [N]-CA--C-[N] |==|  0.45158
USER: genes 8 Torsion [C]-N--CA-[CB] |==|  0.79682
USER: genes 9 Torsion [N]-CA--CB-[CG] |==|  0.83138
USER: genes 10 Torsion [CA]-CB--CG-[CD1] |==|  0.48919
USER: genes 11 Torsion [N]-CA--C-[O] |==|  0.66592
USER: genes 12 Torsion [N]-CA--CB-[CG] |==|  0.99877
USER: genes 13 Torsion [CA]-CB--CG-[OD2] |==|  0.20628
ROOT
ATOM      1  CA  ASP C 507       9.773  25.826   6.712  1.00 33.68 LIG 0.19  C 
ENDROOT
BRANCH 1 2
ATOM      2  N   ASP C 507       8.324  25.880   6.857  1.00 35.05 LIG-0.34  N 
ATOM      3  C   GLU C 506       7.601  26.882   6.372  1.00 36.98 LIG 0.26  C 
ATOM      4 O    GLU C 506       8.099  27.861   5.805  1.00 35.33 LIG-0.27  OA
ATOM      5 H    ASP C 507       7.988  25.211   7.280  1.00 35.05 LIG 0.16  HD
BRANCH 3 6
ATOM      6  CA  GLU C 506       6.095  26.793   6.612  1.00 38.62 LIG 0.40  C 
ATOM      7  N   GLU C 506       5.674  27.790   7.633  1.00 38.98 LIG 0.61  N 
BRANCH 6 8
ATOM      8  CB  GLU C 506       5.321  26.999   5.307  1.00 41.41 LIG 0.06  C 
BRANCH 8 9
ATOM      9  CG  GLU C 506       3.814  26.954   5.470  1.00 54.63 LIG 0.12  C 
BRANCH 9 10
ATOM     10  CD  GLU C 506       3.361  25.986   6.545  1.00 71.07 LIG 0.17  C 
ATOM     11 OE1  GLU C 506       3.381  26.361   7.740  1.00 74.77 LIG-0.65  OA
ATOM     12 OE2  GLU C 506       2.971  24.852   6.187  1.00 73.38 LIG-0.65  OA
ENDBRANCH 9 10
ENDBRANCH 8 9
ENDBRANCH 6 8
ENDBRANCH 3 6
ENDBRANCH 1 2
BRANCH 1 13
ATOM     13  C   ASP C 507      10.226  24.383   6.845  1.00 33.47 LIG 0.24  C 
ATOM     14 O    ASP C 507       9.473  23.526   7.312  1.00 34.83 LIG-0.27  OA
ATOM     15  N   LEU C 508      11.446  24.121   6.386  1.00 31.65 LIG-0.34  N 
ATOM     16 H    LEU C 508      11.969  24.717   6.052  1.00 31.65 LIG 0.16  HD
BRANCH 15 17
ATOM     17  CA  LEU C 508      12.012  22.780   6.410  1.00 32.20 LIG 0.18  C 
BRANCH 17 18
ATOM     18  CB  LEU C 508      12.379  22.418   7.842  1.00 32.28 LIG 0.04  C 
BRANCH 18 19
ATOM     19  CG  LEU C 508      13.416  23.407   8.363  1.00 33.09 LIG-0.02  C 
ATOM     20  CD1 LEU C 508      13.724  23.128   9.803  1.00 32.61 LIG 0.01  C 
ATOM     21  CD2 LEU C 508      14.654  23.364   7.480  1.00 34.13 LIG 0.01  C 
ENDBRANCH 18 19
ENDBRANCH 17 18
BRANCH 17 22
ATOM     22  C   LEU C 508      11.083  21.731   5.826  1.00 33.63 LIG 0.20  C 
ATOM     23 O    LEU C 508      10.725  20.788   6.563  0.50 32.81 LIG-0.65  OA
ATOM     24 OXT  LEU C 508      10.724  21.862   4.638  0.50 35.17 LIG-0.65  OA
ENDBRANCH 17 22
ENDBRANCH 15 17
ENDBRANCH 1 13
BRANCH 1 25
ATOM     25  CB  ASP C 507      10.430  26.718   7.762  1.00 31.02 LIG 0.15  C 
BRANCH 25 26
ATOM     26  CG  ASP C 507       9.408  27.407   8.642  1.00 34.22 LIG 0.17  C 
ATOM     27 OD2  ASP C 507       8.804  26.745   9.517  1.00 32.29 LIG-0.65  OA
ATOM     28 OD1  ASP C 507       9.177  28.611   8.424  1.00 33.73 LIG-0.65  OA
ENDBRANCH 25 26
ENDBRANCH 1 25
TORSDOF 12
ENDMDL
MODEL 4
USER: ADFR SOLUTION from run 72
USER: SCORE 11.590369 LL:  -2.194 LR:  -9.650 RR:   0.000 FEB:  -6.070
USER: RMSD 4.997930
USER: SEED 71
USER: STATUS no improvement in best in 5 clusters for 5 generations
USER: GENES 14
USER: genes 0 Translation |==|  0.40255 0.51720 0.45548
USER: genes 1 Rotation |==|  0.10513 0.71826 0.58179 0.69938
USER: genes 2 Torsion [C]-CA--N-[C] |==|  0.18333
USER: genes 3 Torsion [N]-C--CA-[N] |==|  0.63456
USER: genes 4 Torsion [C]-CA--CB-[CG] |==|  0.59518
USER: genes 5 Torsion [CA]-CB--CG-[CD] |==|  0.48600
USER: genes 6 Torsion [CB]-CG--CD-[OE1] |==|  0.98871
USER: genes 7 Torsion [N]-CA--C-[N] |==|  0.12205
USER: genes 8 Torsion [C]-N--CA-[CB] |==|  0.37316
USER: genes 9 Torsion [N]-CA--CB-[CG] |==|  0.93133
USER: genes 10 Torsion [CA]-CB--CG-[CD1] |==|  0.34952
USER: genes 11 Torsion [N]-CA--C-[O] |==|  0.64953
USER: genes 12 Torsion [N]-CA--CB-[CG] |==|  0.81782
USER: genes 13 Torsion [CA]-CB--CG-[OD2] |==|  0.14486
ROOT
ATOM      1  CA  ASP C 507       7.543  25.494   3.920  1.00 33.68 LIG 0.19  C 
ENDROOT
BRANCH 1 2
ATOM      2  N   ASP C 507       6.901  26.026   5.115  1.00 35.05 LIG-0.34  N 
ATOM      3  C   GLU C 506       7.360  27.100   5.746  1.00 36.98 LIG 0.26  C 
ATOM      4 O    GLU C 506       8.384  27.700   5.401  1.00 35.33 LIG-0.27  OA
ATOM      5 H    ASP C 507       6.208  25.585   5.367  1.00 35.05 LIG 0.16  HD
BRANCH 3 6
ATOM      6  CA  GLU C 506       6.578  27.529   6.986  1.00 38.62 LIG 0.40  C 
ATOM      7  N   GLU C 506       6.291  28.988   6.938  1.00 38.98 LIG 0.61  N 
BRANCH 6 8
ATOM      8  CB  GLU C 506       5.279  26.729   7.116  1.00 41.41 LIG 0.06  C 
BRANCH 8 9
ATOM      9  CG  GLU C 506       4.125  27.518   7.703  1.00 54.63 LIG 0.12  C 
BRANCH 9 10
ATOM     10  CD  GLU C 506       2.820  26.747   7.710  1.00 71.07 LIG 0.17  C 
ATOM     11 OE1  GLU C 506       2.789  25.611   7.182  1.00 74.77 LIG-0.65  OA
ATOM     12 OE2  GLU C 506       1.827  27.276   8.259  1.00 73.38 LIG-0.65  OA
ENDBRANCH 9 10
ENDBRANCH 8 9
ENDBRANCH 6 8
ENDBRANCH 3 6
ENDBRANCH 1 2
BRANCH 1 13
ATOM     13  C   ASP C 507       8.920  24.974   4.293  1.00 33.47 LIG 0.24  C 
ATOM     14 O    ASP C 507       9.906  25.249   3.606  1.00 34.83 LIG-0.27  OA
ATOM     15  N   LEU C 508       8.978  24.260   5.414  1.00 31.65 LIG-0.34  N 
ATOM     16 H    LEU C 508       8.292  24.076   5.899  1.00 31.65 LIG 0.16  HD
BRANCH 15 17
ATOM     17  CA  LEU C 508      10.229  23.721   5.926  1.00 32.20 LIG 0.18  C 
BRANCH 17 18
ATOM     18  CB  LEU C 508      10.318  23.995   7.420  1.00 32.28 LIG 0.04  C 
BRANCH 18 19
ATOM     19  CG  LEU C 508       9.457  25.206   7.764  1.00 33.09 LIG-0.02  C 
ATOM     20  CD1 LEU C 508       8.484  24.861   8.851  1.00 32.61 LIG 0.01  C 
ATOM     21  CD2 LEU C 508      10.349  26.384   8.127  1.00 34.13 LIG 0.01  C 
ENDBRANCH 18 19
ENDBRANCH 17 18
BRANCH 17 22
ATOM     22  C   LEU C 508      10.393  22.237   5.655  1.00 33.63 LIG 0.20  C 
ATOM     23 O    LEU C 508      10.638  21.486   6.624  0.50 32.81 LIG-0.65  OA
ATOM     24 OXT  LEU C 508      10.276  21.839   4.478  0.50 35.17 LIG-0.65  OA
ENDBRANCH 17 22
ENDBRANCH 15 17
ENDBRANCH 1 13
BRANCH 1 25
ATOM     25  CB  ASP C 507       7.627  26.581   2.852  1.00 31.02 LIG 0.15  C 
BRANCH 25 26
ATOM     26  CG  ASP C 507       6.257  27.002   2.361  1.00 34.22 LIG 0.17  C 
ATOM     27 OD2  ASP C 507       5.384  27.338   3.192  1.00 32.29 LIG-0.65  OA
ATOM     28 OD1  ASP C 507       6.043  26.953   1.135  1.00 33.73 LIG-0.65  OA
ENDBRANCH 25 26
ENDBRANCH 1 25
TORSDOF 12
ENDMDL
MODEL 5
USER: ADFR SOLUTION from run 32
USER: SCORE 11.501900 LL:  -2.434 LR:  -9.628 RR:   0.000 FEB:  -6.048
USER: RMSD 5.243103
USER: SEED 31
USER: STATUS no improvement in best in 8 clusters for 5 generations
USER: GENES 14
USER: genes 0 Translation |==|  0.38767 0.50977 0.47389
USER: genes 1 Rotation |==|  0.09535 0.73983 0.59483 0.64054
USER: genes 2 Torsion [C]-CA--N-[C] |==|  0.18888
USER: genes 3 Torsion [N]-C--CA-[N] |==|  0.77861
USER: genes 4 Torsion [C]-CA--CB-[CG] |==|  0.29612
USER: genes 5 Torsion [CA]-CB--CG-[CD] |==|  0.89294
USER: genes 6 Torsion [CB]-CG--CD-[OE1] |==|  0.18355
USER: genes 7 Torsion [N]-CA--C-[N] |==|  0.16081
USER: genes 8 Torsion [C]-N--CA-[CB] |==|  0.36926
USER: genes 9 Torsion [N]-CA--CB-[CG] |==|  0.64071
USER: genes 10 Torsion [CA]-CB--CG-[CD1] |==|  0.71553
USER: genes 11 Torsion [N]-CA--C-[O] |==|  0.16536
USER: genes 12 Torsion [N]-CA--CB-[CG] |==|  0.82256
USER: genes 13 Torsion [CA]-CB--CG-[OD2] |==|  0.53391
ROOT
ATOM      1  CA  ASP C 507       7.286  25.383   4.238  1.00 33.68 LIG 0.19  C 
ENDROOT
BRANCH 1 2
ATOM      2  N   ASP C 507       6.844  26.140   5.401  1.00 35.05 LIG-0.34  N 
ATOM      3  C   GLU C 506       7.349  27.328   5.706  1.00 36.98 LIG 0.26  C 
ATOM      4 O    GLU C 506       8.258  27.861   5.060  1.00 35.33 LIG-0.27  OA
ATOM      5 H    ASP C 507       6.233  25.749   5.863  1.00 35.05 LIG 0.16  HD
BRANCH 3 6
ATOM      6  CA  GLU C 506       6.782  27.991   6.961  1.00 38.62 LIG 0.40  C 
ATOM      7  N   GLU C 506       5.471  28.627   6.661  1.00 38.98 LIG 0.61  N 
BRANCH 6 8
ATOM      8  CB  GLU C 506       6.642  26.977   8.098  1.00 41.41 LIG 0.06  C 
BRANCH 8 9
ATOM      9  CG  GLU C 506       7.673  27.137   9.198  1.00 54.63 LIG 0.12  C 
BRANCH 9 10
ATOM     10  CD  GLU C 506       9.049  27.498   8.674  1.00 71.07 LIG 0.17  C 
ATOM     11 OE1  GLU C 506       9.210  28.611   8.122  1.00 74.77 LIG-0.65  OA
ATOM     12 OE2  GLU C 506       9.974  26.669   8.831  1.00 73.38 LIG-0.65  OA
ENDBRANCH 9 10
ENDBRANCH 8 9
ENDBRANCH 6 8
ENDBRANCH 3 6
ENDBRANCH 1 2
BRANCH 1 13
ATOM     13  C   ASP C 507       8.719  24.932   4.462  1.00 33.47 LIG 0.24  C 
ATOM     14 O    ASP C 507       9.619  25.284   3.695  1.00 34.83 LIG-0.27  OA
ATOM     15  N   LEU C 508       8.923  24.190   5.546  1.00 31.65 LIG-0.34  N 
ATOM     16 H    LEU C 508       8.297  23.952   6.087  1.00 31.65 LIG 0.16  HD
BRANCH 15 17
ATOM     17  CA  LEU C 508      10.245  23.709   5.919  1.00 32.20 LIG 0.18  C 
BRANCH 17 18
ATOM     18  CB  LEU C 508      10.475  23.975   7.400  1.00 32.28 LIG 0.04  C 
BRANCH 18 19
ATOM     19  CG  LEU C 508      11.812  24.685   7.585  1.00 33.09 LIG-0.02  C 
ATOM     20  CD1 LEU C 508      12.852  23.719   8.067  1.00 32.61 LIG 0.01  C 
ATOM     21  CD2 LEU C 508      12.209  25.375   6.288  1.00 34.13 LIG 0.01  C 
ENDBRANCH 18 19
ENDBRANCH 17 18
BRANCH 17 22
ATOM     22  C   LEU C 508      10.452  22.237   5.614  1.00 33.63 LIG 0.20  C 
ATOM     23 O    LEU C 508      10.337  21.861   4.427  0.50 32.81 LIG-0.65  OA
ATOM     24 OXT  LEU C 508      10.724  21.474   6.563  0.50 35.17 LIG-0.65  OA
ENDBRANCH 17 22
ENDBRANCH 15 17
ENDBRANCH 1 13
BRANCH 1 25
ATOM     25  CB  ASP C 507       7.161  26.244   2.983  1.00 31.02 LIG 0.15  C 
BRANCH 25 26
ATOM     26  CG  ASP C 507       5.721  26.608   2.687  1.00 34.22 LIG 0.17  C 
ATOM     27 OD2  ASP C 507       5.431  27.111   1.577  1.00 32.29 LIG-0.65  OA
ATOM     28 OD1  ASP C 507       4.883  26.430   3.590  1.00 33.73 LIG-0.65  OA
ENDBRANCH 25 26
ENDBRANCH 1 25
TORSDOF 12
ENDMDL
MODEL 6
USER: ADFR SOLUTION from run 138
USER: SCORE 11.482954 LL:  -2.002 LR:  -9.537 RR:   0.000 FEB:  -5.958
USER: RMSD 4.724248
USER: SEED 137
USER: STATUS no improvement in best in 7 clusters for 5 generations
USER: GENES 14
USER: genes 0 Translation |==|  0.54949 0.54624 0.59841
USER: genes 1 Rotation |==|  0.47594 0.21541 0.44401 0.90656
USER: genes 2 Torsion [C]-CA--N-[C] |==|  0.14466
USER: genes 3 Torsion [N]-C--CA-[N] |==|  0.18329
USER: genes 4 Torsion [C]-CA--CB-[CG] |==|  0.81196
USER: genes 5 Torsion [CA]-CB--CG-[CD] |==|  0.75326
USER: genes 6 Torsion [CB]-CG--CD-[OE1] |==|  0.72941
USER: genes 7 Torsion [N]-CA--C-[N] |==|  0.12701
USER: genes 8 Torsion [C]-N--CA-[CB] |==|  0.88109
USER: genes 9 Torsion [N]-CA--CB-[CG] |==|  0.65569
USER: genes 10 Torsion [CA]-CB--CG-[CD1] |==|  0.20110
USER: genes 11 Torsion [N]-CA--C-[O] |==|  0.24259
USER: genes 12 Torsion [N]-CA--CB-[CG] |==|  0.77960
USER: genes 13 Torsion [CA]-CB--CG-[OD2] |==|  0.73917
ROOT
ATOM      1  CA  ASP C 507      10.078  25.930   6.386  1.00 33.68 LIG 0.19  C 
ENDROOT
BRANCH 1 2
ATOM      2  N   ASP C 507       9.937  25.815   4.940  1.00 35.05 LIG-0.34  N 
ATOM      3  C   GLU C 506       9.230  24.845   4.372  1.00 36.98 LIG 0.26  C 
ATOM      4 O    GLU C 506       8.679  23.946   5.017  1.00 35.33 LIG-0.27  OA
ATOM      5 H    ASP C 507      10.349  26.426   4.497  1.00 35.05 LIG 0.16  HD
BRANCH 3 6
ATOM      6  CA  GLU C 506       9.184  24.861   2.845  1.00 38.62 LIG 0.40  C 
ATOM      7  N   GLU C 506      10.536  24.595   2.284  1.00 38.98 LIG 0.61  N 
BRANCH 6 8
ATOM      8  CB  GLU C 506       8.173  23.840   2.319  1.00 41.41 LIG 0.06  C 
BRANCH 8 9
ATOM      9  CG  GLU C 506       8.569  22.397   2.563  1.00 54.63 LIG 0.12  C 
BRANCH 9 10
ATOM     10  CD  GLU C 506       9.412  21.815   1.445  1.00 71.07 LIG 0.17  C 
ATOM     11 OE1  GLU C 506       8.849  21.126   0.563  1.00 74.77 LIG-0.65  OA
ATOM     12 OE2  GLU C 506      10.639  22.062   1.445  1.00 73.38 LIG-0.65  OA
ENDBRANCH 9 10
ENDBRANCH 8 9
ENDBRANCH 6 8
ENDBRANCH 3 6
ENDBRANCH 1 2
BRANCH 1 13
ATOM     13  C   ASP C 507      10.549  24.597   6.940  1.00 33.47 LIG 0.24  C 
ATOM     14 O    ASP C 507       9.994  24.087   7.916  1.00 34.83 LIG-0.27  OA
ATOM     15  N   LEU C 508      11.547  24.021   6.276  1.00 31.65 LIG-0.34  N 
ATOM     16 H    LEU C 508      11.929  24.372   5.589  1.00 31.65 LIG 0.16  HD
BRANCH 15 17
ATOM     17  CA  LEU C 508      12.089  22.726   6.660  1.00 32.20 LIG 0.18  C 
BRANCH 17 18
ATOM     18  CB  LEU C 508      12.232  22.673   8.175  1.00 32.28 LIG 0.04  C 
BRANCH 18 19
ATOM     19  CG  LEU C 508      13.677  22.345   8.535  1.00 33.09 LIG-0.02  C 
ATOM     20  CD1 LEU C 508      14.562  23.523   8.263  1.00 32.61 LIG 0.01  C 
ATOM     21  CD2 LEU C 508      13.751  21.877   9.980  1.00 34.13 LIG 0.01  C 
ENDBRANCH 18 19
ENDBRANCH 17 18
BRANCH 17 22
ATOM     22  C   LEU C 508      11.248  21.560   6.173  1.00 33.63 LIG 0.20  C 
ATOM     23 O    LEU C 508      11.474  21.109   5.030  0.50 32.81 LIG-0.65  OA
ATOM     24 OXT  LEU C 508      10.370  21.110   6.938  0.50 35.17 LIG-0.65  OA
ENDBRANCH 17 22
ENDBRANCH 15 17
ENDBRANCH 1 13
BRANCH 1 25
ATOM     25  CB  ASP C 507       8.746  26.351   7.002  1.00 31.02 LIG 0.15  C 
BRANCH 25 26
ATOM     26  CG  ASP C 507       8.499  27.838   6.855  1.00 34.22 LIG 0.17  C 
ATOM     27 OD2  ASP C 507       8.830  28.611   7.783  1.00 32.29 LIG-0.65  OA
ATOM     28 OD1  ASP C 507       7.928  28.229   5.819  1.00 33.73 LIG-0.65  OA
ENDBRANCH 25 26
ENDBRANCH 1 25
TORSDOF 12
ENDMDL
MODEL 7
USER: ADFR SOLUTION from run 129
USER: SCORE 11.182229 LL:  -2.061 LR:  -9.490 RR:   0.000 FEB:  -5.910
USER: RMSD 3.485655
USER: SEED 128
USER: STATUS no improvement in best in 7 clusters for 5 generations
USER: GENES 14
USER: genes 0 Translation |==|  0.50215 0.53460 0.62089
USER: genes 1 Rotation |==|  0.44614 0.38029 0.43694 0.97832
USER: genes 2 Torsion [C]-CA--N-[C] |==|  0.58891
USER: genes 3 Torsion [N]-C--CA-[N] |==|  0.44331
USER: genes 4 Torsion [C]-CA--CB-[CG] |==|  0.75551
USER: genes 5 Torsion [CA]-CB--CG-[CD] |==|  0.76464
USER: genes 6 Torsion [CB]-CG--CD-[OE1] |==|  0.04802
USER: genes 7 Torsion [N]-CA--C-[N] |==|  0.31984
USER: genes 8 Torsion [C]-N--CA-[CB] |==|  0.78741
USER: genes 9 Torsion [N]-CA--CB-[CG] |==|  0.79628
USER: genes 10 Torsion [CA]-CB--CG-[CD1] |==|  0.48820
USER: genes 11 Torsion [N]-CA--C-[O] |==|  0.61605
USER: genes 12 Torsion [N]-CA--CB-[CG] |==|  0.69835
USER: genes 13 Torsion [CA]-CB--CG-[OD2] |==|  0.17986
ROOT
ATOM      1  CA  ASP C 507       9.261  25.755   6.773  1.00 33.68 LIG 0.19  C 
ENDROOT
BRANCH 1 2
ATOM      2  N   ASP C 507       8.187  25.708   5.791  1.00 35.05 LIG-0.34  N 
ATOM      3  C   GLU C 506       7.894  26.741   5.011  1.00 36.98 LIG 0.26  C 
ATOM      4 O    GLU C 506       8.475  27.830   5.088  1.00 35.33 LIG-0.27  OA
ATOM      5 H    ASP C 507       7.767  24.958   5.764  1.00 35.05 LIG 0.16  HD
BRANCH 3 6
ATOM      6  CA  GLU C 506       6.737  26.534   4.036  1.00 38.62 LIG 0.40  C 
ATOM      7  N   GLU C 506       6.193  27.846   3.592  1.00 38.98 LIG 0.61  N 
BRANCH 6 8
ATOM      8  CB  GLU C 506       7.180  25.700   2.831  1.00 41.41 LIG 0.06  C 
BRANCH 8 9
ATOM      9  CG  GLU C 506       7.760  26.518   1.694  1.00 54.63 LIG 0.12  C 
BRANCH 9 10
ATOM     10  CD  GLU C 506       6.702  27.073   0.762  1.00 71.07 LIG 0.17  C 
ATOM     11 OE1  GLU C 506       5.513  27.111   1.155  1.00 74.77 LIG-0.65  OA
ATOM     12 OE2  GLU C 506       7.067  27.486  -0.362  1.00 73.38 LIG-0.65  OA
ENDBRANCH 9 10
ENDBRANCH 8 9
ENDBRANCH 6 8
ENDBRANCH 3 6
ENDBRANCH 1 2
BRANCH 1 13
ATOM     13  C   ASP C 507       9.864  24.368   6.908  1.00 33.47 LIG 0.24  C 
ATOM     14 O    ASP C 507       9.185  23.421   7.313  1.00 34.83 LIG-0.27  OA
ATOM     15  N   LEU C 508      11.130  24.253   6.519  1.00 31.65 LIG-0.34  N 
ATOM     16 H    LEU C 508      11.601  24.911   6.228  1.00 31.65 LIG 0.16  HD
BRANCH 15 17
ATOM     17  CA  LEU C 508      11.840  22.983   6.553  1.00 32.20 LIG 0.18  C 
BRANCH 17 18
ATOM     18  CB  LEU C 508      12.235  22.669   7.990  1.00 32.28 LIG 0.04  C 
BRANCH 18 19
ATOM     19  CG  LEU C 508      13.385  23.579   8.407  1.00 33.09 LIG-0.02  C 
ATOM     20  CD1 LEU C 508      13.724  23.361   9.850  1.00 32.61 LIG 0.01  C 
ATOM     21  CD2 LEU C 508      14.575  23.357   7.485  1.00 34.13 LIG 0.01  C 
ENDBRANCH 18 19
ENDBRANCH 17 18
BRANCH 17 22
ATOM     22  C   LEU C 508      11.036  21.835   5.969  1.00 33.63 LIG 0.20  C 
ATOM     23 O    LEU C 508      11.063  20.736   6.563  0.50 32.81 LIG-0.65  OA
ATOM     24 OXT  LEU C 508      10.387  22.046   4.924  0.50 35.17 LIG-0.65  OA
ENDBRANCH 17 22
ENDBRANCH 15 17
ENDBRANCH 1 13
BRANCH 1 25
ATOM     25  CB  ASP C 507       8.718  26.260   8.108  1.00 31.02 LIG 0.15  C 
BRANCH 25 26
ATOM     26  CG  ASP C 507       9.200  27.661   8.422  1.00 34.22 LIG 0.17  C 
ATOM     27 OD2  ASP C 507       8.847  28.612   7.688  1.00 32.29 LIG-0.65  OA
ATOM     28 OD1  ASP C 507       9.974  27.802   9.388  1.00 33.73 LIG-0.65  OA
ENDBRANCH 25 26
ENDBRANCH 1 25
TORSDOF 12
ENDMDL
MODEL 8
USER: ADFR SOLUTION from run 177
USER: SCORE 11.027587 LL:  -2.094 LR:  -9.394 RR:   0.000 FEB:  -5.814
USER: RMSD 3.520067
USER: SEED 176
USER: STATUS no improvement in best in 7 clusters for 5 generations
USER: GENES 14
USER: genes 0 Translation |==|  0.49076 0.53220 0.62575
USER: genes 1 Rotation |==|  0.57343 0.56261 0.40549 0.98141
USER: genes 2 Torsion [C]-CA--N-[C] |==|  0.67158
USER: genes 3 Torsion [N]-C--CA-[N] |==|  0.40819
USER: genes 4 Torsion [C]-CA--CB-[CG] |==|  0.42916
USER: genes 5 Torsion [CA]-CB--CG-[CD] |==|  0.87926
USER: genes 6 Torsion [CB]-CG--CD-[OE1] |==|  0.18046
USER: genes 7 Torsion [N]-CA--C-[N] |==|  0.52538
USER: genes 8 Torsion [C]-N--CA-[CB] |==|  0.33281
USER: genes 9 Torsion [N]-CA--CB-[CG] |==|  0.12976
USER: genes 10 Torsion [CA]-CB--CG-[CD1] |==|  0.38058
USER: genes 11 Torsion [N]-CA--C-[O] |==|  0.54643
USER: genes 12 Torsion [N]-CA--CB-[CG] |==|  0.97789
USER: genes 13 Torsion [CA]-CB--CG-[OD2] |==|  0.24689
ROOT
ATOM      1  CA  ASP C 507       9.065  25.719   6.857  1.00 33.68 LIG 0.19  C 
ENDROOT
BRANCH 1 2
ATOM      2  N   ASP C 507       7.662  26.112   6.850  1.00 35.05 LIG-0.34  N 
ATOM      3  C   GLU C 506       7.270  27.332   6.505  1.00 36.98 LIG 0.26  C 
ATOM      4 O    GLU C 506       8.060  28.236   6.209  1.00 35.33 LIG-0.27  OA
ATOM      5 H    ASP C 507       7.121  25.487   7.087  1.00 35.05 LIG 0.16  HD
BRANCH 3 6
ATOM      6  CA  GLU C 506       5.764  27.587   6.553  1.00 38.62 LIG 0.40  C 
ATOM      7  N   GLU C 506       5.491  28.999   6.938  1.00 38.98 LIG 0.61  N 
BRANCH 6 8
ATOM      8  CB  GLU C 506       5.111  27.260   5.208  1.00 41.41 LIG 0.06  C 
BRANCH 8 9
ATOM      9  CG  GLU C 506       3.644  26.892   5.308  1.00 54.63 LIG 0.12  C 
BRANCH 9 10
ATOM     10  CD  GLU C 506       3.344  25.953   6.460  1.00 71.07 LIG 0.17  C 
ATOM     11 OE1  GLU C 506       3.520  26.361   7.631  1.00 74.77 LIG-0.65  OA
ATOM     12 OE2  GLU C 506       2.917  24.808   6.188  1.00 73.38 LIG-0.65  OA
ENDBRANCH 9 10
ENDBRANCH 8 9
ENDBRANCH 6 8
ENDBRANCH 3 6
ENDBRANCH 1 2
BRANCH 1 13
ATOM     13  C   ASP C 507       9.263  24.591   5.861  1.00 33.47 LIG 0.24  C 
ATOM     14 O    ASP C 507       8.376  24.295   5.057  1.00 34.83 LIG-0.27  OA
ATOM     15  N   LEU C 508      10.455  24.000   5.893  1.00 31.65 LIG-0.34  N 
ATOM     16 H    LEU C 508      11.077  24.213   6.448  1.00 31.65 LIG 0.16  HD
BRANCH 15 17
ATOM     17  CA  LEU C 508      10.813  22.926   4.979  1.00 32.20 LIG 0.18  C 
BRANCH 17 18
ATOM     18  CB  LEU C 508      12.020  23.353   4.155  1.00 32.28 LIG 0.04  C 
BRANCH 18 19
ATOM     19  CG  LEU C 508      13.073  23.957   5.077  1.00 33.09 LIG-0.02  C 
ATOM     20  CD1 LEU C 508      14.437  23.459   4.707  1.00 32.61 LIG 0.01  C 
ATOM     21  CD2 LEU C 508      12.974  25.475   5.043  1.00 34.13 LIG 0.01  C 
ENDBRANCH 18 19
ENDBRANCH 17 18
BRANCH 17 22
ATOM     22  C   LEU C 508      11.099  21.614   5.686  1.00 33.63 LIG 0.20  C 
ATOM     23 O    LEU C 508      11.713  20.728   5.054  0.50 32.81 LIG-0.65  OA
ATOM     24 OXT  LEU C 508      10.705  21.483   6.863  0.50 35.17 LIG-0.65  OA
ENDBRANCH 17 22
ENDBRANCH 15 17
ENDBRANCH 1 13
BRANCH 1 25
ATOM     25  CB  ASP C 507       9.475  25.299   8.266  1.00 31.02 LIG 0.15  C 
BRANCH 25 26
ATOM     26  CG  ASP C 507       8.390  25.587   9.283  1.00 34.22 LIG 0.17  C 
ATOM     27 OD2  ASP C 507       7.514  24.721   9.508  1.00 32.29 LIG-0.65  OA
ATOM     28 OD1  ASP C 507       8.393  26.706   9.828  1.00 33.73 LIG-0.65  OA
ENDBRANCH 25 26
ENDBRANCH 1 25
TORSDOF 12
ENDMDL
MODEL 9
USER: ADFR SOLUTION from run 41
USER: SCORE 11.685691 LL:  -2.454 LR:  -9.288 RR:   0.000 FEB:  -5.708
USER: RMSD 2.340819
USER: SEED 40
USER: STATUS no improvement in best in 11 clusters for 5 generations
USER: GENES 14
USER: genes 0 Translation |==|  0.53376 0.54511 0.58879
USER: genes 1 Rotation |==|  0.49504 0.31591 0.32088 0.92895
USER: genes 2 Torsion [C]-CA--N-[C] |==|  0.15101
USER: genes 3 Torsion [N]-C--CA-[N] |==|  0.89547
USER: genes 4 Torsion [C]-CA--CB-[CG] |==|  0.53312
USER: genes 5 Torsion [CA]-CB--CG-[CD] |==|  0.82727
USER: genes 6 Torsion [CB]-CG--CD-[OE1] |==|  0.06339
USER: genes 7 Torsion [N]-CA--C-[N] |==|  0.12777
USER: genes 8 Torsion [C]-N--CA-[CB] |==|  0.47965
USER: genes 9 Torsion [N]-CA--CB-[CG] |==|  0.68893
USER: genes 10 Torsion [CA]-CB--CG-[CD1] |==|  0.16002
USER: genes 11 Torsion [N]-CA--C-[O] |==|  0.27586
USER: genes 12 Torsion [N]-CA--CB-[CG] |==|  0.88113
USER: genes 13 Torsion [CA]-CB--CG-[OD2] |==|  0.19671
ROOT
ATOM      1  CA  ASP C 507       9.806  25.913   6.220  1.00 33.68 LIG 0.19  C 
ENDROOT
BRANCH 1 2
ATOM      2  N   ASP C 507       9.266  26.482   4.992  1.00 35.05 LIG-0.34  N 
ATOM      3  C   GLU C 506       8.081  26.128   4.509  1.00 36.98 LIG 0.26  C 
ATOM      4 O    GLU C 506       7.370  25.263   5.033  1.00 35.33 LIG-0.27  OA
ATOM      5 H    ASP C 507       9.780  27.060   4.617  1.00 35.05 LIG 0.16  HD
BRANCH 3 6
ATOM      6  CA  GLU C 506       7.660  26.813   3.210  1.00 38.62 LIG 0.40  C 
ATOM      7  N   GLU C 506       8.097  28.236   3.211  1.00 38.98 LIG 0.61  N 
BRANCH 6 8
ATOM      8  CB  GLU C 506       8.228  26.077   1.995  1.00 41.41 LIG 0.06  C 
BRANCH 8 9
ATOM      9  CG  GLU C 506       8.099  26.843   0.693  1.00 54.63 LIG 0.12  C 
BRANCH 9 10
ATOM     10  CD  GLU C 506       6.659  27.112   0.302  1.00 71.07 LIG 0.17  C 
ATOM     11 OE1  GLU C 506       5.781  27.106   1.196  1.00 74.77 LIG-0.65  OA
ATOM     12 OE2  GLU C 506       6.411  27.344  -0.903  1.00 73.38 LIG-0.65  OA
ENDBRANCH 9 10
ENDBRANCH 8 9
ENDBRANCH 6 8
ENDBRANCH 3 6
ENDBRANCH 1 2
BRANCH 1 13
ATOM     13  C   ASP C 507       9.807  24.399   6.100  1.00 33.47 LIG 0.24  C 
ATOM     14 O    ASP C 507       9.356  23.693   7.005  1.00 34.83 LIG-0.27  OA
ATOM     15  N   LEU C 508      10.275  23.915   4.953  1.00 31.65 LIG-0.34  N 
ATOM     16 H    LEU C 508      10.581  24.408   4.317  1.00 31.65 LIG 0.16  HD
BRANCH 15 17
ATOM     17  CA  LEU C 508      10.310  22.488   4.669  1.00 32.20 LIG 0.18  C 
BRANCH 17 18
ATOM     18  CB  LEU C 508      10.725  22.276   3.220  1.00 32.28 LIG 0.04  C 
BRANCH 18 19
ATOM     19  CG  LEU C 508       9.545  21.715   2.434  1.00 33.09 LIG-0.02  C 
ATOM     20  CD1 LEU C 508       8.371  22.641   2.526  1.00 32.61 LIG 0.01  C 
ATOM     21  CD2 LEU C 508       9.969  21.447   0.997  1.00 34.13 LIG 0.01  C 
ENDBRANCH 18 19
ENDBRANCH 17 18
BRANCH 17 22
ATOM     22  C   LEU C 508      11.233  21.719   5.597  1.00 33.63 LIG 0.20  C 
ATOM     23 O    LEU C 508      10.724  21.112   6.563  0.50 32.81 LIG-0.65  OA
ATOM     24 OXT  LEU C 508      12.456  21.732   5.349  0.50 35.17 LIG-0.65  OA
ENDBRANCH 17 22
ENDBRANCH 15 17
ENDBRANCH 1 13
BRANCH 1 25
ATOM     25  CB  ASP C 507       8.976  26.378   7.413  1.00 31.02 LIG 0.15  C 
BRANCH 25 26
ATOM     26  CG  ASP C 507       8.630  27.850   7.325  1.00 34.22 LIG 0.17  C 
ATOM     27 OD2  ASP C 507       7.803  28.236   6.468  1.00 32.29 LIG-0.65  OA
ATOM     28 OD1  ASP C 507       9.226  28.630   8.091  1.00 33.73 LIG-0.65  OA
ENDBRANCH 25 26
ENDBRANCH 1 25
TORSDOF 12
ENDMDL
MODEL 10
USER: ADFR SOLUTION from run 119
USER: SCORE 10.727708 LL:  -2.414 LR:  -9.196 RR:   0.000 FEB:  -5.616
USER: RMSD 3.821804
USER: SEED 118
USER: STATUS no improvement in best in 9 clusters for 5 generations
USER: GENES 14
USER: genes 0 Translation |==|  0.47220 0.56380 0.58712
USER: genes 1 Rotation |==|  0.46408 0.63557 0.43664 0.97573
USER: genes 2 Torsion [C]-CA--N-[C] |==|  0.60001
USER: genes 3 Torsion [N]-C--CA-[N] |==|  0.22611
USER: genes 4 Torsion [C]-CA--CB-[CG] |==|  0.71380
USER: genes 5 Torsion [CA]-CB--CG-[CD] |==|  0.76626
USER: genes 6 Torsion [CB]-CG--CD-[OE1] |==|  0.07679
USER: genes 7 Torsion [N]-CA--C-[N] |==|  0.61754
USER: genes 8 Torsion [C]-N--CA-[CB] |==|  0.25985
USER: genes 9 Torsion [N]-CA--CB-[CG] |==|  0.75699
USER: genes 10 Torsion [CA]-CB--CG-[CD1] |==|  0.40683
USER: genes 11 Torsion [N]-CA--C-[O] |==|  0.45758
USER: genes 12 Torsion [N]-CA--CB-[CG] |==|  0.90745
USER: genes 13 Torsion [CA]-CB--CG-[OD2] |==|  0.27427
ROOT
ATOM      1  CA  ASP C 507       8.745  26.193   6.191  1.00 33.68 LIG 0.19  C 
ENDROOT
BRANCH 1 2
ATOM      2  N   ASP C 507       7.352  26.347   6.590  1.00 35.05 LIG-0.34  N 
ATOM      3  C   GLU C 506       6.711  27.506   6.493  1.00 36.98 LIG 0.26  C 
ATOM      4 O    GLU C 506       7.253  28.545   6.102  1.00 35.33 LIG-0.27  OA
ATOM      5 H    ASP C 507       6.991  25.627   6.890  1.00 35.05 LIG 0.16  HD
BRANCH 3 6
ATOM      6  CA  GLU C 506       5.256  27.503   6.957  1.00 38.62 LIG 0.40  C 
ATOM      7  N   GLU C 506       5.186  27.632   8.438  1.00 38.98 LIG 0.61  N 
BRANCH 6 8
ATOM      8  CB  GLU C 506       4.465  28.626   6.281  1.00 41.41 LIG 0.06  C 
BRANCH 8 9
ATOM      9  CG  GLU C 506       4.211  29.825   7.174  1.00 54.63 LIG 0.12  C 
BRANCH 9 10
ATOM     10  CD  GLU C 506       2.994  29.656   8.063  1.00 71.07 LIG 0.17  C 
ATOM     11 OE1  GLU C 506       2.650  28.499   8.399  1.00 74.77 LIG-0.65  OA
ATOM     12 OE2  GLU C 506       2.393  30.688   8.438  1.00 73.38 LIG-0.65  OA
ENDBRANCH 9 10
ENDBRANCH 8 9
ENDBRANCH 6 8
ENDBRANCH 3 6
ENDBRANCH 1 2
BRANCH 1 13
ATOM     13  C   ASP C 507       8.929  24.817   5.576  1.00 33.47 LIG 0.24  C 
ATOM     14 O    ASP C 507       8.114  24.374   4.763  1.00 34.83 LIG-0.27  OA
ATOM     15  N   LEU C 508      10.034  24.171   5.938  1.00 31.65 LIG-0.34  N 
ATOM     16 H    LEU C 508      10.608  24.484   6.498  1.00 31.65 LIG 0.16  HD
BRANCH 15 17
ATOM     17  CA  LEU C 508      10.373  22.858   5.410  1.00 32.20 LIG 0.18  C 
BRANCH 17 18
ATOM     18  CB  LEU C 508      11.279  23.025   4.198  1.00 32.28 LIG 0.04  C 
BRANCH 18 19
ATOM     19  CG  LEU C 508      10.423  23.189   2.947  1.00 33.09 LIG-0.02  C 
ATOM     20  CD1 LEU C 508      11.097  24.107   1.972  1.00 32.61 LIG 0.01  C 
ATOM     21  CD2 LEU C 508      10.118  21.823   2.351  1.00 34.13 LIG 0.01  C 
ENDBRANCH 18 19
ENDBRANCH 17 18
BRANCH 17 22
ATOM     22  C   LEU C 508      11.032  21.955   6.437  1.00 33.63 LIG 0.20  C 
ATOM     23 O    LEU C 508      11.099  20.733   6.188  0.50 32.81 LIG-0.65  OA
ATOM     24 OXT  LEU C 508      11.474  22.479   7.480  0.50 35.17 LIG-0.65  OA
ENDBRANCH 17 22
ENDBRANCH 15 17
ENDBRANCH 1 13
BRANCH 1 25
ATOM     25  CB  ASP C 507       9.653  26.390   7.401  1.00 31.02 LIG 0.15  C 
BRANCH 25 26
ATOM     26  CG  ASP C 507       9.090  27.405   8.375  1.00 34.22 LIG 0.17  C 
ATOM     27 OD2  ASP C 507       8.471  27.007   9.388  1.00 32.29 LIG-0.65  OA
ATOM     28 OD1  ASP C 507       9.231  28.611   8.097  1.00 33.73 LIG-0.65  OA
ENDBRANCH 25 26
ENDBRANCH 1 25
TORSDOF 12
ENDMDL
MODEL 11
USER: ADFR SOLUTION from run 170
USER: SCORE 11.014521 LL:  -2.056 LR:  -9.185 RR:   0.000 FEB:  -5.605
USER: RMSD 3.858723
USER: SEED 169
USER: STATUS no improvement in best in 7 clusters for 5 generations
USER: GENES 14
USER: genes 0 Translation |==|  0.47430 0.52571 0.61786
USER: genes 1 Rotation |==|  0.70922 0.54786 0.41379 0.94329
USER: genes 2 Torsion [C]-CA--N-[C] |==|  0.75356
USER: genes 3 Torsion [N]-C--CA-[N] |==|  0.41848
USER: genes 4 Torsion [C]-CA--CB-[CG] |==|  0.40586
USER: genes 5 Torsion [CA]-CB--CG-[CD] |==|  0.88059
USER: genes 6 Torsion [CB]-CG--CD-[OE1] |==|  0.19369
USER: genes 7 Torsion [N]-CA--C-[N] |==|  0.88889
USER: genes 8 Torsion [C]-N--CA-[CB] |==|  0.19738
USER: genes 9 Torsion [N]-CA--CB-[CG] |==|  0.58961
USER: genes 10 Torsion [CA]-CB--CG-[CD1] |==|  0.35372
USER: genes 11 Torsion [N]-CA--C-[O] |==|  0.39893
USER: genes 12 Torsion [N]-CA--CB-[CG] |==|  0.86895
USER: genes 13 Torsion [CA]-CB--CG-[OD2] |==|  0.31271
ROOT
ATOM      1  CA  ASP C 507       8.781  25.622   6.721  1.00 33.68 LIG 0.19  C 
ENDROOT
BRANCH 1 2
ATOM      2  N   ASP C 507       7.410  26.114   6.752  1.00 35.05 LIG-0.34  N 
ATOM      3  C   GLU C 506       7.105  27.377   6.479  1.00 36.98 LIG 0.26  C 
ATOM      4 O    GLU C 506       7.955  28.236   6.224  1.00 35.33 LIG-0.27  OA
ATOM      5 H    ASP C 507       6.827  25.518   6.961  1.00 35.05 LIG 0.16  HD
BRANCH 3 6
ATOM      6  CA  GLU C 506       5.622  27.736   6.560  1.00 38.62 LIG 0.40  C 
ATOM      7  N   GLU C 506       5.457  29.166   6.938  1.00 38.98 LIG 0.61  N 
BRANCH 6 8
ATOM      8  CB  GLU C 506       4.917  27.445   5.233  1.00 41.41 LIG 0.06  C 
BRANCH 8 9
ATOM      9  CG  GLU C 506       3.480  26.986   5.386  1.00 54.63 LIG 0.12  C 
BRANCH 9 10
ATOM     10  CD  GLU C 506       3.295  25.976   6.502  1.00 71.07 LIG 0.17  C 
ATOM     11 OE1  GLU C 506       3.419  26.361   7.688  1.00 74.77 LIG-0.65  OA
ATOM     12 OE2  GLU C 506       3.010  24.799   6.188  1.00 73.38 LIG-0.65  OA
ENDBRANCH 9 10
ENDBRANCH 8 9
ENDBRANCH 6 8
ENDBRANCH 3 6
ENDBRANCH 1 2
BRANCH 1 13
ATOM     13  C   ASP C 507       9.100  25.148   5.314  1.00 33.47 LIG 0.24  C 
ATOM     14 O    ASP C 507      10.216  25.334   4.823  1.00 34.83 LIG-0.27  OA
ATOM     15  N   LEU C 508       8.122  24.493   4.695  1.00 31.65 LIG-0.34  N 
ATOM     16 H    LEU C 508       7.347  24.354   5.041  1.00 31.65 LIG 0.16  HD
BRANCH 15 17
ATOM     17  CA  LEU C 508       8.283  23.945   3.356  1.00 32.20 LIG 0.18  C 
BRANCH 17 18
ATOM     18  CB  LEU C 508       9.222  22.748   3.415  1.00 32.28 LIG 0.04  C 
BRANCH 18 19
ATOM     19  CG  LEU C 508      10.015  22.664   2.115  1.00 33.09 LIG-0.02  C 
ATOM     20  CD1 LEU C 508      11.483  22.588   2.404  1.00 32.61 LIG 0.01  C 
ATOM     21  CD2 LEU C 508       9.519  21.487   1.288  1.00 34.13 LIG 0.01  C 
ENDBRANCH 18 19
ENDBRANCH 17 18
BRANCH 17 22
ATOM     22  C   LEU C 508       6.967  23.545   2.714  1.00 33.63 LIG 0.20  C 
ATOM     23 O    LEU C 508       6.834  23.727   1.485  0.50 32.81 LIG-0.65  OA
ATOM     24 OXT  LEU C 508       6.082  23.056   3.446  0.50 35.17 LIG-0.65  OA
ENDBRANCH 17 22
ENDBRANCH 15 17
ENDBRANCH 1 13
BRANCH 1 25
ATOM     25  CB  ASP C 507       8.948  24.498   7.741  1.00 31.02 LIG 0.15  C 
BRANCH 25 26
ATOM     26  CG  ASP C 507       8.358  24.861   9.088  1.00 34.22 LIG 0.17  C 
ATOM     27 OD2  ASP C 507       7.349  24.246   9.502  1.00 32.29 LIG-0.65  OA
ATOM     28 OD1  ASP C 507       8.885  25.799   9.714  1.00 33.73 LIG-0.65  OA
ENDBRANCH 25 26
ENDBRANCH 1 25
TORSDOF 12
ENDMDL
MODEL 12
USER: ADFR SOLUTION from run 28
USER: SCORE 10.588604 LL:  -1.761 LR:  -9.157 RR:   0.000 FEB:  -5.577
USER: RMSD 1.904406
USER: SEED 27
USER: STATUS no improvement in best in 8 clusters for 5 generations
USER: GENES 14
USER: genes 0 Translation |==|  0.50065 0.54224 0.60143
USER: genes 1 Rotation |==|  0.41271 0.57658 0.39579 0.97503
USER: genes 2 Torsion [C]-CA--N-[C] |==|  0.60003
USER: genes 3 Torsion [N]-C--CA-[N] |==|  0.36499
USER: genes 4 Torsion [C]-CA--CB-[CG] |==|  0.02138
USER: genes 5 Torsion [CA]-CB--CG-[CD] |==|  0.54466
USER: genes 6 Torsion [CB]-CG--CD-[OE1] |==|  0.90396
USER: genes 7 Torsion [N]-CA--C-[N] |==|  0.32398
USER: genes 8 Torsion [C]-N--CA-[CB] |==|  0.46722
USER: genes 9 Torsion [N]-CA--CB-[CG] |==|  0.69012
USER: genes 10 Torsion [CA]-CB--CG-[CD1] |==|  0.23023
USER: genes 11 Torsion [N]-CA--C-[O] |==|  0.78945
USER: genes 12 Torsion [N]-CA--CB-[CG] |==|  0.94280
USER: genes 13 Torsion [CA]-CB--CG-[OD2] |==|  0.76792
ROOT
ATOM      1  CA  ASP C 507       9.235  25.870   6.438  1.00 33.68 LIG 0.19  C 
ENDROOT
BRANCH 1 2
ATOM      2  N   ASP C 507       7.817  26.202   6.471  1.00 35.05 LIG-0.34  N 
ATOM      3  C   GLU C 506       7.339  27.322   5.942  1.00 36.98 LIG 0.26  C 
ATOM      4 O    GLU C 506       8.058  28.184   5.425  1.00 35.33 LIG-0.27  OA
ATOM      5 H    ASP C 507       7.327  25.612   6.860  1.00 35.05 LIG 0.16  HD
BRANCH 3 6
ATOM      6  CA  GLU C 506       5.830  27.525   6.064  1.00 38.62 LIG 0.40  C 
ATOM      7  N   GLU C 506       5.532  28.890   6.575  1.00 38.98 LIG 0.61  N 
BRANCH 6 8
ATOM      8  CB  GLU C 506       5.137  27.290   4.720  1.00 41.41 LIG 0.06  C 
BRANCH 8 9
ATOM      9  CG  GLU C 506       6.051  26.739   3.643  1.00 54.63 LIG 0.12  C 
BRANCH 9 10
ATOM     10  CD  GLU C 506       5.475  26.875   2.247  1.00 71.07 LIG 0.17  C 
ATOM     11 OE1  GLU C 506       4.237  26.760   2.094  1.00 74.77 LIG-0.65  OA
ATOM     12 OE2  GLU C 506       6.265  27.111   1.305  1.00 73.38 LIG-0.65  OA
ENDBRANCH 9 10
ENDBRANCH 8 9
ENDBRANCH 6 8
ENDBRANCH 3 6
ENDBRANCH 1 2
BRANCH 1 13
ATOM     13  C   ASP C 507       9.384  24.370   6.252  1.00 33.47 LIG 0.24  C 
ATOM     14 O    ASP C 507       8.930  23.583   7.086  1.00 34.83 LIG-0.27  OA
ATOM     15  N   LEU C 508       9.981  23.988   5.127  1.00 31.65 LIG-0.34  N 
ATOM     16 H    LEU C 508      10.289  24.537   4.540  1.00 31.65 LIG 0.16  HD
BRANCH 15 17
ATOM     17  CA  LEU C 508      10.167  22.586   4.786  1.00 32.20 LIG 0.18  C 
BRANCH 17 18
ATOM     18  CB  LEU C 508      10.605  22.478   3.332  1.00 32.28 LIG 0.04  C 
BRANCH 18 19
ATOM     19  CG  LEU C 508       9.488  21.838   2.515  1.00 33.09 LIG-0.02  C 
ATOM     20  CD1 LEU C 508       8.472  22.868   2.125  1.00 32.61 LIG 0.01  C 
ATOM     21  CD2 LEU C 508      10.081  21.115   1.314  1.00 34.13 LIG 0.01  C 
ENDBRANCH 18 19
ENDBRANCH 17 18
BRANCH 17 22
ATOM     22  C   LEU C 508      11.166  21.881   5.686  1.00 33.63 LIG 0.20  C 
ATOM     23 O    LEU C 508      12.382  22.106   5.504  0.50 32.81 LIG-0.65  OA
ATOM     24 OXT  LEU C 508      10.724  21.111   6.563  0.50 35.17 LIG-0.65  OA
ENDBRANCH 17 22
ENDBRANCH 15 17
ENDBRANCH 1 13
BRANCH 1 25
ATOM     25  CB  ASP C 507       9.906  26.343   7.725  1.00 31.02 LIG 0.15  C 
BRANCH 25 26
ATOM     26  CG  ASP C 507       9.101  27.419   8.422  1.00 34.22 LIG 0.17  C 
ATOM     27 OD2  ASP C 507       9.224  28.611   8.058  1.00 32.29 LIG-0.65  OA
ATOM     28 OD1  ASP C 507       8.373  27.072   9.371  1.00 33.73 LIG-0.65  OA
ENDBRANCH 25 26
ENDBRANCH 1 25
TORSDOF 12
ENDMDL
MODEL 13
USER: ADFR SOLUTION from run 118
USER: SCORE 10.510537 LL:  -1.835 LR:  -9.088 RR:   0.000 FEB:  -5.508
USER: RMSD 3.066002
USER: SEED 117
USER: STATUS no improvement in best in 9 clusters for 5 generations
USER: GENES 14
USER: genes 0 Translation |==|  0.50993 0.51389 0.63519
USER: genes 1 Rotation |==|  0.60536 0.48338 0.43647 0.98434
USER: genes 2 Torsion [C]-CA--N-[C] |==|  0.66514
USER: genes 3 Torsion [N]-C--CA-[N] |==|  0.39390
USER: genes 4 Torsion [C]-CA--CB-[CG] |==|  0.94306
USER: genes 5 Torsion [CA]-CB--CG-[CD] |==|  0.54446
USER: genes 6 Torsion [CB]-CG--CD-[OE1] |==|  0.96220
USER: genes 7 Torsion [N]-CA--C-[N] |==|  0.51659
USER: genes 8 Torsion [C]-N--CA-[CB] |==|  0.47727
USER: genes 9 Torsion [N]-CA--CB-[CG] |==|  0.70307
USER: genes 10 Torsion [CA]-CB--CG-[CD1] |==|  0.74186
USER: genes 11 Torsion [N]-CA--C-[O] |==|  0.37011
USER: genes 12 Torsion [N]-CA--CB-[CG] |==|  0.95956
USER: genes 13 Torsion [CA]-CB--CG-[OD2] |==|  0.83726
ROOT
ATOM      1  CA  ASP C 507       9.395  25.444   7.020  1.00 33.68 LIG 0.19  C 
ENDROOT
BRANCH 1 2
ATOM      2  N   ASP C 507       8.055  25.774   6.554  1.00 35.05 LIG-0.34  N 
ATOM      3  C   GLU C 506       7.705  27.009   6.218  1.00 36.98 LIG 0.26  C 
ATOM      4 O    GLU C 506       8.469  27.976   6.316  1.00 35.33 LIG-0.27  OA
ATOM      5 H    ASP C 507       7.520  25.101   6.518  1.00 35.05 LIG 0.16  HD
BRANCH 3 6
ATOM      6  CA  GLU C 506       6.261  27.190   5.753  1.00 38.62 LIG 0.40  C 
ATOM      7  N   GLU C 506       5.712  28.476   6.263  1.00 38.98 LIG 0.61  N 
BRANCH 6 8
ATOM      8  CB  GLU C 506       6.167  27.132   4.227  1.00 41.41 LIG 0.06  C 
BRANCH 8 9
ATOM      9  CG  GLU C 506       7.479  27.405   3.517  1.00 54.63 LIG 0.12  C 
BRANCH 9 10
ATOM     10  CD  GLU C 506       7.303  27.724   2.046  1.00 71.07 LIG 0.17  C 
ATOM     11 OE1  GLU C 506       6.198  27.486   1.506  1.00 74.77 LIG-0.65  OA
ATOM     12 OE2  GLU C 506       8.273  28.228   1.434  1.00 73.38 LIG-0.65  OA
ENDBRANCH 9 10
ENDBRANCH 8 9
ENDBRANCH 6 8
ENDBRANCH 3 6
ENDBRANCH 1 2
BRANCH 1 13
ATOM     13  C   ASP C 507      10.002  24.416   6.082  1.00 33.47 LIG 0.24  C 
ATOM     14 O    ASP C 507       9.435  24.108   5.031  1.00 34.83 LIG-0.27  OA
ATOM     15  N   LEU C 508      11.182  23.927   6.453  1.00 31.65 LIG-0.34  N 
ATOM     16 H    LEU C 508      11.582  24.148   7.182  1.00 31.65 LIG 0.16  HD
BRANCH 15 17
ATOM     17  CA  LEU C 508      11.909  22.959   5.646  1.00 32.20 LIG 0.18  C 
BRANCH 17 18
ATOM     18  CB  LEU C 508      13.297  22.757   6.237  1.00 32.28 LIG 0.04  C 
BRANCH 18 19
ATOM     19  CG  LEU C 508      14.330  23.435   5.344  1.00 33.09 LIG-0.02  C 
ATOM     20  CD1 LEU C 508      14.876  22.460   4.346  1.00 32.61 LIG 0.01  C 
ATOM     21  CD2 LEU C 508      13.714  24.663   4.688  1.00 34.13 LIG 0.01  C 
ENDBRANCH 18 19
ENDBRANCH 17 18
BRANCH 17 22
ATOM     22  C   LEU C 508      11.193  21.627   5.524  1.00 33.63 LIG 0.20  C 
ATOM     23 O    LEU C 508      11.099  21.111   4.390  0.50 32.81 LIG-0.65  OA
ATOM     24 OXT  LEU C 508      10.731  21.112   6.563  0.50 35.17 LIG-0.65  OA
ENDBRANCH 17 22
ENDBRANCH 15 17
ENDBRANCH 1 13
BRANCH 1 25
ATOM     25  CB  ASP C 507       9.330  24.923   8.453  1.00 31.02 LIG 0.15  C 
BRANCH 25 26
ATOM     26  CG  ASP C 507       7.994  25.218   9.104  1.00 34.22 LIG 0.17  C 
ATOM     27 OD2  ASP C 507       7.607  26.405   9.201  1.00 32.29 LIG-0.65  OA
ATOM     28 OD1  ASP C 507       7.349  24.256   9.560  1.00 33.73 LIG-0.65  OA
ENDBRANCH 25 26
ENDBRANCH 1 25
TORSDOF 12
ENDMDL
MODEL 14
USER: ADFR SOLUTION from run 129
USER: SCORE 10.657871 LL:  -1.996 LR:  -8.780 RR:   0.000 FEB:  -5.201
USER: RMSD 5.607867
USER: SEED 128
USER: STATUS no improvement in best in 7 clusters for 5 generations
USER: GENES 14
USER: genes 0 Translation |==|  0.33412 0.60891 0.51734
USER: genes 1 Rotation |==|  0.05055 0.69812 0.52773 0.58932
USER: genes 2 Torsion [C]-CA--N-[C] |==|  0.73976
USER: genes 3 Torsion [N]-C--CA-[N] |==|  0.92494
USER: genes 4 Torsion [C]-CA--CB-[CG] |==|  0.60743
USER: genes 5 Torsion [CA]-CB--CG-[CD] |==|  0.76930
USER: genes 6 Torsion [CB]-CG--CD-[OE1] |==|  0.89683
USER: genes 7 Torsion [N]-CA--C-[N] |==|  0.33707
USER: genes 8 Torsion [C]-N--CA-[CB] |==|  0.85333
USER: genes 9 Torsion [N]-CA--CB-[CG] |==|  0.73325
USER: genes 10 Torsion [CA]-CB--CG-[CD1] |==|  0.27801
USER: genes 11 Torsion [N]-CA--C-[O] |==|  0.61876
USER: genes 12 Torsion [N]-CA--CB-[CG] |==|  0.79723
USER: genes 13 Torsion [CA]-CB--CG-[OD2] |==|  0.02702
ROOT
ATOM      1  CA  ASP C 507       6.363  26.870   4.987  1.00 33.68 LIG 0.19  C 
ENDROOT
BRANCH 1 2
ATOM      2  N   ASP C 507       5.563  27.818   5.750  1.00 35.05 LIG-0.34  N 
ATOM      3  C   GLU C 506       4.794  27.441   6.765  1.00 36.98 LIG 0.26  C 
ATOM      4 O    GLU C 506       4.662  26.262   7.110  1.00 35.33 LIG-0.27  OA
ATOM      5 H    ASP C 507       5.635  28.633   5.485  1.00 35.05 LIG 0.16  HD
BRANCH 3 6
ATOM      6  CA  GLU C 506       4.014  28.556   7.460  1.00 38.62 LIG 0.40  C 
ATOM      7  N   GLU C 506       4.726  29.854   7.313  1.00 38.98 LIG 0.61  N 
BRANCH 6 8
ATOM      8  CB  GLU C 506       2.592  28.657   6.903  1.00 41.41 LIG 0.06  C 
BRANCH 8 9
ATOM      9  CG  GLU C 506       2.085  30.078   6.758  1.00 54.63 LIG 0.12  C 
BRANCH 9 10
ATOM     10  CD  GLU C 506       1.526  30.644   8.049  1.00 71.07 LIG 0.17  C 
ATOM     11 OE1  GLU C 506       0.883  29.885   8.810  1.00 74.77 LIG-0.65  OA
ATOM     12 OE2  GLU C 506       1.745  31.850   8.306  1.00 73.38 LIG-0.65  OA
ENDBRANCH 9 10
ENDBRANCH 8 9
ENDBRANCH 6 8
ENDBRANCH 3 6
ENDBRANCH 1 2
BRANCH 1 13
ATOM     13  C   ASP C 507       7.759  26.817   5.581  1.00 33.47 LIG 0.24  C 
ATOM     14 O    ASP C 507       8.438  27.840   5.691  1.00 34.83 LIG-0.27  OA
ATOM     15  N   LEU C 508       8.157  25.620   6.004  1.00 31.65 LIG-0.34  N 
ATOM     16 H    LEU C 508       7.680  24.907   5.935  1.00 31.65 LIG 0.16  HD
BRANCH 15 17
ATOM     17  CA  LEU C 508       9.454  25.410   6.628  1.00 32.20 LIG 0.18  C 
BRANCH 17 18
ATOM     18  CB  LEU C 508      10.542  25.973   5.723  1.00 32.28 LIG 0.04  C 
BRANCH 18 19
ATOM     19  CG  LEU C 508      11.118  24.851   4.867  1.00 33.09 LIG-0.02  C 
ATOM     20  CD1 LEU C 508      10.523  24.886   3.492  1.00 32.61 LIG 0.01  C 
ATOM     21  CD2 LEU C 508      12.637  24.946   4.851  1.00 34.13 LIG 0.01  C 
ENDBRANCH 18 19
ENDBRANCH 17 18
BRANCH 17 22
ATOM     22  C   LEU C 508       9.556  26.024   8.012  1.00 33.63 LIG 0.20  C 
ATOM     23 O    LEU C 508      10.605  26.634   8.310  0.50 32.81 LIG-0.65  OA
ATOM     24 OXT  LEU C 508       8.586  25.888   8.786  0.50 35.17 LIG-0.65  OA
ENDBRANCH 17 22
ENDBRANCH 15 17
ENDBRANCH 1 13
BRANCH 1 25
ATOM     25  CB  ASP C 507       6.395  27.286   3.519  1.00 31.02 LIG 0.15  C 
BRANCH 25 26
ATOM     26  CG  ASP C 507       5.073  27.027   2.826  1.00 34.22 LIG 0.17  C 
ATOM     27 OD2  ASP C 507       4.076  26.701   3.509  1.00 32.29 LIG-0.65  OA
ATOM     28 OD1  ASP C 507       5.047  27.110   1.584  1.00 33.73 LIG-0.65  OA
ENDBRANCH 25 26
ENDBRANCH 1 25
TORSDOF 12
ENDMDL
MODEL 15
USER: ADFR SOLUTION from run 63
USER: SCORE 10.460176 LL:  -2.047 LR:  -8.645 RR:   0.000 FEB:  -5.065
USER: RMSD 3.631079
USER: SEED 62
USER: STATUS no improvement in best in 12 clusters for 5 generations
USER: GENES 14
USER: genes 0 Translation |==|  0.48596 0.55817 0.62027
USER: genes 1 Rotation |==|  0.42150 0.41509 0.44229 0.98301
USER: genes 2 Torsion [C]-CA--N-[C] |==|  0.61768
USER: genes 3 Torsion [N]-C--CA-[N] |==|  0.86645
USER: genes 4 Torsion [C]-CA--CB-[CG] |==|  0.52682
USER: genes 5 Torsion [CA]-CB--CG-[CD] |==|  0.85608
USER: genes 6 Torsion [CB]-CG--CD-[OE1] |==|  0.17968
USER: genes 7 Torsion [N]-CA--C-[N] |==|  0.34454
USER: genes 8 Torsion [C]-N--CA-[CB] |==|  0.79611
USER: genes 9 Torsion [N]-CA--CB-[CG] |==|  0.65604
USER: genes 10 Torsion [CA]-CB--CG-[CD1] |==|  0.22457
USER: genes 11 Torsion [N]-CA--C-[O] |==|  0.12602
USER: genes 12 Torsion [N]-CA--CB-[CG] |==|  0.74643
USER: genes 13 Torsion [CA]-CB--CG-[OD2] |==|  0.16823
ROOT
ATOM      1  CA  ASP C 507       8.982  26.108   6.763  1.00 33.68 LIG 0.19  C 
ENDROOT
BRANCH 1 2
ATOM      2  N   ASP C 507       7.770  26.008   5.961  1.00 35.05 LIG-0.34  N 
ATOM      3  C   GLU C 506       7.475  26.885   5.009  1.00 36.98 LIG 0.26  C 
ATOM      4 O    GLU C 506       8.176  27.873   4.762  1.00 35.33 LIG-0.27  OA
ATOM      5 H    ASP C 507       7.271  25.336   6.160  1.00 35.05 LIG 0.16  HD
BRANCH 3 6
ATOM      6  CA  GLU C 506       6.165  26.643   4.262  1.00 38.62 LIG 0.40  C 
ATOM      7  N   GLU C 506       6.069  25.221   3.835  1.00 38.98 LIG 0.61  N 
BRANCH 6 8
ATOM      8  CB  GLU C 506       4.963  27.028   5.127  1.00 41.41 LIG 0.06  C 
BRANCH 8 9
ATOM      9  CG  GLU C 506       3.627  26.604   4.550  1.00 54.63 LIG 0.12  C 
BRANCH 9 10
ATOM     10  CD  GLU C 506       3.431  27.049   3.114  1.00 71.07 LIG 0.17  C 
ATOM     11 OE1  GLU C 506       4.184  26.580   2.231  1.00 74.77 LIG-0.65  OA
ATOM     12 OE2  GLU C 506       2.509  27.861   2.871  1.00 73.38 LIG-0.65  OA
ENDBRANCH 9 10
ENDBRANCH 8 9
ENDBRANCH 6 8
ENDBRANCH 3 6
ENDBRANCH 1 2
BRANCH 1 13
ATOM     13  C   ASP C 507       9.585  24.723   6.916  1.00 33.47 LIG 0.24  C 
ATOM     14 O    ASP C 507       8.909  23.785   7.346  1.00 34.83 LIG-0.27  OA
ATOM     15  N   LEU C 508      10.847  24.600   6.516  1.00 31.65 LIG-0.34  N 
ATOM     16 H    LEU C 508      11.315  25.252   6.207  1.00 31.65 LIG 0.16  HD
BRANCH 15 17
ATOM     17  CA  LEU C 508      11.555  23.330   6.565  1.00 32.20 LIG 0.18  C 
BRANCH 17 18
ATOM     18  CB  LEU C 508      11.898  23.005   8.013  1.00 32.28 LIG 0.04  C 
BRANCH 18 19
ATOM     19  CG  LEU C 508      13.402  22.792   8.140  1.00 33.09 LIG-0.02  C 
ATOM     20  CD1 LEU C 508      14.109  24.111   8.229  1.00 32.61 LIG 0.01  C 
ATOM     21  CD2 LEU C 508      13.693  21.890   9.330  1.00 34.13 LIG 0.01  C 
ENDBRANCH 18 19
ENDBRANCH 17 18
BRANCH 17 22
ATOM     22  C   LEU C 508      10.774  22.187   5.943  1.00 33.63 LIG 0.20  C 
ATOM     23 O    LEU C 508      10.219  22.386   4.841  0.50 32.81 LIG-0.65  OA
ATOM     24 OXT  LEU C 508      10.724  21.105   6.563  0.50 35.17 LIG-0.65  OA
ENDBRANCH 17 22
ENDBRANCH 15 17
ENDBRANCH 1 13
BRANCH 1 25
ATOM     25  CB  ASP C 507       8.653  26.728   8.118  1.00 31.02 LIG 0.15  C 
BRANCH 25 26
ATOM     26  CG  ASP C 507       8.804  28.236   8.105  1.00 34.22 LIG 0.17  C 
ATOM     27 OD2  ASP C 507       8.101  28.916   7.323  1.00 32.29 LIG-0.65  OA
ATOM     28 OD1  ASP C 507       9.664  28.737   8.852  1.00 33.73 LIG-0.65  OA
ENDBRANCH 25 26
ENDBRANCH 1 25
TORSDOF 12
ENDMDL
MODEL 16
USER: ADFR SOLUTION from run 30
USER: SCORE 10.886149 LL:  -2.366 LR:  -8.589 RR:   0.000 FEB:  -5.009
USER: RMSD 3.621678
USER: SEED 29
USER: STATUS no improvement in best in 13 clusters for 5 generations
USER: GENES 14
USER: genes 0 Translation |==|  0.57049 0.54989 0.60471
USER: genes 1 Rotation |==|  0.49525 0.27779 0.41076 0.93890
USER: genes 2 Torsion [C]-CA--N-[C] |==|  0.15313
USER: genes 3 Torsion [N]-C--CA-[N] |==|  0.19435
USER: genes 4 Torsion [C]-CA--CB-[CG] |==|  0.51465
USER: genes 5 Torsion [CA]-CB--CG-[CD] |==|  0.87642
USER: genes 6 Torsion [CB]-CG--CD-[OE1] |==|  0.21646
USER: genes 7 Torsion [N]-CA--C-[N] |==|  0.13320
USER: genes 8 Torsion [C]-N--CA-[CB] |==|  0.84583
USER: genes 9 Torsion [N]-CA--CB-[CG] |==|  0.69888
USER: genes 10 Torsion [CA]-CB--CG-[CD1] |==|  0.77878
USER: genes 11 Torsion [N]-CA--C-[O] |==|  0.71988
USER: genes 12 Torsion [N]-CA--CB-[CG] |==|  0.84994
USER: genes 13 Torsion [CA]-CB--CG-[OD2] |==|  0.18678
ROOT
ATOM      1  CA  ASP C 507      10.440  25.984   6.494  1.00 33.68 LIG 0.19  C 
ENDROOT
BRANCH 1 2
ATOM      2  N   ASP C 507       9.929  26.135   5.138  1.00 35.05 LIG-0.34  N 
ATOM      3  C   GLU C 506       8.981  25.347   4.647  1.00 36.98 LIG 0.26  C 
ATOM      4 O    GLU C 506       8.493  24.403   5.279  1.00 35.33 LIG-0.27  OA
ATOM      5 H    ASP C 507      10.295  26.773   4.694  1.00 35.05 LIG 0.16  HD
BRANCH 3 6
ATOM      6  CA  GLU C 506       8.558  25.631   3.207  1.00 38.62 LIG 0.40  C 
ATOM      7  N   GLU C 506       9.646  25.254   2.265  1.00 38.98 LIG 0.61  N 
BRANCH 6 8
ATOM      8  CB  GLU C 506       7.265  24.889   2.861  1.00 41.41 LIG 0.06  C 
BRANCH 8 9
ATOM      9  CG  GLU C 506       6.848  25.020   1.409  1.00 54.63 LIG 0.12  C 
BRANCH 9 10
ATOM     10  CD  GLU C 506       6.966  26.437   0.883  1.00 71.07 LIG 0.17  C 
ATOM     11 OE1  GLU C 506       8.099  26.871   0.571  1.00 74.77 LIG-0.65  OA
ATOM     12 OE2  GLU C 506       5.916  27.110   0.768  1.00 73.38 LIG-0.65  OA
ENDBRANCH 9 10
ENDBRANCH 8 9
ENDBRANCH 6 8
ENDBRANCH 3 6
ENDBRANCH 1 2
BRANCH 1 13
ATOM     13  C   ASP C 507      10.923  24.557   6.681  1.00 33.47 LIG 0.24  C 
ATOM     14 O    ASP C 507      10.560  23.889   7.651  1.00 34.83 LIG-0.27  OA
ATOM     15  N   LEU C 508      11.707  24.087   5.715  1.00 31.65 LIG-0.34  N 
ATOM     16 H    LEU C 508      11.954  24.550   5.033  1.00 31.65 LIG 0.16  HD
BRANCH 15 17
ATOM     17  CA  LEU C 508      12.224  22.727   5.729  1.00 32.20 LIG 0.18  C 
BRANCH 17 18
ATOM     18  CB  LEU C 508      12.972  22.490   7.034  1.00 32.28 LIG 0.04  C 
BRANCH 18 19
ATOM     19  CG  LEU C 508      14.469  22.419   6.752  1.00 33.09 LIG-0.02  C 
ATOM     20  CD1 LEU C 508      14.836  21.067   6.219  1.00 32.61 LIG 0.01  C 
ATOM     21  CD2 LEU C 508      14.868  23.548   5.812  1.00 34.13 LIG 0.01  C 
ENDBRANCH 18 19
ENDBRANCH 17 18
BRANCH 17 22
ATOM     22  C   LEU C 508      11.144  21.677   5.548  1.00 33.63 LIG 0.20  C 
ATOM     23 O    LEU C 508      10.728  21.078   6.563  0.50 32.81 LIG-0.65  OA
ATOM     24 OXT  LEU C 508      10.724  21.461   4.392  0.50 35.17 LIG-0.65  OA
ENDBRANCH 17 22
ENDBRANCH 15 17
ENDBRANCH 1 13
BRANCH 1 25
ATOM     25  CB  ASP C 507       9.347  26.340   7.500  1.00 31.02 LIG 0.15  C 
BRANCH 25 26
ATOM     26  CG  ASP C 507       8.766  27.715   7.243  1.00 34.22 LIG 0.17  C 
ATOM     27 OD2  ASP C 507       8.099  27.915   6.202  1.00 32.29 LIG-0.65  OA
ATOM     28 OD1  ASP C 507       9.017  28.611   8.070  1.00 33.73 LIG-0.65  OA
ENDBRANCH 25 26
ENDBRANCH 1 25
TORSDOF 12
ENDMDL
MODEL 17
USER: ADFR SOLUTION from run 55
USER: SCORE 10.653678 LL:  -2.400 LR:  -8.592 RR:   0.000 FEB:  -5.013
USER: RMSD 3.363840
USER: SEED 54
USER: STATUS no improvement in best in 8 clusters for 5 generations
USER: GENES 14
USER: genes 0 Translation |==|  0.49727 0.52510 0.60103
USER: genes 1 Rotation |==|  0.66213 0.56477 0.42238 0.96206
USER: genes 2 Torsion [C]-CA--N-[C] |==|  0.69013
USER: genes 3 Torsion [N]-C--CA-[N] |==|  0.44427
USER: genes 4 Torsion [C]-CA--CB-[CG] |==|  0.43488
USER: genes 5 Torsion [CA]-CB--CG-[CD] |==|  0.88620
USER: genes 6 Torsion [CB]-CG--CD-[OE1] |==|  0.17749
USER: genes 7 Torsion [N]-CA--C-[N] |==|  0.89777
USER: genes 8 Torsion [C]-N--CA-[CB] |==|  0.84936
USER: genes 9 Torsion [N]-CA--CB-[CG] |==|  0.77535
USER: genes 10 Torsion [CA]-CB--CG-[CD1] |==|  0.94477
USER: genes 11 Torsion [N]-CA--C-[O] |==|  0.02617
USER: genes 12 Torsion [N]-CA--CB-[CG] |==|  0.90247
USER: genes 13 Torsion [CA]-CB--CG-[OD2] |==|  0.26793
ROOT
ATOM      1  CA  ASP C 507       9.177  25.613   6.431  1.00 33.68 LIG 0.19  C 
ENDROOT
BRANCH 1 2
ATOM      2  N   ASP C 507       7.770  25.987   6.481  1.00 35.05 LIG-0.34  N 
ATOM      3  C   GLU C 506       7.372  27.253   6.440  1.00 36.98 LIG 0.26  C 
ATOM      4 O    GLU C 506       8.158  28.206   6.403  1.00 35.33 LIG-0.27  OA
ATOM      5 H    ASP C 507       7.230  25.320   6.538  1.00 35.05 LIG 0.16  HD
BRANCH 3 6
ATOM      6  CA  GLU C 506       5.863  27.480   6.507  1.00 38.62 LIG 0.40  C 
ATOM      7  N   GLU C 506       5.568  28.874   6.935  1.00 38.98 LIG 0.61  N 
BRANCH 6 8
ATOM      8  CB  GLU C 506       5.205  27.180   5.158  1.00 41.41 LIG 0.06  C 
BRANCH 8 9
ATOM      9  CG  GLU C 506       3.733  26.831   5.253  1.00 54.63 LIG 0.12  C 
BRANCH 9 10
ATOM     10  CD  GLU C 506       3.411  25.928   6.428  1.00 71.07 LIG 0.17  C 
ATOM     11 OE1  GLU C 506       3.599  26.361   7.588  1.00 74.77 LIG-0.65  OA
ATOM     12 OE2  GLU C 506       2.955  24.788   6.185  1.00 73.38 LIG-0.65  OA
ENDBRANCH 9 10
ENDBRANCH 8 9
ENDBRANCH 6 8
ENDBRANCH 3 6
ENDBRANCH 1 2
BRANCH 1 13
ATOM     13  C   ASP C 507       9.452  24.914   5.111  1.00 33.47 LIG 0.24  C 
ATOM     14 O    ASP C 507      10.535  25.051   4.537  1.00 34.83 LIG-0.27  OA
ATOM     15  N   LEU C 508       8.476  24.127   4.665  1.00 31.65 LIG-0.34  N 
ATOM     16 H    LEU C 508       7.724  24.024   5.070  1.00 31.65 LIG 0.16  HD
BRANCH 15 17
ATOM     17  CA  LEU C 508       8.600  23.362   3.433  1.00 32.20 LIG 0.18  C 
BRANCH 17 18
ATOM     18  CB  LEU C 508       8.968  24.303   2.295  1.00 32.28 LIG 0.04  C 
BRANCH 18 19
ATOM     19  CG  LEU C 508       7.711  25.004   1.792  1.00 33.09 LIG-0.02  C 
ATOM     20  CD1 LEU C 508       6.489  24.239   2.200  1.00 32.61 LIG 0.01  C 
ATOM     21  CD2 LEU C 508       7.695  26.443   2.286  1.00 34.13 LIG 0.01  C 
ENDBRANCH 18 19
ENDBRANCH 17 18
BRANCH 17 22
ATOM     22  C   LEU C 508       9.612  22.236   3.531  1.00 33.63 LIG 0.20  C 
ATOM     23 O    LEU C 508      10.085  21.965   4.656  0.50 32.81 LIG-0.65  OA
ATOM     24 OXT  LEU C 508       9.925  21.636   2.482  0.50 35.17 LIG-0.65  OA
ENDBRANCH 17 22
ENDBRANCH 15 17
ENDBRANCH 1 13
BRANCH 1 25
ATOM     25  CB  ASP C 507       9.514  24.715   7.619  1.00 31.02 LIG 0.15  C 
BRANCH 25 26
ATOM     26  CG  ASP C 507       8.741  25.105   8.862  1.00 34.22 LIG 0.17  C 
ATOM     27 OD2  ASP C 507       7.684  24.496   9.144  1.00 32.29 LIG-0.65  OA
ATOM     28 OD1  ASP C 507       9.175  26.058   9.536  1.00 33.73 LIG-0.65  OA
ENDBRANCH 25 26
ENDBRANCH 1 25
TORSDOF 12
ENDMDL
MODEL 18
USER: ADFR SOLUTION from run 50
USER: SCORE 10.309016 LL:  -2.186 LR:  -8.389 RR:   0.000 FEB:  -4.810
USER: RMSD 4.243019
USER: SEED 49
USER: STATUS no improvement in best in 6 clusters for 5 generations
USER: GENES 14
USER: genes 0 Translation |==|  0.47011 0.57162 0.56161
USER: genes 1 Rotation |==|  0.49934 0.65900 0.45209 0.97162
USER: genes 2 Torsion [C]-CA--N-[C] |==|  0.60601
USER: genes 3 Torsion [N]-C--CA-[N] |==|  0.25018
USER: genes 4 Torsion [C]-CA--CB-[CG] |==|  0.72816
USER: genes 5 Torsion [CA]-CB--CG-[CD] |==|  0.75277
USER: genes 6 Torsion [CB]-CG--CD-[OE1] |==|  0.59172
USER: genes 7 Torsion [N]-CA--C-[N] |==|  0.35795
USER: genes 8 Torsion [C]-N--CA-[CB] |==|  0.85057
USER: genes 9 Torsion [N]-CA--CB-[CG] |==|  0.59480
USER: genes 10 Torsion [CA]-CB--CG-[CD1] |==|  0.41203
USER: genes 11 Torsion [N]-CA--C-[O] |==|  0.21272
USER: genes 12 Torsion [N]-CA--CB-[CG] |==|  0.90700
USER: genes 13 Torsion [CA]-CB--CG-[OD2] |==|  0.28838
ROOT
ATOM      1  CA  ASP C 507       8.708  26.310   5.751  1.00 33.68 LIG 0.19  C 
ENDROOT
BRANCH 1 2
ATOM      2  N   ASP C 507       7.352  26.373   6.278  1.00 35.05 LIG-0.34  N 
ATOM      3  C   GLU C 506       6.684  27.515   6.381  1.00 36.98 LIG 0.26  C 
ATOM      4 O    GLU C 506       7.172  28.611   6.083  1.00 35.33 LIG-0.27  OA
ATOM      5 H    ASP C 507       7.031  25.611   6.513  1.00 35.05 LIG 0.16  HD
BRANCH 3 6
ATOM      6  CA  GLU C 506       5.273  27.413   6.958  1.00 38.62 LIG 0.40  C 
ATOM      7  N   GLU C 506       5.308  27.564   8.438  1.00 38.98 LIG 0.61  N 
BRANCH 6 8
ATOM      8  CB  GLU C 506       4.349  28.460   6.332  1.00 41.41 LIG 0.06  C 
BRANCH 8 9
ATOM      9  CG  GLU C 506       4.173  29.709   7.173  1.00 54.63 LIG 0.12  C 
BRANCH 9 10
ATOM     10  CD  GLU C 506       3.024  29.605   8.158  1.00 71.07 LIG 0.17  C 
ATOM     11 OE1  GLU C 506       2.377  30.640   8.438  1.00 74.77 LIG-0.65  OA
ATOM     12 OE2  GLU C 506       2.763  28.479   8.639  1.00 73.38 LIG-0.65  OA
ENDBRANCH 9 10
ENDBRANCH 8 9
ENDBRANCH 6 8
ENDBRANCH 3 6
ENDBRANCH 1 2
BRANCH 1 13
ATOM     13  C   ASP C 507       8.850  25.054   4.909  1.00 33.47 LIG 0.24  C 
ATOM     14 O    ASP C 507       8.477  23.961   5.340  1.00 34.83 LIG-0.27  OA
ATOM     15  N   LEU C 508       9.348  25.235   3.689  1.00 31.65 LIG-0.34  N 
ATOM     16 H    LEU C 508       9.600  26.000   3.385  1.00 31.65 LIG 0.16  HD
BRANCH 15 17
ATOM     17  CA  LEU C 508       9.514  24.137   2.749  1.00 32.20 LIG 0.18  C 
BRANCH 17 18
ATOM     18  CB  LEU C 508      10.324  23.031   3.409  1.00 32.28 LIG 0.04  C 
BRANCH 18 19
ATOM     19  CG  LEU C 508      11.197  22.350   2.361  1.00 33.09 LIG-0.02  C 
ATOM     20  CD1 LEU C 508      12.472  21.864   2.980  1.00 32.61 LIG 0.01  C 
ATOM     21  CD2 LEU C 508      10.412  21.235   1.685  1.00 34.13 LIG 0.01  C 
ENDBRANCH 18 19
ENDBRANCH 17 18
BRANCH 17 22
ATOM     22  C   LEU C 508       8.195  23.586   2.239  1.00 33.63 LIG 0.20  C 
ATOM     23 O    LEU C 508       7.579  24.242   1.372  0.50 32.81 LIG-0.65  OA
ATOM     24 OXT  LEU C 508       7.789  22.504   2.712  0.50 35.17 LIG-0.65  OA
ENDBRANCH 17 22
ENDBRANCH 15 17
ENDBRANCH 1 13
BRANCH 1 25
ATOM     25  CB  ASP C 507       9.711  26.327   6.902  1.00 31.02 LIG 0.15  C 
BRANCH 25 26
ATOM     26  CG  ASP C 507       9.224  27.166   8.066  1.00 34.22 LIG 0.17  C 
ATOM     27 OD2  ASP C 507       8.778  26.597   9.088  1.00 32.29 LIG-0.65  OA
ATOM     28 OD1  ASP C 507       9.249  28.403   7.936  1.00 33.73 LIG-0.65  OA
ENDBRANCH 25 26
ENDBRANCH 1 25
TORSDOF 12
ENDMDL
MODEL 19
USER: ADFR SOLUTION from run 200
USER: SCORE 10.084338 LL:  -2.316 LR:  -8.392 RR:   0.000 FEB:  -4.813
USER: RMSD 3.150235
USER: SEED 199
USER: STATUS no improvement in best in 8 clusters for 5 generations
USER: GENES 14
USER: genes 0 Translation |==|  0.53885 0.54518 0.65872
USER: genes 1 Rotation |==|  0.63326 0.46285 0.40625 0.97125
USER: genes 2 Torsion [C]-CA--N-[C] |==|  0.60919
USER: genes 3 Torsion [N]-C--CA-[N] |==|  0.88607
USER: genes 4 Torsion [C]-CA--CB-[CG] |==|  0.78306
USER: genes 5 Torsion [CA]-CB--CG-[CD] |==|  0.74004
USER: genes 6 Torsion [CB]-CG--CD-[OE1] |==|  0.18255
USER: genes 7 Torsion [N]-CA--C-[N] |==|  0.84774
USER: genes 8 Torsion [C]-N--CA-[CB] |==|  0.86423
USER: genes 9 Torsion [N]-CA--CB-[CG] |==|  0.81751
USER: genes 10 Torsion [CA]-CB--CG-[CD1] |==|  0.54657
USER: genes 11 Torsion [N]-CA--C-[O] |==|  0.54122
USER: genes 12 Torsion [N]-CA--CB-[CG] |==|  0.94928
USER: genes 13 Torsion [CA]-CB--CG-[OD2] |==|  0.28311
ROOT
ATOM      1  CA  ASP C 507       9.894  25.914   7.426  1.00 33.68 LIG 0.19  C 
ENDROOT
BRANCH 1 2
ATOM      2  N   ASP C 507       8.649  26.476   6.920  1.00 35.05 LIG-0.34  N 
ATOM      3  C   GLU C 506       8.339  27.758   7.069  1.00 36.98 LIG 0.26  C 
ATOM      4 O    GLU C 506       9.053  28.558   7.684  1.00 35.33 LIG-0.27  OA
ATOM      5 H    ASP C 507       8.143  25.907   6.521  1.00 35.05 LIG 0.16  HD
BRANCH 3 6
ATOM      6  CA  GLU C 506       6.995  28.191   6.486  1.00 38.62 LIG 0.40  C 
ATOM      7  N   GLU C 506       6.773  27.544   5.164  1.00 38.98 LIG 0.61  N 
BRANCH 6 8
ATOM      8  CB  GLU C 506       5.850  27.860   7.447  1.00 41.41 LIG 0.06  C 
BRANCH 8 9
ATOM      9  CG  GLU C 506       5.439  26.401   7.436  1.00 54.63 LIG 0.12  C 
BRANCH 9 10
ATOM     10  CD  GLU C 506       4.294  26.113   6.484  1.00 71.07 LIG 0.17  C 
ATOM     11 OE1  GLU C 506       4.483  26.256   5.254  1.00 74.77 LIG-0.65  OA
ATOM     12 OE2  GLU C 506       3.207  25.729   6.973  1.00 73.38 LIG-0.65  OA
ENDBRANCH 9 10
ENDBRANCH 8 9
ENDBRANCH 6 8
ENDBRANCH 3 6
ENDBRANCH 1 2
BRANCH 1 13
ATOM     13  C   ASP C 507      10.430  24.917   6.413  1.00 33.47 LIG 0.24  C 
ATOM     14 O    ASP C 507      11.588  24.998   5.999  1.00 34.83 LIG-0.27  OA
ATOM     15  N   LEU C 508       9.587  23.950   6.060  1.00 31.65 LIG-0.34  N 
ATOM     16 H    LEU C 508       8.782  23.888   6.356  1.00 31.65 LIG 0.16  HD
BRANCH 15 17
ATOM     17  CA  LEU C 508       9.961  22.899   5.126  1.00 32.20 LIG 0.18  C 
BRANCH 17 18
ATOM     18  CB  LEU C 508      10.599  23.527   3.895  1.00 32.28 LIG 0.04  C 
BRANCH 18 19
ATOM     19  CG  LEU C 508       9.558  24.358   3.155  1.00 33.09 LIG-0.02  C 
ATOM     20  CD1 LEU C 508      10.019  24.648   1.759  1.00 32.61 LIG 0.01  C 
ATOM     21  CD2 LEU C 508       8.213  23.647   3.192  1.00 34.13 LIG 0.01  C 
ENDBRANCH 18 19
ENDBRANCH 17 18
BRANCH 17 22
ATOM     22  C   LEU C 508      10.896  21.869   5.733  1.00 33.63 LIG 0.20  C 
ATOM     23 O    LEU C 508      11.499  21.094   4.960  0.50 32.81 LIG-0.65  OA
ATOM     24 OXT  LEU C 508      11.016  21.845   6.975  0.50 35.17 LIG-0.65  OA
ENDBRANCH 17 22
ENDBRANCH 15 17
ENDBRANCH 1 13
BRANCH 1 25
ATOM     25  CB  ASP C 507       9.649  25.256   8.782  1.00 31.02 LIG 0.15  C 
BRANCH 25 26
ATOM     26  CG  ASP C 507       8.361  25.733   9.419  1.00 34.22 LIG 0.17  C 
ATOM     27 OD2  ASP C 507       7.346  25.002   9.375  1.00 32.29 LIG-0.65  OA
ATOM     28 OD1  ASP C 507       8.356  26.869   9.930  1.00 33.73 LIG-0.65  OA
ENDBRANCH 25 26
ENDBRANCH 1 25
TORSDOF 12
ENDMDL
MODEL 20
USER: ADFR SOLUTION from run 30
USER: SCORE 10.402179 LL:  -2.352 LR:  -8.327 RR:   0.000 FEB:  -4.747
USER: RMSD 3.746914
USER: SEED 29
USER: STATUS no improvement in best in 13 clusters for 5 generations
USER: GENES 14
USER: genes 0 Translation |==|  0.50828 0.56265 0.59692
USER: genes 1 Rotation |==|  0.47239 0.58280 0.45126 0.98990
USER: genes 2 Torsion [C]-CA--N-[C] |==|  0.64079
USER: genes 3 Torsion [N]-C--CA-[N] |==|  0.82186
USER: genes 4 Torsion [C]-CA--CB-[CG] |==|  0.42209
USER: genes 5 Torsion [CA]-CB--CG-[CD] |==|  0.20648
USER: genes 6 Torsion [CB]-CG--CD-[OE1] |==|  0.00219
USER: genes 7 Torsion [N]-CA--C-[N] |==|  0.30611
USER: genes 8 Torsion [C]-N--CA-[CB] |==|  0.83599
USER: genes 9 Torsion [N]-CA--CB-[CG] |==|  0.76517
USER: genes 10 Torsion [CA]-CB--CG-[CD1] |==|  0.21712
USER: genes 11 Torsion [N]-CA--C-[O] |==|  0.59440
USER: genes 12 Torsion [N]-CA--CB-[CG] |==|  0.88943
USER: genes 13 Torsion [CA]-CB--CG-[OD2] |==|  0.32052
ROOT
ATOM      1  CA  ASP C 507       9.367  26.176   6.360  1.00 33.68 LIG 0.19  C 
ENDROOT
BRANCH 1 2
ATOM      2  N   ASP C 507       7.914  26.225   6.452  1.00 35.05 LIG-0.34  N 
ATOM      3  C   GLU C 506       7.207  27.241   5.971  1.00 36.98 LIG 0.26  C 
ATOM      4 O    GLU C 506       7.725  28.236   5.452  1.00 35.33 LIG-0.27  OA
ATOM      5 H    ASP C 507       7.563  25.543   6.842  1.00 35.05 LIG 0.16  HD
BRANCH 3 6
ATOM      6  CA  GLU C 506       5.693  27.144   6.151  1.00 38.62 LIG 0.40  C 
ATOM      7  N   GLU C 506       5.155  25.986   5.386  1.00 38.98 LIG 0.61  N 
BRANCH 6 8
ATOM      8  CB  GLU C 506       5.326  27.029   7.632  1.00 41.41 LIG 0.06  C 
BRANCH 8 9
ATOM      9  CG  GLU C 506       3.956  27.584   7.972  1.00 54.63 LIG 0.12  C 
BRANCH 9 10
ATOM     10  CD  GLU C 506       2.822  26.688   7.515  1.00 71.07 LIG 0.17  C 
ATOM     11 OE1  GLU C 506       3.100  25.611   6.938  1.00 74.77 LIG-0.65  OA
ATOM     12 OE2  GLU C 506       1.649  27.058   7.749  1.00 73.38 LIG-0.65  OA
ENDBRANCH 9 10
ENDBRANCH 8 9
ENDBRANCH 6 8
ENDBRANCH 3 6
ENDBRANCH 1 2
BRANCH 1 13
ATOM     13  C   ASP C 507       9.776  24.835   5.776  1.00 33.47 LIG 0.24  C 
ATOM     14 O    ASP C 507       9.601  23.791   6.408  1.00 34.83 LIG-0.27  OA
ATOM     15  N   LEU C 508      10.278  24.876   4.545  1.00 31.65 LIG-0.34  N 
ATOM     16 H    LEU C 508      10.392  25.604   4.100  1.00 31.65 LIG 0.16  HD
BRANCH 15 17
ATOM     17  CA  LEU C 508      10.685  23.673   3.833  1.00 32.20 LIG 0.18  C 
BRANCH 17 18
ATOM     18  CB  LEU C 508      11.761  22.957   4.637  1.00 32.28 LIG 0.04  C 
BRANCH 18 19
ATOM     19  CG  LEU C 508      13.122  23.564   4.314  1.00 33.09 LIG-0.02  C 
ATOM     20  CD1 LEU C 508      13.300  24.861   5.043  1.00 32.61 LIG 0.01  C 
ATOM     21  CD2 LEU C 508      14.220  22.559   4.628  1.00 34.13 LIG 0.01  C 
ENDBRANCH 18 19
ENDBRANCH 17 18
BRANCH 17 22
ATOM     22  C   LEU C 508       9.530  22.731   3.548  1.00 33.63 LIG 0.20  C 
ATOM     23 O    LEU C 508       9.757  21.502   3.562  0.50 32.81 LIG-0.65  OA
ATOM     24 OXT  LEU C 508       8.411  23.230   3.311  0.50 35.17 LIG-0.65  OA
ENDBRANCH 17 22
ENDBRANCH 15 17
ENDBRANCH 1 13
BRANCH 1 25
ATOM     25  CB  ASP C 507       9.979  26.394   7.741  1.00 31.02 LIG 0.15  C 
BRANCH 25 26
ATOM     26  CG  ASP C 507       9.239  27.455   8.529  1.00 34.22 LIG 0.17  C 
ATOM     27 OD2  ASP C 507       8.638  27.133   9.579  1.00 32.29 LIG-0.65  OA
ATOM     28 OD1  ASP C 507       9.224  28.611   8.067  1.00 33.73 LIG-0.65  OA
ENDBRANCH 25 26
ENDBRANCH 1 25
TORSDOF 12
ENDMDL
MODEL 21
USER: ADFR SOLUTION from run 1
USER: SCORE 10.373895 LL:  -2.138 LR:  -8.321 RR:   0.000 FEB:  -4.741
USER: RMSD 3.136608
USER: SEED 563398
USER: STATUS no improvement in best in 8 clusters for 5 generations
USER: GENES 14
USER: genes 0 Translation |==|  0.50182 0.55272 0.62936
USER: genes 1 Rotation |==|  0.46316 0.54725 0.43188 0.99170
USER: genes 2 Torsion [C]-CA--N-[C] |==|  0.62990
USER: genes 3 Torsion [N]-C--CA-[N] |==|  0.42121
USER: genes 4 Torsion [C]-CA--CB-[CG] |==|  0.70147
USER: genes 5 Torsion [CA]-CB--CG-[CD] |==|  0.77188
USER: genes 6 Torsion [CB]-CG--CD-[OE1] |==|  0.55854
USER: genes 7 Torsion [N]-CA--C-[N] |==|  0.44444
USER: genes 8 Torsion [C]-N--CA-[CB] |==|  0.47188
USER: genes 9 Torsion [N]-CA--CB-[CG] |==|  0.45691
USER: genes 10 Torsion [CA]-CB--CG-[CD1] |==|  0.28308
USER: genes 11 Torsion [N]-CA--C-[O] |==|  0.81683
USER: genes 12 Torsion [N]-CA--CB-[CG] |==|  0.86880
USER: genes 13 Torsion [CA]-CB--CG-[OD2] |==|  0.33727
ROOT
ATOM      1  CA  ASP C 507       9.255  26.027   6.919  1.00 33.68 LIG 0.19  C 
ENDROOT
BRANCH 1 2
ATOM      2  N   ASP C 507       7.810  26.164   6.800  1.00 35.05 LIG-0.34  N 
ATOM      3  C   GLU C 506       7.243  27.222   6.232  1.00 36.98 LIG 0.26  C 
ATOM      4 O    GLU C 506       7.889  28.185   5.804  1.00 35.33 LIG-0.27  OA
ATOM      5 H    ASP C 507       7.366  25.505   7.128  1.00 35.05 LIG 0.16  HD
BRANCH 3 6
ATOM      6  CA  GLU C 506       5.716  27.217   6.190  1.00 38.62 LIG 0.40  C 
ATOM      7  N   GLU C 506       5.195  28.610   6.195  1.00 38.98 LIG 0.61  N 
BRANCH 6 8
ATOM      8  CB  GLU C 506       5.206  26.456   4.963  1.00 41.41 LIG 0.06  C 
BRANCH 8 9
ATOM      9  CG  GLU C 506       4.625  27.347   3.883  1.00 54.63 LIG 0.12  C 
BRANCH 9 10
ATOM     10  CD  GLU C 506       3.187  27.745   4.150  1.00 71.07 LIG 0.17  C 
ATOM     11 OE1  GLU C 506       2.478  28.123   3.189  1.00 74.77 LIG-0.65  OA
ATOM     12 OE2  GLU C 506       2.763  27.662   5.326  1.00 73.38 LIG-0.65  OA
ENDBRANCH 9 10
ENDBRANCH 8 9
ENDBRANCH 6 8
ENDBRANCH 3 6
ENDBRANCH 1 2
BRANCH 1 13
ATOM     13  C   ASP C 507       9.653  24.629   6.478  1.00 33.47 LIG 0.24  C 
ATOM     14 O    ASP C 507       8.816  23.727   6.410  1.00 34.83 LIG-0.27  OA
ATOM     15  N   LEU C 508      10.929  24.478   6.136  1.00 31.65 LIG-0.34  N 
ATOM     16 H    LEU C 508      11.512  25.110   6.175  1.00 31.65 LIG 0.16  HD
BRANCH 15 17
ATOM     17  CA  LEU C 508      11.459  23.210   5.659  1.00 32.20 LIG 0.18  C 
BRANCH 17 18
ATOM     18  CB  LEU C 508      12.866  23.426   5.119  1.00 32.28 LIG 0.04  C 
BRANCH 18 19
ATOM     19  CG  LEU C 508      13.566  22.079   4.978  1.00 33.09 LIG-0.02  C 
ATOM     20  CD1 LEU C 508      13.567  21.639   3.546  1.00 32.61 LIG 0.01  C 
ATOM     21  CD2 LEU C 508      14.967  22.166   5.566  1.00 34.13 LIG 0.01  C 
ENDBRANCH 18 19
ENDBRANCH 17 18
BRANCH 17 22
ATOM     22  C   LEU C 508      11.468  22.129   6.724  1.00 33.63 LIG 0.20  C 
ATOM     23 O    LEU C 508      12.221  22.282   7.710  0.50 32.81 LIG-0.65  OA
ATOM     24 OXT  LEU C 508      10.725  21.140   6.563  0.50 35.17 LIG-0.65  OA
ENDBRANCH 17 22
ENDBRANCH 15 17
ENDBRANCH 1 13
BRANCH 1 25
ATOM     25  CB  ASP C 507       9.683  26.301   8.359  1.00 31.02 LIG 0.15  C 
BRANCH 25 26
ATOM     26  CG  ASP C 507       9.046  27.560   8.910  1.00 34.22 LIG 0.17  C 
ATOM     27 OD2  ASP C 507       8.334  27.489   9.938  1.00 32.29 LIG-0.65  OA
ATOM     28 OD1  ASP C 507       9.225  28.620   8.282  1.00 33.73 LIG-0.65  OA
ENDBRANCH 25 26
ENDBRANCH 1 25
TORSDOF 12
ENDMDL
MODEL 22
USER: ADFR SOLUTION from run 165
USER: SCORE 10.514797 LL:  -2.381 LR:  -8.259 RR:   0.000 FEB:  -4.679
USER: RMSD 3.955269
USER: SEED 164
USER: STATUS no improvement in best in 9 clusters for 5 generations
USER: GENES 14
USER: genes 0 Translation |==|  0.49418 0.51438 0.49657
USER: genes 1 Rotation |==|  0.49959 0.66841 0.42666 0.96504
USER: genes 2 Torsion [C]-CA--N-[C] |==|  0.55887
USER: genes 3 Torsion [N]-C--CA-[N] |==|  0.37280
USER: genes 4 Torsion [C]-CA--CB-[CG] |==|  0.42585
USER: genes 5 Torsion [CA]-CB--CG-[CD] |==|  0.98897
USER: genes 6 Torsion [CB]-CG--CD-[OE1] |==|  0.19642
USER: genes 7 Torsion [N]-CA--C-[N] |==|  0.45480
USER: genes 8 Torsion [C]-N--CA-[CB] |==|  0.79929
USER: genes 9 Torsion [N]-CA--CB-[CG] |==|  0.87076
USER: genes 10 Torsion [CA]-CB--CG-[CD1] |==|  0.37298
USER: genes 11 Torsion [N]-CA--C-[O] |==|  0.53215
USER: genes 12 Torsion [N]-CA--CB-[CG] |==|  0.11503
USER: genes 13 Torsion [CA]-CB--CG-[OD2] |==|  0.23609
ROOT
ATOM      1  CA  ASP C 507       9.124  25.452   4.629  1.00 33.68 LIG 0.19  C 
ENDROOT
BRANCH 1 2
ATOM      2  N   ASP C 507       7.805  25.662   5.211  1.00 35.05 LIG-0.34  N 
ATOM      3  C   GLU C 506       7.390  26.858   5.611  1.00 36.98 LIG 0.26  C 
ATOM      4 O    GLU C 506       8.099  27.869   5.564  1.00 35.33 LIG-0.27  OA
ATOM      5 H    ASP C 507       7.329  24.949   5.269  1.00 35.05 LIG 0.16  HD
BRANCH 3 6
ATOM      6  CA  GLU C 506       5.983  26.911   6.204  1.00 38.62 LIG 0.40  C 
ATOM      7  N   GLU C 506       5.980  27.713   7.458  1.00 38.98 LIG 0.61  N 
BRANCH 6 8
ATOM      8  CB  GLU C 506       4.986  27.486   5.195  1.00 41.41 LIG 0.06  C 
BRANCH 8 9
ATOM      9  CG  GLU C 506       3.560  27.013   5.399  1.00 54.63 LIG 0.12  C 
BRANCH 9 10
ATOM     10  CD  GLU C 506       3.427  25.988   6.508  1.00 71.07 LIG 0.17  C 
ATOM     11 OE1  GLU C 506       3.577  26.361   7.694  1.00 74.77 LIG-0.65  OA
ATOM     12 OE2  GLU C 506       3.156  24.808   6.188  1.00 73.38 LIG-0.65  OA
ENDBRANCH 9 10
ENDBRANCH 8 9
ENDBRANCH 6 8
ENDBRANCH 3 6
ENDBRANCH 1 2
BRANCH 1 13
ATOM     13  C   ASP C 507       9.103  24.167   3.820  1.00 33.47 LIG 0.24  C 
ATOM     14 O    ASP C 507       8.177  23.361   3.938  1.00 34.83 LIG-0.27  OA
ATOM     15  N   LEU C 508      10.110  24.012   2.965  1.00 31.65 LIG-0.34  N 
ATOM     16 H    LEU C 508      10.751  24.579   2.875  1.00 31.65 LIG 0.16  HD
BRANCH 15 17
ATOM     17  CA  LEU C 508      10.215  22.852   2.093  1.00 32.20 LIG 0.18  C 
BRANCH 17 18
ATOM     18  CB  LEU C 508      10.596  21.635   2.924  1.00 32.28 LIG 0.04  C 
BRANCH 18 19
ATOM     19  CG  LEU C 508      11.744  22.000   3.859  1.00 33.09 LIG-0.02  C 
ATOM     20  CD1 LEU C 508      11.474  21.486   5.241  1.00 32.61 LIG 0.01  C 
ATOM     21  CD2 LEU C 508      13.056  21.484   3.287  1.00 34.13 LIG 0.01  C 
ENDBRANCH 18 19
ENDBRANCH 17 18
BRANCH 17 22
ATOM     22  C   LEU C 508       8.943  22.575   1.313  1.00 33.63 LIG 0.20  C 
ATOM     23 O    LEU C 508       8.849  21.486   0.708  0.50 32.81 LIG-0.65  OA
ATOM     24 OXT  LEU C 508       8.053  23.451   1.313  0.50 35.17 LIG-0.65  OA
ENDBRANCH 17 22
ENDBRANCH 15 17
ENDBRANCH 1 13
BRANCH 1 25
ATOM     25  CB  ASP C 507      10.174  25.399   5.736  1.00 31.02 LIG 0.15  C 
BRANCH 25 26
ATOM     26  CG  ASP C 507       9.694  24.608   6.936  1.00 34.22 LIG 0.17  C 
ATOM     27 OD2  ASP C 507       9.827  23.363   6.944  1.00 32.29 LIG-0.65  OA
ATOM     28 OD1  ASP C 507       9.139  25.237   7.856  1.00 33.73 LIG-0.65  OA
ENDBRANCH 25 26
ENDBRANCH 1 25
TORSDOF 12
ENDMDL
MODEL 23
USER: ADFR SOLUTION from run 7
USER: SCORE 9.752022 LL:  -1.976 LR:  -8.261 RR:   0.000 FEB:  -4.682
USER: RMSD 2.318555
USER: SEED 452692
USER: STATUS no improvement in best in 7 clusters for 5 generations
USER: GENES 14
USER: genes 0 Translation |==|  0.48301 0.53970 0.61021
USER: genes 1 Rotation |==|  0.46478 0.40470 0.38460 0.97577
USER: genes 2 Torsion [C]-CA--N-[C] |==|  0.64288
USER: genes 3 Torsion [N]-C--CA-[N] |==|  0.52730
USER: genes 4 Torsion [C]-CA--CB-[CG] |==|  0.86780
USER: genes 5 Torsion [CA]-CB--CG-[CD] |==|  0.48580
USER: genes 6 Torsion [CB]-CG--CD-[OE1] |==|  0.34660
USER: genes 7 Torsion [N]-CA--C-[N] |==|  0.22097
USER: genes 8 Torsion [C]-N--CA-[CB] |==|  0.49332
USER: genes 9 Torsion [N]-CA--CB-[CG] |==|  0.81473
USER: genes 10 Torsion [CA]-CB--CG-[CD1] |==|  0.34650
USER: genes 11 Torsion [N]-CA--C-[O] |==|  0.42780
USER: genes 12 Torsion [N]-CA--CB-[CG] |==|  0.74469
USER: genes 13 Torsion [CA]-CB--CG-[OD2] |==|  0.17789
ROOT
ATOM      1  CA  ASP C 507       8.931  25.832   6.589  1.00 33.68 LIG 0.19  C 
ENDROOT
BRANCH 1 2
ATOM      2  N   ASP C 507       7.825  26.124   5.687  1.00 35.05 LIG-0.34  N 
ATOM      3  C   GLU C 506       7.881  27.101   4.790  1.00 36.98 LIG 0.26  C 
ATOM      4 O    GLU C 506       8.849  27.861   4.681  1.00 35.33 LIG-0.27  OA
ATOM      5 H    ASP C 507       7.142  25.610   5.791  1.00 35.05 LIG 0.16  HD
BRANCH 3 6
ATOM      6  CA  GLU C 506       6.636  27.281   3.923  1.00 38.62 LIG 0.40  C 
ATOM      7  N   GLU C 506       6.912  28.236   2.816  1.00 38.98 LIG 0.61  N 
BRANCH 6 8
ATOM      8  CB  GLU C 506       6.156  25.938   3.369  1.00 41.41 LIG 0.06  C 
BRANCH 8 9
ATOM      9  CG  GLU C 506       7.259  25.093   2.761  1.00 54.63 LIG 0.12  C 
BRANCH 9 10
ATOM     10  CD  GLU C 506       6.785  23.719   2.330  1.00 71.07 LIG 0.17  C 
ATOM     11 OE1  GLU C 506       6.974  23.361   1.145  1.00 74.77 LIG-0.65  OA
ATOM     12 OE2  GLU C 506       6.236  22.991   3.188  1.00 73.38 LIG-0.65  OA
ENDBRANCH 9 10
ENDBRANCH 8 9
ENDBRANCH 6 8
ENDBRANCH 3 6
ENDBRANCH 1 2
BRANCH 1 13
ATOM     13  C   ASP C 507       9.254  24.350   6.505  1.00 33.47 LIG 0.24  C 
ATOM     14 O    ASP C 507       8.817  23.560   7.344  1.00 34.83 LIG-0.27  OA
ATOM     15  N   LEU C 508       9.984  23.982   5.456  1.00 31.65 LIG-0.34  N 
ATOM     16 H    LEU C 508      10.282  24.532   4.865  1.00 31.65 LIG 0.16  HD
BRANCH 15 17
ATOM     17  CA  LEU C 508      10.349  22.594   5.214  1.00 32.20 LIG 0.18  C 
BRANCH 17 18
ATOM     18  CB  LEU C 508      11.129  22.502   3.910  1.00 32.28 LIG 0.04  C 
BRANCH 18 19
ATOM     19  CG  LEU C 508      10.210  22.853   2.745  1.00 33.09 LIG-0.02  C 
ATOM     20  CD1 LEU C 508      10.798  23.968   1.935  1.00 32.61 LIG 0.01  C 
ATOM     21  CD2 LEU C 508       9.934  21.608   1.916  1.00 34.13 LIG 0.01  C 
ENDBRANCH 18 19
ENDBRANCH 17 18
BRANCH 17 22
ATOM     22  C   LEU C 508      11.151  21.983   6.348  1.00 33.63 LIG 0.20  C 
ATOM     23 O    LEU C 508      11.099  20.744   6.504  0.50 32.81 LIG-0.65  OA
ATOM     24 OXT  LEU C 508      11.823  22.748   7.070  0.50 35.17 LIG-0.65  OA
ENDBRANCH 17 22
ENDBRANCH 15 17
ENDBRANCH 1 13
BRANCH 1 25
ATOM     25  CB  ASP C 507       8.559  26.242   8.012  1.00 31.02 LIG 0.15  C 
BRANCH 25 26
ATOM     26  CG  ASP C 507       8.990  27.661   8.324  1.00 34.22 LIG 0.17  C 
ATOM     27 OD2  ASP C 507       8.481  28.611   7.688  1.00 32.29 LIG-0.65  OA
ATOM     28 OD1  ASP C 507       9.878  27.818   9.182  1.00 33.73 LIG-0.65  OA
ENDBRANCH 25 26
ENDBRANCH 1 25
TORSDOF 12
ENDMDL
MODEL 24
USER: ADFR SOLUTION from run 116
USER: SCORE 10.300775 LL:  -2.473 LR:  -8.247 RR:   0.000 FEB:  -4.667
USER: RMSD 3.721199
USER: SEED 115
USER: STATUS no improvement in best in 10 clusters for 5 generations
USER: GENES 14
USER: genes 0 Translation |==|  0.50795 0.55161 0.66197
USER: genes 1 Rotation |==|  0.57364 0.39509 0.55066 0.98063
USER: genes 2 Torsion [C]-CA--N-[C] |==|  0.68489
USER: genes 3 Torsion [N]-C--CA-[N] |==|  0.46826
USER: genes 4 Torsion [C]-CA--CB-[CG] |==|  0.43636
USER: genes 5 Torsion [CA]-CB--CG-[CD] |==|  0.08169
USER: genes 6 Torsion [CB]-CG--CD-[OE1] |==|  0.18696
USER: genes 7 Torsion [N]-CA--C-[N] |==|  0.84484
USER: genes 8 Torsion [C]-N--CA-[CB] |==|  0.23406
USER: genes 9 Torsion [N]-CA--CB-[CG] |==|  0.73447
USER: genes 10 Torsion [CA]-CB--CG-[CD1] |==|  0.48663
USER: genes 11 Torsion [N]-CA--C-[O] |==|  0.19379
USER: genes 12 Torsion [N]-CA--CB-[CG] |==|  0.98289
USER: genes 13 Torsion [CA]-CB--CG-[OD2] |==|  0.32825
ROOT
ATOM      1  CA  ASP C 507       9.361  26.010   7.482  1.00 33.68 LIG 0.19  C 
ENDROOT
BRANCH 1 2
ATOM      2  N   ASP C 507       8.330  25.753   6.485  1.00 35.05 LIG-0.34  N 
ATOM      3  C   GLU C 506       7.899  26.693   5.653  1.00 36.98 LIG 0.26  C 
ATOM      4 O    GLU C 506       8.302  27.861   5.688  1.00 35.33 LIG-0.27  OA
ATOM      5 H    ASP C 507       8.032  24.946   6.488  1.00 35.05 LIG 0.16  HD
BRANCH 3 6
ATOM      6  CA  GLU C 506       6.811  26.265   4.670  1.00 38.62 LIG 0.40  C 
ATOM      7  N   GLU C 506       6.228  27.455   3.994  1.00 38.98 LIG 0.61  N 
BRANCH 6 8
ATOM      8  CB  GLU C 506       7.364  25.278   3.639  1.00 41.41 LIG 0.06  C 
BRANCH 8 9
ATOM      9  CG  GLU C 506       6.307  24.401   2.997  1.00 54.63 LIG 0.12  C 
BRANCH 9 10
ATOM     10  CD  GLU C 506       4.948  25.069   2.918  1.00 71.07 LIG 0.17  C 
ATOM     11 OE1  GLU C 506       4.807  26.058   2.163  1.00 74.77 LIG-0.65  OA
ATOM     12 OE2  GLU C 506       4.017  24.590   3.604  1.00 73.38 LIG-0.65  OA
ENDBRANCH 9 10
ENDBRANCH 8 9
ENDBRANCH 6 8
ENDBRANCH 3 6
ENDBRANCH 1 2
BRANCH 1 13
ATOM     13  C   ASP C 507      10.600  25.209   7.124  1.00 33.47 LIG 0.24  C 
ATOM     14 O    ASP C 507      11.698  25.759   7.015  1.00 34.83 LIG-0.27  OA
ATOM     15  N   LEU C 508      10.417  23.899   6.991  1.00 31.65 LIG-0.34  N 
ATOM     16 H    LEU C 508       9.652  23.513   7.076  1.00 31.65 LIG 0.16  HD
BRANCH 15 17
ATOM     17  CA  LEU C 508      11.511  22.990   6.684  1.00 32.20 LIG 0.18  C 
BRANCH 17 18
ATOM     18  CB  LEU C 508      12.224  22.611   7.975  1.00 32.28 LIG 0.04  C 
BRANCH 18 19
ATOM     19  CG  LEU C 508      13.431  23.522   8.170  1.00 33.09 LIG-0.02  C 
ATOM     20  CD1 LEU C 508      14.082  23.247   9.492  1.00 32.61 LIG 0.01  C 
ATOM     21  CD2 LEU C 508      14.390  23.360   7.000  1.00 34.13 LIG 0.01  C 
ENDBRANCH 18 19
ENDBRANCH 17 18
BRANCH 17 22
ATOM     22  C   LEU C 508      11.060  21.740   5.950  1.00 33.63 LIG 0.20  C 
ATOM     23 O    LEU C 508      10.669  21.860   4.769  0.50 32.81 LIG-0.65  OA
ATOM     24 OXT  LEU C 508      11.099  20.654   6.563  0.50 35.17 LIG-0.65  OA
ENDBRANCH 17 22
ENDBRANCH 15 17
ENDBRANCH 1 13
BRANCH 1 25
ATOM     25  CB  ASP C 507       8.840  25.643   8.869  1.00 31.02 LIG 0.15  C 
BRANCH 25 26
ATOM     26  CG  ASP C 507       7.374  25.265   8.843  1.00 34.22 LIG 0.17  C 
ATOM     27 OD2  ASP C 507       7.031  24.111   9.188  1.00 32.29 LIG-0.65  OA
ATOM     28 OD1  ASP C 507       6.565  26.118   8.432  1.00 33.73 LIG-0.65  OA
ENDBRANCH 25 26
ENDBRANCH 1 25
TORSDOF 12
ENDMDL
