MODEL 1
USER: ADFR SOLUTION from run 160
USER: SCORE 20.661736 LL:  -2.638 LR: -20.742 RR:   0.000 FEB: -15.671
USER: RMSD 0.540160
USER: SEED 159
USER: STATUS 1 or 2 clusters left
USER: GENES 19
USER: genes 0 Translation |==|  0.55651 0.49718 0.59643
USER: genes 1 Rotation |==|  0.50659 0.50934 0.46286 0.99849
USER: genes 2 Torsion [C]-N--CA-[CB] |==|  0.23669
USER: genes 3 Torsion [N]-CA--C-[N] |==|  0.41331
USER: genes 4 Torsion [C]-N--CA-[C] |==|  0.55392
USER: genes 5 Torsion [N]-CA--C-[N] |==|  0.45047
USER: genes 6 Torsion [C]-N--CA-[CB] |==|  0.22673
USER: genes 7 Torsion [N]-CA--CB-[OG] |==|  0.53057
USER: genes 8 Torsion [CA]-CB--OG-[HG] |==|  0.07157
USER: genes 9 Torsion [N]-CA--C-[N] |==|  0.39232
USER: genes 10 Torsion [N]-CA--CB-[OG] |==|  0.68376
USER: genes 11 Torsion [CA]-CB--OG-[HG] |==|  0.87818
USER: genes 12 Torsion [N]-C--CA-[N] |==|  0.36447
USER: genes 13 Torsion [C]-CA--CB-[CG1] |==|  0.30328
USER: genes 14 Torsion [C]-CA--N-[C] |==|  0.68088
USER: genes 15 Torsion [N]-C--CA-[N] |==|  0.35653
USER: genes 16 Torsion [C]-CA--CB-[CG2] |==|  0.16827
USER: genes 17 Torsion [CA]-CB--OG1-[HG1] |==|  0.41321
USER: genes 18 Torsion [C]-CA--N-[C] |==|  0.60880
ROOT
ATOM      1  C   VAL B 902      17.196  18.194  31.021  1.00 24.89 LIG 0.24  C 
ATOM      2 O    VAL B 902      17.789  17.115  30.895  1.00 25.21 LIG-0.27  OA
ATOM      3  N   ALA B 903      16.724  18.878  29.984  1.00 23.62 LIG-0.35  N 
ATOM      4 H    ALA B 903      16.288  19.617  30.049  1.00 23.62 LIG 0.16  HD
ENDROOT
BRANCH 3 5
ATOM      5  CA  ALA B 903      16.921  18.402  28.618  1.00 23.36 LIG 0.17  C 
ATOM      6  CB  ALA B 903      15.829  17.407  28.242  1.00 21.10 LIG 0.04  C 
BRANCH 5 7
ATOM      7  C   ALA B 903      16.953  19.544  27.621  1.00 23.23 LIG 0.24  C 
ATOM      8  N   SER B 904      17.719  19.357  26.554  1.00 24.88 LIG-0.34  N 
ATOM      9 H    SER B 904      18.177  18.641  26.417  1.00 24.88 LIG 0.16  HD
ATOM     10 O    ALA B 903      16.309  20.569  27.816  1.00 23.91 LIG-0.27  OA
BRANCH 8 11
ATOM     11  CA  SER B 904      17.857  20.357  25.502  1.00 25.49 LIG 0.20  C 
BRANCH 11 12
ATOM     12  C   SER B 904      18.374  19.706  24.248  1.00 23.47 LIG 0.24  C 
ATOM     13 O    SER B 904      18.942  18.615  24.291  1.00 24.04 LIG-0.27  OA
ATOM     14  N   SER B 905      18.197  20.405  23.137  1.00 22.08 LIG-0.34  N 
ATOM     15 H    SER B 905      17.806  21.172  23.119  1.00 22.08 LIG 0.16  HD
BRANCH 14 16
ATOM     16  CA  SER B 905      18.645  19.947  21.835  1.00 21.44 LIG 0.20  C 
BRANCH 16 17
ATOM     17  CB  SER B 905      17.634  18.967  21.251  1.00 20.37 LIG 0.20  C 
BRANCH 17 18
ATOM     18 OG   SER B 905      18.178  18.331  20.115  1.00 31.40 LIG-0.40  OA
ATOM     19 HG   SER B 905      19.016  18.325  20.171  1.00 31.40 LIG 0.21  HD
ENDBRANCH 17 18
ENDBRANCH 16 17
BRANCH 16 20
ATOM     20  C   SER B 905      18.784  21.154  20.915  1.00 23.32 LIG 0.29  C 
ATOM     21 O    SER B 905      18.181  22.202  21.241  1.00 21.70 LIG-0.27  OA
ATOM     22  N   NH2 B 906      19.767  21.282  20.038  1.00 25.92 LIG-0.11  N 
ENDBRANCH 16 20
ENDBRANCH 14 16
ENDBRANCH 11 12
BRANCH 11 23
ATOM     23  CB  SER B 904      18.838  21.462  25.905  1.00 30.40 LIG 0.20  C 
BRANCH 23 24
ATOM     24 OG   SER B 904      18.183  22.706  26.054  1.00 44.87 LIG-0.40  OA
ATOM     25 HG   SER B 904      17.648  22.820  25.417  1.00 44.87 LIG 0.21  HD
ENDBRANCH 23 24
ENDBRANCH 11 23
ENDBRANCH 8 11
ENDBRANCH 5 7
ENDBRANCH 3 5
BRANCH 1 26
ATOM     26  CA  VAL B 902      16.919  18.771  32.415  1.00 24.94 LIG 0.18  C 
BRANCH 26 27
ATOM     27  CB  VAL B 902      18.228  19.346  33.017  1.00 27.11 LIG 0.01  C 
ATOM     28  CG1 VAL B 902      18.158  20.863  33.054  1.00 30.95 LIG 0.01  C 
ATOM     29  CG2 VAL B 902      18.454  18.804  34.421  1.00 30.50 LIG 0.01  C 
ENDBRANCH 26 27
BRANCH 26 30
ATOM     30  N   VAL B 902      16.402  17.644  33.180  1.00 21.31 LIG-0.35  N 
ATOM     31  C   THR B 901      15.161  17.615  33.642  1.00 21.82 LIG 0.24  C 
ATOM     32 O    THR B 901      14.384  18.564  33.538  1.00 23.34 LIG-0.27  OA
ATOM     33 H    VAL B 902      16.970  17.010  33.301  1.00 21.31 LIG 0.16  HD
BRANCH 31 34
ATOM     34  CA  THR B 901      14.756  16.336  34.369  1.00 22.53 LIG 0.20  C 
BRANCH 34 35
ATOM     35  CB  THR B 901      13.765  15.553  33.459  1.00 20.33 LIG 0.15  C 
ATOM     36  CG2 THR B 901      14.411  15.177  32.127  1.00 17.30 LIG 0.04  C 
BRANCH 35 37
ATOM     37 OG1  THR B 901      13.340  14.359  34.123  1.00 21.41 LIG-0.39  OA
ATOM     38 HG1  THR B 901      12.556  14.170  33.887  1.00 21.41 LIG 0.21  HD
ENDBRANCH 35 37
ENDBRANCH 34 35
BRANCH 34 39
ATOM     39  N   THR B 901      14.177  16.611  35.681  1.00 24.74 LIG-0.35  N 
ATOM     40 H    THR B 901      13.662  17.300  35.704  1.00 24.74 LIG 0.16  HD
ATOM     41  C   ACE B 900      14.438  15.846  36.736  1.00 23.90 LIG 0.21  C 
ATOM     42  CH3 ACE B 900      13.766  16.253  38.033  1.00 24.26 LIG 0.12  C 
ATOM     43 O    ACE B 900      15.181  14.865  36.687  1.00 24.84 LIG-0.27  OA
ENDBRANCH 34 39
ENDBRANCH 31 34
ENDBRANCH 26 30
ENDBRANCH 1 26
TORSDOF 17
ENDMDL
MODEL 2
USER: ADFR SOLUTION from run 160
USER: SCORE 19.542081 LL:  -2.856 LR: -19.237 RR:   0.000 FEB: -14.166
USER: RMSD 2.034878
USER: SEED 159
USER: STATUS 1 or 2 clusters left
USER: GENES 19
USER: genes 0 Translation |==|  0.55910 0.50389 0.59598
USER: genes 1 Rotation |==|  0.50273 0.51529 0.45560 0.99778
USER: genes 2 Torsion [C]-N--CA-[CB] |==|  0.23743
USER: genes 3 Torsion [N]-CA--C-[N] |==|  0.40975
USER: genes 4 Torsion [C]-N--CA-[C] |==|  0.55103
USER: genes 5 Torsion [N]-CA--C-[N] |==|  0.45052
USER: genes 6 Torsion [C]-N--CA-[CB] |==|  0.22372
USER: genes 7 Torsion [N]-CA--CB-[OG] |==|  0.52283
USER: genes 8 Torsion [CA]-CB--OG-[HG] |==|  0.07010
USER: genes 9 Torsion [N]-CA--C-[N] |==|  0.39404
USER: genes 10 Torsion [N]-CA--CB-[OG] |==|  0.68654
USER: genes 11 Torsion [CA]-CB--OG-[HG] |==|  0.87382
USER: genes 12 Torsion [N]-C--CA-[N] |==|  0.36960
USER: genes 13 Torsion [C]-CA--CB-[CG1] |==|  0.26453
USER: genes 14 Torsion [C]-CA--N-[C] |==|  0.63906
USER: genes 15 Torsion [N]-C--CA-[N] |==|  0.86838
USER: genes 16 Torsion [C]-CA--CB-[CG2] |==|  0.15408
USER: genes 17 Torsion [CA]-CB--OG1-[HG1] |==|  0.57542
USER: genes 18 Torsion [C]-CA--N-[C] |==|  0.83430
ROOT
ATOM      1  C   VAL B 902      17.237  18.304  31.009  1.00 24.89 LIG 0.24  C 
ATOM      2 O    VAL B 902      17.795  17.208  30.884  1.00 25.21 LIG-0.27  OA
ATOM      3  N   ALA B 903      16.758  18.988  29.974  1.00 23.62 LIG-0.35  N 
ATOM      4 H    ALA B 903      16.345  19.739  30.039  1.00 23.62 LIG 0.16  HD
ENDROOT
BRANCH 3 5
ATOM      5  CA  ALA B 903      16.907  18.488  28.611  1.00 23.36 LIG 0.17  C 
ATOM      6  CB  ALA B 903      15.774  17.524  28.274  1.00 21.10 LIG 0.04  C 
BRANCH 5 7
ATOM      7  C   ALA B 903      16.953  19.615  27.598  1.00 23.23 LIG 0.24  C 
ATOM      8  N   SER B 904      17.707  19.398  26.528  1.00 24.88 LIG-0.34  N 
ATOM      9 H    SER B 904      18.151  18.673  26.399  1.00 24.88 LIG 0.16  HD
ATOM     10 O    ALA B 903      16.328  20.654  27.783  1.00 23.91 LIG-0.27  OA
BRANCH 8 11
ATOM     11  CA  SER B 904      17.856  20.381  25.461  1.00 25.49 LIG 0.20  C 
BRANCH 11 12
ATOM     12  C   SER B 904      18.376  19.707  24.220  1.00 23.47 LIG 0.24  C 
ATOM     13 O    SER B 904      18.938  18.615  24.284  1.00 24.04 LIG-0.27  OA
ATOM     14  N   SER B 905      18.209  20.390  23.097  1.00 22.08 LIG-0.34  N 
ATOM     15 H    SER B 905      17.822  21.158  23.065  1.00 22.08 LIG 0.16  HD
BRANCH 14 16
ATOM     16  CA  SER B 905      18.662  19.908  21.805  1.00 21.44 LIG 0.20  C 
BRANCH 16 17
ATOM     17  CB  SER B 905      17.661  18.905  21.244  1.00 20.37 LIG 0.20  C 
BRANCH 17 18
ATOM     18 OG   SER B 905      18.187  18.297  20.084  1.00 31.40 LIG-0.40  OA
ATOM     19 HG   SER B 905      19.026  18.322  20.110  1.00 31.40 LIG 0.21  HD
ENDBRANCH 17 18
ENDBRANCH 16 17
BRANCH 16 20
ATOM     20  C   SER B 905      18.786  21.097  20.860  1.00 23.32 LIG 0.29  C 
ATOM     21 O    SER B 905      18.180  22.149  21.168  1.00 21.70 LIG-0.27  OA
ATOM     22  N   NH2 B 906      19.760  21.212  19.970  1.00 25.92 LIG-0.11  N 
ENDBRANCH 16 20
ENDBRANCH 14 16
ENDBRANCH 11 12
BRANCH 11 23
ATOM     23  CB  SER B 904      18.839  21.487  25.852  1.00 30.40 LIG 0.20  C 
BRANCH 23 24
ATOM     24 OG   SER B 904      18.187  22.732  26.000  1.00 44.87 LIG-0.40  OA
ATOM     25 HG   SER B 904      17.663  22.853  25.355  1.00 44.87 LIG 0.21  HD
ENDBRANCH 23 24
ENDBRANCH 11 23
ENDBRANCH 8 11
ENDBRANCH 5 7
ENDBRANCH 3 5
BRANCH 1 26
ATOM     26  CA  VAL B 902      17.012  18.908  32.400  1.00 24.94 LIG 0.18  C 
BRANCH 26 27
ATOM     27  CB  VAL B 902      18.343  19.496  32.942  1.00 27.11 LIG 0.01  C 
ATOM     28  CG1 VAL B 902      18.413  20.982  32.637  1.00 30.95 LIG 0.01  C 
ATOM     29  CG2 VAL B 902      18.455  19.269  34.442  1.00 30.50 LIG 0.01  C 
ENDBRANCH 26 27
BRANCH 26 30
ATOM     30  N   VAL B 902      16.525  17.796  33.207  1.00 21.31 LIG-0.35  N 
ATOM     31  C   THR B 901      15.434  17.890  33.952  1.00 21.82 LIG 0.24  C 
ATOM     32 O    THR B 901      14.803  18.938  34.089  1.00 23.34 LIG-0.27  OA
ATOM     33 H    VAL B 902      17.006  17.086  33.153  1.00 21.31 LIG 0.16  HD
BRANCH 31 34
ATOM     34  CA  THR B 901      15.024  16.617  34.686  1.00 22.53 LIG 0.20  C 
BRANCH 34 35
ATOM     35  CB  THR B 901      15.977  16.429  35.903  1.00 20.33 LIG 0.15  C 
ATOM     36  CG2 THR B 901      15.973  17.660  36.807  1.00 17.30 LIG 0.04  C 
BRANCH 35 37
ATOM     37 OG1  THR B 901      15.565  15.290  36.667  1.00 21.41 LIG-0.39  OA
ATOM     38 HG1  THR B 901      15.801  15.389  37.467  1.00 21.41 LIG 0.21  HD
ENDBRANCH 35 37
ENDBRANCH 34 35
BRANCH 34 39
ATOM     39  N   THR B 901      15.039  15.450  33.808  1.00 24.74 LIG-0.35  N 
ATOM     40 H    THR B 901      15.573  14.824  34.060  1.00 24.74 LIG 0.16  HD
ATOM     41  C   ACE B 900      14.283  15.384  32.717  1.00 23.90 LIG 0.21  C 
ATOM     42  CH3 ACE B 900      14.404  14.111  31.902  1.00 24.26 LIG 0.12  C 
ATOM     43 O    ACE B 900      13.527  16.291  32.367  1.00 24.84 LIG-0.27  OA
ENDBRANCH 34 39
ENDBRANCH 31 34
ENDBRANCH 26 30
ENDBRANCH 1 26
TORSDOF 17
ENDMDL
