MODEL 1
USER: ADFR SOLUTION from run 38
USER: SCORE 15.044078 LL:  -2.386 LR: -13.798 RR:   0.000 FEB:  -9.622
USER: RMSD 4.467210
USER: SEED 37
USER: STATUS no improvement in best in 13 clusters for 5 generations
USER: GENES 16
USER: genes 0 Translation |==|  0.44201 0.70637 0.64463
USER: genes 1 Rotation |==|  0.64403 0.53709 0.48069 0.97698
USER: genes 2 Torsion [N]-C--CA-[N] |==|  0.53156
USER: genes 3 Torsion [C]-CA--N-[C] |==|  0.37640
USER: genes 4 Torsion [N]-C--CA-[N] |==|  0.79970
USER: genes 5 Torsion [C]-CA--N-[C] |==|  0.59444
USER: genes 6 Torsion [N]-C--CA-[N] |==|  0.67512
USER: genes 7 Torsion [C]-CA--CB-[CG] |==|  0.60837
USER: genes 8 Torsion [CA]-CB--CG-[ND1] |==|  0.87948
USER: genes 9 Torsion [N]-CA--C-[O] |==|  0.86537
USER: genes 10 Torsion [C]-N--CA-[C] |==|  0.83821
USER: genes 11 Torsion [N]-CA--CB-[CG1] |==|  0.33529
USER: genes 12 Torsion [CA]-CB--CG1-[CD1] |==|  0.59123
USER: genes 13 Torsion [N]-CA--C-[N] |==|  0.36132
USER: genes 14 Torsion [C]-N--CA-[CB] |==|  0.93884
USER: genes 15 Torsion [N]-CA--C-[O] |==|  0.00904
ROOT
ATOM      1  C   GLY J 103      56.130  57.049 -10.177  1.00 12.08 LIG 0.24  C 
ATOM      2 O    GLY J 103      56.009  57.875 -11.135  1.00  8.68 LIG-0.27  OA
ATOM      3  N   PRO J 104      57.262  56.943  -9.465  1.00 11.63 LIG-0.34  N 
ATOM      4  CA  PRO J 104      58.414  57.834  -9.650  1.00 13.37 LIG 0.18  C 
ATOM      5  CB  PRO J 104      59.279  57.494  -8.431  1.00 10.19 LIG 0.04  C 
ATOM      6  CG  PRO J 104      59.094  55.986  -8.336  1.00 11.82 LIG 0.02  C 
ATOM      7  CD  PRO J 104      57.569  55.865  -8.505  1.00  8.53 LIG 0.13  C 
ENDROOT
BRANCH 1 8
ATOM      8  CA  GLY J 103      55.069  56.028  -9.811  1.00  6.72 LIG 0.23  C 
BRANCH 8 9
ATOM      9  N   GLY J 103      53.932  55.913 -10.692  1.00  9.69 LIG-0.35  N 
ATOM     10  C   ALA J 102      53.466  54.729 -11.062  1.00  5.22 LIG 0.24  C 
ATOM     11 O    ALA J 102      53.963  53.670 -10.688  1.00 12.11 LIG-0.27  OA
ATOM     12 H    GLY J 103      53.598  56.664 -10.944  1.00  9.69 LIG 0.16  HD
BRANCH 10 13
ATOM     13  CA  ALA J 102      52.236  54.757 -11.986  1.00  8.22 LIG 0.17  C 
ATOM     14  CB  ALA J 102      52.502  55.685 -13.192  1.00 14.95 LIG 0.04  C 
BRANCH 13 15
ATOM     15  N   ALA J 102      50.999  55.154 -11.348  1.00  4.21 LIG-0.35  N 
ATOM     16  C   HIS J 101      49.810  54.659 -11.689  1.00  9.96 LIG 0.26  C 
ATOM     17 O    HIS J 101      49.660  53.817 -12.590  1.00  8.34 LIG-0.27  OA
ATOM     18 H    ALA J 102      51.104  55.740 -10.727  1.00  4.21 LIG 0.16  HD
BRANCH 16 19
ATOM     19  CA  HIS J 101      48.606  55.224 -10.887  1.00  9.34 LIG 0.41  C 
ATOM     20  N   HIS J 101      47.867  54.208 -10.065  1.00 12.44 LIG 0.61  N 
BRANCH 19 21
ATOM     21  CB  HIS J 101      49.053  56.404 -10.021  1.00 10.29 LIG 0.11  C 
BRANCH 21 22
ATOM     22  CG  HIS J 101      48.409  56.431  -8.676  1.00 11.59 LIG 0.06  A 
ATOM     23  CD2 HIS J 101      48.908  56.725  -7.454  1.00 10.25 LIG 0.14  A 
ATOM     24 NE2  HIS J 101      47.867  56.663  -6.563  1.00 11.46 LIG-0.25  NA
ATOM     25  CE1 HIS J 101      46.765  56.334  -7.209  1.00 15.99 LIG 0.23  A 
ATOM     26 ND1  HIS J 101      47.066  56.183  -8.488  1.00 17.50 LIG-0.24  NA
ENDBRANCH 21 22
ENDBRANCH 19 21
ENDBRANCH 16 19
ENDBRANCH 13 15
ENDBRANCH 10 13
ENDBRANCH 8 9
ENDBRANCH 1 8
BRANCH 4 27
ATOM     27  C   PRO J 104      59.179  57.598 -10.967  1.00  7.89 LIG 0.24  C 
ATOM     28 O    PRO J 104      59.515  56.461 -11.317  1.00  6.40 LIG-0.27  OA
ATOM     29  N   ILE J 105      59.418  58.673 -11.720  1.00 10.49 LIG-0.35  N 
ATOM     30 H    ILE J 105      59.145  59.470 -11.548  1.00 10.49 LIG 0.16  HD
BRANCH 29 31
ATOM     31  CA  ILE J 105      60.202  58.528 -12.943  1.00  9.44 LIG 0.18  C 
BRANCH 31 32
ATOM     32  CB  ILE J 105      60.255  59.795 -13.789  1.00  9.59 LIG 0.01  C 
ATOM     33  CG2 ILE J 105      59.405  60.834 -13.156  1.00  7.65 LIG 0.01  C 
BRANCH 32 34
ATOM     34  CG1 ILE J 105      61.678  60.286 -13.994  1.00  8.07 LIG 0.00  C 
ATOM     35  CD1 ILE J 105      61.743  61.765 -14.080  1.00 10.10 LIG 0.01  C 
ENDBRANCH 32 34
ENDBRANCH 31 32
BRANCH 31 36
ATOM     36  C   ILE J 105      61.595  57.958 -12.717  1.00 12.77 LIG 0.24  C 
ATOM     37  N   ALA J 106      61.914  56.934 -13.514  1.00 12.70 LIG-0.34  N 
ATOM     38 H    ALA J 106      61.354  56.633 -14.093  1.00 12.70 LIG 0.16  HD
ATOM     39 O    ILE J 105      62.299  58.389 -11.809  1.00 10.65 LIG-0.27  OA
BRANCH 37 40
ATOM     40  CA  ALA J 106      63.165  56.201 -13.546  1.00 16.79 LIG 0.18  C 
ATOM     41  CB  ALA J 106      64.329  57.013 -12.953  1.00 18.33 LIG 0.04  C 
BRANCH 40 42
ATOM     42  C   ALA J 106      63.075  54.810 -12.943  1.00 17.57 LIG 0.20  C 
ATOM     43 O    ALA J 106      61.936  54.451 -12.559  1.00 21.44 LIG-0.65  OA
ATOM     44 OXT  ALA J 106      64.100  54.091 -12.893  1.00 20.61 LIG-0.65  OA
ENDBRANCH 40 42
ENDBRANCH 37 40
ENDBRANCH 31 36
ENDBRANCH 29 31
ENDBRANCH 4 27
TORSDOF 14
ENDMDL
MODEL 2
USER: ADFR SOLUTION from run 30
USER: SCORE 15.056961 LL:  -2.787 LR: -13.431 RR:   0.000 FEB:  -9.255
USER: RMSD 5.796315
USER: SEED 29
USER: STATUS no improvement in best in 9 clusters for 5 generations
USER: GENES 16
USER: genes 0 Translation |==|  0.43797 0.70315 0.65550
USER: genes 1 Rotation |==|  0.63736 0.54869 0.48273 0.97798
USER: genes 2 Torsion [N]-C--CA-[N] |==|  0.50552
USER: genes 3 Torsion [C]-CA--N-[C] |==|  0.38384
USER: genes 4 Torsion [N]-C--CA-[N] |==|  0.89444
USER: genes 5 Torsion [C]-CA--N-[C] |==|  0.66453
USER: genes 6 Torsion [N]-C--CA-[N] |==|  0.29570
USER: genes 7 Torsion [C]-CA--CB-[CG] |==|  0.33829
USER: genes 8 Torsion [CA]-CB--CG-[ND1] |==|  0.07163
USER: genes 9 Torsion [N]-CA--C-[O] |==|  0.84819
USER: genes 10 Torsion [C]-N--CA-[C] |==|  0.52825
USER: genes 11 Torsion [N]-CA--CB-[CG1] |==|  0.63594
USER: genes 12 Torsion [CA]-CB--CG1-[CD1] |==|  0.02547
USER: genes 13 Torsion [N]-CA--C-[N] |==|  0.41316
USER: genes 14 Torsion [C]-N--CA-[CB] |==|  0.45120
USER: genes 15 Torsion [N]-CA--C-[O] |==|  0.96544
ROOT
ATOM      1  C   GLY J 103      56.027  56.991  -9.997  1.00 12.08 LIG 0.24  C 
ATOM      2 O    GLY J 103      55.846  57.791 -10.969  1.00  8.68 LIG-0.27  OA
ATOM      3  N   PRO J 104      57.191  56.928  -9.332  1.00 11.63 LIG-0.34  N 
ATOM      4  CA  PRO J 104      58.312  57.841  -9.588  1.00 13.37 LIG 0.18  C 
ATOM      5  CB  PRO J 104      59.236  57.551  -8.400  1.00 10.19 LIG 0.04  C 
ATOM      6  CG  PRO J 104      59.091  56.041  -8.261  1.00 11.82 LIG 0.02  C 
ATOM      7  CD  PRO J 104      57.564  55.882  -8.361  1.00  8.53 LIG 0.13  C 
ENDROOT
BRANCH 1 8
ATOM      8  CA  GLY J 103      55.007  55.956  -9.562  1.00  6.72 LIG 0.23  C 
BRANCH 8 9
ATOM      9  N   GLY J 103      53.747  55.935 -10.265  1.00  9.69 LIG-0.35  N 
ATOM     10  C   ALA J 102      53.173  54.792 -10.614  1.00  5.22 LIG 0.24  C 
ATOM     11 O    ALA J 102      53.667  53.695 -10.368  1.00 12.11 LIG-0.27  OA
ATOM     12 H    GLY J 103      53.417  56.711 -10.429  1.00  9.69 LIG 0.16  HD
BRANCH 10 13
ATOM     13  CA  ALA J 102      51.822  54.920 -11.337  1.00  8.22 LIG 0.17  C 
ATOM     14  CB  ALA J 102      52.050  55.117 -12.853  1.00 14.95 LIG 0.04  C 
BRANCH 13 15
ATOM     15  N   ALA J 102      50.961  55.976 -10.848  1.00  4.21 LIG-0.35  N 
ATOM     16  C   HIS J 101      49.740  55.756 -10.362  1.00  9.96 LIG 0.26  C 
ATOM     17 O    HIS J 101      49.232  54.624 -10.293  1.00  8.34 LIG-0.27  OA
ATOM     18 H    ALA J 102      51.312  56.759 -10.900  1.00  4.21 LIG 0.16  HD
BRANCH 16 19
ATOM     19  CA  HIS J 101      48.976  57.026  -9.897  1.00  9.34 LIG 0.41  C 
ATOM     20  N   HIS J 101      47.864  57.458 -10.809  1.00 12.44 LIG 0.61  N 
BRANCH 19 21
ATOM     21  CB  HIS J 101      48.467  56.844  -8.465  1.00 10.29 LIG 0.11  C 
BRANCH 21 22
ATOM     22  CG  HIS J 101      48.972  57.880  -7.519  1.00 11.59 LIG 0.06  A 
ATOM     23  CD2 HIS J 101      49.204  57.834  -6.188  1.00 10.25 LIG 0.14  A 
ATOM     24 NE2  HIS J 101      49.734  59.047  -5.825  1.00 11.46 LIG-0.25  NA
ATOM     25  CE1 HIS J 101      49.817  59.818  -6.892  1.00 15.99 LIG 0.23  A 
ATOM     26 ND1  HIS J 101      49.359  59.138  -7.929  1.00 17.50 LIG-0.24  NA
ENDBRANCH 21 22
ENDBRANCH 19 21
ENDBRANCH 16 19
ENDBRANCH 13 15
ENDBRANCH 10 13
ENDBRANCH 8 9
ENDBRANCH 1 8
BRANCH 4 27
ATOM     27  C   PRO J 104      59.026  57.589 -10.931  1.00  7.89 LIG 0.24  C 
ATOM     28 O    PRO J 104      59.475  56.474 -11.219  1.00  6.40 LIG-0.27  OA
ATOM     29  N   ILE J 105      59.094  58.622 -11.774  1.00 10.49 LIG-0.35  N 
ATOM     30 H    ILE J 105      58.738  59.394 -11.642  1.00 10.49 LIG 0.16  HD
BRANCH 29 31
ATOM     31  CA  ILE J 105      59.822  58.471 -13.030  1.00  9.44 LIG 0.18  C 
BRANCH 31 32
ATOM     32  CB  ILE J 105      59.246  57.395 -13.944  1.00  9.59 LIG 0.01  C 
ATOM     33  CG2 ILE J 105      58.514  58.049 -15.057  1.00  7.65 LIG 0.01  C 
BRANCH 32 34
ATOM     34  CG1 ILE J 105      60.319  56.450 -14.459  1.00  8.07 LIG 0.00  C 
ATOM     35  CD1 ILE J 105      61.618  56.671 -13.779  1.00 10.10 LIG 0.01  C 
ENDBRANCH 32 34
ENDBRANCH 31 32
BRANCH 31 36
ATOM     36  C   ILE J 105      60.033  59.777 -13.781  1.00 12.77 LIG 0.24  C 
ATOM     37  N   ALA J 106      61.156  59.831 -14.501  1.00 12.70 LIG-0.34  N 
ATOM     38 H    ALA J 106      61.706  59.169 -14.514  1.00 12.70 LIG 0.16  HD
ATOM     39 O    ILE J 105      59.243  60.706 -13.639  1.00 10.65 LIG-0.27  OA
BRANCH 37 40
ATOM     40  CA  ALA J 106      61.619  60.928 -15.330  1.00 16.79 LIG 0.18  C 
ATOM     41  CB  ALA J 106      63.119  60.819 -15.654  1.00 18.33 LIG 0.04  C 
BRANCH 40 42
ATOM     42  C   ALA J 106      60.781  61.149 -16.576  1.00 17.57 LIG 0.20  C 
ATOM     43 O    ALA J 106      59.969  60.237 -16.862  1.00 21.44 LIG-0.65  OA
ATOM     44 OXT  ALA J 106      60.905  62.216 -17.223  1.00 20.61 LIG-0.65  OA
ENDBRANCH 40 42
ENDBRANCH 37 40
ENDBRANCH 31 36
ENDBRANCH 29 31
ENDBRANCH 4 27
TORSDOF 14
ENDMDL
MODEL 3
USER: ADFR SOLUTION from run 42
USER: SCORE 15.072390 LL:  -3.006 LR: -13.164 RR:   0.000 FEB:  -8.988
USER: RMSD 5.018326
USER: SEED 41
USER: STATUS no improvement in best in 9 clusters for 5 generations
USER: GENES 16
USER: genes 0 Translation |==|  0.45695 0.70037 0.63963
USER: genes 1 Rotation |==|  0.56670 0.48447 0.46958 0.99435
USER: genes 2 Torsion [N]-C--CA-[N] |==|  0.50406
USER: genes 3 Torsion [C]-CA--N-[C] |==|  0.30753
USER: genes 4 Torsion [N]-C--CA-[N] |==|  0.84808
USER: genes 5 Torsion [C]-CA--N-[C] |==|  0.84469
USER: genes 6 Torsion [N]-C--CA-[N] |==|  0.29597
USER: genes 7 Torsion [C]-CA--CB-[CG] |==|  0.56025
USER: genes 8 Torsion [CA]-CB--CG-[ND1] |==|  0.37941
USER: genes 9 Torsion [N]-CA--C-[O] |==|  0.86280
USER: genes 10 Torsion [C]-N--CA-[C] |==|  0.60666
USER: genes 11 Torsion [N]-CA--CB-[CG1] |==|  0.99172
USER: genes 12 Torsion [CA]-CB--CG1-[CD1] |==|  0.72467
USER: genes 13 Torsion [N]-CA--C-[N] |==|  0.79556
USER: genes 14 Torsion [C]-N--CA-[CB] |==|  0.19043
USER: genes 15 Torsion [N]-CA--C-[O] |==|  0.01417
ROOT
ATOM      1  C   GLY J 103      56.511  56.941 -10.259  1.00 12.08 LIG 0.24  C 
ATOM      2 O    GLY J 103      56.638  57.413 -11.433  1.00  8.68 LIG-0.27  OA
ATOM      3  N   PRO J 104      57.493  57.021  -9.348  1.00 11.63 LIG-0.34  N 
ATOM      4  CA  PRO J 104      58.746  57.748  -9.580  1.00 13.37 LIG 0.18  C 
ATOM      5  CB  PRO J 104      59.358  57.787  -8.175  1.00 10.19 LIG 0.04  C 
ATOM      6  CG  PRO J 104      59.002  56.403  -7.649  1.00 11.82 LIG 0.02  C 
ATOM      7  CD  PRO J 104      57.522  56.304  -8.059  1.00  8.53 LIG 0.13  C 
ENDROOT
BRANCH 1 8
ATOM      8  CA  GLY J 103      55.302  56.146  -9.801  1.00  6.72 LIG 0.23  C 
BRANCH 8 9
ATOM      9  N   GLY J 103      54.220  55.990 -10.742  1.00  9.69 LIG-0.35  N 
ATOM     10  C   ALA J 102      53.946  54.813 -11.285  1.00  5.22 LIG 0.24  C 
ATOM     11 O    ALA J 102      54.584  53.796 -11.029  1.00 12.11 LIG-0.27  OA
ATOM     12 H    GLY J 103      53.785  56.713 -10.910  1.00  9.69 LIG 0.16  HD
BRANCH 10 13
ATOM     13  CA  ALA J 102      52.751  54.789 -12.254  1.00  8.22 LIG 0.17  C 
ATOM     14  CB  ALA J 102      53.097  55.573 -13.540  1.00 14.95 LIG 0.04  C 
BRANCH 13 15
ATOM     15  N   ALA J 102      51.510  55.298 -11.710  1.00  4.21 LIG-0.35  N 
ATOM     16  C   HIS J 101      50.949  54.820 -10.600  1.00  9.96 LIG 0.26  C 
ATOM     17 O    HIS J 101      51.441  53.891  -9.938  1.00  8.34 LIG-0.27  OA
ATOM     18 H    ALA J 102      51.168  55.938 -12.172  1.00  4.21 LIG 0.16  HD
BRANCH 16 19
ATOM     19  CA  HIS J 101      49.613  55.499 -10.192  1.00  9.34 LIG 0.41  C 
ATOM     20  N   HIS J 101      48.387  54.664 -10.429  1.00 12.44 LIG 0.61  N 
BRANCH 19 21
ATOM     21  CB  HIS J 101      49.678  55.967  -8.736  1.00 10.29 LIG 0.11  C 
BRANCH 21 22
ATOM     22  CG  HIS J 101      48.338  56.151  -8.109  1.00 11.59 LIG 0.06  A 
ATOM     23  CD2 HIS J 101      47.190  56.672  -8.596  1.00 10.25 LIG 0.14  A 
ATOM     24 NE2  HIS J 101      46.234  56.536  -7.621  1.00 11.46 LIG-0.25  NA
ATOM     25  CE1 HIS J 101      46.775  55.959  -6.565  1.00 15.99 LIG 0.23  A 
ATOM     26 ND1  HIS J 101      48.048  55.719  -6.832  1.00 17.50 LIG-0.24  NA
ENDBRANCH 21 22
ENDBRANCH 19 21
ENDBRANCH 16 19
ENDBRANCH 13 15
ENDBRANCH 10 13
ENDBRANCH 8 9
ENDBRANCH 1 8
BRANCH 4 27
ATOM     27  C   PRO J 104      59.690  57.058 -10.586  1.00  7.89 LIG 0.24  C 
ATOM     28 O    PRO J 104      59.970  55.859 -10.481  1.00  6.40 LIG-0.27  OA
ATOM     29  N   ILE J 105      60.147  57.811 -11.589  1.00 10.49 LIG-0.35  N 
ATOM     30 H    ILE J 105      59.924  58.628 -11.737  1.00 10.49 LIG 0.16  HD
BRANCH 29 31
ATOM     31  CA  ILE J 105      61.102  57.238 -12.533  1.00  9.44 LIG 0.18  C 
BRANCH 31 32
ATOM     32  CB  ILE J 105      60.446  56.556 -13.729  1.00  9.59 LIG 0.01  C 
ATOM     33  CG2 ILE J 105      60.977  55.175 -13.847  1.00  7.65 LIG 0.01  C 
BRANCH 32 34
ATOM     34  CG1 ILE J 105      58.930  56.566 -13.630  1.00  8.07 LIG 0.00  C 
ATOM     35  CD1 ILE J 105      58.404  55.274 -13.127  1.00 10.10 LIG 0.01  C 
ENDBRANCH 32 34
ENDBRANCH 31 32
BRANCH 31 36
ATOM     36  C   ILE J 105      62.187  58.207 -12.977  1.00 12.77 LIG 0.24  C 
ATOM     37  N   ALA J 106      61.777  59.150 -13.830  1.00 12.70 LIG-0.34  N 
ATOM     38 H    ALA J 106      60.960  59.178 -14.100  1.00 12.70 LIG 0.16  HD
ATOM     39 O    ILE J 105      63.348  58.044 -12.614  1.00 10.65 LIG-0.27  OA
BRANCH 37 40
ATOM     40  CA  ALA J 106      62.571  60.216 -14.412  1.00 16.79 LIG 0.18  C 
ATOM     41  CB  ALA J 106      63.617  59.683 -15.406  1.00 18.33 LIG 0.04  C 
BRANCH 40 42
ATOM     42  C   ALA J 106      61.743  61.342 -15.003  1.00 17.57 LIG 0.20  C 
ATOM     43 O    ALA J 106      60.503  61.263 -14.830  1.00 21.44 LIG-0.65  OA
ATOM     44 OXT  ALA J 106      62.318  62.291 -15.587  1.00 20.61 LIG-0.65  OA
ENDBRANCH 40 42
ENDBRANCH 37 40
ENDBRANCH 31 36
ENDBRANCH 29 31
ENDBRANCH 4 27
TORSDOF 14
ENDMDL
MODEL 4
USER: ADFR SOLUTION from run 25
USER: SCORE 13.800296 LL:  -3.010 LR: -12.691 RR:   0.000 FEB:  -8.514
USER: RMSD 2.893750
USER: SEED 24
USER: STATUS no improvement in best in 17 clusters for 5 generations
USER: GENES 16
USER: genes 0 Translation |==|  0.45552 0.65748 0.61228
USER: genes 1 Rotation |==|  0.53987 0.45722 0.51623 0.99630
USER: genes 2 Torsion [N]-C--CA-[N] |==|  0.36157
USER: genes 3 Torsion [C]-CA--N-[C] |==|  0.42974
USER: genes 4 Torsion [N]-C--CA-[N] |==|  0.44497
USER: genes 5 Torsion [C]-CA--N-[C] |==|  0.72374
USER: genes 6 Torsion [N]-C--CA-[N] |==|  0.32554
USER: genes 7 Torsion [C]-CA--CB-[CG] |==|  0.21164
USER: genes 8 Torsion [CA]-CB--CG-[ND1] |==|  0.31103
USER: genes 9 Torsion [N]-CA--C-[O] |==|  0.91060
USER: genes 10 Torsion [C]-N--CA-[C] |==|  0.52664
USER: genes 11 Torsion [N]-CA--CB-[CG1] |==|  0.50661
USER: genes 12 Torsion [CA]-CB--CG1-[CD1] |==|  0.21638
USER: genes 13 Torsion [N]-CA--C-[N] |==|  0.85642
USER: genes 14 Torsion [C]-N--CA-[CB] |==|  0.18138
USER: genes 15 Torsion [N]-CA--C-[O] |==|  0.01392
ROOT
ATOM      1  C   GLY J 103      56.475  56.169 -10.710  1.00 12.08 LIG 0.24  C 
ATOM      2 O    GLY J 103      56.682  56.526 -11.913  1.00  8.68 LIG-0.27  OA
ATOM      3  N   PRO J 104      57.299  56.516  -9.710  1.00 11.63 LIG-0.34  N 
ATOM      4  CA  PRO J 104      58.441  57.420  -9.889  1.00 13.37 LIG 0.18  C 
ATOM      5  CB  PRO J 104      58.843  57.716  -8.440  1.00 10.19 LIG 0.04  C 
ATOM      6  CG  PRO J 104      58.643  56.357  -7.783  1.00 11.82 LIG 0.02  C 
ATOM      7  CD  PRO J 104      57.266  55.959  -8.345  1.00  8.53 LIG 0.13  C 
ENDROOT
BRANCH 1 8
ATOM      8  CA  GLY J 103      55.356  55.231 -10.296  1.00  6.72 LIG 0.23  C 
BRANCH 8 9
ATOM      9  N   GLY J 103      54.015  55.588 -10.690  1.00  9.69 LIG-0.35  N 
ATOM     10  C   ALA J 102      53.072  54.668 -10.831  1.00  5.22 LIG 0.24  C 
ATOM     11 O    ALA J 102      53.273  53.472 -10.640  1.00 12.11 LIG-0.27  OA
ATOM     12 H    GLY J 103      53.893  56.429 -10.820  1.00  9.69 LIG 0.16  HD
BRANCH 10 13
ATOM     13  CA  ALA J 102      51.684  55.194 -11.234  1.00  8.22 LIG 0.17  C 
ATOM     14  CB  ALA J 102      50.989  55.841 -10.016  1.00 14.95 LIG 0.04  C 
BRANCH 13 15
ATOM     15  N   ALA J 102      50.798  54.207 -11.815  1.00  4.21 LIG-0.35  N 
ATOM     16  C   HIS J 101      50.605  54.081 -13.127  1.00  9.96 LIG 0.26  C 
ATOM     17 O    HIS J 101      51.165  54.805 -13.967  1.00  8.34 LIG-0.27  OA
ATOM     18 H    ALA J 102      50.408  53.709 -11.232  1.00  4.21 LIG 0.16  HD
BRANCH 16 19
ATOM     19  CA  HIS J 101      49.607  52.965 -13.542  1.00  9.34 LIG 0.41  C 
ATOM     20  N   HIS J 101      48.377  53.456 -14.252  1.00 12.44 LIG 0.61  N 
BRANCH 19 21
ATOM     21  CB  HIS J 101      50.322  51.895 -14.370  1.00 10.29 LIG 0.11  C 
BRANCH 21 22
ATOM     22  CG  HIS J 101      51.165  50.976 -13.553  1.00 11.59 LIG 0.06  A 
ATOM     23  CD2 HIS J 101      52.277  51.202 -12.819  1.00 10.25 LIG 0.14  A 
ATOM     24 NE2  HIS J 101      52.612  50.019 -12.210  1.00 11.46 LIG-0.25  NA
ATOM     25  CE1 HIS J 101      51.743  49.091 -12.563  1.00 15.99 LIG 0.23  A 
ATOM     26 ND1  HIS J 101      50.859  49.643 -13.378  1.00 17.50 LIG-0.24  NA
ENDBRANCH 21 22
ENDBRANCH 19 21
ENDBRANCH 16 19
ENDBRANCH 13 15
ENDBRANCH 10 13
ENDBRANCH 8 9
ENDBRANCH 1 8
BRANCH 4 27
ATOM     27  C   PRO J 104      59.609  56.799 -10.682  1.00  7.89 LIG 0.24  C 
ATOM     28 O    PRO J 104      59.857  55.590 -10.615  1.00  6.40 LIG-0.27  OA
ATOM     29  N   ILE J 105      60.302  57.625 -11.469  1.00 10.49 LIG-0.35  N 
ATOM     30 H    ILE J 105      60.123  58.456 -11.596  1.00 10.49 LIG 0.16  HD
BRANCH 29 31
ATOM     31  CA  ILE J 105      61.465  57.115 -12.188  1.00  9.44 LIG 0.18  C 
BRANCH 31 32
ATOM     32  CB  ILE J 105      61.137  55.987 -13.160  1.00  9.59 LIG 0.01  C 
ATOM     33  CG2 ILE J 105      60.138  56.475 -14.144  1.00  7.65 LIG 0.01  C 
BRANCH 32 34
ATOM     34  CG1 ILE J 105      62.379  55.445 -13.846  1.00  8.07 LIG 0.00  C 
ATOM     35  CD1 ILE J 105      63.147  54.539 -12.957  1.00 10.10 LIG 0.01  C 
ENDBRANCH 32 34
ENDBRANCH 31 32
BRANCH 31 36
ATOM     36  C   ILE J 105      62.297  58.197 -12.861  1.00 12.77 LIG 0.24  C 
ATOM     37  N   ALA J 106      61.603  59.032 -13.638  1.00 12.70 LIG-0.34  N 
ATOM     38 H    ALA J 106      60.754  58.937 -13.742  1.00 12.70 LIG 0.16  HD
ATOM     39 O    ILE J 105      63.518  58.209 -12.730  1.00 10.65 LIG-0.27  OA
BRANCH 37 40
ATOM     40  CA  ALA J 106      62.112  60.163 -14.391  1.00 16.79 LIG 0.18  C 
ATOM     41  CB  ALA J 106      63.076  59.730 -15.509  1.00 18.33 LIG 0.04  C 
BRANCH 40 42
ATOM     42  C   ALA J 106      61.029  61.096 -14.901  1.00 17.57 LIG 0.20  C 
ATOM     43 O    ALA J 106      59.859  60.834 -14.533  1.00 21.44 LIG-0.65  OA
ATOM     44 OXT  ALA J 106      61.345  62.079 -15.613  1.00 20.61 LIG-0.65  OA
ENDBRANCH 40 42
ENDBRANCH 37 40
ENDBRANCH 31 36
ENDBRANCH 29 31
ENDBRANCH 4 27
TORSDOF 14
ENDMDL
MODEL 5
USER: ADFR SOLUTION from run 38
USER: SCORE 13.912044 LL:  -2.656 LR: -12.665 RR:   0.000 FEB:  -8.489
USER: RMSD 4.865512
USER: SEED 37
USER: STATUS no improvement in best in 13 clusters for 5 generations
USER: GENES 16
USER: genes 0 Translation |==|  0.45818 0.70888 0.61598
USER: genes 1 Rotation |==|  0.59803 0.54242 0.44206 0.98501
USER: genes 2 Torsion [N]-C--CA-[N] |==|  0.54459
USER: genes 3 Torsion [C]-CA--N-[C] |==|  0.33927
USER: genes 4 Torsion [N]-C--CA-[N] |==|  0.79444
USER: genes 5 Torsion [C]-CA--N-[C] |==|  0.56769
USER: genes 6 Torsion [N]-C--CA-[N] |==|  0.68251
USER: genes 7 Torsion [C]-CA--CB-[CG] |==|  0.58249
USER: genes 8 Torsion [CA]-CB--CG-[ND1] |==|  0.89445
USER: genes 9 Torsion [N]-CA--C-[O] |==|  0.06556
USER: genes 10 Torsion [C]-N--CA-[C] |==|  0.79109
USER: genes 11 Torsion [N]-CA--CB-[CG1] |==|  0.24350
USER: genes 12 Torsion [CA]-CB--CG1-[CD1] |==|  0.48407
USER: genes 13 Torsion [N]-CA--C-[N] |==|  0.47233
USER: genes 14 Torsion [C]-N--CA-[CB] |==|  0.87306
USER: genes 15 Torsion [N]-CA--C-[O] |==|  0.12686
ROOT
ATOM      1  C   GLY J 103      56.543  57.094 -10.649  1.00 12.08 LIG 0.24  C 
ATOM      2 O    GLY J 103      56.443  57.733 -11.744  1.00  8.68 LIG-0.27  OA
ATOM      3  N   PRO J 104      57.708  56.976  -9.996  1.00 11.63 LIG-0.34  N 
ATOM      4  CA  PRO J 104      58.938  57.656 -10.419  1.00 13.37 LIG 0.18  C 
ATOM      5  CB  PRO J 104      59.854  57.442  -9.208  1.00 10.19 LIG 0.04  C 
ATOM      6  CG  PRO J 104      59.500  56.017  -8.805  1.00 11.82 LIG 0.02  C 
ATOM      7  CD  PRO J 104      57.963  56.069  -8.860  1.00  8.53 LIG 0.13  C 
ENDROOT
BRANCH 1 8
ATOM      8  CA  GLY J 103      55.401  56.311 -10.029  1.00  6.72 LIG 0.23  C 
BRANCH 8 9
ATOM      9  N   GLY J 103      54.230  56.093 -10.843  1.00  9.69 LIG-0.35  N 
ATOM     10  C   ALA J 102      53.795  54.870 -11.109  1.00  5.22 LIG 0.24  C 
ATOM     11 O    ALA J 102      54.349  53.859 -10.688  1.00 12.11 LIG-0.27  OA
ATOM     12 H    GLY J 103      53.856  56.812 -11.129  1.00  9.69 LIG 0.16  HD
BRANCH 10 13
ATOM     13  CA  ALA J 102      52.523  54.789 -11.971  1.00  8.22 LIG 0.17  C 
ATOM     14  CB  ALA J 102      52.678  55.677 -13.226  1.00 14.95 LIG 0.04  C 
BRANCH 13 15
ATOM     15  N   ALA J 102      51.296  55.143 -11.289  1.00  4.21 LIG-0.35  N 
ATOM     16  C   HIS J 101      50.096  54.708 -11.672  1.00  9.96 LIG 0.26  C 
ATOM     17 O    HIS J 101      49.927  53.964 -12.652  1.00  8.34 LIG-0.27  OA
ATOM     18 H    ALA J 102      51.415  55.662 -10.613  1.00  4.21 LIG 0.16  HD
BRANCH 16 19
ATOM     19  CA  HIS J 101      48.907  55.213 -10.811  1.00  9.34 LIG 0.41  C 
ATOM     20  N   HIS J 101      48.189  54.141 -10.041  1.00 12.44 LIG 0.61  N 
BRANCH 19 21
ATOM     21  CB  HIS J 101      49.366  56.337  -9.878  1.00 10.29 LIG 0.11  C 
BRANCH 21 22
ATOM     22  CG  HIS J 101      48.594  56.405  -8.605  1.00 11.59 LIG 0.06  A 
ATOM     23  CD2 HIS J 101      48.972  56.730  -7.348  1.00 10.25 LIG 0.14  A 
ATOM     24 NE2  HIS J 101      47.847  56.701  -6.563  1.00 11.46 LIG-0.25  NA
ATOM     25  CE1 HIS J 101      46.812  56.360  -7.305  1.00 15.99 LIG 0.23  A 
ATOM     26 ND1  HIS J 101      47.236  56.171  -8.544  1.00 17.50 LIG-0.24  NA
ENDBRANCH 21 22
ENDBRANCH 19 21
ENDBRANCH 16 19
ENDBRANCH 13 15
ENDBRANCH 10 13
ENDBRANCH 8 9
ENDBRANCH 1 8
BRANCH 4 27
ATOM     27  C   PRO J 104      59.561  57.075 -11.705  1.00  7.89 LIG 0.24  C 
ATOM     28 O    PRO J 104      58.875  56.451 -12.523  1.00  6.40 LIG-0.27  OA
ATOM     29  N   ILE J 105      60.858  57.318 -11.903  1.00 10.49 LIG-0.35  N 
ATOM     30 H    ILE J 105      61.355  57.802 -11.395  1.00 10.49 LIG 0.16  HD
BRANCH 29 31
ATOM     31  CA  ILE J 105      61.524  56.733 -13.063  1.00  9.44 LIG 0.18  C 
BRANCH 31 32
ATOM     32  CB  ILE J 105      62.766  57.499 -13.505  1.00  9.59 LIG 0.01  C 
ATOM     33  CG2 ILE J 105      62.530  58.952 -13.312  1.00  7.65 LIG 0.01  C 
BRANCH 32 34
ATOM     34  CG1 ILE J 105      64.014  57.033 -12.776  1.00  8.07 LIG 0.00  C 
ATOM     35  CD1 ILE J 105      65.236  57.684 -13.306  1.00 10.10 LIG 0.01  C 
ENDBRANCH 32 34
ENDBRANCH 31 32
BRANCH 31 36
ATOM     36  C   ILE J 105      61.815  55.246 -12.922  1.00 12.77 LIG 0.24  C 
ATOM     37  N   ALA J 106      62.230  54.651 -14.044  1.00 12.70 LIG-0.34  N 
ATOM     38 H    ALA J 106      62.308  55.094 -14.777  1.00 12.70 LIG 0.16  HD
ATOM     39 O    ILE J 105      61.593  54.671 -11.861  1.00 10.65 LIG-0.27  OA
BRANCH 37 40
ATOM     40  CA  ALA J 106      62.596  53.258 -14.216  1.00 16.79 LIG 0.18  C 
ATOM     41  CB  ALA J 106      63.512  52.754 -13.087  1.00 18.33 LIG 0.04  C 
BRANCH 40 42
ATOM     42  C   ALA J 106      61.411  52.337 -14.444  1.00 17.57 LIG 0.20  C 
ATOM     43 O    ALA J 106      60.556  52.735 -15.271  1.00 21.44 LIG-0.65  OA
ATOM     44 OXT  ALA J 106      61.359  51.237 -13.843  1.00 20.61 LIG-0.65  OA
ENDBRANCH 40 42
ENDBRANCH 37 40
ENDBRANCH 31 36
ENDBRANCH 29 31
ENDBRANCH 4 27
TORSDOF 14
ENDMDL
MODEL 6
USER: ADFR SOLUTION from run 74
USER: SCORE 14.751125 LL:  -2.552 LR: -12.648 RR:   0.000 FEB:  -8.472
USER: RMSD 3.100929
USER: SEED 73
USER: STATUS no improvement in best in 6 clusters for 5 generations
USER: GENES 16
USER: genes 0 Translation |==|  0.44561 0.70412 0.65455
USER: genes 1 Rotation |==|  0.63133 0.54819 0.48949 0.97992
USER: genes 2 Torsion [N]-C--CA-[N] |==|  0.46388
USER: genes 3 Torsion [C]-CA--N-[C] |==|  0.36512
USER: genes 4 Torsion [N]-C--CA-[N] |==|  0.45937
USER: genes 5 Torsion [C]-CA--N-[C] |==|  0.75107
USER: genes 6 Torsion [N]-C--CA-[N] |==|  0.92473
USER: genes 7 Torsion [C]-CA--CB-[CG] |==|  0.79326
USER: genes 8 Torsion [CA]-CB--CG-[ND1] |==|  0.08917
USER: genes 9 Torsion [N]-CA--C-[O] |==|  0.88513
USER: genes 10 Torsion [C]-N--CA-[C] |==|  0.83183
USER: genes 11 Torsion [N]-CA--CB-[CG1] |==|  0.31699
USER: genes 12 Torsion [CA]-CB--CG1-[CD1] |==|  0.58038
USER: genes 13 Torsion [N]-CA--C-[N] |==|  0.36124
USER: genes 14 Torsion [C]-N--CA-[CB] |==|  0.94003
USER: genes 15 Torsion [N]-CA--C-[O] |==|  0.00918
ROOT
ATOM      1  C   GLY J 103      56.222  57.008 -10.013  1.00 12.08 LIG 0.24  C 
ATOM      2 O    GLY J 103      56.028  57.781 -11.004  1.00  8.68 LIG-0.27  OA
ATOM      3  N   PRO J 104      57.381  56.993  -9.336  1.00 11.63 LIG-0.34  N 
ATOM      4  CA  PRO J 104      58.478  57.931  -9.602  1.00 13.37 LIG 0.18  C 
ATOM      5  CB  PRO J 104      59.398  57.693  -8.400  1.00 10.19 LIG 0.04  C 
ATOM      6  CG  PRO J 104      59.294  56.184  -8.228  1.00 11.82 LIG 0.02  C 
ATOM      7  CD  PRO J 104      57.773  55.980  -8.338  1.00  8.53 LIG 0.13  C 
ENDROOT
BRANCH 1 8
ATOM      8  CA  GLY J 103      55.227  55.955  -9.564  1.00  6.72 LIG 0.23  C 
BRANCH 8 9
ATOM      9  N   GLY J 103      53.869  56.086 -10.033  1.00  9.69 LIG-0.35  N 
ATOM     10  C   ALA J 102      53.222  55.058 -10.563  1.00  5.22 LIG 0.24  C 
ATOM     11 O    ALA J 102      53.726  53.946 -10.688  1.00 12.11 LIG-0.27  OA
ATOM     12 H    GLY J 103      53.533  56.872  -9.938  1.00  9.69 LIG 0.16  HD
BRANCH 10 13
ATOM     13  CA  ALA J 102      51.774  55.337 -11.000  1.00  8.22 LIG 0.17  C 
ATOM     14  CB  ALA J 102      50.873  55.521  -9.759  1.00 14.95 LIG 0.04  C 
BRANCH 13 15
ATOM     15  N   ALA J 102      51.190  54.334 -11.864  1.00  4.21 LIG-0.35  N 
ATOM     16  C   HIS J 101      51.277  54.375 -13.194  1.00  9.96 LIG 0.26  C 
ATOM     17 O    HIS J 101      51.864  55.282 -13.806  1.00  8.34 LIG-0.27  OA
ATOM     18 H    ALA J 102      50.780  53.709 -11.439  1.00  4.21 LIG 0.16  HD
BRANCH 16 19
ATOM     19  CA  HIS J 101      50.573  53.207 -13.937  1.00  9.34 LIG 0.41  C 
ATOM     20  N   HIS J 101      50.467  51.933 -13.147  1.00 12.44 LIG 0.61  N 
BRANCH 19 21
ATOM     21  CB  HIS J 101      49.197  53.650 -14.439  1.00 10.29 LIG 0.11  C 
BRANCH 21 22
ATOM     22  CG  HIS J 101      48.177  53.761 -13.357  1.00 11.59 LIG 0.06  A 
ATOM     23  CD2 HIS J 101      46.849  53.508 -13.354  1.00 10.25 LIG 0.14  A 
ATOM     24 NE2  HIS J 101      46.399  53.709 -12.073  1.00 11.46 LIG-0.25  NA
ATOM     25  CE1 HIS J 101      47.410  54.084 -11.314  1.00 15.99 LIG 0.23  A 
ATOM     26 ND1  HIS J 101      48.497  54.128 -12.067  1.00 17.50 LIG-0.24  NA
ENDBRANCH 21 22
ENDBRANCH 19 21
ENDBRANCH 16 19
ENDBRANCH 13 15
ENDBRANCH 10 13
ENDBRANCH 8 9
ENDBRANCH 1 8
BRANCH 4 27
ATOM     27  C   PRO J 104      59.212  57.669 -10.933  1.00  7.89 LIG 0.24  C 
ATOM     28 O    PRO J 104      59.479  56.520 -11.302  1.00  6.40 LIG-0.27  OA
ATOM     29  N   ILE J 105      59.501  58.740 -11.676  1.00 10.49 LIG-0.35  N 
ATOM     30 H    ILE J 105      59.275  59.548 -11.490  1.00 10.49 LIG 0.16  HD
BRANCH 29 31
ATOM     31  CA  ILE J 105      60.260  58.567 -12.910  1.00  9.44 LIG 0.18  C 
BRANCH 31 32
ATOM     32  CB  ILE J 105      60.326  59.825 -13.769  1.00  9.59 LIG 0.01  C 
ATOM     33  CG2 ILE J 105      59.386  60.834 -13.218  1.00  7.65 LIG 0.01  C 
BRANCH 32 34
ATOM     34  CG1 ILE J 105      61.739  60.374 -13.870  1.00  8.07 LIG 0.00  C 
ATOM     35  CD1 ILE J 105      61.746  61.843 -14.066  1.00 10.10 LIG 0.01  C 
ENDBRANCH 32 34
ENDBRANCH 31 32
BRANCH 31 36
ATOM     36  C   ILE J 105      61.644  57.967 -12.705  1.00 12.77 LIG 0.24  C 
ATOM     37  N   ALA J 106      61.925  56.930 -13.498  1.00 12.70 LIG-0.34  N 
ATOM     38 H    ALA J 106      61.348  56.637 -14.064  1.00 12.70 LIG 0.16  HD
ATOM     39 O    ILE J 105      62.374  58.391 -11.813  1.00 10.65 LIG-0.27  OA
BRANCH 37 40
ATOM     40  CA  ALA J 106      63.159  56.169 -13.545  1.00 16.79 LIG 0.18  C 
ATOM     41  CB  ALA J 106      64.350  56.955 -12.971  1.00 18.33 LIG 0.04  C 
BRANCH 40 42
ATOM     42  C   ALA J 106      63.046  54.782 -12.938  1.00 17.57 LIG 0.20  C 
ATOM     43 O    ALA J 106      61.905  54.449 -12.538  1.00 21.44 LIG-0.65  OA
ATOM     44 OXT  ALA J 106      64.056  54.040 -12.900  1.00 20.61 LIG-0.65  OA
ENDBRANCH 40 42
ENDBRANCH 37 40
ENDBRANCH 31 36
ENDBRANCH 29 31
ENDBRANCH 4 27
TORSDOF 14
ENDMDL
MODEL 7
USER: ADFR SOLUTION from run 186
USER: SCORE 15.127268 LL:  -3.358 LR: -12.639 RR:   0.000 FEB:  -8.463
USER: RMSD 3.623975
USER: SEED 185
USER: STATUS no improvement in best in 10 clusters for 5 generations
USER: GENES 16
USER: genes 0 Translation |==|  0.42978 0.70257 0.65617
USER: genes 1 Rotation |==|  0.63160 0.53940 0.48388 0.98049
USER: genes 2 Torsion [N]-C--CA-[N] |==|  0.49680
USER: genes 3 Torsion [C]-CA--N-[C] |==|  0.58188
USER: genes 4 Torsion [N]-C--CA-[N] |==|  0.23577
USER: genes 5 Torsion [C]-CA--N-[C] |==|  0.77682
USER: genes 6 Torsion [N]-C--CA-[N] |==|  0.32696
USER: genes 7 Torsion [C]-CA--CB-[CG] |==|  0.09901
USER: genes 8 Torsion [CA]-CB--CG-[ND1] |==|  0.26735
USER: genes 9 Torsion [N]-CA--C-[O] |==|  0.82727
USER: genes 10 Torsion [C]-N--CA-[C] |==|  0.56248
USER: genes 11 Torsion [N]-CA--CB-[CG1] |==|  0.06630
USER: genes 12 Torsion [CA]-CB--CG1-[CD1] |==|  0.67804
USER: genes 13 Torsion [N]-CA--C-[N] |==|  0.37919
USER: genes 14 Torsion [C]-N--CA-[CB] |==|  0.49691
USER: genes 15 Torsion [N]-CA--C-[O] |==|  0.96499
ROOT
ATOM      1  C   GLY J 103      55.818  56.980  -9.986  1.00 12.08 LIG 0.24  C 
ATOM      2 O    GLY J 103      55.676  57.755 -10.984  1.00  8.68 LIG-0.27  OA
ATOM      3  N   PRO J 104      56.956  56.932  -9.277  1.00 11.63 LIG-0.34  N 
ATOM      4  CA  PRO J 104      58.089  57.834  -9.514  1.00 13.37 LIG 0.18  C 
ATOM      5  CB  PRO J 104      58.968  57.572  -8.286  1.00 10.19 LIG 0.04  C 
ATOM      6  CG  PRO J 104      58.813  56.067  -8.114  1.00 11.82 LIG 0.02  C 
ATOM      7  CD  PRO J 104      57.289  55.909  -8.267  1.00  8.53 LIG 0.13  C 
ENDROOT
BRANCH 1 8
ATOM      8  CA  GLY J 103      54.779  55.959  -9.563  1.00  6.72 LIG 0.23  C 
BRANCH 8 9
ATOM      9  N   GLY J 103      53.519  55.970 -10.265  1.00  9.69 LIG-0.35  N 
ATOM     10  C   ALA J 102      52.397  55.587  -9.672  1.00  5.22 LIG 0.24  C 
ATOM     11 O    ALA J 102      52.358  55.203  -8.506  1.00 12.11 LIG-0.27  OA
ATOM     12 H    GLY J 103      53.566  56.241 -11.080  1.00  9.69 LIG 0.16  HD
BRANCH 10 13
ATOM     13  CA  ALA J 102      51.126  55.671 -10.534  1.00  8.22 LIG 0.17  C 
ATOM     14  CB  ALA J 102      49.892  55.907  -9.635  1.00 14.95 LIG 0.04  C 
BRANCH 13 15
ATOM     15  N   ALA J 102      50.882  54.523 -11.380  1.00  4.21 LIG-0.35  N 
ATOM     16  C   HIS J 101      51.493  54.334 -12.550  1.00  9.96 LIG 0.26  C 
ATOM     17 O    HIS J 101      52.322  55.132 -13.017  1.00  8.34 LIG-0.27  OA
ATOM     18 H    ALA J 102      50.304  53.973 -11.057  1.00  4.21 LIG 0.16  HD
BRANCH 16 19
ATOM     19  CA  HIS J 101      51.081  53.042 -13.307  1.00  9.34 LIG 0.41  C 
ATOM     20  N   HIS J 101      50.433  53.276 -14.642  1.00 12.44 LIG 0.61  N 
BRANCH 19 21
ATOM     21  CB  HIS J 101      52.282  52.102 -13.443  1.00 10.29 LIG 0.11  C 
BRANCH 21 22
ATOM     22  CG  HIS J 101      53.192  52.126 -12.262  1.00 11.59 LIG 0.06  A 
ATOM     23  CD2 HIS J 101      54.172  52.987 -11.909  1.00 10.25 LIG 0.14  A 
ATOM     24 NE2  HIS J 101      54.650  52.582 -10.688  1.00 11.46 LIG-0.25  NA
ATOM     25  CE1 HIS J 101      53.996  51.502 -10.305  1.00 15.99 LIG 0.23  A 
ATOM     26 ND1  HIS J 101      53.111  51.202 -11.241  1.00 17.50 LIG-0.24  NA
ENDBRANCH 21 22
ENDBRANCH 19 21
ENDBRANCH 16 19
ENDBRANCH 13 15
ENDBRANCH 10 13
ENDBRANCH 8 9
ENDBRANCH 1 8
BRANCH 4 27
ATOM     27  C   PRO J 104      58.852  57.546 -10.823  1.00  7.89 LIG 0.24  C 
ATOM     28 O    PRO J 104      59.424  56.466 -11.006  1.00  6.40 LIG-0.27  OA
ATOM     29  N   ILE J 105      58.823  58.503 -11.754  1.00 10.49 LIG-0.35  N 
ATOM     30 H    ILE J 105      58.383  59.239 -11.694  1.00 10.49 LIG 0.16  HD
BRANCH 29 31
ATOM     31  CA  ILE J 105      59.586  58.323 -12.985  1.00  9.44 LIG 0.18  C 
BRANCH 31 32
ATOM     32  CB  ILE J 105      58.970  57.311 -13.944  1.00  9.59 LIG 0.01  C 
ATOM     33  CG2 ILE J 105      59.688  56.019 -13.807  1.00  7.65 LIG 0.01  C 
BRANCH 32 34
ATOM     34  CG1 ILE J 105      57.477  57.147 -13.719  1.00  8.07 LIG 0.00  C 
ATOM     35  CD1 ILE J 105      57.135  55.777 -13.268  1.00 10.10 LIG 0.01  C 
ENDBRANCH 32 34
ENDBRANCH 31 32
BRANCH 31 36
ATOM     36  C   ILE J 105      59.921  59.625 -13.698  1.00 12.77 LIG 0.24  C 
ATOM     37  N   ALA J 106      61.174  59.704 -14.155  1.00 12.70 LIG-0.34  N 
ATOM     38 H    ALA J 106      61.731  59.059 -14.034  1.00 12.70 LIG 0.16  HD
ATOM     39 O    ILE J 105      59.094  60.530 -13.752  1.00 10.65 LIG-0.27  OA
BRANCH 37 40
ATOM     40  CA  ALA J 106      61.777  60.804 -14.884  1.00 16.79 LIG 0.18  C 
ATOM     41  CB  ALA J 106      63.254  60.537 -15.220  1.00 18.33 LIG 0.04  C 
BRANCH 40 42
ATOM     42  C   ALA J 106      60.984  61.236 -16.104  1.00 17.57 LIG 0.20  C 
ATOM     43 O    ALA J 106      60.069  60.459 -16.470  1.00 21.44 LIG-0.65  OA
ATOM     44 OXT  ALA J 106      61.244  62.334 -16.653  1.00 20.61 LIG-0.65  OA
ENDBRANCH 40 42
ENDBRANCH 37 40
ENDBRANCH 31 36
ENDBRANCH 29 31
ENDBRANCH 4 27
TORSDOF 14
ENDMDL
MODEL 8
USER: ADFR SOLUTION from run 4
USER: SCORE 14.366140 LL:  -2.447 LR: -12.579 RR:   0.000 FEB:  -8.403
USER: RMSD 2.036269
USER: SEED 960023
USER: STATUS no improvement in best in 9 clusters for 5 generations
USER: GENES 16
USER: genes 0 Translation |==|  0.44450 0.70288 0.65042
USER: genes 1 Rotation |==|  0.63196 0.54559 0.49106 0.98003
USER: genes 2 Torsion [N]-C--CA-[N] |==|  0.48385
USER: genes 3 Torsion [C]-CA--N-[C] |==|  0.36960
USER: genes 4 Torsion [N]-C--CA-[N] |==|  0.50555
USER: genes 5 Torsion [C]-CA--N-[C] |==|  0.77596
USER: genes 6 Torsion [N]-C--CA-[N] |==|  0.26504
USER: genes 7 Torsion [C]-CA--CB-[CG] |==|  0.41922
USER: genes 8 Torsion [CA]-CB--CG-[ND1] |==|  0.31082
USER: genes 9 Torsion [N]-CA--C-[O] |==|  0.88261
USER: genes 10 Torsion [C]-N--CA-[C] |==|  0.83428
USER: genes 11 Torsion [N]-CA--CB-[CG1] |==|  0.32214
USER: genes 12 Torsion [CA]-CB--CG1-[CD1] |==|  0.58475
USER: genes 13 Torsion [N]-CA--C-[N] |==|  0.36207
USER: genes 14 Torsion [C]-N--CA-[CB] |==|  0.93746
USER: genes 15 Torsion [N]-CA--C-[O] |==|  0.01272
ROOT
ATOM      1  C   GLY J 103      56.194  56.986 -10.081  1.00 12.08 LIG 0.24  C 
ATOM      2 O    GLY J 103      56.009  57.760 -11.072  1.00  8.68 LIG-0.27  OA
ATOM      3  N   PRO J 104      57.344  56.972  -9.391  1.00 11.63 LIG-0.34  N 
ATOM      4  CA  PRO J 104      58.442  57.914  -9.641  1.00 13.37 LIG 0.18  C 
ATOM      5  CB  PRO J 104      59.349  57.676  -8.429  1.00 10.19 LIG 0.04  C 
ATOM      6  CG  PRO J 104      59.247  56.166  -8.262  1.00 11.82 LIG 0.02  C 
ATOM      7  CD  PRO J 104      57.728  55.957  -8.391  1.00  8.53 LIG 0.13  C 
ENDROOT
BRANCH 1 8
ATOM      8  CA  GLY J 103      55.196  55.928  -9.646  1.00  6.72 LIG 0.23  C 
BRANCH 8 9
ATOM      9  N   GLY J 103      53.889  55.964 -10.255  1.00  9.69 LIG-0.35  N 
ATOM     10  C   ALA J 102      53.322  54.865 -10.731  1.00  5.22 LIG 0.24  C 
ATOM     11 O    ALA J 102      53.862  53.763 -10.688  1.00 12.11 LIG-0.27  OA
ATOM     12 H    GLY J 103      53.527  56.743 -10.277  1.00  9.69 LIG 0.16  HD
BRANCH 10 13
ATOM     13  CA  ALA J 102      51.918  55.048 -11.332  1.00  8.22 LIG 0.17  C 
ATOM     14  CB  ALA J 102      50.986  55.727 -10.303  1.00 14.95 LIG 0.04  C 
BRANCH 13 15
ATOM     15  N   ALA J 102      51.291  53.833 -11.807  1.00  4.21 LIG-0.35  N 
ATOM     16  C   HIS J 101      51.566  53.283 -12.990  1.00  9.96 LIG 0.26  C 
ATOM     17 O    HIS J 101      52.381  53.771 -13.790  1.00  8.34 LIG-0.27  OA
ATOM     18 H    ALA J 102      50.723  53.498 -11.254  1.00  4.21 LIG 0.16  HD
BRANCH 16 19
ATOM     19  CA  HIS J 101      50.776  51.985 -13.313  1.00  9.34 LIG 0.41  C 
ATOM     20  N   HIS J 101      49.533  52.194 -14.130  1.00 12.44 LIG 0.61  N 
BRANCH 19 21
ATOM     21  CB  HIS J 101      51.696  50.956 -13.975  1.00 10.29 LIG 0.11  C 
BRANCH 21 22
ATOM     22  CG  HIS J 101      51.297  49.544 -13.709  1.00 11.59 LIG 0.06  A 
ATOM     23  CD2 HIS J 101      51.264  48.828 -12.563  1.00 10.25 LIG 0.14  A 
ATOM     24 NE2  HIS J 101      50.750  47.593 -12.869  1.00 11.46 LIG-0.25  NA
ATOM     25  CE1 HIS J 101      50.484  47.544 -14.160  1.00 15.99 LIG 0.23  A 
ATOM     26 ND1  HIS J 101      50.810  48.710 -14.693  1.00 17.50 LIG-0.24  NA
ENDBRANCH 21 22
ENDBRANCH 19 21
ENDBRANCH 16 19
ENDBRANCH 13 15
ENDBRANCH 10 13
ENDBRANCH 8 9
ENDBRANCH 1 8
BRANCH 4 27
ATOM     27  C   PRO J 104      59.192  57.658 -10.964  1.00  7.89 LIG 0.24  C 
ATOM     28 O    PRO J 104      59.482  56.512 -11.325  1.00  6.40 LIG-0.27  OA
ATOM     29  N   ILE J 105      59.470  58.730 -11.710  1.00 10.49 LIG-0.35  N 
ATOM     30 H    ILE J 105      59.229  59.536 -11.530  1.00 10.49 LIG 0.16  HD
BRANCH 29 31
ATOM     31  CA  ILE J 105      60.243  58.564 -12.936  1.00  9.44 LIG 0.18  C 
BRANCH 31 32
ATOM     32  CB  ILE J 105      60.314  59.825 -13.790  1.00  9.59 LIG 0.01  C 
ATOM     33  CG2 ILE J 105      59.398  60.845 -13.220  1.00  7.65 LIG 0.01  C 
BRANCH 32 34
ATOM     34  CG1 ILE J 105      61.733  60.354 -13.911  1.00  8.07 LIG 0.00  C 
ATOM     35  CD1 ILE J 105      61.759  61.829 -14.063  1.00 10.10 LIG 0.01  C 
ENDBRANCH 32 34
ENDBRANCH 31 32
BRANCH 31 36
ATOM     36  C   ILE J 105      61.627  57.969 -12.718  1.00 12.77 LIG 0.24  C 
ATOM     37  N   ALA J 106      61.923  56.940 -13.515  1.00 12.70 LIG-0.34  N 
ATOM     38 H    ALA J 106      61.355  56.648 -14.091  1.00 12.70 LIG 0.16  HD
ATOM     39 O    ILE J 105      62.343  58.388 -11.813  1.00 10.65 LIG-0.27  OA
BRANCH 37 40
ATOM     40  CA  ALA J 106      63.161  56.184 -13.552  1.00 16.79 LIG 0.18  C 
ATOM     41  CB  ALA J 106      64.345  56.980 -12.977  1.00 18.33 LIG 0.04  C 
BRANCH 40 42
ATOM     42  C   ALA J 106      63.052  54.800 -12.938  1.00 17.57 LIG 0.20  C 
ATOM     43 O    ALA J 106      61.906  54.454 -12.563  1.00 21.44 LIG-0.65  OA
ATOM     44 OXT  ALA J 106      64.070  54.072 -12.869  1.00 20.61 LIG-0.65  OA
ENDBRANCH 40 42
ENDBRANCH 37 40
ENDBRANCH 31 36
ENDBRANCH 29 31
ENDBRANCH 4 27
TORSDOF 14
ENDMDL
MODEL 9
USER: ADFR SOLUTION from run 171
USER: SCORE 14.943204 LL:  -3.022 LR: -12.558 RR:   0.000 FEB:  -8.382
USER: RMSD 2.538743
USER: SEED 170
USER: STATUS no improvement in best in 8 clusters for 5 generations
USER: GENES 16
USER: genes 0 Translation |==|  0.43276 0.70452 0.65533
USER: genes 1 Rotation |==|  0.63680 0.54708 0.47938 0.97817
USER: genes 2 Torsion [N]-C--CA-[N] |==|  0.51096
USER: genes 3 Torsion [C]-CA--N-[C] |==|  0.57903
USER: genes 4 Torsion [N]-C--CA-[N] |==|  0.24213
USER: genes 5 Torsion [C]-CA--N-[C] |==|  0.72962
USER: genes 6 Torsion [N]-C--CA-[N] |==|  0.35971
USER: genes 7 Torsion [C]-CA--CB-[CG] |==|  0.11442
USER: genes 8 Torsion [CA]-CB--CG-[ND1] |==|  0.25879
USER: genes 9 Torsion [N]-CA--C-[O] |==|  0.88468
USER: genes 10 Torsion [C]-N--CA-[C] |==|  0.82406
USER: genes 11 Torsion [N]-CA--CB-[CG1] |==|  0.34877
USER: genes 12 Torsion [CA]-CB--CG1-[CD1] |==|  0.61195
USER: genes 13 Torsion [N]-CA--C-[N] |==|  0.36436
USER: genes 14 Torsion [C]-N--CA-[CB] |==|  0.93479
USER: genes 15 Torsion [N]-CA--C-[O] |==|  0.97580
ROOT
ATOM      1  C   GLY J 103      55.894  57.015 -10.000  1.00 12.08 LIG 0.24  C 
ATOM      2 O    GLY J 103      55.727  57.814 -10.975  1.00  8.68 LIG-0.27  OA
ATOM      3  N   PRO J 104      57.055  56.939  -9.332  1.00 11.63 LIG-0.34  N 
ATOM      4  CA  PRO J 104      58.190  57.834  -9.588  1.00 13.37 LIG 0.18  C 
ATOM      5  CB  PRO J 104      59.106  57.535  -8.396  1.00 10.19 LIG 0.04  C 
ATOM      6  CG  PRO J 104      58.940  56.029  -8.252  1.00 11.82 LIG 0.02  C 
ATOM      7  CD  PRO J 104      57.411  55.891  -8.356  1.00  8.53 LIG 0.13  C 
ENDROOT
BRANCH 1 8
ATOM      8  CA  GLY J 103      54.858  55.997  -9.564  1.00  6.72 LIG 0.23  C 
BRANCH 8 9
ATOM      9  N   GLY J 103      53.617  55.962 -10.297  1.00  9.69 LIG-0.35  N 
ATOM     10  C   ALA J 102      52.489  55.566  -9.723  1.00  5.22 LIG 0.24  C 
ATOM     11 O    ALA J 102      52.428  55.209  -8.551  1.00 12.11 LIG-0.27  OA
ATOM     12 H    GLY J 103      53.679  56.215 -11.117  1.00  9.69 LIG 0.16  HD
BRANCH 10 13
ATOM     13  CA  ALA J 102      51.239  55.601 -10.619  1.00  8.22 LIG 0.17  C 
ATOM     14  CB  ALA J 102      49.984  55.886  -9.764  1.00 14.95 LIG 0.04  C 
BRANCH 13 15
ATOM     15  N   ALA J 102      51.014  54.407 -11.405  1.00  4.21 LIG-0.35  N 
ATOM     16  C   HIS J 101      51.385  54.291 -12.680  1.00  9.96 LIG 0.26  C 
ATOM     17 O    HIS J 101      51.951  55.203 -13.306  1.00  8.34 LIG-0.27  OA
ATOM     18 H    ALA J 102      50.618  53.778 -10.972  1.00  4.21 LIG 0.16  HD
BRANCH 16 19
ATOM     19  CA  HIS J 101      51.042  52.930 -13.345  1.00  9.34 LIG 0.41  C 
ATOM     20  N   HIS J 101      50.328  53.037 -14.662  1.00 12.44 LIG 0.61  N 
BRANCH 19 21
ATOM     21  CB  HIS J 101      52.303  52.073 -13.479  1.00 10.29 LIG 0.11  C 
BRANCH 21 22
ATOM     22  CG  HIS J 101      53.191  52.131 -12.282  1.00 11.59 LIG 0.06  A 
ATOM     23  CD2 HIS J 101      54.145  53.018 -11.922  1.00 10.25 LIG 0.14  A 
ATOM     24 NE2  HIS J 101      54.610  52.639 -10.688  1.00 11.46 LIG-0.25  NA
ATOM     25  CE1 HIS J 101      53.973  51.550 -10.303  1.00 15.99 LIG 0.23  A 
ATOM     26 ND1  HIS J 101      53.111  51.219 -11.251  1.00 17.50 LIG-0.24  NA
ENDBRANCH 21 22
ENDBRANCH 19 21
ENDBRANCH 16 19
ENDBRANCH 13 15
ENDBRANCH 10 13
ENDBRANCH 8 9
ENDBRANCH 1 8
BRANCH 4 27
ATOM     27  C   PRO J 104      58.904  57.567 -10.929  1.00  7.89 LIG 0.24  C 
ATOM     28 O    PRO J 104      59.122  56.415 -11.319  1.00  6.40 LIG-0.27  OA
ATOM     29  N   ILE J 105      59.230  58.638 -11.655  1.00 10.49 LIG-0.35  N 
ATOM     30 H    ILE J 105      59.038  59.452 -11.453  1.00 10.49 LIG 0.16  HD
BRANCH 29 31
ATOM     31  CA  ILE J 105      59.974  58.458 -12.898  1.00  9.44 LIG 0.18  C 
BRANCH 31 32
ATOM     32  CB  ILE J 105      60.026  59.709 -13.766  1.00  9.59 LIG 0.01  C 
ATOM     33  CG2 ILE J 105      59.316  60.810 -13.068  1.00  7.65 LIG 0.01  C 
BRANCH 32 34
ATOM     34  CG1 ILE J 105      61.451  60.099 -14.120  1.00  8.07 LIG 0.00  C 
ATOM     35  CD1 ILE J 105      61.650  61.567 -14.063  1.00 10.10 LIG 0.01  C 
ENDBRANCH 32 34
ENDBRANCH 31 32
BRANCH 31 36
ATOM     36  C   ILE J 105      61.361  57.862 -12.705  1.00 12.77 LIG 0.24  C 
ATOM     37  N   ALA J 106      61.642  56.834 -13.510  1.00 12.70 LIG-0.34  N 
ATOM     38 H    ALA J 106      61.064  56.544 -14.077  1.00 12.70 LIG 0.16  HD
ATOM     39 O    ILE J 105      62.093  58.279 -11.813  1.00 10.65 LIG-0.27  OA
BRANCH 37 40
ATOM     40  CA  ALA J 106      62.879  56.078 -13.572  1.00 16.79 LIG 0.18  C 
ATOM     41  CB  ALA J 106      64.078  56.881 -13.038  1.00 18.33 LIG 0.04  C 
BRANCH 40 42
ATOM     42  C   ALA J 106      62.787  54.702 -12.938  1.00 17.57 LIG 0.20  C 
ATOM     43 O    ALA J 106      61.734  54.459 -12.302  1.00 21.44 LIG-0.65  OA
ATOM     44 OXT  ALA J 106      63.720  53.881 -13.105  1.00 20.61 LIG-0.65  OA
ENDBRANCH 40 42
ENDBRANCH 37 40
ENDBRANCH 31 36
ENDBRANCH 29 31
ENDBRANCH 4 27
TORSDOF 14
ENDMDL
MODEL 10
USER: ADFR SOLUTION from run 150
USER: SCORE 14.274295 LL:  -2.793 LR: -12.560 RR:   0.000 FEB:  -8.384
USER: RMSD 4.196862
USER: SEED 149
USER: STATUS no improvement in best in 10 clusters for 5 generations
USER: GENES 16
USER: genes 0 Translation |==|  0.45964 0.70139 0.63993
USER: genes 1 Rotation |==|  0.55669 0.48871 0.45108 0.99423
USER: genes 2 Torsion [N]-C--CA-[N] |==|  0.50425
USER: genes 3 Torsion [C]-CA--N-[C] |==|  0.32222
USER: genes 4 Torsion [N]-C--CA-[N] |==|  0.80134
USER: genes 5 Torsion [C]-CA--N-[C] |==|  0.61778
USER: genes 6 Torsion [N]-C--CA-[N] |==|  0.64070
USER: genes 7 Torsion [C]-CA--CB-[CG] |==|  0.60075
USER: genes 8 Torsion [CA]-CB--CG-[ND1] |==|  0.88954
USER: genes 9 Torsion [N]-CA--C-[O] |==|  0.88583
USER: genes 10 Torsion [C]-N--CA-[C] |==|  0.64092
USER: genes 11 Torsion [N]-CA--CB-[CG1] |==|  0.98494
USER: genes 12 Torsion [CA]-CB--CG1-[CD1] |==|  0.74031
USER: genes 13 Torsion [N]-CA--C-[N] |==|  0.45892
USER: genes 14 Torsion [C]-N--CA-[CB] |==|  0.87622
USER: genes 15 Torsion [N]-CA--C-[O] |==|  0.05475
ROOT
ATOM      1  C   GLY J 103      56.580  56.959 -10.254  1.00 12.08 LIG 0.24  C 
ATOM      2 O    GLY J 103      56.704  57.379 -11.447  1.00  8.68 LIG-0.27  OA
ATOM      3  N   PRO J 104      57.592  57.000  -9.374  1.00 11.63 LIG-0.34  N 
ATOM      4  CA  PRO J 104      58.886  57.626  -9.668  1.00 13.37 LIG 0.18  C 
ATOM      5  CB  PRO J 104      59.541  57.669  -8.283  1.00 10.19 LIG 0.04  C 
ATOM      6  CG  PRO J 104      59.103  56.334  -7.695  1.00 11.82 LIG 0.02  C 
ATOM      7  CD  PRO J 104      57.608  56.329  -8.060  1.00  8.53 LIG 0.13  C 
ENDROOT
BRANCH 1 8
ATOM      8  CA  GLY J 103      55.331  56.271  -9.734  1.00  6.72 LIG 0.23  C 
BRANCH 8 9
ATOM      9  N   GLY J 103      54.213  56.160 -10.638  1.00  9.69 LIG-0.35  N 
ATOM     10  C   ALA J 102      53.775  54.978 -11.047  1.00  5.22 LIG 0.24  C 
ATOM     11 O    ALA J 102      54.283  53.918 -10.690  1.00 12.11 LIG-0.27  OA
ATOM     12 H    GLY J 103      53.871  56.911 -10.878  1.00  9.69 LIG 0.16  HD
BRANCH 10 13
ATOM     13  CA  ALA J 102      52.562  55.009 -11.992  1.00  8.22 LIG 0.17  C 
ATOM     14  CB  ALA J 102      52.839  55.960 -13.178  1.00 14.95 LIG 0.04  C 
BRANCH 13 15
ATOM     15  N   ALA J 102      51.309  55.381 -11.371  1.00  4.21 LIG-0.35  N 
ATOM     16  C   HIS J 101      50.155  54.766 -11.627  1.00  9.96 LIG 0.26  C 
ATOM     17 O    HIS J 101      50.054  53.821 -12.428  1.00  8.34 LIG-0.27  OA
ATOM     18 H    ALA J 102      51.379  56.038 -10.820  1.00  4.21 LIG 0.16  HD
BRANCH 16 19
ATOM     19  CA  HIS J 101      48.925  55.326 -10.862  1.00  9.34 LIG 0.41  C 
ATOM     20  N   HIS J 101      48.106  54.290 -10.146  1.00 12.44 LIG 0.61  N 
BRANCH 19 21
ATOM     21  CB  HIS J 101      49.359  56.435  -9.900  1.00 10.29 LIG 0.11  C 
BRANCH 21 22
ATOM     22  CG  HIS J 101      48.594  56.445  -8.620  1.00 11.59 LIG 0.06  A 
ATOM     23  CD2 HIS J 101      48.979  56.715  -7.353  1.00 10.25 LIG 0.14  A 
ATOM     24 NE2  HIS J 101      47.859  56.647  -6.563  1.00 11.46 LIG-0.25  NA
ATOM     25  CE1 HIS J 101      46.820  56.338  -7.314  1.00 15.99 LIG 0.23  A 
ATOM     26 ND1  HIS J 101      47.237  56.205  -8.562  1.00 17.50 LIG-0.24  NA
ENDBRANCH 21 22
ENDBRANCH 19 21
ENDBRANCH 16 19
ENDBRANCH 13 15
ENDBRANCH 10 13
ENDBRANCH 8 9
ENDBRANCH 1 8
BRANCH 4 27
ATOM     27  C   PRO J 104      59.747  56.834 -10.673  1.00  7.89 LIG 0.24  C 
ATOM     28 O    PRO J 104      59.822  55.601 -10.621  1.00  6.40 LIG-0.27  OA
ATOM     29  N   ILE J 105      60.366  57.544 -11.619  1.00 10.49 LIG-0.35  N 
ATOM     30 H    ILE J 105      60.288  58.393 -11.732  1.00 10.49 LIG 0.16  HD
BRANCH 29 31
ATOM     31  CA  ILE J 105      61.254  56.863 -12.555  1.00  9.44 LIG 0.18  C 
BRANCH 31 32
ATOM     32  CB  ILE J 105      60.630  56.620 -13.924  1.00  9.59 LIG 0.01  C 
ATOM     33  CG2 ILE J 105      60.809  55.192 -14.289  1.00  7.65 LIG 0.01  C 
BRANCH 32 34
ATOM     34  CG1 ILE J 105      59.167  57.027 -13.964  1.00  8.07 LIG 0.00  C 
ATOM     35  CD1 ILE J 105      58.269  55.885 -13.668  1.00 10.10 LIG 0.01  C 
ENDBRANCH 32 34
ENDBRANCH 31 32
BRANCH 31 36
ATOM     36  C   ILE J 105      62.627  57.507 -12.683  1.00 12.77 LIG 0.24  C 
ATOM     37  N   ALA J 106      63.547  56.746 -13.279  1.00 12.70 LIG-0.34  N 
ATOM     38 H    ALA J 106      63.357  55.952 -13.551  1.00 12.70 LIG 0.16  HD
ATOM     39 O    ILE J 105      62.839  58.611 -12.188  1.00 10.65 LIG-0.27  OA
BRANCH 37 40
ATOM     40  CA  ALA J 106      64.929  57.090 -13.556  1.00 16.79 LIG 0.18  C 
ATOM     41  CB  ALA J 106      65.070  58.509 -14.133  1.00 18.33 LIG 0.04  C 
BRANCH 40 42
ATOM     42  C   ALA J 106      65.865  56.856 -12.384  1.00 17.57 LIG 0.20  C 
ATOM     43 O    ALA J 106      65.451  56.069 -11.498  1.00 21.44 LIG-0.65  OA
ATOM     44 OXT  ALA J 106      66.990  57.410 -12.371  1.00 20.61 LIG-0.65  OA
ENDBRANCH 40 42
ENDBRANCH 37 40
ENDBRANCH 31 36
ENDBRANCH 29 31
ENDBRANCH 4 27
TORSDOF 14
ENDMDL
MODEL 11
USER: ADFR SOLUTION from run 127
USER: SCORE 14.832134 LL:  -3.012 LR: -12.494 RR:   0.000 FEB:  -8.318
USER: RMSD 4.095820
USER: SEED 126
USER: STATUS no improvement in best in 9 clusters for 5 generations
USER: GENES 16
USER: genes 0 Translation |==|  0.44828 0.70487 0.65210
USER: genes 1 Rotation |==|  0.64163 0.55107 0.49319 0.97674
USER: genes 2 Torsion [N]-C--CA-[N] |==|  0.46350
USER: genes 3 Torsion [C]-CA--N-[C] |==|  0.37758
USER: genes 4 Torsion [N]-C--CA-[N] |==|  0.45353
USER: genes 5 Torsion [C]-CA--N-[C] |==|  0.75391
USER: genes 6 Torsion [N]-C--CA-[N] |==|  0.92744
USER: genes 7 Torsion [C]-CA--CB-[CG] |==|  0.79304
USER: genes 8 Torsion [CA]-CB--CG-[ND1] |==|  0.07285
USER: genes 9 Torsion [N]-CA--C-[O] |==|  0.81301
USER: genes 10 Torsion [C]-N--CA-[C] |==|  0.57372
USER: genes 11 Torsion [N]-CA--CB-[CG1] |==|  0.05869
USER: genes 12 Torsion [CA]-CB--CG1-[CD1] |==|  0.69406
USER: genes 13 Torsion [N]-CA--C-[N] |==|  0.40096
USER: genes 14 Torsion [C]-N--CA-[CB] |==|  0.40914
USER: genes 15 Torsion [N]-CA--C-[O] |==|  0.85980
ROOT
ATOM      1  C   GLY J 103      56.290  57.022 -10.053  1.00 12.08 LIG 0.24  C 
ATOM      2 O    GLY J 103      56.078  57.835 -11.007  1.00  8.68 LIG-0.27  OA
ATOM      3  N   PRO J 104      57.454  56.992  -9.386  1.00 11.63 LIG-0.34  N 
ATOM      4  CA  PRO J 104      58.537  57.955  -9.618  1.00 13.37 LIG 0.18  C 
ATOM      5  CB  PRO J 104      59.470  57.676  -8.434  1.00 10.19 LIG 0.04  C 
ATOM      6  CG  PRO J 104      59.386  56.160  -8.329  1.00 11.82 LIG 0.02  C 
ATOM      7  CD  PRO J 104      57.867  55.940  -8.438  1.00  8.53 LIG 0.13  C 
ENDROOT
BRANCH 1 8
ATOM      8  CA  GLY J 103      55.312  55.936  -9.644  1.00  6.72 LIG 0.23  C 
BRANCH 8 9
ATOM      9  N   GLY J 103      53.948  56.072 -10.095  1.00  9.69 LIG-0.35  N 
ATOM     10  C   ALA J 102      53.280  55.039 -10.586  1.00  5.22 LIG 0.24  C 
ATOM     11 O    ALA J 102      53.768  53.917 -10.688  1.00 12.11 LIG-0.27  OA
ATOM     12 H    GLY J 103      53.624  56.865 -10.017  1.00  9.69 LIG 0.16  HD
BRANCH 10 13
ATOM     13  CA  ALA J 102      51.828  55.324 -11.007  1.00  8.22 LIG 0.17  C 
ATOM     14  CB  ALA J 102      50.939  55.501  -9.755  1.00 14.95 LIG 0.04  C 
BRANCH 13 15
ATOM     15  N   ALA J 102      51.233  54.328 -11.872  1.00  4.21 LIG-0.35  N 
ATOM     16  C   HIS J 101      51.324  54.367 -13.201  1.00  9.96 LIG 0.26  C 
ATOM     17 O    HIS J 101      51.924  55.267 -13.813  1.00  8.34 LIG-0.27  OA
ATOM     18 H    ALA J 102      50.814  53.708 -11.448  1.00  4.21 LIG 0.16  HD
BRANCH 16 19
ATOM     19  CA  HIS J 101      50.607  53.208 -13.946  1.00  9.34 LIG 0.41  C 
ATOM     20  N   HIS J 101      50.462  51.944 -13.147  1.00 12.44 LIG 0.61  N 
BRANCH 19 21
ATOM     21  CB  HIS J 101      49.248  53.677 -14.473  1.00 10.29 LIG 0.11  C 
BRANCH 21 22
ATOM     22  CG  HIS J 101      48.214  53.817 -13.408  1.00 11.59 LIG 0.06  A 
ATOM     23  CD2 HIS J 101      46.869  53.690 -13.449  1.00 10.25 LIG 0.14  A 
ATOM     24 NE2  HIS J 101      46.404  53.854 -12.168  1.00 11.46 LIG-0.25  NA
ATOM     25  CE1 HIS J 101      47.425  54.082 -11.365  1.00 15.99 LIG 0.23  A 
ATOM     26 ND1  HIS J 101      48.532  54.069 -12.090  1.00 17.50 LIG-0.24  NA
ENDBRANCH 21 22
ENDBRANCH 19 21
ENDBRANCH 16 19
ENDBRANCH 13 15
ENDBRANCH 10 13
ENDBRANCH 8 9
ENDBRANCH 1 8
BRANCH 4 27
ATOM     27  C   PRO J 104      59.264  57.762 -10.965  1.00  7.89 LIG 0.24  C 
ATOM     28 O    PRO J 104      59.953  56.760 -11.183  1.00  6.40 LIG-0.27  OA
ATOM     29  N   ILE J 105      59.074  58.709 -11.886  1.00 10.49 LIG-0.35  N 
ATOM     30 H    ILE J 105      58.551  59.386 -11.801  1.00 10.49 LIG 0.16  HD
BRANCH 29 31
ATOM     31  CA  ILE J 105      59.792  58.624 -13.154  1.00  9.44 LIG 0.18  C 
BRANCH 31 32
ATOM     32  CB  ILE J 105      59.196  57.613 -14.128  1.00  9.59 LIG 0.01  C 
ATOM     33  CG2 ILE J 105      60.035  56.388 -14.122  1.00  7.65 LIG 0.01  C 
BRANCH 32 34
ATOM     34  CG1 ILE J 105      57.745  57.299 -13.807  1.00  8.07 LIG 0.00  C 
ATOM     35  CD1 ILE J 105      57.583  55.919 -13.287  1.00 10.10 LIG 0.01  C 
ENDBRANCH 32 34
ENDBRANCH 31 32
BRANCH 31 36
ATOM     36  C   ILE J 105      60.017  59.970 -13.827  1.00 12.77 LIG 0.24  C 
ATOM     37  N   ALA J 106      61.179  60.083 -14.474  1.00 12.70 LIG-0.34  N 
ATOM     38 H    ALA J 106      61.745  59.435 -14.485  1.00 12.70 LIG 0.16  HD
ATOM     39 O    ILE J 105      59.197  60.874 -13.689  1.00 10.65 LIG-0.27  OA
BRANCH 37 40
ATOM     40  CA  ALA J 106      61.665  61.230 -15.218  1.00 16.79 LIG 0.18  C 
ATOM     41  CB  ALA J 106      63.194  61.369 -15.137  1.00 18.33 LIG 0.04  C 
BRANCH 40 42
ATOM     42  C   ALA J 106      61.161  61.288 -16.649  1.00 17.57 LIG 0.20  C 
ATOM     43 O    ALA J 106      61.301  60.241 -17.324  1.00 21.44 LIG-0.65  OA
ATOM     44 OXT  ALA J 106      60.610  62.334 -17.068  1.00 20.61 LIG-0.65  OA
ENDBRANCH 40 42
ENDBRANCH 37 40
ENDBRANCH 31 36
ENDBRANCH 29 31
ENDBRANCH 4 27
TORSDOF 14
ENDMDL
MODEL 12
USER: ADFR SOLUTION from run 83
USER: SCORE 14.357852 LL:  -2.873 LR: -12.393 RR:   0.000 FEB:  -8.216
USER: RMSD 3.389966
USER: SEED 82
USER: STATUS no improvement in best in 6 clusters for 5 generations
USER: GENES 16
USER: genes 0 Translation |==|  0.44970 0.70539 0.65252
USER: genes 1 Rotation |==|  0.64039 0.55737 0.49387 0.97640
USER: genes 2 Torsion [N]-C--CA-[N] |==|  0.49364
USER: genes 3 Torsion [C]-CA--N-[C] |==|  0.36625
USER: genes 4 Torsion [N]-C--CA-[N] |==|  0.50819
USER: genes 5 Torsion [C]-CA--N-[C] |==|  0.77291
USER: genes 6 Torsion [N]-C--CA-[N] |==|  0.38498
USER: genes 7 Torsion [C]-CA--CB-[CG] |==|  0.50953
USER: genes 8 Torsion [CA]-CB--CG-[ND1] |==|  0.16053
USER: genes 9 Torsion [N]-CA--C-[O] |==|  0.82639
USER: genes 10 Torsion [C]-N--CA-[C] |==|  0.57292
USER: genes 11 Torsion [N]-CA--CB-[CG1] |==|  0.05790
USER: genes 12 Torsion [CA]-CB--CG1-[CD1] |==|  0.17970
USER: genes 13 Torsion [N]-CA--C-[N] |==|  0.40837
USER: genes 14 Torsion [C]-N--CA-[CB] |==|  0.39540
USER: genes 15 Torsion [N]-CA--C-[O] |==|  0.83469
ROOT
ATOM      1  C   GLY J 103      56.326  57.031 -10.046  1.00 12.08 LIG 0.24  C 
ATOM      2 O    GLY J 103      56.084  57.838 -10.998  1.00  8.68 LIG-0.27  OA
ATOM      3  N   PRO J 104      57.506  57.016  -9.407  1.00 11.63 LIG-0.34  N 
ATOM      4  CA  PRO J 104      58.573  57.988  -9.668  1.00 13.37 LIG 0.18  C 
ATOM      5  CB  PRO J 104      59.536  57.724  -8.505  1.00 10.19 LIG 0.04  C 
ATOM      6  CG  PRO J 104      59.471  56.207  -8.392  1.00 11.82 LIG 0.02  C 
ATOM      7  CD  PRO J 104      57.952  55.972  -8.464  1.00  8.53 LIG 0.13  C 
ENDROOT
BRANCH 1 8
ATOM      8  CA  GLY J 103      55.369  55.937  -9.611  1.00  6.72 LIG 0.23  C 
BRANCH 8 9
ATOM      9  N   GLY J 103      54.062  55.923 -10.220  1.00  9.69 LIG-0.35  N 
ATOM     10  C   ALA J 102      53.546  54.807 -10.716  1.00  5.22 LIG 0.24  C 
ATOM     11 O    ALA J 102      54.137  53.732 -10.691  1.00 12.11 LIG-0.27  OA
ATOM     12 H    GLY J 103      53.663  56.685 -10.228  1.00  9.69 LIG 0.16  HD
BRANCH 10 13
ATOM     13  CA  ALA J 102      52.135  54.935 -11.315  1.00  8.22 LIG 0.17  C 
ATOM     14  CB  ALA J 102      51.179  55.574 -10.284  1.00 14.95 LIG 0.04  C 
BRANCH 13 15
ATOM     15  N   ALA J 102      51.557  53.697 -11.793  1.00  4.21 LIG-0.35  N 
ATOM     16  C   HIS J 101      51.836  53.173 -12.986  1.00  9.96 LIG 0.26  C 
ATOM     17 O    HIS J 101      52.614  53.706 -13.794  1.00  8.34 LIG-0.27  OA
ATOM     18 H    ALA J 102      51.015  53.331 -11.234  1.00  4.21 LIG 0.16  HD
BRANCH 16 19
ATOM     19  CA  HIS J 101      51.102  51.843 -13.310  1.00  9.34 LIG 0.41  C 
ATOM     20  N   HIS J 101      50.587  51.737 -14.716  1.00 12.44 LIG 0.61  N 
BRANCH 19 21
ATOM     21  CB  HIS J 101      51.994  50.648 -12.966  1.00 10.29 LIG 0.11  C 
BRANCH 21 22
ATOM     22  CG  HIS J 101      51.390  49.333 -13.325  1.00 11.59 LIG 0.06  A 
ATOM     23  CD2 HIS J 101      51.060  48.265 -12.564  1.00 10.25 LIG 0.14  A 
ATOM     24 NE2  HIS J 101      50.471  47.342 -13.390  1.00 11.46 LIG-0.25  NA
ATOM     25  CE1 HIS J 101      50.446  47.818 -14.621  1.00 15.99 LIG 0.23  A 
ATOM     26 ND1  HIS J 101      51.000  49.019 -14.610  1.00 17.50 LIG-0.24  NA
ENDBRANCH 21 22
ENDBRANCH 19 21
ENDBRANCH 16 19
ENDBRANCH 13 15
ENDBRANCH 10 13
ENDBRANCH 8 9
ENDBRANCH 1 8
BRANCH 4 27
ATOM     27  C   PRO J 104      59.270  57.798 -11.030  1.00  7.89 LIG 0.24  C 
ATOM     28 O    PRO J 104      59.892  56.763 -11.292  1.00  6.40 LIG-0.27  OA
ATOM     29  N   ILE J 105      59.130  58.787 -11.916  1.00 10.49 LIG-0.35  N 
ATOM     30 H    ILE J 105      58.652  59.493 -11.799  1.00 10.49 LIG 0.16  HD
BRANCH 29 31
ATOM     31  CA  ILE J 105      59.826  58.702 -13.196  1.00  9.44 LIG 0.18  C 
BRANCH 31 32
ATOM     32  CB  ILE J 105      59.159  57.760 -14.193  1.00  9.59 LIG 0.01  C 
ATOM     33  CG2 ILE J 105      59.928  56.491 -14.244  1.00  7.65 LIG 0.01  C 
BRANCH 32 34
ATOM     34  CG1 ILE J 105      57.698  57.516 -13.858  1.00  8.07 LIG 0.00  C 
ATOM     35  CD1 ILE J 105      56.893  58.756 -13.972  1.00 10.10 LIG 0.01  C 
ENDBRANCH 32 34
ENDBRANCH 31 32
BRANCH 31 36
ATOM     36  C   ILE J 105      60.122  60.054 -13.828  1.00 12.77 LIG 0.24  C 
ATOM     37  N   ALA J 106      61.254  60.104 -14.534  1.00 12.70 LIG-0.34  N 
ATOM     38 H    ALA J 106      61.764  59.414 -14.602  1.00 12.70 LIG 0.16  HD
ATOM     39 O    ILE J 105      59.386  61.012 -13.609  1.00 10.65 LIG-0.27  OA
BRANCH 37 40
ATOM     40  CA  ALA J 106      61.790  61.240 -15.260  1.00 16.79 LIG 0.18  C 
ATOM     41  CB  ALA J 106      63.322  61.324 -15.158  1.00 18.33 LIG 0.04  C 
BRANCH 40 42
ATOM     42  C   ALA J 106      61.308  61.330 -16.696  1.00 17.57 LIG 0.20  C 
ATOM     43 O    ALA J 106      61.578  60.349 -17.430  1.00 21.44 LIG-0.65  OA
ATOM     44 OXT  ALA J 106      60.649  62.331 -17.065  1.00 20.61 LIG-0.65  OA
ENDBRANCH 40 42
ENDBRANCH 37 40
ENDBRANCH 31 36
ENDBRANCH 29 31
ENDBRANCH 4 27
TORSDOF 14
ENDMDL
MODEL 13
USER: ADFR SOLUTION from run 86
USER: SCORE 13.772484 LL:  -2.777 LR: -12.082 RR:   0.000 FEB:  -7.906
USER: RMSD 5.515063
USER: SEED 85
USER: STATUS no improvement in best in 13 clusters for 5 generations
USER: GENES 16
USER: genes 0 Translation |==|  0.44068 0.70289 0.65502
USER: genes 1 Rotation |==|  0.62996 0.54971 0.48744 0.98008
USER: genes 2 Torsion [N]-C--CA-[N] |==|  0.49234
USER: genes 3 Torsion [C]-CA--N-[C] |==|  0.35653
USER: genes 4 Torsion [N]-C--CA-[N] |==|  0.87782
USER: genes 5 Torsion [C]-CA--N-[C] |==|  0.60679
USER: genes 6 Torsion [N]-C--CA-[N] |==|  0.84984
USER: genes 7 Torsion [C]-CA--CB-[CG] |==|  0.30613
USER: genes 8 Torsion [CA]-CB--CG-[ND1] |==|  0.14848
USER: genes 9 Torsion [N]-CA--C-[O] |==|  0.81160
USER: genes 10 Torsion [C]-N--CA-[C] |==|  0.61603
USER: genes 11 Torsion [N]-CA--CB-[CG1] |==|  0.19067
USER: genes 12 Torsion [CA]-CB--CG1-[CD1] |==|  0.75984
USER: genes 13 Torsion [N]-CA--C-[N] |==|  0.43636
USER: genes 14 Torsion [C]-N--CA-[CB] |==|  0.41602
USER: genes 15 Torsion [N]-CA--C-[O] |==|  0.86019
ROOT
ATOM      1  C   GLY J 103      56.096  56.986 -10.005  1.00 12.08 LIG 0.24  C 
ATOM      2 O    GLY J 103      55.899  57.754 -10.999  1.00  8.68 LIG-0.27  OA
ATOM      3  N   PRO J 104      57.260  56.968  -9.338  1.00 11.63 LIG-0.34  N 
ATOM      4  CA  PRO J 104      58.361  57.898  -9.618  1.00 13.37 LIG 0.18  C 
ATOM      5  CB  PRO J 104      59.289  57.663  -8.422  1.00 10.19 LIG 0.04  C 
ATOM      6  CG  PRO J 104      59.178  56.155  -8.240  1.00 11.82 LIG 0.02  C 
ATOM      7  CD  PRO J 104      57.655  55.959  -8.337  1.00  8.53 LIG 0.13  C 
ENDROOT
BRANCH 1 8
ATOM      8  CA  GLY J 103      55.098  55.941  -9.542  1.00  6.72 LIG 0.23  C 
BRANCH 8 9
ATOM      9  N   GLY J 103      53.802  55.941 -10.173  1.00  9.69 LIG-0.35  N 
ATOM     10  C   ALA J 102      53.290  54.834 -10.693  1.00  5.22 LIG 0.24  C 
ATOM     11 O    ALA J 102      53.876  53.755 -10.672  1.00 12.11 LIG-0.27  OA
ATOM     12 H    GLY J 103      53.407  56.704 -10.178  1.00  9.69 LIG 0.16  HD
BRANCH 10 13
ATOM     13  CA  ALA J 102      51.890  54.976 -11.314  1.00  8.22 LIG 0.17  C 
ATOM     14  CB  ALA J 102      51.998  55.595 -12.725  1.00 14.95 LIG 0.04  C 
BRANCH 13 15
ATOM     15  N   ALA J 102      50.947  55.745 -10.531  1.00  4.21 LIG-0.35  N 
ATOM     16  C   HIS J 101      49.657  55.427 -10.422  1.00  9.96 LIG 0.26  C 
ATOM     17 O    HIS J 101      49.152  54.444 -10.989  1.00  8.34 LIG-0.27  OA
ATOM     18 H    ALA J 102      51.297  56.428 -10.142  1.00  4.21 LIG 0.16  HD
BRANCH 16 19
ATOM     19  CA  HIS J 101      48.813  56.388  -9.542  1.00  9.34 LIG 0.41  C 
ATOM     20  N   HIS J 101      49.350  56.606  -8.156  1.00 12.44 LIG 0.61  N 
BRANCH 19 21
ATOM     21  CB  HIS J 101      48.608  57.724 -10.261  1.00 10.29 LIG 0.11  C 
BRANCH 21 22
ATOM     22  CG  HIS J 101      47.204  57.949 -10.709  1.00 11.59 LIG 0.06  A 
ATOM     23  CD2 HIS J 101      46.689  58.212 -11.930  1.00 10.25 LIG 0.14  A 
ATOM     24 NE2  HIS J 101      45.324  58.261 -11.795  1.00 11.46 LIG-0.25  NA
ATOM     25  CE1 HIS J 101      45.007  58.046 -10.533  1.00 15.99 LIG 0.23  A 
ATOM     26 ND1  HIS J 101      46.126  57.858  -9.853  1.00 17.50 LIG-0.24  NA
ENDBRANCH 21 22
ENDBRANCH 19 21
ENDBRANCH 16 19
ENDBRANCH 13 15
ENDBRANCH 10 13
ENDBRANCH 8 9
ENDBRANCH 1 8
BRANCH 4 27
ATOM     27  C   PRO J 104      59.082  57.624 -10.953  1.00  7.89 LIG 0.24  C 
ATOM     28 O    PRO J 104      59.761  56.604 -11.117  1.00  6.40 LIG-0.27  OA
ATOM     29  N   ILE J 105      58.900  58.521 -11.925  1.00 10.49 LIG-0.35  N 
ATOM     30 H    ILE J 105      58.385  59.207 -11.876  1.00 10.49 LIG 0.16  HD
BRANCH 29 31
ATOM     31  CA  ILE J 105      59.615  58.359 -13.188  1.00  9.44 LIG 0.18  C 
BRANCH 31 32
ATOM     32  CB  ILE J 105      58.825  57.593 -14.243  1.00  9.59 LIG 0.01  C 
ATOM     33  CG2 ILE J 105      58.418  56.280 -13.682  1.00  7.65 LIG 0.01  C 
BRANCH 32 34
ATOM     34  CG1 ILE J 105      57.627  58.382 -14.744  1.00  8.07 LIG 0.00  C 
ATOM     35  CD1 ILE J 105      56.435  58.176 -13.886  1.00 10.10 LIG 0.01  C 
ENDBRANCH 32 34
ENDBRANCH 31 32
BRANCH 31 36
ATOM     36  C   ILE J 105      60.173  59.657 -13.751  1.00 12.77 LIG 0.24  C 
ATOM     37  N   ALA J 106      61.197  59.504 -14.595  1.00 12.70 LIG-0.34  N 
ATOM     38 H    ALA J 106      61.505  58.723 -14.780  1.00 12.70 LIG 0.16  HD
ATOM     39 O    ILE J 105      59.732  60.737 -13.367  1.00 10.65 LIG-0.27  OA
BRANCH 37 40
ATOM     40  CA  ALA J 106      61.920  60.546 -15.299  1.00 16.79 LIG 0.18  C 
ATOM     41  CB  ALA J 106      63.388  60.163 -15.554  1.00 18.33 LIG 0.04  C 
BRANCH 40 42
ATOM     42  C   ALA J 106      61.228  61.026 -16.562  1.00 17.57 LIG 0.20  C 
ATOM     43 O    ALA J 106      60.861  60.131 -17.361  1.00 21.44 LIG-0.65  OA
ATOM     44 OXT  ALA J 106      61.024  62.252 -16.727  1.00 20.61 LIG-0.65  OA
ENDBRANCH 40 42
ENDBRANCH 37 40
ENDBRANCH 31 36
ENDBRANCH 29 31
ENDBRANCH 4 27
TORSDOF 14
ENDMDL
MODEL 14
USER: ADFR SOLUTION from run 38
USER: SCORE 14.035603 LL:  -2.919 LR: -12.010 RR:   0.000 FEB:  -7.834
USER: RMSD 3.020675
USER: SEED 37
USER: STATUS no improvement in best in 13 clusters for 5 generations
USER: GENES 16
USER: genes 0 Translation |==|  0.45476 0.70743 0.63324
USER: genes 1 Rotation |==|  0.58406 0.56431 0.45945 0.98698
USER: genes 2 Torsion [N]-C--CA-[N] |==|  0.51149
USER: genes 3 Torsion [C]-CA--N-[C] |==|  0.31185
USER: genes 4 Torsion [N]-C--CA-[N] |==|  0.52222
USER: genes 5 Torsion [C]-CA--N-[C] |==|  0.78883
USER: genes 6 Torsion [N]-C--CA-[N] |==|  0.30277
USER: genes 7 Torsion [C]-CA--CB-[CG] |==|  0.18223
USER: genes 8 Torsion [CA]-CB--CG-[ND1] |==|  0.94871
USER: genes 9 Torsion [N]-CA--C-[O] |==|  0.08593
USER: genes 10 Torsion [C]-N--CA-[C] |==|  0.78483
USER: genes 11 Torsion [N]-CA--CB-[CG1] |==|  0.24917
USER: genes 12 Torsion [CA]-CB--CG1-[CD1] |==|  0.47834
USER: genes 13 Torsion [N]-CA--C-[N] |==|  0.48796
USER: genes 14 Torsion [C]-N--CA-[CB] |==|  0.86508
USER: genes 15 Torsion [N]-CA--C-[O] |==|  0.11544
ROOT
ATOM      1  C   GLY J 103      56.455  57.068 -10.365  1.00 12.08 LIG 0.24  C 
ATOM      2 O    GLY J 103      56.216  57.647 -11.470  1.00  8.68 LIG-0.27  OA
ATOM      3  N   PRO J 104      57.673  57.082  -9.801  1.00 11.63 LIG-0.34  N 
ATOM      4  CA  PRO J 104      58.800  57.849 -10.344  1.00 13.37 LIG 0.18  C 
ATOM      5  CB  PRO J 104      59.819  57.769  -9.202  1.00 10.19 LIG 0.04  C 
ATOM      6  CG  PRO J 104      59.629  56.337  -8.721  1.00 11.82 LIG 0.02  C 
ATOM      7  CD  PRO J 104      58.094  56.251  -8.657  1.00  8.53 LIG 0.13  C 
ENDROOT
BRANCH 1 8
ATOM      8  CA  GLY J 103      55.440  56.214  -9.628  1.00  6.72 LIG 0.23  C 
BRANCH 8 9
ATOM      9  N   GLY J 103      54.135  56.077 -10.226  1.00  9.69 LIG-0.35  N 
ATOM     10  C   ALA J 102      53.718  54.916 -10.711  1.00  5.22 LIG 0.24  C 
ATOM     11 O    ALA J 102      54.405  53.899 -10.685  1.00 12.11 LIG-0.27  OA
ATOM     12 H    GLY J 103      53.669  56.800 -10.236  1.00  9.69 LIG 0.16  HD
BRANCH 10 13
ATOM     13  CA  ALA J 102      52.297  54.912 -11.299  1.00  8.22 LIG 0.17  C 
ATOM     14  CB  ALA J 102      51.315  55.584 -10.314  1.00 14.95 LIG 0.04  C 
BRANCH 13 15
ATOM     15  N   ALA J 102      51.786  53.606 -11.659  1.00  4.21 LIG-0.35  N 
ATOM     16  C   HIS J 101      52.169  52.948 -12.753  1.00  9.96 LIG 0.26  C 
ATOM     17 O    HIS J 101      52.995  53.402 -13.562  1.00  8.34 LIG-0.27  OA
ATOM     18 H    ALA J 102      51.211  53.295 -11.101  1.00  4.21 LIG 0.16  HD
BRANCH 16 19
ATOM     19  CA  HIS J 101      51.493  51.565 -12.961  1.00  9.34 LIG 0.41  C 
ATOM     20  N   HIS J 101      50.504  51.513 -14.090  1.00 12.44 LIG 0.61  N 
BRANCH 19 21
ATOM     21  CB  HIS J 101      52.554  50.474 -13.116  1.00 10.29 LIG 0.11  C 
BRANCH 21 22
ATOM     22  CG  HIS J 101      53.367  50.255 -11.885  1.00 11.59 LIG 0.06  A 
ATOM     23  CD2 HIS J 101      54.182  49.239 -11.523  1.00 10.25 LIG 0.14  A 
ATOM     24 NE2  HIS J 101      54.739  49.574 -10.315  1.00 11.46 LIG-0.25  NA
ATOM     25  CE1 HIS J 101      54.278  50.751  -9.939  1.00 15.99 LIG 0.23  A 
ATOM     26 ND1  HIS J 101      53.443  51.184 -10.869  1.00 17.50 LIG-0.24  NA
ENDBRANCH 21 22
ENDBRANCH 19 21
ENDBRANCH 16 19
ENDBRANCH 13 15
ENDBRANCH 10 13
ENDBRANCH 8 9
ENDBRANCH 1 8
BRANCH 4 27
ATOM     27  C   PRO J 104      59.375  57.271 -11.653  1.00  7.89 LIG 0.24  C 
ATOM     28 O    PRO J 104      58.655  56.667 -12.457  1.00  6.40 LIG-0.27  OA
ATOM     29  N   ILE J 105      60.670  57.493 -11.886  1.00 10.49 LIG-0.35  N 
ATOM     30 H    ILE J 105      61.190  57.963 -11.388  1.00 10.49 LIG 0.16  HD
BRANCH 29 31
ATOM     31  CA  ILE J 105      61.291  56.909 -13.071  1.00  9.44 LIG 0.18  C 
BRANCH 31 32
ATOM     32  CB  ILE J 105      62.501  57.689 -13.574  1.00  9.59 LIG 0.01  C 
ATOM     33  CG2 ILE J 105      62.274  59.137 -13.335  1.00  7.65 LIG 0.01  C 
BRANCH 32 34
ATOM     34  CG1 ILE J 105      63.794  57.212 -12.934  1.00  8.07 LIG 0.00  C 
ATOM     35  CD1 ILE J 105      64.982  57.842 -13.559  1.00 10.10 LIG 0.01  C 
ENDBRANCH 32 34
ENDBRANCH 31 32
BRANCH 31 36
ATOM     36  C   ILE J 105      61.609  55.428 -12.933  1.00 12.77 LIG 0.24  C 
ATOM     37  N   ALA J 106      62.095  54.856 -14.038  1.00 12.70 LIG-0.34  N 
ATOM     38 H    ALA J 106      62.199  55.310 -14.762  1.00 12.70 LIG 0.16  HD
ATOM     39 O    ILE J 105      61.347  54.834 -11.891  1.00 10.65 LIG-0.27  OA
BRANCH 37 40
ATOM     40  CA  ALA J 106      62.502  53.474 -14.209  1.00 16.79 LIG 0.18  C 
ATOM     41  CB  ALA J 106      63.428  52.999 -13.076  1.00 18.33 LIG 0.04  C 
BRANCH 40 42
ATOM     42  C   ALA J 106      61.345  52.519 -14.438  1.00 17.57 LIG 0.20  C 
ATOM     43 O    ALA J 106      60.441  52.925 -15.208  1.00 21.44 LIG-0.65  OA
ATOM     44 OXT  ALA J 106      61.361  51.388 -13.898  1.00 20.61 LIG-0.65  OA
ENDBRANCH 40 42
ENDBRANCH 37 40
ENDBRANCH 31 36
ENDBRANCH 29 31
ENDBRANCH 4 27
TORSDOF 14
ENDMDL
MODEL 15
USER: ADFR SOLUTION from run 65
USER: SCORE 13.981493 LL:  -2.483 LR: -11.853 RR:   0.000 FEB:  -7.677
USER: RMSD 3.174427
USER: SEED 64
USER: STATUS searching
USER: GENES 16
USER: genes 0 Translation |==|  0.44109 0.70362 0.65376
USER: genes 1 Rotation |==|  0.63159 0.54951 0.48754 0.97966
USER: genes 2 Torsion [N]-C--CA-[N] |==|  0.47133
USER: genes 3 Torsion [C]-CA--N-[C] |==|  0.38512
USER: genes 4 Torsion [N]-C--CA-[N] |==|  0.42155
USER: genes 5 Torsion [C]-CA--N-[C] |==|  0.78333
USER: genes 6 Torsion [N]-C--CA-[N] |==|  0.95713
USER: genes 7 Torsion [C]-CA--CB-[CG] |==|  0.16967
USER: genes 8 Torsion [CA]-CB--CG-[ND1] |==|  0.13617
USER: genes 9 Torsion [N]-CA--C-[O] |==|  0.89383
USER: genes 10 Torsion [C]-N--CA-[C] |==|  0.82259
USER: genes 11 Torsion [N]-CA--CB-[CG1] |==|  0.32518
USER: genes 12 Torsion [CA]-CB--CG1-[CD1] |==|  0.59097
USER: genes 13 Torsion [N]-CA--C-[N] |==|  0.36547
USER: genes 14 Torsion [C]-N--CA-[CB] |==|  0.93128
USER: genes 15 Torsion [N]-CA--C-[O] |==|  0.01432
ROOT
ATOM      1  C   GLY J 103      56.107  56.999 -10.026  1.00 12.08 LIG 0.24  C 
ATOM      2 O    GLY J 103      55.911  57.773 -11.015  1.00  8.68 LIG-0.27  OA
ATOM      3  N   PRO J 104      57.270  56.976  -9.358  1.00 11.63 LIG-0.34  N 
ATOM      4  CA  PRO J 104      58.371  57.907  -9.631  1.00 13.37 LIG 0.18  C 
ATOM      5  CB  PRO J 104      59.299  57.663  -8.435  1.00 10.19 LIG 0.04  C 
ATOM      6  CG  PRO J 104      59.187  56.155  -8.263  1.00 11.82 LIG 0.02  C 
ATOM      7  CD  PRO J 104      57.664  55.960  -8.363  1.00  8.53 LIG 0.13  C 
ENDROOT
BRANCH 1 8
ATOM      8  CA  GLY J 103      55.108  55.952  -9.570  1.00  6.72 LIG 0.23  C 
BRANCH 8 9
ATOM      9  N   GLY J 103      53.762  56.058 -10.077  1.00  9.69 LIG-0.35  N 
ATOM     10  C   ALA J 102      53.085  54.985 -10.461  1.00  5.22 LIG 0.24  C 
ATOM     11 O    ALA J 102      53.550  53.851 -10.413  1.00 12.11 LIG-0.27  OA
ATOM     12 H    GLY J 103      53.453  56.860 -10.105  1.00  9.69 LIG 0.16  HD
BRANCH 10 13
ATOM     13  CA  ALA J 102      51.653  55.246 -10.960  1.00  8.22 LIG 0.17  C 
ATOM     14  CB  ALA J 102      50.678  55.303  -9.762  1.00 14.95 LIG 0.04  C 
BRANCH 13 15
ATOM     15  N   ALA J 102      51.158  54.291 -11.928  1.00  4.21 LIG-0.35  N 
ATOM     16  C   HIS J 101      51.502  54.310 -13.215  1.00  9.96 LIG 0.26  C 
ATOM     17 O    HIS J 101      52.275  55.154 -13.697  1.00  8.34 LIG-0.27  OA
ATOM     18 H    ALA J 102      50.619  53.709 -11.594  1.00  4.21 LIG 0.16  HD
BRANCH 16 19
ATOM     19  CA  HIS J 101      50.851  53.202 -14.088  1.00  9.34 LIG 0.41  C 
ATOM     20  N   HIS J 101      50.233  52.074 -13.313  1.00 12.44 LIG 0.61  N 
BRANCH 19 21
ATOM     21  CB  HIS J 101      49.836  53.817 -15.055  1.00 10.29 LIG 0.11  C 
BRANCH 21 22
ATOM     22  CG  HIS J 101      50.438  54.795 -16.006  1.00 11.59 LIG 0.06  A 
ATOM     23  CD2 HIS J 101      50.097  56.067 -16.313  1.00 10.25 LIG 0.14  A 
ATOM     24 NE2  HIS J 101      51.030  56.534 -17.204  1.00 11.46 LIG-0.25  NA
ATOM     25  CE1 HIS J 101      51.910  55.582 -17.448  1.00 15.99 LIG 0.23  A 
ATOM     26 ND1  HIS J 101      51.573  54.518 -16.739  1.00 17.50 LIG-0.24  NA
ENDBRANCH 21 22
ENDBRANCH 19 21
ENDBRANCH 16 19
ENDBRANCH 13 15
ENDBRANCH 10 13
ENDBRANCH 8 9
ENDBRANCH 1 8
BRANCH 4 27
ATOM     27  C   PRO J 104      59.094  57.642 -10.967  1.00  7.89 LIG 0.24  C 
ATOM     28 O    PRO J 104      59.301  56.490 -11.366  1.00  6.40 LIG-0.27  OA
ATOM     29  N   ILE J 105      59.442  58.715 -11.681  1.00 10.49 LIG-0.35  N 
ATOM     30 H    ILE J 105      59.259  59.529 -11.474  1.00 10.49 LIG 0.16  HD
BRANCH 29 31
ATOM     31  CA  ILE J 105      60.195  58.534 -12.919  1.00  9.44 LIG 0.18  C 
BRANCH 31 32
ATOM     32  CB  ILE J 105      60.262  59.789 -13.782  1.00  9.59 LIG 0.01  C 
ATOM     33  CG2 ILE J 105      59.383  60.829 -13.189  1.00  7.65 LIG 0.01  C 
BRANCH 32 34
ATOM     34  CG1 ILE J 105      61.686  60.290 -13.951  1.00  8.07 LIG 0.00  C 
ATOM     35  CD1 ILE J 105      61.740  61.768 -14.059  1.00 10.10 LIG 0.01  C 
ENDBRANCH 32 34
ENDBRANCH 31 32
BRANCH 31 36
ATOM     36  C   ILE J 105      61.576  57.930 -12.718  1.00 12.77 LIG 0.24  C 
ATOM     37  N   ALA J 106      61.862  56.909 -13.530  1.00 12.70 LIG-0.34  N 
ATOM     38 H    ALA J 106      61.288  56.627 -14.105  1.00 12.70 LIG 0.16  HD
ATOM     39 O    ILE J 105      62.301  58.334 -11.813  1.00 10.65 LIG-0.27  OA
BRANCH 37 40
ATOM     40  CA  ALA J 106      63.095  56.147 -13.586  1.00 16.79 LIG 0.18  C 
ATOM     41  CB  ALA J 106      64.297  56.950 -13.060  1.00 18.33 LIG 0.04  C 
BRANCH 40 42
ATOM     42  C   ALA J 106      62.998  54.777 -12.940  1.00 17.57 LIG 0.20  C 
ATOM     43 O    ALA J 106      61.859  54.438 -12.537  1.00 21.44 LIG-0.65  OA
ATOM     44 OXT  ALA J 106      64.018  54.051 -12.875  1.00 20.61 LIG-0.65  OA
ENDBRANCH 40 42
ENDBRANCH 37 40
ENDBRANCH 31 36
ENDBRANCH 29 31
ENDBRANCH 4 27
TORSDOF 14
ENDMDL
