MODEL 1
USER: ADFR SOLUTION from run 24
USER: SCORE 22.022142 LL:  -1.156 LR: -20.912 RR:   0.000 FEB: -15.543
USER: RMSD 1.031400
USER: SEED 23
USER: STATUS 1 or 2 clusters left
USER: GENES 20
USER: genes 0 Translation |==|  0.61249 0.57765 0.62994
USER: genes 1 Rotation |==|  0.53066 0.49677 0.51206 0.99890
USER: genes 2 Torsion [N]-CA--C-[N] |==|  0.41606
USER: genes 3 Torsion [C]-N--CA-[CB] |==|  0.25496
USER: genes 4 Torsion [N]-CA--CB-[CG] |==|  0.59402
USER: genes 5 Torsion [CA]-CB--CG-[CD] |==|  0.66021
USER: genes 6 Torsion [CB]-CG--CD-[CE] |==|  0.60621
USER: genes 7 Torsion [CG]-CD--CE-[NZ] |==|  0.99564
USER: genes 8 Torsion [CD]-CE--NZ-[HZ2] |==|  0.20597
USER: genes 9 Torsion [N]-CA--C-[OXT] |==|  0.66593
USER: genes 10 Torsion [C]-CA--CB-[SG] |==|  0.21100
USER: genes 11 Torsion [CA]-CB--SG-[HG] |==|  0.98361
USER: genes 12 Torsion [C]-CA--N-[C] |==|  0.77799
USER: genes 13 Torsion [N]-C--CA-[N] |==|  0.46073
USER: genes 14 Torsion [C]-CA--N-[H2] |==|  0.64436
USER: genes 15 Torsion [C]-CA--CB-[CG] |==|  0.78394
USER: genes 16 Torsion [CA]-CB--CG-[CD] |==|  0.66403
USER: genes 17 Torsion [CB]-CG--CD-[CE] |==|  0.41602
USER: genes 18 Torsion [CG]-CD--CE-[NZ] |==|  0.75787
USER: genes 19 Torsion [CD]-CE--NZ-[HZ1] |==|  0.48918
ROOT
ATOM      1  CA  CYS B   2       3.756  20.214  16.140  1.00 13.05 LIG 0.18  C 
ENDROOT
BRANCH 1 2
ATOM      2  C   CYS B   2       2.456  20.129  15.358  1.00 11.99 LIG 0.24  C 
ATOM      3  N   LYS B   3       1.345  19.971  16.084  1.00 12.79 LIG-0.34  N 
ATOM      4 H    LYS B   3       1.327  19.899  16.941  1.00 12.79 LIG 0.16  HD
ATOM      5 O    CYS B   2       2.455  20.340  14.141  1.00 13.18 LIG-0.27  OA
BRANCH 3 6
ATOM      6  CA  LYS B   3       0.052  19.910  15.436  1.00 17.07 LIG 0.18  C 
BRANCH 6 7
ATOM      7  CB  LYS B   3      -0.508  18.548  15.034  1.00 17.68 LIG 0.04  C 
BRANCH 7 8
ATOM      8  CG  LYS B   3      -1.313  18.760  13.729  1.00 18.86 LIG 0.00  C 
BRANCH 8 9
ATOM      9  CD  LYS B   3      -2.746  18.333  13.840  1.00 20.79 LIG 0.03  C 
BRANCH 9 10
ATOM     10  CE  LYS B   3      -3.310  17.655  12.584  1.00 22.05 LIG 0.23  C 
BRANCH 10 11
ATOM     11  NZ  LYS B   3      -2.272  17.621  11.519  1.00 26.11 LIG-0.08  N 
ATOM     12 HZ2  LYS B   3      -1.662  17.004  11.718  1.00 26.11 LIG 0.27  HD
ATOM     13 HZ1  LYS B   3      -1.880  18.418  11.461  1.00 26.11 LIG 0.27  HD
ATOM     14 HZ3  LYS B   3      -2.652  17.421  10.740  1.00 26.11 LIG 0.27  HD
ENDBRANCH 10 11
ENDBRANCH 9 10
ENDBRANCH 8 9
ENDBRANCH 7 8
ENDBRANCH 6 7
BRANCH 6 15
ATOM     15  C   LYS B   3      -1.025  20.598  16.311  1.00 17.69 LIG 0.20  C 
ATOM     16 OXT  LYS B   3      -1.994  19.997  16.718  1.00 15.19 LIG-0.65  OA
ATOM     17 O    LYS B   3      -0.770  21.740  16.718  1.00 19.25 LIG-0.65  OA
ENDBRANCH 6 15
ENDBRANCH 3 6
ENDBRANCH 1 2
BRANCH 1 18
ATOM     18  CB  CYS B   2       3.943  21.678  16.577  1.00 11.90 LIG 0.10  C 
BRANCH 18 19
ATOM     19 SG   CYS B   2       2.806  22.060  18.010  1.00 13.34 LIG-0.18  SA
ATOM     20 HG   CYS B   2       2.088  21.120  18.213  1.00 13.34 LIG 0.10  HD
ENDBRANCH 18 19
ENDBRANCH 1 18
BRANCH 1 21
ATOM     21  N   CYS B   2       4.915  19.704  15.423  1.00 10.67 LIG-0.34  N 
ATOM     22 H    CYS B   2       5.392  20.327  15.072  1.00 10.67 LIG 0.16  HD
ATOM     23  C   LYS B   1       5.221  18.445  15.308  1.00  9.81 LIG 0.25  C 
ATOM     24 O    LYS B   1       4.589  17.562  15.887  1.00 12.59 LIG-0.27  OA
BRANCH 23 25
ATOM     25  CA  LYS B   1       6.503  18.068  14.570  1.00 10.58 LIG 0.27  C 
BRANCH 25 26
ATOM     26  N   LYS B   1       6.851  16.625  14.843  1.00  8.28 LIG-0.07  N 
ATOM     27 H1   LYS B   1       6.755  16.150  14.097  1.00  8.28 LIG 0.28  HD
ATOM     28 H3   LYS B   1       6.310  16.303  15.472  1.00  8.28 LIG 0.28  HD
ATOM     29 H2   LYS B   1       7.695  16.571  15.121  1.00  8.28 LIG 0.28  HD
ENDBRANCH 25 26
BRANCH 25 30
ATOM     30  CB  LYS B   1       6.301  18.331  13.069  1.00 12.65 LIG 0.04  C 
BRANCH 30 31
ATOM     31  CG  LYS B   1       5.483  17.290  12.297  1.00 13.69 LIG 0.00  C 
BRANCH 31 32
ATOM     32  CD  LYS B   1       6.312  16.673  11.140  1.00 12.46 LIG 0.03  C 
BRANCH 32 33
ATOM     33  CE  LYS B   1       5.844  15.209  10.890  1.00 14.43 LIG 0.23  C 
BRANCH 33 34
ATOM     34  NZ  LYS B   1       6.666  14.375  11.843  1.00 15.78 LIG-0.08  N 
ATOM     35 HZ3  LYS B   1       6.548  14.671  12.673  1.00 15.78 LIG 0.27  HD
ATOM     36 HZ1  LYS B   1       6.407  13.525  11.792  1.00 15.78 LIG 0.27  HD
ATOM     37 HZ2  LYS B   1       7.527  14.437  11.625  1.00 15.78 LIG 0.27  HD
ENDBRANCH 33 34
ENDBRANCH 32 33
ENDBRANCH 31 32
ENDBRANCH 30 31
ENDBRANCH 25 30
ENDBRANCH 23 25
ENDBRANCH 1 21
TORSDOF 18
ENDMDL
