MODEL 1
USER: ADFR SOLUTION from run 186
USER: SCORE 22.836370 LL:  -0.989 LR: -21.948 RR:   0.000 FEB: -16.281
USER: RMSD 1.247650
USER: SEED 185
USER: STATUS no improvement in best in 2 clusters for 5 generations
USER: GENES 21
USER: genes 0 Translation |==|  0.60445 0.59375 0.53672
USER: genes 1 Rotation |==|  0.46271 0.53922 0.46530 0.99585
USER: genes 2 Torsion [N]-CA--C-[N] |==|  0.33364
USER: genes 3 Torsion [C]-N--CA-[CB] |==|  0.28909
USER: genes 4 Torsion [N]-CA--CB-[CG] |==|  0.57943
USER: genes 5 Torsion [CA]-CB--CG-[CD] |==|  0.52325
USER: genes 6 Torsion [CB]-CG--CD-[CE] |==|  0.52834
USER: genes 7 Torsion [CG]-CD--CE-[NZ] |==|  0.29672
USER: genes 8 Torsion [CD]-CE--NZ-[HZ3] |==|  0.25558
USER: genes 9 Torsion [N]-CA--C-[O] |==|  0.68828
USER: genes 10 Torsion [C]-CA--CB-[CG] |==|  0.40659
USER: genes 11 Torsion [CA]-CB--CG-[SD] |==|  0.87420
USER: genes 12 Torsion [CB]-CG--SD-[CE] |==|  0.53471
USER: genes 13 Torsion [C]-CA--N-[C] |==|  0.76790
USER: genes 14 Torsion [N]-C--CA-[N] |==|  0.35074
USER: genes 15 Torsion [C]-CA--CB-[CG] |==|  0.36942
USER: genes 16 Torsion [CA]-CB--CG-[CD] |==|  0.85106
USER: genes 17 Torsion [CB]-CG--CD-[CE] |==|  0.24917
USER: genes 18 Torsion [CG]-CD--CE-[NZ] |==|  0.00014
USER: genes 19 Torsion [CD]-CE--NZ-[HZ1] |==|  0.35107
USER: genes 20 Torsion [C]-CA--N-[H3] |==|  0.15217
ROOT
ATOM      1  CA  MET B   2       4.007  20.184  15.668  1.00  6.97 LIG 0.18  C 
ENDROOT
BRANCH 1 2
ATOM      2  C   MET B   2       2.593  20.122  15.131  1.00  8.68 LIG 0.24  C 
ATOM      3 O    MET B   2       2.361  20.492  13.979  1.00  9.39 LIG-0.27  OA
ATOM      4  N   LYS B   3       1.654  19.727  16.008  1.00  6.67 LIG-0.34  N 
ATOM      5 H    LYS B   3       1.809  19.472  16.814  1.00  6.67 LIG 0.16  HD
BRANCH 4 6
ATOM      6  CA  LYS B   3       0.251  19.712  15.609  1.00  9.86 LIG 0.18  C 
BRANCH 6 7
ATOM      7  CB  LYS B   3      -0.299  18.310  15.317  1.00 11.74 LIG 0.04  C 
BRANCH 7 8
ATOM      8  CG  LYS B   3      -1.417  18.571  14.270  1.00 14.43 LIG 0.00  C 
BRANCH 8 9
ATOM      9  CD  LYS B   3      -2.222  17.332  14.000  1.00 17.61 LIG 0.03  C 
BRANCH 9 10
ATOM     10  CE  LYS B   3      -3.138  17.550  12.795  1.00 19.20 LIG 0.23  C 
BRANCH 10 11
ATOM     11  NZ  LYS B   3      -2.523  16.753  11.685  1.00 20.87 LIG-0.08  N 
ATOM     12 HZ3  LYS B   3      -2.878  15.937  11.673  1.00 20.87 LIG 0.27  HD
ATOM     13 HZ1  LYS B   3      -2.680  17.156  10.907  1.00 20.87 LIG 0.27  HD
ATOM     14 HZ2  LYS B   3      -1.644  16.692  11.815  1.00 20.87 LIG 0.27  HD
ENDBRANCH 10 11
ENDBRANCH 9 10
ENDBRANCH 8 9
ENDBRANCH 7 8
ENDBRANCH 6 7
BRANCH 6 15
ATOM     15  C   LYS B   3      -0.632  20.336  16.702  1.00 12.85 LIG 0.20  C 
ATOM     16 O    LYS B   3      -1.405  19.524  17.285  1.00 12.91 LIG-0.65  OA
ATOM     17 OXT  LYS B   3      -0.650  21.560  16.855  1.00 11.49 LIG-0.65  OA
ENDBRANCH 6 15
ENDBRANCH 4 6
ENDBRANCH 1 2
BRANCH 1 18
ATOM     18  CB  MET B   2       4.514  21.630  15.414  1.00  8.88 LIG 0.04  C 
BRANCH 18 19
ATOM     19  CG  MET B   2       5.463  22.064  16.551  1.00 12.36 LIG 0.08  C 
BRANCH 19 20
ATOM     20 SD   MET B   2       4.748  21.611  18.148  1.00 15.55 LIG-0.17  SA
ATOM     21  CE  MET B   2       5.795  22.524  19.272  1.00 16.27 LIG 0.09  C 
ENDBRANCH 19 20
ENDBRANCH 18 19
ENDBRANCH 1 18
BRANCH 1 22
ATOM     22  N   MET B   2       4.917  19.291  14.928  1.00  7.01 LIG-0.35  N 
ATOM     23  C   LYS B   1       5.028  17.999  15.207  1.00  7.04 LIG 0.25  C 
ATOM     24 O    LYS B   1       4.447  17.442  16.150  1.00  8.63 LIG-0.27  OA
ATOM     25 H    MET B   2       5.363  19.683  14.307  1.00  7.01 LIG 0.16  HD
BRANCH 23 26
ATOM     26  CA  LYS B   1       6.022  17.226  14.357  1.00  7.11 LIG 0.27  C 
BRANCH 26 27
ATOM     27  CB  LYS B   1       5.347  16.308  13.322  1.00  9.17 LIG 0.04  C 
BRANCH 27 28
ATOM     28  CG  LYS B   1       5.894  16.369  11.907  1.00  9.41 LIG 0.00  C 
BRANCH 28 29
ATOM     29  CD  LYS B   1       5.912  17.817  11.374  1.00  9.76 LIG 0.03  C 
BRANCH 29 30
ATOM     30  CE  LYS B   1       7.194  18.585  11.660  1.00 11.82 LIG 0.23  C 
BRANCH 30 31
ATOM     31  NZ  LYS B   1       8.232  17.817  12.410  1.00 12.32 LIG-0.08  N 
ATOM     32 HZ1  LYS B   1       9.000  17.842  11.963  1.00 12.32 LIG 0.27  HD
ATOM     33 HZ2  LYS B   1       8.345  18.178  13.215  1.00 12.32 LIG 0.27  HD
ATOM     34 HZ3  LYS B   1       7.968  16.971  12.500  1.00 12.32 LIG 0.27  HD
ENDBRANCH 30 31
ENDBRANCH 29 30
ENDBRANCH 28 29
ENDBRANCH 27 28
ENDBRANCH 26 27
BRANCH 26 35
ATOM     35  N   LYS B   1       7.005  16.491  15.225  1.00  7.84 LIG-0.07  N 
ATOM     36 H1   LYS B   1       7.530  15.984  14.716  1.00  7.84 LIG 0.28  HD
ATOM     37 H3   LYS B   1       6.565  15.975  15.802  1.00  7.84 LIG 0.28  HD
ATOM     38 H2   LYS B   1       7.503  17.078  15.673  1.00  7.84 LIG 0.28  HD
ENDBRANCH 26 35
ENDBRANCH 23 26
ENDBRANCH 1 22
TORSDOF 19
ENDMDL
MODEL 2
USER: ADFR SOLUTION from run 186
USER: SCORE 23.062176 LL:  -1.961 LR: -21.111 RR:   0.000 FEB: -15.443
USER: RMSD 1.337776
USER: SEED 185
USER: STATUS no improvement in best in 2 clusters for 5 generations
USER: GENES 21
USER: genes 0 Translation |==|  0.59691 0.59639 0.54749
USER: genes 1 Rotation |==|  0.48241 0.51876 0.50390 0.99932
USER: genes 2 Torsion [N]-CA--C-[N] |==|  0.38208
USER: genes 3 Torsion [C]-N--CA-[CB] |==|  0.25404
USER: genes 4 Torsion [N]-CA--CB-[CG] |==|  0.52733
USER: genes 5 Torsion [CA]-CB--CG-[CD] |==|  0.48482
USER: genes 6 Torsion [CB]-CG--CD-[CE] |==|  0.56067
USER: genes 7 Torsion [CG]-CD--CE-[NZ] |==|  0.24622
USER: genes 8 Torsion [CD]-CE--NZ-[HZ3] |==|  0.11522
USER: genes 9 Torsion [N]-CA--C-[O] |==|  0.22362
USER: genes 10 Torsion [C]-CA--CB-[CG] |==|  0.33751
USER: genes 11 Torsion [CA]-CB--CG-[SD] |==|  0.93109
USER: genes 12 Torsion [CB]-CG--SD-[CE] |==|  0.76997
USER: genes 13 Torsion [C]-CA--N-[C] |==|  0.81111
USER: genes 14 Torsion [N]-C--CA-[N] |==|  0.37623
USER: genes 15 Torsion [C]-CA--CB-[CG] |==|  0.84967
USER: genes 16 Torsion [CA]-CB--CG-[CD] |==|  0.71187
USER: genes 17 Torsion [CB]-CG--CD-[CE] |==|  0.61305
USER: genes 18 Torsion [CG]-CD--CE-[NZ] |==|  0.55818
USER: genes 19 Torsion [CD]-CE--NZ-[HZ1] |==|  0.52411
USER: genes 20 Torsion [C]-CA--N-[H3] |==|  0.06374
ROOT
ATOM      1  CA  MET B   2       3.860  20.230  15.854  1.00  6.97 LIG 0.18  C 
ENDROOT
BRANCH 1 2
ATOM      2  C   MET B   2       2.514  20.005  15.199  1.00  8.68 LIG 0.24  C 
ATOM      3 O    MET B   2       2.398  20.140  13.980  1.00  9.39 LIG-0.27  OA
ATOM      4  N   LYS B   3       1.495  19.743  16.036  1.00  6.67 LIG-0.34  N 
ATOM      5 H    LYS B   3       1.569  19.652  16.887  1.00  6.67 LIG 0.16  HD
BRANCH 4 6
ATOM      6  CA  LYS B   3       0.144  19.591  15.507  1.00  9.86 LIG 0.18  C 
BRANCH 6 7
ATOM      7  CB  LYS B   3      -0.227  18.147  15.150  1.00 11.74 LIG 0.04  C 
BRANCH 7 8
ATOM      8  CG  LYS B   3      -1.574  18.296  14.390  1.00 14.43 LIG 0.00  C 
BRANCH 8 9
ATOM      9  CD  LYS B   3      -2.045  16.983  13.834  1.00 17.61 LIG 0.03  C 
BRANCH 9 10
ATOM     10  CE  LYS B   3      -3.021  17.218  12.680  1.00 19.20 LIG 0.23  C 
BRANCH 10 11
ATOM     11  NZ  LYS B   3      -2.164  17.312  11.454  1.00 20.87 LIG-0.08  N 
ATOM     12 HZ3  LYS B   3      -1.525  16.692  11.490  1.00 20.87 LIG 0.27  HD
ATOM     13 HZ1  LYS B   3      -2.665  17.179  10.730  1.00 20.87 LIG 0.27  HD
ATOM     14 HZ2  LYS B   3      -1.791  18.119  11.413  1.00 20.87 LIG 0.27  HD
ENDBRANCH 10 11
ENDBRANCH 9 10
ENDBRANCH 8 9
ENDBRANCH 7 8
ENDBRANCH 6 7
BRANCH 6 15
ATOM     15  C   LYS B   3      -0.895  20.098  16.520  1.00 12.85 LIG 0.20  C 
ATOM     16 O    LYS B   3      -1.053  21.351  16.535  1.00 12.91 LIG-0.65  OA
ATOM     17 OXT  LYS B   3      -1.398  19.315  17.331  1.00 11.49 LIG-0.65  OA
ENDBRANCH 6 15
ENDBRANCH 4 6
ENDBRANCH 1 2
BRANCH 1 18
ATOM     18  CB  MET B   2       4.151  21.752  15.758  1.00  8.88 LIG 0.04  C 
BRANCH 18 19
ATOM     19  CG  MET B   2       4.350  22.341  17.170  1.00 12.36 LIG 0.08  C 
BRANCH 19 20
ATOM     20 SD   MET B   2       3.495  21.314  18.387  1.00 15.55 LIG-0.17  SA
ATOM     21  CE  MET B   2       1.827  21.942  18.265  1.00 16.27 LIG 0.09  C 
ENDBRANCH 19 20
ENDBRANCH 18 19
ENDBRANCH 1 18
BRANCH 1 22
ATOM     22  N   MET B   2       4.947  19.555  15.123  1.00  7.01 LIG-0.35  N 
ATOM     23  C   LYS B   1       5.056  18.234  15.069  1.00  7.04 LIG 0.25  C 
ATOM     24 O    LYS B   1       4.312  17.453  15.682  1.00  8.63 LIG-0.27  OA
ATOM     25 H    MET B   2       5.498  20.093  14.740  1.00  7.01 LIG 0.16  HD
BRANCH 23 26
ATOM     26  CA  LYS B   1       6.243  17.702  14.285  1.00  7.11 LIG 0.27  C 
BRANCH 26 27
ATOM     27  CB  LYS B   1       5.886  17.310  12.840  1.00  9.17 LIG 0.04  C 
BRANCH 27 28
ATOM     28  CG  LYS B   1       4.738  16.331  12.669  1.00  9.41 LIG 0.00  C 
BRANCH 28 29
ATOM     29  CD  LYS B   1       5.251  14.914  12.336  1.00  9.76 LIG 0.03  C 
BRANCH 29 30
ATOM     30  CE  LYS B   1       4.442  14.174  11.281  1.00 11.82 LIG 0.23  C 
BRANCH 30 31
ATOM     31  NZ  LYS B   1       4.599  12.689  11.297  1.00 12.32 LIG-0.08  N 
ATOM     32 HZ1  LYS B   1       4.201  12.341  10.582  1.00 12.32 LIG 0.27  HD
ATOM     33 HZ2  LYS B   1       5.465  12.482  11.285  1.00 12.32 LIG 0.27  HD
ATOM     34 HZ3  LYS B   1       4.226  12.359  12.035  1.00 12.32 LIG 0.27  HD
ENDBRANCH 30 31
ENDBRANCH 29 30
ENDBRANCH 28 29
ENDBRANCH 27 28
ENDBRANCH 26 27
BRANCH 26 35
ATOM     35  N   LYS B   1       6.920  16.588  15.035  1.00  7.84 LIG-0.07  N 
ATOM     36 H1   LYS B   1       7.197  15.969  14.459  1.00  7.84 LIG 0.28  HD
ATOM     37 H3   LYS B   1       6.344  16.223  15.608  1.00  7.84 LIG 0.28  HD
ATOM     38 H2   LYS B   1       7.618  16.912  15.481  1.00  7.84 LIG 0.28  HD
ENDBRANCH 26 35
ENDBRANCH 23 26
ENDBRANCH 1 22
TORSDOF 19
ENDMDL
