MODEL 1
USER: ADFR SOLUTION from run 14
USER: SCORE 22.455753 LL:  -1.458 LR: -21.028 RR:   0.000 FEB: -15.658
USER: RMSD 0.833100
USER: SEED 81471
USER: STATUS 1 or 2 clusters left
USER: GENES 20
USER: genes 0 Translation |==|  0.62289 0.59438 0.62740
USER: genes 1 Rotation |==|  0.49684 0.49437 0.50333 0.99995
USER: genes 2 Torsion [N]-CA--C-[N] |==|  0.37612
USER: genes 3 Torsion [C]-N--CA-[CB] |==|  0.29446
USER: genes 4 Torsion [N]-CA--CB-[CG] |==|  0.55158
USER: genes 5 Torsion [CA]-CB--CG-[CD] |==|  0.55304
USER: genes 6 Torsion [CB]-CG--CD-[CE] |==|  0.52400
USER: genes 7 Torsion [CG]-CD--CE-[NZ] |==|  0.16437
USER: genes 8 Torsion [CD]-CE--NZ-[HZ3] |==|  0.15276
USER: genes 9 Torsion [N]-CA--C-[O] |==|  0.76508
USER: genes 10 Torsion [C]-CA--CB-[CG1] |==|  0.54140
USER: genes 11 Torsion [CA]-CB--CG1-[CD1] |==|  0.55980
USER: genes 12 Torsion [C]-CA--N-[C] |==|  0.80353
USER: genes 13 Torsion [N]-C--CA-[N] |==|  0.43939
USER: genes 14 Torsion [C]-CA--N-[H1] |==|  0.56982
USER: genes 15 Torsion [C]-CA--CB-[CG] |==|  0.86692
USER: genes 16 Torsion [CA]-CB--CG-[CD] |==|  0.66279
USER: genes 17 Torsion [CB]-CG--CD-[CE] |==|  0.27833
USER: genes 18 Torsion [CG]-CD--CE-[NZ] |==|  0.71846
USER: genes 19 Torsion [CD]-CE--NZ-[HZ1] |==|  0.26948
ROOT
ATOM      1  CA  ILE B   2       4.047  20.392  16.263  1.00 17.45 LIG 0.18  C 
ENDROOT
BRANCH 1 2
ATOM      2  C   ILE B   2       2.780  20.372  15.393  1.00 17.77 LIG 0.24  C 
ATOM      3 O    ILE B   2       2.788  20.644  14.202  1.00 17.30 LIG-0.27  OA
ATOM      4  N   LYS B   3       1.664  19.996  16.078  1.00 18.03 LIG-0.34  N 
ATOM      5 H    LYS B   3       1.666  19.763  16.906  1.00 18.03 LIG 0.16  HD
BRANCH 4 6
ATOM      6  CA  LYS B   3       0.371  19.961  15.455  1.00 18.65 LIG 0.18  C 
BRANCH 6 7
ATOM      7  CB  LYS B   3      -0.160  18.561  15.145  1.00 18.38 LIG 0.04  C 
BRANCH 7 8
ATOM      8  CG  LYS B   3      -1.289  18.717  14.083  1.00 17.78 LIG 0.00  C 
BRANCH 8 9
ATOM      9  CD  LYS B   3      -2.148  17.449  14.104  1.00 19.84 LIG 0.03  C 
BRANCH 9 10
ATOM     10  CE  LYS B   3      -3.128  17.523  12.896  1.00 23.06 LIG 0.23  C 
BRANCH 10 11
ATOM     11  NZ  LYS B   3      -2.337  17.621  11.631  1.00 27.49 LIG-0.08  N 
ATOM     12 HZ3  LYS B   3      -1.764  16.941  11.585  1.00 27.49 LIG 0.27  HD
ATOM     13 HZ2  LYS B   3      -1.888  18.389  11.620  1.00 27.49 LIG 0.27  HD
ATOM     14 HZ1  LYS B   3      -2.888  17.589  10.932  1.00 27.49 LIG 0.27  HD
ENDBRANCH 10 11
ENDBRANCH 9 10
ENDBRANCH 8 9
ENDBRANCH 7 8
ENDBRANCH 6 7
BRANCH 6 15
ATOM     15  C   LYS B   3      -0.679  20.607  16.403  1.00 19.41 LIG 0.20  C 
ATOM     16 O    LYS B   3      -1.161  19.875  17.256  1.00 18.76 LIG-0.65  OA
ATOM     17 OXT  LYS B   3      -1.074  21.766  16.260  1.00 17.05 LIG-0.65  OA
ENDBRANCH 6 15
ENDBRANCH 4 6
ENDBRANCH 1 2
BRANCH 1 18
ATOM     18  CB  ILE B   2       4.277  21.812  16.755  1.00 18.07 LIG 0.01  C 
ATOM     19  CG2 ILE B   2       3.368  22.198  17.951  1.00 16.68 LIG 0.01  C 
BRANCH 18 20
ATOM     20  CG1 ILE B   2       5.742  21.878  17.296  1.00 16.61 LIG 0.00  C 
ATOM     21  CD1 ILE B   2       5.904  23.039  18.264  1.00 19.99 LIG 0.01  C 
ENDBRANCH 18 20
ENDBRANCH 1 18
BRANCH 1 22
ATOM     22  N   ILE B   2       5.201  19.781  15.610  1.00 14.52 LIG-0.35  N 
ATOM     23  C   LYS B   1       5.322  18.506  15.391  1.00 13.52 LIG 0.25  C 
ATOM     24 O    LYS B   1       4.506  17.705  15.843  1.00 12.92 LIG-0.27  OA
ATOM     25 H    ILE B   2       5.803  20.351  15.381  1.00 14.52 LIG 0.16  HD
BRANCH 23 26
ATOM     26  CA  LYS B   1       6.622  17.979  14.748  1.00 10.84 LIG 0.27  C 
BRANCH 26 27
ATOM     27  N   LYS B   1       6.810  16.514  15.052  1.00 11.78 LIG-0.07  N 
ATOM     28 H3   LYS B   1       6.363  16.027  14.456  1.00 11.78 LIG 0.28  HD
ATOM     29 H2   LYS B   1       6.502  16.338  15.868  1.00 11.78 LIG 0.28  HD
ATOM     30 H1   LYS B   1       7.676  16.311  15.011  1.00 11.78 LIG 0.28  HD
ENDBRANCH 26 27
BRANCH 26 31
ATOM     31  CB  LYS B   1       6.619  18.246  13.249  1.00 14.95 LIG 0.04  C 
BRANCH 31 32
ATOM     32  CG  LYS B   1       5.381  17.880  12.455  1.00 16.40 LIG 0.00  C 
BRANCH 32 33
ATOM     33  CD  LYS B   1       5.588  16.894  11.326  1.00 17.75 LIG 0.03  C 
BRANCH 33 34
ATOM     34  CE  LYS B   1       5.176  15.443  11.689  1.00 20.84 LIG 0.23  C 
BRANCH 34 35
ATOM     35  NZ  LYS B   1       6.435  14.653  12.006  1.00 18.68 LIG-0.08  N 
ATOM     36 HZ1  LYS B   1       6.560  14.634  12.887  1.00 18.68 LIG 0.27  HD
ATOM     37 HZ3  LYS B   1       7.135  15.040  11.616  1.00 18.68 LIG 0.27  HD
ATOM     38 HZ2  LYS B   1       6.349  13.821  11.701  1.00 18.68 LIG 0.27  HD
ENDBRANCH 34 35
ENDBRANCH 33 34
ENDBRANCH 32 33
ENDBRANCH 31 32
ENDBRANCH 26 31
ENDBRANCH 23 26
ENDBRANCH 1 22
TORSDOF 18
ENDMDL
MODEL 2
USER: ADFR SOLUTION from run 60
USER: SCORE 21.594584 LL:  -1.346 LR: -20.314 RR:   0.000 FEB: -14.944
USER: RMSD 2.162370
USER: SEED 59
USER: STATUS no improvement in best in 3 clusters for 5 generations
USER: GENES 20
USER: genes 0 Translation |==|  0.67012 0.59291 0.63961
USER: genes 1 Rotation |==|  0.48187 0.57387 0.43395 0.98975
USER: genes 2 Torsion [N]-CA--C-[N] |==|  0.42282
USER: genes 3 Torsion [C]-N--CA-[CB] |==|  0.23628
USER: genes 4 Torsion [N]-CA--CB-[CG] |==|  0.57697
USER: genes 5 Torsion [CA]-CB--CG-[CD] |==|  0.52385
USER: genes 6 Torsion [CB]-CG--CD-[CE] |==|  0.45470
USER: genes 7 Torsion [CG]-CD--CE-[NZ] |==|  0.53239
USER: genes 8 Torsion [CD]-CE--NZ-[HZ3] |==|  0.42378
USER: genes 9 Torsion [N]-CA--C-[O] |==|  0.41148
USER: genes 10 Torsion [C]-CA--CB-[CG1] |==|  0.26632
USER: genes 11 Torsion [CA]-CB--CG1-[CD1] |==|  0.58759
USER: genes 12 Torsion [C]-CA--N-[C] |==|  0.76901
USER: genes 13 Torsion [N]-C--CA-[N] |==|  0.34897
USER: genes 14 Torsion [C]-CA--N-[H1] |==|  0.39302
USER: genes 15 Torsion [C]-CA--CB-[CG] |==|  0.22813
USER: genes 16 Torsion [CA]-CB--CG-[CD] |==|  0.20320
USER: genes 17 Torsion [CB]-CG--CD-[CE] |==|  0.79320
USER: genes 18 Torsion [CG]-CD--CE-[NZ] |==|  0.23735
USER: genes 19 Torsion [CD]-CE--NZ-[HZ1] |==|  0.31356
ROOT
ATOM      1  CA  ILE B   2       5.004  20.367  16.455  1.00 17.45 LIG 0.18  C 
ENDROOT
BRANCH 1 2
ATOM      2  C   ILE B   2       3.569  20.694  16.012  1.00 17.77 LIG 0.24  C 
ATOM      3 O    ILE B   2       3.206  20.644  14.846  1.00 17.30 LIG-0.27  OA
ATOM      4  N   LYS B   3       2.747  21.016  17.049  1.00 18.03 LIG-0.34  N 
ATOM      5 H    LYS B   3       2.991  21.010  17.874  1.00 18.03 LIG 0.16  HD
BRANCH 4 6
ATOM      6  CA  LYS B   3       1.379  21.400  16.839  1.00 18.65 LIG 0.18  C 
BRANCH 6 7
ATOM      7  CB  LYS B   3       0.391  20.239  16.730  1.00 18.38 LIG 0.04  C 
BRANCH 7 8
ATOM      8  CG  LYS B   3      -0.797  20.721  15.844  1.00 17.78 LIG 0.00  C 
BRANCH 8 9
ATOM      9  CD  LYS B   3      -1.899  19.659  15.896  1.00 19.84 LIG 0.03  C 
BRANCH 9 10
ATOM     10  CE  LYS B   3      -3.211  20.313  15.372  1.00 23.06 LIG 0.23  C 
BRANCH 10 11
ATOM     11  NZ  LYS B   3      -4.362  19.407  15.671  1.00 27.49 LIG-0.08  N 
ATOM     12 HZ3  LYS B   3      -5.106  19.889  15.755  1.00 27.49 LIG 0.27  HD
ATOM     13 HZ2  LYS B   3      -4.205  18.968  16.429  1.00 27.49 LIG 0.27  HD
ATOM     14 HZ1  LYS B   3      -4.462  18.824  15.006  1.00 27.49 LIG 0.27  HD
ENDBRANCH 10 11
ENDBRANCH 9 10
ENDBRANCH 8 9
ENDBRANCH 7 8
ENDBRANCH 6 7
BRANCH 6 15
ATOM     15  C   LYS B   3       0.890  22.255  18.043  1.00 19.41 LIG 0.20  C 
ATOM     16 O    LYS B   3       0.059  23.117  17.792  1.00 18.76 LIG-0.65  OA
ATOM     17 OXT  LYS B   3       1.367  22.139  19.173  1.00 17.05 LIG-0.65  OA
ENDBRANCH 6 15
ENDBRANCH 4 6
ENDBRANCH 1 2
BRANCH 1 18
ATOM     18  CB  ILE B   2       5.744  21.670  16.709  1.00 18.07 LIG 0.01  C 
ATOM     19  CG2 ILE B   2       5.092  22.890  16.008  1.00 16.68 LIG 0.01  C 
BRANCH 18 20
ATOM     20  CG1 ILE B   2       5.650  21.960  18.241  1.00 16.61 LIG 0.00  C 
ATOM     21  CD1 ILE B   2       5.628  23.458  18.503  1.00 19.99 LIG 0.01  C 
ENDBRANCH 18 20
ENDBRANCH 1 18
BRANCH 1 22
ATOM     22  N   ILE B   2       5.687  19.445  15.553  1.00 14.52 LIG-0.35  N 
ATOM     23  C   LYS B   1       5.558  18.154  15.597  1.00 13.52 LIG 0.25  C 
ATOM     24 O    LYS B   1       4.932  17.610  16.506  1.00 12.92 LIG-0.27  OA
ATOM     25 H    ILE B   2       6.191  19.843  14.979  1.00 14.52 LIG 0.16  HD
BRANCH 23 26
ATOM     26  CA  LYS B   1       6.386  17.286  14.626  1.00 10.84 LIG 0.27  C 
BRANCH 26 27
ATOM     27  N   LYS B   1       7.181  16.251  15.381  1.00 11.78 LIG-0.07  N 
ATOM     28 H3   LYS B   1       6.811  16.116  16.179  1.00 11.78 LIG 0.28  HD
ATOM     29 H2   LYS B   1       8.017  16.537  15.486  1.00 11.78 LIG 0.28  HD
ATOM     30 H1   LYS B   1       7.184  15.487  14.924  1.00 11.78 LIG 0.28  HD
ENDBRANCH 26 27
BRANCH 26 31
ATOM     31  CB  LYS B   1       5.481  16.648  13.582  1.00 14.95 LIG 0.04  C 
BRANCH 31 32
ATOM     32  CG  LYS B   1       5.080  17.474  12.375  1.00 16.40 LIG 0.00  C 
BRANCH 32 33
ATOM     33  CD  LYS B   1       6.164  17.706  11.344  1.00 17.75 LIG 0.03  C 
BRANCH 33 34
ATOM     34  CE  LYS B   1       7.231  18.739  11.791  1.00 20.84 LIG 0.23  C 
BRANCH 34 35
ATOM     35  NZ  LYS B   1       8.285  18.015  12.611  1.00 18.68 LIG-0.08  N 
ATOM     36 HZ1  LYS B   1       9.057  18.014  12.168  1.00 18.68 LIG 0.27  HD
ATOM     37 HZ3  LYS B   1       8.026  17.176  12.755  1.00 18.68 LIG 0.27  HD
ATOM     38 HZ2  LYS B   1       8.391  18.429  13.392  1.00 18.68 LIG 0.27  HD
ENDBRANCH 34 35
ENDBRANCH 33 34
ENDBRANCH 32 33
ENDBRANCH 31 32
ENDBRANCH 26 31
ENDBRANCH 23 26
ENDBRANCH 1 22
TORSDOF 18
ENDMDL
MODEL 3
USER: ADFR SOLUTION from run 62
USER: SCORE 21.487587 LL:  -1.985 LR: -19.573 RR:   0.000 FEB: -14.203
USER: RMSD 1.974380
USER: SEED 61
USER: STATUS searching
USER: GENES 20
USER: genes 0 Translation |==|  0.62283 0.59178 0.61716
USER: genes 1 Rotation |==|  0.51273 0.50476 0.48327 0.99954
USER: genes 2 Torsion [N]-CA--C-[N] |==|  0.36495
USER: genes 3 Torsion [C]-N--CA-[CB] |==|  0.30008
USER: genes 4 Torsion [N]-CA--CB-[CG] |==|  0.55762
USER: genes 5 Torsion [CA]-CB--CG-[CD] |==|  0.59113
USER: genes 6 Torsion [CB]-CG--CD-[CE] |==|  0.68745
USER: genes 7 Torsion [CG]-CD--CE-[NZ] |==|  0.87986
USER: genes 8 Torsion [CD]-CE--NZ-[HZ3] |==|  0.19921
USER: genes 9 Torsion [N]-CA--C-[O] |==|  0.35780
USER: genes 10 Torsion [C]-CA--CB-[CG1] |==|  0.23440
USER: genes 11 Torsion [CA]-CB--CG1-[CD1] |==|  0.73477
USER: genes 12 Torsion [C]-CA--N-[C] |==|  0.77119
USER: genes 13 Torsion [N]-C--CA-[N] |==|  0.42222
USER: genes 14 Torsion [C]-CA--N-[H1] |==|  0.61098
USER: genes 15 Torsion [C]-CA--CB-[CG] |==|  0.40559
USER: genes 16 Torsion [CA]-CB--CG-[CD] |==|  0.74650
USER: genes 17 Torsion [CB]-CG--CD-[CE] |==|  0.42901
USER: genes 18 Torsion [CG]-CD--CE-[NZ] |==|  0.35007
USER: genes 19 Torsion [CD]-CE--NZ-[HZ1] |==|  0.76577
ROOT
ATOM      1  CA  ILE B   2       4.046  20.347  16.101  1.00 17.45 LIG 0.18  C 
ENDROOT
BRANCH 1 2
ATOM      2  C   ILE B   2       2.748  20.484  15.289  1.00 17.77 LIG 0.24  C 
ATOM      3 O    ILE B   2       2.725  20.901  14.140  1.00 17.30 LIG-0.27  OA
ATOM      4  N   LYS B   3       1.643  20.070  15.968  1.00 18.03 LIG-0.34  N 
ATOM      5 H    LYS B   3       1.664  19.737  16.761  1.00 18.03 LIG 0.16  HD
BRANCH 4 6
ATOM      6  CA  LYS B   3       0.327  20.162  15.399  1.00 18.65 LIG 0.18  C 
BRANCH 6 7
ATOM      7  CB  LYS B   3      -0.294  18.828  14.988  1.00 18.38 LIG 0.04  C 
BRANCH 7 8
ATOM      8  CG  LYS B   3      -1.414  19.137  13.950  1.00 17.78 LIG 0.00  C 
BRANCH 8 9
ATOM      9  CD  LYS B   3      -2.531  18.103  14.124  1.00 19.84 LIG 0.03  C 
BRANCH 9 10
ATOM     10  CE  LYS B   3      -2.551  17.211  12.848  1.00 23.06 LIG 0.23  C 
BRANCH 10 11
ATOM     11  NZ  LYS B   3      -2.402  18.080  11.641  1.00 27.49 LIG-0.08  N 
ATOM     12 HZ3  LYS B   3      -1.568  18.388  11.597  1.00 27.49 LIG 0.27  HD
ATOM     13 HZ2  LYS B   3      -2.968  18.765  11.696  1.00 27.49 LIG 0.27  HD
ATOM     14 HZ1  LYS B   3      -2.580  17.607  10.909  1.00 27.49 LIG 0.27  HD
ENDBRANCH 10 11
ENDBRANCH 9 10
ENDBRANCH 8 9
ENDBRANCH 7 8
ENDBRANCH 6 7
BRANCH 6 15
ATOM     15  C   LYS B   3      -0.648  20.774  16.445  1.00 19.41 LIG 0.20  C 
ATOM     16 O    LYS B   3      -1.322  21.721  16.066  1.00 18.76 LIG-0.65  OA
ATOM     17 OXT  LYS B   3      -0.687  20.391  17.616  1.00 17.05 LIG-0.65  OA
ENDBRANCH 6 15
ENDBRANCH 4 6
ENDBRANCH 1 2
BRANCH 1 18
ATOM     18  CB  ILE B   2       4.409  21.709  16.671  1.00 18.07 LIG 0.01  C 
ATOM     19  CG2 ILE B   2       3.975  22.887  15.761  1.00 16.68 LIG 0.01  C 
BRANCH 18 20
ATOM     20  CG1 ILE B   2       3.605  21.880  18.000  1.00 16.61 LIG 0.00  C 
ATOM     21  CD1 ILE B   2       2.317  22.648  17.752  1.00 19.99 LIG 0.01  C 
ENDBRANCH 18 20
ENDBRANCH 1 18
BRANCH 1 22
ATOM     22  N   ILE B   2       5.120  19.692  15.362  1.00 14.52 LIG-0.35  N 
ATOM     23  C   LYS B   1       5.242  18.404  15.244  1.00 13.52 LIG 0.25  C 
ATOM     24 O    LYS B   1       4.509  17.638  15.868  1.00 12.92 LIG-0.27  OA
ATOM     25 H    ILE B   2       5.674  20.245  15.006  1.00 14.52 LIG 0.16  HD
BRANCH 23 26
ATOM     26  CA  LYS B   1       6.460  17.834  14.487  1.00 10.84 LIG 0.27  C 
BRANCH 26 27
ATOM     27  N   LYS B   1       6.812  16.461  15.001  1.00 11.78 LIG-0.07  N 
ATOM     28 H3   LYS B   1       6.485  15.844  14.449  1.00 11.78 LIG 0.28  HD
ATOM     29 H2   LYS B   1       6.461  16.349  15.812  1.00 11.78 LIG 0.28  HD
ATOM     30 H1   LYS B   1       7.697  16.379  15.047  1.00 11.78 LIG 0.28  HD
ENDBRANCH 26 27
BRANCH 26 31
ATOM     31  CB  LYS B   1       6.196  17.823  12.988  1.00 14.95 LIG 0.04  C 
BRANCH 31 32
ATOM     32  CG  LYS B   1       7.361  18.071  12.050  1.00 16.40 LIG 0.00  C 
BRANCH 32 33
ATOM     33  CD  LYS B   1       7.593  19.513  11.653  1.00 17.75 LIG 0.03  C 
BRANCH 33 34
ATOM     34  CE  LYS B   1       9.061  19.816  11.255  1.00 20.84 LIG 0.23  C 
BRANCH 34 35
ATOM     35  NZ  LYS B   1       9.060  20.453   9.875  1.00 18.68 LIG-0.08  N 
ATOM     36 HZ1  LYS B   1       9.038  19.816   9.254  1.00 18.68 LIG 0.27  HD
ATOM     37 HZ3  LYS B   1       9.797  20.941   9.773  1.00 18.68 LIG 0.27  HD
ATOM     38 HZ2  LYS B   1       8.345  20.976   9.789  1.00 18.68 LIG 0.27  HD
ENDBRANCH 34 35
ENDBRANCH 33 34
ENDBRANCH 32 33
ENDBRANCH 31 32
ENDBRANCH 26 31
ENDBRANCH 23 26
ENDBRANCH 1 22
TORSDOF 18
ENDMDL
