MODEL 1
USER: ADFR SOLUTION from run 76
USER: SCORE 19.734577 LL:  -0.712 LR: -19.173 RR:   0.000 FEB: -14.401
USER: RMSD 1.327858
USER: SEED 75
USER: STATUS no improvement in best in 2 clusters for 5 generations
USER: GENES 18
USER: genes 0 Translation |==|  0.56530 0.54330 0.67022
USER: genes 1 Rotation |==|  0.44630 0.47319 0.46831 0.99537
USER: genes 2 Torsion [C]-N--CA-[C] |==|  0.81675
USER: genes 3 Torsion [N]-CA--C-[N] |==|  0.38903
USER: genes 4 Torsion [C]-N--CA-[C] |==|  0.56059
USER: genes 5 Torsion [N]-CA--C-[OXT] |==|  0.68273
USER: genes 6 Torsion [N]-CA--CB-[CG] |==|  0.60554
USER: genes 7 Torsion [CA]-CB--CG-[CD] |==|  0.53866
USER: genes 8 Torsion [CB]-CG--CD-[CE] |==|  0.43518
USER: genes 9 Torsion [CG]-CD--CE-[NZ] |==|  0.19610
USER: genes 10 Torsion [CD]-CE--NZ-[HZ1] |==|  0.21815
USER: genes 11 Torsion [N]-C--CA-[N] |==|  0.29817
USER: genes 12 Torsion [C]-CA--CB-[CG] |==|  0.29872
USER: genes 13 Torsion [CA]-CB--CG-[CD] |==|  0.92382
USER: genes 14 Torsion [CB]-CG--CD-[CE] |==|  0.28790
USER: genes 15 Torsion [CG]-CD--CE-[NZ] |==|  0.87958
USER: genes 16 Torsion [CD]-CE--NZ-[HZ2] |==|  0.75090
USER: genes 17 Torsion [C]-CA--N-[H2] |==|  0.12764
ROOT
ATOM      1  C   LYS B   1      55.608   4.506  92.683  1.00 15.79 LIG 0.25  C 
ATOM      2 O    LYS B   1      56.217   4.917  91.674  1.00 16.21 LIG-0.27  OA
ATOM      3  N   GLY B   2      55.672   3.290  93.188  1.00 14.89 LIG-0.35  N 
ATOM      4 H    GLY B   2      55.211   3.005  93.856  1.00 14.89 LIG 0.16  HD
ENDROOT
BRANCH 3 5
ATOM      5  CA  GLY B   2      56.591   2.313  92.588  1.00 20.83 LIG 0.23  C 
BRANCH 5 6
ATOM      6  C   GLY B   2      56.165   1.962  91.171  1.00 21.80 LIG 0.24  C 
ATOM      7 O    GLY B   2      54.958   1.809  90.959  1.00 22.80 LIG-0.27  OA
ATOM      8  N   LYS B   3      57.108   1.819  90.249  1.00 24.68 LIG-0.34  N 
ATOM      9 H    LYS B   3      57.939   1.978  90.404  1.00 24.68 LIG 0.16  HD
BRANCH 8 10
ATOM     10  CA  LYS B   3      56.848   1.380  88.885  1.00 23.24 LIG 0.18  C 
BRANCH 10 11
ATOM     11  C   LYS B   3      58.076   0.789  88.173  1.00 25.01 LIG 0.20  C 
ATOM     12 OXT  LYS B   3      58.603   1.347  87.177  1.00 24.27 LIG-0.65  OA
ATOM     13 O    LYS B   3      58.512  -0.333  88.569  1.00 24.62 LIG-0.65  OA
ENDBRANCH 10 11
BRANCH 10 14
ATOM     14  CB  LYS B   3      56.340   2.507  88.004  1.00 24.40 LIG 0.04  C 
BRANCH 14 15
ATOM     15  CG  LYS B   3      55.232   1.907  87.031  1.00 26.49 LIG 0.00  C 
BRANCH 15 16
ATOM     16  CD  LYS B   3      55.019   2.955  85.963  1.00 30.21 LIG 0.03  C 
BRANCH 16 17
ATOM     17  CE  LYS B   3      54.447   2.330  84.675  1.00 33.43 LIG 0.23  C 
BRANCH 17 18
ATOM     18  NZ  LYS B   3      53.051   1.917  84.905  1.00 35.75 LIG-0.08  N 
ATOM     19 HZ2  LYS B   3      52.809   1.330  84.281  1.00 35.75 LIG 0.27  HD
ATOM     20 HZ1  LYS B   3      52.520   2.630  84.864  1.00 35.75 LIG 0.27  HD
ATOM     21 HZ3  LYS B   3      52.981   1.541  85.709  1.00 35.75 LIG 0.27  HD
ENDBRANCH 17 18
ENDBRANCH 16 17
ENDBRANCH 15 16
ENDBRANCH 14 15
ENDBRANCH 10 14
ENDBRANCH 8 10
ENDBRANCH 5 6
ENDBRANCH 3 5
BRANCH 1 22
ATOM     22  CA  LYS B   1      54.708   5.481  93.483  1.00 14.35 LIG 0.27  C 
BRANCH 22 23
ATOM     23  CB  LYS B   1      53.727   6.195  92.543  1.00 17.58 LIG 0.04  C 
BRANCH 23 24
ATOM     24  CG  LYS B   1      52.289   5.703  92.695  1.00 22.18 LIG 0.00  C 
BRANCH 24 25
ATOM     25  CD  LYS B   1      52.273   4.230  93.196  1.00 23.04 LIG 0.03  C 
BRANCH 25 26
ATOM     26  CE  LYS B   1      51.913   4.246  94.674  1.00 24.58 LIG 0.23  C 
BRANCH 26 27
ATOM     27  NZ  LYS B   1      52.607   5.292  95.431  1.00 25.06 LIG-0.08  N 
ATOM     28 HZ2  LYS B   1      53.378   4.973  95.739  1.00 25.06 LIG 0.27  HD
ATOM     29 HZ1  LYS B   1      52.099   5.550  96.114  1.00 25.06 LIG 0.27  HD
ATOM     30 HZ3  LYS B   1      52.765   5.988  94.899  1.00 25.06 LIG 0.27  HD
ENDBRANCH 26 27
ENDBRANCH 25 26
ENDBRANCH 24 25
ENDBRANCH 23 24
ENDBRANCH 22 23
BRANCH 22 31
ATOM     31  N   LYS B   1      55.554   6.472  94.218  1.00 11.88 LIG-0.07  N 
ATOM     32 H1   LYS B   1      55.941   6.075  94.914  1.00 11.88 LIG 0.28  HD
ATOM     33 H2   LYS B   1      56.182   6.789  93.673  1.00 11.88 LIG 0.28  HD
ATOM     34 H3   LYS B   1      55.045   7.142  94.505  1.00 11.88 LIG 0.28  HD
ENDBRANCH 22 31
ENDBRANCH 1 22
TORSDOF 16
ENDMDL
MODEL 2
USER: ADFR SOLUTION from run 120
USER: SCORE 19.331121 LL:  -1.890 LR: -17.730 RR:   0.000 FEB: -12.957
USER: RMSD 1.440658
USER: SEED 119
USER: STATUS 1 or 2 clusters left
USER: GENES 18
USER: genes 0 Translation |==|  0.56100 0.53199 0.67713
USER: genes 1 Rotation |==|  0.51436 0.46174 0.50589 0.99829
USER: genes 2 Torsion [C]-N--CA-[C] |==|  0.72780
USER: genes 3 Torsion [N]-CA--C-[N] |==|  0.42276
USER: genes 4 Torsion [C]-N--CA-[C] |==|  0.53429
USER: genes 5 Torsion [N]-CA--C-[OXT] |==|  0.83447
USER: genes 6 Torsion [N]-CA--CB-[CG] |==|  0.47720
USER: genes 7 Torsion [CA]-CB--CG-[CD] |==|  0.54371
USER: genes 8 Torsion [CB]-CG--CD-[CE] |==|  0.26862
USER: genes 9 Torsion [CG]-CD--CE-[NZ] |==|  0.13383
USER: genes 10 Torsion [CD]-CE--NZ-[HZ1] |==|  0.70060
USER: genes 11 Torsion [N]-C--CA-[N] |==|  0.38830
USER: genes 12 Torsion [C]-CA--CB-[CG] |==|  0.84556
USER: genes 13 Torsion [CA]-CB--CG-[CD] |==|  0.66075
USER: genes 14 Torsion [CB]-CG--CD-[CE] |==|  0.53339
USER: genes 15 Torsion [CG]-CD--CE-[NZ] |==|  0.57321
USER: genes 16 Torsion [CD]-CE--NZ-[HZ2] |==|  0.62673
USER: genes 17 Torsion [C]-CA--N-[H2] |==|  0.38746
ROOT
ATOM      1  C   LYS B   1      55.534   4.320  92.818  1.00 15.79 LIG 0.25  C 
ATOM      2 O    LYS B   1      56.086   5.072  91.989  1.00 16.21 LIG-0.27  OA
ATOM      3  N   GLY B   2      55.796   3.041  93.002  1.00 14.89 LIG-0.35  N 
ATOM      4 H    GLY B   2      55.376   2.521  93.543  1.00 14.89 LIG 0.16  HD
ENDROOT
BRANCH 3 5
ATOM      5  CA  GLY B   2      56.884   2.415  92.238  1.00 20.83 LIG 0.23  C 
BRANCH 5 6
ATOM      6  C   GLY B   2      56.343   1.678  91.022  1.00 21.80 LIG 0.24  C 
ATOM      7 O    GLY B   2      55.198   1.221  91.094  1.00 22.80 LIG-0.27  OA
ATOM      8  N   LYS B   3      57.132   1.549  89.964  1.00 24.68 LIG-0.34  N 
ATOM      9 H    LYS B   3      57.908   1.917  89.913  1.00 24.68 LIG 0.16  HD
BRANCH 8 10
ATOM     10  CA  LYS B   3      56.780   0.777  88.780  1.00 23.24 LIG 0.18  C 
BRANCH 10 11
ATOM     11  C   LYS B   3      57.959   0.527  87.824  1.00 25.01 LIG 0.20  C 
ATOM     12 OXT  LYS B   3      58.598   1.469  87.292  1.00 24.27 LIG-0.65  OA
ATOM     13 O    LYS B   3      58.232  -0.671  87.515  1.00 24.62 LIG-0.65  OA
ENDBRANCH 10 11
BRANCH 10 14
ATOM     14  CB  LYS B   3      55.693   1.445  87.958  1.00 24.40 LIG 0.04  C 
BRANCH 14 15
ATOM     15  CG  LYS B   3      55.542   0.636  86.595  1.00 26.49 LIG 0.00  C 
BRANCH 15 16
ATOM     16  CD  LYS B   3      54.762   1.542  85.671  1.00 30.21 LIG 0.03  C 
BRANCH 16 17
ATOM     17  CE  LYS B   3      55.704   2.328  84.736  1.00 33.43 LIG 0.23  C 
BRANCH 17 18
ATOM     18  NZ  LYS B   3      56.680   1.405  84.130  1.00 35.75 LIG-0.08  N 
ATOM     19 HZ2  LYS B   3      56.426   0.565  84.280  1.00 35.75 LIG 0.27  HD
ATOM     20 HZ1  LYS B   3      57.482   1.542  84.491  1.00 35.75 LIG 0.27  HD
ATOM     21 HZ3  LYS B   3      56.721   1.551  83.253  1.00 35.75 LIG 0.27  HD
ENDBRANCH 17 18
ENDBRANCH 16 17
ENDBRANCH 15 16
ENDBRANCH 14 15
ENDBRANCH 10 14
ENDBRANCH 8 10
ENDBRANCH 5 6
ENDBRANCH 3 5
BRANCH 1 22
ATOM     22  CA  LYS B   1      54.461   4.894  93.776  1.00 14.35 LIG 0.27  C 
BRANCH 22 23
ATOM     23  CB  LYS B   1      53.089   4.923  93.086  1.00 17.58 LIG 0.04  C 
BRANCH 23 24
ATOM     24  CG  LYS B   1      53.100   5.694  91.768  1.00 22.18 LIG 0.00  C 
BRANCH 24 25
ATOM     25  CD  LYS B   1      52.065   6.854  91.813  1.00 23.04 LIG 0.03  C 
BRANCH 25 26
ATOM     26  CE  LYS B   1      51.903   7.388  90.398  1.00 24.58 LIG 0.23  C 
BRANCH 26 27
ATOM     27  NZ  LYS B   1      51.482   8.792  90.351  1.00 25.06 LIG-0.08  N 
ATOM     28 HZ2  LYS B   1      50.828   8.885  89.756  1.00 25.06 LIG 0.27  HD
ATOM     29 HZ1  LYS B   1      52.172   9.301  90.114  1.00 25.06 LIG 0.27  HD
ATOM     30 HZ3  LYS B   1      51.190   9.042  91.154  1.00 25.06 LIG 0.27  HD
ENDBRANCH 26 27
ENDBRANCH 25 26
ENDBRANCH 24 25
ENDBRANCH 23 24
ENDBRANCH 22 23
BRANCH 22 31
ATOM     31  N   LYS B   1      54.857   6.265  94.225  1.00 11.88 LIG-0.07  N 
ATOM     32 H1   LYS B   1      55.460   6.599  93.662  1.00 11.88 LIG 0.28  HD
ATOM     33 H2   LYS B   1      54.140   6.792  94.239  1.00 11.88 LIG 0.28  HD
ATOM     34 H3   LYS B   1      55.207   6.220  95.042  1.00 11.88 LIG 0.28  HD
ENDBRANCH 22 31
ENDBRANCH 1 22
TORSDOF 16
ENDMDL
