MODEL 1
USER: ADFR SOLUTION from run 100
USER: SCORE 22.776784 LL:  -0.924 LR: -21.932 RR:   0.000 FEB: -16.562
USER: RMSD 0.618015
USER: SEED 99
USER: STATUS 1 or 2 clusters left
USER: GENES 20
USER: genes 0 Translation |==|  0.59546 0.61374 0.55889
USER: genes 1 Rotation |==|  0.48966 0.52768 0.49435 0.99909
USER: genes 2 Torsion [N]-CA--C-[N] |==|  0.34656
USER: genes 3 Torsion [C]-N--CA-[CB] |==|  0.29630
USER: genes 4 Torsion [N]-CA--CB-[CG] |==|  0.57654
USER: genes 5 Torsion [CA]-CB--CG-[CD] |==|  0.56489
USER: genes 6 Torsion [CB]-CG--CD-[CE] |==|  0.51075
USER: genes 7 Torsion [CG]-CD--CE-[NZ] |==|  0.15725
USER: genes 8 Torsion [CD]-CE--NZ-[HZ3] |==|  0.14261
USER: genes 9 Torsion [N]-CA--C-[O] |==|  0.21998
USER: genes 10 Torsion [C]-CA--CB-[CG] |==|  0.44401
USER: genes 11 Torsion [CA]-CB--CG-[CD1] |==|  0.23501
USER: genes 12 Torsion [C]-CA--N-[C] |==|  0.77583
USER: genes 13 Torsion [N]-C--CA-[N] |==|  0.40431
USER: genes 14 Torsion [C]-CA--CB-[CG] |==|  0.80924
USER: genes 15 Torsion [CA]-CB--CG-[CD] |==|  0.52006
USER: genes 16 Torsion [CB]-CG--CD-[CE] |==|  0.18255
USER: genes 17 Torsion [CG]-CD--CE-[NZ] |==|  0.10505
USER: genes 18 Torsion [CD]-CE--NZ-[HZ1] |==|  0.91768
USER: genes 19 Torsion [C]-CA--N-[H3] |==|  0.08258
ROOT
ATOM      1  CA  PHE B   2       4.088  20.404  15.919  1.00 30.29 LIG 0.18  C 
ENDROOT
BRANCH 1 2
ATOM      2  C   PHE B   2       2.696  20.303  15.261  1.00 29.92 LIG 0.24  C 
ATOM      3 O    PHE B   2       2.560  20.716  14.103  1.00 30.56 LIG-0.27  OA
ATOM      4  N   LYS B   3       1.692  19.802  15.990  1.00 27.47 LIG-0.35  N 
ATOM      5 H    LYS B   3       1.781  19.490  16.787  1.00 27.47 LIG 0.16  HD
BRANCH 4 6
ATOM      6  CA  LYS B   3       0.349  19.751  15.469  1.00 30.37 LIG 0.16  C 
BRANCH 6 7
ATOM      7  CB  LYS B   3      -0.055  18.303  15.100  1.00 32.12 LIG 0.03  C 
BRANCH 7 8
ATOM      8  CG  LYS B   3      -1.100  18.339  13.984  1.00 33.18 LIG 0.00  C 
BRANCH 8 9
ATOM      9  CD  LYS B   3      -1.950  17.091  13.937  1.00 36.86 LIG 0.03  C 
BRANCH 9 10
ATOM     10  CE  LYS B   3      -2.939  17.082  12.757  1.00 36.70 LIG 0.23  C 
BRANCH 10 11
ATOM     11  NZ  LYS B   3      -2.187  17.246  11.484  1.00 36.16 LIG-0.08  N 
ATOM     12 HZ3  LYS B   3      -1.525  16.652  11.451  1.00 36.16 LIG 0.27  HD
ATOM     13 HZ2  LYS B   3      -1.849  18.069  11.443  1.00 36.16 LIG 0.27  HD
ATOM     14 HZ1  LYS B   3      -2.736  17.117  10.796  1.00 36.16 LIG 0.27  HD
ENDBRANCH 10 11
ENDBRANCH 9 10
ENDBRANCH 8 9
ENDBRANCH 7 8
ENDBRANCH 6 7
BRANCH 6 15
ATOM     15  C   LYS B   3      -0.662  20.245  16.521  1.00 32.22 LIG 0.22  C 
ATOM     16 O    LYS B   3      -0.774  21.483  16.669  1.00 34.74 LIG-0.29  OA
ENDBRANCH 6 15
ENDBRANCH 4 6
ENDBRANCH 1 2
BRANCH 1 17
ATOM     17  CB  PHE B   2       4.449  21.897  16.048  1.00 30.71 LIG 0.07  C 
BRANCH 17 18
ATOM     18  CG  PHE B   2       5.531  22.156  17.091  1.00 31.43 LIG-0.06  A 
ATOM     19  CD1 PHE B   2       6.870  22.033  16.749  1.00 31.70 LIG 0.01  A 
ATOM     20  CE1 PHE B   2       7.839  22.274  17.693  1.00 34.47 LIG 0.00  A 
ATOM     21  CZ  PHE B   2       7.518  22.618  18.999  1.00 33.74 LIG 0.00  A 
ATOM     22  CE2 PHE B   2       6.173  22.729  19.318  1.00 35.51 LIG 0.00  A 
ATOM     23  CD2 PHE B   2       5.185  22.499  18.365  1.00 30.57 LIG 0.01  A 
ENDBRANCH 17 18
ENDBRANCH 1 17
BRANCH 1 24
ATOM     24  N   PHE B   2       5.124  19.733  15.167  1.00 28.58 LIG-0.35  N 
ATOM     25 H    PHE B   2       5.598  20.259  14.680  1.00 28.58 LIG 0.16  HD
ATOM     26  C   LYS B   1       5.316  18.422  15.230  1.00 31.08 LIG 0.25  C 
ATOM     27 O    LYS B   1       4.619  17.702  15.985  1.00 30.78 LIG-0.27  OA
BRANCH 26 28
ATOM     28  CA  LYS B   1       6.455  17.837  14.392  1.00 28.94 LIG 0.27  C 
BRANCH 28 29
ATOM     29  CB  LYS B   1       5.941  17.410  13.014  1.00 30.63 LIG 0.04  C 
BRANCH 29 30
ATOM     30  CG  LYS B   1       5.004  16.226  12.979  1.00 30.50 LIG 0.00  C 
BRANCH 30 31
ATOM     31  CD  LYS B   1       4.676  15.757  11.574  1.00 31.54 LIG 0.03  C 
BRANCH 31 32
ATOM     32  CE  LYS B   1       5.867  15.187  10.804  1.00 33.13 LIG 0.23  C 
BRANCH 32 33
ATOM     33  NZ  LYS B   1       6.726  14.402  11.760  1.00 35.52 LIG-0.08  N 
ATOM     34 HZ1  LYS B   1       6.655  14.748  12.576  1.00 35.52 LIG 0.27  HD
ATOM     35 HZ2  LYS B   1       6.457  13.554  11.773  1.00 35.52 LIG 0.27  HD
ATOM     36 HZ3  LYS B   1       7.575  14.439  11.496  1.00 35.52 LIG 0.27  HD
ENDBRANCH 32 33
ENDBRANCH 31 32
ENDBRANCH 30 31
ENDBRANCH 29 30
ENDBRANCH 28 29
BRANCH 28 37
ATOM     37  N   LYS B   1       7.101  16.677  15.090  1.00 27.26 LIG-0.07  N 
ATOM     38 H1   LYS B   1       7.413  16.103  14.487  1.00 27.26 LIG 0.28  HD
ATOM     39 H3   LYS B   1       6.500  16.269  15.604  1.00 27.26 LIG 0.28  HD
ATOM     40 H2   LYS B   1       7.773  16.970  15.594  1.00 27.26 LIG 0.28  HD
ENDBRANCH 28 37
ENDBRANCH 26 28
ENDBRANCH 1 24
TORSDOF 18
ENDMDL
MODEL 2
USER: ADFR SOLUTION from run 57
USER: SCORE 22.016923 LL:  -1.461 LR: -20.602 RR:   0.000 FEB: -15.233
USER: RMSD 1.709164
USER: SEED 56
USER: STATUS 1 or 2 clusters left
USER: GENES 20
USER: genes 0 Translation |==|  0.60217 0.59882 0.56899
USER: genes 1 Rotation |==|  0.49448 0.50371 0.49882 0.99995
USER: genes 2 Torsion [N]-CA--C-[N] |==|  0.36670
USER: genes 3 Torsion [C]-N--CA-[CB] |==|  0.30905
USER: genes 4 Torsion [N]-CA--CB-[CG] |==|  0.56400
USER: genes 5 Torsion [CA]-CB--CG-[CD] |==|  0.58491
USER: genes 6 Torsion [CB]-CG--CD-[CE] |==|  0.43829
USER: genes 7 Torsion [CG]-CD--CE-[NZ] |==|  0.29828
USER: genes 8 Torsion [CD]-CE--NZ-[HZ3] |==|  0.03052
USER: genes 9 Torsion [N]-CA--C-[O] |==|  0.77106
USER: genes 10 Torsion [C]-CA--CB-[CG] |==|  0.47601
USER: genes 11 Torsion [CA]-CB--CG-[CD1] |==|  0.25888
USER: genes 12 Torsion [C]-CA--N-[C] |==|  0.78498
USER: genes 13 Torsion [N]-C--CA-[N] |==|  0.44038
USER: genes 14 Torsion [C]-CA--CB-[CG] |==|  0.38690
USER: genes 15 Torsion [CA]-CB--CG-[CD] |==|  0.67343
USER: genes 16 Torsion [CB]-CG--CD-[CE] |==|  0.45310
USER: genes 17 Torsion [CG]-CD--CE-[NZ] |==|  0.48127
USER: genes 18 Torsion [CD]-CE--NZ-[HZ1] |==|  0.04648
USER: genes 19 Torsion [C]-CA--N-[H3] |==|  0.29085
ROOT
ATOM      1  CA  PHE B   2       4.218  20.157  16.101  1.00 30.29 LIG 0.18  C 
ENDROOT
BRANCH 1 2
ATOM      2  C   PHE B   2       2.898  20.045  15.311  1.00 29.92 LIG 0.24  C 
ATOM      3 O    PHE B   2       2.900  20.352  14.113  1.00 30.56 LIG-0.27  OA
ATOM      4  N   LYS B   3       1.803  19.651  15.972  1.00 27.47 LIG-0.35  N 
ATOM      5 H    LYS B   3       1.796  19.412  16.798  1.00 27.47 LIG 0.16  HD
BRANCH 4 6
ATOM      6  CA  LYS B   3       0.520  19.600  15.318  1.00 30.37 LIG 0.16  C 
BRANCH 6 7
ATOM      7  CB  LYS B   3       0.038  18.139  15.142  1.00 32.12 LIG 0.03  C 
BRANCH 7 8
ATOM      8  CG  LYS B   3      -0.971  18.073  13.994  1.00 33.18 LIG 0.00  C 
BRANCH 8 9
ATOM      9  CD  LYS B   3      -2.003  16.986  14.183  1.00 36.86 LIG 0.03  C 
BRANCH 9 10
ATOM     10  CE  LYS B   3      -3.292  17.237  13.379  1.00 36.70 LIG 0.23  C 
BRANCH 10 11
ATOM     11  NZ  LYS B   3      -3.350  16.290  12.233  1.00 36.16 LIG-0.08  N 
ATOM     12 HZ3  LYS B   3      -2.719  15.669  12.329  1.00 36.16 LIG 0.27  HD
ATOM     13 HZ2  LYS B   3      -3.215  16.734  11.474  1.00 36.16 LIG 0.27  HD
ATOM     14 HZ1  LYS B   3      -4.149  15.900  12.211  1.00 36.16 LIG 0.27  HD
ENDBRANCH 10 11
ENDBRANCH 9 10
ENDBRANCH 8 9
ENDBRANCH 7 8
ENDBRANCH 6 7
BRANCH 6 15
ATOM     15  C   LYS B   3      -0.548  20.327  16.157  1.00 32.22 LIG 0.22  C 
ATOM     16 O    LYS B   3      -1.073  19.685  17.094  1.00 34.74 LIG-0.29  OA
ENDBRANCH 6 15
ENDBRANCH 4 6
ENDBRANCH 1 2
BRANCH 1 17
ATOM     17  CB  PHE B   2       4.536  21.654  16.291  1.00 30.71 LIG 0.07  C 
BRANCH 17 18
ATOM     18  CG  PHE B   2       5.707  21.895  17.238  1.00 31.43 LIG-0.06  A 
ATOM     19  CD1 PHE B   2       6.993  22.027  16.734  1.00 31.70 LIG 0.01  A 
ATOM     20  CE1 PHE B   2       8.042  22.250  17.593  1.00 34.47 LIG 0.00  A 
ATOM     21  CZ  PHE B   2       7.859  22.324  18.968  1.00 33.74 LIG 0.00  A 
ATOM     22  CE2 PHE B   2       6.565  22.182  19.448  1.00 35.51 LIG 0.00  A 
ATOM     23  CD2 PHE B   2       5.495  21.969  18.583  1.00 30.57 LIG 0.01  A 
ENDBRANCH 17 18
ENDBRANCH 1 17
BRANCH 1 24
ATOM     24  N   PHE B   2       5.335  19.521  15.439  1.00 28.58 LIG-0.35  N 
ATOM     25 H    PHE B   2       5.867  20.070  15.047  1.00 28.58 LIG 0.16  HD
ATOM     26  C   LYS B   1       5.511  18.206  15.443  1.00 31.08 LIG 0.25  C 
ATOM     27 O    LYS B   1       4.722  17.450  16.061  1.00 30.78 LIG-0.27  OA
BRANCH 26 28
ATOM     28  CA  LYS B   1       6.740  17.658  14.714  1.00 28.94 LIG 0.27  C 
BRANCH 28 29
ATOM     29  CB  LYS B   1       6.495  17.627  13.203  1.00 30.63 LIG 0.04  C 
BRANCH 29 30
ATOM     30  CG  LYS B   1       7.648  18.046  12.322  1.00 30.50 LIG 0.00  C 
BRANCH 30 31
ATOM     31  CD  LYS B   1       7.353  19.277  11.487  1.00 31.54 LIG 0.03  C 
BRANCH 31 32
ATOM     32  CE  LYS B   1       8.592  19.959  10.907  1.00 33.13 LIG 0.23  C 
BRANCH 32 33
ATOM     33  NZ  LYS B   1       8.146  21.054   9.975  1.00 35.52 LIG-0.08  N 
ATOM     34 HZ1  LYS B   1       7.291  21.245  10.129  1.00 35.52 LIG 0.27  HD
ATOM     35 HZ2  LYS B   1       8.641  21.780  10.111  1.00 35.52 LIG 0.27  HD
ATOM     36 HZ3  LYS B   1       8.242  20.784   9.132  1.00 35.52 LIG 0.27  HD
ENDBRANCH 32 33
ENDBRANCH 31 32
ENDBRANCH 30 31
ENDBRANCH 29 30
ENDBRANCH 28 29
BRANCH 28 37
ATOM     37  N   LYS B   1       7.101  16.290  15.214  1.00 27.26 LIG-0.07  N 
ATOM     38 H1   LYS B   1       7.980  16.243  15.340  1.00 27.26 LIG 0.28  HD
ATOM     39 H3   LYS B   1       6.854  15.681  14.614  1.00 27.26 LIG 0.28  HD
ATOM     40 H2   LYS B   1       6.683  16.135  15.984  1.00 27.26 LIG 0.28  HD
ENDBRANCH 28 37
ENDBRANCH 26 28
ENDBRANCH 1 24
TORSDOF 18
ENDMDL
