MODEL 1
USER: ADFR SOLUTION from run 131
USER: SCORE 21.950626 LL:  -1.160 LR: -20.791 RR:   0.000 FEB: -16.316
USER: RMSD 0.777617
USER: SEED 130
USER: STATUS 1 or 2 clusters left
USER: GENES 17
USER: genes 0 Translation |==|  0.66682 0.52691 0.58924
USER: genes 1 Rotation |==|  0.50469 0.51778 0.50484 0.99964
USER: genes 2 Torsion [N]-CA--C-[N] |==|  0.41626
USER: genes 3 Torsion [C]-N--CA-[CB] |==|  0.25523
USER: genes 4 Torsion [N]-CA--CB-[CG] |==|  0.55648
USER: genes 5 Torsion [CA]-CB--CG-[CD] |==|  0.56683
USER: genes 6 Torsion [CB]-CG--CD-[CE] |==|  0.51264
USER: genes 7 Torsion [CG]-CD--CE-[NZ] |==|  0.17972
USER: genes 8 Torsion [CD]-CE--NZ-[HZ3] |==|  0.15373
USER: genes 9 Torsion [N]-CA--C-[O] |==|  0.23468
USER: genes 10 Torsion [N]-C--CA-[N] |==|  0.34168
USER: genes 11 Torsion [C]-CA--N-[H2] |==|  0.11438
USER: genes 12 Torsion [C]-CA--CB-[CG] |==|  0.41717
USER: genes 13 Torsion [CA]-CB--CG-[CD] |==|  0.42127
USER: genes 14 Torsion [CB]-CG--CD-[CE] |==|  0.97821
USER: genes 15 Torsion [CG]-CD--CE-[NZ] |==|  0.78275
USER: genes 16 Torsion [CD]-CE--NZ-[HZ1] |==|  0.55210
ROOT
ATOM      1  C   LYS B   1       5.006  18.066  15.148  1.00 18.50 LIG 0.25  C 
ATOM      2 O    LYS B   1       4.102  17.267  15.436  1.00 18.58 LIG-0.27  OA
ATOM      3  N   PRO B   2       4.898  19.315  15.579  1.00 19.42 LIG-0.34  N 
ATOM      4  CA  PRO B   2       3.702  19.785  16.283  1.00 19.20 LIG 0.18  C 
ATOM      5  CB  PRO B   2       4.035  21.260  16.581  1.00 19.17 LIG 0.04  C 
ATOM      6  CG  PRO B   2       5.547  21.231  16.643  1.00 20.21 LIG 0.02  C 
ATOM      7  CD  PRO B   2       5.918  20.375  15.430  1.00 19.76 LIG 0.13  C 
ENDROOT
BRANCH 4 8
ATOM      8  C   PRO B   2       2.449  19.719  15.421  1.00 20.15 LIG 0.24  C 
ATOM      9 O    PRO B   2       2.461  19.891  14.184  1.00 19.46 LIG-0.27  OA
ATOM     10  N   LYS B   3       1.303  19.514  16.072  1.00 19.22 LIG-0.34  N 
ATOM     11 H    LYS B   3       1.264  19.402  16.924  1.00 19.22 LIG 0.16  HD
BRANCH 10 12
ATOM     12  CA  LYS B   3       0.014  19.456  15.431  1.00 21.62 LIG 0.18  C 
BRANCH 12 13
ATOM     13  CB  LYS B   3      -0.399  18.033  15.026  1.00 23.55 LIG 0.04  C 
BRANCH 13 14
ATOM     14  CG  LYS B   3      -1.491  18.155  13.932  1.00 23.98 LIG 0.00  C 
BRANCH 14 15
ATOM     15  CD  LYS B   3      -2.304  16.872  13.963  1.00 25.73 LIG 0.03  C 
BRANCH 15 16
ATOM     16  CE  LYS B   3      -3.326  16.899  12.819  1.00 24.69 LIG 0.23  C 
BRANCH 16 17
ATOM     17  NZ  LYS B   3      -2.537  16.892  11.562  1.00 23.73 LIG-0.08  N 
ATOM     18 HZ3  LYS B   3      -1.989  16.191  11.559  1.00 23.73 LIG 0.27  HD
ATOM     19 HZ2  LYS B   3      -2.061  17.642  11.505  1.00 23.73 LIG 0.27  HD
ATOM     20 HZ1  LYS B   3      -3.089  16.839  10.866  1.00 23.73 LIG 0.27  HD
ENDBRANCH 16 17
ENDBRANCH 15 16
ENDBRANCH 14 15
ENDBRANCH 13 14
ENDBRANCH 12 13
BRANCH 12 21
ATOM     21  C   LYS B   3      -1.069  19.982  16.392  1.00 21.19 LIG 0.20  C 
ATOM     22 O    LYS B   3      -1.248  21.201  16.434  1.00 21.92 LIG-0.65  OA
ATOM     23 OXT  LYS B   3      -1.622  19.198  17.184  1.00 20.91 LIG-0.65  OA
ENDBRANCH 12 21
ENDBRANCH 10 12
ENDBRANCH 4 8
BRANCH 1 24
ATOM     24  CA  LYS B   1       6.188  17.675  14.294  1.00 16.81 LIG 0.28  C 
BRANCH 24 25
ATOM     25  N   LYS B   1       6.926  16.545  14.934  1.00 16.33 LIG-0.07  N 
ATOM     26 H2   LYS B   1       6.344  15.960  15.266  1.00 16.33 LIG 0.28  HD
ATOM     27 H1   LYS B   1       7.439  16.859  15.590  1.00 16.33 LIG 0.28  HD
ATOM     28 H3   LYS B   1       7.436  16.142  14.326  1.00 16.33 LIG 0.28  HD
ENDBRANCH 24 25
BRANCH 24 29
ATOM     29  CB  LYS B   1       5.744  17.215  12.871  1.00 20.04 LIG 0.04  C 
BRANCH 29 30
ATOM     30  CG  LYS B   1       6.739  17.466  11.742  1.00 22.28 LIG 0.00  C 
BRANCH 30 31
ATOM     31  CD  LYS B   1       6.597  16.435  10.596  1.00 23.07 LIG 0.03  C 
BRANCH 31 32
ATOM     32  CE  LYS B   1       5.639  15.302  10.935  1.00 23.39 LIG 0.23  C 
BRANCH 32 33
ATOM     33  NZ  LYS B   1       6.253  14.267  11.834  1.00 22.37 LIG-0.08  N 
ATOM     34 HZ3  LYS B   1       6.253  14.565  12.674  1.00 22.37 LIG 0.27  HD
ATOM     35 HZ1  LYS B   1       5.780  13.514  11.788  1.00 22.37 LIG 0.27  HD
ATOM     36 HZ2  LYS B   1       7.090  14.108  11.577  1.00 22.37 LIG 0.27  HD
ENDBRANCH 32 33
ENDBRANCH 31 32
ENDBRANCH 30 31
ENDBRANCH 29 30
ENDBRANCH 24 29
ENDBRANCH 1 24
TORSDOF 15
ENDMDL
