MODEL 1
USER: ADFR SOLUTION from run 113
USER: SCORE 22.422659 LL:  -1.188 LR: -21.309 RR:   0.000 FEB: -15.940
USER: RMSD 1.064241
USER: SEED 112
USER: STATUS 1 or 2 clusters left
USER: GENES 20
USER: genes 0 Translation |==|  0.59626 0.61039 0.60498
USER: genes 1 Rotation |==|  0.54199 0.49125 0.50777 0.99810
USER: genes 2 Torsion [N]-CA--C-[N] |==|  0.43051
USER: genes 3 Torsion [C]-N--CA-[CB] |==|  0.23321
USER: genes 4 Torsion [N]-CA--CB-[CG] |==|  0.49151
USER: genes 5 Torsion [CA]-CB--CG-[CD] |==|  0.56611
USER: genes 6 Torsion [CB]-CG--CD-[CE] |==|  0.57735
USER: genes 7 Torsion [CG]-CD--CE-[NZ] |==|  0.24303
USER: genes 8 Torsion [CD]-CE--NZ-[HZ3] |==|  0.13310
USER: genes 9 Torsion [N]-CA--C-[O] |==|  0.29307
USER: genes 10 Torsion [C]-CA--CB-[CG] |==|  0.24842
USER: genes 11 Torsion [CA]-CB--CG-[OD2] |==|  0.24176
USER: genes 12 Torsion [C]-CA--N-[C] |==|  0.76350
USER: genes 13 Torsion [N]-C--CA-[N] |==|  0.42024
USER: genes 14 Torsion [C]-CA--N-[H1] |==|  0.05825
USER: genes 15 Torsion [C]-CA--CB-[CG] |==|  0.79743
USER: genes 16 Torsion [CA]-CB--CG-[CD] |==|  0.57272
USER: genes 17 Torsion [CB]-CG--CD-[CE] |==|  0.39550
USER: genes 18 Torsion [CG]-CD--CE-[NZ] |==|  0.86737
USER: genes 19 Torsion [CD]-CE--NZ-[HZ2] |==|  0.75886
ROOT
ATOM      1  CA  ASP B   2       3.699  19.853  16.363  1.00 12.46 LIG 0.19  C 
ENDROOT
BRANCH 1 2
ATOM      2  C   ASP B   2       2.455  19.902  15.496  1.00 13.53 LIG 0.24  C 
ATOM      3 O    ASP B   2       2.533  20.053  14.284  1.00 12.22 LIG-0.27  OA
ATOM      4  N   LYS B   3       1.282  19.711  16.130  1.00 12.18 LIG-0.34  N 
ATOM      5 H    LYS B   3       1.203  19.532  16.967  1.00 12.18 LIG 0.16  HD
BRANCH 4 6
ATOM      6  CA  LYS B   3       0.037  19.799  15.404  1.00 15.26 LIG 0.18  C 
BRANCH 6 7
ATOM      7  CB  LYS B   3      -0.287  18.471  14.713  1.00 17.81 LIG 0.04  C 
BRANCH 7 8
ATOM      8  CG  LYS B   3      -1.679  18.678  14.039  1.00 19.62 LIG 0.00  C 
BRANCH 8 9
ATOM      9  CD  LYS B   3      -2.293  17.308  13.876  1.00 20.64 LIG 0.03  C 
BRANCH 9 10
ATOM     10  CE  LYS B   3      -3.258  17.281  12.681  1.00 20.59 LIG 0.23  C 
BRANCH 10 11
ATOM     11  NZ  LYS B   3      -2.433  16.956  11.487  1.00 21.98 LIG-0.08  N 
ATOM     12 HZ3  LYS B   3      -1.911  16.258  11.668  1.00 21.98 LIG 0.27  HD
ATOM     13 HZ1  LYS B   3      -2.966  16.757  10.802  1.00 21.98 LIG 0.27  HD
ATOM     14 HZ2  LYS B   3      -1.928  17.657  11.274  1.00 21.98 LIG 0.27  HD
ENDBRANCH 10 11
ENDBRANCH 9 10
ENDBRANCH 8 9
ENDBRANCH 7 8
ENDBRANCH 6 7
BRANCH 6 15
ATOM     15  C   LYS B   3      -1.120  20.122  16.360  1.00 16.28 LIG 0.20  C 
ATOM     16 O    LYS B   3      -1.545  21.300  16.298  1.00 16.01 LIG-0.65  OA
ATOM     17 OXT  LYS B   3      -1.464  19.314  17.244  1.00 15.00 LIG-0.65  OA
ENDBRANCH 6 15
ENDBRANCH 4 6
ENDBRANCH 1 2
BRANCH 1 18
ATOM     18  CB  ASP B   2       3.912  21.260  16.953  1.00 14.65 LIG 0.15  C 
BRANCH 18 19
ATOM     19  CG  ASP B   2       3.172  21.396  18.281  1.00 19.32 LIG 0.17  C 
ATOM     20 OD2  ASP B   2       3.781  21.032  19.289  1.00 20.30 LIG-0.65  OA
ATOM     21 OD1  ASP B   2       2.004  21.782  18.381  1.00 19.73 LIG-0.65  OA
ENDBRANCH 18 19
ENDBRANCH 1 18
BRANCH 1 22
ATOM     22  N   ASP B   2       4.893  19.481  15.578  1.00 11.86 LIG-0.34  N 
ATOM     23  C   LYS B   1       5.183  18.212  15.364  1.00 11.94 LIG 0.25  C 
ATOM     24 O    LYS B   1       4.462  17.284  15.755  1.00 10.64 LIG-0.27  OA
ATOM     25 H    ASP B   2       5.359  20.143  15.288  1.00 11.86 LIG 0.16  HD
BRANCH 23 26
ATOM     26  CA  LYS B   1       6.455  17.920  14.581  1.00 10.01 LIG 0.27  C 
BRANCH 26 27
ATOM     27  N   LYS B   1       7.002  16.589  15.006  1.00 10.36 LIG-0.07  N 
ATOM     28 H3   LYS B   1       7.658  16.712  15.595  1.00 10.36 LIG 0.28  HD
ATOM     29 H2   LYS B   1       7.318  16.157  14.295  1.00 10.36 LIG 0.28  HD
ATOM     30 H1   LYS B   1       6.354  16.108  15.381  1.00 10.36 LIG 0.28  HD
ENDBRANCH 26 27
BRANCH 26 31
ATOM     31  CB  LYS B   1       6.256  17.967  13.052  1.00 13.39 LIG 0.04  C 
BRANCH 31 32
ATOM     32  CG  LYS B   1       5.486  16.794  12.455  1.00 12.86 LIG 0.00  C 
BRANCH 32 33
ATOM     33  CD  LYS B   1       5.887  16.577  10.970  1.00 14.44 LIG 0.03  C 
BRANCH 33 34
ATOM     34  CE  LYS B   1       5.942  15.079  10.631  1.00 17.41 LIG 0.23  C 
BRANCH 34 35
ATOM     35  NZ  LYS B   1       6.696  14.282  11.631  1.00 17.68 LIG-0.08  N 
ATOM     36 HZ1  LYS B   1       6.395  13.444  11.631  1.00 17.68 LIG 0.27  HD
ATOM     37 HZ2  LYS B   1       7.561  14.286  11.422  1.00 17.68 LIG 0.27  HD
ATOM     38 HZ3  LYS B   1       6.585  14.637  12.440  1.00 17.68 LIG 0.27  HD
ENDBRANCH 34 35
ENDBRANCH 33 34
ENDBRANCH 32 33
ENDBRANCH 31 32
ENDBRANCH 26 31
ENDBRANCH 23 26
ENDBRANCH 1 22
TORSDOF 18
ENDMDL
