MODEL 1
USER: ADFR SOLUTION from run 161
USER: SCORE 21.201393 LL:  -0.741 LR: -20.572 RR:   0.000 FEB: -15.203
USER: RMSD 1.481017
USER: SEED 160
USER: STATUS no improvement in best in 2 clusters for 5 generations
USER: GENES 20
USER: genes 0 Translation |==|  0.62438 0.60386 0.60273
USER: genes 1 Rotation |==|  0.46531 0.53731 0.47600 0.99682
USER: genes 2 Torsion [N]-CA--C-[N] |==|  0.35698
USER: genes 3 Torsion [C]-N--CA-[CB] |==|  0.26425
USER: genes 4 Torsion [N]-CA--CB-[CG] |==|  0.56862
USER: genes 5 Torsion [CA]-CB--CG-[CD] |==|  0.53813
USER: genes 6 Torsion [CB]-CG--CD-[CE] |==|  0.53223
USER: genes 7 Torsion [CG]-CD--CE-[NZ] |==|  0.17982
USER: genes 8 Torsion [CD]-CE--NZ-[HZ1] |==|  0.81763
USER: genes 9 Torsion [N]-CA--C-[OXT] |==|  0.71886
USER: genes 10 Torsion [C]-CA--CB-[OG] |==|  0.50644
USER: genes 11 Torsion [CA]-CB--OG-[HG] |==|  0.19446
USER: genes 12 Torsion [C]-CA--N-[C] |==|  0.74413
USER: genes 13 Torsion [N]-C--CA-[N] |==|  0.35763
USER: genes 14 Torsion [C]-CA--N-[H2] |==|  0.79725
USER: genes 15 Torsion [C]-CA--CB-[CG] |==|  0.33639
USER: genes 16 Torsion [CA]-CB--CG-[CD] |==|  0.89736
USER: genes 17 Torsion [CB]-CG--CD-[CE] |==|  0.30287
USER: genes 18 Torsion [CG]-CD--CE-[NZ] |==|  0.89194
USER: genes 19 Torsion [CD]-CE--NZ-[HZ1] |==|  0.40390
ROOT
ATOM      1  CA  SER B   2       3.999  20.065  15.871  1.00 10.18 LIG 0.20  C 
ENDROOT
BRANCH 1 2
ATOM      2  C   SER B   2       2.569  20.139  15.388  1.00  8.90 LIG 0.24  C 
ATOM      3  N   LYS B   3       1.569  19.878  16.271  1.00  6.95 LIG-0.34  N 
ATOM      4 H    LYS B   3       1.655  19.721  17.113  1.00  6.95 LIG 0.16  HD
ATOM      5 O    SER B   2       2.352  20.474  14.227  1.00  8.68 LIG-0.27  OA
BRANCH 3 6
ATOM      6  CA  LYS B   3       0.217  19.864  15.736  1.00 11.00 LIG 0.18  C 
BRANCH 6 7
ATOM      7  CB  LYS B   3      -0.288  18.464  15.353  1.00 14.39 LIG 0.04  C 
BRANCH 7 8
ATOM      8  CG  LYS B   3      -1.395  18.619  14.266  1.00 14.11 LIG 0.00  C 
BRANCH 8 9
ATOM      9  CD  LYS B   3      -2.178  17.352  14.063  1.00 17.93 LIG 0.03  C 
BRANCH 9 10
ATOM     10  CE  LYS B   3      -3.085  17.350  12.829  1.00 22.23 LIG 0.23  C 
BRANCH 10 11
ATOM     11  NZ  LYS B   3      -2.270  17.429  11.590  1.00 28.78 LIG-0.08  N 
ATOM     12 HZ1  LYS B   3      -1.854  18.216  11.557  1.00 28.78 LIG 0.27  HD
ATOM     13 HZ2  LYS B   3      -1.667  16.775  11.589  1.00 28.78 LIG 0.27  HD
ATOM     14 HZ3  LYS B   3      -2.800  17.345  10.879  1.00 28.78 LIG 0.27  HD
ENDBRANCH 10 11
ENDBRANCH 9 10
ENDBRANCH 8 9
ENDBRANCH 7 8
ENDBRANCH 6 7
BRANCH 6 15
ATOM     15  C   LYS B   3      -0.791  20.432  16.757  1.00 14.57 LIG 0.20  C 
ATOM     16 OXT  LYS B   3      -1.439  19.562  17.363  1.00 12.12 LIG-0.65  OA
ATOM     17 O    LYS B   3      -0.933  21.648  16.875  1.00  9.76 LIG-0.65  OA
ENDBRANCH 6 15
ENDBRANCH 3 6
ENDBRANCH 1 2
BRANCH 1 18
ATOM     18  CB  SER B   2       4.620  21.468  15.812  1.00 16.17 LIG 0.20  C 
BRANCH 18 19
ATOM     19 OG   SER B   2       5.987  21.414  16.213  1.00 18.91 LIG-0.40  OA
ATOM     20 HG   SER B   2       6.436  21.017  15.624  1.00 18.91 LIG 0.21  HD
ENDBRANCH 18 19
ENDBRANCH 1 18
BRANCH 1 21
ATOM     21  N   SER B   2       4.860  19.228  15.040  1.00 10.11 LIG-0.34  N 
ATOM     22 H    SER B   2       5.224  19.649  14.384  1.00 10.11 LIG 0.16  HD
ATOM     23  C   LYS B   1       5.060  17.942  15.276  1.00  8.46 LIG 0.25  C 
ATOM     24 O    LYS B   1       4.480  17.333  16.167  1.00  8.56 LIG-0.27  OA
BRANCH 23 25
ATOM     25  CA  LYS B   1       6.079  17.256  14.390  1.00  4.26 LIG 0.27  C 
BRANCH 25 26
ATOM     26  N   LYS B   1       7.096  16.508  15.193  1.00  4.35 LIG-0.07  N 
ATOM     27 H1   LYS B   1       7.560  15.969  14.657  1.00  4.35 LIG 0.28  HD
ATOM     28 H3   LYS B   1       6.686  16.023  15.816  1.00  4.35 LIG 0.28  HD
ATOM     29 H2   LYS B   1       7.650  17.086  15.583  1.00  4.35 LIG 0.28  HD
ENDBRANCH 25 26
BRANCH 25 30
ATOM     30  CB  LYS B   1       5.399  16.341  13.355  1.00  8.53 LIG 0.04  C 
BRANCH 30 31
ATOM     31  CG  LYS B   1       5.739  16.732  11.925  1.00  9.48 LIG 0.00  C 
BRANCH 31 32
ATOM     32  CD  LYS B   1       5.824  18.270  11.819  1.00 13.21 LIG 0.03  C 
BRANCH 32 33
ATOM     33  CE  LYS B   1       7.268  18.719  11.628  1.00 18.73 LIG 0.23  C 
BRANCH 33 34
ATOM     34  NZ  LYS B   1       8.213  17.898  12.456  1.00 15.92 LIG-0.08  N 
ATOM     35 HZ3  LYS B   1       7.853  17.100  12.615  1.00 15.92 LIG 0.27  HD
ATOM     36 HZ1  LYS B   1       8.980  17.795  12.017  1.00 15.92 LIG 0.27  HD
ATOM     37 HZ2  LYS B   1       8.368  18.312  13.229  1.00 15.92 LIG 0.27  HD
ENDBRANCH 33 34
ENDBRANCH 32 33
ENDBRANCH 31 32
ENDBRANCH 30 31
ENDBRANCH 25 30
ENDBRANCH 23 25
ENDBRANCH 1 21
TORSDOF 18
ENDMDL
MODEL 2
USER: ADFR SOLUTION from run 50
USER: SCORE 20.471104 LL:  -1.353 LR: -19.184 RR:   0.000 FEB: -13.814
USER: RMSD 1.128884
USER: SEED 49
USER: STATUS 1 or 2 clusters left
USER: GENES 20
USER: genes 0 Translation |==|  0.61948 0.60826 0.59790
USER: genes 1 Rotation |==|  0.47092 0.54001 0.50577 0.99751
USER: genes 2 Torsion [N]-CA--C-[N] |==|  0.39247
USER: genes 3 Torsion [C]-N--CA-[CB] |==|  0.26247
USER: genes 4 Torsion [N]-CA--CB-[CG] |==|  0.64272
USER: genes 5 Torsion [CA]-CB--CG-[CD] |==|  0.77936
USER: genes 6 Torsion [CB]-CG--CD-[CE] |==|  0.59195
USER: genes 7 Torsion [CG]-CD--CE-[NZ] |==|  0.86803
USER: genes 8 Torsion [CD]-CE--NZ-[HZ1] |==|  0.89785
USER: genes 9 Torsion [N]-CA--C-[OXT] |==|  0.15929
USER: genes 10 Torsion [C]-CA--CB-[OG] |==|  0.14676
USER: genes 11 Torsion [CA]-CB--OG-[HG] |==|  0.37459
USER: genes 12 Torsion [C]-CA--N-[C] |==|  0.76700
USER: genes 13 Torsion [N]-C--CA-[N] |==|  0.36792
USER: genes 14 Torsion [C]-CA--N-[H2] |==|  0.83148
USER: genes 15 Torsion [C]-CA--CB-[CG] |==|  0.72662
USER: genes 16 Torsion [CA]-CB--CG-[CD] |==|  0.44896
USER: genes 17 Torsion [CB]-CG--CD-[CE] |==|  0.26828
USER: genes 18 Torsion [CG]-CD--CE-[NZ] |==|  0.34422
USER: genes 19 Torsion [CD]-CE--NZ-[HZ1] |==|  0.48964
ROOT
ATOM      1  CA  SER B   2       3.900  20.141  15.795  1.00 10.18 LIG 0.20  C 
ENDROOT
BRANCH 1 2
ATOM      2  C   SER B   2       2.461  20.063  15.337  1.00  8.90 LIG 0.24  C 
ATOM      3  N   LYS B   3       1.487  19.921  16.274  1.00  6.95 LIG-0.34  N 
ATOM      4 H    LYS B   3       1.592  19.921  17.128  1.00  6.95 LIG 0.16  HD
ATOM      5 O    SER B   2       2.213  20.175  14.140  1.00  8.68 LIG-0.27  OA
BRANCH 3 6
ATOM      6  CA  LYS B   3       0.130  19.750  15.779  1.00 11.00 LIG 0.18  C 
BRANCH 6 7
ATOM      7  CB  LYS B   3      -0.307  18.283  15.649  1.00 14.39 LIG 0.04  C 
BRANCH 7 8
ATOM      8  CG  LYS B   3      -0.874  18.063  14.213  1.00 14.11 LIG 0.00  C 
BRANCH 8 9
ATOM      9  CD  LYS B   3      -2.286  18.559  14.074  1.00 17.93 LIG 0.03  C 
BRANCH 9 10
ATOM     10  CE  LYS B   3      -3.157  17.753  13.107  1.00 22.23 LIG 0.23  C 
BRANCH 10 11
ATOM     11  NZ  LYS B   3      -2.433  17.522  11.830  1.00 28.78 LIG-0.08  N 
ATOM     12 HZ1  LYS B   3      -1.949  18.242  11.629  1.00 28.78 LIG 0.27  HD
ATOM     13 HZ2  LYS B   3      -1.895  16.818  11.917  1.00 28.78 LIG 0.27  HD
ATOM     14 HZ3  LYS B   3      -3.020  17.368  11.179  1.00 28.78 LIG 0.27  HD
ENDBRANCH 10 11
ENDBRANCH 9 10
ENDBRANCH 8 9
ENDBRANCH 7 8
ENDBRANCH 6 7
BRANCH 6 15
ATOM     15  C   LYS B   3      -0.892  20.434  16.712  1.00 14.57 LIG 0.20  C 
ATOM     16 OXT  LYS B   3      -0.687  21.648  16.880  1.00 12.12 LIG-0.65  OA
ATOM     17 O    LYS B   3      -1.776  19.772  17.253  1.00  9.76 LIG-0.65  OA
ENDBRANCH 6 15
ENDBRANCH 3 6
ENDBRANCH 1 2
BRANCH 1 18
ATOM     18  CB  SER B   2       4.354  21.608  15.772  1.00 16.17 LIG 0.20  C 
BRANCH 18 19
ATOM     19 OG   SER B   2       3.439  22.413  16.510  1.00 18.91 LIG-0.40  OA
ATOM     20 HG   SER B   2       3.866  22.939  17.008  1.00 18.91 LIG 0.21  HD
ENDBRANCH 18 19
ENDBRANCH 1 18
BRANCH 1 21
ATOM     21  N   SER B   2       4.835  19.435  14.923  1.00 10.11 LIG-0.34  N 
ATOM     22 H    SER B   2       5.220  19.943  14.345  1.00 10.11 LIG 0.16  HD
ATOM     23  C   LYS B   1       5.068  18.137  15.016  1.00  8.46 LIG 0.25  C 
ATOM     24 O    LYS B   1       4.460  17.408  15.791  1.00  8.56 LIG-0.27  OA
BRANCH 23 25
ATOM     25  CA  LYS B   1       6.158  17.592  14.117  1.00  4.26 LIG 0.27  C 
BRANCH 25 26
ATOM     26  N   LYS B   1       7.105  16.709  14.868  1.00  4.35 LIG-0.07  N 
ATOM     27 H1   LYS B   1       7.726  16.398  14.311  1.00  4.35 LIG 0.28  HD
ATOM     28 H3   LYS B   1       6.657  16.026  15.222  1.00  4.35 LIG 0.28  HD
ATOM     29 H2   LYS B   1       7.495  17.177  15.517  1.00  4.35 LIG 0.28  HD
ENDBRANCH 25 26
BRANCH 25 30
ATOM     30  CB  LYS B   1       5.569  16.869  12.893  1.00  8.53 LIG 0.04  C 
BRANCH 30 31
ATOM     31  CG  LYS B   1       5.525  15.359  13.076  1.00  9.48 LIG 0.00  C 
BRANCH 31 32
ATOM     32  CD  LYS B   1       4.534  14.748  12.062  1.00 13.21 LIG 0.03  C 
BRANCH 32 33
ATOM     33  CE  LYS B   1       5.269  14.240  10.827  1.00 18.73 LIG 0.23  C 
BRANCH 33 34
ATOM     34  NZ  LYS B   1       4.983  12.788  10.575  1.00 15.92 LIG-0.08  N 
ATOM     35 HZ3  LYS B   1       4.105  12.666  10.503  1.00 15.92 LIG 0.27  HD
ATOM     36 HZ1  LYS B   1       5.381  12.534   9.821  1.00 15.92 LIG 0.27  HD
ATOM     37 HZ2  LYS B   1       5.295  12.302  11.253  1.00 15.92 LIG 0.27  HD
ENDBRANCH 33 34
ENDBRANCH 32 33
ENDBRANCH 31 32
ENDBRANCH 30 31
ENDBRANCH 25 30
ENDBRANCH 23 25
ENDBRANCH 1 21
TORSDOF 18
ENDMDL
