MODEL 1
USER: ADFR SOLUTION from run 25
USER: SCORE 24.262855 LL:  -1.416 LR: -22.925 RR:   0.000 FEB: -17.258
USER: RMSD 0.734593
USER: SEED 24
USER: STATUS 1 or 2 clusters left
USER: GENES 21
USER: genes 0 Translation |==|  0.57369 0.61096 0.51697
USER: genes 1 Rotation |==|  0.48003 0.53686 0.48054 0.99786
USER: genes 2 Torsion [N]-CA--C-[N] |==|  0.35232
USER: genes 3 Torsion [C]-N--CA-[CB] |==|  0.27392
USER: genes 4 Torsion [N]-CA--CB-[CG] |==|  0.55420
USER: genes 5 Torsion [CA]-CB--CG-[CD] |==|  0.54075
USER: genes 6 Torsion [CB]-CG--CD-[CE] |==|  0.54259
USER: genes 7 Torsion [CG]-CD--CE-[NZ] |==|  0.21743
USER: genes 8 Torsion [CD]-CE--NZ-[HZ2] |==|  0.79163
USER: genes 9 Torsion [N]-CA--C-[OXT] |==|  0.73858
USER: genes 10 Torsion [C]-CA--CB-[CG] |==|  0.42021
USER: genes 11 Torsion [CA]-CB--CG-[CD1] |==|  0.79755
USER: genes 12 Torsion [CE1]-CZ--OH-[HH] |==|  0.95226
USER: genes 13 Torsion [C]-CA--N-[C] |==|  0.76758
USER: genes 14 Torsion [N]-C--CA-[N] |==|  0.37106
USER: genes 15 Torsion [C]-CA--CB-[CG] |==|  0.32178
USER: genes 16 Torsion [CA]-CB--CG-[CD] |==|  0.35619
USER: genes 17 Torsion [CB]-CG--CD-[CE] |==|  0.09923
USER: genes 18 Torsion [CG]-CD--CE-[NZ] |==|  0.75302
USER: genes 19 Torsion [CD]-CE--NZ-[HZ1] |==|  0.18800
USER: genes 20 Torsion [C]-CA--N-[H2] |==|  0.79166
ROOT
ATOM      1  CA  TYR B   2       3.927  20.683  15.996  1.00 10.27 LIG 0.18  C 
ENDROOT
BRANCH 1 2
ATOM      2  C   TYR B   2       2.555  20.644  15.338  1.00 12.73 LIG 0.24  C 
ATOM      3 O    TYR B   2       2.358  21.035  14.176  1.00 10.11 LIG-0.27  OA
ATOM      4  N   LYS B   3       1.567  20.221  16.127  1.00 12.59 LIG-0.34  N 
ATOM      5 H    LYS B   3       1.672  19.976  16.945  1.00 12.59 LIG 0.16  HD
BRANCH 4 6
ATOM      6  CA  LYS B   3       0.206  20.143  15.642  1.00 15.60 LIG 0.18  C 
BRANCH 6 7
ATOM      7  CB  LYS B   3      -0.233  18.746  15.200  1.00 14.29 LIG 0.04  C 
BRANCH 7 8
ATOM      8  CG  LYS B   3      -1.480  18.976  14.273  1.00 13.96 LIG 0.00  C 
BRANCH 8 9
ATOM      9  CD  LYS B   3      -2.242  17.695  14.041  1.00 18.12 LIG 0.03  C 
BRANCH 9 10
ATOM     10  CE  LYS B   3      -3.214  17.852  12.848  1.00 16.83 LIG 0.23  C 
BRANCH 10 11
ATOM     11  NZ  LYS B   3      -2.368  17.727  11.636  1.00 27.08 LIG-0.08  N 
ATOM     12 HZ3  LYS B   3      -1.811  17.040  11.733  1.00 27.08 LIG 0.27  HD
ATOM     13 HZ2  LYS B   3      -1.900  18.475  11.523  1.00 27.08 LIG 0.27  HD
ATOM     14 HZ1  LYS B   3      -2.886  17.591  10.926  1.00 27.08 LIG 0.27  HD
ENDBRANCH 10 11
ENDBRANCH 9 10
ENDBRANCH 8 9
ENDBRANCH 7 8
ENDBRANCH 6 7
BRANCH 6 15
ATOM     15  C   LYS B   3      -0.773  20.642  16.727  1.00 15.27 LIG 0.20  C 
ATOM     16 OXT  LYS B   3      -1.314  19.855  17.507  1.00 10.74 LIG-0.65  OA
ATOM     17 O    LYS B   3      -0.944  21.863  16.789  1.00 14.41 LIG-0.65  OA
ENDBRANCH 6 15
ENDBRANCH 4 6
ENDBRANCH 1 2
BRANCH 1 18
ATOM     18  CB  TYR B   2       4.275  22.190  16.196  1.00 10.39 LIG 0.07  C 
BRANCH 18 19
ATOM     19  CG  TYR B   2       5.187  22.379  17.392  1.00 11.96 LIG-0.06  A 
ATOM     20  CD1 TYR B   2       4.737  22.250  18.687  1.00 11.67 LIG 0.01  A 
ATOM     21  CE1 TYR B   2       5.553  22.401  19.796  1.00 13.01 LIG 0.04  A 
ATOM     22  CZ  TYR B   2       6.854  22.711  19.571  1.00 17.78 LIG 0.07  A 
ATOM     23  CE2 TYR B   2       7.347  22.862  18.285  1.00 20.17 LIG 0.04  A 
ATOM     24  CD2 TYR B   2       6.526  22.692  17.198  1.00 16.60 LIG 0.01  A 
BRANCH 22 25
ATOM     25 OH   TYR B   2       7.740  22.867  20.604  1.00 26.76 LIG-0.36  OA
ATOM     26 HH   TYR B   2       7.318  22.977  21.322  1.00 26.76 LIG 0.22  HD
ENDBRANCH 22 25
ENDBRANCH 18 19
ENDBRANCH 1 18
BRANCH 1 27
ATOM     27  N   TYR B   2       4.962  19.956  15.246  1.00  6.22 LIG-0.35  N 
ATOM     28 H    TYR B   2       5.435  20.460  14.735  1.00  6.22 LIG 0.16  HD
ATOM     29  C   LYS B   1       5.147  18.657  15.348  1.00  7.19 LIG 0.25  C 
ATOM     30 O    LYS B   1       4.426  17.913  16.062  1.00 11.44 LIG-0.27  OA
BRANCH 29 31
ATOM     31  CA  LYS B   1       6.237  18.046  14.484  1.00 10.22 LIG 0.27  C 
BRANCH 31 32
ATOM     32  CB  LYS B   1       5.594  17.353  13.255  1.00 11.18 LIG 0.04  C 
BRANCH 32 33
ATOM     33  CG  LYS B   1       5.947  17.949  11.910  1.00 13.69 LIG 0.00  C 
BRANCH 33 34
ATOM     34  CD  LYS B   1       6.461  16.949  10.882  1.00 14.37 LIG 0.03  C 
BRANCH 34 35
ATOM     35  CE  LYS B   1       5.787  15.569  10.966  1.00 18.49 LIG 0.23  C 
BRANCH 35 36
ATOM     36  NZ  LYS B   1       6.560  14.727  11.928  1.00 20.11 LIG-0.08  N 
ATOM     37 HZ1  LYS B   1       6.468  15.055  12.751  1.00 20.11 LIG 0.27  HD
ATOM     38 HZ2  LYS B   1       6.252  13.893  11.906  1.00 20.11 LIG 0.27  HD
ATOM     39 HZ3  LYS B   1       7.421  14.731  11.701  1.00 20.11 LIG 0.27  HD
ENDBRANCH 35 36
ENDBRANCH 34 35
ENDBRANCH 33 34
ENDBRANCH 32 33
ENDBRANCH 31 32
BRANCH 31 40
ATOM     40  N   LYS B   1       7.085  17.116  15.303  1.00 11.01 LIG-0.07  N 
ATOM     41 H1   LYS B   1       7.571  16.604  14.762  1.00 11.01 LIG 0.28  HD
ATOM     42 H2   LYS B   1       7.625  17.590  15.827  1.00 11.01 LIG 0.28  HD
ATOM     43 H3   LYS B   1       6.561  16.602  15.806  1.00 11.01 LIG 0.28  HD
ENDBRANCH 31 40
ENDBRANCH 29 31
ENDBRANCH 1 27
TORSDOF 19
ENDMDL
