MODEL 1
USER: ADFR SOLUTION from run 157
USER: SCORE 21.255119 LL:  -0.489 LR: -20.839 RR:   0.000 FEB: -15.470
USER: RMSD 1.212094
USER: SEED 156
USER: STATUS no improvement in best in 4 clusters for 5 generations
USER: GENES 20
USER: genes 0 Translation |==|  0.63638 0.60350 0.58549
USER: genes 1 Rotation |==|  0.46949 0.54164 0.46557 0.99614
USER: genes 2 Torsion [N]-CA--C-[N] |==|  0.35716
USER: genes 3 Torsion [C]-N--CA-[CB] |==|  0.30137
USER: genes 4 Torsion [N]-CA--CB-[CG] |==|  0.60686
USER: genes 5 Torsion [CA]-CB--CG-[CD] |==|  0.47864
USER: genes 6 Torsion [CB]-CG--CD-[CE] |==|  0.45130
USER: genes 7 Torsion [CG]-CD--CE-[NZ] |==|  0.31889
USER: genes 8 Torsion [CD]-CE--NZ-[HZ3] |==|  0.27703
USER: genes 9 Torsion [N]-CA--C-[OXT] |==|  0.85853
USER: genes 10 Torsion [C]-CA--CB-[CG] |==|  0.37952
USER: genes 11 Torsion [CA]-CB--CG-[ND2] |==|  0.39717
USER: genes 12 Torsion [C]-CA--N-[C] |==|  0.76758
USER: genes 13 Torsion [N]-C--CA-[N] |==|  0.34529
USER: genes 14 Torsion [C]-CA--N-[H1] |==|  0.46206
USER: genes 15 Torsion [C]-CA--CB-[CG] |==|  0.41843
USER: genes 16 Torsion [CA]-CB--CG-[CD] |==|  0.80862
USER: genes 17 Torsion [CB]-CG--CD-[CE] |==|  0.18192
USER: genes 18 Torsion [CG]-CD--CE-[NZ] |==|  0.08787
USER: genes 19 Torsion [CD]-CE--NZ-[HZ2] |==|  0.64935
ROOT
ATOM      1  CA  ASN B   2       4.223  20.361  15.996  1.00 12.64 LIG 0.18  C 
ENDROOT
BRANCH 1 2
ATOM      2  C   ASN B   2       2.826  20.442  15.397  1.00 10.07 LIG 0.24  C 
ATOM      3 O    ASN B   2       2.641  20.702  14.211  1.00  8.89 LIG-0.27  OA
ATOM      4  N   LYS B   3       1.796  20.204  16.210  1.00 10.73 LIG-0.34  N 
ATOM      5 H    LYS B   3       1.878  20.017  17.046  1.00 10.73 LIG 0.16  HD
BRANCH 4 6
ATOM      6  CA  LYS B   3       0.436  20.243  15.741  1.00 12.20 LIG 0.18  C 
BRANCH 6 7
ATOM      7  CB  LYS B   3      -0.204  18.840  15.662  1.00 14.58 LIG 0.04  C 
BRANCH 7 8
ATOM      8  CG  LYS B   3      -1.083  18.780  14.406  1.00 22.14 LIG 0.00  C 
BRANCH 8 9
ATOM      9  CD  LYS B   3      -1.608  17.381  14.140  1.00 26.32 LIG 0.03  C 
BRANCH 9 10
ATOM     10  CE  LYS B   3      -2.799  17.424  13.171  1.00 28.31 LIG 0.23  C 
BRANCH 10 11
ATOM     11  NZ  LYS B   3      -2.352  16.720  11.925  1.00 33.82 LIG-0.08  N 
ATOM     12 HZ3  LYS B   3      -2.666  15.887  11.926  1.00 33.82 LIG 0.27  HD
ATOM     13 HZ2  LYS B   3      -1.464  16.701  11.896  1.00 33.82 LIG 0.27  HD
ATOM     14 HZ1  LYS B   3      -2.663  17.153  11.212  1.00 33.82 LIG 0.27  HD
ENDBRANCH 10 11
ENDBRANCH 9 10
ENDBRANCH 8 9
ENDBRANCH 7 8
ENDBRANCH 6 7
BRANCH 6 15
ATOM     15  C   LYS B   3      -0.432  21.064  16.716  1.00 15.69 LIG 0.20  C 
ATOM     16 OXT  LYS B   3      -0.414  20.823  17.918  1.00 12.46 LIG-0.65  OA
ATOM     17 O    LYS B   3      -1.164  21.951  16.302  1.00 19.93 LIG-0.65  OA
ENDBRANCH 6 15
ENDBRANCH 4 6
ENDBRANCH 1 2
BRANCH 1 18
ATOM     18  CB  ASN B   2       4.763  21.802  16.046  1.00 13.38 LIG 0.14  C 
BRANCH 18 19
ATOM     19  CG  ASN B   2       5.443  21.979  17.414  1.00 20.51 LIG 0.22  C 
ATOM     20  ND2 ASN B   2       6.533  22.693  17.527  1.00 23.58 LIG-0.37  N 
ATOM     21 21HD ASN B   2       6.913  22.780  18.295  1.00 23.58 LIG 0.16  HD
ATOM     22 22HD ASN B   2       6.871  23.076  16.835  1.00 23.58 LIG 0.16  HD
ATOM     23 OD1  ASN B   2       4.964  21.435  18.405  1.00 25.05 LIG-0.27  OA
ENDBRANCH 18 19
ENDBRANCH 1 18
BRANCH 1 24
ATOM     24  N   ASN B   2       5.114  19.496  15.221  1.00  8.35 LIG-0.35  N 
ATOM     25  C   LYS B   1       5.129  18.189  15.391  1.00  9.80 LIG 0.25  C 
ATOM     26 O    LYS B   1       4.461  17.618  16.245  1.00  9.20 LIG-0.27  OA
ATOM     27 H    ASN B   2       5.614  19.914  14.659  1.00  8.35 LIG 0.16  HD
BRANCH 25 28
ATOM     28  CA  LYS B   1       6.071  17.384  14.497  1.00  8.32 LIG 0.27  C 
BRANCH 28 29
ATOM     29  N   LYS B   1       6.998  16.554  15.335  1.00  7.62 LIG-0.07  N 
ATOM     30 H3   LYS B   1       6.533  16.140  15.971  1.00  7.62 LIG 0.28  HD
ATOM     31 H2   LYS B   1       7.610  17.079  15.710  1.00  7.62 LIG 0.28  HD
ATOM     32 H1   LYS B   1       7.401  15.948  14.822  1.00  7.62 LIG 0.28  HD
ENDBRANCH 28 29
BRANCH 28 33
ATOM     33  CB  LYS B   1       5.263  16.613  13.462  1.00 15.26 LIG 0.04  C 
BRANCH 33 34
ATOM     34  CG  LYS B   1       5.907  16.317  12.124  1.00 21.45 LIG 0.00  C 
BRANCH 34 35
ATOM     35  CD  LYS B   1       6.110  17.584  11.276  1.00 24.43 LIG 0.03  C 
BRANCH 35 36
ATOM     36  CE  LYS B   1       7.106  18.559  11.890  1.00 26.22 LIG 0.23  C 
BRANCH 36 37
ATOM     37  NZ  LYS B   1       8.175  17.851  12.669  1.00 19.44 LIG-0.08  N 
ATOM     38 HZ1  LYS B   1       8.961  17.965  12.267  1.00 19.44 LIG 0.27  HD
ATOM     39 HZ2  LYS B   1       8.213  18.185  13.493  1.00 19.44 LIG 0.27  HD
ATOM     40 HZ3  LYS B   1       7.986  16.982  12.710  1.00 19.44 LIG 0.27  HD
ENDBRANCH 36 37
ENDBRANCH 35 36
ENDBRANCH 34 35
ENDBRANCH 33 34
ENDBRANCH 28 33
ENDBRANCH 25 28
ENDBRANCH 1 24
TORSDOF 18
ENDMDL
MODEL 2
USER: ADFR SOLUTION from run 157
USER: SCORE 21.873684 LL:  -2.764 LR: -19.179 RR:   0.000 FEB: -13.810
USER: RMSD 1.345395
USER: SEED 156
USER: STATUS no improvement in best in 4 clusters for 5 generations
USER: GENES 20
USER: genes 0 Translation |==|  0.61863 0.59211 0.58912
USER: genes 1 Rotation |==|  0.49773 0.51946 0.50550 0.99959
USER: genes 2 Torsion [N]-CA--C-[N] |==|  0.36502
USER: genes 3 Torsion [C]-N--CA-[CB] |==|  0.29995
USER: genes 4 Torsion [N]-CA--CB-[CG] |==|  0.58620
USER: genes 5 Torsion [CA]-CB--CG-[CD] |==|  0.62007
USER: genes 6 Torsion [CB]-CG--CD-[CE] |==|  0.35953
USER: genes 7 Torsion [CG]-CD--CE-[NZ] |==|  0.74889
USER: genes 8 Torsion [CD]-CE--NZ-[HZ3] |==|  0.68659
USER: genes 9 Torsion [N]-CA--C-[OXT] |==|  0.09045
USER: genes 10 Torsion [C]-CA--CB-[CG] |==|  0.26010
USER: genes 11 Torsion [CA]-CB--CG-[ND2] |==|  0.88362
USER: genes 12 Torsion [C]-CA--N-[C] |==|  0.77181
USER: genes 13 Torsion [N]-C--CA-[N] |==|  0.37194
USER: genes 14 Torsion [C]-CA--N-[H1] |==|  0.42628
USER: genes 15 Torsion [C]-CA--CB-[CG] |==|  0.70722
USER: genes 16 Torsion [CA]-CB--CG-[CD] |==|  0.48154
USER: genes 17 Torsion [CB]-CG--CD-[CE] |==|  0.39277
USER: genes 18 Torsion [CG]-CD--CE-[NZ] |==|  0.25917
USER: genes 19 Torsion [CD]-CE--NZ-[HZ2] |==|  0.92426
ROOT
ATOM      1  CA  ASN B   2       3.863  20.165  16.056  1.00 12.64 LIG 0.18  C 
ENDROOT
BRANCH 1 2
ATOM      2  C   ASN B   2       2.522  20.111  15.339  1.00 10.07 LIG 0.24  C 
ATOM      3 O    ASN B   2       2.400  20.440  14.162  1.00  8.89 LIG-0.27  OA
ATOM      4  N   LYS B   3       1.471  19.676  16.035  1.00 10.73 LIG-0.34  N 
ATOM      5 H    LYS B   3       1.510  19.434  16.860  1.00 10.73 LIG 0.16  HD
BRANCH 4 6
ATOM      6  CA  LYS B   3       0.162  19.574  15.447  1.00 12.20 LIG 0.18  C 
BRANCH 6 7
ATOM      7  CB  LYS B   3      -0.266  18.111  15.202  1.00 14.58 LIG 0.04  C 
BRANCH 7 8
ATOM      8  CG  LYS B   3      -1.180  18.076  13.970  1.00 22.14 LIG 0.00  C 
BRANCH 8 9
ATOM      9  CD  LYS B   3      -2.386  17.178  14.177  1.00 26.32 LIG 0.03  C 
BRANCH 9 10
ATOM     10  CE  LYS B   3      -3.682  17.917  13.810  1.00 28.31 LIG 0.23  C 
BRANCH 10 11
ATOM     11  NZ  LYS B   3      -4.158  18.580  15.069  1.00 33.82 LIG-0.08  N 
ATOM     12 HZ3  LYS B   3      -4.918  18.201  15.335  1.00 33.82 LIG 0.27  HD
ATOM     13 HZ2  LYS B   3      -4.296  19.445  14.915  1.00 33.82 LIG 0.27  HD
ATOM     14 HZ1  LYS B   3      -3.541  18.486  15.704  1.00 33.82 LIG 0.27  HD
ENDBRANCH 10 11
ENDBRANCH 9 10
ENDBRANCH 8 9
ENDBRANCH 7 8
ENDBRANCH 6 7
BRANCH 6 15
ATOM     15  C   LYS B   3      -0.888  20.182  16.399  1.00 15.69 LIG 0.20  C 
ATOM     16 OXT  LYS B   3      -0.598  21.128  17.122  1.00 12.46 LIG-0.65  OA
ATOM     17 O    LYS B   3      -2.017  19.715  16.460  1.00 19.93 LIG-0.65  OA
ENDBRANCH 6 15
ENDBRANCH 4 6
ENDBRANCH 1 2
BRANCH 1 18
ATOM     18  CB  ASN B   2       4.161  21.652  16.319  1.00 13.38 LIG 0.14  C 
BRANCH 18 19
ATOM     19  CG  ASN B   2       3.640  21.970  17.731  1.00 20.51 LIG 0.22  C 
ATOM     20  ND2 ASN B   2       2.489  21.499  18.138  1.00 23.58 LIG-0.37  N 
ATOM     21 21HD ASN B   2       2.201  21.689  18.926  1.00 23.58 LIG 0.16  HD
ATOM     22 22HD ASN B   2       2.021  20.999  17.618  1.00 23.58 LIG 0.16  HD
ATOM     23 OD1  ASN B   2       4.306  22.683  18.477  1.00 25.05 LIG-0.27  OA
ENDBRANCH 18 19
ENDBRANCH 1 18
BRANCH 1 24
ATOM     24  N   ASN B   2       4.939  19.547  15.278  1.00  8.35 LIG-0.35  N 
ATOM     25  C   LYS B   1       5.131  18.243  15.277  1.00  9.80 LIG 0.25  C 
ATOM     26 O    LYS B   1       4.480  17.471  15.970  1.00  9.20 LIG-0.27  OA
ATOM     27 H    ASN B   2       5.420  20.104  14.833  1.00  8.35 LIG 0.16  HD
BRANCH 25 28
ATOM     28  CA  LYS B   1       6.258  17.708  14.394  1.00  8.32 LIG 0.27  C 
BRANCH 28 29
ATOM     29  N   LYS B   1       7.083  16.713  15.155  1.00  7.62 LIG-0.07  N 
ATOM     30 H3   LYS B   1       6.562  16.265  15.720  1.00  7.62 LIG 0.28  HD
ATOM     31 H2   LYS B   1       7.717  17.139  15.610  1.00  7.62 LIG 0.28  HD
ATOM     32 H1   LYS B   1       7.461  16.142  14.585  1.00  7.62 LIG 0.28  HD
ENDBRANCH 28 29
BRANCH 28 33
ATOM     33  CB  LYS B   1       5.684  17.207  13.076  1.00 15.26 LIG 0.04  C 
BRANCH 33 34
ATOM     34  CG  LYS B   1       5.585  15.712  12.860  1.00 21.45 LIG 0.00  C 
BRANCH 34 35
ATOM     35  CD  LYS B   1       4.841  15.354  11.562  1.00 24.43 LIG 0.03  C 
BRANCH 35 36
ATOM     36  CE  LYS B   1       5.451  14.163  10.835  1.00 26.22 LIG 0.23  C 
BRANCH 36 37
ATOM     37  NZ  LYS B   1       4.792  12.873  11.222  1.00 19.44 LIG-0.08  N 
ATOM     38 HZ1  LYS B   1       5.390  12.214  11.199  1.00 19.44 LIG 0.27  HD
ATOM     39 HZ2  LYS B   1       4.461  12.943  12.046  1.00 19.44 LIG 0.27  HD
ATOM     40 HZ3  LYS B   1       4.132  12.694  10.652  1.00 19.44 LIG 0.27  HD
ENDBRANCH 36 37
ENDBRANCH 35 36
ENDBRANCH 34 35
ENDBRANCH 33 34
ENDBRANCH 28 33
ENDBRANCH 25 28
ENDBRANCH 1 24
TORSDOF 18
ENDMDL
