MODEL 1
USER: ADFR SOLUTION from run 168
USER: SCORE 23.948449 LL:  -1.475 LR: -22.576 RR:   0.000 FEB: -16.908
USER: RMSD 1.382443
USER: SEED 167
USER: STATUS no improvement in best in 2 clusters for 5 generations
USER: GENES 21
USER: genes 0 Translation |==|  0.60746 0.60015 0.55074
USER: genes 1 Rotation |==|  0.55540 0.49364 0.49171 0.99681
USER: genes 2 Torsion [N]-CA--C-[N] |==|  0.41365
USER: genes 3 Torsion [C]-N--CA-[CB] |==|  0.24097
USER: genes 4 Torsion [N]-CA--CB-[CG] |==|  0.52383
USER: genes 5 Torsion [CA]-CB--CG-[CD] |==|  0.55222
USER: genes 6 Torsion [CB]-CG--CD-[CE] |==|  0.52735
USER: genes 7 Torsion [CG]-CD--CE-[NZ] |==|  0.21434
USER: genes 8 Torsion [CD]-CE--NZ-[HZ3] |==|  0.14457
USER: genes 9 Torsion [N]-CA--C-[O] |==|  0.30498
USER: genes 10 Torsion [C]-CA--CB-[CG] |==|  0.30322
USER: genes 11 Torsion [CA]-CB--CG-[CD] |==|  0.78529
USER: genes 12 Torsion [CB]-CG--CD-[OE1] |==|  0.41694
USER: genes 13 Torsion [C]-CA--N-[C] |==|  0.74676
USER: genes 14 Torsion [N]-C--CA-[N] |==|  0.45548
USER: genes 15 Torsion [C]-CA--N-[H1] |==|  0.31670
USER: genes 16 Torsion [C]-CA--CB-[CG] |==|  0.79036
USER: genes 17 Torsion [CA]-CB--CG-[CD] |==|  0.61001
USER: genes 18 Torsion [CB]-CG--CD-[CE] |==|  0.37679
USER: genes 19 Torsion [CG]-CD--CE-[NZ] |==|  0.86193
USER: genes 20 Torsion [CD]-CE--NZ-[HZ2] |==|  0.76173
ROOT
ATOM      1  CA  GLN B   2       3.833  19.875  16.048  1.00 17.90 LIG 0.18  C 
ENDROOT
BRANCH 1 2
ATOM      2  C   GLN B   2       2.562  19.950  15.232  1.00 16.31 LIG 0.24  C 
ATOM      3 O    GLN B   2       2.528  20.191  14.026  1.00 17.68 LIG-0.27  OA
ATOM      4  N   LYS B   3       1.434  19.748  15.933  1.00 17.96 LIG-0.34  N 
ATOM      5 H    LYS B   3       1.426  19.572  16.775  1.00 17.96 LIG 0.16  HD
BRANCH 4 6
ATOM      6  CA  LYS B   3       0.125  19.805  15.341  1.00 18.66 LIG 0.18  C 
BRANCH 6 7
ATOM      7  CB  LYS B   3      -0.187  18.399  14.777  1.00 21.21 LIG 0.04  C 
BRANCH 7 8
ATOM      8  CG  LYS B   3      -1.446  18.370  13.946  1.00 28.49 LIG 0.00  C 
BRANCH 8 9
ATOM      9  CD  LYS B   3      -1.962  16.949  13.805  1.00 23.11 LIG 0.03  C 
BRANCH 9 10
ATOM     10  CE  LYS B   3      -3.091  16.977  12.746  1.00 24.47 LIG 0.23  C 
BRANCH 10 11
ATOM     11  NZ  LYS B   3      -2.388  17.056  11.430  1.00 24.59 LIG-0.08  N 
ATOM     12 HZ3  LYS B   3      -1.779  16.410  11.379  1.00 24.59 LIG 0.27  HD
ATOM     13 HZ1  LYS B   3      -2.979  16.960  10.771  1.00 24.59 LIG 0.27  HD
ATOM     14 HZ2  LYS B   3      -1.987  17.848  11.355  1.00 24.59 LIG 0.27  HD
ENDBRANCH 10 11
ENDBRANCH 9 10
ENDBRANCH 8 9
ENDBRANCH 7 8
ENDBRANCH 6 7
BRANCH 6 15
ATOM     15  C   LYS B   3      -0.940  20.158  16.394  1.00 20.09 LIG 0.20  C 
ATOM     16 O    LYS B   3      -1.424  21.300  16.260  1.00 20.27 LIG-0.65  OA
ATOM     17 OXT  LYS B   3      -1.263  19.348  17.292  1.00 17.88 LIG-0.65  OA
ENDBRANCH 6 15
ENDBRANCH 4 6
ENDBRANCH 1 2
BRANCH 1 18
ATOM     18  CB  GLN B   2       4.121  21.337  16.490  1.00 14.78 LIG 0.04  C 
BRANCH 18 19
ATOM     19  CG  GLN B   2       3.871  21.490  17.992  1.00 19.11 LIG 0.10  C 
BRANCH 19 20
ATOM     20  CD  GLN B   2       2.490  21.598  18.525  1.00 21.74 LIG 0.21  C 
ATOM     21 OE1  GLN B   2       2.112  21.223  19.624  1.00 22.50 LIG-0.27  OA
ATOM     22  NE2 GLN B   2       1.597  22.191  17.722  1.00 26.70 LIG-0.37  N 
ATOM     23 21HE GLN B   2       1.836  22.465  16.942  1.00 26.70 LIG 0.16  HD
ATOM     24 22HE GLN B   2       0.786  22.299  17.986  1.00 26.70 LIG 0.16  HD
ENDBRANCH 19 20
ENDBRANCH 18 19
ENDBRANCH 1 18
BRANCH 1 25
ATOM     25  N   GLN B   2       4.985  19.382  15.288  1.00 16.65 LIG-0.35  N 
ATOM     26  C   LYS B   1       5.287  18.084  15.251  1.00 15.97 LIG 0.25  C 
ATOM     27 O    LYS B   1       4.677  17.217  15.882  1.00 15.49 LIG-0.27  OA
ATOM     28 H    GLN B   2       5.434  19.993  14.882  1.00 16.65 LIG 0.16  HD
BRANCH 26 29
ATOM     29  CA  LYS B   1       6.512  17.719  14.439  1.00 14.04 LIG 0.27  C 
BRANCH 29 30
ATOM     30  N   LYS B   1       6.987  16.348  14.760  1.00 15.17 LIG-0.07  N 
ATOM     31 H3   LYS B   1       6.512  16.020  15.438  1.00 15.17 LIG 0.28  HD
ATOM     32 H2   LYS B   1       7.847  16.376  14.987  1.00 15.17 LIG 0.28  HD
ATOM     33 H1   LYS B   1       6.886  15.824  14.047  1.00 15.17 LIG 0.28  HD
ENDBRANCH 29 30
BRANCH 29 34
ATOM     34  CB  LYS B   1       6.286  17.937  12.931  1.00 17.90 LIG 0.04  C 
BRANCH 34 35
ATOM     35  CG  LYS B   1       5.414  16.862  12.277  1.00 15.85 LIG 0.00  C 
BRANCH 35 36
ATOM     36  CD  LYS B   1       5.931  16.483  10.890  1.00 19.36 LIG 0.03  C 
BRANCH 36 37
ATOM     37  CE  LYS B   1       5.950  14.976  10.633  1.00 24.06 LIG 0.23  C 
BRANCH 37 38
ATOM     38  NZ  LYS B   1       6.612  14.220  11.737  1.00 18.61 LIG-0.08  N 
ATOM     39 HZ1  LYS B   1       6.295  13.389  11.760  1.00 18.61 LIG 0.27  HD
ATOM     40 HZ2  LYS B   1       7.490  14.198  11.597  1.00 18.61 LIG 0.27  HD
ATOM     41 HZ3  LYS B   1       6.446  14.622  12.514  1.00 18.61 LIG 0.27  HD
ENDBRANCH 37 38
ENDBRANCH 36 37
ENDBRANCH 35 36
ENDBRANCH 34 35
ENDBRANCH 29 34
ENDBRANCH 26 29
ENDBRANCH 1 25
TORSDOF 19
ENDMDL
MODEL 2
USER: ADFR SOLUTION from run 56
USER: SCORE 22.677524 LL:  -1.407 LR: -21.389 RR:   0.000 FEB: -15.722
USER: RMSD 1.647491
USER: SEED 55
USER: STATUS no improvement in best in 4 clusters for 5 generations
USER: GENES 21
USER: genes 0 Translation |==|  0.61143 0.61038 0.53165
USER: genes 1 Rotation |==|  0.49673 0.52862 0.45059 0.99672
USER: genes 2 Torsion [N]-CA--C-[N] |==|  0.32990
USER: genes 3 Torsion [C]-N--CA-[CB] |==|  0.29393
USER: genes 4 Torsion [N]-CA--CB-[CG] |==|  0.44825
USER: genes 5 Torsion [CA]-CB--CG-[CD] |==|  0.16644
USER: genes 6 Torsion [CB]-CG--CD-[CE] |==|  0.66595
USER: genes 7 Torsion [CG]-CD--CE-[NZ] |==|  0.85150
USER: genes 8 Torsion [CD]-CE--NZ-[HZ3] |==|  0.21134
USER: genes 9 Torsion [N]-CA--C-[O] |==|  0.24587
USER: genes 10 Torsion [C]-CA--CB-[CG] |==|  0.41441
USER: genes 11 Torsion [CA]-CB--CG-[CD] |==|  0.70389
USER: genes 12 Torsion [CB]-CG--CD-[OE1] |==|  0.13101
USER: genes 13 Torsion [C]-CA--N-[C] |==|  0.74622
USER: genes 14 Torsion [N]-C--CA-[N] |==|  0.34201
USER: genes 15 Torsion [C]-CA--N-[H1] |==|  0.14484
USER: genes 16 Torsion [C]-CA--CB-[CG] |==|  0.29708
USER: genes 17 Torsion [CA]-CB--CG-[CD] |==|  0.96358
USER: genes 18 Torsion [CB]-CG--CD-[CE] |==|  0.27582
USER: genes 19 Torsion [CG]-CD--CE-[NZ] |==|  0.87580
USER: genes 20 Torsion [CD]-CE--NZ-[HZ2] |==|  0.76264
ROOT
ATOM      1  CA  GLN B   2       3.910  20.044  15.705  1.00 17.90 LIG 0.18  C 
ENDROOT
BRANCH 1 2
ATOM      2  C   GLN B   2       2.536  20.154  15.083  1.00 16.31 LIG 0.24  C 
ATOM      3 O    GLN B   2       2.314  20.652  13.980  1.00 17.68 LIG-0.27  OA
ATOM      4  N   LYS B   3       1.537  19.675  15.843  1.00 17.96 LIG-0.34  N 
ATOM      5 H    LYS B   3       1.662  19.317  16.616  1.00 17.96 LIG 0.16  HD
BRANCH 4 6
ATOM      6  CA  LYS B   3       0.159  19.715  15.439  1.00 18.66 LIG 0.18  C 
BRANCH 6 7
ATOM      7  CB  LYS B   3      -0.245  18.276  15.040  1.00 21.21 LIG 0.04  C 
BRANCH 7 8
ATOM      8  CG  LYS B   3      -1.740  18.073  15.025  1.00 28.49 LIG 0.00  C 
BRANCH 8 9
ATOM      9  CD  LYS B   3      -2.399  19.016  14.035  1.00 23.11 LIG 0.03  C 
BRANCH 9 10
ATOM     10  CE  LYS B   3      -3.393  19.895  14.833  1.00 24.47 LIG 0.23  C 
BRANCH 10 11
ATOM     11  NZ  LYS B   3      -4.260  18.928  15.571  1.00 24.59 LIG-0.08  N 
ATOM     12 HZ3  LYS B   3      -3.812  18.597  16.266  1.00 24.59 LIG 0.27  HD
ATOM     13 HZ1  LYS B   3      -4.990  19.346  15.862  1.00 24.59 LIG 0.27  HD
ATOM     14 HZ2  LYS B   3      -4.495  18.264  15.027  1.00 24.59 LIG 0.27  HD
ENDBRANCH 10 11
ENDBRANCH 9 10
ENDBRANCH 8 9
ENDBRANCH 7 8
ENDBRANCH 6 7
BRANCH 6 15
ATOM     15  C   LYS B   3      -0.743  20.173  16.599  1.00 20.09 LIG 0.20  C 
ATOM     16 O    LYS B   3      -0.887  21.409  16.669  1.00 20.27 LIG-0.65  OA
ATOM     17 OXT  LYS B   3      -1.263  19.348  17.385  1.00 17.88 LIG-0.65  OA
ENDBRANCH 6 15
ENDBRANCH 4 6
ENDBRANCH 1 2
BRANCH 1 18
ATOM     18  CB  GLN B   2       4.460  21.497  15.740  1.00 14.78 LIG 0.04  C 
BRANCH 18 19
ATOM     19  CG  GLN B   2       5.394  21.675  16.938  1.00 19.11 LIG 0.10  C 
BRANCH 19 20
ATOM     20  CD  GLN B   2       4.965  22.452  18.127  1.00 21.74 LIG 0.21  C 
ATOM     21 OE1  GLN B   2       3.898  22.345  18.711  1.00 22.50 LIG-0.27  OA
ATOM     22  NE2 GLN B   2       5.859  23.326  18.609  1.00 26.70 LIG-0.37  N 
ATOM     23 21HE GLN B   2       6.619  23.423  18.218  1.00 26.70 LIG 0.16  HD
ATOM     24 22HE GLN B   2       5.673  23.791  19.308  1.00 26.70 LIG 0.16  HD
ENDBRANCH 19 20
ENDBRANCH 18 19
ENDBRANCH 1 18
BRANCH 1 25
ATOM     25  N   GLN B   2       4.836  19.214  14.928  1.00 16.65 LIG-0.35  N 
ATOM     26  C   LYS B   1       4.957  17.907  15.161  1.00 15.97 LIG 0.25  C 
ATOM     27 O    LYS B   1       4.362  17.310  16.063  1.00 15.49 LIG-0.27  OA
ATOM     28 H    GLN B   2       5.280  19.640  14.327  1.00 16.65 LIG 0.16  HD
BRANCH 26 29
ATOM     29  CA  LYS B   1       5.962  17.178  14.294  1.00 14.04 LIG 0.27  C 
BRANCH 29 30
ATOM     30  N   LYS B   1       6.987  16.484  15.117  1.00 15.17 LIG-0.07  N 
ATOM     31 H3   LYS B   1       7.498  17.088  15.526  1.00 15.17 LIG 0.28  HD
ATOM     32 H2   LYS B   1       7.493  15.973  14.593  1.00 15.17 LIG 0.28  HD
ATOM     33 H1   LYS B   1       6.584  15.975  15.727  1.00 15.17 LIG 0.28  HD
ENDBRANCH 29 30
BRANCH 29 34
ATOM     34  CB  LYS B   1       5.273  16.241  13.283  1.00 17.90 LIG 0.04  C 
BRANCH 34 35
ATOM     35  CG  LYS B   1       5.316  16.752  11.841  1.00 15.85 LIG 0.00  C 
BRANCH 35 36
ATOM     36  CD  LYS B   1       5.746  18.217  11.775  1.00 19.36 LIG 0.03  C 
BRANCH 36 37
ATOM     37  CE  LYS B   1       7.222  18.407  11.424  1.00 24.06 LIG 0.23  C 
BRANCH 37 38
ATOM     38  NZ  LYS B   1       8.111  17.481  12.185  1.00 18.61 LIG-0.08  N 
ATOM     39 HZ1  LYS B   1       8.862  17.347  11.727  1.00 18.61 LIG 0.27  HD
ATOM     40 HZ2  LYS B   1       8.307  17.839  12.975  1.00 18.61 LIG 0.27  HD
ATOM     41 HZ3  LYS B   1       7.695  16.703  12.306  1.00 18.61 LIG 0.27  HD
ENDBRANCH 37 38
ENDBRANCH 36 37
ENDBRANCH 35 36
ENDBRANCH 34 35
ENDBRANCH 29 34
ENDBRANCH 26 29
ENDBRANCH 1 25
TORSDOF 19
ENDMDL
