MODEL 1
USER: ADFR SOLUTION from run 156
USER: SCORE 22.571238 LL:  -0.920 LR: -21.790 RR:   0.000 FEB: -16.420
USER: RMSD 1.234671
USER: SEED 155
USER: STATUS 1 or 2 clusters left
USER: GENES 20
USER: genes 0 Translation |==|  0.61053 0.59194 0.57892
USER: genes 1 Rotation |==|  0.46029 0.54316 0.46369 0.99522
USER: genes 2 Torsion [N]-CA--C-[N] |==|  0.32340
USER: genes 3 Torsion [C]-N--CA-[CB] |==|  0.29952
USER: genes 4 Torsion [N]-CA--CB-[CG] |==|  0.56788
USER: genes 5 Torsion [CA]-CB--CG-[CD] |==|  0.52868
USER: genes 6 Torsion [CB]-CG--CD-[CE] |==|  0.53215
USER: genes 7 Torsion [CG]-CD--CE-[NZ] |==|  0.24511
USER: genes 8 Torsion [CD]-CE--NZ-[HZ3] |==|  0.09367
USER: genes 9 Torsion [N]-CA--C-[O] |==|  0.25068
USER: genes 10 Torsion [C]-CA--CB-[CG] |==|  0.40094
USER: genes 11 Torsion [CA]-CB--CG-[CD2] |==|  0.58331
USER: genes 12 Torsion [C]-CA--N-[C] |==|  0.73571
USER: genes 13 Torsion [N]-C--CA-[N] |==|  0.36913
USER: genes 14 Torsion [C]-CA--N-[H1] |==|  0.48113
USER: genes 15 Torsion [C]-CA--CB-[CG] |==|  0.22565
USER: genes 16 Torsion [CA]-CB--CG-[CD] |==|  0.23542
USER: genes 17 Torsion [CB]-CG--CD-[CE] |==|  0.78345
USER: genes 18 Torsion [CG]-CD--CE-[NZ] |==|  0.24776
USER: genes 19 Torsion [CD]-CE--NZ-[HZ3] |==|  0.64732
ROOT
ATOM      1  CA  LEU B   2       4.073  20.082  15.704  1.00 13.49 LIG 0.18  C 
ENDROOT
BRANCH 1 2
ATOM      2  C   LEU B   2       2.662  20.173  15.152  1.00 13.24 LIG 0.24  C 
ATOM      3 O    LEU B   2       2.433  20.596  14.027  1.00 12.84 LIG-0.27  OA
ATOM      4  N   LYS B   3       1.684  19.685  15.925  1.00 13.77 LIG-0.34  N 
ATOM      5 H    LYS B   3       1.796  19.322  16.696  1.00 13.77 LIG 0.16  HD
BRANCH 4 6
ATOM      6  CA  LYS B   3       0.305  19.758  15.457  1.00 14.66 LIG 0.18  C 
BRANCH 6 7
ATOM      7  CB  LYS B   3      -0.232  18.377  15.048  1.00 17.74 LIG 0.04  C 
BRANCH 7 8
ATOM      8  CG  LYS B   3      -1.373  18.570  14.037  1.00 17.95 LIG 0.00  C 
BRANCH 8 9
ATOM      9  CD  LYS B   3      -2.098  17.265  13.797  1.00 21.89 LIG 0.03  C 
BRANCH 9 10
ATOM     10  CE  LYS B   3      -3.039  17.372  12.594  1.00 19.59 LIG 0.23  C 
BRANCH 10 11
ATOM     11  NZ  LYS B   3      -2.247  17.020  11.384  1.00 20.11 LIG-0.08  N 
ATOM     12 HZ3  LYS B   3      -1.644  16.401  11.594  1.00 20.11 LIG 0.27  HD
ATOM     13 HZ2  LYS B   3      -1.832  17.746  11.080  1.00 20.11 LIG 0.27  HD
ATOM     14 HZ1  LYS B   3      -2.791  16.704  10.755  1.00 20.11 LIG 0.27  HD
ENDBRANCH 10 11
ENDBRANCH 9 10
ENDBRANCH 8 9
ENDBRANCH 7 8
ENDBRANCH 6 7
BRANCH 6 15
ATOM     15  C   LYS B   3      -0.579  20.258  16.607  1.00 19.11 LIG 0.20  C 
ATOM     16 O    LYS B   3      -0.707  21.496  16.652  1.00 19.02 LIG-0.65  OA
ATOM     17 OXT  LYS B   3      -1.082  19.437  17.402  1.00 15.29 LIG-0.65  OA
ENDBRANCH 6 15
ENDBRANCH 4 6
ENDBRANCH 1 2
BRANCH 1 18
ATOM     18  CB  LEU B   2       4.704  21.490  15.749  1.00 16.32 LIG 0.04  C 
BRANCH 18 19
ATOM     19  CG  LEU B   2       5.623  21.649  16.989  1.00 17.59 LIG-0.02  C 
ATOM     20  CD2 LEU B   2       5.643  23.088  17.451  1.00 21.32 LIG 0.01  C 
ATOM     21  CD1 LEU B   2       7.024  21.163  16.652  1.00 19.96 LIG 0.01  C 
ENDBRANCH 18 19
ENDBRANCH 1 18
BRANCH 1 22
ATOM     22  N   LEU B   2       4.930  19.223  14.884  1.00 13.93 LIG-0.35  N 
ATOM     23 H    LEU B   2       5.293  19.619  14.213  1.00 13.93 LIG 0.16  HD
ATOM     24  C   LYS B   1       5.113  17.940  15.181  1.00 11.76 LIG 0.25  C 
ATOM     25 O    LYS B   1       4.516  17.371  16.087  1.00 11.37 LIG-0.27  OA
BRANCH 24 26
ATOM     26  CA  LYS B   1       6.097  17.190  14.310  1.00 10.15 LIG 0.27  C 
BRANCH 26 27
ATOM     27  N   LYS B   1       7.035  16.399  15.152  1.00 12.07 LIG-0.07  N 
ATOM     28 H3   LYS B   1       6.571  15.884  15.710  1.00 12.07 LIG 0.28  HD
ATOM     29 H2   LYS B   1       7.552  16.952  15.620  1.00 12.07 LIG 0.28  HD
ATOM     30 H1   LYS B   1       7.543  15.888  14.630  1.00 12.07 LIG 0.28  HD
ENDBRANCH 26 27
BRANCH 26 31
ATOM     31  CB  LYS B   1       5.448  16.336  13.200  1.00 13.63 LIG 0.04  C 
BRANCH 31 32
ATOM     32  CG  LYS B   1       5.067  17.178  11.971  1.00 14.29 LIG 0.00  C 
BRANCH 32 33
ATOM     33  CD  LYS B   1       6.277  17.329  11.042  1.00 16.29 LIG 0.03  C 
BRANCH 33 34
ATOM     34  CE  LYS B   1       7.246  18.387  11.590  1.00 21.27 LIG 0.23  C 
BRANCH 34 35
ATOM     35  NZ  LYS B   1       8.231  17.746  12.508  1.00 18.80 LIG-0.08  N 
ATOM     36 HZ1  LYS B   1       8.006  16.895  12.639  1.00 18.80 LIG 0.27  HD
ATOM     37 HZ3  LYS B   1       8.234  18.175  13.288  1.00 18.80 LIG 0.27  HD
ATOM     38 HZ2  LYS B   1       9.043  17.784  12.146  1.00 18.80 LIG 0.27  HD
ENDBRANCH 34 35
ENDBRANCH 33 34
ENDBRANCH 32 33
ENDBRANCH 31 32
ENDBRANCH 26 31
ENDBRANCH 24 26
ENDBRANCH 1 22
TORSDOF 18
ENDMDL
