MODEL 1
USER: ADFR SOLUTION from run 51
USER: SCORE 17.128316 LL:  -2.358 LR: -17.421 RR:   0.000 FEB:  -9.964
USER: RMSD 2.459028
USER: SEED 50
USER: STATUS no improvement in best in 6 clusters for 5 generations
USER: GENES 27
USER: genes 0 Translation |==|  0.48758 0.53407 0.49104
USER: genes 1 Rotation |==|  0.51640 0.47165 0.53827 0.99746
USER: genes 2 Torsion [N]-C--CA-[N] |==|  0.37766
USER: genes 3 Torsion [C]-CA--CB-[CG] |==|  0.40091
USER: genes 4 Torsion [CA]-CB--CG-[CD] |==|  0.44065
USER: genes 5 Torsion [CB]-CG--CD-[NE2] |==|  0.40109
USER: genes 6 Torsion [C]-CA--N-[C] |==|  0.82901
USER: genes 7 Torsion [N]-C--CA-[N] |==|  0.32719
USER: genes 8 Torsion [C]-CA--N-[C] |==|  0.74125
USER: genes 9 Torsion [N]-C--CA-[N] |==|  0.24413
USER: genes 10 Torsion [C]-CA--CB-[CG] |==|  0.50975
USER: genes 11 Torsion [CA]-CB--CG-[CD] |==|  0.37065
USER: genes 12 Torsion [CB]-CG--CD-[NE2] |==|  0.79504
USER: genes 13 Torsion [C]-N--CA-[CB] |==|  0.45714
USER: genes 14 Torsion [N]-CA--C-[N] |==|  0.42619
USER: genes 15 Torsion [C]-N--CA-[CB] |==|  0.55556
USER: genes 16 Torsion [N]-CA--C-[N] |==|  0.83996
USER: genes 17 Torsion [C]-N--CA-[C] |==|  0.68849
USER: genes 18 Torsion [N]-CA--C-[N] |==|  0.66269
USER: genes 19 Torsion [C]-N--CA-[C] |==|  0.78066
USER: genes 20 Torsion [N]-CA--C-[O] |==|  0.12820
USER: genes 21 Torsion [N]-CA--CB-[CG] |==|  0.15317
USER: genes 22 Torsion [CA]-CB--CG-[OD2] |==|  0.86773
USER: genes 23 Torsion [N]-CA--CB-[CG] |==|  0.13350
USER: genes 24 Torsion [CA]-CB--CG-[OD2] |==|  0.93594
USER: genes 25 Torsion [N]-CA--CB-[OG1] |==|  0.11022
USER: genes 26 Torsion [CA]-CB--OG1-[HG1] |==|  0.73113
ROOT
ATOM      1  C   GLN D 206     -21.937  12.532  28.224  1.00 23.02 LIG 0.24  C 
ATOM      2 O    GLN D 206     -22.712  13.415  28.590  1.00 23.21 LIG-0.27  OA
ATOM      3  N   ALA D 207     -21.397  12.491  27.009  1.00 22.72 LIG-0.35  N 
ATOM      4 H    ALA D 207     -20.830  11.894  26.759  1.00 22.72 LIG 0.16  HD
ENDROOT
BRANCH 1 5
ATOM      5  CA  GLN D 206     -21.529  11.411  29.166  1.00 22.90 LIG 0.18  C 
BRANCH 5 6
ATOM      6  CB  GLN D 206     -22.648  10.361  29.201  1.00 23.00 LIG 0.04  C 
BRANCH 6 7
ATOM      7  CG  GLN D 206     -22.170   8.914  29.328  1.00 22.87 LIG 0.10  C 
BRANCH 7 8
ATOM      8  CD  GLN D 206     -23.256   7.999  29.868  1.00 23.72 LIG 0.21  C 
ATOM      9  NE2 GLN D 206     -23.290   6.760  29.382  1.00 23.17 LIG-0.37  N 
ATOM     10 21HE GLN D 206     -22.717   6.514  28.789  1.00 23.17 LIG 0.16  HD
ATOM     11 22HE GLN D 206     -23.885   6.205  29.660  1.00 23.17 LIG 0.16  HD
ATOM     12 OE1  GLN D 206     -24.049   8.400  30.715  1.00 23.11 LIG-0.27  OA
ENDBRANCH 7 8
ENDBRANCH 6 7
ENDBRANCH 5 6
BRANCH 5 13
ATOM     13  N   GLN D 206     -21.213  11.854  30.517  1.00 22.83 LIG-0.35  N 
ATOM     14 H    GLN D 206     -21.721  11.524  31.127  1.00 22.83 LIG 0.16  HD
ATOM     15  C   GLN D 205     -20.217  12.700  30.760  1.00 23.49 LIG 0.24  C 
ATOM     16 O    GLN D 205     -19.515  13.189  29.873  1.00 22.46 LIG-0.27  OA
BRANCH 15 17
ATOM     17  CA  GLN D 205     -19.976  13.051  32.217  1.00 24.37 LIG 0.18  C 
BRANCH 17 18
ATOM     18  N   GLN D 205     -18.638  12.594  32.567  1.00 25.17 LIG-0.35  N 
ATOM     19 H    GLN D 205     -18.018  13.165  32.395  1.00 25.17 LIG 0.16  HD
ATOM     20  C   PRO D 204     -18.407  11.401  33.103  1.00 27.23 LIG 0.24  C 
ATOM     21 O    PRO D 204     -19.297  10.596  33.365  1.00 27.18 LIG-0.27  OA
BRANCH 20 22
ATOM     22  CA  PRO D 204     -16.944  11.052  33.370  1.00 28.49 LIG 0.18  C 
ATOM     23  N   PRO D 204     -16.521  11.518  34.693  1.00 30.00 LIG-0.34  N 
ATOM     24  CD  PRO D 204     -16.584  10.401  35.640  1.00 30.13 LIG 0.13  C 
ATOM     25  C   ACE D 203     -16.108  12.768  34.954  1.00 30.58 LIG 0.22  C 
ATOM     26  CG  PRO D 204     -16.009   9.322  34.800  1.00 30.43 LIG 0.02  C 
ATOM     27  CB  PRO D 204     -16.766   9.532  33.470  1.00 28.78 LIG 0.04  C 
ATOM     28  CH3 ACE D 203     -15.703  13.098  36.377  1.00 31.20 LIG 0.12  C 
ATOM     29 O    ACE D 203     -16.049  13.627  34.076  1.00 31.12 LIG-0.27  OA
ENDBRANCH 20 22
ENDBRANCH 17 18
BRANCH 17 30
ATOM     30  CB  GLN D 205     -20.108  14.559  32.421  1.00 24.72 LIG 0.04  C 
BRANCH 30 31
ATOM     31  CG  GLN D 205     -19.798  14.999  33.835  1.00 27.03 LIG 0.10  C 
BRANCH 31 32
ATOM     32  CD  GLN D 205     -18.879  16.198  33.884  1.00 28.11 LIG 0.21  C 
ATOM     33  NE2 GLN D 205     -17.605  15.975  33.589  1.00 29.45 LIG-0.37  N 
ATOM     34 21HE GLN D 205     -17.345  15.183  33.378  1.00 29.45 LIG 0.16  HD
ATOM     35 22HE GLN D 205     -17.039  16.623  33.609  1.00 29.45 LIG 0.16  HD
ATOM     36 OE1  GLN D 205     -19.304  17.311  34.191  1.00 29.17 LIG-0.27  OA
ENDBRANCH 31 32
ENDBRANCH 30 31
ENDBRANCH 17 30
ENDBRANCH 15 17
ENDBRANCH 5 13
ENDBRANCH 1 5
BRANCH 3 37
ATOM     37  CA  ALA D 207     -21.726  13.469  25.981  1.00 22.93 LIG 0.17  C 
ATOM     38  CB  ALA D 207     -20.704  13.405  24.864  1.00 22.72 LIG 0.04  C 
BRANCH 37 39
ATOM     39  C   ALA D 207     -23.116  13.080  25.462  1.00 23.32 LIG 0.24  C 
ATOM     40  N   THR D 208     -23.878  14.040  24.945  1.00 24.11 LIG-0.34  N 
ATOM     41 H    THR D 208     -23.639  14.861  24.859  1.00 24.11 LIG 0.16  HD
ATOM     42 O    ALA D 207     -23.487  11.910  25.521  1.00 22.54 LIG-0.27  OA
BRANCH 40 43
ATOM     43  CA  THR D 208     -25.227  13.734  24.473  1.00 25.74 LIG 0.20  C 
BRANCH 43 44
ATOM     44  C   THR D 208     -25.463  12.382  23.803  1.00 27.84 LIG 0.24  C 
ATOM     45  N   ASP D 209     -24.740  12.075  22.732  1.00 27.84 LIG-0.34  N 
ATOM     46 H    ASP D 209     -24.124  12.570  22.392  1.00 27.84 LIG 0.16  HD
ATOM     47 O    THR D 208     -26.304  11.609  24.265  1.00 27.83 LIG-0.27  OA
BRANCH 45 48
ATOM     48  CA  ASP D 209     -24.976  10.807  22.046  1.00 29.52 LIG 0.19  C 
BRANCH 48 49
ATOM     49  C   ASP D 209     -23.886   9.741  22.100  1.00 30.14 LIG 0.24  C 
ATOM     50 O    ASP D 209     -23.511   9.319  23.191  1.00 31.34 LIG-0.27  OA
ATOM     51  N   ASP D 210     -23.375   9.301  20.955  1.00 30.20 LIG-0.34  N 
ATOM     52 H    ASP D 210     -23.613   9.576  20.176  1.00 30.20 LIG 0.16  HD
BRANCH 51 53
ATOM     53  CA  ASP D 210     -22.330   8.276  20.955  1.00 30.95 LIG 0.20  C 
BRANCH 53 54
ATOM     54  C   ASP D 210     -20.937   8.823  21.276  1.00 31.44 LIG 0.20  C 
ATOM     55 O    ASP D 210     -20.816   9.605  22.240  1.00 30.73 LIG-0.65  OA
ATOM     56 OXT  ASP D 210     -19.980   8.457  20.561  1.00 31.53 LIG-0.65  OA
ENDBRANCH 53 54
BRANCH 53 57
ATOM     57  CB  ASP D 210     -22.304   7.545  19.607  1.00 31.88 LIG 0.15  C 
BRANCH 57 58
ATOM     58  CG  ASP D 210     -22.146   8.484  18.433  1.00 32.06 LIG 0.17  C 
ATOM     59 OD2  ASP D 210     -22.862   9.507  18.363  1.00 32.64 LIG-0.65  OA
ATOM     60 OD1  ASP D 210     -21.300   8.186  17.570  1.00 34.58 LIG-0.65  OA
ENDBRANCH 57 58
ENDBRANCH 53 57
ENDBRANCH 51 53
ENDBRANCH 48 49
BRANCH 48 61
ATOM     61  CB  ASP D 209     -25.294  11.064  20.573  1.00 29.28 LIG 0.15  C 
BRANCH 61 62
ATOM     62  CG  ASP D 209     -24.312  12.016  19.928  1.00 30.36 LIG 0.17  C 
ATOM     63 OD2  ASP D 209     -23.676  12.802  20.660  1.00 30.91 LIG-0.65  OA
ATOM     64 OD1  ASP D 209     -24.197  11.998  18.683  1.00 31.75 LIG-0.65  OA
ENDBRANCH 61 62
ENDBRANCH 48 61
ENDBRANCH 45 48
ENDBRANCH 43 44
BRANCH 43 65
ATOM     65  CB  THR D 208     -25.742  14.810  23.489  1.00 25.82 LIG 0.15  C 
ATOM     66  CG2 THR D 208     -26.266  16.023  24.243  1.00 25.57 LIG 0.04  C 
BRANCH 65 67
ATOM     67 OG1  THR D 208     -24.677  15.219  22.623  1.00 26.97 LIG-0.39  OA
ATOM     68 HG1  THR D 208     -24.328  15.921  22.922  1.00 26.97 LIG 0.21  HD
ENDBRANCH 65 67
ENDBRANCH 43 65
ENDBRANCH 40 43
ENDBRANCH 37 39
ENDBRANCH 3 37
TORSDOF 25
ENDMDL
MODEL 2
USER: ADFR SOLUTION from run 143
USER: SCORE 17.769132 LL:  -3.204 LR: -17.243 RR:   0.000 FEB:  -9.786
USER: RMSD 1.295037
USER: SEED 142
USER: STATUS no improvement in best in 4 clusters for 5 generations
USER: GENES 27
USER: genes 0 Translation |==|  0.48290 0.53509 0.47968
USER: genes 1 Rotation |==|  0.51516 0.48471 0.51885 0.99918
USER: genes 2 Torsion [N]-C--CA-[N] |==|  0.38970
USER: genes 3 Torsion [C]-CA--CB-[CG] |==|  0.46409
USER: genes 4 Torsion [CA]-CB--CG-[CD] |==|  0.52623
USER: genes 5 Torsion [CB]-CG--CD-[NE2] |==|  0.43751
USER: genes 6 Torsion [C]-CA--N-[C] |==|  0.82124
USER: genes 7 Torsion [N]-C--CA-[N] |==|  0.34086
USER: genes 8 Torsion [C]-CA--N-[C] |==|  0.67920
USER: genes 9 Torsion [N]-C--CA-[N] |==|  0.30462
USER: genes 10 Torsion [C]-CA--CB-[CG] |==|  0.47888
USER: genes 11 Torsion [CA]-CB--CG-[CD] |==|  0.35549
USER: genes 12 Torsion [CB]-CG--CD-[NE2] |==|  0.81716
USER: genes 13 Torsion [C]-N--CA-[CB] |==|  0.46727
USER: genes 14 Torsion [N]-CA--C-[N] |==|  0.42823
USER: genes 15 Torsion [C]-N--CA-[CB] |==|  0.43418
USER: genes 16 Torsion [N]-CA--C-[N] |==|  0.85651
USER: genes 17 Torsion [C]-N--CA-[C] |==|  0.72351
USER: genes 18 Torsion [N]-CA--C-[N] |==|  0.13423
USER: genes 19 Torsion [C]-N--CA-[C] |==|  0.84195
USER: genes 20 Torsion [N]-CA--C-[O] |==|  0.84562
USER: genes 21 Torsion [N]-CA--CB-[CG] |==|  0.73061
USER: genes 22 Torsion [CA]-CB--CG-[OD2] |==|  0.77562
USER: genes 23 Torsion [N]-CA--CB-[CG] |==|  0.18610
USER: genes 24 Torsion [CA]-CB--CG-[OD2] |==|  0.43389
USER: genes 25 Torsion [N]-CA--CB-[OG1] |==|  0.21422
USER: genes 26 Torsion [CA]-CB--OG1-[HG1] |==|  0.80121
ROOT
ATOM      1  C   GLN D 206     -22.028  12.552  27.917  1.00 23.02 LIG 0.24  C 
ATOM      2 O    GLN D 206     -22.713  13.493  28.319  1.00 23.21 LIG-0.27  OA
ATOM      3  N   ALA D 207     -21.560  12.466  26.675  1.00 22.72 LIG-0.35  N 
ATOM      4 H    ALA D 207     -21.054  11.827  26.398  1.00 22.72 LIG 0.16  HD
ENDROOT
BRANCH 1 5
ATOM      5  CA  GLN D 206     -21.656  11.406  28.844  1.00 22.90 LIG 0.18  C 
BRANCH 5 6
ATOM      6  CB  GLN D 206     -22.806  10.389  28.861  1.00 23.00 LIG 0.04  C 
BRANCH 6 7
ATOM      7  CG  GLN D 206     -22.464   9.040  29.494  1.00 22.87 LIG 0.10  C 
BRANCH 7 8
ATOM      8  CD  GLN D 206     -23.560   8.011  29.275  1.00 23.72 LIG 0.21  C 
ATOM      9  NE2 GLN D 206     -23.204   6.731  29.357  1.00 23.17 LIG-0.37  N 
ATOM     10 21HE GLN D 206     -22.387   6.522  29.525  1.00 23.17 LIG 0.16  HD
ATOM     11 22HE GLN D 206     -23.791   6.113  29.244  1.00 23.17 LIG 0.16  HD
ATOM     12 OE1  GLN D 206     -24.713   8.364  29.039  1.00 23.11 LIG-0.27  OA
ENDBRANCH 7 8
ENDBRANCH 6 7
ENDBRANCH 5 6
BRANCH 5 13
ATOM     13  N   GLN D 206     -21.330  11.820  30.201  1.00 22.83 LIG-0.35  N 
ATOM     14 H    GLN D 206     -21.871  11.526  30.801  1.00 22.83 LIG 0.16  HD
ATOM     15  C   GLN D 205     -20.277  12.587  30.464  1.00 23.49 LIG 0.24  C 
ATOM     16 O    GLN D 205     -19.525  13.025  29.590  1.00 22.46 LIG-0.27  OA
BRANCH 15 17
ATOM     17  CA  GLN D 205     -20.034  12.914  31.926  1.00 24.37 LIG 0.18  C 
BRANCH 17 18
ATOM     18  N   GLN D 205     -18.692  12.461  32.264  1.00 25.17 LIG-0.35  N 
ATOM     19 H    GLN D 205     -18.067  12.876  31.843  1.00 25.17 LIG 0.16  HD
ATOM     20  C   PRO D 204     -18.464  11.492  33.144  1.00 27.23 LIG 0.24  C 
ATOM     21 O    PRO D 204     -19.358  10.915  33.757  1.00 27.18 LIG-0.27  OA
BRANCH 20 22
ATOM     22  CA  PRO D 204     -17.003  11.100  33.354  1.00 28.49 LIG 0.18  C 
ATOM     23  N   PRO D 204     -16.524  11.525  34.673  1.00 30.00 LIG-0.34  N 
ATOM     24  CD  PRO D 204     -16.586  10.388  35.596  1.00 30.13 LIG 0.13  C 
ATOM     25  C   ACE D 203     -16.071  12.757  34.948  1.00 30.58 LIG 0.22  C 
ATOM     26  CG  PRO D 204     -16.067   9.315  34.713  1.00 30.43 LIG 0.02  C 
ATOM     27  CB  PRO D 204     -16.862   9.574  33.415  1.00 28.78 LIG 0.04  C 
ATOM     28  CH3 ACE D 203     -15.612  13.043  36.364  1.00 31.20 LIG 0.12  C 
ATOM     29 O    ACE D 203     -16.018  13.635  34.088  1.00 31.12 LIG-0.27  OA
ENDBRANCH 20 22
ENDBRANCH 17 18
BRANCH 17 30
ATOM     30  CB  GLN D 205     -20.176  14.417  32.157  1.00 24.72 LIG 0.04  C 
BRANCH 30 31
ATOM     31  CG  GLN D 205     -20.129  14.803  33.619  1.00 27.03 LIG 0.10  C 
BRANCH 31 32
ATOM     32  CD  GLN D 205     -19.118  15.890  33.903  1.00 28.11 LIG 0.21  C 
ATOM     33  NE2 GLN D 205     -17.844  15.572  33.716  1.00 29.45 LIG-0.37  N 
ATOM     34 21HE GLN D 205     -17.634  14.784  33.441  1.00 29.45 LIG 0.16  HD
ATOM     35 22HE GLN D 205     -17.228  16.153  33.870  1.00 29.45 LIG 0.16  HD
ATOM     36 OE1  GLN D 205     -19.474  17.001  34.294  1.00 29.17 LIG-0.27  OA
ENDBRANCH 31 32
ENDBRANCH 30 31
ENDBRANCH 17 30
ENDBRANCH 15 17
ENDBRANCH 5 13
ENDBRANCH 1 5
BRANCH 3 37
ATOM     37  CA  ALA D 207     -21.870  13.464  25.660  1.00 22.93 LIG 0.17  C 
ATOM     38  CB  ALA D 207     -20.977  13.262  24.451  1.00 22.72 LIG 0.04  C 
BRANCH 37 39
ATOM     39  C   ALA D 207     -23.341  13.241  25.286  1.00 23.32 LIG 0.24  C 
ATOM     40  N   THR D 208     -24.026  14.275  24.808  1.00 24.11 LIG-0.34  N 
ATOM     41 H    THR D 208     -23.697  15.057  24.670  1.00 24.11 LIG 0.16  HD
ATOM     42 O    ALA D 207     -23.845  12.128  25.423  1.00 22.54 LIG-0.27  OA
BRANCH 40 43
ATOM     43  CA  THR D 208     -25.441  14.130  24.475  1.00 25.74 LIG 0.20  C 
BRANCH 43 44
ATOM     44  C   THR D 208     -25.800  13.476  23.142  1.00 27.84 LIG 0.24  C 
ATOM     45  N   ASP D 209     -25.232  13.944  22.036  1.00 27.84 LIG-0.34  N 
ATOM     46 H    ASP D 209     -24.652  14.579  22.010  1.00 27.84 LIG 0.16  HD
ATOM     47 O    THR D 208     -26.595  12.535  23.118  1.00 27.83 LIG-0.27  OA
BRANCH 45 48
ATOM     48  CA  ASP D 209     -25.591  13.365  20.744  1.00 29.52 LIG 0.19  C 
BRANCH 48 49
ATOM     49  C   ASP D 209     -24.653  12.332  20.128  1.00 30.14 LIG 0.24  C 
ATOM     50 O    ASP D 209     -24.320  12.449  18.952  1.00 31.34 LIG-0.27  OA
ATOM     51  N   ASP D 210     -24.225  11.332  20.891  1.00 30.20 LIG-0.34  N 
ATOM     52 H    ASP D 210     -24.441  11.220  21.716  1.00 30.20 LIG 0.16  HD
BRANCH 51 53
ATOM     53  CA  ASP D 210     -23.322  10.318  20.346  1.00 30.95 LIG 0.20  C 
BRANCH 53 54
ATOM     54  C   ASP D 210     -23.876   9.604  19.111  1.00 31.44 LIG 0.20  C 
ATOM     55 O    ASP D 210     -24.988   9.046  19.201  1.00 30.73 LIG-0.65  OA
ATOM     56 OXT  ASP D 210     -23.194   9.618  18.065  1.00 31.53 LIG-0.65  OA
ENDBRANCH 53 54
BRANCH 53 57
ATOM     57  CB  ASP D 210     -22.966   9.289  21.426  1.00 31.88 LIG 0.15  C 
BRANCH 57 58
ATOM     58  CG  ASP D 210     -21.646   9.580  22.103  1.00 32.06 LIG 0.17  C 
ATOM     59 OD2  ASP D 210     -20.581   9.242  21.542  1.00 32.64 LIG-0.65  OA
ATOM     60 OD1  ASP D 210     -21.682  10.145  23.211  1.00 34.58 LIG-0.65  OA
ENDBRANCH 57 58
ENDBRANCH 53 57
ENDBRANCH 51 53
ENDBRANCH 48 49
BRANCH 48 61
ATOM     61  CB  ASP D 209     -25.789  14.477  19.714  1.00 29.28 LIG 0.15  C 
BRANCH 61 62
ATOM     62  CG  ASP D 209     -24.501  15.201  19.391  1.00 30.36 LIG 0.17  C 
ATOM     63 OD2  ASP D 209     -24.408  15.789  18.294  1.00 30.91 LIG-0.65  OA
ATOM     64 OD1  ASP D 209     -23.570  15.158  20.224  1.00 31.75 LIG-0.65  OA
ENDBRANCH 61 62
ENDBRANCH 48 61
ENDBRANCH 45 48
ENDBRANCH 43 44
BRANCH 43 65
ATOM     65  CB  THR D 208     -26.175  15.491  24.510  1.00 25.82 LIG 0.15  C 
ATOM     66  CG2 THR D 208     -25.756  16.297  25.731  1.00 25.57 LIG 0.04  C 
BRANCH 65 67
ATOM     67 OG1  THR D 208     -25.866  16.235  23.327  1.00 26.97 LIG-0.39  OA
ATOM     68 HG1  THR D 208     -25.071  16.502  23.363  1.00 26.97 LIG 0.21  HD
ENDBRANCH 65 67
ENDBRANCH 43 65
ENDBRANCH 40 43
ENDBRANCH 37 39
ENDBRANCH 3 37
TORSDOF 25
ENDMDL
MODEL 3
USER: ADFR SOLUTION from run 5
USER: SCORE 17.887990 LL:  -3.518 LR: -17.217 RR:   0.000 FEB:  -9.760
USER: RMSD 3.589372
USER: SEED 534464
USER: STATUS no improvement in best in 4 clusters for 5 generations
USER: GENES 27
USER: genes 0 Translation |==|  0.48782 0.55643 0.46109
USER: genes 1 Rotation |==|  0.46555 0.42918 0.56013 0.99008
USER: genes 2 Torsion [N]-C--CA-[N] |==|  0.38203
USER: genes 3 Torsion [C]-CA--CB-[CG] |==|  0.37775
USER: genes 4 Torsion [CA]-CB--CG-[CD] |==|  0.23238
USER: genes 5 Torsion [CB]-CG--CD-[NE2] |==|  0.49195
USER: genes 6 Torsion [C]-CA--N-[C] |==|  0.69298
USER: genes 7 Torsion [N]-C--CA-[N] |==|  0.44429
USER: genes 8 Torsion [C]-CA--N-[C] |==|  0.72386
USER: genes 9 Torsion [N]-C--CA-[N] |==|  0.71837
USER: genes 10 Torsion [C]-CA--CB-[CG] |==|  0.27598
USER: genes 11 Torsion [CA]-CB--CG-[CD] |==|  0.60521
USER: genes 12 Torsion [CB]-CG--CD-[NE2] |==|  0.17806
USER: genes 13 Torsion [C]-N--CA-[CB] |==|  0.47294
USER: genes 14 Torsion [N]-CA--C-[N] |==|  0.48804
USER: genes 15 Torsion [C]-N--CA-[CB] |==|  0.50608
USER: genes 16 Torsion [N]-CA--C-[N] |==|  0.84003
USER: genes 17 Torsion [C]-N--CA-[C] |==|  0.62877
USER: genes 18 Torsion [N]-CA--C-[N] |==|  0.67645
USER: genes 19 Torsion [C]-N--CA-[C] |==|  0.82387
USER: genes 20 Torsion [N]-CA--C-[O] |==|  0.49518
USER: genes 21 Torsion [N]-CA--CB-[CG] |==|  0.76492
USER: genes 22 Torsion [CA]-CB--CG-[OD2] |==|  0.04979
USER: genes 23 Torsion [N]-CA--CB-[CG] |==|  0.12309
USER: genes 24 Torsion [CA]-CB--CG-[OD2] |==|  0.81230
USER: genes 25 Torsion [N]-CA--CB-[OG1] |==|  0.93189
USER: genes 26 Torsion [CA]-CB--OG1-[HG1] |==|  0.85770
ROOT
ATOM      1  C   GLN D 206     -21.933  12.968  27.416  1.00 23.02 LIG 0.24  C 
ATOM      2 O    GLN D 206     -22.810  13.830  27.453  1.00 23.21 LIG-0.27  OA
ATOM      3  N   ALA D 207     -21.165  12.752  26.350  1.00 22.72 LIG-0.35  N 
ATOM      4 H    ALA D 207     -20.529  12.173  26.330  1.00 22.72 LIG 0.16  HD
ENDROOT
BRANCH 1 5
ATOM      5  CA  GLN D 206     -21.656  12.082  28.619  1.00 22.90 LIG 0.18  C 
BRANCH 5 6
ATOM      6  CB  GLN D 206     -22.679  10.937  28.636  1.00 23.00 LIG 0.04  C 
BRANCH 6 7
ATOM      7  CG  GLN D 206     -22.096   9.556  28.940  1.00 22.87 LIG 0.10  C 
BRANCH 7 8
ATOM      8  CD  GLN D 206     -21.949   9.314  30.433  1.00 23.72 LIG 0.21  C 
ATOM      9  NE2 GLN D 206     -21.504   8.115  30.804  1.00 23.17 LIG-0.37  N 
ATOM     10 21HE GLN D 206     -21.319   7.523  30.209  1.00 23.17 LIG 0.16  HD
ATOM     11 22HE GLN D 206     -21.402   7.934  31.638  1.00 23.17 LIG 0.16  HD
ATOM     12 OE1  GLN D 206     -22.228  10.196  31.241  1.00 23.11 LIG-0.27  OA
ENDBRANCH 7 8
ENDBRANCH 6 7
ENDBRANCH 5 6
BRANCH 5 13
ATOM     13  N   GLN D 206     -21.668  12.787  29.893  1.00 22.83 LIG-0.35  N 
ATOM     14 H    GLN D 206     -22.445  13.061  30.140  1.00 22.83 LIG 0.16  HD
ATOM     15  C   GLN D 205     -20.557  12.978  30.596  1.00 23.49 LIG 0.24  C 
ATOM     16 O    GLN D 205     -19.445  12.605  30.217  1.00 22.46 LIG-0.27  OA
BRANCH 15 17
ATOM     17  CA  GLN D 205     -20.719  13.699  31.923  1.00 24.37 LIG 0.18  C 
BRANCH 17 18
ATOM     18  N   GLN D 205     -19.550  13.396  32.736  1.00 25.17 LIG-0.35  N 
ATOM     19 H    GLN D 205     -18.859  13.870  32.545  1.00 25.17 LIG 0.16  HD
ATOM     20  C   PRO D 204     -19.560  12.468  33.687  1.00 27.23 LIG 0.24  C 
ATOM     21 O    PRO D 204     -20.555  11.806  33.971  1.00 27.18 LIG-0.27  OA
BRANCH 20 22
ATOM     22  CA  PRO D 204     -18.240  12.237  34.421  1.00 28.49 LIG 0.18  C 
ATOM     23  N   PRO D 204     -17.560  11.038  33.924  1.00 30.00 LIG-0.34  N 
ATOM     24  CD  PRO D 204     -16.535  11.433  32.953  1.00 30.13 LIG 0.13  C 
ATOM     25  C   ACE D 203     -17.830   9.792  34.341  1.00 30.58 LIG 0.22  C 
ATOM     26  CG  PRO D 204     -15.965  12.611  33.651  1.00 30.43 LIG 0.02  C 
ATOM     27  CB  PRO D 204     -17.243  13.356  34.093  1.00 28.78 LIG 0.04  C 
ATOM     28  CH3 ACE D 203     -17.040   8.653  33.729  1.00 31.20 LIG 0.12  C 
ATOM     29 O    ACE D 203     -18.684   9.567  35.198  1.00 31.12 LIG-0.27  OA
ENDBRANCH 20 22
ENDBRANCH 17 18
BRANCH 17 30
ATOM     30  CB  GLN D 205     -20.846  15.202  31.690  1.00 24.72 LIG 0.04  C 
BRANCH 30 31
ATOM     31  CG  GLN D 205     -22.277  15.692  31.726  1.00 27.03 LIG 0.10  C 
BRANCH 31 32
ATOM     32  CD  GLN D 205     -22.549  16.771  30.702  1.00 28.11 LIG 0.21  C 
ATOM     33  NE2 GLN D 205     -22.436  16.417  29.429  1.00 29.45 LIG-0.37  N 
ATOM     34 21HE GLN D 205     -22.224  15.608  29.225  1.00 29.45 LIG 0.16  HD
ATOM     35 22HE GLN D 205     -22.574  16.996  28.807  1.00 29.45 LIG 0.16  HD
ATOM     36 OE1  GLN D 205     -22.849  17.913  31.049  1.00 29.17 LIG-0.27  OA
ENDBRANCH 31 32
ENDBRANCH 30 31
ENDBRANCH 17 30
ENDBRANCH 15 17
ENDBRANCH 5 13
ENDBRANCH 1 5
BRANCH 3 37
ATOM     37  CA  ALA D 207     -21.340  13.490  25.107  1.00 22.93 LIG 0.17  C 
ATOM     38  CB  ALA D 207     -20.184  13.201  24.170  1.00 22.72 LIG 0.04  C 
BRANCH 37 39
ATOM     39  C   ALA D 207     -22.659  12.990  24.504  1.00 23.32 LIG 0.24  C 
ATOM     40  N   THR D 208     -23.098  13.576  23.394  1.00 24.11 LIG-0.34  N 
ATOM     41 H    THR D 208     -22.683  14.201  22.975  1.00 24.11 LIG 0.16  HD
ATOM     42 O    ALA D 207     -23.267  12.066  25.042  1.00 22.54 LIG-0.27  OA
BRANCH 40 43
ATOM     43  CA  THR D 208     -24.369  13.168  22.799  1.00 25.74 LIG 0.20  C 
BRANCH 43 44
ATOM     44  C   THR D 208     -24.571  11.686  22.486  1.00 27.84 LIG 0.24  C 
ATOM     45  N   ASP D 209     -23.704  11.090  21.676  1.00 27.84 LIG-0.34  N 
ATOM     46 H    ASP D 209     -23.014  11.466  21.326  1.00 27.84 LIG 0.16  HD
ATOM     47 O    THR D 208     -25.518  11.080  22.989  1.00 27.83 LIG-0.27  OA
BRANCH 45 48
ATOM     48  CA  ASP D 209     -23.899   9.685  21.326  1.00 29.52 LIG 0.19  C 
BRANCH 48 49
ATOM     49  C   ASP D 209     -22.698   8.748  21.395  1.00 30.14 LIG 0.24  C 
ATOM     50 O    ASP D 209     -22.157   8.543  22.479  1.00 31.34 LIG-0.27  OA
ATOM     51  N   ASP D 210     -22.273   8.180  20.272  1.00 30.20 LIG-0.34  N 
ATOM     52 H    ASP D 210     -22.627   8.303  19.498  1.00 30.20 LIG 0.16  HD
BRANCH 51 53
ATOM     53  CA  ASP D 210     -21.126   7.270  20.289  1.00 30.95 LIG 0.20  C 
BRANCH 53 54
ATOM     54  C   ASP D 210     -19.820   7.941  20.718  1.00 31.44 LIG 0.20  C 
ATOM     55 O    ASP D 210     -18.791   7.239  20.795  1.00 30.73 LIG-0.65  OA
ATOM     56 OXT  ASP D 210     -19.838   9.165  20.966  1.00 31.53 LIG-0.65  OA
ENDBRANCH 53 54
BRANCH 53 57
ATOM     57  CB  ASP D 210     -20.949   6.616  18.913  1.00 31.88 LIG 0.15  C 
BRANCH 57 58
ATOM     58  CG  ASP D 210     -21.815   5.391  18.730  1.00 32.06 LIG 0.17  C 
ATOM     59 OD2  ASP D 210     -22.793   5.211  19.487  1.00 32.64 LIG-0.65  OA
ATOM     60 OD1  ASP D 210     -21.504   4.599  17.820  1.00 34.58 LIG-0.65  OA
ENDBRANCH 57 58
ENDBRANCH 53 57
ENDBRANCH 51 53
ENDBRANCH 48 49
BRANCH 48 61
ATOM     61  CB  ASP D 209     -24.484   9.577  19.917  1.00 29.28 LIG 0.15  C 
BRANCH 61 62
ATOM     62  CG  ASP D 209     -23.799  10.501  18.935  1.00 30.36 LIG 0.17  C 
ATOM     63 OD2  ASP D 209     -23.945  11.732  19.075  1.00 30.91 LIG-0.65  OA
ATOM     64 OD1  ASP D 209     -23.135   9.993  18.005  1.00 31.75 LIG-0.65  OA
ENDBRANCH 61 62
ENDBRANCH 48 61
ENDBRANCH 45 48
ENDBRANCH 43 44
BRANCH 43 65
ATOM     65  CB  THR D 208     -24.656  13.939  21.490  1.00 25.82 LIG 0.15  C 
ATOM     66  CG2 THR D 208     -26.147  14.207  21.339  1.00 25.57 LIG 0.04  C 
BRANCH 65 67
ATOM     67 OG1  THR D 208     -23.953  15.186  21.501  1.00 26.97 LIG-0.39  OA
ATOM     68 HG1  THR D 208     -24.117  15.593  22.217  1.00 26.97 LIG 0.21  HD
ENDBRANCH 65 67
ENDBRANCH 43 65
ENDBRANCH 40 43
ENDBRANCH 37 39
ENDBRANCH 3 37
TORSDOF 25
ENDMDL
MODEL 4
USER: ADFR SOLUTION from run 5
USER: SCORE 17.698425 LL:  -3.733 LR: -16.923 RR:   0.000 FEB:  -9.465
USER: RMSD 2.002227
USER: SEED 534464
USER: STATUS no improvement in best in 4 clusters for 5 generations
USER: GENES 27
USER: genes 0 Translation |==|  0.48797 0.56149 0.46504
USER: genes 1 Rotation |==|  0.45122 0.46811 0.52536 0.99594
USER: genes 2 Torsion [N]-C--CA-[N] |==|  0.41096
USER: genes 3 Torsion [C]-CA--CB-[CG] |==|  0.36285
USER: genes 4 Torsion [CA]-CB--CG-[CD] |==|  0.24132
USER: genes 5 Torsion [CB]-CG--CD-[NE2] |==|  0.48286
USER: genes 6 Torsion [C]-CA--N-[C] |==|  0.66347
USER: genes 7 Torsion [N]-C--CA-[N] |==|  0.47418
USER: genes 8 Torsion [C]-CA--N-[C] |==|  0.71960
USER: genes 9 Torsion [N]-C--CA-[N] |==|  0.75491
USER: genes 10 Torsion [C]-CA--CB-[CG] |==|  0.28102
USER: genes 11 Torsion [CA]-CB--CG-[CD] |==|  0.61274
USER: genes 12 Torsion [CB]-CG--CD-[NE2] |==|  0.16423
USER: genes 13 Torsion [C]-N--CA-[CB] |==|  0.47778
USER: genes 14 Torsion [N]-CA--C-[N] |==|  0.31867
USER: genes 15 Torsion [C]-N--CA-[CB] |==|  0.49909
USER: genes 16 Torsion [N]-CA--C-[N] |==|  0.84611
USER: genes 17 Torsion [C]-N--CA-[C] |==|  0.73654
USER: genes 18 Torsion [N]-CA--C-[N] |==|  0.13579
USER: genes 19 Torsion [C]-N--CA-[C] |==|  0.84601
USER: genes 20 Torsion [N]-CA--C-[O] |==|  0.82124
USER: genes 21 Torsion [N]-CA--CB-[CG] |==|  0.73613
USER: genes 22 Torsion [CA]-CB--CG-[OD2] |==|  0.78166
USER: genes 23 Torsion [N]-CA--CB-[CG] |==|  0.13870
USER: genes 24 Torsion [CA]-CB--CG-[OD2] |==|  0.56598
USER: genes 25 Torsion [N]-CA--CB-[OG1] |==|  0.20685
USER: genes 26 Torsion [CA]-CB--OG1-[HG1] |==|  0.82094
ROOT
ATOM      1  C   GLN D 206     -21.930  13.067  27.522  1.00 23.02 LIG 0.24  C 
ATOM      2 O    GLN D 206     -22.650  14.060  27.622  1.00 23.21 LIG-0.27  OA
ATOM      3  N   ALA D 207     -21.365  12.685  26.380  1.00 22.72 LIG-0.35  N 
ATOM      4 H    ALA D 207     -20.834  12.011  26.311  1.00 22.72 LIG 0.16  HD
ENDROOT
BRANCH 1 5
ATOM      5  CA  GLN D 206     -21.624  12.199  28.732  1.00 22.90 LIG 0.18  C 
BRANCH 5 6
ATOM      6  CB  GLN D 206     -22.660  11.070  28.807  1.00 23.00 LIG 0.04  C 
BRANCH 6 7
ATOM      7  CG  GLN D 206     -22.075   9.669  28.989  1.00 22.87 LIG 0.10  C 
BRANCH 7 8
ATOM      8  CD  GLN D 206     -21.852   9.328  30.453  1.00 23.72 LIG 0.21  C 
ATOM      9  NE2 GLN D 206     -21.465   8.084  30.725  1.00 23.17 LIG-0.37  N 
ATOM     10 21HE GLN D 206     -21.356   7.518  30.087  1.00 23.17 LIG 0.16  HD
ATOM     11 22HE GLN D 206     -21.323   7.847  31.539  1.00 23.17 LIG 0.16  HD
ATOM     12 OE1  GLN D 206     -22.022  10.176  31.326  1.00 23.11 LIG-0.27  OA
ENDBRANCH 7 8
ENDBRANCH 6 7
ENDBRANCH 5 6
BRANCH 5 13
ATOM     13  N   GLN D 206     -21.581  12.928  29.992  1.00 22.83 LIG-0.35  N 
ATOM     14 H    GLN D 206     -22.310  13.339  30.189  1.00 22.83 LIG 0.16  HD
ATOM     15  C   GLN D 205     -20.493  12.941  30.756  1.00 23.49 LIG 0.24  C 
ATOM     16 O    GLN D 205     -19.445  12.372  30.448  1.00 22.46 LIG-0.27  OA
BRANCH 15 17
ATOM     17  CA  GLN D 205     -20.599  13.713  32.059  1.00 24.37 LIG 0.18  C 
BRANCH 17 18
ATOM     18  N   GLN D 205     -19.405  13.425  32.841  1.00 25.17 LIG-0.35  N 
ATOM     19 H    GLN D 205     -18.710  13.868  32.594  1.00 25.17 LIG 0.16  HD
ATOM     20  C   PRO D 204     -19.400  12.555  33.845  1.00 27.23 LIG 0.24  C 
ATOM     21 O    PRO D 204     -20.398  11.939  34.208  1.00 27.18 LIG-0.27  OA
BRANCH 20 22
ATOM     22  CA  PRO D 204     -18.057  12.331  34.537  1.00 28.49 LIG 0.18  C 
ATOM     23  N   PRO D 204     -17.290  11.271  33.876  1.00 30.00 LIG-0.34  N 
ATOM     24  CD  PRO D 204     -16.312  11.879  32.968  1.00 30.13 LIG 0.13  C 
ATOM     25  C   ACE D 203     -17.456   9.961  34.115  1.00 30.58 LIG 0.22  C 
ATOM     26  CG  PRO D 204     -15.827  12.989  33.825  1.00 30.43 LIG 0.02  C 
ATOM     27  CB  PRO D 204     -17.156  13.560  34.369  1.00 28.78 LIG 0.04  C 
ATOM     28  CH3 ACE D 203     -16.586   8.986  33.347  1.00 31.20 LIG 0.12  C 
ATOM     29 O    ACE D 203     -18.279   9.551  34.932  1.00 31.12 LIG-0.27  OA
ENDBRANCH 20 22
ENDBRANCH 17 18
BRANCH 17 30
ATOM     30  CB  GLN D 205     -20.717  15.209  31.774  1.00 24.72 LIG 0.04  C 
BRANCH 30 31
ATOM     31  CG  GLN D 205     -22.133  15.727  31.885  1.00 27.03 LIG 0.10  C 
BRANCH 31 32
ATOM     32  CD  GLN D 205     -22.476  16.722  30.799  1.00 28.11 LIG 0.21  C 
ATOM     33  NE2 GLN D 205     -22.374  16.288  29.550  1.00 29.45 LIG-0.37  N 
ATOM     34 21HE GLN D 205     -22.130  15.477  29.395  1.00 29.45 LIG 0.16  HD
ATOM     35 22HE GLN D 205     -22.552  16.817  28.895  1.00 29.45 LIG 0.16  HD
ATOM     36 OE1  GLN D 205     -22.821  17.870  31.077  1.00 29.17 LIG-0.27  OA
ENDBRANCH 31 32
ENDBRANCH 30 31
ENDBRANCH 17 30
ENDBRANCH 15 17
ENDBRANCH 5 13
ENDBRANCH 1 5
BRANCH 3 37
ATOM     37  CA  ALA D 207     -21.600  13.389  25.126  1.00 22.93 LIG 0.17  C 
ATOM     38  CB  ALA D 207     -20.677  12.848  24.052  1.00 22.72 LIG 0.04  C 
BRANCH 37 39
ATOM     39  C   ALA D 207     -23.066  13.118  24.762  1.00 23.32 LIG 0.24  C 
ATOM     40  N   THR D 208     -23.905  14.150  24.751  1.00 24.11 LIG-0.34  N 
ATOM     41 H    THR D 208     -23.680  14.964  24.911  1.00 24.11 LIG 0.16  HD
ATOM     42 O    ALA D 207     -23.427  11.977  24.481  1.00 22.54 LIG-0.27  OA
BRANCH 40 43
ATOM     43  CA  THR D 208     -25.320  13.944  24.452  1.00 25.74 LIG 0.20  C 
BRANCH 43 44
ATOM     44  C   THR D 208     -25.683  13.271  23.130  1.00 27.84 LIG 0.24  C 
ATOM     45  N   ASP D 209     -25.223  13.805  22.004  1.00 27.84 LIG-0.34  N 
ATOM     46 H    ASP D 209     -24.710  14.494  21.957  1.00 27.84 LIG 0.16  HD
ATOM     47 O    THR D 208     -26.382  12.256  23.133  1.00 27.83 LIG-0.27  OA
BRANCH 45 48
ATOM     48  CA  ASP D 209     -25.591  13.206  20.723  1.00 29.52 LIG 0.19  C 
BRANCH 48 49
ATOM     49  C   ASP D 209     -24.637  12.193  20.097  1.00 30.14 LIG 0.24  C 
ATOM     50 O    ASP D 209     -24.322  12.315  18.916  1.00 31.34 LIG-0.27  OA
ATOM     51  N   ASP D 210     -24.177  11.205  20.856  1.00 30.20 LIG-0.34  N 
ATOM     52 H    ASP D 210     -24.380  11.089  21.684  1.00 30.20 LIG 0.16  HD
BRANCH 51 53
ATOM     53  CA  ASP D 210     -23.257  10.210  20.301  1.00 30.95 LIG 0.20  C 
BRANCH 53 54
ATOM     54  C   ASP D 210     -23.797   9.507  19.053  1.00 31.44 LIG 0.20  C 
ATOM     55 O    ASP D 210     -24.814   8.795  19.169  1.00 30.73 LIG-0.65  OA
ATOM     56 OXT  ASP D 210     -23.198   9.683  17.971  1.00 31.53 LIG-0.65  OA
ENDBRANCH 53 54
BRANCH 53 57
ATOM     57  CB  ASP D 210     -22.894   9.171  21.368  1.00 31.88 LIG 0.15  C 
BRANCH 57 58
ATOM     58  CG  ASP D 210     -21.605   9.495  22.088  1.00 32.06 LIG 0.17  C 
ATOM     59 OD2  ASP D 210     -20.512   9.248  21.533  1.00 32.64 LIG-0.65  OA
ATOM     60 OD1  ASP D 210     -21.693   9.996  23.225  1.00 34.58 LIG-0.65  OA
ENDBRANCH 57 58
ENDBRANCH 53 57
ENDBRANCH 51 53
ENDBRANCH 48 49
BRANCH 48 61
ATOM     61  CB  ASP D 209     -25.838  14.304  19.689  1.00 29.28 LIG 0.15  C 
BRANCH 61 62
ATOM     62  CG  ASP D 209     -24.712  15.312  19.635  1.00 30.36 LIG 0.17  C 
ATOM     63 OD2  ASP D 209     -24.957  16.456  19.201  1.00 30.91 LIG-0.65  OA
ATOM     64 OD1  ASP D 209     -23.573  14.950  20.003  1.00 31.75 LIG-0.65  OA
ENDBRANCH 61 62
ENDBRANCH 48 61
ENDBRANCH 45 48
ENDBRANCH 43 44
BRANCH 43 65
ATOM     65  CB  THR D 208     -26.110  15.273  24.502  1.00 25.82 LIG 0.15  C 
ATOM     66  CG2 THR D 208     -25.744  16.070  25.746  1.00 25.57 LIG 0.04  C 
BRANCH 65 67
ATOM     67 OG1  THR D 208     -25.813  16.053  23.339  1.00 26.97 LIG-0.39  OA
ATOM     68 HG1  THR D 208     -25.002  16.270  23.347  1.00 26.97 LIG 0.21  HD
ENDBRANCH 65 67
ENDBRANCH 43 65
ENDBRANCH 40 43
ENDBRANCH 37 39
ENDBRANCH 3 37
TORSDOF 25
ENDMDL
MODEL 5
USER: ADFR SOLUTION from run 147
USER: SCORE 17.793031 LL:  -3.808 LR: -16.826 RR:   0.000 FEB:  -9.369
USER: RMSD 2.866063
USER: SEED 146
USER: STATUS no improvement in best in 2 clusters for 5 generations
USER: GENES 27
USER: genes 0 Translation |==|  0.48339 0.55329 0.44223
USER: genes 1 Rotation |==|  0.44270 0.44478 0.51761 0.99331
USER: genes 2 Torsion [N]-C--CA-[N] |==|  0.40683
USER: genes 3 Torsion [C]-CA--CB-[CG] |==|  0.36686
USER: genes 4 Torsion [CA]-CB--CG-[CD] |==|  0.21633
USER: genes 5 Torsion [CB]-CG--CD-[NE2] |==|  0.46143
USER: genes 6 Torsion [C]-CA--N-[C] |==|  0.72767
USER: genes 7 Torsion [N]-C--CA-[N] |==|  0.43688
USER: genes 8 Torsion [C]-CA--N-[C] |==|  0.81658
USER: genes 9 Torsion [N]-C--CA-[N] |==|  0.32220
USER: genes 10 Torsion [C]-CA--CB-[CG] |==|  0.19318
USER: genes 11 Torsion [CA]-CB--CG-[CD] |==|  0.61024
USER: genes 12 Torsion [CB]-CG--CD-[NE2] |==|  0.23050
USER: genes 13 Torsion [C]-N--CA-[CB] |==|  0.46830
USER: genes 14 Torsion [N]-CA--C-[N] |==|  0.47703
USER: genes 15 Torsion [C]-N--CA-[CB] |==|  0.44298
USER: genes 16 Torsion [N]-CA--C-[N] |==|  0.77515
USER: genes 17 Torsion [C]-N--CA-[C] |==|  0.73464
USER: genes 18 Torsion [N]-CA--C-[N] |==|  0.22969
USER: genes 19 Torsion [C]-N--CA-[C] |==|  0.69283
USER: genes 20 Torsion [N]-CA--C-[O] |==|  0.44270
USER: genes 21 Torsion [N]-CA--CB-[CG] |==|  0.81838
USER: genes 22 Torsion [CA]-CB--CG-[OD2] |==|  0.77574
USER: genes 23 Torsion [N]-CA--CB-[CG] |==|  0.12130
USER: genes 24 Torsion [CA]-CB--CG-[OD2] |==|  0.26220
USER: genes 25 Torsion [N]-CA--CB-[OG1] |==|  0.02808
USER: genes 26 Torsion [CA]-CB--OG1-[HG1] |==|  0.73971
ROOT
ATOM      1  C   GLN D 206     -22.019  12.907  26.906  1.00 23.02 LIG 0.24  C 
ATOM      2 O    GLN D 206     -22.721  13.918  26.908  1.00 23.21 LIG-0.27  OA
ATOM      3  N   ALA D 207     -21.355  12.480  25.835  1.00 22.72 LIG-0.35  N 
ATOM      4 H    ALA D 207     -20.837  11.792  25.838  1.00 22.72 LIG 0.16  HD
ENDROOT
BRANCH 1 5
ATOM      5  CA  GLN D 206     -21.854  12.068  28.163  1.00 22.90 LIG 0.18  C 
BRANCH 5 6
ATOM      6  CB  GLN D 206     -22.944  10.988  28.185  1.00 23.00 LIG 0.04  C 
BRANCH 6 7
ATOM      7  CG  GLN D 206     -22.445   9.575  28.492  1.00 22.87 LIG 0.10  C 
BRANCH 7 8
ATOM      8  CD  GLN D 206     -22.177   9.374  29.974  1.00 23.72 LIG 0.21  C 
ATOM      9  NE2 GLN D 206     -22.017   8.118  30.387  1.00 23.17 LIG-0.37  N 
ATOM     10 21HE GLN D 206     -22.070   7.470  29.824  1.00 23.17 LIG 0.16  HD
ATOM     11 22HE GLN D 206     -21.860   7.955  31.217  1.00 23.17 LIG 0.16  HD
ATOM     12 OE1  GLN D 206     -22.110  10.335  30.735  1.00 23.11 LIG-0.27  OA
ENDBRANCH 7 8
ENDBRANCH 6 7
ENDBRANCH 5 6
BRANCH 5 13
ATOM     13  N   GLN D 206     -21.882  12.837  29.400  1.00 22.83 LIG-0.35  N 
ATOM     14 H    GLN D 206     -22.672  13.024  29.683  1.00 22.83 LIG 0.16  HD
ATOM     15  C   GLN D 205     -20.766  13.206  30.019  1.00 23.49 LIG 0.24  C 
ATOM     16 O    GLN D 205     -19.639  12.956  29.587  1.00 22.46 LIG-0.27  OA
BRANCH 15 17
ATOM     17  CA  GLN D 205     -20.942  13.974  31.317  1.00 24.37 LIG 0.18  C 
BRANCH 17 18
ATOM     18  N   GLN D 205     -19.721  13.814  32.095  1.00 25.17 LIG-0.35  N 
ATOM     19 H    GLN D 205     -19.279  14.544  32.204  1.00 25.17 LIG 0.16  HD
ATOM     20  C   PRO D 204     -19.335  12.643  32.588  1.00 27.23 LIG 0.24  C 
ATOM     21 O    PRO D 204     -19.980  11.608  32.446  1.00 27.18 LIG-0.27  OA
BRANCH 20 22
ATOM     22  CA  PRO D 204     -18.007  12.632  33.342  1.00 28.49 LIG 0.18  C 
ATOM     23  N   PRO D 204     -18.201  12.287  34.753  1.00 30.00 LIG-0.34  N 
ATOM     24  CD  PRO D 204     -17.909  10.863  34.945  1.00 30.13 LIG 0.13  C 
ATOM     25  C   ACE D 203     -18.555  13.168  35.701  1.00 30.58 LIG 0.22  C 
ATOM     26  CG  PRO D 204     -16.688  10.740  34.112  1.00 30.43 LIG 0.02  C 
ATOM     27  CB  PRO D 204     -17.112  11.495  32.833  1.00 28.78 LIG 0.04  C 
ATOM     28  CH3 ACE D 203     -18.719  12.655  37.118  1.00 31.20 LIG 0.12  C 
ATOM     29 O    ACE D 203     -18.736  14.357  35.445  1.00 31.12 LIG-0.27  OA
ENDBRANCH 20 22
ENDBRANCH 17 18
BRANCH 17 30
ATOM     30  CB  GLN D 205     -21.211  15.448  31.021  1.00 24.72 LIG 0.04  C 
BRANCH 30 31
ATOM     31  CG  GLN D 205     -22.567  15.693  30.397  1.00 27.03 LIG 0.10  C 
BRANCH 31 32
ATOM     32  CD  GLN D 205     -22.527  16.742  29.309  1.00 28.11 LIG 0.21  C 
ATOM     33  NE2 GLN D 205     -22.151  16.328  28.106  1.00 29.45 LIG-0.37  N 
ATOM     34 21HE GLN D 205     -21.954  15.500  27.978  1.00 29.45 LIG 0.16  HD
ATOM     35 22HE GLN D 205     -22.106  16.887  27.453  1.00 29.45 LIG 0.16  HD
ATOM     36 OE1  GLN D 205     -22.820  17.913  29.546  1.00 29.17 LIG-0.27  OA
ENDBRANCH 31 32
ENDBRANCH 30 31
ENDBRANCH 17 30
ENDBRANCH 15 17
ENDBRANCH 5 13
ENDBRANCH 1 5
BRANCH 3 37
ATOM     37  CA  ALA D 207     -21.449  13.151  24.546  1.00 22.93 LIG 0.17  C 
ATOM     38  CB  ALA D 207     -20.384  12.618  23.609  1.00 22.72 LIG 0.04  C 
BRANCH 37 39
ATOM     39  C   ALA D 207     -22.850  12.830  24.008  1.00 23.32 LIG 0.24  C 
ATOM     40  N   THR D 208     -23.256  13.464  22.912  1.00 24.11 LIG-0.34  N 
ATOM     41 H    THR D 208     -22.780  14.026  22.468  1.00 24.11 LIG 0.16  HD
ATOM     42 O    ALA D 207     -23.551  12.000  24.582  1.00 22.54 LIG-0.27  OA
BRANCH 40 43
ATOM     43  CA  THR D 208     -24.595  13.228  22.378  1.00 25.74 LIG 0.20  C 
BRANCH 43 44
ATOM     44  C   THR D 208     -24.842  11.932  21.608  1.00 27.84 LIG 0.24  C 
ATOM     45  N   ASP D 209     -24.470  11.876  20.334  1.00 27.84 LIG-0.34  N 
ATOM     46 H    ASP D 209     -24.075  12.509  19.906  1.00 27.84 LIG 0.16  HD
ATOM     47 O    THR D 208     -25.369  10.974  22.177  1.00 27.83 LIG-0.27  OA
BRANCH 45 48
ATOM     48  CA  ASP D 209     -24.734  10.664  19.562  1.00 29.52 LIG 0.19  C 
BRANCH 48 49
ATOM     49  C   ASP D 209     -23.623   9.625  19.444  1.00 30.14 LIG 0.24  C 
ATOM     50 O    ASP D 209     -22.911   9.618  18.444  1.00 31.34 LIG-0.27  OA
ATOM     51  N   ASP D 210     -23.463   8.755  20.435  1.00 30.20 LIG-0.34  N 
ATOM     52 H    ASP D 210     -23.945   8.731  21.147  1.00 30.20 LIG 0.16  HD
BRANCH 51 53
ATOM     53  CA  ASP D 210     -22.409   7.742  20.369  1.00 30.95 LIG 0.20  C 
BRANCH 53 54
ATOM     54  C   ASP D 210     -22.940   6.318  20.191  1.00 31.44 LIG 0.20  C 
ATOM     55 O    ASP D 210     -22.166   5.450  19.739  1.00 30.73 LIG-0.65  OA
ATOM     56 OXT  ASP D 210     -24.125   6.085  20.511  1.00 31.53 LIG-0.65  OA
ENDBRANCH 53 54
BRANCH 53 57
ATOM     57  CB  ASP D 210     -21.525   7.814  21.620  1.00 31.88 LIG 0.15  C 
BRANCH 57 58
ATOM     58  CG  ASP D 210     -20.749   9.108  21.716  1.00 32.06 LIG 0.17  C 
ATOM     59 OD2  ASP D 210     -19.694   9.243  21.057  1.00 32.64 LIG-0.65  OA
ATOM     60 OD1  ASP D 210     -21.200   9.993  22.466  1.00 34.58 LIG-0.65  OA
ENDBRANCH 57 58
ENDBRANCH 53 57
ENDBRANCH 51 53
ENDBRANCH 48 49
BRANCH 48 61
ATOM     61  CB  ASP D 209     -25.168  11.035  18.144  1.00 29.28 LIG 0.15  C 
BRANCH 61 62
ATOM     62  CG  ASP D 209     -24.320  12.138  17.551  1.00 30.36 LIG 0.17  C 
ATOM     63 OD2  ASP D 209     -23.344  11.822  16.841  1.00 30.91 LIG-0.65  OA
ATOM     64 OD1  ASP D 209     -24.615  13.323  17.818  1.00 31.75 LIG-0.65  OA
ENDBRANCH 61 62
ENDBRANCH 48 61
ENDBRANCH 45 48
ENDBRANCH 43 44
BRANCH 43 65
ATOM     65  CB  THR D 208     -25.051  14.383  21.456  1.00 25.82 LIG 0.15  C 
ATOM     66  CG2 THR D 208     -26.171  15.182  22.108  1.00 25.57 LIG 0.04  C 
BRANCH 65 67
ATOM     67 OG1  THR D 208     -23.945  15.253  21.192  1.00 26.97 LIG-0.39  OA
ATOM     68 HG1  THR D 208     -23.947  15.884  21.745  1.00 26.97 LIG 0.21  HD
ENDBRANCH 65 67
ENDBRANCH 43 65
ENDBRANCH 40 43
ENDBRANCH 37 39
ENDBRANCH 3 37
TORSDOF 25
ENDMDL
MODEL 6
USER: ADFR SOLUTION from run 159
USER: SCORE 17.238538 LL:  -3.376 LR: -16.534 RR:   0.000 FEB:  -9.077
USER: RMSD 3.262800
USER: SEED 158
USER: STATUS no improvement in best in 4 clusters for 5 generations
USER: GENES 27
USER: genes 0 Translation |==|  0.48568 0.53052 0.48930
USER: genes 1 Rotation |==|  0.51332 0.47033 0.52867 0.99812
USER: genes 2 Torsion [N]-C--CA-[N] |==|  0.37533
USER: genes 3 Torsion [C]-CA--CB-[CG] |==|  0.43599
USER: genes 4 Torsion [CA]-CB--CG-[CD] |==|  0.52050
USER: genes 5 Torsion [CB]-CG--CD-[NE2] |==|  0.44546
USER: genes 6 Torsion [C]-CA--N-[C] |==|  0.83544
USER: genes 7 Torsion [N]-C--CA-[N] |==|  0.32513
USER: genes 8 Torsion [C]-CA--N-[C] |==|  0.72724
USER: genes 9 Torsion [N]-C--CA-[N] |==|  0.24807
USER: genes 10 Torsion [C]-CA--CB-[CG] |==|  0.45403
USER: genes 11 Torsion [CA]-CB--CG-[CD] |==|  0.24087
USER: genes 12 Torsion [CB]-CG--CD-[NE2] |==|  0.07588
USER: genes 13 Torsion [C]-N--CA-[CB] |==|  0.42840
USER: genes 14 Torsion [N]-CA--C-[N] |==|  0.41657
USER: genes 15 Torsion [C]-N--CA-[CB] |==|  0.49447
USER: genes 16 Torsion [N]-CA--C-[N] |==|  0.99227
USER: genes 17 Torsion [C]-N--CA-[C] |==|  0.14484
USER: genes 18 Torsion [N]-CA--C-[N] |==|  0.12125
USER: genes 19 Torsion [C]-N--CA-[C] |==|  0.83360
USER: genes 20 Torsion [N]-CA--C-[O] |==|  0.95144
USER: genes 21 Torsion [N]-CA--CB-[CG] |==|  0.07383
USER: genes 22 Torsion [CA]-CB--CG-[OD2] |==|  0.30057
USER: genes 23 Torsion [N]-CA--CB-[CG] |==|  0.73771
USER: genes 24 Torsion [CA]-CB--CG-[OD2] |==|  0.11146
USER: genes 25 Torsion [N]-CA--CB-[OG1] |==|  0.17232
USER: genes 26 Torsion [CA]-CB--OG1-[HG1] |==|  0.74548
ROOT
ATOM      1  C   GLN D 206     -21.974  12.463  28.177  1.00 23.02 LIG 0.24  C 
ATOM      2 O    GLN D 206     -22.716  13.379  28.531  1.00 23.21 LIG-0.27  OA
ATOM      3  N   ALA D 207     -21.430  12.389  26.965  1.00 22.72 LIG-0.35  N 
ATOM      4 H    ALA D 207     -20.886  11.768  26.724  1.00 22.72 LIG 0.16  HD
ENDROOT
BRANCH 1 5
ATOM      5  CA  GLN D 206     -21.615  11.336  29.132  1.00 22.90 LIG 0.18  C 
BRANCH 5 6
ATOM      6  CB  GLN D 206     -22.783  10.342  29.187  1.00 23.00 LIG 0.04  C 
BRANCH 6 7
ATOM      7  CG  GLN D 206     -22.405   8.928  29.630  1.00 22.87 LIG 0.10  C 
BRANCH 7 8
ATOM      8  CD  GLN D 206     -23.565   7.956  29.491  1.00 23.72 LIG 0.21  C 
ATOM      9  NE2 GLN D 206     -23.259   6.661  29.455  1.00 23.17 LIG-0.37  N 
ATOM     10 21HE GLN D 206     -22.438   6.412  29.507  1.00 23.17 LIG 0.16  HD
ATOM     11 22HE GLN D 206     -23.883   6.074  29.380  1.00 23.17 LIG 0.16  HD
ATOM     12 OE1  GLN D 206     -24.721   8.366  29.420  1.00 23.11 LIG-0.27  OA
ENDBRANCH 7 8
ENDBRANCH 6 7
ENDBRANCH 5 6
BRANCH 5 13
ATOM     13  N   GLN D 206     -21.269  11.782  30.475  1.00 22.83 LIG-0.35  N 
ATOM     14 H    GLN D 206     -21.769  11.459  31.095  1.00 22.83 LIG 0.16  HD
ATOM     15  C   GLN D 205     -20.259  12.617  30.695  1.00 23.49 LIG 0.24  C 
ATOM     16 O    GLN D 205     -19.568  13.095  29.794  1.00 22.46 LIG-0.27  OA
BRANCH 15 17
ATOM     17  CA  GLN D 205     -19.988  12.971  32.147  1.00 24.37 LIG 0.18  C 
BRANCH 17 18
ATOM     18  N   GLN D 205     -18.656  12.485  32.479  1.00 25.17 LIG-0.35  N 
ATOM     19 H    GLN D 205     -18.021  13.010  32.231  1.00 25.17 LIG 0.16  HD
ATOM     20  C   PRO D 204     -18.451  11.333  33.108  1.00 27.23 LIG 0.24  C 
ATOM     21 O    PRO D 204     -19.361  10.596  33.476  1.00 27.18 LIG-0.27  OA
BRANCH 20 22
ATOM     22  CA  PRO D 204     -16.993  10.942  33.342  1.00 28.49 LIG 0.18  C 
ATOM     23  N   PRO D 204     -16.500  11.472  34.616  1.00 30.00 LIG-0.34  N 
ATOM     24  CD  PRO D 204     -16.570  10.420  35.635  1.00 30.13 LIG 0.13  C 
ATOM     25  C   ACE D 203     -16.030  12.718  34.782  1.00 30.58 LIG 0.22  C 
ATOM     26  CG  PRO D 204     -16.070   9.269  34.845  1.00 30.43 LIG 0.02  C 
ATOM     27  CB  PRO D 204     -16.870   9.425  33.534  1.00 28.78 LIG 0.04  C 
ATOM     28  CH3 ACE D 203     -15.558  13.119  36.165  1.00 31.20 LIG 0.12  C 
ATOM     29 O    ACE D 203     -15.972  13.518  33.849  1.00 31.12 LIG-0.27  OA
ENDBRANCH 20 22
ENDBRANCH 17 18
BRANCH 17 30
ATOM     30  CB  GLN D 205     -20.081  14.483  32.343  1.00 24.72 LIG 0.04  C 
BRANCH 30 31
ATOM     31  CG  GLN D 205     -20.220  14.889  33.793  1.00 27.03 LIG 0.10  C 
BRANCH 31 32
ATOM     32  CD  GLN D 205     -18.886  15.040  34.487  1.00 28.11 LIG 0.21  C 
ATOM     33  NE2 GLN D 205     -17.855  15.360  33.716  1.00 29.45 LIG-0.37  N 
ATOM     34 21HE GLN D 205     -17.969  15.478  32.871  1.00 29.45 LIG 0.16  HD
ATOM     35 22HE GLN D 205     -17.072  15.452  34.061  1.00 29.45 LIG 0.16  HD
ATOM     36 OE1  GLN D 205     -18.778  14.861  35.699  1.00 29.17 LIG-0.27  OA
ENDBRANCH 31 32
ENDBRANCH 30 31
ENDBRANCH 17 30
ENDBRANCH 15 17
ENDBRANCH 5 13
ENDBRANCH 1 5
BRANCH 3 37
ATOM     37  CA  ALA D 207     -21.716  13.369  25.926  1.00 22.93 LIG 0.17  C 
ATOM     38  CB  ALA D 207     -20.561  13.431  24.947  1.00 22.72 LIG 0.04  C 
BRANCH 37 39
ATOM     39  C   ALA D 207     -22.990  12.879  25.226  1.00 23.32 LIG 0.24  C 
ATOM     40  N   THR D 208     -23.802  13.791  24.700  1.00 24.11 LIG-0.34  N 
ATOM     41 H    THR D 208     -23.653  14.638  24.703  1.00 24.11 LIG 0.16  HD
ATOM     42 O    ALA D 207     -23.226  11.674  25.156  1.00 22.54 LIG-0.27  OA
BRANCH 40 43
ATOM     43  CA  THR D 208     -25.049  13.384  24.057  1.00 25.74 LIG 0.20  C 
BRANCH 43 44
ATOM     44  C   THR D 208     -24.966  12.410  22.883  1.00 27.84 LIG 0.24  C 
ATOM     45  N   ASP D 209     -23.765  12.025  22.467  1.00 27.84 LIG-0.34  N 
ATOM     46 H    ASP D 209     -23.019  12.263  22.824  1.00 27.84 LIG 0.16  HD
ATOM     47 O    THR D 208     -26.002  12.001  22.355  1.00 27.83 LIG-0.27  OA
BRANCH 45 48
ATOM     48  CA  ASP D 209     -23.656  11.129  21.319  1.00 29.52 LIG 0.19  C 
BRANCH 48 49
ATOM     49  C   ASP D 209     -24.380  11.511  20.032  1.00 30.14 LIG 0.24  C 
ATOM     50 O    ASP D 209     -25.002  10.650  19.414  1.00 31.34 LIG-0.27  OA
ATOM     51  N   ASP D 210     -24.313  12.771  19.619  1.00 30.20 LIG-0.34  N 
ATOM     52 H    ASP D 210     -23.886  13.397  20.026  1.00 30.20 LIG 0.16  HD
BRANCH 51 53
ATOM     53  CA  ASP D 210     -24.994  13.186  18.391  1.00 30.95 LIG 0.20  C 
BRANCH 53 54
ATOM     54  C   ASP D 210     -24.516  12.440  17.144  1.00 31.44 LIG 0.20  C 
ATOM     55 O    ASP D 210     -23.426  11.835  17.198  1.00 30.73 LIG-0.65  OA
ATOM     56 OXT  ASP D 210     -25.242  12.463  16.127  1.00 31.53 LIG-0.65  OA
ENDBRANCH 53 54
BRANCH 53 57
ATOM     57  CB  ASP D 210     -24.839  14.698  18.184  1.00 31.88 LIG 0.15  C 
BRANCH 57 58
ATOM     58  CG  ASP D 210     -23.592  15.254  18.833  1.00 32.06 LIG 0.17  C 
ATOM     59 OD2  ASP D 210     -22.635  15.618  18.114  1.00 32.64 LIG-0.65  OA
ATOM     60 OD1  ASP D 210     -23.572  15.319  20.076  1.00 34.58 LIG-0.65  OA
ENDBRANCH 57 58
ENDBRANCH 53 57
ENDBRANCH 51 53
ENDBRANCH 48 49
BRANCH 48 61
ATOM     61  CB  ASP D 209     -24.123   9.727  21.709  1.00 29.28 LIG 0.15  C 
BRANCH 61 62
ATOM     62  CG  ASP D 209     -22.977   8.835  22.135  1.00 30.36 LIG 0.17  C 
ATOM     63 OD2  ASP D 209     -22.070   9.326  22.837  1.00 30.91 LIG-0.65  OA
ATOM     64 OD1  ASP D 209     -22.971   7.648  21.743  1.00 31.75 LIG-0.65  OA
ENDBRANCH 61 62
ENDBRANCH 48 61
ENDBRANCH 45 48
ENDBRANCH 43 44
BRANCH 43 65
ATOM     65  CB  THR D 208     -25.858  14.606  23.561  1.00 25.82 LIG 0.15  C 
ATOM     66  CG2 THR D 208     -26.179  15.543  24.716  1.00 25.57 LIG 0.04  C 
BRANCH 65 67
ATOM     67 OG1  THR D 208     -25.100  15.316  22.576  1.00 26.97 LIG-0.39  OA
ATOM     68 HG1  THR D 208     -24.646  15.914  22.950  1.00 26.97 LIG 0.21  HD
ENDBRANCH 65 67
ENDBRANCH 43 65
ENDBRANCH 40 43
ENDBRANCH 37 39
ENDBRANCH 3 37
TORSDOF 25
ENDMDL
MODEL 7
USER: ADFR SOLUTION from run 159
USER: SCORE 17.151387 LL:  -3.243 LR: -16.210 RR:   0.000 FEB:  -8.752
USER: RMSD 3.499040
USER: SEED 158
USER: STATUS no improvement in best in 4 clusters for 5 generations
USER: GENES 27
USER: genes 0 Translation |==|  0.49308 0.54482 0.47829
USER: genes 1 Rotation |==|  0.48122 0.43360 0.56974 0.99028
USER: genes 2 Torsion [N]-C--CA-[N] |==|  0.38292
USER: genes 3 Torsion [C]-CA--CB-[CG] |==|  0.39098
USER: genes 4 Torsion [CA]-CB--CG-[CD] |==|  0.37953
USER: genes 5 Torsion [CB]-CG--CD-[NE2] |==|  0.37254
USER: genes 6 Torsion [C]-CA--N-[C] |==|  0.77370
USER: genes 7 Torsion [N]-C--CA-[N] |==|  0.36543
USER: genes 8 Torsion [C]-CA--N-[C] |==|  0.67350
USER: genes 9 Torsion [N]-C--CA-[N] |==|  0.76497
USER: genes 10 Torsion [C]-CA--CB-[CG] |==|  0.23922
USER: genes 11 Torsion [CA]-CB--CG-[CD] |==|  0.62174
USER: genes 12 Torsion [CB]-CG--CD-[NE2] |==|  0.19429
USER: genes 13 Torsion [C]-N--CA-[CB] |==|  0.47465
USER: genes 14 Torsion [N]-CA--C-[N] |==|  0.38344
USER: genes 15 Torsion [C]-N--CA-[CB] |==|  0.49444
USER: genes 16 Torsion [N]-CA--C-[N] |==|  0.00138
USER: genes 17 Torsion [C]-N--CA-[C] |==|  0.14697
USER: genes 18 Torsion [N]-CA--C-[N] |==|  0.11626
USER: genes 19 Torsion [C]-N--CA-[C] |==|  0.83056
USER: genes 20 Torsion [N]-CA--C-[O] |==|  0.94991
USER: genes 21 Torsion [N]-CA--CB-[CG] |==|  0.06996
USER: genes 22 Torsion [CA]-CB--CG-[OD2] |==|  0.30066
USER: genes 23 Torsion [N]-CA--CB-[CG] |==|  0.74521
USER: genes 24 Torsion [CA]-CB--CG-[OD2] |==|  0.11072
USER: genes 25 Torsion [N]-CA--CB-[OG1] |==|  0.17438
USER: genes 26 Torsion [CA]-CB--OG1-[HG1] |==|  0.74556
ROOT
ATOM      1  C   GLN D 206     -21.830  12.742  27.880  1.00 23.02 LIG 0.24  C 
ATOM      2 O    GLN D 206     -22.743  13.559  27.988  1.00 23.21 LIG-0.27  OA
ATOM      3  N   ALA D 207     -21.085  12.618  26.785  1.00 22.72 LIG-0.35  N 
ATOM      4 H    ALA D 207     -20.424  12.071  26.716  1.00 22.72 LIG 0.16  HD
ENDROOT
BRANCH 1 5
ATOM      5  CA  GLN D 206     -21.480  11.806  29.026  1.00 22.90 LIG 0.18  C 
BRANCH 5 6
ATOM      6  CB  GLN D 206     -22.445  10.612  29.002  1.00 23.00 LIG 0.04  C 
BRANCH 6 7
ATOM      7  CG  GLN D 206     -21.806   9.262  29.329  1.00 22.87 LIG 0.10  C 
BRANCH 7 8
ATOM      8  CD  GLN D 206     -22.667   8.436  30.270  1.00 23.72 LIG 0.21  C 
ATOM      9  NE2 GLN D 206     -22.839   7.154  29.953  1.00 23.17 LIG-0.37  N 
ATOM     10 21HE GLN D 206     -22.474   6.834  29.243  1.00 23.17 LIG 0.16  HD
ATOM     11 22HE GLN D 206     -23.316   6.647  30.458  1.00 23.17 LIG 0.16  HD
ATOM     12 OE1  GLN D 206     -23.165   8.943  31.272  1.00 23.11 LIG-0.27  OA
ENDBRANCH 7 8
ENDBRANCH 6 7
ENDBRANCH 5 6
BRANCH 5 13
ATOM     13  N   GLN D 206     -21.494  12.439  30.337  1.00 22.83 LIG-0.35  N 
ATOM     14 H    GLN D 206     -22.216  12.311  30.785  1.00 22.83 LIG 0.16  HD
ATOM     15  C   GLN D 205     -20.463  13.152  30.779  1.00 23.49 LIG 0.24  C 
ATOM     16 O    GLN D 205     -19.445  13.353  30.114  1.00 22.46 LIG-0.27  OA
BRANCH 15 17
ATOM     17  CA  GLN D 205     -20.597  13.727  32.178  1.00 24.37 LIG 0.18  C 
BRANCH 17 18
ATOM     18  N   GLN D 205     -19.375  13.412  32.905  1.00 25.17 LIG-0.35  N 
ATOM     19 H    GLN D 205     -18.667  13.765  32.568  1.00 25.17 LIG 0.16  HD
ATOM     20  C   PRO D 204     -19.366  12.648  33.992  1.00 27.23 LIG 0.24  C 
ATOM     21 O    PRO D 204     -20.382  12.161  34.481  1.00 27.18 LIG-0.27  OA
BRANCH 20 22
ATOM     22  CA  PRO D 204     -17.998  12.373  34.613  1.00 28.49 LIG 0.18  C 
ATOM     23  N   PRO D 204     -17.335  11.242  33.957  1.00 30.00 LIG-0.34  N 
ATOM     24  CD  PRO D 204     -16.382  11.751  32.966  1.00 30.13 LIG 0.13  C 
ATOM     25  C   ACE D 203     -17.560   9.956  34.266  1.00 30.58 LIG 0.22  C 
ATOM     26  CG  PRO D 204     -15.783  12.866  33.739  1.00 30.43 LIG 0.02  C 
ATOM     27  CB  PRO D 204     -17.040  13.539  34.334  1.00 28.78 LIG 0.04  C 
ATOM     28  CH3 ACE D 203     -16.797   8.898  33.495  1.00 31.20 LIG 0.12  C 
ATOM     29 O    ACE D 203     -18.353   9.631  35.149  1.00 31.12 LIG-0.27  OA
ENDBRANCH 20 22
ENDBRANCH 17 18
BRANCH 17 30
ATOM     30  CB  GLN D 205     -20.814  15.237  32.104  1.00 24.72 LIG 0.04  C 
BRANCH 30 31
ATOM     31  CG  GLN D 205     -22.266  15.624  31.932  1.00 27.03 LIG 0.10  C 
BRANCH 31 32
ATOM     32  CD  GLN D 205     -22.461  16.713  30.902  1.00 28.11 LIG 0.21  C 
ATOM     33  NE2 GLN D 205     -22.245  16.373  29.638  1.00 29.45 LIG-0.37  N 
ATOM     34 21HE GLN D 205     -22.015  15.567  29.443  1.00 29.45 LIG 0.16  HD
ATOM     35 22HE GLN D 205     -22.336  16.958  29.014  1.00 29.45 LIG 0.16  HD
ATOM     36 OE1  GLN D 205     -22.792  17.850  31.236  1.00 29.17 LIG-0.27  OA
ENDBRANCH 31 32
ENDBRANCH 30 31
ENDBRANCH 17 30
ENDBRANCH 15 17
ENDBRANCH 5 13
ENDBRANCH 1 5
BRANCH 3 37
ATOM     37  CA  ALA D 207     -21.328  13.413  25.588  1.00 22.93 LIG 0.17  C 
ATOM     38  CB  ALA D 207     -20.195  13.216  24.601  1.00 22.72 LIG 0.04  C 
BRANCH 37 39
ATOM     39  C   ALA D 207     -22.648  12.896  25.002  1.00 23.32 LIG 0.24  C 
ATOM     40  N   THR D 208     -23.518  13.791  24.543  1.00 24.11 LIG-0.34  N 
ATOM     41 H    THR D 208     -23.384  14.640  24.529  1.00 24.11 LIG 0.16  HD
ATOM     42 O    ALA D 207     -22.867  11.687  24.959  1.00 22.54 LIG-0.27  OA
BRANCH 40 43
ATOM     43  CA  THR D 208     -24.809  13.357  24.012  1.00 25.74 LIG 0.20  C 
BRANCH 43 44
ATOM     44  C   THR D 208     -24.810  12.377  22.840  1.00 27.84 LIG 0.24  C 
ATOM     45  N   ASP D 209     -23.641  11.959  22.368  1.00 27.84 LIG-0.34  N 
ATOM     46 H    ASP D 209     -22.872  12.179  22.686  1.00 27.84 LIG 0.16  HD
ATOM     47 O    THR D 208     -25.880  11.994  22.366  1.00 27.83 LIG-0.27  OA
BRANCH 45 48
ATOM     48  CA  ASP D 209     -23.612  11.056  21.220  1.00 29.52 LIG 0.19  C 
BRANCH 48 49
ATOM     49  C   ASP D 209     -24.374  11.460  19.962  1.00 30.14 LIG 0.24  C 
ATOM     50 O    ASP D 209     -25.025  10.614  19.355  1.00 31.34 LIG-0.27  OA
ATOM     51  N   ASP D 210     -24.307  12.725  19.561  1.00 30.20 LIG-0.34  N 
ATOM     52 H    ASP D 210     -23.860  13.341  19.961  1.00 30.20 LIG 0.16  HD
BRANCH 51 53
ATOM     53  CA  ASP D 210     -25.024  13.162  18.362  1.00 30.95 LIG 0.20  C 
BRANCH 53 54
ATOM     54  C   ASP D 210     -24.577  12.443  17.087  1.00 31.44 LIG 0.20  C 
ATOM     55 O    ASP D 210     -23.478  11.852  17.095  1.00 30.73 LIG-0.65  OA
ATOM     56 OXT  ASP D 210     -25.335  12.475  16.094  1.00 31.53 LIG-0.65  OA
ENDBRANCH 53 54
BRANCH 53 57
ATOM     57  CB  ASP D 210     -24.882  14.678  18.182  1.00 31.88 LIG 0.15  C 
BRANCH 57 58
ATOM     58  CG  ASP D 210     -23.637  15.233  18.836  1.00 32.06 LIG 0.17  C 
ATOM     59 OD2  ASP D 210     -22.686  15.618  18.121  1.00 32.64 LIG-0.65  OA
ATOM     60 OD1  ASP D 210     -23.613  15.274  20.081  1.00 34.58 LIG-0.65  OA
ENDBRANCH 57 58
ENDBRANCH 53 57
ENDBRANCH 51 53
ENDBRANCH 48 49
BRANCH 48 61
ATOM     61  CB  ASP D 209     -24.113   9.673  21.635  1.00 29.28 LIG 0.15  C 
BRANCH 61 62
ATOM     62  CG  ASP D 209     -22.991   8.762  22.080  1.00 30.36 LIG 0.17  C 
ATOM     63 OD2  ASP D 209     -22.070   9.245  22.770  1.00 30.91 LIG-0.65  OA
ATOM     64 OD1  ASP D 209     -23.016   7.567  21.714  1.00 31.75 LIG-0.65  OA
ENDBRANCH 61 62
ENDBRANCH 48 61
ENDBRANCH 45 48
ENDBRANCH 43 44
BRANCH 43 65
ATOM     65  CB  THR D 208     -25.679  14.562  23.581  1.00 25.82 LIG 0.15  C 
ATOM     66  CG2 THR D 208     -25.901  15.510  24.750  1.00 25.57 LIG 0.04  C 
BRANCH 65 67
ATOM     67 OG1  THR D 208     -25.029  15.268  22.519  1.00 26.97 LIG-0.39  OA
ATOM     68 HG1  THR D 208     -24.549  15.877  22.840  1.00 26.97 LIG 0.21  HD
ENDBRANCH 65 67
ENDBRANCH 43 65
ENDBRANCH 40 43
ENDBRANCH 37 39
ENDBRANCH 3 37
TORSDOF 25
ENDMDL
MODEL 8
USER: ADFR SOLUTION from run 6
USER: SCORE 17.486191 LL:  -3.482 LR: -16.117 RR:   0.000 FEB:  -8.659
USER: RMSD 2.461310
USER: SEED 781953
USER: STATUS searching
USER: GENES 27
USER: genes 0 Translation |==|  0.48947 0.55011 0.47613
USER: genes 1 Rotation |==|  0.45451 0.50453 0.49365 0.99787
USER: genes 2 Torsion [N]-C--CA-[N] |==|  0.44904
USER: genes 3 Torsion [C]-CA--CB-[CG] |==|  0.37890
USER: genes 4 Torsion [CA]-CB--CG-[CD] |==|  0.24884
USER: genes 5 Torsion [CB]-CG--CD-[NE2] |==|  0.54421
USER: genes 6 Torsion [C]-CA--N-[C] |==|  0.76319
USER: genes 7 Torsion [N]-C--CA-[N] |==|  0.37277
USER: genes 8 Torsion [C]-CA--N-[C] |==|  0.69144
USER: genes 9 Torsion [N]-C--CA-[N] |==|  0.75580
USER: genes 10 Torsion [C]-CA--CB-[CG] |==|  0.26132
USER: genes 11 Torsion [CA]-CB--CG-[CD] |==|  0.64277
USER: genes 12 Torsion [CB]-CG--CD-[NE2] |==|  0.18882
USER: genes 13 Torsion [C]-N--CA-[CB] |==|  0.49466
USER: genes 14 Torsion [N]-CA--C-[N] |==|  0.35092
USER: genes 15 Torsion [C]-N--CA-[CB] |==|  0.39046
USER: genes 16 Torsion [N]-CA--C-[N] |==|  0.89049
USER: genes 17 Torsion [C]-N--CA-[C] |==|  0.82798
USER: genes 18 Torsion [N]-CA--C-[N] |==|  0.93639
USER: genes 19 Torsion [C]-N--CA-[C] |==|  0.75916
USER: genes 20 Torsion [N]-CA--C-[O] |==|  0.96216
USER: genes 21 Torsion [N]-CA--CB-[CG] |==|  0.69088
USER: genes 22 Torsion [CA]-CB--CG-[OD2] |==|  0.08744
USER: genes 23 Torsion [N]-CA--CB-[CG] |==|  0.26831
USER: genes 24 Torsion [CA]-CB--CG-[OD2] |==|  0.85332
USER: genes 25 Torsion [N]-CA--CB-[OG1] |==|  0.22087
USER: genes 26 Torsion [CA]-CB--OG1-[HG1] |==|  0.90858
ROOT
ATOM      1  C   GLN D 206     -21.900  12.845  27.821  1.00 23.02 LIG 0.24  C 
ATOM      2 O    GLN D 206     -22.455  13.925  28.022  1.00 23.21 LIG-0.27  OA
ATOM      3  N   ALA D 207     -21.550  12.416  26.612  1.00 22.72 LIG-0.35  N 
ATOM      4 H    ALA D 207     -21.133  11.677  26.470  1.00 22.72 LIG 0.16  HD
ENDROOT
BRANCH 1 5
ATOM      5  CA  GLN D 206     -21.562  11.915  28.975  1.00 22.90 LIG 0.18  C 
BRANCH 5 6
ATOM      6  CB  GLN D 206     -22.546  10.736  28.966  1.00 23.00 LIG 0.04  C 
BRANCH 6 7
ATOM      7  CG  GLN D 206     -21.911   9.365  29.201  1.00 22.87 LIG 0.10  C 
BRANCH 7 8
ATOM      8  CD  GLN D 206     -21.855   9.006  30.676  1.00 23.72 LIG 0.21  C 
ATOM      9  NE2 GLN D 206     -21.044   8.008  31.019  1.00 23.17 LIG-0.37  N 
ATOM     10 21HE GLN D 206     -20.586   7.599  30.416  1.00 23.17 LIG 0.16  HD
ATOM     11 22HE GLN D 206     -20.977   7.771  31.843  1.00 23.17 LIG 0.16  HD
ATOM     12 OE1  GLN D 206     -22.530   9.623  31.497  1.00 23.11 LIG-0.27  OA
ENDBRANCH 7 8
ENDBRANCH 6 7
ENDBRANCH 5 6
BRANCH 5 13
ATOM     13  N   GLN D 206     -21.562  12.561  30.280  1.00 22.83 LIG-0.35  N 
ATOM     14 H    GLN D 206     -22.303  12.491  30.710  1.00 22.83 LIG 0.16  HD
ATOM     15  C   GLN D 205     -20.492  13.198  30.744  1.00 23.49 LIG 0.24  C 
ATOM     16 O    GLN D 205     -19.445  13.315  30.105  1.00 22.46 LIG-0.27  OA
BRANCH 15 17
ATOM     17  CA  GLN D 205     -20.619  13.797  32.134  1.00 24.37 LIG 0.18  C 
BRANCH 17 18
ATOM     18  N   GLN D 205     -19.414  13.451  32.876  1.00 25.17 LIG-0.35  N 
ATOM     19 H    GLN D 205     -18.705  13.846  32.592  1.00 25.17 LIG 0.16  HD
ATOM     20  C   PRO D 204     -19.421  12.602  33.897  1.00 27.23 LIG 0.24  C 
ATOM     21 O    PRO D 204     -20.440  12.055  34.311  1.00 27.18 LIG-0.27  OA
BRANCH 20 22
ATOM     22  CA  PRO D 204     -18.068  12.309  34.542  1.00 28.49 LIG 0.18  C 
ATOM     23  N   PRO D 204     -17.390  11.198  33.869  1.00 30.00 LIG-0.34  N 
ATOM     24  CD  PRO D 204     -16.414  11.735  32.916  1.00 30.13 LIG 0.13  C 
ATOM     25  C   ACE D 203     -17.622   9.903  34.135  1.00 30.58 LIG 0.22  C 
ATOM     26  CG  PRO D 204     -15.833  12.827  33.735  1.00 30.43 LIG 0.02  C 
ATOM     27  CB  PRO D 204     -17.104  13.482  34.319  1.00 28.78 LIG 0.04  C 
ATOM     28  CH3 ACE D 203     -16.840   8.868  33.351  1.00 31.20 LIG 0.12  C 
ATOM     29 O    ACE D 203     -18.435   9.553  34.989  1.00 31.12 LIG-0.27  OA
ENDBRANCH 20 22
ENDBRANCH 17 18
BRANCH 17 30
ATOM     30  CB  GLN D 205     -20.785  15.312  32.038  1.00 24.72 LIG 0.04  C 
BRANCH 30 31
ATOM     31  CG  GLN D 205     -22.231  15.755  32.040  1.00 27.03 LIG 0.10  C 
BRANCH 31 32
ATOM     32  CD  GLN D 205     -22.558  16.684  30.894  1.00 28.11 LIG 0.21  C 
ATOM     33  NE2 GLN D 205     -22.529  16.152  29.679  1.00 29.45 LIG-0.37  N 
ATOM     34 21HE GLN D 205     -22.339  15.319  29.579  1.00 29.45 LIG 0.16  HD
ATOM     35 22HE GLN D 205     -22.701  16.640  28.992  1.00 29.45 LIG 0.16  HD
ATOM     36 OE1  GLN D 205     -22.824  17.868  31.094  1.00 29.17 LIG-0.27  OA
ENDBRANCH 31 32
ENDBRANCH 30 31
ENDBRANCH 17 30
ENDBRANCH 15 17
ENDBRANCH 5 13
ENDBRANCH 1 5
BRANCH 3 37
ATOM     37  CA  ALA D 207     -21.847  13.175  25.404  1.00 22.93 LIG 0.17  C 
ATOM     38  CB  ALA D 207     -21.284  12.457  24.194  1.00 22.72 LIG 0.04  C 
BRANCH 37 39
ATOM     39  C   ALA D 207     -23.377  13.250  25.323  1.00 23.32 LIG 0.24  C 
ATOM     40  N   THR D 208     -23.936  14.450  25.201  1.00 24.11 LIG-0.34  N 
ATOM     41 H    THR D 208     -23.500  15.189  25.142  1.00 24.11 LIG 0.16  HD
ATOM     42 O    ALA D 207     -24.044  12.217  25.358  1.00 22.54 LIG-0.27  OA
BRANCH 40 43
ATOM     43  CA  THR D 208     -25.391  14.584  25.161  1.00 25.74 LIG 0.20  C 
BRANCH 43 44
ATOM     44  C   THR D 208     -26.066  14.658  23.792  1.00 27.84 LIG 0.24  C 
ATOM     45  N   ASP D 209     -25.470  15.357  22.832  1.00 27.84 LIG-0.34  N 
ATOM     46 H    ASP D 209     -24.713  15.758  22.910  1.00 27.84 LIG 0.16  HD
ATOM     47 O    THR D 208     -27.133  14.071  23.606  1.00 27.83 LIG-0.27  OA
BRANCH 45 48
ATOM     48  CA  ASP D 209     -26.116  15.479  21.528  1.00 29.52 LIG 0.19  C 
BRANCH 48 49
ATOM     49  C   ASP D 209     -26.362  14.209  20.720  1.00 30.14 LIG 0.24  C 
ATOM     50 O    ASP D 209     -27.242  14.202  19.863  1.00 31.34 LIG-0.27  OA
ATOM     51  N   ASP D 210     -25.610  13.143  20.972  1.00 30.20 LIG-0.34  N 
ATOM     52 H    ASP D 210     -24.988  13.113  21.566  1.00 30.20 LIG 0.16  HD
BRANCH 51 53
ATOM     53  CA  ASP D 210     -25.806  11.902  20.221  1.00 30.95 LIG 0.20  C 
BRANCH 53 54
ATOM     54  C   ASP D 210     -26.877  10.988  20.818  1.00 31.44 LIG 0.20  C 
ATOM     55 O    ASP D 210     -27.282  11.228  21.974  1.00 30.73 LIG-0.65  OA
ATOM     56 OXT  ASP D 210     -27.306  10.045  20.120  1.00 31.53 LIG-0.65  OA
ENDBRANCH 53 54
BRANCH 53 57
ATOM     57  CB  ASP D 210     -24.480  11.141  20.100  1.00 31.88 LIG 0.15  C 
BRANCH 57 58
ATOM     58  CG  ASP D 210     -23.945  11.113  18.687  1.00 32.06 LIG 0.17  C 
ATOM     59 OD2  ASP D 210     -24.175  12.077  17.924  1.00 32.64 LIG-0.65  OA
ATOM     60 OD1  ASP D 210     -23.295  10.110  18.339  1.00 34.58 LIG-0.65  OA
ENDBRANCH 57 58
ENDBRANCH 53 57
ENDBRANCH 51 53
ENDBRANCH 48 49
BRANCH 48 61
ATOM     61  CB  ASP D 209     -25.321  16.439  20.643  1.00 29.28 LIG 0.15  C 
BRANCH 61 62
ATOM     62  CG  ASP D 209     -24.369  15.716  19.716  1.00 30.36 LIG 0.17  C 
ATOM     63 OD2  ASP D 209     -23.570  14.893  20.206  1.00 30.91 LIG-0.65  OA
ATOM     64 OD1  ASP D 209     -24.403  15.992  18.497  1.00 31.75 LIG-0.65  OA
ENDBRANCH 61 62
ENDBRANCH 48 61
ENDBRANCH 45 48
ENDBRANCH 43 44
BRANCH 43 65
ATOM     65  CB  THR D 208     -25.869  15.822  25.956  1.00 25.82 LIG 0.15  C 
ATOM     66  CG2 THR D 208     -25.087  15.963  27.254  1.00 25.57 LIG 0.04  C 
BRANCH 65 67
ATOM     67 OG1  THR D 208     -25.687  17.002  25.166  1.00 26.97 LIG-0.39  OA
ATOM     68 HG1  THR D 208     -25.007  16.911  24.681  1.00 26.97 LIG 0.21  HD
ENDBRANCH 65 67
ENDBRANCH 43 65
ENDBRANCH 40 43
ENDBRANCH 37 39
ENDBRANCH 3 37
TORSDOF 25
ENDMDL
MODEL 9
USER: ADFR SOLUTION from run 136
USER: SCORE 17.088806 LL:  -3.123 LR: -16.101 RR:   0.000 FEB:  -8.644
USER: RMSD 2.492754
USER: SEED 135
USER: STATUS 1 or 2 clusters left
USER: GENES 27
USER: genes 0 Translation |==|  0.48875 0.53622 0.49418
USER: genes 1 Rotation |==|  0.51508 0.48710 0.51451 0.99940
USER: genes 2 Torsion [N]-C--CA-[N] |==|  0.39202
USER: genes 3 Torsion [C]-CA--CB-[CG] |==|  0.40677
USER: genes 4 Torsion [CA]-CB--CG-[CD] |==|  0.48424
USER: genes 5 Torsion [CB]-CG--CD-[NE2] |==|  0.46936
USER: genes 6 Torsion [C]-CA--N-[C] |==|  0.83246
USER: genes 7 Torsion [N]-C--CA-[N] |==|  0.32791
USER: genes 8 Torsion [C]-CA--N-[C] |==|  0.71828
USER: genes 9 Torsion [N]-C--CA-[N] |==|  0.24935
USER: genes 10 Torsion [C]-CA--CB-[CG] |==|  0.52963
USER: genes 11 Torsion [CA]-CB--CG-[CD] |==|  0.39157
USER: genes 12 Torsion [CB]-CG--CD-[NE2] |==|  0.77273
USER: genes 13 Torsion [C]-N--CA-[CB] |==|  0.48367
USER: genes 14 Torsion [N]-CA--C-[N] |==|  0.42246
USER: genes 15 Torsion [C]-N--CA-[CB] |==|  0.34447
USER: genes 16 Torsion [N]-CA--C-[N] |==|  0.90206
USER: genes 17 Torsion [C]-N--CA-[C] |==|  0.73984
USER: genes 18 Torsion [N]-CA--C-[N] |==|  0.35035
USER: genes 19 Torsion [C]-N--CA-[C] |==|  0.56166
USER: genes 20 Torsion [N]-CA--C-[O] |==|  0.22371
USER: genes 21 Torsion [N]-CA--CB-[CG] |==|  0.57675
USER: genes 22 Torsion [CA]-CB--CG-[OD2] |==|  0.00384
USER: genes 23 Torsion [N]-CA--CB-[CG] |==|  0.48764
USER: genes 24 Torsion [CA]-CB--CG-[OD2] |==|  0.65135
USER: genes 25 Torsion [N]-CA--CB-[OG1] |==|  0.14345
USER: genes 26 Torsion [CA]-CB--OG1-[HG1] |==|  0.94615
ROOT
ATOM      1  C   GLN D 206     -21.914  12.574  28.309  1.00 23.02 LIG 0.24  C 
ATOM      2 O    GLN D 206     -22.579  13.526  28.717  1.00 23.21 LIG-0.27  OA
ATOM      3  N   ALA D 207     -21.460  12.480  27.062  1.00 22.72 LIG-0.35  N 
ATOM      4 H    ALA D 207     -20.968  11.833  26.780  1.00 22.72 LIG 0.16  HD
ENDROOT
BRANCH 1 5
ATOM      5  CA  GLN D 206     -21.553  11.422  29.232  1.00 22.90 LIG 0.18  C 
BRANCH 5 6
ATOM      6  CB  GLN D 206     -22.711  10.414  29.244  1.00 23.00 LIG 0.04  C 
BRANCH 6 7
ATOM      7  CG  GLN D 206     -22.291   8.952  29.397  1.00 22.87 LIG 0.10  C 
BRANCH 7 8
ATOM      8  CD  GLN D 206     -23.487   8.026  29.540  1.00 23.72 LIG 0.21  C 
ATOM      9  NE2 GLN D 206     -23.247   6.720  29.452  1.00 23.17 LIG-0.37  N 
ATOM     10 21HE GLN D 206     -22.445   6.438  29.317  1.00 23.17 LIG 0.16  HD
ATOM     11 22HE GLN D 206     -23.892   6.157  29.530  1.00 23.17 LIG 0.16  HD
ATOM     12 OE1  GLN D 206     -24.612   8.481  29.732  1.00 23.11 LIG-0.27  OA
ENDBRANCH 7 8
ENDBRANCH 6 7
ENDBRANCH 5 6
BRANCH 5 13
ATOM     13  N   GLN D 206     -21.224  11.828  30.591  1.00 22.83 LIG-0.35  N 
ATOM     14 H    GLN D 206     -21.736  11.493  31.195  1.00 22.83 LIG 0.16  HD
ATOM     15  C   GLN D 205     -20.212  12.650  30.849  1.00 23.49 LIG 0.24  C 
ATOM     16 O    GLN D 205     -19.504  13.146  29.971  1.00 22.46 LIG-0.27  OA
BRANCH 15 17
ATOM     17  CA  GLN D 205     -19.960  12.963  32.313  1.00 24.37 LIG 0.18  C 
BRANCH 17 18
ATOM     18  N   GLN D 205     -18.627  12.480  32.645  1.00 25.17 LIG-0.35  N 
ATOM     19 H    GLN D 205     -17.992  12.997  32.382  1.00 25.17 LIG 0.16  HD
ATOM     20  C   PRO D 204     -18.421  11.341  33.298  1.00 27.23 LIG 0.24  C 
ATOM     21 O    PRO D 204     -19.330  10.615  33.689  1.00 27.18 LIG-0.27  OA
BRANCH 20 22
ATOM     22  CA  PRO D 204     -16.963  10.950  33.530  1.00 28.49 LIG 0.18  C 
ATOM     23  N   PRO D 204     -16.462  11.497  34.794  1.00 30.00 LIG-0.34  N 
ATOM     24  CD  PRO D 204     -16.528  10.459  35.828  1.00 30.13 LIG 0.13  C 
ATOM     25  C   ACE D 203     -15.988  12.744  34.939  1.00 30.58 LIG 0.22  C 
ATOM     26  CG  PRO D 204     -16.035   9.296  35.051  1.00 30.43 LIG 0.02  C 
ATOM     27  CB  PRO D 204     -16.842   9.435  33.742  1.00 28.78 LIG 0.04  C 
ATOM     28  CH3 ACE D 203     -15.507  13.163  36.314  1.00 31.20 LIG 0.12  C 
ATOM     29 O    ACE D 203     -15.933  13.530  33.995  1.00 31.12 LIG-0.27  OA
ENDBRANCH 20 22
ENDBRANCH 17 18
BRANCH 17 30
ATOM     30  CB  GLN D 205     -20.070  14.467  32.553  1.00 24.72 LIG 0.04  C 
BRANCH 30 31
ATOM     31  CG  GLN D 205     -19.584  14.890  33.922  1.00 27.03 LIG 0.10  C 
BRANCH 31 32
ATOM     32  CD  GLN D 205     -18.822  16.195  33.892  1.00 28.11 LIG 0.21  C 
ATOM     33  NE2 GLN D 205     -17.545  16.122  33.540  1.00 29.45 LIG-0.37  N 
ATOM     34 21HE GLN D 205     -17.197  15.362  33.337  1.00 29.45 LIG 0.16  HD
ATOM     35 22HE GLN D 205     -17.065  16.836  33.514  1.00 29.45 LIG 0.16  HD
ATOM     36 OE1  GLN D 205     -19.369  17.256  34.191  1.00 29.17 LIG-0.27  OA
ENDBRANCH 31 32
ENDBRANCH 30 31
ENDBRANCH 17 30
ENDBRANCH 15 17
ENDBRANCH 5 13
ENDBRANCH 1 5
BRANCH 3 37
ATOM     37  CA  ALA D 207     -21.763  13.483  26.049  1.00 22.93 LIG 0.17  C 
ATOM     38  CB  ALA D 207     -20.993  13.180  24.779  1.00 22.72 LIG 0.04  C 
BRANCH 37 39
ATOM     39  C   ALA D 207     -23.273  13.385  25.800  1.00 23.32 LIG 0.24  C 
ATOM     40  N   THR D 208     -23.909  14.480  25.392  1.00 24.11 LIG-0.34  N 
ATOM     41 H    THR D 208     -23.530  15.235  25.235  1.00 24.11 LIG 0.16  HD
ATOM     42 O    ALA D 207     -23.854  12.314  25.968  1.00 22.54 LIG-0.27  OA
BRANCH 40 43
ATOM     43  CA  THR D 208     -25.355  14.455  25.179  1.00 25.74 LIG 0.20  C 
BRANCH 43 44
ATOM     44  C   THR D 208     -25.871  14.594  23.748  1.00 27.84 LIG 0.24  C 
ATOM     45  N   ASP D 209     -25.207  15.387  22.913  1.00 27.84 LIG-0.34  N 
ATOM     46 H    ASP D 209     -24.488  15.816  23.106  1.00 27.84 LIG 0.16  HD
ATOM     47 O    THR D 208     -26.875  13.973  23.398  1.00 27.83 LIG-0.27  OA
BRANCH 45 48
ATOM     48  CA  ASP D 209     -25.704  15.571  21.552  1.00 29.52 LIG 0.19  C 
BRANCH 48 49
ATOM     49  C   ASP D 209     -25.153  14.671  20.452  1.00 30.14 LIG 0.24  C 
ATOM     50 O    ASP D 209     -23.937  14.598  20.288  1.00 31.34 LIG-0.27  OA
ATOM     51  N   ASP D 210     -26.011  13.991  19.701  1.00 30.20 LIG-0.34  N 
ATOM     52 H    ASP D 210     -26.867  14.022  19.787  1.00 30.20 LIG 0.16  HD
BRANCH 51 53
ATOM     53  CA  ASP D 210     -25.530  13.112  18.634  1.00 30.95 LIG 0.20  C 
BRANCH 53 54
ATOM     54  C   ASP D 210     -26.574  12.836  17.551  1.00 31.44 LIG 0.20  C 
ATOM     55 O    ASP D 210     -26.749  13.696  16.665  1.00 30.73 LIG-0.65  OA
ATOM     56 OXT  ASP D 210     -27.203  11.757  17.597  1.00 31.53 LIG-0.65  OA
ENDBRANCH 53 54
BRANCH 53 57
ATOM     57  CB  ASP D 210     -25.030  11.787  19.225  1.00 31.88 LIG 0.15  C 
BRANCH 57 58
ATOM     58  CG  ASP D 210     -23.962  11.133  18.379  1.00 32.06 LIG 0.17  C 
ATOM     59 OD2  ASP D 210     -23.570  11.702  17.336  1.00 32.64 LIG-0.65  OA
ATOM     60 OD1  ASP D 210     -23.519  10.035  18.762  1.00 34.58 LIG-0.65  OA
ENDBRANCH 57 58
ENDBRANCH 53 57
ENDBRANCH 51 53
ENDBRANCH 48 49
BRANCH 48 61
ATOM     61  CB  ASP D 209     -25.488  17.019  21.112  1.00 29.28 LIG 0.15  C 
BRANCH 61 62
ATOM     62  CG  ASP D 209     -25.885  17.250  19.671  1.00 30.36 LIG 0.17  C 
ATOM     63 OD2  ASP D 209     -25.045  17.751  18.896  1.00 30.91 LIG-0.65  OA
ATOM     64 OD1  ASP D 209     -27.048  16.955  19.320  1.00 31.75 LIG-0.65  OA
ENDBRANCH 61 62
ENDBRANCH 48 61
ENDBRANCH 45 48
ENDBRANCH 43 44
BRANCH 43 65
ATOM     65  CB  THR D 208     -26.070  15.543  26.014  1.00 25.82 LIG 0.15  C 
ATOM     66  CG2 THR D 208     -26.001  15.214  27.498  1.00 25.57 LIG 0.04  C 
BRANCH 65 67
ATOM     67 OG1  THR D 208     -25.450  16.812  25.784  1.00 26.97 LIG-0.39  OA
ATOM     68 HG1  THR D 208     -24.681  16.694  25.467  1.00 26.97 LIG 0.21  HD
ENDBRANCH 65 67
ENDBRANCH 43 65
ENDBRANCH 40 43
ENDBRANCH 37 39
ENDBRANCH 3 37
TORSDOF 25
ENDMDL
MODEL 10
USER: ADFR SOLUTION from run 135
USER: SCORE 17.324429 LL:  -3.811 LR: -15.849 RR:   0.000 FEB:  -8.392
USER: RMSD 2.201324
USER: SEED 134
USER: STATUS no improvement in best in 3 clusters for 5 generations
USER: GENES 27
USER: genes 0 Translation |==|  0.48880 0.55569 0.47467
USER: genes 1 Rotation |==|  0.47203 0.49935 0.49776 0.99921
USER: genes 2 Torsion [N]-C--CA-[N] |==|  0.43392
USER: genes 3 Torsion [C]-CA--CB-[CG] |==|  0.39521
USER: genes 4 Torsion [CA]-CB--CG-[CD] |==|  0.21540
USER: genes 5 Torsion [CB]-CG--CD-[NE2] |==|  0.51635
USER: genes 6 Torsion [C]-CA--N-[C] |==|  0.78230
USER: genes 7 Torsion [N]-C--CA-[N] |==|  0.36238
USER: genes 8 Torsion [C]-CA--N-[C] |==|  0.79394
USER: genes 9 Torsion [N]-C--CA-[N] |==|  0.40573
USER: genes 10 Torsion [C]-CA--CB-[CG] |==|  0.26038
USER: genes 11 Torsion [CA]-CB--CG-[CD] |==|  0.64186
USER: genes 12 Torsion [CB]-CG--CD-[NE2] |==|  0.18311
USER: genes 13 Torsion [C]-N--CA-[CB] |==|  0.45556
USER: genes 14 Torsion [N]-CA--C-[N] |==|  0.37116
USER: genes 15 Torsion [C]-N--CA-[CB] |==|  0.53505
USER: genes 16 Torsion [N]-CA--C-[N] |==|  0.84252
USER: genes 17 Torsion [C]-N--CA-[C] |==|  0.74655
USER: genes 18 Torsion [N]-CA--C-[N] |==|  0.91022
USER: genes 19 Torsion [C]-N--CA-[C] |==|  0.52481
USER: genes 20 Torsion [N]-CA--C-[O] |==|  0.13560
USER: genes 21 Torsion [N]-CA--CB-[CG] |==|  0.62846
USER: genes 22 Torsion [CA]-CB--CG-[OD2] |==|  0.97163
USER: genes 23 Torsion [N]-CA--CB-[CG] |==|  0.18760
USER: genes 24 Torsion [CA]-CB--CG-[OD2] |==|  0.28198
USER: genes 25 Torsion [N]-CA--CB-[OG1] |==|  0.16416
USER: genes 26 Torsion [CA]-CB--OG1-[HG1] |==|  0.73694
ROOT
ATOM      1  C   GLN D 206     -21.913  12.954  27.782  1.00 23.02 LIG 0.24  C 
ATOM      2 O    GLN D 206     -22.492  14.007  28.046  1.00 23.21 LIG-0.27  OA
ATOM      3  N   ALA D 207     -21.532  12.617  26.553  1.00 22.72 LIG-0.35  N 
ATOM      4 H    ALA D 207     -21.098  11.897  26.368  1.00 22.72 LIG 0.16  HD
ENDROOT
BRANCH 1 5
ATOM      5  CA  GLN D 206     -21.581  11.951  28.875  1.00 22.90 LIG 0.18  C 
BRANCH 5 6
ATOM      6  CB  GLN D 206     -22.626  10.826  28.850  1.00 23.00 LIG 0.04  C 
BRANCH 6 7
ATOM      7  CG  GLN D 206     -22.074   9.428  29.132  1.00 22.87 LIG 0.10  C 
BRANCH 7 8
ATOM      8  CD  GLN D 206     -21.817   9.204  30.612  1.00 23.72 LIG 0.21  C 
ATOM      9  NE2 GLN D 206     -21.222   8.061  30.950  1.00 23.17 LIG-0.37  N 
ATOM     10 21HE GLN D 206     -21.008   7.492  30.341  1.00 23.17 LIG 0.16  HD
ATOM     11 22HE GLN D 206     -21.053   7.891  31.775  1.00 23.17 LIG 0.16  HD
ATOM     12 OE1  GLN D 206     -22.144  10.050  31.441  1.00 23.11 LIG-0.27  OA
ENDBRANCH 7 8
ENDBRANCH 6 7
ENDBRANCH 5 6
BRANCH 5 13
ATOM     13  N   GLN D 206     -21.495  12.530  30.208  1.00 22.83 LIG-0.35  N 
ATOM     14 H    GLN D 206     -22.188  12.395  30.698  1.00 22.83 LIG 0.16  HD
ATOM     15  C   GLN D 205     -20.423  13.205  30.609  1.00 23.49 LIG 0.24  C 
ATOM     16 O    GLN D 205     -19.447  13.415  29.886  1.00 22.46 LIG-0.27  OA
BRANCH 15 17
ATOM     17  CA  GLN D 205     -20.453  13.724  32.036  1.00 24.37 LIG 0.18  C 
BRANCH 17 18
ATOM     18  N   GLN D 205     -19.204  13.335  32.675  1.00 25.17 LIG-0.35  N 
ATOM     19 H    GLN D 205     -18.649  13.983  32.781  1.00 25.17 LIG 0.16  HD
ATOM     20  C   PRO D 204     -18.954  12.087  33.056  1.00 27.23 LIG 0.24  C 
ATOM     21 O    PRO D 204     -19.756  11.168  32.920  1.00 27.18 LIG-0.27  OA
BRANCH 20 22
ATOM     22  CA  PRO D 204     -17.579  11.832  33.670  1.00 28.49 LIG 0.18  C 
ATOM     23  N   PRO D 204     -17.646  10.805  34.713  1.00 30.00 LIG-0.34  N 
ATOM     24  CD  PRO D 204     -17.235   9.516  34.149  1.00 30.13 LIG 0.13  C 
ATOM     25  C   ACE D 203     -17.997  11.047  35.986  1.00 30.58 LIG 0.22  C 
ATOM     26  CG  PRO D 204     -16.070   9.953  33.341  1.00 30.43 LIG 0.02  C 
ATOM     27  CB  PRO D 204     -16.638  11.203  32.633  1.00 28.78 LIG 0.04  C 
ATOM     28  CH3 ACE D 203     -18.022   9.877  36.949  1.00 31.20 LIG 0.12  C 
ATOM     29 O    ACE D 203     -18.285  12.178  36.374  1.00 31.12 LIG-0.27  OA
ENDBRANCH 20 22
ENDBRANCH 17 18
BRANCH 17 30
ATOM     30  CB  GLN D 205     -20.616  15.243  32.036  1.00 24.72 LIG 0.04  C 
BRANCH 30 31
ATOM     31  CG  GLN D 205     -22.057  15.688  32.152  1.00 27.03 LIG 0.10  C 
BRANCH 31 32
ATOM     32  CD  GLN D 205     -22.445  16.688  31.086  1.00 28.11 LIG 0.21  C 
ATOM     33  NE2 GLN D 205     -22.451  16.244  29.837  1.00 29.45 LIG-0.37  N 
ATOM     34 21HE GLN D 205     -22.247  15.424  29.670  1.00 29.45 LIG 0.16  HD
ATOM     35 22HE GLN D 205     -22.658  16.775  29.192  1.00 29.45 LIG 0.16  HD
ATOM     36 OE1  GLN D 205     -22.728  17.849  31.380  1.00 29.17 LIG-0.27  OA
ENDBRANCH 31 32
ENDBRANCH 30 31
ENDBRANCH 17 30
ENDBRANCH 15 17
ENDBRANCH 5 13
ENDBRANCH 1 5
BRANCH 3 37
ATOM     37  CA  ALA D 207     -21.820  13.454  25.395  1.00 22.93 LIG 0.17  C 
ATOM     38  CB  ALA D 207     -20.947  13.035  24.229  1.00 22.72 LIG 0.04  C 
BRANCH 37 39
ATOM     39  C   ALA D 207     -23.301  13.223  25.070  1.00 23.32 LIG 0.24  C 
ATOM     40  N   THR D 208     -24.059  14.290  24.834  1.00 24.11 LIG-0.34  N 
ATOM     41 H    THR D 208     -23.774  15.101  24.828  1.00 24.11 LIG 0.16  HD
ATOM     42 O    ALA D 207     -23.747  12.079  25.022  1.00 22.54 LIG-0.27  OA
BRANCH 40 43
ATOM     43  CA  THR D 208     -25.486  14.132  24.559  1.00 25.74 LIG 0.20  C 
BRANCH 43 44
ATOM     44  C   THR D 208     -25.914  13.014  23.610  1.00 27.84 LIG 0.24  C 
ATOM     45  N   ASP D 209     -25.398  12.995  22.386  1.00 27.84 LIG-0.34  N 
ATOM     46 H    ASP D 209     -24.817  13.553  22.085  1.00 27.84 LIG 0.16  HD
ATOM     47 O    THR D 208     -26.714  12.160  23.994  1.00 27.83 LIG-0.27  OA
BRANCH 45 48
ATOM     48  CA  ASP D 209     -25.823  11.962  21.444  1.00 29.52 LIG 0.19  C 
BRANCH 48 49
ATOM     49  C   ASP D 209     -25.028  10.662  21.387  1.00 30.14 LIG 0.24  C 
ATOM     50 O    ASP D 209     -25.609   9.613  21.122  1.00 31.34 LIG-0.27  OA
ATOM     51  N   ASP D 210     -23.722  10.709  21.628  1.00 30.20 LIG-0.34  N 
ATOM     52 H    ASP D 210     -23.286  11.425  21.818  1.00 30.20 LIG 0.16  HD
BRANCH 51 53
ATOM     53  CA  ASP D 210     -22.915   9.489  21.581  1.00 30.95 LIG 0.20  C 
BRANCH 53 54
ATOM     54  C   ASP D 210     -21.486   9.681  22.091  1.00 31.44 LIG 0.20  C 
ATOM     55 O    ASP D 210     -21.320  10.260  23.183  1.00 30.73 LIG-0.65  OA
ATOM     56 OXT  ASP D 210     -20.546   9.243  21.393  1.00 31.53 LIG-0.65  OA
ENDBRANCH 53 54
BRANCH 53 57
ATOM     57  CB  ASP D 210     -22.888   8.926  20.155  1.00 31.88 LIG 0.15  C 
BRANCH 57 58
ATOM     58  CG  ASP D 210     -23.137   7.436  20.107  1.00 32.06 LIG 0.17  C 
ATOM     59 OD2  ASP D 210     -23.143   6.779  21.171  1.00 32.64 LIG-0.65  OA
ATOM     60 OD1  ASP D 210     -23.320   6.920  18.988  1.00 34.58 LIG-0.65  OA
ENDBRANCH 57 58
ENDBRANCH 53 57
ENDBRANCH 51 53
ENDBRANCH 48 49
BRANCH 48 61
ATOM     61  CB  ASP D 209     -25.867  12.536  20.028  1.00 29.28 LIG 0.15  C 
BRANCH 61 62
ATOM     62  CG  ASP D 209     -24.492  12.882  19.503  1.00 30.36 LIG 0.17  C 
ATOM     63 OD2  ASP D 209     -23.945  12.096  18.703  1.00 30.91 LIG-0.65  OA
ATOM     64 OD1  ASP D 209     -23.945  13.929  19.912  1.00 31.75 LIG-0.65  OA
ENDBRANCH 61 62
ENDBRANCH 48 61
ENDBRANCH 45 48
ENDBRANCH 43 44
BRANCH 43 65
ATOM     65  CB  THR D 208     -26.106  15.438  24.010  1.00 25.82 LIG 0.15  C 
ATOM     66  CG2 THR D 208     -25.980  16.563  25.028  1.00 25.57 LIG 0.04  C 
BRANCH 65 67
ATOM     67 OG1  THR D 208     -25.437  15.819  22.803  1.00 26.97 LIG-0.39  OA
ATOM     68 HG1  THR D 208     -24.827  16.368  22.982  1.00 26.97 LIG 0.21  HD
ENDBRANCH 65 67
ENDBRANCH 43 65
ENDBRANCH 40 43
ENDBRANCH 37 39
ENDBRANCH 3 37
TORSDOF 25
ENDMDL
MODEL 11
USER: ADFR SOLUTION from run 29
USER: SCORE 17.552203 LL:  -3.746 LR: -15.844 RR:   0.000 FEB:  -8.387
USER: RMSD 4.686968
USER: SEED 28
USER: STATUS no improvement in best in 8 clusters for 5 generations
USER: GENES 27
USER: genes 0 Translation |==|  0.48294 0.55271 0.48706
USER: genes 1 Rotation |==|  0.46717 0.44645 0.54794 0.99372
USER: genes 2 Torsion [N]-C--CA-[N] |==|  0.37164
USER: genes 3 Torsion [C]-CA--CB-[CG] |==|  0.35613
USER: genes 4 Torsion [CA]-CB--CG-[CD] |==|  0.23762
USER: genes 5 Torsion [CB]-CG--CD-[NE2] |==|  0.56384
USER: genes 6 Torsion [C]-CA--N-[C] |==|  0.78321
USER: genes 7 Torsion [N]-C--CA-[N] |==|  0.87511
USER: genes 8 Torsion [C]-CA--N-[C] |==|  0.84025
USER: genes 9 Torsion [N]-C--CA-[N] |==|  0.63101
USER: genes 10 Torsion [C]-CA--CB-[CG] |==|  0.27062
USER: genes 11 Torsion [CA]-CB--CG-[CD] |==|  0.69066
USER: genes 12 Torsion [CB]-CG--CD-[NE2] |==|  0.29365
USER: genes 13 Torsion [C]-N--CA-[CB] |==|  0.49038
USER: genes 14 Torsion [N]-CA--C-[N] |==|  0.32872
USER: genes 15 Torsion [C]-N--CA-[CB] |==|  0.53889
USER: genes 16 Torsion [N]-CA--C-[N] |==|  0.88104
USER: genes 17 Torsion [C]-N--CA-[C] |==|  0.64899
USER: genes 18 Torsion [N]-CA--C-[N] |==|  0.41577
USER: genes 19 Torsion [C]-N--CA-[C] |==|  0.57388
USER: genes 20 Torsion [N]-CA--C-[O] |==|  0.90786
USER: genes 21 Torsion [N]-CA--CB-[CG] |==|  0.73259
USER: genes 22 Torsion [CA]-CB--CG-[OD2] |==|  0.78076
USER: genes 23 Torsion [N]-CA--CB-[CG] |==|  0.23821
USER: genes 24 Torsion [CA]-CB--CG-[OD2] |==|  0.28901
USER: genes 25 Torsion [N]-CA--CB-[OG1] |==|  0.20058
USER: genes 26 Torsion [CA]-CB--OG1-[HG1] |==|  0.76454
ROOT
ATOM      1  C   GLN D 206     -22.028  12.896  28.117  1.00 23.02 LIG 0.24  C 
ATOM      2 O    GLN D 206     -22.853  13.803  28.217  1.00 23.21 LIG-0.27  OA
ATOM      3  N   ALA D 207     -21.346  12.647  27.001  1.00 22.72 LIG-0.35  N 
ATOM      4 H    ALA D 207     -20.745  12.035  26.936  1.00 22.72 LIG 0.16  HD
ENDROOT
BRANCH 1 5
ATOM      5  CA  GLN D 206     -21.719  11.986  29.295  1.00 22.90 LIG 0.18  C 
BRANCH 5 6
ATOM      6  CB  GLN D 206     -22.848  10.955  29.434  1.00 23.00 LIG 0.04  C 
BRANCH 6 7
ATOM      7  CG  GLN D 206     -22.385   9.499  29.505  1.00 22.87 LIG 0.10  C 
BRANCH 7 8
ATOM      8  CD  GLN D 206     -22.023   9.083  30.920  1.00 23.72 LIG 0.21  C 
ATOM      9  NE2 GLN D 206     -21.190   8.052  31.047  1.00 23.17 LIG-0.37  N 
ATOM     10 21HE GLN D 206     -20.888   7.655  30.346  1.00 23.17 LIG 0.16  HD
ATOM     11 22HE GLN D 206     -20.955   7.783  31.828  1.00 23.17 LIG 0.16  HD
ATOM     12 OE1  GLN D 206     -22.483   9.685  31.887  1.00 23.11 LIG-0.27  OA
ENDBRANCH 7 8
ENDBRANCH 6 7
ENDBRANCH 5 6
BRANCH 5 13
ATOM     13  N   GLN D 206     -21.523  12.691  30.555  1.00 22.83 LIG-0.35  N 
ATOM     14 H    GLN D 206     -22.198  12.661  31.086  1.00 22.83 LIG 0.16  HD
ATOM     15  C   GLN D 205     -20.386  13.319  30.834  1.00 23.49 LIG 0.24  C 
ATOM     16 O    GLN D 205     -19.436  13.378  30.051  1.00 22.46 LIG-0.27  OA
BRANCH 15 17
ATOM     17  CA  GLN D 205     -20.304  13.982  32.198  1.00 24.37 LIG 0.18  C 
BRANCH 17 18
ATOM     18  N   GLN D 205     -21.554  14.697  32.417  1.00 25.17 LIG-0.35  N 
ATOM     19 H    GLN D 205     -21.975  14.454  33.126  1.00 25.17 LIG 0.16  HD
ATOM     20  C   PRO D 204     -21.995  15.637  31.589  1.00 27.23 LIG 0.24  C 
ATOM     21 O    PRO D 204     -21.382  15.994  30.587  1.00 27.18 LIG-0.27  OA
BRANCH 20 22
ATOM     22  CA  PRO D 204     -23.347  16.261  31.933  1.00 28.49 LIG 0.18  C 
ATOM     23  N   PRO D 204     -24.217  16.324  30.756  1.00 30.00 LIG-0.34  N 
ATOM     24  CD  PRO D 204     -25.142  15.187  30.779  1.00 30.13 LIG 0.13  C 
ATOM     25  C   ACE D 203     -24.174  17.304  29.840  1.00 30.58 LIG 0.22  C 
ATOM     26  CG  PRO D 204     -25.511  15.188  32.216  1.00 30.43 LIG 0.02  C 
ATOM     27  CB  PRO D 204     -24.129  15.349  32.887  1.00 28.78 LIG 0.04  C 
ATOM     28  CH3 ACE D 203     -25.140  17.227  28.675  1.00 31.20 LIG 0.12  C 
ATOM     29 O    ACE D 203     -23.386  18.244  29.933  1.00 31.12 LIG-0.27  OA
ENDBRANCH 20 22
ENDBRANCH 17 18
BRANCH 17 30
ATOM     30  CB  GLN D 205     -20.081  12.929  33.280  1.00 24.72 LIG 0.04  C 
BRANCH 30 31
ATOM     31  CG  GLN D 205     -18.630  12.783  33.681  1.00 27.03 LIG 0.10  C 
BRANCH 31 32
ATOM     32  CD  GLN D 205     -18.038  11.459  33.253  1.00 28.11 LIG 0.21  C 
ATOM     33  NE2 GLN D 205     -17.204  11.493  32.222  1.00 29.45 LIG-0.37  N 
ATOM     34 21HE GLN D 205     -17.023  12.243  31.841  1.00 29.45 LIG 0.16  HD
ATOM     35 22HE GLN D 205     -16.845  10.766  31.935  1.00 29.45 LIG 0.16  HD
ATOM     36 OE1  GLN D 205     -18.332  10.416  33.835  1.00 29.17 LIG-0.27  OA
ENDBRANCH 31 32
ENDBRANCH 30 31
ENDBRANCH 17 30
ENDBRANCH 15 17
ENDBRANCH 5 13
ENDBRANCH 1 5
BRANCH 3 37
ATOM     37  CA  ALA D 207     -21.564  13.403  25.775  1.00 22.93 LIG 0.17  C 
ATOM     38  CB  ALA D 207     -20.586  12.949  24.710  1.00 22.72 LIG 0.04  C 
BRANCH 37 39
ATOM     39  C   ALA D 207     -23.006  13.101  25.347  1.00 23.32 LIG 0.24  C 
ATOM     40  N   THR D 208     -23.862  14.116  25.285  1.00 24.11 LIG-0.34  N 
ATOM     41 H    THR D 208     -23.661  14.936  25.446  1.00 24.11 LIG 0.16  HD
ATOM     42 O    ALA D 207     -23.331  11.950  25.062  1.00 22.54 LIG-0.27  OA
BRANCH 40 43
ATOM     43  CA  THR D 208     -25.258  13.880  24.923  1.00 25.74 LIG 0.20  C 
BRANCH 43 44
ATOM     44  C   THR D 208     -25.548  12.907  23.781  1.00 27.84 LIG 0.24  C 
ATOM     45  N   ASP D 209     -24.793  12.973  22.691  1.00 27.84 LIG-0.34  N 
ATOM     46 H    ASP D 209     -24.129  13.509  22.580  1.00 27.84 LIG 0.16  HD
ATOM     47 O    THR D 208     -26.461  12.087  23.895  1.00 27.83 LIG-0.27  OA
BRANCH 45 48
ATOM     48  CA  ASP D 209     -25.076  12.084  21.567  1.00 29.52 LIG 0.19  C 
BRANCH 48 49
ATOM     49  C   ASP D 209     -23.943  11.221  21.022  1.00 30.14 LIG 0.24  C 
ATOM     50 O    ASP D 209     -22.787  11.632  21.092  1.00 31.34 LIG-0.27  OA
ATOM     51  N   ASP D 210     -24.245  10.044  20.487  1.00 30.20 LIG-0.34  N 
ATOM     52 H    ASP D 210     -25.043   9.727  20.421  1.00 30.20 LIG 0.16  HD
BRANCH 51 53
ATOM     53  CA  ASP D 210     -23.192   9.178  19.954  1.00 30.95 LIG 0.20  C 
BRANCH 53 54
ATOM     54  C   ASP D 210     -23.675   8.235  18.850  1.00 31.44 LIG 0.20  C 
ATOM     55 O    ASP D 210     -24.843   7.801  18.912  1.00 30.73 LIG-0.65  OA
ATOM     56 OXT  ASP D 210     -22.880   7.946  17.930  1.00 31.53 LIG-0.65  OA
ENDBRANCH 53 54
BRANCH 53 57
ATOM     57  CB  ASP D 210     -22.549   8.368  21.086  1.00 31.88 LIG 0.15  C 
BRANCH 57 58
ATOM     58  CG  ASP D 210     -21.282   9.001  21.614  1.00 32.06 LIG 0.17  C 
ATOM     59 OD2  ASP D 210     -20.215   8.867  20.975  1.00 32.64 LIG-0.65  OA
ATOM     60 OD1  ASP D 210     -21.358   9.631  22.685  1.00 34.58 LIG-0.65  OA
ENDBRANCH 57 58
ENDBRANCH 53 57
ENDBRANCH 51 53
ENDBRANCH 48 49
BRANCH 48 61
ATOM     61  CB  ASP D 209     -25.643  12.889  20.398  1.00 29.28 LIG 0.15  C 
BRANCH 61 62
ATOM     62  CG  ASP D 209     -24.558  13.482  19.526  1.00 30.36 LIG 0.17  C 
ATOM     63 OD2  ASP D 209     -24.321  12.946  18.424  1.00 30.91 LIG-0.65  OA
ATOM     64 OD1  ASP D 209     -23.923  14.469  19.956  1.00 31.75 LIG-0.65  OA
ENDBRANCH 61 62
ENDBRANCH 48 61
ENDBRANCH 45 48
ENDBRANCH 43 44
BRANCH 43 65
ATOM     65  CB  THR D 208     -25.985  15.200  24.574  1.00 25.82 LIG 0.15  C 
ATOM     66  CG2 THR D 208     -25.725  16.256  25.638  1.00 25.57 LIG 0.04  C 
BRANCH 65 67
ATOM     67 OG1  THR D 208     -25.522  15.683  23.308  1.00 26.97 LIG-0.39  OA
ATOM     68 HG1  THR D 208     -24.820  16.130  23.419  1.00 26.97 LIG 0.21  HD
ENDBRANCH 65 67
ENDBRANCH 43 65
ENDBRANCH 40 43
ENDBRANCH 37 39
ENDBRANCH 3 37
TORSDOF 25
ENDMDL
MODEL 12
USER: ADFR SOLUTION from run 113
USER: SCORE 17.664658 LL:  -3.616 LR: -15.781 RR:   0.000 FEB:  -8.323
USER: RMSD 3.148789
USER: SEED 112
USER: STATUS searching
USER: GENES 27
USER: genes 0 Translation |==|  0.48746 0.53830 0.48375
USER: genes 1 Rotation |==|  0.50877 0.51359 0.50003 0.99974
USER: genes 2 Torsion [N]-C--CA-[N] |==|  0.41494
USER: genes 3 Torsion [C]-CA--CB-[CG] |==|  0.44755
USER: genes 4 Torsion [CA]-CB--CG-[CD] |==|  0.47728
USER: genes 5 Torsion [CB]-CG--CD-[NE2] |==|  0.43993
USER: genes 6 Torsion [C]-CA--N-[C] |==|  0.82031
USER: genes 7 Torsion [N]-C--CA-[N] |==|  0.33546
USER: genes 8 Torsion [C]-CA--N-[C] |==|  0.69646
USER: genes 9 Torsion [N]-C--CA-[N] |==|  0.28239
USER: genes 10 Torsion [C]-CA--CB-[CG] |==|  0.46486
USER: genes 11 Torsion [CA]-CB--CG-[CD] |==|  0.22275
USER: genes 12 Torsion [CB]-CG--CD-[NE2] |==|  0.10698
USER: genes 13 Torsion [C]-N--CA-[CB] |==|  0.48889
USER: genes 14 Torsion [N]-CA--C-[N] |==|  0.46027
USER: genes 15 Torsion [C]-N--CA-[CB] |==|  0.26661
USER: genes 16 Torsion [N]-CA--C-[N] |==|  0.85005
USER: genes 17 Torsion [C]-N--CA-[C] |==|  0.83364
USER: genes 18 Torsion [N]-CA--C-[N] |==|  0.91751
USER: genes 19 Torsion [C]-N--CA-[C] |==|  0.56779
USER: genes 20 Torsion [N]-CA--C-[O] |==|  0.99224
USER: genes 21 Torsion [N]-CA--CB-[CG] |==|  0.11992
USER: genes 22 Torsion [CA]-CB--CG-[OD2] |==|  0.27782
USER: genes 23 Torsion [N]-CA--CB-[CG] |==|  0.80301
USER: genes 24 Torsion [CA]-CB--CG-[OD2] |==|  0.83246
USER: genes 25 Torsion [N]-CA--CB-[OG1] |==|  0.12860
USER: genes 26 Torsion [CA]-CB--OG1-[HG1] |==|  0.94047
ROOT
ATOM      1  C   GLN D 206     -21.940  12.615  28.027  1.00 23.02 LIG 0.24  C 
ATOM      2 O    GLN D 206     -22.504  13.612  28.475  1.00 23.21 LIG-0.27  OA
ATOM      3  N   ALA D 207     -21.628  12.466  26.742  1.00 22.72 LIG-0.35  N 
ATOM      4 H    ALA D 207     -21.204  11.785  26.430  1.00 22.72 LIG 0.16  HD
ENDROOT
BRANCH 1 5
ATOM      5  CA  GLN D 206     -21.543  11.466  28.940  1.00 22.90 LIG 0.18  C 
BRANCH 5 6
ATOM      6  CB  GLN D 206     -22.669  10.423  28.941  1.00 23.00 LIG 0.04  C 
BRANCH 6 7
ATOM      7  CG  GLN D 206     -22.258   9.032  29.427  1.00 22.87 LIG 0.10  C 
BRANCH 7 8
ATOM      8  CD  GLN D 206     -23.453   8.108  29.591  1.00 23.72 LIG 0.21  C 
ATOM      9  NE2 GLN D 206     -23.205   6.800  29.571  1.00 23.17 LIG-0.37  N 
ATOM     10 21HE GLN D 206     -22.400   6.517  29.466  1.00 23.17 LIG 0.16  HD
ATOM     11 22HE GLN D 206     -23.850   6.239  29.664  1.00 23.17 LIG 0.16  HD
ATOM     12 OE1  GLN D 206     -24.583   8.566  29.739  1.00 23.11 LIG-0.27  OA
ENDBRANCH 7 8
ENDBRANCH 6 7
ENDBRANCH 5 6
BRANCH 5 13
ATOM     13  N   GLN D 206     -21.230  11.870  30.304  1.00 22.83 LIG-0.35  N 
ATOM     14 H    GLN D 206     -21.769  11.560  30.898  1.00 22.83 LIG 0.16  HD
ATOM     15  C   GLN D 205     -20.192  12.653  30.580  1.00 23.49 LIG 0.24  C 
ATOM     16 O    GLN D 205     -19.445  13.114  29.715  1.00 22.46 LIG-0.27  OA
BRANCH 15 17
ATOM     17  CA  GLN D 205     -19.962  12.968  32.047  1.00 24.37 LIG 0.18  C 
BRANCH 17 18
ATOM     18  N   GLN D 205     -18.631  12.493  32.398  1.00 25.17 LIG-0.35  N 
ATOM     19 H    GLN D 205     -17.993  12.955  32.053  1.00 25.17 LIG 0.16  HD
ATOM     20  C   PRO D 204     -18.430  11.439  33.181  1.00 27.23 LIG 0.24  C 
ATOM     21 O    PRO D 204     -19.344  10.793  33.688  1.00 27.18 LIG-0.27  OA
BRANCH 20 22
ATOM     22  CA  PRO D 204     -16.975  11.040  33.417  1.00 28.49 LIG 0.18  C 
ATOM     23  N   PRO D 204     -16.506  11.496  34.728  1.00 30.00 LIG-0.34  N 
ATOM     24  CD  PRO D 204     -16.588  10.386  35.682  1.00 30.13 LIG 0.13  C 
ATOM     25  C   ACE D 203     -16.043  12.731  34.973  1.00 30.58 LIG 0.22  C 
ATOM     26  CG  PRO D 204     -16.070   9.284  34.835  1.00 30.43 LIG 0.02  C 
ATOM     27  CB  PRO D 204     -16.849   9.514  33.521  1.00 28.78 LIG 0.04  C 
ATOM     28  CH3 ACE D 203     -15.595  13.053  36.385  1.00 31.20 LIG 0.12  C 
ATOM     29 O    ACE D 203     -15.973  13.585  34.090  1.00 31.12 LIG-0.27  OA
ENDBRANCH 20 22
ENDBRANCH 17 18
BRANCH 17 30
ATOM     30  CB  GLN D 205     -20.084  14.472  32.285  1.00 24.72 LIG 0.04  C 
BRANCH 30 31
ATOM     31  CG  GLN D 205     -20.171  14.839  33.750  1.00 27.03 LIG 0.10  C 
BRANCH 31 32
ATOM     32  CD  GLN D 205     -18.821  14.853  34.428  1.00 28.11 LIG 0.21  C 
ATOM     33  NE2 GLN D 205     -17.810  15.333  33.716  1.00 29.45 LIG-0.37  N 
ATOM     34 21HE GLN D 205     -17.945  15.620  32.917  1.00 29.45 LIG 0.16  HD
ATOM     35 22HE GLN D 205     -17.018  15.357  34.054  1.00 29.45 LIG 0.16  HD
ATOM     36 OE1  GLN D 205     -18.683  14.430  35.575  1.00 29.17 LIG-0.27  OA
ENDBRANCH 31 32
ENDBRANCH 30 31
ENDBRANCH 17 30
ENDBRANCH 15 17
ENDBRANCH 5 13
ENDBRANCH 1 5
BRANCH 3 37
ATOM     37  CA  ALA D 207     -21.983  13.460  25.738  1.00 22.93 LIG 0.17  C 
ATOM     38  CB  ALA D 207     -21.410  13.059  24.394  1.00 22.72 LIG 0.04  C 
BRANCH 37 39
ATOM     39  C   ALA D 207     -23.516  13.476  25.688  1.00 23.32 LIG 0.24  C 
ATOM     40  N   THR D 208     -24.108  14.492  25.068  1.00 24.11 LIG-0.34  N 
ATOM     41 H    THR D 208     -23.692  15.132  24.671  1.00 24.11 LIG 0.16  HD
ATOM     42 O    ALA D 207     -24.155  12.560  26.202  1.00 22.54 LIG-0.27  OA
BRANCH 40 43
ATOM     43  CA  THR D 208     -25.566  14.580  25.025  1.00 25.74 LIG 0.20  C 
BRANCH 43 44
ATOM     44  C   THR D 208     -26.218  15.051  23.726  1.00 27.84 LIG 0.24  C 
ATOM     45  N   ASP D 209     -25.820  16.206  23.204  1.00 27.84 LIG-0.34  N 
ATOM     46 H    ASP D 209     -25.201  16.708  23.527  1.00 27.84 LIG 0.16  HD
ATOM     47 O    THR D 208     -27.084  14.357  23.191  1.00 27.83 LIG-0.27  OA
BRANCH 45 48
ATOM     48  CA  ASP D 209     -26.458  16.700  21.986  1.00 29.52 LIG 0.19  C 
BRANCH 48 49
ATOM     49  C   ASP D 209     -26.382  15.840  20.729  1.00 30.14 LIG 0.24  C 
ATOM     50 O    ASP D 209     -27.290  15.899  19.904  1.00 31.34 LIG-0.27  OA
ATOM     51  N   ASP D 210     -25.327  15.049  20.567  1.00 30.20 LIG-0.34  N 
ATOM     52 H    ASP D 210     -24.676  14.982  21.125  1.00 30.20 LIG 0.16  HD
BRANCH 51 53
ATOM     53  CA  ASP D 210     -25.207  14.207  19.375  1.00 30.95 LIG 0.20  C 
BRANCH 53 54
ATOM     54  C   ASP D 210     -24.321  12.977  19.582  1.00 31.44 LIG 0.20  C 
ATOM     55 O    ASP D 210     -23.757  12.833  20.685  1.00 30.73 LIG-0.65  OA
ATOM     56 OXT  ASP D 210     -24.207  12.166  18.638  1.00 31.53 LIG-0.65  OA
ENDBRANCH 53 54
BRANCH 53 57
ATOM     57  CB  ASP D 210     -24.684  15.033  18.193  1.00 31.88 LIG 0.15  C 
BRANCH 57 58
ATOM     58  CG  ASP D 210     -23.550  15.955  18.578  1.00 32.06 LIG 0.17  C 
ATOM     59 OD2  ASP D 210     -22.372  15.618  18.328  1.00 32.64 LIG-0.65  OA
ATOM     60 OD1  ASP D 210     -23.846  17.024  19.144  1.00 34.58 LIG-0.65  OA
ENDBRANCH 57 58
ENDBRANCH 53 57
ENDBRANCH 51 53
ENDBRANCH 48 49
BRANCH 48 61
ATOM     61  CB  ASP D 209     -25.903  18.080  21.632  1.00 29.28 LIG 0.15  C 
BRANCH 61 62
ATOM     62  CG  ASP D 209     -26.369  19.153  22.592  1.00 30.36 LIG 0.17  C 
ATOM     63 OD2  ASP D 209     -27.593  19.367  22.696  1.00 30.91 LIG-0.65  OA
ATOM     64 OD1  ASP D 209     -25.506  19.801  23.222  1.00 31.75 LIG-0.65  OA
ENDBRANCH 61 62
ENDBRANCH 48 61
ENDBRANCH 45 48
ENDBRANCH 43 44
BRANCH 43 65
ATOM     65  CB  THR D 208     -26.113  15.491  26.149  1.00 25.82 LIG 0.15  C 
ATOM     66  CG2 THR D 208     -26.032  14.790  27.497  1.00 25.57 LIG 0.04  C 
BRANCH 65 67
ATOM     67 OG1  THR D 208     -25.350  16.702  26.201  1.00 26.97 LIG-0.39  OA
ATOM     68 HG1  THR D 208     -24.602  16.577  25.840  1.00 26.97 LIG 0.21  HD
ENDBRANCH 65 67
ENDBRANCH 43 65
ENDBRANCH 40 43
ENDBRANCH 37 39
ENDBRANCH 3 37
TORSDOF 25
ENDMDL
MODEL 13
USER: ADFR SOLUTION from run 119
USER: SCORE 17.007354 LL:  -3.635 LR: -15.672 RR:   0.000 FEB:  -8.214
USER: RMSD 3.296128
USER: SEED 118
USER: STATUS no improvement in best in 4 clusters for 5 generations
USER: GENES 27
USER: genes 0 Translation |==|  0.48293 0.54739 0.46308
USER: genes 1 Rotation |==|  0.45250 0.52713 0.47476 0.99636
USER: genes 2 Torsion [N]-C--CA-[N] |==|  0.46108
USER: genes 3 Torsion [C]-CA--CB-[CG] |==|  0.40186
USER: genes 4 Torsion [CA]-CB--CG-[CD] |==|  0.21424
USER: genes 5 Torsion [CB]-CG--CD-[NE2] |==|  0.51585
USER: genes 6 Torsion [C]-CA--N-[C] |==|  0.75514
USER: genes 7 Torsion [N]-C--CA-[N] |==|  0.38640
USER: genes 8 Torsion [C]-CA--N-[C] |==|  0.77012
USER: genes 9 Torsion [N]-C--CA-[N] |==|  0.46100
USER: genes 10 Torsion [C]-CA--CB-[CG] |==|  0.25069
USER: genes 11 Torsion [CA]-CB--CG-[CD] |==|  0.61457
USER: genes 12 Torsion [CB]-CG--CD-[NE2] |==|  0.19524
USER: genes 13 Torsion [C]-N--CA-[CB] |==|  0.48889
USER: genes 14 Torsion [N]-CA--C-[N] |==|  0.34518
USER: genes 15 Torsion [C]-N--CA-[CB] |==|  0.34793
USER: genes 16 Torsion [N]-CA--C-[N] |==|  0.85886
USER: genes 17 Torsion [C]-N--CA-[C] |==|  0.79769
USER: genes 18 Torsion [N]-CA--C-[N] |==|  0.96956
USER: genes 19 Torsion [C]-N--CA-[C] |==|  0.50600
USER: genes 20 Torsion [N]-CA--C-[O] |==|  0.96718
USER: genes 21 Torsion [N]-CA--CB-[CG] |==|  0.28245
USER: genes 22 Torsion [CA]-CB--CG-[OD2] |==|  0.80728
USER: genes 23 Torsion [N]-CA--CB-[CG] |==|  0.83051
USER: genes 24 Torsion [CA]-CB--CG-[OD2] |==|  0.37349
USER: genes 25 Torsion [N]-CA--CB-[OG1] |==|  0.15013
USER: genes 26 Torsion [CA]-CB--OG1-[HG1] |==|  0.89968
ROOT
ATOM      1  C   GLN D 206     -22.028  12.792  27.469  1.00 23.02 LIG 0.24  C 
ATOM      2 O    GLN D 206     -22.473  13.915  27.702  1.00 23.21 LIG-0.27  OA
ATOM      3  N   ALA D 207     -21.816  12.330  26.240  1.00 22.72 LIG-0.35  N 
ATOM      4 H    ALA D 207     -21.475  11.558  26.072  1.00 22.72 LIG 0.16  HD
ENDROOT
BRANCH 1 5
ATOM      5  CA  GLN D 206     -21.673  11.842  28.602  1.00 22.90 LIG 0.18  C 
BRANCH 5 6
ATOM      6  CB  GLN D 206     -22.687  10.690  28.619  1.00 23.00 LIG 0.04  C 
BRANCH 6 7
ATOM      7  CG  GLN D 206     -22.111   9.330  29.013  1.00 22.87 LIG 0.10  C 
BRANCH 7 8
ATOM      8  CD  GLN D 206     -21.891   9.216  30.512  1.00 23.72 LIG 0.21  C 
ATOM      9  NE2 GLN D 206     -21.283   8.114  30.946  1.00 23.17 LIG-0.37  N 
ATOM     10 21HE GLN D 206     -21.039   7.508  30.385  1.00 23.17 LIG 0.16  HD
ATOM     11 22HE GLN D 206     -21.133   8.007  31.786  1.00 23.17 LIG 0.16  HD
ATOM     12 OE1  GLN D 206     -22.258  10.111  31.270  1.00 23.11 LIG-0.27  OA
ENDBRANCH 7 8
ENDBRANCH 6 7
ENDBRANCH 5 6
BRANCH 5 13
ATOM     13  N   GLN D 206     -21.608  12.475  29.911  1.00 22.83 LIG-0.35  N 
ATOM     14 H    GLN D 206     -22.346  12.456  30.352  1.00 22.83 LIG 0.16  HD
ATOM     15  C   GLN D 205     -20.488  13.030  30.365  1.00 23.49 LIG 0.24  C 
ATOM     16 O    GLN D 205     -19.445  13.077  29.711  1.00 22.46 LIG-0.27  OA
BRANCH 15 17
ATOM     17  CA  GLN D 205     -20.552  13.624  31.761  1.00 24.37 LIG 0.18  C 
BRANCH 17 18
ATOM     18  N   GLN D 205     -19.311  13.285  32.443  1.00 25.17 LIG-0.35  N 
ATOM     19 H    GLN D 205     -18.720  13.909  32.423  1.00 25.17 LIG 0.16  HD
ATOM     20  C   PRO D 204     -19.120  12.114  33.040  1.00 27.23 LIG 0.24  C 
ATOM     21 O    PRO D 204     -19.974  11.233  33.083  1.00 27.18 LIG-0.27  OA
BRANCH 20 22
ATOM     22  CA  PRO D 204     -17.747  11.894  33.671  1.00 28.49 LIG 0.18  C 
ATOM     23  N   PRO D 204     -17.756  10.737  34.570  1.00 30.00 LIG-0.34  N 
ATOM     24  CD  PRO D 204     -17.216   9.572  33.861  1.00 30.13 LIG 0.13  C 
ATOM     25  C   ACE D 203     -18.164  10.778  35.847  1.00 30.58 LIG 0.22  C 
ATOM     26  CG  PRO D 204     -16.070  10.208  33.165  1.00 30.43 LIG 0.02  C 
ATOM     27  CB  PRO D 204     -16.725  11.488  32.602  1.00 28.78 LIG 0.04  C 
ATOM     28  CH3 ACE D 203     -18.115   9.493  36.649  1.00 31.20 LIG 0.12  C 
ATOM     29 O    ACE D 203     -18.562  11.820  36.366  1.00 31.12 LIG-0.27  OA
ENDBRANCH 20 22
ENDBRANCH 17 18
BRANCH 17 30
ATOM     30  CB  GLN D 205     -20.733  15.139  31.677  1.00 24.72 LIG 0.04  C 
BRANCH 30 31
ATOM     31  CG  GLN D 205     -22.184  15.566  31.657  1.00 27.03 LIG 0.10  C 
BRANCH 31 32
ATOM     32  CD  GLN D 205     -22.448  16.684  30.675  1.00 28.11 LIG 0.21  C 
ATOM     33  NE2 GLN D 205     -22.374  16.368  29.389  1.00 29.45 LIG-0.37  N 
ATOM     34 21HE GLN D 205     -22.191  15.560  29.155  1.00 29.45 LIG 0.16  HD
ATOM     35 22HE GLN D 205     -22.510  16.969  28.789  1.00 29.45 LIG 0.16  HD
ATOM     36 OE1  GLN D 205     -22.707  17.822  31.065  1.00 29.17 LIG-0.27  OA
ENDBRANCH 31 32
ENDBRANCH 30 31
ENDBRANCH 17 30
ENDBRANCH 15 17
ENDBRANCH 5 13
ENDBRANCH 1 5
BRANCH 3 37
ATOM     37  CA  ALA D 207     -22.150  13.105  25.052  1.00 22.93 LIG 0.17  C 
ATOM     38  CB  ALA D 207     -21.705  12.360  23.810  1.00 22.72 LIG 0.04  C 
BRANCH 37 39
ATOM     39  C   ALA D 207     -23.676  13.262  25.069  1.00 23.32 LIG 0.24  C 
ATOM     40  N   THR D 208     -24.175  14.494  25.024  1.00 24.11 LIG-0.34  N 
ATOM     41 H    THR D 208     -23.704  15.210  24.963  1.00 24.11 LIG 0.16  HD
ATOM     42 O    ALA D 207     -24.394  12.265  25.110  1.00 22.54 LIG-0.27  OA
BRANCH 40 43
ATOM     43  CA  THR D 208     -25.620  14.704  25.078  1.00 25.74 LIG 0.20  C 
BRANCH 43 44
ATOM     44  C   THR D 208     -26.319  15.214  23.818  1.00 27.84 LIG 0.24  C 
ATOM     45  N   ASP D 209     -25.824  16.288  23.215  1.00 27.84 LIG-0.34  N 
ATOM     46 H    ASP D 209     -25.119  16.714  23.463  1.00 27.84 LIG 0.16  HD
ATOM     47 O    THR D 208     -27.311  14.622  23.389  1.00 27.83 LIG-0.27  OA
BRANCH 45 48
ATOM     48  CA  ASP D 209     -26.498  16.822  22.034  1.00 29.52 LIG 0.19  C 
BRANCH 48 49
ATOM     49  C   ASP D 209     -26.385  16.047  20.725  1.00 30.14 LIG 0.24  C 
ATOM     50 O    ASP D 209     -27.102  16.361  19.777  1.00 31.34 LIG-0.27  OA
ATOM     51  N   ASP D 210     -25.510  15.051  20.652  1.00 30.20 LIG-0.34  N 
ATOM     52 H    ASP D 210     -24.995  14.805  21.296  1.00 30.20 LIG 0.16  HD
BRANCH 51 53
ATOM     53  CA  ASP D 210     -25.363  14.281  19.416  1.00 30.95 LIG 0.20  C 
BRANCH 53 54
ATOM     54  C   ASP D 210     -24.349  13.140  19.523  1.00 31.44 LIG 0.20  C 
ATOM     55 O    ASP D 210     -23.601  13.106  20.521  1.00 30.73 LIG-0.65  OA
ATOM     56 OXT  ASP D 210     -24.320  12.288  18.609  1.00 31.53 LIG-0.65  OA
ENDBRANCH 53 54
BRANCH 53 57
ATOM     57  CB  ASP D 210     -24.982  15.209  18.255  1.00 31.88 LIG 0.15  C 
BRANCH 57 58
ATOM     58  CG  ASP D 210     -23.511  15.148  17.914  1.00 32.06 LIG 0.17  C 
ATOM     59 OD2  ASP D 210     -22.674  15.618  18.716  1.00 32.64 LIG-0.65  OA
ATOM     60 OD1  ASP D 210     -23.195  14.630  16.827  1.00 34.58 LIG-0.65  OA
ENDBRANCH 57 58
ENDBRANCH 53 57
ENDBRANCH 51 53
ENDBRANCH 48 49
BRANCH 48 61
ATOM     61  CB  ASP D 209     -26.022  18.249  21.765  1.00 29.28 LIG 0.15  C 
BRANCH 61 62
ATOM     62  CG  ASP D 209     -26.332  19.187  22.910  1.00 30.36 LIG 0.17  C 
ATOM     63 OD2  ASP D 209     -25.439  19.966  23.300  1.00 30.91 LIG-0.65  OA
ATOM     64 OD1  ASP D 209     -27.463  19.124  23.440  1.00 31.75 LIG-0.65  OA
ENDBRANCH 61 62
ENDBRANCH 48 61
ENDBRANCH 45 48
ENDBRANCH 43 44
BRANCH 43 65
ATOM     65  CB  THR D 208     -26.010  15.671  26.221  1.00 25.82 LIG 0.15  C 
ATOM     66  CG2 THR D 208     -25.715  15.048  27.577  1.00 25.57 LIG 0.04  C 
BRANCH 65 67
ATOM     67 OG1  THR D 208     -25.271  16.891  26.092  1.00 26.97 LIG-0.39  OA
ATOM     68 HG1  THR D 208     -24.498  16.721  25.811  1.00 26.97 LIG 0.21  HD
ENDBRANCH 65 67
ENDBRANCH 43 65
ENDBRANCH 40 43
ENDBRANCH 37 39
ENDBRANCH 3 37
TORSDOF 25
ENDMDL
MODEL 14
USER: ADFR SOLUTION from run 78
USER: SCORE 16.848619 LL:  -3.684 LR: -15.562 RR:   0.000 FEB:  -8.105
USER: RMSD 2.449601
USER: SEED 77
USER: STATUS no improvement in best in 8 clusters for 5 generations
USER: GENES 27
USER: genes 0 Translation |==|  0.48472 0.55949 0.47083
USER: genes 1 Rotation |==|  0.47436 0.49441 0.50366 0.99930
USER: genes 2 Torsion [N]-C--CA-[N] |==|  0.43128
USER: genes 3 Torsion [C]-CA--CB-[CG] |==|  0.38999
USER: genes 4 Torsion [CA]-CB--CG-[CD] |==|  0.21239
USER: genes 5 Torsion [CB]-CG--CD-[NE2] |==|  0.47019
USER: genes 6 Torsion [C]-CA--N-[C] |==|  0.76415
USER: genes 7 Torsion [N]-C--CA-[N] |==|  0.38120
USER: genes 8 Torsion [C]-CA--N-[C] |==|  0.76314
USER: genes 9 Torsion [N]-C--CA-[N] |==|  0.46085
USER: genes 10 Torsion [C]-CA--CB-[CG] |==|  0.24453
USER: genes 11 Torsion [CA]-CB--CG-[CD] |==|  0.62574
USER: genes 12 Torsion [CB]-CG--CD-[NE2] |==|  0.19318
USER: genes 13 Torsion [C]-N--CA-[CB] |==|  0.46667
USER: genes 14 Torsion [N]-CA--C-[N] |==|  0.38371
USER: genes 15 Torsion [C]-N--CA-[CB] |==|  0.44958
USER: genes 16 Torsion [N]-CA--C-[N] |==|  0.92283
USER: genes 17 Torsion [C]-N--CA-[C] |==|  0.68994
USER: genes 18 Torsion [N]-CA--C-[N] |==|  0.45739
USER: genes 19 Torsion [C]-N--CA-[C] |==|  0.78640
USER: genes 20 Torsion [N]-CA--C-[O] |==|  0.93678
USER: genes 21 Torsion [N]-CA--CB-[CG] |==|  0.95361
USER: genes 22 Torsion [CA]-CB--CG-[OD2] |==|  0.20913
USER: genes 23 Torsion [N]-CA--CB-[CG] |==|  0.15604
USER: genes 24 Torsion [CA]-CB--CG-[OD2] |==|  0.83232
USER: genes 25 Torsion [N]-CA--CB-[OG1] |==|  0.20582
USER: genes 26 Torsion [CA]-CB--OG1-[HG1] |==|  0.86093
ROOT
ATOM      1  C   GLN D 206     -21.993  13.028  27.678  1.00 23.02 LIG 0.24  C 
ATOM      2 O    GLN D 206     -22.602  14.064  27.941  1.00 23.21 LIG-0.27  OA
ATOM      3  N   ALA D 207     -21.580  12.712  26.453  1.00 22.72 LIG-0.35  N 
ATOM      4 H    ALA D 207     -21.126  12.005  26.270  1.00 22.72 LIG 0.16  HD
ENDROOT
BRANCH 1 5
ATOM      5  CA  GLN D 206     -21.655  12.023  28.768  1.00 22.90 LIG 0.18  C 
BRANCH 5 6
ATOM      6  CB  GLN D 206     -22.686  10.886  28.729  1.00 23.00 LIG 0.04  C 
BRANCH 6 7
ATOM      7  CG  GLN D 206     -22.111   9.488  28.963  1.00 22.87 LIG 0.10  C 
BRANCH 7 8
ATOM      8  CD  GLN D 206     -21.801   9.236  30.429  1.00 23.72 LIG 0.21  C 
ATOM      9  NE2 GLN D 206     -21.507   7.983  30.771  1.00 23.17 LIG-0.37  N 
ATOM     10 21HE GLN D 206     -21.502   7.364  30.174  1.00 23.17 LIG 0.16  HD
ATOM     11 22HE GLN D 206     -21.321   7.793  31.589  1.00 23.17 LIG 0.16  HD
ATOM     12 OE1  GLN D 206     -21.821  10.157  31.241  1.00 23.11 LIG-0.27  OA
ENDBRANCH 7 8
ENDBRANCH 6 7
ENDBRANCH 5 6
BRANCH 5 13
ATOM     13  N   GLN D 206     -21.587  12.596  30.105  1.00 22.83 LIG-0.35  N 
ATOM     14 H    GLN D 206     -22.315  12.527  30.558  1.00 22.83 LIG 0.16  HD
ATOM     15  C   GLN D 205     -20.480  13.171  30.563  1.00 23.49 LIG 0.24  C 
ATOM     16 O    GLN D 205     -19.453  13.288  29.893  1.00 22.46 LIG-0.27  OA
BRANCH 15 17
ATOM     17  CA  GLN D 205     -20.537  13.695  31.987  1.00 24.37 LIG 0.18  C 
BRANCH 17 18
ATOM     18  N   GLN D 205     -19.289  13.332  32.642  1.00 25.17 LIG-0.35  N 
ATOM     19 H    GLN D 205     -18.690  13.949  32.619  1.00 25.17 LIG 0.16  HD
ATOM     20  C   PRO D 204     -19.101  12.152  33.222  1.00 27.23 LIG 0.24  C 
ATOM     21 O    PRO D 204     -19.966  11.281  33.271  1.00 27.18 LIG-0.27  OA
BRANCH 20 22
ATOM     22  CA  PRO D 204     -17.720  11.907  33.826  1.00 28.49 LIG 0.18  C 
ATOM     23  N   PRO D 204     -17.728  10.740  34.712  1.00 30.00 LIG-0.34  N 
ATOM     24  CD  PRO D 204     -17.217   9.577  33.981  1.00 30.13 LIG 0.13  C 
ATOM     25  C   ACE D 203     -18.112  10.773  35.997  1.00 30.58 LIG 0.22  C 
ATOM     26  CG  PRO D 204     -16.075  10.205  33.271  1.00 30.43 LIG 0.02  C 
ATOM     27  CB  PRO D 204     -16.723  11.500  32.734  1.00 28.78 LIG 0.04  C 
ATOM     28  CH3 ACE D 203     -18.065   9.479  36.785  1.00 31.20 LIG 0.12  C 
ATOM     29 O    ACE D 203     -18.486  11.815  36.535  1.00 31.12 LIG-0.27  OA
ENDBRANCH 20 22
ENDBRANCH 17 18
BRANCH 17 30
ATOM     30  CB  GLN D 205     -20.729  15.210  31.980  1.00 24.72 LIG 0.04  C 
BRANCH 30 31
ATOM     31  CG  GLN D 205     -22.182  15.627  31.938  1.00 27.03 LIG 0.10  C 
BRANCH 31 32
ATOM     32  CD  GLN D 205     -22.444  16.730  30.938  1.00 28.11 LIG 0.21  C 
ATOM     33  NE2 GLN D 205     -22.339  16.400  29.657  1.00 29.45 LIG-0.37  N 
ATOM     34 21HE GLN D 205     -22.138  15.593  29.436  1.00 29.45 LIG 0.16  HD
ATOM     35 22HE GLN D 205     -22.471  16.993  29.048  1.00 29.45 LIG 0.16  HD
ATOM     36 OE1  GLN D 205     -22.728  17.868  31.309  1.00 29.17 LIG-0.27  OA
ENDBRANCH 31 32
ENDBRANCH 30 31
ENDBRANCH 17 30
ENDBRANCH 15 17
ENDBRANCH 5 13
ENDBRANCH 1 5
BRANCH 3 37
ATOM     37  CA  ALA D 207     -21.868  13.552  25.299  1.00 22.93 LIG 0.17  C 
ATOM     38  CB  ALA D 207     -21.034  13.103  24.115  1.00 22.72 LIG 0.04  C 
BRANCH 37 39
ATOM     39  C   ALA D 207     -23.362  13.367  25.006  1.00 23.32 LIG 0.24  C 
ATOM     40  N   THR D 208     -24.074  14.445  24.691  1.00 24.11 LIG-0.34  N 
ATOM     41 H    THR D 208     -23.752  15.238  24.617  1.00 24.11 LIG 0.16  HD
ATOM     42 O    ALA D 207     -23.861  12.244  25.056  1.00 22.54 LIG-0.27  OA
BRANCH 40 43
ATOM     43  CA  THR D 208     -25.510  14.333  24.443  1.00 25.74 LIG 0.20  C 
BRANCH 43 44
ATOM     44  C   THR D 208     -25.963  13.705  23.126  1.00 27.84 LIG 0.24  C 
ATOM     45  N   ASP D 209     -25.159  13.802  22.073  1.00 27.84 LIG-0.34  N 
ATOM     46 H    ASP D 209     -24.383  14.173  22.075  1.00 27.84 LIG 0.16  HD
ATOM     47 O    THR D 208     -27.048  13.124  23.068  1.00 27.83 LIG-0.27  OA
BRANCH 45 48
ATOM     48  CA  ASP D 209     -25.588  13.249  20.791  1.00 29.52 LIG 0.19  C 
BRANCH 48 49
ATOM     49  C   ASP D 209     -24.853  12.028  20.247  1.00 30.14 LIG 0.24  C 
ATOM     50 O    ASP D 209     -23.768  11.715  20.730  1.00 31.34 LIG-0.27  OA
ATOM     51  N   ASP D 210     -25.416  11.338  19.261  1.00 30.20 LIG-0.34  N 
ATOM     52 H    ASP D 210     -26.172  11.531  18.900  1.00 30.20 LIG 0.16  HD
BRANCH 51 53
ATOM     53  CA  ASP D 210     -24.751  10.157  18.708  1.00 30.95 LIG 0.20  C 
BRANCH 53 54
ATOM     54  C   ASP D 210     -23.594  10.492  17.765  1.00 31.44 LIG 0.20  C 
ATOM     55 O    ASP D 210     -23.583  11.612  17.217  1.00 30.73 LIG-0.65  OA
ATOM     56 OXT  ASP D 210     -22.706   9.631  17.591  1.00 31.53 LIG-0.65  OA
ENDBRANCH 53 54
BRANCH 53 57
ATOM     57  CB  ASP D 210     -25.769   9.265  17.988  1.00 31.88 LIG 0.15  C 
BRANCH 57 58
ATOM     58  CG  ASP D 210     -27.198   9.587  18.359  1.00 32.06 LIG 0.17  C 
ATOM     59 OD2  ASP D 210     -27.739  10.611  17.889  1.00 32.64 LIG-0.65  OA
ATOM     60 OD1  ASP D 210     -27.779   8.806  19.135  1.00 34.58 LIG-0.65  OA
ENDBRANCH 57 58
ENDBRANCH 53 57
ENDBRANCH 51 53
ENDBRANCH 48 49
BRANCH 48 61
ATOM     61  CB  ASP D 209     -25.536  14.333  19.714  1.00 29.28 LIG 0.15  C 
BRANCH 61 62
ATOM     62  CG  ASP D 209     -24.166  14.963  19.595  1.00 30.36 LIG 0.17  C 
ATOM     63 OD2  ASP D 209     -23.689  15.544  20.591  1.00 30.91 LIG-0.65  OA
ATOM     64 OD1  ASP D 209     -23.578  14.902  18.493  1.00 31.75 LIG-0.65  OA
ENDBRANCH 61 62
ENDBRANCH 48 61
ENDBRANCH 45 48
ENDBRANCH 43 44
BRANCH 43 65
ATOM     65  CB  THR D 208     -26.212  15.707  24.542  1.00 25.82 LIG 0.15  C 
ATOM     66  CG2 THR D 208     -25.757  16.455  25.787  1.00 25.57 LIG 0.04  C 
BRANCH 65 67
ATOM     67 OG1  THR D 208     -25.903  16.490  23.384  1.00 26.97 LIG-0.39  OA
ATOM     68 HG1  THR D 208     -25.072  16.490  23.259  1.00 26.97 LIG 0.21  HD
ENDBRANCH 65 67
ENDBRANCH 43 65
ENDBRANCH 40 43
ENDBRANCH 37 39
ENDBRANCH 3 37
TORSDOF 25
ENDMDL
MODEL 15
USER: ADFR SOLUTION from run 187
USER: SCORE 16.754501 LL:  -3.385 LR: -15.427 RR:   0.000 FEB:  -7.970
USER: RMSD 3.243633
USER: SEED 186
USER: STATUS no improvement in best in 5 clusters for 5 generations
USER: GENES 27
USER: genes 0 Translation |==|  0.49022 0.55628 0.46951
USER: genes 1 Rotation |==|  0.47495 0.47636 0.50021 0.99881
USER: genes 2 Torsion [N]-C--CA-[N] |==|  0.41943
USER: genes 3 Torsion [C]-CA--CB-[CG] |==|  0.38571
USER: genes 4 Torsion [CA]-CB--CG-[CD] |==|  0.20257
USER: genes 5 Torsion [CB]-CG--CD-[NE2] |==|  0.47377
USER: genes 6 Torsion [C]-CA--N-[C] |==|  0.78684
USER: genes 7 Torsion [N]-C--CA-[N] |==|  0.36808
USER: genes 8 Torsion [C]-CA--N-[C] |==|  0.77178
USER: genes 9 Torsion [N]-C--CA-[N] |==|  0.45249
USER: genes 10 Torsion [C]-CA--CB-[CG] |==|  0.24765
USER: genes 11 Torsion [CA]-CB--CG-[CD] |==|  0.63614
USER: genes 12 Torsion [CB]-CG--CD-[NE2] |==|  0.18011
USER: genes 13 Torsion [C]-N--CA-[CB] |==|  0.44355
USER: genes 14 Torsion [N]-CA--C-[N] |==|  0.36114
USER: genes 15 Torsion [C]-N--CA-[CB] |==|  0.50000
USER: genes 16 Torsion [N]-CA--C-[N] |==|  0.49852
USER: genes 17 Torsion [C]-N--CA-[C] |==|  0.77022
USER: genes 18 Torsion [N]-CA--C-[N] |==|  0.20353
USER: genes 19 Torsion [C]-N--CA-[C] |==|  0.65008
USER: genes 20 Torsion [N]-CA--C-[O] |==|  0.00098
USER: genes 21 Torsion [N]-CA--CB-[CG] |==|  0.16499
USER: genes 22 Torsion [CA]-CB--CG-[OD2] |==|  0.30545
USER: genes 23 Torsion [N]-CA--CB-[CG] |==|  0.11289
USER: genes 24 Torsion [CA]-CB--CG-[OD2] |==|  0.79711
USER: genes 25 Torsion [N]-CA--CB-[OG1] |==|  0.19861
USER: genes 26 Torsion [CA]-CB--OG1-[HG1] |==|  0.76908
ROOT
ATOM      1  C   GLN D 206     -21.886  12.965  27.643  1.00 23.02 LIG 0.24  C 
ATOM      2 O    GLN D 206     -22.502  14.007  27.864  1.00 23.21 LIG-0.27  OA
ATOM      3  N   ALA D 207     -21.388  12.649  26.450  1.00 22.72 LIG-0.35  N 
ATOM      4 H    ALA D 207     -20.929  11.937  26.298  1.00 22.72 LIG 0.16  HD
ENDROOT
BRANCH 1 5
ATOM      5  CA  GLN D 206     -21.639  11.954  28.751  1.00 22.90 LIG 0.18  C 
BRANCH 5 6
ATOM      6  CB  GLN D 206     -22.738  10.885  28.700  1.00 23.00 LIG 0.04  C 
BRANCH 6 7
ATOM      7  CG  GLN D 206     -22.254   9.452  28.926  1.00 22.87 LIG 0.10  C 
BRANCH 7 8
ATOM      8  CD  GLN D 206     -21.885   9.195  30.377  1.00 23.72 LIG 0.21  C 
ATOM      9  NE2 GLN D 206     -21.638   7.932  30.717  1.00 23.17 LIG-0.37  N 
ATOM     10 21HE GLN D 206     -21.694   7.309  30.127  1.00 23.17 LIG 0.16  HD
ATOM     11 22HE GLN D 206     -21.422   7.739  31.527  1.00 23.17 LIG 0.16  HD
ATOM     12 OE1  GLN D 206     -21.818  10.123  31.180  1.00 23.11 LIG-0.27  OA
ENDBRANCH 7 8
ENDBRANCH 6 7
ENDBRANCH 5 6
BRANCH 5 13
ATOM     13  N   GLN D 206     -21.565  12.537  30.083  1.00 22.83 LIG-0.35  N 
ATOM     14 H    GLN D 206     -22.271  12.423  30.560  1.00 22.83 LIG 0.16  HD
ATOM     15  C   GLN D 205     -20.484  13.188  30.502  1.00 23.49 LIG 0.24  C 
ATOM     16 O    GLN D 205     -19.489  13.370  29.798  1.00 22.46 LIG-0.27  OA
BRANCH 15 17
ATOM     17  CA  GLN D 205     -20.529  13.715  31.926  1.00 24.37 LIG 0.18  C 
BRANCH 17 18
ATOM     18  N   GLN D 205     -19.281  13.340  32.576  1.00 25.17 LIG-0.35  N 
ATOM     19 H    GLN D 205     -18.691  13.966  32.585  1.00 25.17 LIG 0.16  HD
ATOM     20  C   PRO D 204     -19.083  12.137  33.104  1.00 27.23 LIG 0.24  C 
ATOM     21 O    PRO D 204     -19.935  11.254  33.105  1.00 27.18 LIG-0.27  OA
BRANCH 20 22
ATOM     22  CA  PRO D 204     -17.703  11.885  33.709  1.00 28.49 LIG 0.18  C 
ATOM     23  N   PRO D 204     -17.719  10.720  34.598  1.00 30.00 LIG-0.34  N 
ATOM     24  CD  PRO D 204     -17.216   9.551  33.870  1.00 30.13 LIG 0.13  C 
ATOM     25  C   ACE D 203     -18.104  10.760  35.883  1.00 30.58 LIG 0.22  C 
ATOM     26  CG  PRO D 204     -16.070  10.170  33.159  1.00 30.43 LIG 0.02  C 
ATOM     27  CB  PRO D 204     -16.708  11.468  32.618  1.00 28.78 LIG 0.04  C 
ATOM     28  CH3 ACE D 203     -18.067   9.467  36.674  1.00 31.20 LIG 0.12  C 
ATOM     29 O    ACE D 203     -18.471  11.805  36.418  1.00 31.12 LIG-0.27  OA
ENDBRANCH 20 22
ENDBRANCH 17 18
BRANCH 17 30
ATOM     30  CB  GLN D 205     -20.705  15.232  31.916  1.00 24.72 LIG 0.04  C 
BRANCH 30 31
ATOM     31  CG  GLN D 205     -22.155  15.664  31.908  1.00 27.03 LIG 0.10  C 
BRANCH 31 32
ATOM     32  CD  GLN D 205     -22.447  16.702  30.848  1.00 28.11 LIG 0.21  C 
ATOM     33  NE2 GLN D 205     -22.306  16.311  29.588  1.00 29.45 LIG-0.37  N 
ATOM     34 21HE GLN D 205     -22.067  15.504  29.412  1.00 29.45 LIG 0.16  HD
ATOM     35 22HE GLN D 205     -22.454  16.866  28.947  1.00 29.45 LIG 0.16  HD
ATOM     36 OE1  GLN D 205     -22.787  17.843  31.155  1.00 29.17 LIG-0.27  OA
ENDBRANCH 31 32
ENDBRANCH 30 31
ENDBRANCH 17 30
ENDBRANCH 15 17
ENDBRANCH 5 13
ENDBRANCH 1 5
BRANCH 3 37
ATOM     37  CA  ALA D 207     -21.582  13.495  25.280  1.00 22.93 LIG 0.17  C 
ATOM     38  CB  ALA D 207     -20.533  13.175  24.235  1.00 22.72 LIG 0.04  C 
BRANCH 37 39
ATOM     39  C   ALA D 207     -22.985  13.166  24.753  1.00 23.32 LIG 0.24  C 
ATOM     40  N   THR D 208     -23.810  14.178  24.506  1.00 24.11 LIG-0.34  N 
ATOM     41 H    THR D 208     -23.607  15.009  24.598  1.00 24.11 LIG 0.16  HD
ATOM     42 O    ALA D 207     -23.308  11.995  24.562  1.00 22.54 LIG-0.27  OA
BRANCH 40 43
ATOM     43  CA  THR D 208     -25.172  13.922  24.041  1.00 25.74 LIG 0.20  C 
BRANCH 43 44
ATOM     44  C   THR D 208     -25.352  13.087  22.774  1.00 27.84 LIG 0.24  C 
ATOM     45  N   ASP D 209     -26.588  12.841  22.353  1.00 27.84 LIG-0.34  N 
ATOM     46 H    ASP D 209     -27.305  13.136  22.724  1.00 27.84 LIG 0.16  HD
ATOM     47 O    THR D 208     -24.361  12.669  22.173  1.00 27.83 LIG-0.27  OA
BRANCH 45 48
ATOM     48  CA  ASP D 209     -26.788  12.009  21.169  1.00 29.52 LIG 0.19  C 
BRANCH 48 49
ATOM     49  C   ASP D 209     -26.673  12.664  19.796  1.00 30.14 LIG 0.24  C 
ATOM     50 O    ASP D 209     -27.691  12.866  19.139  1.00 31.34 LIG-0.27  OA
ATOM     51  N   ASP D 210     -25.466  12.995  19.353  1.00 30.20 LIG-0.34  N 
ATOM     52 H    ASP D 210     -24.734  12.865  19.786  1.00 30.20 LIG 0.16  HD
BRANCH 51 53
ATOM     53  CA  ASP D 210     -25.304  13.629  18.043  1.00 30.95 LIG 0.20  C 
BRANCH 53 54
ATOM     54  C   ASP D 210     -24.318  12.900  17.129  1.00 31.44 LIG 0.20  C 
ATOM     55 O    ASP D 210     -23.765  11.867  17.559  1.00 30.73 LIG-0.65  OA
ATOM     56 OXT  ASP D 210     -24.113  13.367  15.988  1.00 31.53 LIG-0.65  OA
ENDBRANCH 53 54
BRANCH 53 57
ATOM     57  CB  ASP D 210     -24.875  15.091  18.211  1.00 31.88 LIG 0.15  C 
BRANCH 57 58
ATOM     58  CG  ASP D 210     -23.570  15.238  18.960  1.00 32.06 LIG 0.17  C 
ATOM     59 OD2  ASP D 210     -22.549  15.618  18.347  1.00 32.64 LIG-0.65  OA
ATOM     60 OD1  ASP D 210     -23.571  14.961  20.174  1.00 34.58 LIG-0.65  OA
ENDBRANCH 57 58
ENDBRANCH 53 57
ENDBRANCH 51 53
ENDBRANCH 48 49
BRANCH 48 61
ATOM     61  CB  ASP D 209     -28.155  11.328  21.239  1.00 29.28 LIG 0.15  C 
BRANCH 61 62
ATOM     62  CG  ASP D 209     -29.234  12.249  21.764  1.00 30.36 LIG 0.17  C 
ATOM     63 OD2  ASP D 209     -29.236  12.532  22.979  1.00 30.91 LIG-0.65  OA
ATOM     64 OD1  ASP D 209     -30.097  12.669  20.963  1.00 31.75 LIG-0.65  OA
ENDBRANCH 61 62
ENDBRANCH 48 61
ENDBRANCH 45 48
ENDBRANCH 43 44
BRANCH 43 65
ATOM     65  CB  THR D 208     -25.953  15.238  23.818  1.00 25.82 LIG 0.15  C 
ATOM     66  CG2 THR D 208     -25.817  16.156  25.024  1.00 25.57 LIG 0.04  C 
BRANCH 65 67
ATOM     67 OG1  THR D 208     -25.446  15.907  22.658  1.00 26.97 LIG-0.39  OA
ATOM     68 HG1  THR D 208     -24.766  16.352  22.867  1.00 26.97 LIG 0.21  HD
ENDBRANCH 65 67
ENDBRANCH 43 65
ENDBRANCH 40 43
ENDBRANCH 37 39
ENDBRANCH 3 37
TORSDOF 25
ENDMDL
