MODEL 1
USER: ADFR SOLUTION from run 185
USER: SCORE 16.248564 LL:  -3.358 LR: -15.266 RR:   0.000 FEB:  -9.897
USER: RMSD 0.843032
USER: SEED 184
USER: STATUS 1 or 2 clusters left
USER: GENES 20
USER: genes 0 Translation |==|  0.52017 0.43046 0.52262
USER: genes 1 Rotation |==|  0.49960 0.51738 0.49497 0.99967
USER: genes 2 Torsion [C]-CA--N-[C] |==|  0.83944
USER: genes 3 Torsion [N]-C--CA-[N] |==|  0.31914
USER: genes 4 Torsion [C]-CA--N-[C] |==|  0.79710
USER: genes 5 Torsion [N]-C--CA-[CB] |==|  0.55456
USER: genes 6 Torsion [C]-CA--CB-[CG2] |==|  0.49812
USER: genes 7 Torsion [N]-CA--C-[N] |==|  0.37763
USER: genes 8 Torsion [C]-N--CA-[CB] |==|  0.48889
USER: genes 9 Torsion [N]-CA--CB-[CG] |==|  0.23506
USER: genes 10 Torsion [CA]-CB--CG-[CD] |==|  0.51633
USER: genes 11 Torsion [CB]-CG--CD-[OE2] |==|  0.40676
USER: genes 12 Torsion [N]-CA--C-[N] |==|  0.39975
USER: genes 13 Torsion [C]-N--CA-[CB] |==|  0.39414
USER: genes 14 Torsion [N]-CA--CB-[CG2] |==|  0.90671
USER: genes 15 Torsion [CA]-CB--OG1-[HG1] |==|  0.92513
USER: genes 16 Torsion [N]-CA--C-[N] |==|  0.97113
USER: genes 17 Torsion [N]-CA--CB-[CG] |==|  0.77557
USER: genes 18 Torsion [CA]-CB--CG-[CD] |==|  0.55118
USER: genes 19 Torsion [CB]-CG--CD-[NE2] |==|  0.46287
ROOT
ATOM      1  CA  GLN I 252      24.447   5.256 -18.860  1.00 16.23 LIG 0.18  C 
ENDROOT
BRANCH 1 2
ATOM      2  N   GLN I 252      24.051   4.992 -20.241  1.00 16.34 LIG-0.35  N 
ATOM      3  C   VAL I 251      22.947   5.546 -20.744  1.00 18.16 LIG 0.24  C 
ATOM      4 O    VAL I 251      22.209   6.290 -20.086  1.00 14.74 LIG-0.27  OA
ATOM      5 H    GLN I 252      24.577   4.469 -20.676  1.00 16.34 LIG 0.16  HD
BRANCH 3 6
ATOM      6  CA  VAL I 251      22.607   5.212 -22.202  1.00 17.69 LIG 0.18  C 
BRANCH 6 7
ATOM      7  N   VAL I 251      21.362   4.464 -22.174  1.00 18.42 LIG-0.35  N 
ATOM      8  C   PRO I 250      21.268   3.207 -21.759  1.00 18.71 LIG 0.24  C 
ATOM      9 O    PRO I 250      22.228   2.549 -21.356  1.00 17.39 LIG-0.27  OA
ATOM     10 H    VAL I 251      20.686   4.915 -22.453  1.00 18.42 LIG 0.16  HD
BRANCH 8 11
ATOM     11  CA  PRO I 250      19.865   2.611 -21.776  1.00 18.98 LIG 0.18  C 
ATOM     12  CB  PRO I 250      19.793   1.387 -20.852  1.00 18.07 LIG 0.04  C 
ATOM     13  CG  PRO I 250      19.194   0.287 -21.728  1.00 16.66 LIG 0.02  C 
ATOM     14  CD  PRO I 250      19.737   0.600 -23.068  1.00 18.50 LIG 0.13  C 
ATOM     15  N   PRO I 250      19.550   2.055 -23.097  1.00 18.66 LIG-0.34  N 
ATOM     16  C   ACE I 249      19.178   2.793 -24.152  1.00 19.73 LIG 0.22  C 
ATOM     17 O    ACE I 249      19.083   4.027 -24.088  1.00 18.17 LIG-0.27  OA
ATOM     18  CH3 ACE I 249      18.884   2.062 -25.448  1.00 18.86 LIG 0.12  C 
ENDBRANCH 8 11
ENDBRANCH 6 7
BRANCH 6 19
ATOM     19  CB  VAL I 251      22.433   6.521 -23.023  1.00 19.17 LIG 0.01  C 
ATOM     20  CG2 VAL I 251      22.112   6.176 -24.470  1.00 18.02 LIG 0.01  C 
ATOM     21  CG1 VAL I 251      23.696   7.372 -22.963  1.00 18.69 LIG 0.01  C 
ENDBRANCH 6 19
ENDBRANCH 3 6
ENDBRANCH 1 2
BRANCH 1 22
ATOM     22  C   GLN I 252      24.633   6.734 -18.610  1.00 16.56 LIG 0.24  C 
ATOM     23 O    GLN I 252      25.235   7.444 -19.419  1.00 16.02 LIG-0.27  OA
ATOM     24  N   GLU I 253      24.111   7.196 -17.477  1.00 16.36 LIG-0.35  N 
ATOM     25 H    GLU I 253      23.681   6.716 -16.909  1.00 16.36 LIG 0.16  HD
BRANCH 24 26
ATOM     26  CA  GLU I 253      24.242   8.597 -17.117  1.00 16.29 LIG 0.18  C 
BRANCH 26 27
ATOM     27  CB  GLU I 253      23.480   8.911 -15.825  1.00 17.20 LIG 0.04  C 
BRANCH 27 28
ATOM     28  CG  GLU I 253      24.256   8.621 -14.562  1.00 17.14 LIG 0.12  C 
BRANCH 28 29
ATOM     29  CD  GLU I 253      23.425   8.806 -13.297  1.00 16.40 LIG 0.17  C 
ATOM     30 OE2  GLU I 253      23.652   8.057 -12.319  1.00 15.77 LIG-0.65  OA
ATOM     31 OE1  GLU I 253      22.569   9.716 -13.271  1.00 15.17 LIG-0.65  OA
ENDBRANCH 28 29
ENDBRANCH 27 28
ENDBRANCH 26 27
BRANCH 26 32
ATOM     32  C   GLU I 253      25.718   8.851 -16.891  1.00 17.65 LIG 0.24  C 
ATOM     33 O    GLU I 253      26.437   8.005 -16.359  1.00 15.54 LIG-0.27  OA
ATOM     34  N   THR I 254      26.137  10.044 -17.286  1.00 18.98 LIG-0.34  N 
ATOM     35 H    THR I 254      25.610  10.624 -17.642  1.00 18.98 LIG 0.16  HD
BRANCH 34 36
ATOM     36  CA  THR I 254      27.507  10.517 -17.173  1.00 17.93 LIG 0.21  C 
BRANCH 36 37
ATOM     37  CB  THR I 254      27.856  11.344 -18.428  1.00 16.77 LIG 0.15  C 
ATOM     38  CG2 THR I 254      27.168  10.815 -19.629  1.00 17.84 LIG 0.04  C 
BRANCH 37 39
ATOM     39 OG1  THR I 254      27.529  12.723 -18.210  1.00 18.79 LIG-0.39  OA
ATOM     40 HG1  THR I 254      26.907  12.779 -17.647  1.00 18.79 LIG 0.21  HD
ENDBRANCH 37 39
ENDBRANCH 36 37
BRANCH 36 41
ATOM     41  C   THR I 254      27.710  11.359 -15.899  1.00 19.04 LIG 0.29  C 
ATOM     42 O    THR I 254      28.872  11.678 -15.587  1.00 18.19 LIG-0.27  OA
ATOM     43  N   NH2 I 255      26.712  11.714 -15.231  1.00 17.54 LIG-0.11  N 
ENDBRANCH 36 41
ENDBRANCH 34 36
ENDBRANCH 26 32
ENDBRANCH 24 26
ENDBRANCH 1 22
BRANCH 1 44
ATOM     44  CB  GLN I 252      25.752   4.548 -18.490  1.00 17.05 LIG 0.04  C 
BRANCH 44 45
ATOM     45  CG  GLN I 252      25.614   3.078 -18.127  1.00 16.15 LIG 0.10  C 
BRANCH 45 46
ATOM     46  CD  GLN I 252      26.820   2.573 -17.360  1.00 17.21 LIG 0.21  C 
ATOM     47  NE2 GLN I 252      26.694   1.394 -16.757  1.00 17.56 LIG-0.37  N 
ATOM     48 21HE GLN I 252      25.954   0.958 -16.816  1.00 17.56 LIG 0.16  HD
ATOM     49 22HE GLN I 252      27.351   1.068 -16.309  1.00 17.56 LIG 0.16  HD
ATOM     50 OE1  GLN I 252      27.851   3.234 -17.308  1.00 16.83 LIG-0.27  OA
ENDBRANCH 45 46
ENDBRANCH 44 45
ENDBRANCH 1 44
TORSDOF 18
ENDMDL
MODEL 2
USER: ADFR SOLUTION from run 87
USER: SCORE 15.370757 LL:  -4.039 LR: -13.564 RR:   0.000 FEB:  -8.194
USER: RMSD 2.521311
USER: SEED 86
USER: STATUS no improvement in best in 3 clusters for 5 generations
USER: GENES 20
USER: genes 0 Translation |==|  0.52812 0.43876 0.53254
USER: genes 1 Rotation |==|  0.49452 0.51615 0.47411 0.99904
USER: genes 2 Torsion [C]-CA--N-[C] |==|  0.81460
USER: genes 3 Torsion [N]-C--CA-[N] |==|  0.33025
USER: genes 4 Torsion [C]-CA--N-[C] |==|  0.77150
USER: genes 5 Torsion [N]-C--CA-[CB] |==|  0.57858
USER: genes 6 Torsion [C]-CA--CB-[CG2] |==|  0.48552
USER: genes 7 Torsion [N]-CA--C-[N] |==|  0.41480
USER: genes 8 Torsion [C]-N--CA-[CB] |==|  0.34358
USER: genes 9 Torsion [N]-CA--CB-[CG] |==|  0.11145
USER: genes 10 Torsion [CA]-CB--CG-[CD] |==|  0.38041
USER: genes 11 Torsion [CB]-CG--CD-[OE2] |==|  0.80102
USER: genes 12 Torsion [N]-CA--C-[N] |==|  0.78582
USER: genes 13 Torsion [C]-N--CA-[CB] |==|  0.20240
USER: genes 14 Torsion [N]-CA--CB-[CG2] |==|  0.68915
USER: genes 15 Torsion [CA]-CB--OG1-[HG1] |==|  0.11847
USER: genes 16 Torsion [N]-CA--C-[N] |==|  0.00052
USER: genes 17 Torsion [N]-CA--CB-[CG] |==|  0.76188
USER: genes 18 Torsion [CA]-CB--CG-[CD] |==|  0.52494
USER: genes 19 Torsion [CB]-CG--CD-[NE2] |==|  0.50388
ROOT
ATOM      1  CA  GLN I 252      24.596   5.430 -18.644  1.00 16.23 LIG 0.18  C 
ENDROOT
BRANCH 1 2
ATOM      2  N   GLN I 252      24.185   5.168 -20.021  1.00 16.34 LIG-0.35  N 
ATOM      3  C   VAL I 251      23.036   5.658 -20.488  1.00 18.16 LIG 0.24  C 
ATOM      4 O    VAL I 251      22.267   6.341 -19.797  1.00 14.74 LIG-0.27  OA
ATOM      5 H    GLN I 252      24.732   4.688 -20.478  1.00 16.34 LIG 0.16  HD
BRANCH 3 6
ATOM      6  CA  VAL I 251      22.683   5.331 -21.943  1.00 17.69 LIG 0.18  C 
BRANCH 6 7
ATOM      7  N   VAL I 251      21.437   4.585 -21.908  1.00 18.42 LIG-0.35  N 
ATOM      8  C   PRO I 250      21.366   3.282 -21.668  1.00 18.71 LIG 0.24  C 
ATOM      9 O    PRO I 250      22.351   2.575 -21.451  1.00 17.39 LIG-0.27  OA
ATOM     10 H    VAL I 251      20.743   5.071 -22.059  1.00 18.42 LIG 0.16  HD
BRANCH 8 11
ATOM     11  CA  PRO I 250      19.960   2.693 -21.641  1.00 18.98 LIG 0.18  C 
ATOM     12  CB  PRO I 250      19.913   1.466 -20.719  1.00 18.07 LIG 0.04  C 
ATOM     13  CG  PRO I 250      19.280   0.372 -21.579  1.00 16.66 LIG 0.02  C 
ATOM     14  CD  PRO I 250      19.781   0.686 -22.934  1.00 18.50 LIG 0.13  C 
ATOM     15  N   PRO I 250      19.600   2.142 -22.953  1.00 18.66 LIG-0.34  N 
ATOM     16  C   ACE I 249      19.197   2.885 -23.993  1.00 19.73 LIG 0.22  C 
ATOM     17 O    ACE I 249      19.111   4.119 -23.922  1.00 18.17 LIG-0.27  OA
ATOM     18  CH3 ACE I 249      18.859   2.159 -25.281  1.00 18.86 LIG 0.12  C 
ENDBRANCH 8 11
ENDBRANCH 6 7
BRANCH 6 19
ATOM     19  CB  VAL I 251      22.505   6.644 -22.758  1.00 19.17 LIG 0.01  C 
ATOM     20  CG2 VAL I 251      22.283   6.307 -24.225  1.00 18.02 LIG 0.01  C 
ATOM     21  CG1 VAL I 251      23.726   7.543 -22.614  1.00 18.69 LIG 0.01  C 
ENDBRANCH 6 19
ENDBRANCH 3 6
ENDBRANCH 1 2
BRANCH 1 22
ATOM     22  C   GLN I 252      24.903   6.893 -18.427  1.00 16.56 LIG 0.24  C 
ATOM     23 O    GLN I 252      25.344   7.592 -19.343  1.00 16.02 LIG-0.27  OA
ATOM     24  N   GLU I 253      24.666   7.355 -17.203  1.00 16.36 LIG-0.35  N 
ATOM     25 H    GLU I 253      24.350   6.884 -16.558  1.00 16.36 LIG 0.16  HD
BRANCH 24 26
ATOM     26  CA  GLU I 253      24.940   8.742 -16.867  1.00 16.29 LIG 0.18  C 
BRANCH 26 27
ATOM     27  CB  GLU I 253      23.687   9.438 -16.324  1.00 17.20 LIG 0.04  C 
BRANCH 27 28
ATOM     28  CG  GLU I 253      22.856   8.584 -15.397  1.00 17.14 LIG 0.12  C 
BRANCH 28 29
ATOM     29  CD  GLU I 253      22.366   9.341 -14.167  1.00 16.40 LIG 0.17  C 
ATOM     30 OE2  GLU I 253      23.199   9.644 -13.282  1.00 15.77 LIG-0.65  OA
ATOM     31 OE1  GLU I 253      21.159   9.656 -14.100  1.00 15.17 LIG-0.65  OA
ENDBRANCH 28 29
ENDBRANCH 27 28
ENDBRANCH 26 27
BRANCH 26 32
ATOM     32  C   GLU I 253      26.001   8.726 -15.786  1.00 17.65 LIG 0.24  C 
ATOM     33 O    GLU I 253      27.181   8.961 -16.047  1.00 15.54 LIG-0.27  OA
ATOM     34  N   THR I 254      25.550   8.417 -14.579  1.00 18.98 LIG-0.34  N 
ATOM     35 H    THR I 254      24.723   8.242 -14.427  1.00 18.98 LIG 0.16  HD
BRANCH 34 36
ATOM     36  CA  THR I 254      26.376   8.337 -13.386  1.00 17.93 LIG 0.21  C 
BRANCH 36 37
ATOM     37  CB  THR I 254      26.768   9.765 -12.952  1.00 16.77 LIG 0.15  C 
ATOM     38  CG2 THR I 254      28.219  10.003 -13.135  1.00 17.84 LIG 0.04  C 
BRANCH 37 39
ATOM     39 OG1  THR I 254      25.990  10.726 -13.678  1.00 18.79 LIG-0.39  OA
ATOM     40 HG1  THR I 254      25.191  10.469 -13.717  1.00 18.79 LIG 0.21  HD
ENDBRANCH 37 39
ENDBRANCH 36 37
BRANCH 36 41
ATOM     41  C   THR I 254      25.647   7.608 -12.242  1.00 19.04 LIG 0.29  C 
ATOM     42 O    THR I 254      26.237   7.491 -11.152  1.00 18.19 LIG-0.27  OA
ATOM     43  N   NH2 I 255      24.487   7.174 -12.430  1.00 17.54 LIG-0.11  N 
ENDBRANCH 36 41
ENDBRANCH 34 36
ENDBRANCH 26 32
ENDBRANCH 24 26
ENDBRANCH 1 22
BRANCH 1 44
ATOM     44  CB  GLN I 252      25.837   4.626 -18.251  1.00 17.05 LIG 0.04  C 
BRANCH 44 45
ATOM     45  CG  GLN I 252      25.566   3.218 -17.743  1.00 16.15 LIG 0.10  C 
BRANCH 45 46
ATOM     46  CD  GLN I 252      26.815   2.576 -17.174  1.00 17.21 LIG 0.21  C 
ATOM     47  NE2 GLN I 252      26.694   1.329 -16.726  1.00 17.56 LIG-0.37  N 
ATOM     48 21HE GLN I 252      25.934   0.928 -16.770  1.00 17.56 LIG 0.16  HD
ATOM     49 22HE GLN I 252      27.375   0.923 -16.394  1.00 17.56 LIG 0.16  HD
ATOM     50 OE1  GLN I 252      27.874   3.192 -17.135  1.00 16.83 LIG-0.27  OA
ENDBRANCH 45 46
ENDBRANCH 44 45
ENDBRANCH 1 44
TORSDOF 18
ENDMDL
MODEL 3
USER: ADFR SOLUTION from run 139
USER: SCORE 14.651538 LL:  -3.874 LR: -13.481 RR:   0.000 FEB:  -8.112
USER: RMSD 2.427162
USER: SEED 138
USER: STATUS 1 or 2 clusters left
USER: GENES 20
USER: genes 0 Translation |==|  0.52035 0.43437 0.52862
USER: genes 1 Rotation |==|  0.49215 0.51469 0.48952 0.99961
USER: genes 2 Torsion [C]-CA--N-[C] |==|  0.83383
USER: genes 3 Torsion [N]-C--CA-[N] |==|  0.31889
USER: genes 4 Torsion [C]-CA--N-[C] |==|  0.77892
USER: genes 5 Torsion [N]-C--CA-[CB] |==|  0.55691
USER: genes 6 Torsion [C]-CA--CB-[CG2] |==|  0.49639
USER: genes 7 Torsion [N]-CA--C-[N] |==|  0.41093
USER: genes 8 Torsion [C]-N--CA-[CB] |==|  0.45010
USER: genes 9 Torsion [N]-CA--CB-[CG] |==|  0.14878
USER: genes 10 Torsion [CA]-CB--CG-[CD] |==|  0.48411
USER: genes 11 Torsion [CB]-CG--CD-[OE2] |==|  0.50556
USER: genes 12 Torsion [N]-CA--C-[N] |==|  0.90519
USER: genes 13 Torsion [C]-N--CA-[CB] |==|  0.38026
USER: genes 14 Torsion [N]-CA--CB-[CG2] |==|  0.57774
USER: genes 15 Torsion [CA]-CB--OG1-[HG1] |==|  0.38436
USER: genes 16 Torsion [N]-CA--C-[N] |==|  0.89181
USER: genes 17 Torsion [N]-CA--CB-[CG] |==|  0.78400
USER: genes 18 Torsion [CA]-CB--CG-[CD] |==|  0.53676
USER: genes 19 Torsion [CB]-CG--CD-[NE2] |==|  0.46983
ROOT
ATOM      1  CA  GLN I 252      24.451   5.338 -18.730  1.00 16.23 LIG 0.18  C 
ENDROOT
BRANCH 1 2
ATOM      2  N   GLN I 252      24.063   5.040 -20.106  1.00 16.34 LIG-0.35  N 
ATOM      3  C   VAL I 251      22.954   5.569 -20.625  1.00 18.16 LIG 0.24  C 
ATOM      4 O    VAL I 251      22.204   6.318 -19.985  1.00 14.74 LIG-0.27  OA
ATOM      5 H    GLN I 252      24.597   4.514 -20.528  1.00 16.34 LIG 0.16  HD
BRANCH 3 6
ATOM      6  CA  VAL I 251      22.623   5.200 -22.076  1.00 17.69 LIG 0.18  C 
BRANCH 6 7
ATOM      7  N   VAL I 251      21.390   4.436 -22.037  1.00 18.42 LIG-0.35  N 
ATOM      8  C   PRO I 250      21.331   3.150 -21.715  1.00 18.71 LIG 0.24  C 
ATOM      9 O    PRO I 250      22.318   2.476 -21.417  1.00 17.39 LIG-0.27  OA
ATOM     10 H    VAL I 251      20.694   4.898 -22.243  1.00 18.42 LIG 0.16  HD
BRANCH 8 11
ATOM     11  CA  PRO I 250      19.934   2.538 -21.699  1.00 18.98 LIG 0.18  C 
ATOM     12  CB  PRO I 250      19.921   1.257 -20.852  1.00 18.07 LIG 0.04  C 
ATOM     13  CG  PRO I 250      19.289   0.207 -21.766  1.00 16.66 LIG 0.02  C 
ATOM     14  CD  PRO I 250      19.760   0.610 -23.108  1.00 18.50 LIG 0.13  C 
ATOM     15  N   PRO I 250      19.559   2.061 -23.036  1.00 18.66 LIG-0.34  N 
ATOM     16  C   ACE I 249      19.126   2.860 -24.022  1.00 19.73 LIG 0.22  C 
ATOM     17 O    ACE I 249      19.023   4.086 -23.875  1.00 18.17 LIG-0.27  OA
ATOM     18  CH3 ACE I 249      18.774   2.207 -25.345  1.00 18.86 LIG 0.12  C 
ENDBRANCH 8 11
ENDBRANCH 6 7
BRANCH 6 19
ATOM     19  CB  VAL I 251      22.435   6.490 -22.925  1.00 19.17 LIG 0.01  C 
ATOM     20  CG2 VAL I 251      22.139   6.110 -24.369  1.00 18.02 LIG 0.01  C 
ATOM     21  CG1 VAL I 251      23.679   7.367 -22.867  1.00 18.69 LIG 0.01  C 
ENDBRANCH 6 19
ENDBRANCH 3 6
ENDBRANCH 1 2
BRANCH 1 22
ATOM     22  C   GLN I 252      24.665   6.819 -18.522  1.00 16.56 LIG 0.24  C 
ATOM     23 O    GLN I 252      25.091   7.532 -19.434  1.00 16.02 LIG-0.27  OA
ATOM     24  N   GLU I 253      24.367   7.280 -17.311  1.00 16.36 LIG-0.35  N 
ATOM     25 H    GLU I 253      24.060   6.798 -16.670  1.00 16.36 LIG 0.16  HD
BRANCH 24 26
ATOM     26  CA  GLU I 253      24.549   8.684 -16.986  1.00 16.29 LIG 0.18  C 
BRANCH 26 27
ATOM     27  CB  GLU I 253      23.751   9.071 -15.736  1.00 17.20 LIG 0.04  C 
BRANCH 27 28
ATOM     28  CG  GLU I 253      24.023   8.199 -14.533  1.00 17.14 LIG 0.12  C 
BRANCH 28 29
ATOM     29  CD  GLU I 253      23.322   8.691 -13.271  1.00 16.40 LIG 0.17  C 
ATOM     30 OE2  GLU I 253      23.509   8.064 -12.202  1.00 15.77 LIG-0.65  OA
ATOM     31 OE1  GLU I 253      22.612   9.716 -13.341  1.00 15.17 LIG-0.65  OA
ENDBRANCH 28 29
ENDBRANCH 27 28
ENDBRANCH 26 27
BRANCH 26 32
ATOM     32  C   GLU I 253      26.025   8.876 -16.706  1.00 17.65 LIG 0.24  C 
ATOM     33 O    GLU I 253      26.604   9.915 -17.024  1.00 15.54 LIG-0.27  OA
ATOM     34  N   THR I 254      26.614   7.840 -16.129  1.00 18.98 LIG-0.34  N 
ATOM     35 H    THR I 254      26.190   7.119 -15.931  1.00 18.98 LIG 0.16  HD
BRANCH 34 36
ATOM     36  CA  THR I 254      28.021   7.787 -15.766  1.00 17.93 LIG 0.21  C 
BRANCH 36 37
ATOM     37  CB  THR I 254      28.151   7.158 -14.363  1.00 16.77 LIG 0.15  C 
ATOM     38  CG2 THR I 254      29.361   7.651 -13.663  1.00 17.84 LIG 0.04  C 
BRANCH 37 39
ATOM     39 OG1  THR I 254      26.967   7.422 -13.598  1.00 18.79 LIG-0.39  OA
ATOM     40 HG1  THR I 254      26.751   6.732 -13.170  1.00 18.79 LIG 0.21  HD
ENDBRANCH 37 39
ENDBRANCH 36 37
BRANCH 36 41
ATOM     41  C   THR I 254      28.841   6.986 -16.794  1.00 19.04 LIG 0.29  C 
ATOM     42 O    THR I 254      29.984   7.391 -17.075  1.00 18.19 LIG-0.27  OA
ATOM     43  N   NH2 I 255      28.350   5.950 -17.299  1.00 17.54 LIG-0.11  N 
ENDBRANCH 36 41
ENDBRANCH 34 36
ENDBRANCH 26 32
ENDBRANCH 24 26
ENDBRANCH 1 22
BRANCH 1 44
ATOM     44  CB  GLN I 252      25.736   4.615 -18.324  1.00 17.05 LIG 0.04  C 
BRANCH 44 45
ATOM     45  CG  GLN I 252      25.576   3.141 -17.987  1.00 16.15 LIG 0.10  C 
BRANCH 45 46
ATOM     46  CD  GLN I 252      26.805   2.585 -17.296  1.00 17.21 LIG 0.21  C 
ATOM     47  NE2 GLN I 252      26.691   1.374 -16.758  1.00 17.56 LIG-0.37  N 
ATOM     48 21HE GLN I 252      25.947   0.946 -16.814  1.00 17.56 LIG 0.16  HD
ATOM     49 22HE GLN I 252      27.362   1.018 -16.355  1.00 17.56 LIG 0.16  HD
ATOM     50 OE1  GLN I 252      27.842   3.236 -17.244  1.00 16.83 LIG-0.27  OA
ENDBRANCH 45 46
ENDBRANCH 44 45
ENDBRANCH 1 44
TORSDOF 18
ENDMDL
