MODEL 1
USER: ADFR SOLUTION from run 173
USER: SCORE 18.257095 LL:  -3.388 LR: -15.410 RR:   0.000 FEB:  -9.444
USER: RMSD 1.999903
USER: SEED 172
USER: STATUS no improvement in best in 3 clusters for 5 generations
USER: GENES 22
USER: genes 0 Translation |==|  0.50131 0.54854 0.55474
USER: genes 1 Rotation |==|  0.51716 0.47215 0.49770 0.99892
USER: genes 2 Torsion [C]-CA--N-[C] |==|  0.84413
USER: genes 3 Torsion [N]-C--CA-[N] |==|  0.30556
USER: genes 4 Torsion [C]-CA--N-[C] |==|  0.76035
USER: genes 5 Torsion [N]-C--CA-[CB] |==|  0.61892
USER: genes 6 Torsion [C]-CA--CB-[CG2] |==|  0.15462
USER: genes 7 Torsion [CA]-CB--CG1-[CD1] |==|  0.35901
USER: genes 8 Torsion [N]-CA--C-[N] |==|  0.45498
USER: genes 9 Torsion [C]-N--CA-[C] |==|  0.84951
USER: genes 10 Torsion [N]-CA--C-[N] |==|  0.36838
USER: genes 11 Torsion [C]-N--CA-[C] |==|  0.73549
USER: genes 12 Torsion [N]-CA--C-[O] |==|  0.16084
USER: genes 13 Torsion [N]-CA--CB-[CG] |==|  0.92161
USER: genes 14 Torsion [CA]-CB--CG-[CD] |==|  0.55991
USER: genes 15 Torsion [CB]-CG--CD-[OE1] |==|  0.50866
USER: genes 16 Torsion [N]-CA--CB-[CG] |==|  0.69649
USER: genes 17 Torsion [CA]-CB--CG-[CD] |==|  0.41665
USER: genes 18 Torsion [CB]-CG--CD-[OE1] |==|  0.98319
USER: genes 19 Torsion [N]-CA--CB-[CG] |==|  0.77243
USER: genes 20 Torsion [CA]-CB--CG-[CD] |==|  0.17283
USER: genes 21 Torsion [CB]-CG--CD-[OE1] |==|  0.61703
ROOT
ATOM      1  CA  GLN G 264      24.466  40.015  62.834  1.00 24.93 LIG 0.18  C 
ENDROOT
BRANCH 1 2
ATOM      2  N   GLN G 264      23.460  39.459  63.730  1.00 24.45 LIG-0.35  N 
ATOM      3 H    GLN G 264      23.500  39.737  64.542  1.00 24.45 LIG 0.16  HD
ATOM      4  C   ILE G 263      22.567  38.589  63.272  1.00 25.21 LIG 0.24  C 
ATOM      5 O    ILE G 263      22.558  38.205  62.101  1.00 24.71 LIG-0.27  OA
BRANCH 4 6
ATOM      6  CA  ILE G 263      21.529  38.068  64.264  1.00 25.39 LIG 0.18  C 
BRANCH 6 7
ATOM      7  N   ILE G 263      20.240  38.635  63.891  1.00 26.84 LIG-0.35  N 
ATOM      8 H    ILE G 263      19.774  38.128  63.375  1.00 26.84 LIG 0.16  HD
ATOM      9  C   PRO G 262      19.828  39.824  64.314  1.00 27.66 LIG 0.24  C 
ATOM     10 O    PRO G 262      20.486  40.532  65.071  1.00 28.28 LIG-0.27  OA
BRANCH 9 11
ATOM     11  CA  PRO G 262      18.462  40.277  63.806  1.00 28.51 LIG 0.18  C 
ATOM     12  CB  PRO G 262      18.456  41.747  63.390  1.00 28.21 LIG 0.04  C 
ATOM     13  CG  PRO G 262      18.124  42.440  64.718  1.00 28.36 LIG 0.02  C 
ATOM     14  CD  PRO G 262      16.928  41.601  65.105  1.00 29.26 LIG 0.13  C 
ATOM     15  N   PRO G 262      17.439  40.242  64.854  1.00 29.83 LIG-0.34  N 
ATOM     16  C   ACE G 261      17.082  39.086  65.431  1.00 31.20 LIG 0.22  C 
ATOM     17 O    ACE G 261      17.597  38.017  65.101  1.00 31.65 LIG-0.27  OA
ATOM     18  CH3 ACE G 261      16.016  39.126  66.510  1.00 31.68 LIG 0.12  C 
ENDBRANCH 9 11
ENDBRANCH 6 7
BRANCH 6 19
ATOM     19  CB  ILE G 263      21.489  36.525  64.198  1.00 25.89 LIG 0.01  C 
ATOM     20  CG2 ILE G 263      22.881  35.955  64.447  1.00 25.32 LIG 0.01  C 
BRANCH 19 21
ATOM     21  CG1 ILE G 263      20.477  35.989  65.219  1.00 25.77 LIG 0.00  C 
ATOM     22  CD1 ILE G 263      19.470  34.999  64.645  1.00 27.45 LIG 0.01  C 
ENDBRANCH 19 21
ENDBRANCH 6 19
ENDBRANCH 4 6
ENDBRANCH 1 2
BRANCH 1 23
ATOM     23  C   GLN G 264      25.299  38.950  62.145  1.00 25.80 LIG 0.24  C 
ATOM     24  N   GLU G 265      25.986  39.365  61.089  1.00 25.54 LIG-0.35  N 
ATOM     25 H    GLU G 265      25.959  40.169  60.786  1.00 25.54 LIG 0.16  HD
ATOM     26 O    GLN G 264      25.321  37.786  62.554  1.00 23.91 LIG-0.27  OA
BRANCH 24 27
ATOM     27  CA  GLU G 265      26.856  38.475  60.345  1.00 27.50 LIG 0.18  C 
BRANCH 27 28
ATOM     28  C   GLU G 265      27.808  37.877  61.376  1.00 28.95 LIG 0.24  C 
ATOM     29  N   GLU G 266      27.991  36.561  61.344  1.00 30.90 LIG-0.34  N 
ATOM     30 H    GLU G 266      27.602  36.024  60.798  1.00 30.90 LIG 0.16  HD
ATOM     31 O    GLU G 265      28.368  38.604  62.201  1.00 27.90 LIG-0.27  OA
BRANCH 29 32
ATOM     32  CA  GLU G 266      28.909  35.932  62.283  1.00 33.40 LIG 0.19  C 
BRANCH 32 33
ATOM     33  C   GLU G 266      30.265  35.772  61.617  1.00 34.22 LIG 0.20  C 
ATOM     34 O    GLU G 266      30.827  36.805  61.190  1.00 35.29 LIG-0.65  OA
ATOM     35 OXT  GLU G 266      30.737  34.618  61.518  1.00 35.25 LIG-0.65  OA
ENDBRANCH 32 33
BRANCH 32 36
ATOM     36  CB  GLU G 266      28.401  34.554  62.718  1.00 34.59 LIG 0.05  C 
BRANCH 36 37
ATOM     37  CG  GLU G 266      26.891  34.402  62.689  1.00 35.99 LIG 0.12  C 
BRANCH 37 38
ATOM     38  CD  GLU G 266      26.408  33.276  63.587  1.00 37.74 LIG 0.17  C 
ATOM     39 OE1  GLU G 266      25.184  33.014  63.601  1.00 38.97 LIG-0.65  OA
ATOM     40 OE2  GLU G 266      27.250  32.661  64.282  1.00 36.82 LIG-0.65  OA
ENDBRANCH 37 38
ENDBRANCH 36 37
ENDBRANCH 32 36
ENDBRANCH 29 32
ENDBRANCH 27 28
BRANCH 27 41
ATOM     41  CB  GLU G 265      27.658  39.271  59.310  1.00 27.49 LIG 0.04  C 
BRANCH 41 42
ATOM     42  CG  GLU G 265      27.228  39.008  57.870  1.00 27.71 LIG 0.12  C 
BRANCH 42 43
ATOM     43  CD  GLU G 265      27.435  40.203  56.947  1.00 28.38 LIG 0.17  C 
ATOM     44 OE1  GLU G 265      27.809  41.290  57.441  1.00 27.39 LIG-0.65  OA
ATOM     45 OE2  GLU G 265      27.195  40.054  55.726  1.00 28.48 LIG-0.65  OA
ENDBRANCH 42 43
ENDBRANCH 41 42
ENDBRANCH 27 41
ENDBRANCH 24 27
ENDBRANCH 1 23
BRANCH 1 46
ATOM     46  CB  GLN G 264      25.417  40.957  63.583  1.00 25.62 LIG 0.04  C 
BRANCH 46 47
ATOM     47  CG  GLN G 264      24.905  42.376  63.793  1.00 26.81 LIG 0.10  C 
BRANCH 47 48
ATOM     48  CD  GLN G 264      23.641  42.407  64.646  1.00 28.09 LIG 0.21  C 
ATOM     49  NE2 GLN G 264      23.616  41.605  65.709  1.00 27.12 LIG-0.37  N 
ATOM     50 21HE GLN G 264      24.291  41.103  65.884  1.00 27.12 LIG 0.16  HD
ATOM     51 22HE GLN G 264      22.925  41.590  66.220  1.00 27.12 LIG 0.16  HD
ATOM     52 OE1  GLN G 264      22.700  43.147  64.351  1.00 28.52 LIG-0.27  OA
ENDBRANCH 47 48
ENDBRANCH 46 47
ENDBRANCH 1 46
TORSDOF 20
ENDMDL
MODEL 2
USER: ADFR SOLUTION from run 185
USER: SCORE 17.052026 LL:  -2.516 LR: -15.341 RR:   0.000 FEB:  -9.375
USER: RMSD 3.920216
USER: SEED 184
USER: STATUS searching
USER: GENES 22
USER: genes 0 Translation |==|  0.52135 0.55441 0.54558
USER: genes 1 Rotation |==|  0.50920 0.46222 0.50359 0.99847
USER: genes 2 Torsion [C]-CA--N-[C] |==|  0.82000
USER: genes 3 Torsion [N]-C--CA-[N] |==|  0.32146
USER: genes 4 Torsion [C]-CA--N-[C] |==|  0.69100
USER: genes 5 Torsion [N]-C--CA-[CB] |==|  0.65176
USER: genes 6 Torsion [C]-CA--CB-[CG2] |==|  0.11757
USER: genes 7 Torsion [CA]-CB--CG1-[CD1] |==|  0.31436
USER: genes 8 Torsion [N]-CA--C-[N] |==|  0.43078
USER: genes 9 Torsion [C]-N--CA-[C] |==|  0.62303
USER: genes 10 Torsion [N]-CA--C-[N] |==|  0.83703
USER: genes 11 Torsion [C]-N--CA-[C] |==|  0.47541
USER: genes 12 Torsion [N]-CA--C-[O] |==|  0.93265
USER: genes 13 Torsion [N]-CA--CB-[CG] |==|  0.24066
USER: genes 14 Torsion [CA]-CB--CG-[CD] |==|  0.37094
USER: genes 15 Torsion [CB]-CG--CD-[OE1] |==|  0.59790
USER: genes 16 Torsion [N]-CA--CB-[CG] |==|  0.13329
USER: genes 17 Torsion [CA]-CB--CG-[CD] |==|  0.35948
USER: genes 18 Torsion [CB]-CG--CD-[OE1] |==|  0.33085
USER: genes 19 Torsion [N]-CA--CB-[CG] |==|  0.76481
USER: genes 20 Torsion [CA]-CB--CG-[CD] |==|  0.55212
USER: genes 21 Torsion [CB]-CG--CD-[OE1] |==|  0.00683
ROOT
ATOM      1  CA  GLN G 264      24.962  40.134  62.649  1.00 24.93 LIG 0.18  C 
ENDROOT
BRANCH 1 2
ATOM      2  N   GLN G 264      23.931  39.587  63.522  1.00 24.45 LIG-0.35  N 
ATOM      3 H    GLN G 264      24.003  39.801  64.351  1.00 24.45 LIG 0.16  HD
ATOM      4  C   ILE G 263      22.972  38.818  63.020  1.00 25.21 LIG 0.24  C 
ATOM      5 O    ILE G 263      22.918  38.522  61.824  1.00 24.71 LIG-0.27  OA
BRANCH 4 6
ATOM      6  CA  ILE G 263      21.913  38.300  63.991  1.00 25.39 LIG 0.18  C 
BRANCH 6 7
ATOM      7  N   ILE G 263      20.634  38.878  63.599  1.00 26.84 LIG-0.35  N 
ATOM      8 H    ILE G 263      20.333  38.580  62.851  1.00 26.84 LIG 0.16  HD
ATOM      9  C   PRO G 262      19.998  39.781  64.335  1.00 27.66 LIG 0.24  C 
ATOM     10 O    PRO G 262      20.420  40.186  65.415  1.00 28.28 LIG-0.27  OA
BRANCH 9 11
ATOM     11  CA  PRO G 262      18.682  40.301  63.764  1.00 28.51 LIG 0.18  C 
ATOM     12  CB  PRO G 262      18.658  41.826  63.657  1.00 28.21 LIG 0.04  C 
ATOM     13  CG  PRO G 262      18.140  42.222  65.046  1.00 28.36 LIG 0.02  C 
ATOM     14  CD  PRO G 262      16.946  41.296  65.102  1.00 29.26 LIG 0.13  C 
ATOM     15  N   PRO G 262      17.545  40.029  64.646  1.00 29.83 LIG-0.34  N 
ATOM     16  C   ACE G 261      17.176  38.772  64.928  1.00 31.20 LIG 0.22  C 
ATOM     17 O    ACE G 261      17.775  37.805  64.455  1.00 31.65 LIG-0.27  OA
ATOM     18  CH3 ACE G 261      15.990  38.566  65.850  1.00 31.68 LIG 0.12  C 
ENDBRANCH 9 11
ENDBRANCH 6 7
BRANCH 6 19
ATOM     19  CB  ILE G 263      21.863  36.758  63.918  1.00 25.89 LIG 0.01  C 
ATOM     20  CG2 ILE G 263      23.277  36.191  63.858  1.00 25.32 LIG 0.01  C 
BRANCH 19 21
ATOM     21  CG1 ILE G 263      21.094  36.207  65.126  1.00 25.77 LIG 0.00  C 
ATOM     22  CD1 ILE G 263      19.769  35.538  64.775  1.00 27.45 LIG 0.01  C 
ENDBRANCH 19 21
ENDBRANCH 6 19
ENDBRANCH 4 6
ENDBRANCH 1 2
BRANCH 1 23
ATOM     23  C   GLN G 264      25.843  39.064  62.030  1.00 25.80 LIG 0.24  C 
ATOM     24  N   GLU G 265      26.424  39.403  60.886  1.00 25.54 LIG-0.35  N 
ATOM     25 H    GLU G 265      26.307  40.160  60.495  1.00 25.54 LIG 0.16  HD
ATOM     26 O    GLN G 264      25.994  37.965  62.568  1.00 23.91 LIG-0.27  OA
BRANCH 24 27
ATOM     27  CA  GLU G 265      27.323  38.503  60.190  1.00 27.50 LIG 0.18  C 
BRANCH 27 28
ATOM     28  C   GLU G 265      28.509  39.361  59.758  1.00 28.95 LIG 0.24  C 
ATOM     29  N   GLU G 266      28.253  40.402  58.973  1.00 30.90 LIG-0.34  N 
ATOM     30 H    GLU G 266      27.473  40.616  58.680  1.00 30.90 LIG 0.16  HD
ATOM     31 O    GLU G 265      29.650  39.075  60.129  1.00 27.90 LIG-0.27  OA
BRANCH 29 32
ATOM     32  CA  GLU G 266      29.336  41.276  58.549  1.00 33.40 LIG 0.19  C 
BRANCH 32 33
ATOM     33  C   GLU G 266      28.813  42.239  57.497  1.00 34.22 LIG 0.20  C 
ATOM     34 O    GLU G 266      27.809  41.889  56.839  1.00 35.29 LIG-0.65  OA
ATOM     35 OXT  GLU G 266      29.424  43.318  57.335  1.00 35.25 LIG-0.65  OA
ENDBRANCH 32 33
BRANCH 32 36
ATOM     36  CB  GLU G 266      30.499  40.473  57.958  1.00 34.59 LIG 0.05  C 
BRANCH 36 37
ATOM     37  CG  GLU G 266      30.368  40.172  56.476  1.00 35.99 LIG 0.12  C 
BRANCH 37 38
ATOM     38  CD  GLU G 266      31.651  40.455  55.714  1.00 37.74 LIG 0.17  C 
ATOM     39 OE1  GLU G 266      31.561  40.900  54.548  1.00 38.97 LIG-0.65  OA
ATOM     40 OE2  GLU G 266      32.746  40.225  56.280  1.00 36.82 LIG-0.65  OA
ENDBRANCH 37 38
ENDBRANCH 36 37
ENDBRANCH 32 36
ENDBRANCH 29 32
ENDBRANCH 27 28
BRANCH 27 41
ATOM     41  CB  GLU G 265      26.630  37.926  58.950  1.00 27.49 LIG 0.04  C 
BRANCH 41 42
ATOM     42  CG  GLU G 265      25.939  38.979  58.091  1.00 27.71 LIG 0.12  C 
BRANCH 42 43
ATOM     43  CD  GLU G 265      26.309  38.899  56.615  1.00 28.38 LIG 0.17  C 
ATOM     44 OE1  GLU G 265      25.406  38.679  55.777  1.00 27.39 LIG-0.65  OA
ATOM     45 OE2  GLU G 265      27.515  39.032  56.300  1.00 28.48 LIG-0.65  OA
ENDBRANCH 42 43
ENDBRANCH 41 42
ENDBRANCH 27 41
ENDBRANCH 24 27
ENDBRANCH 1 23
BRANCH 1 46
ATOM     46  CB  GLN G 264      25.863  41.119  63.403  1.00 25.62 LIG 0.04  C 
BRANCH 46 47
ATOM     47  CG  GLN G 264      25.345  42.549  63.488  1.00 26.81 LIG 0.10  C 
BRANCH 47 48
ATOM     48  CD  GLN G 264      26.454  43.540  63.826  1.00 28.09 LIG 0.21  C 
ATOM     49  NE2 GLN G 264      26.094  44.813  63.976  1.00 27.12 LIG-0.37  N 
ATOM     50 21HE GLN G 264      25.270  45.041  63.881  1.00 27.12 LIG 0.16  HD
ATOM     51 22HE GLN G 264      26.684  45.407  64.168  1.00 27.12 LIG 0.16  HD
ATOM     52 OE1  GLN G 264      27.620  43.161  63.952  1.00 28.52 LIG-0.27  OA
ENDBRANCH 47 48
ENDBRANCH 46 47
ENDBRANCH 1 46
TORSDOF 20
ENDMDL
MODEL 3
USER: ADFR SOLUTION from run 47
USER: SCORE 17.329332 LL:  -3.271 LR: -15.241 RR:   0.000 FEB:  -9.275
USER: RMSD 4.748831
USER: SEED 46
USER: STATUS no improvement in best in 9 clusters for 5 generations
USER: GENES 22
USER: genes 0 Translation |==|  0.48253 0.57318 0.58161
USER: genes 1 Rotation |==|  0.47406 0.41221 0.57547 0.98572
USER: genes 2 Torsion [C]-CA--N-[C] |==|  0.81324
USER: genes 3 Torsion [N]-C--CA-[N] |==|  0.25862
USER: genes 4 Torsion [C]-CA--N-[C] |==|  0.78886
USER: genes 5 Torsion [N]-C--CA-[CB] |==|  0.57114
USER: genes 6 Torsion [C]-CA--CB-[CG2] |==|  0.15220
USER: genes 7 Torsion [CA]-CB--CG1-[CD1] |==|  0.40474
USER: genes 8 Torsion [N]-CA--C-[N] |==|  0.33336
USER: genes 9 Torsion [C]-N--CA-[C] |==|  0.62734
USER: genes 10 Torsion [N]-CA--C-[N] |==|  0.75741
USER: genes 11 Torsion [C]-N--CA-[C] |==|  0.47454
USER: genes 12 Torsion [N]-CA--C-[O] |==|  0.43322
USER: genes 13 Torsion [N]-CA--CB-[CG] |==|  0.65195
USER: genes 14 Torsion [CA]-CB--CG-[CD] |==|  0.82679
USER: genes 15 Torsion [CB]-CG--CD-[OE1] |==|  0.26810
USER: genes 16 Torsion [N]-CA--CB-[CG] |==|  0.66974
USER: genes 17 Torsion [CA]-CB--CG-[CD] |==|  0.34680
USER: genes 18 Torsion [CB]-CG--CD-[OE1] |==|  0.97123
USER: genes 19 Torsion [N]-CA--CB-[CG] |==|  0.04263
USER: genes 20 Torsion [CA]-CB--CG-[CD] |==|  0.73089
USER: genes 21 Torsion [CB]-CG--CD-[OE1] |==|  0.00832
ROOT
ATOM      1  CA  GLN G 264      24.002  40.514  63.379  1.00 24.93 LIG 0.18  C 
ENDROOT
BRANCH 1 2
ATOM      2  N   GLN G 264      22.970  39.812  64.133  1.00 24.45 LIG-0.35  N 
ATOM      3 H    GLN G 264      22.819  40.123  64.920  1.00 24.45 LIG 0.16  HD
ATOM      4  C   ILE G 263      22.341  38.774  63.595  1.00 25.21 LIG 0.24  C 
ATOM      5 O    ILE G 263      22.604  38.353  62.467  1.00 24.71 LIG-0.27  OA
BRANCH 4 6
ATOM      6  CA  ILE G 263      21.256  38.104  64.436  1.00 25.39 LIG 0.18  C 
BRANCH 6 7
ATOM      7  N   ILE G 263      19.982  38.717  64.082  1.00 26.84 LIG-0.35  N 
ATOM      8 H    ILE G 263      19.490  38.226  63.576  1.00 26.84 LIG 0.16  HD
ATOM      9  C   PRO G 262      19.622  39.922  64.506  1.00 27.66 LIG 0.24  C 
ATOM     10 O    PRO G 262      20.318  40.609  65.248  1.00 28.28 LIG-0.27  OA
BRANCH 9 11
ATOM     11  CA  PRO G 262      18.265  40.423  64.019  1.00 28.51 LIG 0.18  C 
ATOM     12  CB  PRO G 262      18.184  41.949  63.996  1.00 28.21 LIG 0.04  C 
ATOM     13  CG  PRO G 262      17.715  42.253  65.425  1.00 28.36 LIG 0.02  C 
ATOM     14  CD  PRO G 262      16.557  41.282  65.480  1.00 29.26 LIG 0.13  C 
ATOM     15  N   PRO G 262      17.178  40.063  64.932  1.00 29.83 LIG-0.34  N 
ATOM     16  C   ACE G 261      16.865  38.781  65.160  1.00 31.20 LIG 0.22  C 
ATOM     17 O    ACE G 261      17.475  37.862  64.611  1.00 31.65 LIG-0.27  OA
ATOM     18  CH3 ACE G 261      15.728  38.483  66.119  1.00 31.68 LIG 0.12  C 
ENDBRANCH 9 11
ENDBRANCH 6 7
BRANCH 6 19
ATOM     19  CB  ILE G 263      21.239  36.589  64.134  1.00 25.89 LIG 0.01  C 
ATOM     20  CG2 ILE G 263      22.627  35.997  64.351  1.00 25.32 LIG 0.01  C 
BRANCH 19 21
ATOM     21  CG1 ILE G 263      20.194  35.897  65.019  1.00 25.77 LIG 0.00  C 
ATOM     22  CD1 ILE G 263      19.488  34.720  64.355  1.00 27.45 LIG 0.01  C 
ENDBRANCH 19 21
ENDBRANCH 6 19
ENDBRANCH 4 6
ENDBRANCH 1 2
BRANCH 1 23
ATOM     23  C   GLN G 264      25.240  39.669  63.141  1.00 25.80 LIG 0.24  C 
ATOM     24  N   GLU G 265      25.544  39.459  61.867  1.00 25.54 LIG-0.35  N 
ATOM     25 H    GLU G 265      25.076  39.752  61.208  1.00 25.54 LIG 0.16  HD
ATOM     26 O    GLN G 264      25.901  39.220  64.080  1.00 23.91 LIG-0.27  OA
BRANCH 24 27
ATOM     27  CA  GLU G 265      26.718  38.701  61.478  1.00 27.50 LIG 0.18  C 
BRANCH 27 28
ATOM     28  C   GLU G 265      27.382  39.515  60.371  1.00 28.95 LIG 0.24  C 
ATOM     29  N   GLU G 266      26.968  39.302  59.126  1.00 30.90 LIG-0.34  N 
ATOM     30 H    GLU G 266      26.367  38.730  58.900  1.00 30.90 LIG 0.16  HD
ATOM     31 O    GLU G 265      28.271  40.326  60.644  1.00 27.90 LIG-0.27  OA
BRANCH 29 32
ATOM     32  CA  GLU G 266      27.542  40.066  58.028  1.00 33.40 LIG 0.19  C 
BRANCH 32 33
ATOM     33  C   GLU G 266      27.066  39.475  56.712  1.00 34.22 LIG 0.20  C 
ATOM     34 O    GLU G 266      27.059  40.222  55.710  1.00 35.29 LIG-0.65  OA
ATOM     35 OXT  GLU G 266      26.693  38.281  56.707  1.00 35.25 LIG-0.65  OA
ENDBRANCH 32 33
BRANCH 32 36
ATOM     36  CB  GLU G 266      29.072  40.032  58.068  1.00 34.59 LIG 0.05  C 
BRANCH 36 37
ATOM     37  CG  GLU G 266      29.732  41.398  58.075  1.00 35.99 LIG 0.12  C 
BRANCH 37 38
ATOM     38  CD  GLU G 266      29.428  42.192  56.816  1.00 37.74 LIG 0.17  C 
ATOM     39 OE1  GLU G 266      28.492  43.023  56.852  1.00 38.97 LIG-0.65  OA
ATOM     40 OE2  GLU G 266      30.120  41.980  55.793  1.00 36.82 LIG-0.65  OA
ENDBRANCH 37 38
ENDBRANCH 36 37
ENDBRANCH 32 36
ENDBRANCH 29 32
ENDBRANCH 27 28
BRANCH 27 41
ATOM     41  CB  GLU G 265      26.299  37.334  60.926  1.00 27.49 LIG 0.04  C 
BRANCH 41 42
ATOM     42  CG  GLU G 265      26.847  36.157  61.726  1.00 27.71 LIG 0.12  C 
BRANCH 42 43
ATOM     43  CD  GLU G 265      25.768  35.198  62.213  1.00 28.38 LIG 0.17  C 
ATOM     44 OE1  GLU G 265      24.567  35.535  62.105  1.00 27.39 LIG-0.65  OA
ATOM     45 OE2  GLU G 265      26.129  34.115  62.729  1.00 28.48 LIG-0.65  OA
ENDBRANCH 42 43
ENDBRANCH 41 42
ENDBRANCH 27 41
ENDBRANCH 24 27
ENDBRANCH 1 23
BRANCH 1 46
ATOM     46  CB  GLN G 264      24.430  41.803  64.089  1.00 25.62 LIG 0.04  C 
BRANCH 46 47
ATOM     47  CG  GLN G 264      24.008  41.920  65.548  1.00 26.81 LIG 0.10  C 
BRANCH 47 48
ATOM     48  CD  GLN G 264      22.727  42.731  65.710  1.00 28.09 LIG 0.21  C 
ATOM     49  NE2 GLN G 264      22.308  42.946  66.955  1.00 27.12 LIG-0.37  N 
ATOM     50 21HE GLN G 264      22.754  42.632  67.620  1.00 27.12 LIG 0.16  HD
ATOM     51 22HE GLN G 264      21.592  43.400  67.096  1.00 27.12 LIG 0.16  HD
ATOM     52 OE1  GLN G 264      22.124  43.160  64.724  1.00 28.52 LIG-0.27  OA
ENDBRANCH 47 48
ENDBRANCH 46 47
ENDBRANCH 1 46
TORSDOF 20
ENDMDL
MODEL 4
USER: ADFR SOLUTION from run 151
USER: SCORE 17.401470 LL:  -3.570 LR: -14.510 RR:   0.000 FEB:  -8.544
USER: RMSD 4.660647
USER: SEED 150
USER: STATUS searching
USER: GENES 22
USER: genes 0 Translation |==|  0.48630 0.55235 0.57801
USER: genes 1 Rotation |==|  0.43581 0.40208 0.59103 0.97750
USER: genes 2 Torsion [C]-CA--N-[C] |==|  0.77222
USER: genes 3 Torsion [N]-C--CA-[N] |==|  0.27663
USER: genes 4 Torsion [C]-CA--N-[C] |==|  0.77768
USER: genes 5 Torsion [N]-C--CA-[CB] |==|  0.65584
USER: genes 6 Torsion [C]-CA--CB-[CG2] |==|  0.14542
USER: genes 7 Torsion [CA]-CB--CG1-[CD1] |==|  0.35260
USER: genes 8 Torsion [N]-CA--C-[N] |==|  0.18483
USER: genes 9 Torsion [C]-N--CA-[C] |==|  0.73065
USER: genes 10 Torsion [N]-CA--C-[N] |==|  0.30025
USER: genes 11 Torsion [C]-N--CA-[C] |==|  0.48802
USER: genes 12 Torsion [N]-CA--C-[O] |==|  0.90688
USER: genes 13 Torsion [N]-CA--CB-[CG] |==|  0.42020
USER: genes 14 Torsion [CA]-CB--CG-[CD] |==|  0.40971
USER: genes 15 Torsion [CB]-CG--CD-[OE1] |==|  0.36141
USER: genes 16 Torsion [N]-CA--CB-[CG] |==|  0.70019
USER: genes 17 Torsion [CA]-CB--CG-[CD] |==|  0.54181
USER: genes 18 Torsion [CB]-CG--CD-[OE1] |==|  0.32370
USER: genes 19 Torsion [N]-CA--CB-[CG] |==|  0.08513
USER: genes 20 Torsion [CA]-CB--CG-[CD] |==|  0.70640
USER: genes 21 Torsion [CB]-CG--CD-[OE1] |==|  0.98682
ROOT
ATOM      1  CA  GLN G 264      24.095  40.092  63.306  1.00 24.93 LIG 0.18  C 
ENDROOT
BRANCH 1 2
ATOM      2  N   GLN G 264      23.040  39.468  64.095  1.00 24.45 LIG-0.35  N 
ATOM      3 H    GLN G 264      22.959  39.767  64.897  1.00 24.45 LIG 0.16  HD
ATOM      4  C   ILE G 263      22.287  38.512  63.564  1.00 25.21 LIG 0.24  C 
ATOM      5 O    ILE G 263      22.451  38.103  62.413  1.00 24.71 LIG-0.27  OA
BRANCH 4 6
ATOM      6  CA  ILE G 263      21.187  37.922  64.444  1.00 25.39 LIG 0.18  C 
BRANCH 6 7
ATOM      7  N   ILE G 263      19.931  38.556  64.064  1.00 26.84 LIG-0.35  N 
ATOM      8 H    ILE G 263      19.444  38.077  63.542  1.00 26.84 LIG 0.16  HD
ATOM      9  C   PRO G 262      19.578  39.762  64.490  1.00 27.66 LIG 0.24  C 
ATOM     10 O    PRO G 262      20.265  40.432  65.256  1.00 28.28 LIG-0.27  OA
BRANCH 9 11
ATOM     11  CA  PRO G 262      18.241  40.288  63.975  1.00 28.51 LIG 0.18  C 
ATOM     12  CB  PRO G 262      18.380  41.636  63.270  1.00 28.21 LIG 0.04  C 
ATOM     13  CG  PRO G 262      18.241  42.612  64.446  1.00 28.36 LIG 0.02  C 
ATOM     14  CD  PRO G 262      16.985  42.032  65.058  1.00 29.26 LIG 0.13  C 
ATOM     15  N   PRO G 262      17.307  40.594  65.061  1.00 29.83 LIG-0.34  N 
ATOM     16  C   ACE G 261      16.860  39.632  65.879  1.00 31.20 LIG 0.22  C 
ATOM     17 O    ACE G 261      17.214  38.459  65.746  1.00 31.65 LIG-0.27  OA
ATOM     18  CH3 ACE G 261      15.895  40.023  66.982  1.00 31.68 LIG 0.12  C 
ENDBRANCH 9 11
ENDBRANCH 6 7
BRANCH 6 19
ATOM     19  CB  ILE G 263      21.119  36.394  64.221  1.00 25.89 LIG 0.01  C 
ATOM     20  CG2 ILE G 263      22.501  35.778  64.403  1.00 25.32 LIG 0.01  C 
BRANCH 19 21
ATOM     21  CG1 ILE G 263      20.101  35.775  65.188  1.00 25.77 LIG 0.00  C 
ATOM     22  CD1 ILE G 263      19.040  34.911  64.515  1.00 27.45 LIG 0.01  C 
ENDBRANCH 19 21
ENDBRANCH 6 19
ENDBRANCH 4 6
ENDBRANCH 1 2
BRANCH 1 23
ATOM     23  C   GLN G 264      25.376  39.278  63.279  1.00 25.80 LIG 0.24  C 
ATOM     24  N   GLU G 265      25.292  38.113  62.651  1.00 25.54 LIG-0.35  N 
ATOM     25 H    GLU G 265      24.569  37.811  62.296  1.00 25.54 LIG 0.16  HD
ATOM     26 O    GLN G 264      26.410  39.689  63.811  1.00 23.91 LIG-0.27  OA
BRANCH 24 27
ATOM     27  CA  GLU G 265      26.438  37.237  62.510  1.00 27.50 LIG 0.18  C 
BRANCH 27 28
ATOM     28  C   GLU G 265      27.006  37.526  61.123  1.00 28.95 LIG 0.24  C 
ATOM     29  N   GLU G 266      28.157  38.187  61.062  1.00 30.90 LIG-0.34  N 
ATOM     30 H    GLU G 266      28.594  38.475  61.744  1.00 30.90 LIG 0.16  HD
ATOM     31 O    GLU G 265      26.399  37.157  60.114  1.00 27.90 LIG-0.27  OA
BRANCH 29 32
ATOM     32  CA  GLU G 266      28.766  38.469  59.770  1.00 33.40 LIG 0.19  C 
BRANCH 32 33
ATOM     33  C   GLU G 266      30.006  39.320  59.983  1.00 34.22 LIG 0.20  C 
ATOM     34 O    GLU G 266      29.991  40.141  60.925  1.00 35.29 LIG-0.65  OA
ATOM     35 OXT  GLU G 266      30.964  39.167  59.194  1.00 35.25 LIG-0.65  OA
ENDBRANCH 32 33
BRANCH 32 36
ATOM     36  CB  GLU G 266      27.797  39.216  58.851  1.00 34.59 LIG 0.05  C 
BRANCH 36 37
ATOM     37  CG  GLU G 266      28.466  40.124  57.835  1.00 35.99 LIG 0.12  C 
BRANCH 37 38
ATOM     38  CD  GLU G 266      27.684  40.210  56.535  1.00 37.74 LIG 0.17  C 
ATOM     39 OE1  GLU G 266      27.436  41.345  56.068  1.00 38.97 LIG-0.65  OA
ATOM     40 OE2  GLU G 266      27.314  39.146  55.988  1.00 36.82 LIG-0.65  OA
ENDBRANCH 37 38
ENDBRANCH 36 37
ENDBRANCH 32 36
ENDBRANCH 29 32
ENDBRANCH 27 28
BRANCH 27 41
ATOM     41  CB  GLU G 265      25.991  35.773  62.584  1.00 27.49 LIG 0.04  C 
BRANCH 41 42
ATOM     42  CG  GLU G 265      26.394  35.076  63.879  1.00 27.71 LIG 0.12  C 
BRANCH 42 43
ATOM     43  CD  GLU G 265      26.281  33.558  63.813  1.00 28.38 LIG 0.17  C 
ATOM     44 OE1  GLU G 265      27.320  32.870  63.933  1.00 27.39 LIG-0.65  OA
ATOM     45 OE2  GLU G 265      25.150  33.057  63.615  1.00 28.48 LIG-0.65  OA
ENDBRANCH 42 43
ENDBRANCH 41 42
ENDBRANCH 27 41
ENDBRANCH 24 27
ENDBRANCH 1 23
BRANCH 1 46
ATOM     46  CB  GLN G 264      24.428  41.493  63.832  1.00 25.62 LIG 0.04  C 
BRANCH 46 47
ATOM     47  CG  GLN G 264      24.235  41.695  65.329  1.00 26.81 LIG 0.10  C 
BRANCH 47 48
ATOM     48  CD  GLN G 264      22.991  42.522  65.639  1.00 28.09 LIG 0.21  C 
ATOM     49  NE2 GLN G 264      22.680  42.676  66.924  1.00 27.12 LIG-0.37  N 
ATOM     50 21HE GLN G 264      23.171  42.316  67.532  1.00 27.12 LIG 0.16  HD
ATOM     51 22HE GLN G 264      21.988  43.135  67.147  1.00 27.12 LIG 0.16  HD
ATOM     52 OE1  GLN G 264      22.321  43.017  64.730  1.00 28.52 LIG-0.27  OA
ENDBRANCH 47 48
ENDBRANCH 46 47
ENDBRANCH 1 46
TORSDOF 20
ENDMDL
MODEL 5
USER: ADFR SOLUTION from run 156
USER: SCORE 16.677819 LL:  -3.010 LR: -14.498 RR:   0.000 FEB:  -8.532
USER: RMSD 3.930778
USER: SEED 155
USER: STATUS no improvement in best in 6 clusters for 5 generations
USER: GENES 22
USER: genes 0 Translation |==|  0.48821 0.55868 0.55331
USER: genes 1 Rotation |==|  0.46709 0.44480 0.55716 0.99255
USER: genes 2 Torsion [C]-CA--N-[C] |==|  0.82300
USER: genes 3 Torsion [N]-C--CA-[N] |==|  0.26710
USER: genes 4 Torsion [C]-CA--N-[C] |==|  0.77091
USER: genes 5 Torsion [N]-C--CA-[CB] |==|  0.56120
USER: genes 6 Torsion [C]-CA--CB-[CG2] |==|  0.14267
USER: genes 7 Torsion [CA]-CB--CG1-[CD1] |==|  0.32227
USER: genes 8 Torsion [N]-CA--C-[N] |==|  0.39141
USER: genes 9 Torsion [C]-N--CA-[C] |==|  0.70422
USER: genes 10 Torsion [N]-CA--C-[N] |==|  0.54949
USER: genes 11 Torsion [C]-N--CA-[C] |==|  0.15560
USER: genes 12 Torsion [N]-CA--C-[O] |==|  0.09969
USER: genes 13 Torsion [N]-CA--CB-[CG] |==|  0.80183
USER: genes 14 Torsion [CA]-CB--CG-[CD] |==|  0.43355
USER: genes 15 Torsion [CB]-CG--CD-[OE1] |==|  0.08771
USER: genes 16 Torsion [N]-CA--CB-[CG] |==|  0.14529
USER: genes 17 Torsion [CA]-CB--CG-[CD] |==|  0.37462
USER: genes 18 Torsion [CB]-CG--CD-[OE1] |==|  0.85221
USER: genes 19 Torsion [N]-CA--CB-[CG] |==|  0.03371
USER: genes 20 Torsion [CA]-CB--CG-[CD] |==|  0.78065
USER: genes 21 Torsion [CB]-CG--CD-[OE1] |==|  0.88885
ROOT
ATOM      1  CA  GLN G 264      24.142  40.220  62.806  1.00 24.93 LIG 0.18  C 
ENDROOT
BRANCH 1 2
ATOM      2  N   GLN G 264      23.157  39.634  63.705  1.00 24.45 LIG-0.35  N 
ATOM      3 H    GLN G 264      23.098  40.008  64.477  1.00 24.45 LIG 0.16  HD
ATOM      4  C   ILE G 263      22.428  38.596  63.311  1.00 25.21 LIG 0.24  C 
ATOM      5 O    ILE G 263      22.559  38.080  62.200  1.00 24.71 LIG-0.27  OA
BRANCH 4 6
ATOM      6  CA  ILE G 263      21.400  38.050  64.300  1.00 25.39 LIG 0.18  C 
BRANCH 6 7
ATOM      7  N   ILE G 263      20.113  38.650  63.974  1.00 26.84 LIG-0.35  N 
ATOM      8 H    ILE G 263      19.609  38.150  63.489  1.00 26.84 LIG 0.16  HD
ATOM      9  C   PRO G 262      19.757  39.858  64.393  1.00 27.66 LIG 0.24  C 
ATOM     10 O    PRO G 262      20.470  40.559  65.106  1.00 28.28 LIG-0.27  OA
BRANCH 9 11
ATOM     11  CA  PRO G 262      18.384  40.345  63.938  1.00 28.51 LIG 0.18  C 
ATOM     12  CB  PRO G 262      18.264  41.868  63.981  1.00 28.21 LIG 0.04  C 
ATOM     13  CG  PRO G 262      17.800  42.098  65.426  1.00 28.36 LIG 0.02  C 
ATOM     14  CD  PRO G 262      16.667  41.096  65.448  1.00 29.26 LIG 0.13  C 
ATOM     15  N   PRO G 262      17.314  39.919  64.843  1.00 29.83 LIG-0.34  N 
ATOM     16  C   ACE G 261      17.036  38.620  65.018  1.00 31.20 LIG 0.22  C 
ATOM     17 O    ACE G 261      17.664  37.742  64.425  1.00 31.65 LIG-0.27  OA
ATOM     18  CH3 ACE G 261      15.915  38.252  65.972  1.00 31.68 LIG 0.12  C 
ENDBRANCH 9 11
ENDBRANCH 6 7
BRANCH 6 19
ATOM     19  CB  ILE G 263      21.336  36.511  64.173  1.00 25.89 LIG 0.01  C 
ATOM     20  CG2 ILE G 263      22.738  35.920  64.267  1.00 25.32 LIG 0.01  C 
BRANCH 19 21
ATOM     21  CG1 ILE G 263      20.416  35.940  65.260  1.00 25.77 LIG 0.00  C 
ATOM     22  CD1 ILE G 263      19.167  35.248  64.726  1.00 27.45 LIG 0.01  C 
ENDBRANCH 19 21
ENDBRANCH 6 19
ENDBRANCH 4 6
ENDBRANCH 1 2
BRANCH 1 23
ATOM     23  C   GLN G 264      25.265  39.263  62.451  1.00 25.80 LIG 0.24  C 
ATOM     24  N   GLU G 265      25.677  39.317  61.192  1.00 25.54 LIG-0.35  N 
ATOM     25 H    GLU G 265      25.333  39.834  60.597  1.00 25.54 LIG 0.16  HD
ATOM     26 O    GLN G 264      25.746  38.497  63.290  1.00 23.91 LIG-0.27  OA
BRANCH 24 27
ATOM     27  CA  GLU G 265      26.766  38.491  60.708  1.00 27.50 LIG 0.18  C 
BRANCH 27 28
ATOM     28  C   GLU G 265      27.953  39.434  60.536  1.00 28.95 LIG 0.24  C 
ATOM     29  N   GLU G 266      28.957  39.017  59.773  1.00 30.90 LIG-0.34  N 
ATOM     30 H    GLU G 266      28.993  38.251  59.384  1.00 30.90 LIG 0.16  HD
ATOM     31 O    GLU G 265      27.960  40.532  61.099  1.00 27.90 LIG-0.27  OA
BRANCH 29 32
ATOM     32  CA  GLU G 266      30.106  39.881  59.546  1.00 33.40 LIG 0.19  C 
BRANCH 32 33
ATOM     33  C   GLU G 266      30.698  40.280  60.887  1.00 34.22 LIG 0.20  C 
ATOM     34 O    GLU G 266      30.683  39.430  61.803  1.00 35.29 LIG-0.65  OA
ATOM     35 OXT  GLU G 266      31.150  41.440  61.006  1.00 35.25 LIG-0.65  OA
ENDBRANCH 32 33
BRANCH 32 36
ATOM     36  CB  GLU G 266      29.707  41.145  58.779  1.00 34.59 LIG 0.05  C 
BRANCH 36 37
ATOM     37  CG  GLU G 266      29.361  40.914  57.320  1.00 35.99 LIG 0.12  C 
BRANCH 37 38
ATOM     38  CD  GLU G 266      28.451  41.996  56.765  1.00 37.74 LIG 0.17  C 
ATOM     39 OE1  GLU G 266      28.559  43.155  57.226  1.00 38.97 LIG-0.65  OA
ATOM     40 OE2  GLU G 266      27.626  41.685  55.875  1.00 36.82 LIG-0.65  OA
ENDBRANCH 37 38
ENDBRANCH 36 37
ENDBRANCH 32 36
ENDBRANCH 29 32
ENDBRANCH 27 28
BRANCH 27 41
ATOM     41  CB  GLU G 265      26.397  37.881  59.351  1.00 27.49 LIG 0.04  C 
BRANCH 41 42
ATOM     42  CG  GLU G 265      25.931  38.908  58.325  1.00 27.71 LIG 0.12  C 
BRANCH 42 43
ATOM     43  CD  GLU G 265      26.552  38.717  56.947  1.00 28.38 LIG 0.17  C 
ATOM     44 OE1  GLU G 265      27.799  38.650  56.851  1.00 27.39 LIG-0.65  OA
ATOM     45 OE2  GLU G 265      25.788  38.659  55.956  1.00 28.48 LIG-0.65  OA
ENDBRANCH 42 43
ENDBRANCH 41 42
ENDBRANCH 27 41
ENDBRANCH 24 27
ENDBRANCH 1 23
BRANCH 1 46
ATOM     46  CB  GLN G 264      24.763  41.485  63.410  1.00 25.62 LIG 0.04  C 
BRANCH 46 47
ATOM     47  CG  GLN G 264      24.473  41.717  64.887  1.00 26.81 LIG 0.10  C 
BRANCH 47 48
ATOM     48  CD  GLN G 264      23.080  42.297  65.112  1.00 28.09 LIG 0.21  C 
ATOM     49  NE2 GLN G 264      22.400  41.828  66.156  1.00 27.12 LIG-0.37  N 
ATOM     50 21HE GLN G 264      22.749  41.228  66.663  1.00 27.12 LIG 0.16  HD
ATOM     51 22HE GLN G 264      21.611  42.126  66.324  1.00 27.12 LIG 0.16  HD
ATOM     52 OE1  GLN G 264      22.626  43.157  64.355  1.00 28.52 LIG-0.27  OA
ENDBRANCH 47 48
ENDBRANCH 46 47
ENDBRANCH 1 46
TORSDOF 20
ENDMDL
MODEL 6
USER: ADFR SOLUTION from run 171
USER: SCORE 17.334149 LL:  -3.271 LR: -14.340 RR:   0.000 FEB:  -8.374
USER: RMSD 1.678215
USER: SEED 170
USER: STATUS 1 or 2 clusters left
USER: GENES 22
USER: genes 0 Translation |==|  0.49784 0.54593 0.54296
USER: genes 1 Rotation |==|  0.49798 0.47757 0.49829 0.99949
USER: genes 2 Torsion [C]-CA--N-[C] |==|  0.85512
USER: genes 3 Torsion [N]-C--CA-[N] |==|  0.29059
USER: genes 4 Torsion [C]-CA--N-[C] |==|  0.74430
USER: genes 5 Torsion [N]-C--CA-[CB] |==|  0.62747
USER: genes 6 Torsion [C]-CA--CB-[CG2] |==|  0.16191
USER: genes 7 Torsion [CA]-CB--CG1-[CD1] |==|  0.32484
USER: genes 8 Torsion [N]-CA--C-[N] |==|  0.39967
USER: genes 9 Torsion [C]-N--CA-[C] |==|  0.81531
USER: genes 10 Torsion [N]-CA--C-[N] |==|  0.42105
USER: genes 11 Torsion [C]-N--CA-[C] |==|  0.77949
USER: genes 12 Torsion [N]-CA--C-[O] |==|  0.96258
USER: genes 13 Torsion [N]-CA--CB-[CG] |==|  0.25083
USER: genes 14 Torsion [CA]-CB--CG-[CD] |==|  0.52437
USER: genes 15 Torsion [CB]-CG--CD-[OE1] |==|  0.39702
USER: genes 16 Torsion [N]-CA--CB-[CG] |==|  0.19823
USER: genes 17 Torsion [CA]-CB--CG-[CD] |==|  0.49766
USER: genes 18 Torsion [CB]-CG--CD-[OE1] |==|  0.91771
USER: genes 19 Torsion [N]-CA--CB-[CG] |==|  0.78335
USER: genes 20 Torsion [CA]-CB--CG-[CD] |==|  0.19063
USER: genes 21 Torsion [CB]-CG--CD-[OE1] |==|  0.60548
ROOT
ATOM      1  CA  GLN G 264      24.381  39.962  62.596  1.00 24.93 LIG 0.18  C 
ENDROOT
BRANCH 1 2
ATOM      2  N   GLN G 264      23.394  39.479  63.553  1.00 24.45 LIG-0.35  N 
ATOM      3 H    GLN G 264      23.418  39.856  64.325  1.00 24.45 LIG 0.16  HD
ATOM      4  C   ILE G 263      22.541  38.521  63.206  1.00 25.21 LIG 0.24  C 
ATOM      5 O    ILE G 263      22.555  37.996  62.092  1.00 24.71 LIG-0.27  OA
BRANCH 4 6
ATOM      6  CA  ILE G 263      21.521  38.082  64.255  1.00 25.39 LIG 0.18  C 
BRANCH 6 7
ATOM      7  N   ILE G 263      20.233  38.652  63.883  1.00 26.84 LIG-0.35  N 
ATOM      8 H    ILE G 263      19.776  38.159  63.346  1.00 26.84 LIG 0.16  HD
ATOM      9  C   PRO G 262      19.809  39.827  64.334  1.00 27.66 LIG 0.24  C 
ATOM     10 O    PRO G 262      20.454  40.517  65.119  1.00 28.28 LIG-0.27  OA
BRANCH 9 11
ATOM     11  CA  PRO G 262      18.447  40.287  63.823  1.00 28.51 LIG 0.18  C 
ATOM     12  CB  PRO G 262      18.457  41.749  63.378  1.00 28.21 LIG 0.04  C 
ATOM     13  CG  PRO G 262      18.139  42.472  64.694  1.00 28.36 LIG 0.02  C 
ATOM     14  CD  PRO G 262      16.934  41.654  65.101  1.00 29.26 LIG 0.13  C 
ATOM     15  N   PRO G 262      17.428  40.284  64.875  1.00 29.83 LIG-0.34  N 
ATOM     16  C   ACE G 261      17.059  39.145  65.476  1.00 31.20 LIG 0.22  C 
ATOM     17 O    ACE G 261      17.560  38.063  65.165  1.00 31.65 LIG-0.27  OA
ATOM     18  CH3 ACE G 261      15.998  39.218  66.557  1.00 31.68 LIG 0.12  C 
ENDBRANCH 9 11
ENDBRANCH 6 7
BRANCH 6 19
ATOM     19  CB  ILE G 263      21.450  36.539  64.284  1.00 25.89 LIG 0.01  C 
ATOM     20  CG2 ILE G 263      22.825  35.958  64.595  1.00 25.32 LIG 0.01  C 
BRANCH 19 21
ATOM     21  CG1 ILE G 263      20.408  36.089  65.316  1.00 25.77 LIG 0.00  C 
ATOM     22  CD1 ILE G 263      19.227  35.326  64.726  1.00 27.45 LIG 0.01  C 
ENDBRANCH 19 21
ENDBRANCH 6 19
ENDBRANCH 4 6
ENDBRANCH 1 2
BRANCH 1 23
ATOM     23  C   GLN G 264      25.198  38.845  61.972  1.00 25.80 LIG 0.24  C 
ATOM     24  N   GLU G 265      25.517  39.024  60.697  1.00 25.54 LIG-0.35  N 
ATOM     25 H    GLU G 265      25.272  39.704  60.232  1.00 25.54 LIG 0.16  HD
ATOM     26 O    GLN G 264      25.529  37.851  62.622  1.00 23.91 LIG-0.27  OA
BRANCH 24 27
ATOM     27  CA  GLU G 265      26.325  38.063  59.971  1.00 27.50 LIG 0.18  C 
BRANCH 27 28
ATOM     28  C   GLU G 265      27.705  38.115  60.618  1.00 28.95 LIG 0.24  C 
ATOM     29  N   GLU G 266      28.440  37.009  60.574  1.00 30.90 LIG-0.34  N 
ATOM     30 H    GLU G 266      28.189  36.266  60.222  1.00 30.90 LIG 0.16  HD
ATOM     31 O    GLU G 265      28.098  39.151  61.161  1.00 27.90 LIG-0.27  OA
BRANCH 29 32
ATOM     32  CA  GLU G 266      29.778  37.002  61.148  1.00 33.40 LIG 0.19  C 
BRANCH 32 33
ATOM     33  C   GLU G 266      30.739  37.658  60.172  1.00 34.22 LIG 0.20  C 
ATOM     34 O    GLU G 266      30.340  37.845  59.002  1.00 35.29 LIG-0.65  OA
ATOM     35 OXT  GLU G 266      31.880  37.958  60.587  1.00 35.25 LIG-0.65  OA
ENDBRANCH 32 33
BRANCH 32 36
ATOM     36  CB  GLU G 266      30.252  35.574  61.434  1.00 34.59 LIG 0.05  C 
BRANCH 36 37
ATOM     37  CG  GLU G 266      30.997  34.916  60.287  1.00 35.99 LIG 0.12  C 
BRANCH 37 38
ATOM     38  CD  GLU G 266      31.257  33.441  60.539  1.00 37.74 LIG 0.17  C 
ATOM     39 OE1  GLU G 266      31.184  32.653  59.569  1.00 38.97 LIG-0.65  OA
ATOM     40 OE2  GLU G 266      31.526  33.071  61.705  1.00 36.82 LIG-0.65  OA
ENDBRANCH 37 38
ENDBRANCH 36 37
ENDBRANCH 32 36
ENDBRANCH 29 32
ENDBRANCH 27 28
BRANCH 27 41
ATOM     41  CB  GLU G 265      26.434  38.478  58.499  1.00 27.49 LIG 0.04  C 
BRANCH 41 42
ATOM     42  CG  GLU G 265      27.311  39.705  58.273  1.00 27.71 LIG 0.12  C 
BRANCH 42 43
ATOM     43  CD  GLU G 265      27.434  40.102  56.807  1.00 28.38 LIG 0.17  C 
ATOM     44 OE1  GLU G 265      27.353  39.211  55.931  1.00 27.39 LIG-0.65  OA
ATOM     45 OE2  GLU G 265      27.638  41.308  56.536  1.00 28.48 LIG-0.65  OA
ENDBRANCH 42 43
ENDBRANCH 41 42
ENDBRANCH 27 41
ENDBRANCH 24 27
ENDBRANCH 1 23
BRANCH 1 46
ATOM     46  CB  GLN G 264      25.347  40.956  63.249  1.00 25.62 LIG 0.04  C 
BRANCH 46 47
ATOM     47  CG  GLN G 264      24.806  42.366  63.446  1.00 26.81 LIG 0.10  C 
BRANCH 47 48
ATOM     48  CD  GLN G 264      23.702  42.413  64.497  1.00 28.09 LIG 0.21  C 
ATOM     49  NE2 GLN G 264      23.855  41.629  65.561  1.00 27.12 LIG-0.37  N 
ATOM     50 21HE GLN G 264      24.551  41.128  65.630  1.00 27.12 LIG 0.16  HD
ATOM     51 22HE GLN G 264      23.259  41.623  66.181  1.00 27.12 LIG 0.16  HD
ATOM     52 OE1  GLN G 264      22.724  43.150  64.351  1.00 28.52 LIG-0.27  OA
ENDBRANCH 47 48
ENDBRANCH 46 47
ENDBRANCH 1 46
TORSDOF 20
ENDMDL
MODEL 7
USER: ADFR SOLUTION from run 34
USER: SCORE 16.647075 LL:  -2.737 LR: -14.087 RR:   0.000 FEB:  -8.121
USER: RMSD 2.905056
USER: SEED 33
USER: STATUS searching
USER: GENES 22
USER: genes 0 Translation |==|  0.50719 0.54839 0.54902
USER: genes 1 Rotation |==|  0.51890 0.47762 0.48973 0.99904
USER: genes 2 Torsion [C]-CA--N-[C] |==|  0.84305
USER: genes 3 Torsion [N]-C--CA-[N] |==|  0.31491
USER: genes 4 Torsion [C]-CA--N-[C] |==|  0.74235
USER: genes 5 Torsion [N]-C--CA-[CB] |==|  0.60229
USER: genes 6 Torsion [C]-CA--CB-[CG2] |==|  0.14813
USER: genes 7 Torsion [CA]-CB--CG1-[CD1] |==|  0.34467
USER: genes 8 Torsion [N]-CA--C-[N] |==|  0.37347
USER: genes 9 Torsion [C]-N--CA-[C] |==|  0.80443
USER: genes 10 Torsion [N]-CA--C-[N] |==|  0.42809
USER: genes 11 Torsion [C]-N--CA-[C] |==|  0.16577
USER: genes 12 Torsion [N]-CA--C-[O] |==|  0.14822
USER: genes 13 Torsion [N]-CA--CB-[CG] |==|  0.85838
USER: genes 14 Torsion [CA]-CB--CG-[CD] |==|  0.43632
USER: genes 15 Torsion [CB]-CG--CD-[OE1] |==|  0.44926
USER: genes 16 Torsion [N]-CA--CB-[CG] |==|  0.22618
USER: genes 17 Torsion [CA]-CB--CG-[CD] |==|  0.45750
USER: genes 18 Torsion [CB]-CG--CD-[OE1] |==|  0.92077
USER: genes 19 Torsion [N]-CA--CB-[CG] |==|  0.73666
USER: genes 20 Torsion [CA]-CB--CG-[CD] |==|  0.54798
USER: genes 21 Torsion [CB]-CG--CD-[OE1] |==|  0.00778
ROOT
ATOM      1  CA  GLN G 264      24.612  40.012  62.719  1.00 24.93 LIG 0.18  C 
ENDROOT
BRANCH 1 2
ATOM      2  N   GLN G 264      23.609  39.479  63.633  1.00 24.45 LIG-0.35  N 
ATOM      3 H    GLN G 264      23.680  39.744  64.447  1.00 24.45 LIG 0.16  HD
ATOM      4  C   ILE G 263      22.675  38.647  63.186  1.00 25.21 LIG 0.24  C 
ATOM      5 O    ILE G 263      22.624  38.280  62.011  1.00 24.71 LIG-0.27  OA
BRANCH 4 6
ATOM      6  CA  ILE G 263      21.645  38.148  64.197  1.00 25.39 LIG 0.18  C 
BRANCH 6 7
ATOM      7  N   ILE G 263      20.351  38.700  63.818  1.00 26.84 LIG-0.35  N 
ATOM      8 H    ILE G 263      19.922  38.220  63.248  1.00 26.84 LIG 0.16  HD
ATOM      9  C   PRO G 262      19.884  39.841  64.310  1.00 27.66 LIG 0.24  C 
ATOM     10 O    PRO G 262      20.489  40.511  65.142  1.00 28.28 LIG-0.27  OA
BRANCH 9 11
ATOM     11  CA  PRO G 262      18.523  40.288  63.785  1.00 28.51 LIG 0.18  C 
ATOM     12  CB  PRO G 262      18.434  41.804  63.616  1.00 28.21 LIG 0.04  C 
ATOM     13  CG  PRO G 262      17.971  42.241  65.012  1.00 28.36 LIG 0.02  C 
ATOM     14  CD  PRO G 262      16.817  41.276  65.166  1.00 29.26 LIG 0.13  C 
ATOM     15  N   PRO G 262      17.442  40.013  64.734  1.00 29.83 LIG-0.34  N 
ATOM     16  C   ACE G 261      17.136  38.757  65.086  1.00 31.20 LIG 0.22  C 
ATOM     17 O    ACE G 261      17.748  37.792  64.624  1.00 31.65 LIG-0.27  OA
ATOM     18  CH3 ACE G 261      16.005  38.548  66.075  1.00 31.68 LIG 0.12  C 
ENDBRANCH 9 11
ENDBRANCH 6 7
BRANCH 6 19
ATOM     19  CB  ILE G 263      21.611  36.604  64.173  1.00 25.89 LIG 0.01  C 
ATOM     20  CG2 ILE G 263      23.016  36.046  64.371  1.00 25.32 LIG 0.01  C 
BRANCH 19 21
ATOM     21  CG1 ILE G 263      20.650  36.090  65.253  1.00 25.77 LIG 0.00  C 
ATOM     22  CD1 ILE G 263      19.546  35.178  64.729  1.00 27.45 LIG 0.01  C 
ENDBRANCH 19 21
ENDBRANCH 6 19
ENDBRANCH 4 6
ENDBRANCH 1 2
BRANCH 1 23
ATOM     23  C   GLN G 264      25.396  38.928  62.001  1.00 25.80 LIG 0.24  C 
ATOM     24  N   GLU G 265      25.554  39.114  60.698  1.00 25.54 LIG-0.35  N 
ATOM     25 H    GLU G 265      25.226  39.782  60.266  1.00 25.54 LIG 0.16  HD
ATOM     26 O    GLN G 264      25.844  37.952  62.607  1.00 23.91 LIG-0.27  OA
BRANCH 24 27
ATOM     27  CA  GLU G 265      26.309  38.186  59.880  1.00 27.50 LIG 0.18  C 
BRANCH 27 28
ATOM     28  C   GLU G 265      27.767  38.370  60.289  1.00 28.95 LIG 0.24  C 
ATOM     29  N   GLU G 266      28.585  37.338  60.112  1.00 30.90 LIG-0.34  N 
ATOM     30 H    GLU G 266      28.349  36.573  59.799  1.00 30.90 LIG 0.16  HD
ATOM     31 O    GLU G 265      28.147  39.441  60.771  1.00 27.90 LIG-0.27  OA
BRANCH 29 32
ATOM     32  CA  GLU G 266      29.994  37.459  60.457  1.00 33.40 LIG 0.19  C 
BRANCH 32 33
ATOM     33  C   GLU G 266      30.116  37.792  61.934  1.00 34.22 LIG 0.20  C 
ATOM     34 O    GLU G 266      29.531  37.044  62.747  1.00 35.29 LIG-0.65  OA
ATOM     35 OXT  GLU G 266      30.778  38.803  62.253  1.00 35.25 LIG-0.65  OA
ENDBRANCH 32 33
BRANCH 32 36
ATOM     36  CB  GLU G 266      30.673  38.560  59.638  1.00 34.59 LIG 0.05  C 
BRANCH 36 37
ATOM     37  CG  GLU G 266      30.447  38.462  58.140  1.00 35.99 LIG 0.12  C 
BRANCH 37 38
ATOM     38  CD  GLU G 266      30.633  39.797  57.440  1.00 37.74 LIG 0.17  C 
ATOM     39 OE1  GLU G 266      30.820  39.796  56.203  1.00 38.97 LIG-0.65  OA
ATOM     40 OE2  GLU G 266      30.600  40.843  58.129  1.00 36.82 LIG-0.65  OA
ENDBRANCH 37 38
ENDBRANCH 36 37
ENDBRANCH 32 36
ENDBRANCH 29 32
ENDBRANCH 27 28
BRANCH 27 41
ATOM     41  CB  GLU G 265      26.146  38.541  58.397  1.00 27.49 LIG 0.04  C 
BRANCH 41 42
ATOM     42  CG  GLU G 265      27.059  39.671  57.935  1.00 27.71 LIG 0.12  C 
BRANCH 42 43
ATOM     43  CD  GLU G 265      27.173  39.779  56.419  1.00 28.38 LIG 0.17  C 
ATOM     44 OE1  GLU G 265      27.029  38.745  55.728  1.00 27.39 LIG-0.65  OA
ATOM     45 OE2  GLU G 265      27.434  40.900  55.925  1.00 28.48 LIG-0.65  OA
ENDBRANCH 42 43
ENDBRANCH 41 42
ENDBRANCH 27 41
ENDBRANCH 24 27
ENDBRANCH 1 23
BRANCH 1 46
ATOM     46  CB  GLN G 264      25.607  40.917  63.453  1.00 25.62 LIG 0.04  C 
BRANCH 46 47
ATOM     47  CG  GLN G 264      25.289  42.406  63.421  1.00 26.81 LIG 0.10  C 
BRANCH 47 48
ATOM     48  CD  GLN G 264      26.500  43.258  63.786  1.00 28.09 LIG 0.21  C 
ATOM     49  NE2 GLN G 264      26.309  44.575  63.845  1.00 27.12 LIG-0.37  N 
ATOM     50 21HE GLN G 264      25.532  44.905  63.681  1.00 27.12 LIG 0.16  HD
ATOM     51 22HE GLN G 264      26.962  45.095  64.049  1.00 27.12 LIG 0.16  HD
ATOM     52 OE1  GLN G 264      27.593  42.735  64.014  1.00 28.52 LIG-0.27  OA
ENDBRANCH 47 48
ENDBRANCH 46 47
ENDBRANCH 1 46
TORSDOF 20
ENDMDL
MODEL 8
USER: ADFR SOLUTION from run 47
USER: SCORE 16.256640 LL:  -3.148 LR: -13.975 RR:   0.000 FEB:  -8.009
USER: RMSD 3.587160
USER: SEED 46
USER: STATUS no improvement in best in 9 clusters for 5 generations
USER: GENES 22
USER: genes 0 Translation |==|  0.50072 0.56283 0.53712
USER: genes 1 Rotation |==|  0.45951 0.44996 0.57437 0.99023
USER: genes 2 Torsion [C]-CA--N-[C] |==|  0.79566
USER: genes 3 Torsion [N]-C--CA-[N] |==|  0.29253
USER: genes 4 Torsion [C]-CA--N-[C] |==|  0.74914
USER: genes 5 Torsion [N]-C--CA-[CB] |==|  0.61668
USER: genes 6 Torsion [C]-CA--CB-[CG2] |==|  0.13680
USER: genes 7 Torsion [CA]-CB--CG1-[CD1] |==|  0.31956
USER: genes 8 Torsion [N]-CA--C-[N] |==|  0.40272
USER: genes 9 Torsion [C]-N--CA-[C] |==|  0.68889
USER: genes 10 Torsion [N]-CA--C-[N] |==|  0.72867
USER: genes 11 Torsion [C]-N--CA-[C] |==|  0.52722
USER: genes 12 Torsion [N]-CA--C-[O] |==|  0.15827
USER: genes 13 Torsion [N]-CA--CB-[CG] |==|  0.56652
USER: genes 14 Torsion [CA]-CB--CG-[CD] |==|  0.33763
USER: genes 15 Torsion [CB]-CG--CD-[OE1] |==|  0.73717
USER: genes 16 Torsion [N]-CA--CB-[CG] |==|  0.10099
USER: genes 17 Torsion [CA]-CB--CG-[CD] |==|  0.37194
USER: genes 18 Torsion [CB]-CG--CD-[OE1] |==|  0.87320
USER: genes 19 Torsion [N]-CA--CB-[CG] |==|  0.05160
USER: genes 20 Torsion [CA]-CB--CG-[CD] |==|  0.78571
USER: genes 21 Torsion [CB]-CG--CD-[OE1] |==|  0.85709
ROOT
ATOM      1  CA  GLN G 264      24.452  40.304  62.478  1.00 24.93 LIG 0.18  C 
ENDROOT
BRANCH 1 2
ATOM      2  N   GLN G 264      23.524  39.693  63.421  1.00 24.45 LIG-0.35  N 
ATOM      3 H    GLN G 264      23.552  40.012  64.219  1.00 24.45 LIG 0.16  HD
ATOM      4  C   ILE G 263      22.714  38.718  63.024  1.00 25.21 LIG 0.24  C 
ATOM      5 O    ILE G 263      22.721  38.282  61.872  1.00 24.71 LIG-0.27  OA
BRANCH 4 6
ATOM      6  CA  ILE G 263      21.754  38.143  64.063  1.00 25.39 LIG 0.18  C 
BRANCH 6 7
ATOM      7  N   ILE G 263      20.422  38.653  63.762  1.00 26.84 LIG-0.35  N 
ATOM      8 H    ILE G 263      19.974  38.156  63.221  1.00 26.84 LIG 0.16  HD
ATOM      9  C   PRO G 262      19.951  39.781  64.279  1.00 27.66 LIG 0.24  C 
ATOM     10 O    PRO G 262      20.585  40.474  65.069  1.00 28.28 LIG-0.27  OA
BRANCH 9 11
ATOM     11  CA  PRO G 262      18.546  40.182  63.837  1.00 28.51 LIG 0.18  C 
ATOM     12  CB  PRO G 262      18.434  41.678  63.547  1.00 28.21 LIG 0.04  C 
ATOM     13  CG  PRO G 262      18.090  42.235  64.935  1.00 28.36 LIG 0.02  C 
ATOM     14  CD  PRO G 262      16.960  41.287  65.271  1.00 29.26 LIG 0.13  C 
ATOM     15  N   PRO G 262      17.553  39.991  64.897  1.00 29.83 LIG-0.34  N 
ATOM     16  C   ACE G 261      17.287  38.770  65.381  1.00 31.20 LIG 0.22  C 
ATOM     17 O    ACE G 261      17.862  37.769  64.952  1.00 31.65 LIG-0.27  OA
ATOM     18  CH3 ACE G 261      16.247  38.648  66.478  1.00 31.68 LIG 0.12  C 
ENDBRANCH 9 11
ENDBRANCH 6 7
BRANCH 6 19
ATOM     19  CB  ILE G 263      21.781  36.601  63.985  1.00 25.89 LIG 0.01  C 
ATOM     20  CG2 ILE G 263      23.221  36.102  63.998  1.00 25.32 LIG 0.01  C 
BRANCH 19 21
ATOM     21  CG1 ILE G 263      20.976  36.009  65.150  1.00 25.77 LIG 0.00  C 
ATOM     22  CD1 ILE G 263      19.728  35.242  64.726  1.00 27.45 LIG 0.01  C 
ENDBRANCH 19 21
ENDBRANCH 6 19
ENDBRANCH 4 6
ENDBRANCH 1 2
BRANCH 1 23
ATOM     23  C   GLN G 264      25.627  39.406  62.137  1.00 25.80 LIG 0.24  C 
ATOM     24  N   GLU G 265      26.065  39.498  60.889  1.00 25.54 LIG-0.35  N 
ATOM     25 H    GLU G 265      25.710  40.006  60.292  1.00 25.54 LIG 0.16  HD
ATOM     26 O    GLN G 264      26.125  38.653  62.977  1.00 23.91 LIG-0.27  OA
BRANCH 24 27
ATOM     27  CA  GLU G 265      27.203  38.731  60.420  1.00 27.50 LIG 0.18  C 
BRANCH 27 28
ATOM     28  C   GLU G 265      28.305  39.753  60.154  1.00 28.95 LIG 0.24  C 
ATOM     29  N   GLU G 266      28.466  40.162  58.900  1.00 30.90 LIG-0.34  N 
ATOM     30 H    GLU G 266      28.007  39.882  58.230  1.00 30.90 LIG 0.16  HD
ATOM     31 O    GLU G 265      29.009  40.162  61.081  1.00 27.90 LIG-0.27  OA
BRANCH 29 32
ATOM     32  CA  GLU G 266      29.481  41.156  58.585  1.00 33.40 LIG 0.19  C 
BRANCH 32 33
ATOM     33  C   GLU G 266      29.293  41.618  57.150  1.00 34.22 LIG 0.20  C 
ATOM     34 O    GLU G 266      28.181  42.095  56.836  1.00 35.29 LIG-0.65  OA
ATOM     35 OXT  GLU G 266      30.252  41.480  56.360  1.00 35.25 LIG-0.65  OA
ENDBRANCH 32 33
BRANCH 32 36
ATOM     36  CB  GLU G 266      30.891  40.581  58.744  1.00 34.59 LIG 0.05  C 
BRANCH 36 37
ATOM     37  CG  GLU G 266      31.969  41.618  59.001  1.00 35.99 LIG 0.12  C 
BRANCH 37 38
ATOM     38  CD  GLU G 266      32.707  41.371  60.306  1.00 37.74 LIG 0.17  C 
ATOM     39 OE1  GLU G 266      32.315  41.974  61.331  1.00 38.97 LIG-0.65  OA
ATOM     40 OE2  GLU G 266      33.680  40.582  60.303  1.00 36.82 LIG-0.65  OA
ENDBRANCH 37 38
ENDBRANCH 36 37
ENDBRANCH 32 36
ENDBRANCH 29 32
ENDBRANCH 27 28
BRANCH 27 41
ATOM     41  CB  GLU G 265      26.847  38.012  59.114  1.00 27.49 LIG 0.04  C 
BRANCH 41 42
ATOM     42  CG  GLU G 265      25.935  38.821  58.199  1.00 27.71 LIG 0.12  C 
BRANCH 42 43
ATOM     43  CD  GLU G 265      26.386  38.829  56.743  1.00 28.38 LIG 0.17  C 
ATOM     44 OE1  GLU G 265      27.595  39.032  56.488  1.00 27.39 LIG-0.65  OA
ATOM     45 OE2  GLU G 265      25.519  38.658  55.855  1.00 28.48 LIG-0.65  OA
ENDBRANCH 42 43
ENDBRANCH 41 42
ENDBRANCH 27 41
ENDBRANCH 24 27
ENDBRANCH 1 23
BRANCH 1 46
ATOM     46  CB  GLN G 264      25.001  41.629  63.018  1.00 25.62 LIG 0.04  C 
BRANCH 46 47
ATOM     47  CG  GLN G 264      24.860  41.835  64.520  1.00 26.81 LIG 0.10  C 
BRANCH 47 48
ATOM     48  CD  GLN G 264      23.438  42.222  64.914  1.00 28.09 LIG 0.21  C 
ATOM     49  NE2 GLN G 264      22.872  41.508  65.884  1.00 27.12 LIG-0.37  N 
ATOM     50 21HE GLN G 264      23.306  40.865  66.255  1.00 27.12 LIG 0.16  HD
ATOM     51 22HE GLN G 264      22.072  41.690  66.141  1.00 27.12 LIG 0.16  HD
ATOM     52 OE1  GLN G 264      22.860  43.153  64.351  1.00 28.52 LIG-0.27  OA
ENDBRANCH 47 48
ENDBRANCH 46 47
ENDBRANCH 1 46
TORSDOF 20
ENDMDL
MODEL 9
USER: ADFR SOLUTION from run 186
USER: SCORE 16.655687 LL:  -3.412 LR: -13.419 RR:   0.000 FEB:  -7.453
USER: RMSD 2.330777
USER: SEED 185
USER: STATUS no improvement in best in 3 clusters for 5 generations
USER: GENES 22
USER: genes 0 Translation |==|  0.49951 0.54722 0.55044
USER: genes 1 Rotation |==|  0.50705 0.47159 0.50403 0.99913
USER: genes 2 Torsion [C]-CA--N-[C] |==|  0.84423
USER: genes 3 Torsion [N]-C--CA-[N] |==|  0.29797
USER: genes 4 Torsion [C]-CA--N-[C] |==|  0.75751
USER: genes 5 Torsion [N]-C--CA-[CB] |==|  0.61755
USER: genes 6 Torsion [C]-CA--CB-[CG2] |==|  0.14863
USER: genes 7 Torsion [CA]-CB--CG1-[CD1] |==|  0.32237
USER: genes 8 Torsion [N]-CA--C-[N] |==|  0.37542
USER: genes 9 Torsion [C]-N--CA-[C] |==|  0.82722
USER: genes 10 Torsion [N]-CA--C-[N] |==|  0.38853
USER: genes 11 Torsion [C]-N--CA-[C] |==|  0.49517
USER: genes 12 Torsion [N]-CA--C-[O] |==|  0.84525
USER: genes 13 Torsion [N]-CA--CB-[CG] |==|  0.47692
USER: genes 14 Torsion [CA]-CB--CG-[CD] |==|  0.39110
USER: genes 15 Torsion [CB]-CG--CD-[OE1] |==|  0.78452
USER: genes 16 Torsion [N]-CA--CB-[CG] |==|  0.21457
USER: genes 17 Torsion [CA]-CB--CG-[CD] |==|  0.48093
USER: genes 18 Torsion [CB]-CG--CD-[OE1] |==|  0.39726
USER: genes 19 Torsion [N]-CA--CB-[CG] |==|  0.77666
USER: genes 20 Torsion [CA]-CB--CG-[CD] |==|  0.18263
USER: genes 21 Torsion [CB]-CG--CD-[OE1] |==|  0.60760
ROOT
ATOM      1  CA  GLN G 264      24.422  39.988  62.747  1.00 24.93 LIG 0.18  C 
ENDROOT
BRANCH 1 2
ATOM      2  N   GLN G 264      23.425  39.447  63.663  1.00 24.45 LIG-0.35  N 
ATOM      3 H    GLN G 264      23.456  39.760  64.463  1.00 24.45 LIG 0.16  HD
ATOM      4  C   ILE G 263      22.555  38.538  63.240  1.00 25.21 LIG 0.24  C 
ATOM      5 O    ILE G 263      22.559  38.105  62.086  1.00 24.71 LIG-0.27  OA
BRANCH 4 6
ATOM      6  CA  ILE G 263      21.526  38.035  64.250  1.00 25.39 LIG 0.18  C 
BRANCH 6 7
ATOM      7  N   ILE G 263      20.236  38.608  63.888  1.00 26.84 LIG-0.35  N 
ATOM      8 H    ILE G 263      19.765  38.107  63.372  1.00 26.84 LIG 0.16  HD
ATOM      9  C   PRO G 262      19.831  39.796  64.320  1.00 27.66 LIG 0.24  C 
ATOM     10 O    PRO G 262      20.495  40.498  65.078  1.00 28.28 LIG-0.27  OA
BRANCH 9 11
ATOM     11  CA  PRO G 262      18.463  40.257  63.824  1.00 28.51 LIG 0.18  C 
ATOM     12  CB  PRO G 262      18.457  41.733  63.427  1.00 28.21 LIG 0.04  C 
ATOM     13  CG  PRO G 262      18.130  42.408  64.766  1.00 28.36 LIG 0.02  C 
ATOM     14  CD  PRO G 262      16.934  41.564  65.145  1.00 29.26 LIG 0.13  C 
ATOM     15  N   PRO G 262      17.444  40.208  64.874  1.00 29.83 LIG-0.34  N 
ATOM     16  C   ACE G 261      17.088  39.045  65.437  1.00 31.20 LIG 0.22  C 
ATOM     17 O    ACE G 261      17.601  37.980  65.091  1.00 31.65 LIG-0.27  OA
ATOM     18  CH3 ACE G 261      16.026  39.070  66.519  1.00 31.68 LIG 0.12  C 
ENDBRANCH 9 11
ENDBRANCH 6 7
BRANCH 6 19
ATOM     19  CB  ILE G 263      21.473  36.492  64.200  1.00 25.89 LIG 0.01  C 
ATOM     20  CG2 ILE G 263      22.872  35.915  64.384  1.00 25.32 LIG 0.01  C 
BRANCH 19 21
ATOM     21  CG1 ILE G 263      20.510  35.972  65.275  1.00 25.77 LIG 0.00  C 
ATOM     22  CD1 ILE G 263      19.288  35.244  64.726  1.00 27.45 LIG 0.01  C 
ENDBRANCH 19 21
ENDBRANCH 6 19
ENDBRANCH 4 6
ENDBRANCH 1 2
BRANCH 1 23
ATOM     23  C   GLN G 264      25.281  38.914  62.105  1.00 25.80 LIG 0.24  C 
ATOM     24  N   GLU G 265      25.476  39.052  60.800  1.00 25.54 LIG-0.35  N 
ATOM     25 H    GLU G 265      25.132  39.684  60.329  1.00 25.54 LIG 0.16  HD
ATOM     26 O    GLN G 264      25.754  37.988  62.768  1.00 23.91 LIG-0.27  OA
BRANCH 24 27
ATOM     27  CA  GLU G 265      26.303  38.128  60.050  1.00 27.50 LIG 0.18  C 
BRANCH 27 28
ATOM     28  C   GLU G 265      27.702  38.254  60.644  1.00 28.95 LIG 0.24  C 
ATOM     29  N   GLU G 266      28.402  37.134  60.798  1.00 30.90 LIG-0.34  N 
ATOM     30 H    GLU G 266      28.117  36.347  60.601  1.00 30.90 LIG 0.16  HD
ATOM     31 O    GLU G 265      28.142  39.359  60.970  1.00 27.90 LIG-0.27  OA
BRANCH 29 32
ATOM     32  CA  GLU G 266      29.754  37.189  61.333  1.00 33.40 LIG 0.19  C 
BRANCH 32 33
ATOM     33  C   GLU G 266      30.302  35.776  61.442  1.00 34.22 LIG 0.20  C 
ATOM     34 O    GLU G 266      29.641  34.948  62.106  1.00 35.29 LIG-0.65  OA
ATOM     35 OXT  GLU G 266      31.389  35.525  60.878  1.00 35.25 LIG-0.65  OA
ENDBRANCH 32 33
BRANCH 32 36
ATOM     36  CB  GLU G 266      29.777  37.843  62.718  1.00 34.59 LIG 0.05  C 
BRANCH 36 37
ATOM     37  CG  GLU G 266      31.114  37.762  63.430  1.00 35.99 LIG 0.12  C 
BRANCH 37 38
ATOM     38  CD  GLU G 266      31.446  39.040  64.182  1.00 37.74 LIG 0.17  C 
ATOM     39 OE1  GLU G 266      31.861  40.021  63.526  1.00 38.97 LIG-0.65  OA
ATOM     40 OE2  GLU G 266      31.297  39.057  65.426  1.00 36.82 LIG-0.65  OA
ENDBRANCH 37 38
ENDBRANCH 36 37
ENDBRANCH 32 36
ENDBRANCH 29 32
ENDBRANCH 27 28
BRANCH 27 41
ATOM     41  CB  GLU G 265      26.336  38.536  58.573  1.00 27.49 LIG 0.04  C 
BRANCH 41 42
ATOM     42  CG  GLU G 265      27.255  39.718  58.285  1.00 27.71 LIG 0.12  C 
BRANCH 42 43
ATOM     43  CD  GLU G 265      27.416  40.017  56.800  1.00 28.38 LIG 0.17  C 
ATOM     44 OE1  GLU G 265      27.498  41.210  56.430  1.00 27.39 LIG-0.65  OA
ATOM     45 OE2  GLU G 265      27.434  39.051  56.002  1.00 28.48 LIG-0.65  OA
ENDBRANCH 42 43
ENDBRANCH 41 42
ENDBRANCH 27 41
ENDBRANCH 24 27
ENDBRANCH 1 23
BRANCH 1 46
ATOM     46  CB  GLN G 264      25.348  40.982  63.458  1.00 25.62 LIG 0.04  C 
BRANCH 46 47
ATOM     47  CG  GLN G 264      24.788  42.387  63.640  1.00 26.81 LIG 0.10  C 
BRANCH 47 48
ATOM     48  CD  GLN G 264      23.587  42.407  64.579  1.00 28.09 LIG 0.21  C 
ATOM     49  NE2 GLN G 264      23.643  41.605  65.640  1.00 27.12 LIG-0.37  N 
ATOM     50 21HE GLN G 264      24.334  41.108  65.767  1.00 27.12 LIG 0.16  HD
ATOM     51 22HE GLN G 264      22.990  41.583  66.198  1.00 27.12 LIG 0.16  HD
ATOM     52 OE1  GLN G 264      22.621  43.139  64.351  1.00 28.52 LIG-0.27  OA
ENDBRANCH 47 48
ENDBRANCH 46 47
ENDBRANCH 1 46
TORSDOF 20
ENDMDL
