MODEL 1
USER: ADFR SOLUTION from run 75
USER: SCORE 13.488380 LL:  -3.254 LR: -10.911 RR:   0.000 FEB:  -6.735
USER: RMSD 4.088419
USER: SEED 74
USER: STATUS no improvement in best in 3 clusters for 5 generations
USER: GENES 16
USER: genes 0 Translation |==|  0.44684 0.27727 0.50812
USER: genes 1 Rotation |==|  0.41246 0.52646 0.72644 0.93631
USER: genes 2 Torsion [CB]-CA--N-[C] |==|  0.48351
USER: genes 3 Torsion [N]-C--CA-[N] |==|  0.52020
USER: genes 4 Torsion [N]-C--CA-[N] |==|  0.27671
USER: genes 5 Torsion [N]-C--CA-[N] |==|  0.88959
USER: genes 6 Torsion [C]-CA--CB-[CG2] |==|  0.95769
USER: genes 7 Torsion [CA]-CB--OG1-[HG1] |==|  0.53217
USER: genes 8 Torsion [N]-CA--C-[N] |==|  0.46984
USER: genes 9 Torsion [N]-CA--C-[N] |==|  0.42316
USER: genes 10 Torsion [C]-N--CA-[CB] |==|  0.27584
USER: genes 11 Torsion [N]-CA--CB-[CG] |==|  0.75236
USER: genes 12 Torsion [CA]-CB--CG-[CD1] |==|  0.19535
USER: genes 13 Torsion [N]-CA--C-[O] |==|  0.59532
USER: genes 14 Torsion [N]-CA--CB-[OG] |==|  0.99465
USER: genes 15 Torsion [CA]-CB--OG-[HG] |==|  0.58385
ROOT
ATOM      1  CA  SER B1004      10.989  15.199  -0.588  1.00 32.51 LIG 0.20  C 
ENDROOT
BRANCH 1 2
ATOM      2  N   SER B1004      11.764  15.967  -1.549  1.00 30.80 LIG-0.34  N 
ATOM      3 H    SER B1004      11.653  15.746  -2.373  1.00 30.80 LIG 0.16  HD
ATOM      4  C   PRO B1003      12.569  16.930  -1.123  1.00 29.50 LIG 0.24  C 
ATOM      5 O    PRO B1003      12.680  17.211   0.072  1.00 26.59 LIG-0.27  OA
BRANCH 4 6
ATOM      6  CA  PRO B1003      13.369  17.701  -2.180  1.00 29.25 LIG 0.18  C 
ATOM      7  CB  PRO B1003      14.302  16.763  -2.948  1.00 27.80 LIG 0.04  C 
ATOM      8  CG  PRO B1003      15.613  17.500  -2.993  1.00 32.17 LIG 0.02  C 
ATOM      9  CD  PRO B1003      15.684  18.156  -1.637  1.00 30.31 LIG 0.13  C 
ATOM     10  N   PRO B1003      14.285  18.560  -1.425  1.00 27.10 LIG-0.34  N 
ATOM     11  C   PRO B1002      13.812  19.618  -0.749  1.00 28.33 LIG 0.24  C 
ATOM     12 O    PRO B1002      12.626  19.919  -0.761  1.00 27.60 LIG-0.27  OA
BRANCH 11 13
ATOM     13  CA  PRO B1002      14.826  20.447   0.029  1.00 29.68 LIG 0.18  C 
ATOM     14  N   PRO B1002      15.276  21.679  -0.623  1.00 30.07 LIG-0.34  N 
ATOM     15  CD  PRO B1002      15.037  22.841   0.255  1.00 30.93 LIG 0.13  C 
ATOM     16  C   THR B1001      15.903  21.742  -1.834  1.00 31.77 LIG 0.26  C 
ATOM     17  CG  PRO B1002      14.981  22.202   1.612  1.00 29.32 LIG 0.02  C 
ATOM     18  CB  PRO B1002      14.221  20.950   1.339  1.00 30.61 LIG 0.04  C 
ATOM     19 O    THR B1001      16.110  20.708  -2.478  1.00 28.08 LIG-0.27  OA
BRANCH 16 20
ATOM     20  CA  THR B1001      16.300  23.116  -2.342  1.00 31.25 LIG 0.43  C 
ATOM     21  N   THR B1001      15.265  24.090  -2.043  1.00 31.78 LIG 0.62  N 
BRANCH 20 22
ATOM     22  CB  THR B1001      17.644  23.522  -1.736  1.00 33.83 LIG 0.16  C 
ATOM     23  CG2 THR B1001      17.984  22.629  -0.553  1.00 26.93 LIG 0.04  C 
BRANCH 22 24
ATOM     24 OG1  THR B1001      18.670  23.418  -2.731  1.00 35.47 LIG-0.39  OA
ATOM     25 HG1  THR B1001      19.423  23.485  -2.365  1.00 35.47 LIG 0.21  HD
ENDBRANCH 22 24
ENDBRANCH 20 22
ENDBRANCH 16 20
ENDBRANCH 11 13
ENDBRANCH 4 6
ENDBRANCH 1 2
BRANCH 1 26
ATOM     26  C   SER B1004      11.970  14.408   0.275  1.00 31.12 LIG 0.24  C 
ATOM     27 O    SER B1004      13.156  14.358  -0.018  1.00 31.43 LIG-0.27  OA
ATOM     28  N   PRO B1005      11.493  13.802   1.368  1.00 32.50 LIG-0.34  N 
ATOM     29  CA  PRO B1005      10.118  13.774   1.873  1.00 31.67 LIG 0.18  C 
ATOM     30  CD  PRO B1005      12.323  12.812   2.085  1.00 32.99 LIG 0.13  C 
ATOM     31  CB  PRO B1005       9.994  12.358   2.399  1.00 32.97 LIG 0.04  C 
ATOM     32  CG  PRO B1005      11.325  12.170   3.063  1.00 32.33 LIG 0.02  C 
BRANCH 29 33
ATOM     33  C   PRO B1005       9.890  14.803   2.985  1.00 31.95 LIG 0.24  C 
ATOM     34  N   PHE B1006       8.655  15.274   3.126  1.00 29.16 LIG-0.34  N 
ATOM     35 H    PHE B1006       7.982  15.023   2.652  1.00 29.16 LIG 0.16  HD
ATOM     36 O    PRO B1005      10.826  15.157   3.703  1.00 29.71 LIG-0.27  OA
BRANCH 34 37
ATOM     37  CA  PHE B1006       8.350  16.282   4.131  1.00 29.49 LIG 0.19  C 
BRANCH 37 38
ATOM     38  CB  PHE B1006       8.300  17.666   3.482  1.00 24.64 LIG 0.07  C 
BRANCH 38 39
ATOM     39  CG  PHE B1006       9.627  18.366   3.453  1.00 23.14 LIG-0.06  A 
ATOM     40  CD2 PHE B1006       9.862  19.472   4.260  1.00 22.25 LIG 0.01  A 
ATOM     41  CE2 PHE B1006      11.105  20.128   4.234  1.00 23.88 LIG 0.00  A 
ATOM     42  CZ  PHE B1006      12.111  19.667   3.395  1.00 22.95 LIG 0.00  A 
ATOM     43  CE1 PHE B1006      11.879  18.556   2.582  1.00 21.15 LIG 0.00  A 
ATOM     44  CD1 PHE B1006      10.647  17.918   2.617  1.00 23.85 LIG 0.01  A 
ENDBRANCH 38 39
ENDBRANCH 37 38
BRANCH 37 45
ATOM     45  C   PHE B1006       7.060  16.020   4.897  1.00 30.13 LIG 0.20  C 
ATOM     46 O    PHE B1006       6.385  17.009   5.249  1.00 31.00 LIG-0.65  OA
ATOM     47 OXT  PHE B1006       6.737  14.838   5.132  1.00 32.43 LIG-0.65  OA
ENDBRANCH 37 45
ENDBRANCH 34 37
ENDBRANCH 29 33
ENDBRANCH 1 26
BRANCH 1 48
ATOM     48  CB  SER B1004      10.032  14.254  -1.315  1.00 35.03 LIG 0.20  C 
BRANCH 48 49
ATOM     49 OG   SER B1004      10.148  14.434  -2.713  1.00 42.75 LIG-0.40  OA
ATOM     50 HG   SER B1004       9.411  14.267  -3.079  1.00 42.75 LIG 0.21  HD
ENDBRANCH 48 49
ENDBRANCH 1 48
TORSDOF 14
ENDMDL
MODEL 2
USER: ADFR SOLUTION from run 52
USER: SCORE 12.732094 LL:  -3.806 LR:  -9.828 RR:   0.000 FEB:  -5.652
USER: RMSD 3.800545
USER: SEED 51
USER: STATUS no improvement in best in 2 clusters for 5 generations
USER: GENES 16
USER: genes 0 Translation |==|  0.48366 0.43858 0.62458
USER: genes 1 Rotation |==|  0.81697 0.56890 0.14581 0.63905
USER: genes 2 Torsion [CB]-CA--N-[C] |==|  0.19445
USER: genes 3 Torsion [N]-C--CA-[N] |==|  0.24829
USER: genes 4 Torsion [N]-C--CA-[N] |==|  0.34077
USER: genes 5 Torsion [N]-C--CA-[N] |==|  0.41045
USER: genes 6 Torsion [C]-CA--CB-[CG2] |==|  0.97386
USER: genes 7 Torsion [CA]-CB--OG1-[HG1] |==|  0.68641
USER: genes 8 Torsion [N]-CA--C-[N] |==|  0.46747
USER: genes 9 Torsion [N]-CA--C-[N] |==|  0.38594
USER: genes 10 Torsion [C]-N--CA-[CB] |==|  0.42530
USER: genes 11 Torsion [N]-CA--CB-[CG] |==|  0.84887
USER: genes 12 Torsion [CA]-CB--CG-[CD1] |==|  0.45396
USER: genes 13 Torsion [N]-CA--C-[O] |==|  0.18031
USER: genes 14 Torsion [N]-CA--CB-[OG] |==|  0.13634
USER: genes 15 Torsion [CA]-CB--OG-[HG] |==|  0.46232
ROOT
ATOM      1  CA  SER B1004      11.680  18.707   1.421  1.00 32.51 LIG 0.20  C 
ENDROOT
BRANCH 1 2
ATOM      2  N   SER B1004      12.197  18.773   0.064  1.00 30.80 LIG-0.34  N 
ATOM      3 H    SER B1004      11.882  19.412  -0.419  1.00 30.80 LIG 0.16  HD
ATOM      4  C   PRO B1003      13.089  17.883  -0.344  1.00 29.50 LIG 0.24  C 
ATOM      5 O    PRO B1003      13.512  16.993   0.398  1.00 26.59 LIG-0.27  OA
BRANCH 4 6
ATOM      6  CA  PRO B1003      13.592  17.995  -1.787  1.00 29.25 LIG 0.18  C 
ATOM      7  CB  PRO B1003      14.179  16.665  -2.265  1.00 27.80 LIG 0.04  C 
ATOM      8  CG  PRO B1003      15.468  17.049  -2.939  1.00 32.17 LIG 0.02  C 
ATOM      9  CD  PRO B1003      15.991  18.163  -2.067  1.00 30.31 LIG 0.13  C 
ATOM     10  N   PRO B1003      14.755  18.885  -1.727  1.00 27.10 LIG-0.34  N 
ATOM     11  C   PRO B1002      14.588  20.195  -1.491  1.00 28.33 LIG 0.24  C 
ATOM     12 O    PRO B1002      13.479  20.694  -1.351  1.00 27.60 LIG-0.27  OA
BRANCH 11 13
ATOM     13  CA  PRO B1002      15.848  21.048  -1.421  1.00 29.68 LIG 0.18  C 
ATOM     14  N   PRO B1002      15.911  22.170  -2.360  1.00 30.07 LIG-0.34  N 
ATOM     15  CD  PRO B1002      16.128  23.436  -1.633  1.00 30.93 LIG 0.13  C 
ATOM     16  C   THR B1001      15.860  22.059  -3.720  1.00 31.77 LIG 0.26  C 
ATOM     17  CG  PRO B1002      16.751  22.959  -0.354  1.00 29.32 LIG 0.02  C 
ATOM     18  CB  PRO B1002      15.963  21.730  -0.059  1.00 30.61 LIG 0.04  C 
ATOM     19 O    THR B1001      15.730  20.948  -4.245  1.00 28.08 LIG-0.27  OA
BRANCH 16 20
ATOM     20  CA  THR B1001      15.947  23.341  -4.527  1.00 31.25 LIG 0.43  C 
ATOM     21  N   THR B1001      16.615  23.103  -5.794  1.00 31.78 LIG 0.62  N 
BRANCH 20 22
ATOM     22  CB  THR B1001      14.547  23.920  -4.730  1.00 33.83 LIG 0.16  C 
ATOM     23  CG2 THR B1001      13.490  22.928  -4.271  1.00 26.93 LIG 0.04  C 
BRANCH 22 24
ATOM     24 OG1  THR B1001      14.419  25.140  -3.989  1.00 35.47 LIG-0.39  OA
ATOM     25 HG1  THR B1001      13.865  25.033  -3.367  1.00 35.47 LIG 0.21  HD
ENDBRANCH 22 24
ENDBRANCH 20 22
ENDBRANCH 16 20
ENDBRANCH 11 13
ENDBRANCH 4 6
ENDBRANCH 1 2
BRANCH 1 26
ATOM     26  C   SER B1004      10.496  19.667   1.516  1.00 31.12 LIG 0.24  C 
ATOM     27 O    SER B1004      10.261  20.456   0.611  1.00 31.43 LIG-0.27  OA
ATOM     28  N   PRO B1005       9.718  19.595   2.602  1.00 32.50 LIG-0.34  N 
ATOM     29  CA  PRO B1005       9.842  18.707   3.760  1.00 31.67 LIG 0.18  C 
ATOM     30  CD  PRO B1005       8.734  20.663   2.876  1.00 32.99 LIG 0.13  C 
ATOM     31  CB  PRO B1005       9.441  19.612   4.907  1.00 32.97 LIG 0.04  C 
ATOM     32  CG  PRO B1005       8.281  20.351   4.312  1.00 32.33 LIG 0.02  C 
BRANCH 29 33
ATOM     33  C   PRO B1005       8.914  17.493   3.658  1.00 31.95 LIG 0.24  C 
ATOM     34  N   PHE B1006       9.411  16.320   4.039  1.00 29.16 LIG-0.34  N 
ATOM     35 H    PHE B1006      10.204  16.208   4.355  1.00 29.16 LIG 0.16  HD
ATOM     36 O    PRO B1005       7.762  17.626   3.242  1.00 29.71 LIG-0.27  OA
BRANCH 34 37
ATOM     37  CA  PHE B1006       8.617  15.104   3.943  1.00 29.49 LIG 0.19  C 
BRANCH 37 38
ATOM     38  CB  PHE B1006       9.535  13.891   3.786  1.00 24.64 LIG 0.07  C 
BRANCH 38 39
ATOM     39  CG  PHE B1006      10.496  14.008   2.639  1.00 23.14 LIG-0.06  A 
ATOM     40  CD2 PHE B1006      10.291  14.950   1.638  1.00 22.25 LIG 0.01  A 
ATOM     41  CE2 PHE B1006      11.190  15.061   0.563  1.00 23.88 LIG 0.00  A 
ATOM     42  CZ  PHE B1006      12.297  14.223   0.500  1.00 22.95 LIG 0.00  A 
ATOM     43  CE1 PHE B1006      12.506  13.276   1.504  1.00 21.15 LIG 0.00  A 
ATOM     44  CD1 PHE B1006      11.610  13.177   2.560  1.00 23.85 LIG 0.01  A 
ENDBRANCH 38 39
ENDBRANCH 37 38
BRANCH 37 45
ATOM     45  C   PHE B1006       7.670  14.891   5.117  1.00 30.13 LIG 0.20  C 
ATOM     46 O    PHE B1006       6.746  15.716   5.272  1.00 31.00 LIG-0.65  OA
ATOM     47 OXT  PHE B1006       7.857  13.907   5.862  1.00 32.43 LIG-0.65  OA
ENDBRANCH 37 45
ENDBRANCH 34 37
ENDBRANCH 29 33
ENDBRANCH 1 26
BRANCH 1 48
ATOM     48  CB  SER B1004      12.768  19.097   2.422  1.00 35.03 LIG 0.20  C 
BRANCH 48 49
ATOM     49 OG   SER B1004      13.383  20.304   2.018  1.00 42.75 LIG-0.40  OA
ATOM     50 HG   SER B1004      13.841  20.611   2.651  1.00 42.75 LIG 0.21  HD
ENDBRANCH 48 49
ENDBRANCH 1 48
TORSDOF 14
ENDMDL
MODEL 3
USER: ADFR SOLUTION from run 144
USER: SCORE 12.868301 LL:  -4.042 LR:  -9.794 RR:   0.000 FEB:  -5.618
USER: RMSD 4.189296
USER: SEED 143
USER: STATUS no improvement in best in 6 clusters for 5 generations
USER: GENES 16
USER: genes 0 Translation |==|  0.46310 0.47848 0.58474
USER: genes 1 Rotation |==|  0.72193 0.53080 0.17994 0.81202
USER: genes 2 Torsion [CB]-CA--N-[C] |==|  0.18044
USER: genes 3 Torsion [N]-C--CA-[N] |==|  0.32872
USER: genes 4 Torsion [N]-C--CA-[N] |==|  0.33256
USER: genes 5 Torsion [N]-C--CA-[N] |==|  0.19155
USER: genes 6 Torsion [C]-CA--CB-[CG2] |==|  0.50965
USER: genes 7 Torsion [CA]-CB--OG1-[HG1] |==|  0.39907
USER: genes 8 Torsion [N]-CA--C-[N] |==|  0.45727
USER: genes 9 Torsion [N]-CA--C-[N] |==|  0.01054
USER: genes 10 Torsion [C]-N--CA-[CB] |==|  0.82351
USER: genes 11 Torsion [N]-CA--CB-[CG] |==|  0.87255
USER: genes 12 Torsion [CA]-CB--CG-[CD1] |==|  0.27831
USER: genes 13 Torsion [N]-CA--C-[O] |==|  0.02451
USER: genes 14 Torsion [N]-CA--CB-[OG] |==|  0.63612
USER: genes 15 Torsion [CA]-CB--OG-[HG] |==|  0.19847
ROOT
ATOM      1  CA  SER B1004      11.294  19.575   0.734  1.00 32.51 LIG 0.20  C 
ENDROOT
BRANCH 1 2
ATOM      2  N   SER B1004      11.872  19.039  -0.488  1.00 30.80 LIG-0.34  N 
ATOM      3 H    SER B1004      11.335  18.992  -1.159  1.00 30.80 LIG 0.16  HD
ATOM      4  C   PRO B1003      13.143  18.666  -0.505  1.00 29.50 LIG 0.24  C 
ATOM      5 O    PRO B1003      13.869  18.768   0.486  1.00 26.59 LIG-0.27  OA
BRANCH 4 6
ATOM      6  CA  PRO B1003      13.696  18.100  -1.818  1.00 29.25 LIG 0.18  C 
ATOM      7  CB  PRO B1003      14.424  16.776  -1.576  1.00 27.80 LIG 0.04  C 
ATOM      8  CG  PRO B1003      15.700  16.906  -2.362  1.00 32.17 LIG 0.02  C 
ATOM      9  CD  PRO B1003      16.079  18.352  -2.165  1.00 30.31 LIG 0.13  C 
ATOM     10  N   PRO B1003      14.767  19.017  -2.218  1.00 27.10 LIG-0.34  N 
ATOM     11  C   PRO B1002      14.469  20.246  -2.663  1.00 28.33 LIG 0.24  C 
ATOM     12 O    PRO B1002      13.312  20.632  -2.781  1.00 27.60 LIG-0.27  OA
BRANCH 11 13
ATOM     13  CA  PRO B1002      15.639  21.146  -3.038  1.00 29.68 LIG 0.18  C 
ATOM     14  N   PRO B1002      15.675  21.601  -4.430  1.00 30.07 LIG-0.34  N 
ATOM     15  CD  PRO B1002      15.722  23.075  -4.487  1.00 30.93 LIG 0.13  C 
ATOM     16  C   THR B1001      15.737  20.782  -5.521  1.00 31.77 LIG 0.26  C 
ATOM     17  CG  PRO B1002      16.286  23.422  -3.140  1.00 29.32 LIG 0.02  C 
ATOM     18  CB  PRO B1002      15.590  22.453  -2.248  1.00 30.61 LIG 0.04  C 
ATOM     19 O    THR B1001      15.746  19.555  -5.374  1.00 28.08 LIG-0.27  OA
BRANCH 16 20
ATOM     20  CA  THR B1001      15.772  21.444  -6.886  1.00 31.25 LIG 0.43  C 
ATOM     21  N   THR B1001      17.032  22.138  -7.085  1.00 31.78 LIG 0.62  N 
BRANCH 20 22
ATOM     22  CB  THR B1001      15.529  20.398  -7.974  1.00 33.83 LIG 0.16  C 
ATOM     23  CG2 THR B1001      15.646  21.029  -9.353  1.00 26.93 LIG 0.04  C 
BRANCH 22 24
ATOM     24 OG1  THR B1001      16.486  19.339  -7.844  1.00 35.47 LIG-0.39  OA
ATOM     25 HG1  THR B1001      16.122  18.607  -8.035  1.00 35.47 LIG 0.21  HD
ENDBRANCH 22 24
ENDBRANCH 20 22
ENDBRANCH 16 20
ENDBRANCH 11 13
ENDBRANCH 4 6
ENDBRANCH 1 2
BRANCH 1 26
ATOM     26  C   SER B1004       9.800  19.778   0.493  1.00 31.12 LIG 0.24  C 
ATOM     27 O    SER B1004       9.343  19.746  -0.641  1.00 31.43 LIG-0.27  OA
ATOM     28  N   PRO B1005       9.014  19.963   1.559  1.00 32.50 LIG-0.34  N 
ATOM     29  CA  PRO B1005       9.388  20.011   2.975  1.00 31.67 LIG 0.18  C 
ATOM     30  CD  PRO B1005       7.624  20.429   1.379  1.00 32.99 LIG 0.13  C 
ATOM     31  CB  PRO B1005       8.476  21.094   3.514  1.00 32.97 LIG 0.04  C 
ATOM     32  CG  PRO B1005       7.190  20.777   2.812  1.00 32.33 LIG 0.02  C 
BRANCH 29 33
ATOM     33  C   PRO B1005       9.143  18.674   3.682  1.00 31.95 LIG 0.24  C 
ATOM     34  N   PHE B1006       8.717  17.664   2.929  1.00 29.16 LIG-0.34  N 
ATOM     35 H    PHE B1006       8.593  17.710   2.079  1.00 29.16 LIG 0.16  HD
ATOM     36 O    PRO B1005       9.344  18.566   4.892  1.00 29.71 LIG-0.27  OA
BRANCH 34 37
ATOM     37  CA  PHE B1006       8.421  16.366   3.519  1.00 29.49 LIG 0.19  C 
BRANCH 37 38
ATOM     38  CB  PHE B1006       9.694  15.759   4.110  1.00 24.64 LIG 0.07  C 
BRANCH 38 39
ATOM     39  CG  PHE B1006      10.885  15.853   3.201  1.00 23.14 LIG-0.06  A 
ATOM     40  CD2 PHE B1006      11.049  14.954   2.154  1.00 22.25 LIG 0.01  A 
ATOM     41  CE2 PHE B1006      12.163  15.042   1.302  1.00 23.88 LIG 0.00  A 
ATOM     42  CZ  PHE B1006      13.111  16.037   1.505  1.00 22.95 LIG 0.00  A 
ATOM     43  CE1 PHE B1006      12.949  16.942   2.556  1.00 21.15 LIG 0.00  A 
ATOM     44  CD1 PHE B1006      11.845  16.844   3.390  1.00 23.85 LIG 0.01  A 
ENDBRANCH 38 39
ENDBRANCH 37 38
BRANCH 37 45
ATOM     45  C   PHE B1006       7.324  16.402   4.574  1.00 30.13 LIG 0.20  C 
ATOM     46 O    PHE B1006       6.684  17.466   4.706  1.00 31.00 LIG-0.65  OA
ATOM     47 OXT  PHE B1006       7.112  15.374   5.249  1.00 32.43 LIG-0.65  OA
ENDBRANCH 37 45
ENDBRANCH 34 37
ENDBRANCH 29 33
ENDBRANCH 1 26
BRANCH 1 48
ATOM     48  CB  SER B1004      11.964  20.900   1.099  1.00 35.03 LIG 0.20  C 
BRANCH 48 49
ATOM     49 OG   SER B1004      12.349  20.885   2.460  1.00 42.75 LIG-0.40  OA
ATOM     50 HG   SER B1004      13.000  20.365   2.561  1.00 42.75 LIG 0.21  HD
ENDBRANCH 48 49
ENDBRANCH 1 48
TORSDOF 14
ENDMDL
MODEL 4
USER: ADFR SOLUTION from run 175
USER: SCORE 12.883006 LL:  -4.460 LR:  -9.406 RR:   0.000 FEB:  -5.230
USER: RMSD 3.282619
USER: SEED 174
USER: STATUS no improvement in best in 4 clusters for 5 generations
USER: GENES 16
USER: genes 0 Translation |==|  0.43262 0.31375 0.48551
USER: genes 1 Rotation |==|  0.45296 0.63168 0.57767 0.97372
USER: genes 2 Torsion [CB]-CA--N-[C] |==|  0.23329
USER: genes 3 Torsion [N]-C--CA-[N] |==|  0.69644
USER: genes 4 Torsion [N]-C--CA-[N] |==|  0.32013
USER: genes 5 Torsion [N]-C--CA-[N] |==|  0.18735
USER: genes 6 Torsion [C]-CA--CB-[CG2] |==|  0.19174
USER: genes 7 Torsion [CA]-CB--OG1-[HG1] |==|  0.47926
USER: genes 8 Torsion [N]-CA--C-[N] |==|  0.47548
USER: genes 9 Torsion [N]-CA--C-[N] |==|  0.29096
USER: genes 10 Torsion [C]-N--CA-[CB] |==|  0.31966
USER: genes 11 Torsion [N]-CA--CB-[CG] |==|  0.91772
USER: genes 12 Torsion [CA]-CB--CG-[CD1] |==|  0.37154
USER: genes 13 Torsion [N]-CA--C-[O] |==|  0.54222
USER: genes 14 Torsion [N]-CA--CB-[OG] |==|  0.02904
USER: genes 15 Torsion [CA]-CB--OG-[HG] |==|  0.54886
ROOT
ATOM      1  CA  SER B1004      10.723  15.992  -0.978  1.00 32.51 LIG 0.20  C 
ENDROOT
BRANCH 1 2
ATOM      2  N   SER B1004      11.442  16.157  -2.231  1.00 30.80 LIG-0.34  N 
ATOM      3 H    SER B1004      11.751  15.431  -2.576  1.00 30.80 LIG 0.16  HD
ATOM      4  C   PRO B1003      11.580  17.366  -2.755  1.00 29.50 LIG 0.24  C 
ATOM      5 O    PRO B1003      11.106  18.370  -2.220  1.00 26.59 LIG-0.27  OA
BRANCH 4 6
ATOM      6  CA  PRO B1003      12.356  17.480  -4.072  1.00 29.25 LIG 0.18  C 
ATOM      7  CB  PRO B1003      12.792  16.101  -4.569  1.00 27.80 LIG 0.04  C 
ATOM      8  CG  PRO B1003      14.230  16.288  -4.969  1.00 32.17 LIG 0.02  C 
ATOM      9  CD  PRO B1003      14.759  17.227  -3.915  1.00 30.31 LIG 0.13  C 
ATOM     10  N   PRO B1003      13.619  18.138  -3.724  1.00 27.10 LIG-0.34  N 
ATOM     11  C   PRO B1002      13.632  19.438  -3.393  1.00 28.33 LIG 0.24  C 
ATOM     12 O    PRO B1002      12.615  20.120  -3.399  1.00 27.60 LIG-0.27  OA
BRANCH 11 13
ATOM     13  CA  PRO B1002      14.981  20.041  -3.023  1.00 29.68 LIG 0.18  C 
ATOM     14  N   PRO B1002      15.483  21.081  -3.923  1.00 30.07 LIG-0.34  N 
ATOM     15  CD  PRO B1002      15.763  22.319  -3.172  1.00 30.93 LIG 0.13  C 
ATOM     16  C   THR B1001      15.736  20.909  -5.254  1.00 31.77 LIG 0.26  C 
ATOM     17  CG  PRO B1002      15.959  21.802  -1.777  1.00 29.32 LIG 0.02  C 
ATOM     18  CB  PRO B1002      14.899  20.759  -1.677  1.00 30.61 LIG 0.04  C 
ATOM     19 O    THR B1001      15.521  19.817  -5.789  1.00 28.08 LIG-0.27  OA
BRANCH 16 20
ATOM     20  CA  THR B1001      16.262  22.109  -6.022  1.00 31.25 LIG 0.43  C 
ATOM     21  N   THR B1001      17.600  22.453  -5.577  1.00 31.78 LIG 0.62  N 
BRANCH 20 22
ATOM     22  CB  THR B1001      16.226  21.818  -7.523  1.00 33.83 LIG 0.16  C 
ATOM     23  CG2 THR B1001      14.790  21.751  -8.017  1.00 26.93 LIG 0.04  C 
BRANCH 22 24
ATOM     24 OG1  THR B1001      16.933  22.846  -8.228  1.00 35.47 LIG-0.39  OA
ATOM     25 HG1  THR B1001      17.001  22.634  -9.037  1.00 35.47 LIG 0.21  HD
ENDBRANCH 22 24
ENDBRANCH 20 22
ENDBRANCH 16 20
ENDBRANCH 11 13
ENDBRANCH 4 6
ENDBRANCH 1 2
BRANCH 1 26
ATOM     26  C   SER B1004      11.225  14.711  -0.317  1.00 31.12 LIG 0.24  C 
ATOM     27 O    SER B1004      11.986  13.961  -0.912  1.00 31.43 LIG-0.27  OA
ATOM     28  N   PRO B1005      10.830  14.457   0.936  1.00 32.50 LIG-0.34  N 
ATOM     29  CA  PRO B1005       9.945  15.248   1.794  1.00 31.67 LIG 0.18  C 
ATOM     30  CD  PRO B1005      11.058  13.121   1.525  1.00 32.99 LIG 0.13  C 
ATOM     31  CB  PRO B1005       9.153  14.176   2.518  1.00 32.97 LIG 0.04  C 
ATOM     32  CG  PRO B1005      10.221  13.167   2.814  1.00 32.33 LIG 0.02  C 
BRANCH 29 33
ATOM     33  C   PRO B1005      10.727  16.123   2.779  1.00 31.95 LIG 0.24  C 
ATOM     34  N   PHE B1006      10.790  17.424   2.509  1.00 29.16 LIG-0.34  N 
ATOM     35 H    PHE B1006      10.405  17.800   1.838  1.00 29.16 LIG 0.16  HD
ATOM     36 O    PRO B1005      11.259  15.619   3.769  1.00 29.71 LIG-0.27  OA
BRANCH 34 37
ATOM     37  CA  PHE B1006      11.542  18.329   3.367  1.00 29.49 LIG 0.19  C 
BRANCH 37 38
ATOM     38  CB  PHE B1006      12.721  18.920   2.594  1.00 24.64 LIG 0.07  C 
BRANCH 38 39
ATOM     39  CG  PHE B1006      13.256  18.013   1.524  1.00 23.14 LIG-0.06  A 
ATOM     40  CD2 PHE B1006      13.486  16.668   1.787  1.00 22.25 LIG 0.01  A 
ATOM     41  CE2 PHE B1006      13.986  15.817   0.785  1.00 23.88 LIG 0.00  A 
ATOM     42  CZ  PHE B1006      14.252  16.323  -0.481  1.00 22.95 LIG 0.00  A 
ATOM     43  CE1 PHE B1006      14.021  17.674  -0.749  1.00 21.15 LIG 0.00  A 
ATOM     44  CD1 PHE B1006      13.528  18.503   0.249  1.00 23.85 LIG 0.01  A 
ENDBRANCH 38 39
ENDBRANCH 37 38
BRANCH 37 45
ATOM     45  C   PHE B1006      10.703  19.447   3.970  1.00 30.13 LIG 0.20  C 
ATOM     46 O    PHE B1006      11.306  20.418   4.471  1.00 31.00 LIG-0.65  OA
ATOM     47 OXT  PHE B1006       9.459  19.345   3.933  1.00 32.43 LIG-0.65  OA
ENDBRANCH 37 45
ENDBRANCH 34 37
ENDBRANCH 29 33
ENDBRANCH 1 26
BRANCH 1 48
ATOM     48  CB  SER B1004       9.219  15.906  -1.239  1.00 35.03 LIG 0.20  C 
BRANCH 48 49
ATOM     49 OG   SER B1004       8.978  15.770  -2.626  1.00 42.75 LIG-0.40  OA
ATOM     50 HG   SER B1004       8.177  15.962  -2.791  1.00 42.75 LIG 0.21  HD
ENDBRANCH 48 49
ENDBRANCH 1 48
TORSDOF 14
ENDMDL
MODEL 5
USER: ADFR SOLUTION from run 66
USER: SCORE 13.398650 LL:  -4.924 LR:  -9.367 RR:   0.000 FEB:  -5.191
USER: RMSD 2.005963
USER: SEED 65
USER: STATUS no improvement in best in 6 clusters for 5 generations
USER: GENES 16
USER: genes 0 Translation |==|  0.34620 0.40731 0.49734
USER: genes 1 Rotation |==|  0.50813 0.54044 0.53562 0.99702
USER: genes 2 Torsion [CB]-CA--N-[C] |==|  0.47222
USER: genes 3 Torsion [N]-C--CA-[N] |==|  0.42441
USER: genes 4 Torsion [N]-C--CA-[N] |==|  0.33186
USER: genes 5 Torsion [N]-C--CA-[N] |==|  0.87812
USER: genes 6 Torsion [C]-CA--CB-[CG2] |==|  0.98078
USER: genes 7 Torsion [CA]-CB--OG1-[HG1] |==|  0.60501
USER: genes 8 Torsion [N]-CA--C-[N] |==|  0.40591
USER: genes 9 Torsion [N]-CA--C-[N] |==|  0.16253
USER: genes 10 Torsion [C]-N--CA-[CB] |==|  0.35004
USER: genes 11 Torsion [N]-CA--CB-[CG] |==|  0.88422
USER: genes 12 Torsion [CA]-CB--CG-[CD1] |==|  0.38415
USER: genes 13 Torsion [N]-CA--C-[O] |==|  0.36111
USER: genes 14 Torsion [N]-CA--CB-[OG] |==|  0.11388
USER: genes 15 Torsion [CA]-CB--OG-[HG] |==|  0.09477
ROOT
ATOM      1  CA  SER B1004       9.102  18.027  -0.774  1.00 32.51 LIG 0.20  C 
ENDROOT
BRANCH 1 2
ATOM      2  N   SER B1004      10.245  18.254  -1.643  1.00 30.80 LIG-0.34  N 
ATOM      3 H    SER B1004      10.056  18.396  -2.471  1.00 30.80 LIG 0.16  HD
ATOM      4  C   PRO B1003      11.470  18.229  -1.138  1.00 29.50 LIG 0.24  C 
ATOM      5 O    PRO B1003      11.681  18.030   0.060  1.00 26.59 LIG-0.27  OA
BRANCH 4 6
ATOM      6  CA  PRO B1003      12.637  18.465  -2.103  1.00 29.25 LIG 0.18  C 
ATOM      7  CB  PRO B1003      13.219  17.136  -2.590  1.00 27.80 LIG 0.04  C 
ATOM      8  CG  PRO B1003      14.707  17.316  -2.469  1.00 32.17 LIG 0.02  C 
ATOM      9  CD  PRO B1003      14.854  18.111  -1.197  1.00 30.31 LIG 0.13  C 
ATOM     10  N   PRO B1003      13.712  19.034  -1.284  1.00 27.10 LIG-0.34  N 
ATOM     11  C   PRO B1002      13.609  20.286  -0.816  1.00 28.33 LIG 0.24  C 
ATOM     12 O    PRO B1002      12.648  21.000  -1.075  1.00 27.60 LIG-0.27  OA
BRANCH 11 13
ATOM     13  CA  PRO B1002      14.757  20.796   0.045  1.00 29.68 LIG 0.18  C 
ATOM     14  N   PRO B1002      15.464  21.973  -0.464  1.00 30.07 LIG-0.34  N 
ATOM     15  CD  PRO B1002      15.453  23.053   0.540  1.00 30.93 LIG 0.13  C 
ATOM     16  C   THR B1001      16.113  22.038  -1.664  1.00 31.77 LIG 0.26  C 
ATOM     17  CG  PRO B1002      15.241  22.293   1.816  1.00 29.32 LIG 0.02  C 
ATOM     18  CB  PRO B1002      14.244  21.264   1.407  1.00 30.61 LIG 0.04  C 
ATOM     19 O    THR B1001      16.115  21.062  -2.421  1.00 28.08 LIG-0.27  OA
BRANCH 16 20
ATOM     20  CA  THR B1001      16.795  23.348  -2.015  1.00 31.25 LIG 0.43  C 
ATOM     21  N   THR B1001      15.937  24.474  -1.692  1.00 31.78 LIG 0.62  N 
BRANCH 20 22
ATOM     22  CB  THR B1001      18.139  23.441  -1.290  1.00 33.83 LIG 0.16  C 
ATOM     23  CG2 THR B1001      18.299  22.283  -0.318  1.00 26.93 LIG 0.04  C 
BRANCH 22 24
ATOM     24 OG1  THR B1001      19.204  23.418  -2.249  1.00 35.47 LIG-0.39  OA
ATOM     25 HG1  THR B1001      19.847  22.974  -1.942  1.00 35.47 LIG 0.21  HD
ENDBRANCH 22 24
ENDBRANCH 20 22
ENDBRANCH 16 20
ENDBRANCH 11 13
ENDBRANCH 4 6
ENDBRANCH 1 2
BRANCH 1 26
ATOM     26  C   SER B1004       9.129  16.563  -0.342  1.00 31.12 LIG 0.24  C 
ATOM     27 O    SER B1004       9.563  15.701  -1.092  1.00 31.43 LIG-0.27  OA
ATOM     28  N   PRO B1005       8.690  16.265   0.887  1.00 32.50 LIG-0.34  N 
ATOM     29  CA  PRO B1005       8.159  17.167   1.912  1.00 31.67 LIG 0.18  C 
ATOM     30  CD  PRO B1005       8.439  14.858   1.260  1.00 32.99 LIG 0.13  C 
ATOM     31  CB  PRO B1005       7.051  16.337   2.531  1.00 32.97 LIG 0.04  C 
ATOM     32  CG  PRO B1005       7.695  14.985   2.599  1.00 32.33 LIG 0.02  C 
BRANCH 29 33
ATOM     33  C   PRO B1005       9.218  17.545   2.952  1.00 31.95 LIG 0.24  C 
ATOM     34  N   PHE B1006      10.318  18.142   2.502  1.00 29.16 LIG-0.34  N 
ATOM     35 H    PHE B1006      10.458  18.344   1.678  1.00 29.16 LIG 0.16  HD
ATOM     36 O    PRO B1005       9.032  17.300   4.145  1.00 29.71 LIG-0.27  OA
BRANCH 34 37
ATOM     37  CA  PHE B1006      11.397  18.505   3.410  1.00 29.49 LIG 0.19  C 
BRANCH 37 38
ATOM     38  CB  PHE B1006      12.717  17.912   2.916  1.00 24.64 LIG 0.07  C 
BRANCH 38 39
ATOM     39  CG  PHE B1006      12.593  16.505   2.409  1.00 23.14 LIG-0.06  A 
ATOM     40  CD2 PHE B1006      11.807  15.577   3.082  1.00 22.25 LIG 0.01  A 
ATOM     41  CE2 PHE B1006      11.690  14.258   2.607  1.00 23.88 LIG 0.00  A 
ATOM     42  CZ  PHE B1006      12.362  13.878   1.453  1.00 22.95 LIG 0.00  A 
ATOM     43  CE1 PHE B1006      13.152  14.808   0.774  1.00 21.15 LIG 0.00  A 
ATOM     44  CD1 PHE B1006      13.260  16.106   1.254  1.00 23.85 LIG 0.01  A 
ENDBRANCH 38 39
ENDBRANCH 37 38
BRANCH 37 45
ATOM     45  C   PHE B1006      11.547  20.005   3.621  1.00 30.13 LIG 0.20  C 
ATOM     46 O    PHE B1006      11.611  20.421   4.797  1.00 31.00 LIG-0.65  OA
ATOM     47 OXT  PHE B1006      11.604  20.745   2.618  1.00 32.43 LIG-0.65  OA
ENDBRANCH 37 45
ENDBRANCH 34 37
ENDBRANCH 29 33
ENDBRANCH 1 26
BRANCH 1 48
ATOM     48  CB  SER B1004       7.803  18.344  -1.514  1.00 35.03 LIG 0.20  C 
BRANCH 48 49
ATOM     49 OG   SER B1004       7.875  17.861  -2.841  1.00 42.75 LIG-0.40  OA
ATOM     50 HG   SER B1004       8.324  17.151  -2.857  1.00 42.75 LIG 0.21  HD
ENDBRANCH 48 49
ENDBRANCH 1 48
TORSDOF 14
ENDMDL
MODEL 6
USER: ADFR SOLUTION from run 130
USER: SCORE 12.628709 LL:  -4.386 LR:  -9.296 RR:   0.000 FEB:  -5.120
USER: RMSD 2.718497
USER: SEED 129
USER: STATUS no improvement in best in 4 clusters for 5 generations
USER: GENES 16
USER: genes 0 Translation |==|  0.41413 0.37854 0.46269
USER: genes 1 Rotation |==|  0.48814 0.51358 0.44035 0.99610
USER: genes 2 Torsion [CB]-CA--N-[C] |==|  0.26602
USER: genes 3 Torsion [N]-C--CA-[N] |==|  0.44999
USER: genes 4 Torsion [N]-C--CA-[N] |==|  0.37115
USER: genes 5 Torsion [N]-C--CA-[N] |==|  0.86705
USER: genes 6 Torsion [C]-CA--CB-[CG2] |==|  0.65887
USER: genes 7 Torsion [CA]-CB--OG1-[HG1] |==|  0.37574
USER: genes 8 Torsion [N]-CA--C-[N] |==|  0.43477
USER: genes 9 Torsion [N]-CA--C-[N] |==|  0.24879
USER: genes 10 Torsion [C]-N--CA-[CB] |==|  0.31718
USER: genes 11 Torsion [N]-CA--CB-[CG] |==|  0.89249
USER: genes 12 Torsion [CA]-CB--CG-[CD1] |==|  0.33312
USER: genes 13 Torsion [N]-CA--C-[O] |==|  0.39450
USER: genes 14 Torsion [N]-CA--CB-[OG] |==|  0.98495
USER: genes 15 Torsion [CA]-CB--OG-[HG] |==|  0.86878
ROOT
ATOM      1  CA  SER B1004      10.376  17.401  -1.372  1.00 32.51 LIG 0.20  C 
ENDROOT
BRANCH 1 2
ATOM      2  N   SER B1004      11.590  17.094  -2.109  1.00 30.80 LIG-0.34  N 
ATOM      3 H    SER B1004      11.577  16.353  -2.547  1.00 30.80 LIG 0.16  HD
ATOM      4  C   PRO B1003      12.614  17.935  -2.071  1.00 29.50 LIG 0.24  C 
ATOM      5 O    PRO B1003      12.571  18.989  -1.433  1.00 26.59 LIG-0.27  OA
BRANCH 4 6
ATOM      6  CA  PRO B1003      13.871  17.555  -2.859  1.00 29.25 LIG 0.18  C 
ATOM      7  CB  PRO B1003      14.793  16.667  -2.021  1.00 27.80 LIG 0.04  C 
ATOM      8  CG  PRO B1003      16.163  17.253  -2.228  1.00 32.17 LIG 0.02  C 
ATOM      9  CD  PRO B1003      15.898  18.737  -2.263  1.00 30.31 LIG 0.13  C 
ATOM     10  N   PRO B1003      14.630  18.800  -3.007  1.00 27.10 LIG-0.34  N 
ATOM     11  C   PRO B1002      14.187  19.764  -3.827  1.00 28.33 LIG 0.24  C 
ATOM     12 O    PRO B1002      13.170  19.632  -4.495  1.00 27.60 LIG-0.27  OA
BRANCH 11 13
ATOM     13  CA  PRO B1002      15.022  21.036  -3.908  1.00 29.68 LIG 0.18  C 
ATOM     14  N   PRO B1002      15.288  21.540  -5.257  1.00 30.07 LIG-0.34  N 
ATOM     15  CD  PRO B1002      14.828  22.937  -5.383  1.00 30.93 LIG 0.13  C 
ATOM     16  C   THR B1001      15.941  20.849  -6.237  1.00 31.77 LIG 0.26  C 
ATOM     17  CG  PRO B1002      14.826  23.396  -3.955  1.00 29.32 LIG 0.02  C 
ATOM     18  CB  PRO B1002      14.293  22.202  -3.241  1.00 30.61 LIG 0.04  C 
ATOM     19 O    THR B1001      16.339  19.700  -6.023  1.00 28.08 LIG-0.27  OA
BRANCH 16 20
ATOM     20  CA  THR B1001      16.127  21.546  -7.573  1.00 31.25 LIG 0.43  C 
ATOM     21  N   THR B1001      14.878  22.137  -8.019  1.00 31.78 LIG 0.62  N 
BRANCH 20 22
ATOM     22  CB  THR B1001      17.235  22.593  -7.460  1.00 33.83 LIG 0.16  C 
ATOM     23  CG2 THR B1001      16.709  23.966  -7.846  1.00 26.93 LIG 0.04  C 
BRANCH 22 24
ATOM     24 OG1  THR B1001      17.730  22.625  -6.116  1.00 35.47 LIG-0.39  OA
ATOM     25 HG1  THR B1001      18.569  22.649  -6.126  1.00 35.47 LIG 0.21  HD
ENDBRANCH 22 24
ENDBRANCH 20 22
ENDBRANCH 16 20
ENDBRANCH 11 13
ENDBRANCH 4 6
ENDBRANCH 1 2
BRANCH 1 26
ATOM     26  C   SER B1004       9.820  16.090  -0.823  1.00 31.12 LIG 0.24  C 
ATOM     27 O    SER B1004      10.122  15.022  -1.337  1.00 31.43 LIG-0.27  OA
ATOM     28  N   PRO B1005       9.020  16.149   0.248  1.00 32.50 LIG-0.34  N 
ATOM     29  CA  PRO B1005       8.575  17.328   0.994  1.00 31.67 LIG 0.18  C 
ATOM     30  CD  PRO B1005       8.243  14.960   0.656  1.00 32.99 LIG 0.13  C 
ATOM     31  CB  PRO B1005       7.142  16.973   1.338  1.00 32.97 LIG 0.04  C 
ATOM     32  CG  PRO B1005       7.276  15.526   1.708  1.00 32.33 LIG 0.02  C 
BRANCH 29 33
ATOM     33  C   PRO B1005       9.409  17.562   2.257  1.00 31.95 LIG 0.24  C 
ATOM     34  N   PHE B1006      10.493  18.322   2.131  1.00 29.16 LIG-0.34  N 
ATOM     35 H    PHE B1006      10.737  18.702   1.399  1.00 29.16 LIG 0.16  HD
ATOM     36 O    PRO B1005       9.066  17.060   3.329  1.00 29.71 LIG-0.27  OA
BRANCH 34 37
ATOM     37  CA  PHE B1006      11.368  18.569   3.268  1.00 29.49 LIG 0.19  C 
BRANCH 37 38
ATOM     38  CB  PHE B1006      12.736  17.931   3.022  1.00 24.64 LIG 0.07  C 
BRANCH 38 39
ATOM     39  CG  PHE B1006      12.664  16.596   2.340  1.00 23.14 LIG-0.06  A 
ATOM     40  CD2 PHE B1006      11.980  15.538   2.926  1.00 22.25 LIG 0.01  A 
ATOM     41  CE2 PHE B1006      11.911  14.287   2.288  1.00 23.88 LIG 0.00  A 
ATOM     42  CZ  PHE B1006      12.530  14.105   1.058  1.00 22.95 LIG 0.00  A 
ATOM     43  CE1 PHE B1006      13.218  15.166   0.466  1.00 21.15 LIG 0.00  A 
ATOM     44  CD1 PHE B1006      13.279  16.395   1.106  1.00 23.85 LIG 0.01  A 
ENDBRANCH 38 39
ENDBRANCH 37 38
BRANCH 37 45
ATOM     45  C   PHE B1006      11.536  20.043   3.609  1.00 30.13 LIG 0.20  C 
ATOM     46 O    PHE B1006      11.596  20.356   4.816  1.00 31.00 LIG-0.65  OA
ATOM     47 OXT  PHE B1006      11.611  20.866   2.673  1.00 32.43 LIG-0.65  OA
ENDBRANCH 37 45
ENDBRANCH 34 37
ENDBRANCH 29 33
ENDBRANCH 1 26
BRANCH 1 48
ATOM     48  CB  SER B1004       9.355  18.074  -2.290  1.00 35.03 LIG 0.20  C 
BRANCH 48 49
ATOM     49 OG   SER B1004       9.934  18.315  -3.557  1.00 42.75 LIG-0.40  OA
ATOM     50 HG   SER B1004      10.690  18.666  -3.458  1.00 42.75 LIG 0.21  HD
ENDBRANCH 48 49
ENDBRANCH 1 48
TORSDOF 14
ENDMDL
MODEL 7
USER: ADFR SOLUTION from run 36
USER: SCORE 13.517955 LL:  -4.775 LR:  -9.211 RR:   0.000 FEB:  -5.035
USER: RMSD 3.630056
USER: SEED 35
USER: STATUS no improvement in best in 5 clusters for 5 generations
USER: GENES 16
USER: genes 0 Translation |==|  0.48383 0.50714 0.45331
USER: genes 1 Rotation |==|  0.59197 0.33682 0.60793 0.95085
USER: genes 2 Torsion [CB]-CA--N-[C] |==|  0.52778
USER: genes 3 Torsion [N]-C--CA-[N] |==|  0.96648
USER: genes 4 Torsion [N]-C--CA-[N] |==|  0.28769
USER: genes 5 Torsion [N]-C--CA-[N] |==|  0.26505
USER: genes 6 Torsion [C]-CA--CB-[CG2] |==|  0.70511
USER: genes 7 Torsion [CA]-CB--OG1-[HG1] |==|  0.56944
USER: genes 8 Torsion [N]-CA--C-[N] |==|  0.38054
USER: genes 9 Torsion [N]-CA--C-[N] |==|  0.15545
USER: genes 10 Torsion [C]-N--CA-[CB] |==|  0.27939
USER: genes 11 Torsion [N]-CA--CB-[CG] |==|  0.88617
USER: genes 12 Torsion [CA]-CB--CG-[CD1] |==|  0.28570
USER: genes 13 Torsion [N]-CA--C-[O] |==|  0.97211
USER: genes 14 Torsion [N]-CA--CB-[OG] |==|  0.10212
USER: genes 15 Torsion [CA]-CB--OG-[HG] |==|  0.06680
ROOT
ATOM      1  CA  SER B1004      11.683  20.198  -1.533  1.00 32.51 LIG 0.20  C 
ENDROOT
BRANCH 1 2
ATOM      2  N   SER B1004      12.906  20.887  -1.155  1.00 30.80 LIG-0.34  N 
ATOM      3 H    SER B1004      13.104  21.575  -1.632  1.00 30.80 LIG 0.16  HD
ATOM      4  C   PRO B1003      13.625  20.437  -0.137  1.00 29.50 LIG 0.24  C 
ATOM      5 O    PRO B1003      13.286  19.450   0.519  1.00 26.59 LIG-0.27  OA
BRANCH 4 6
ATOM      6  CA  PRO B1003      14.910  21.197   0.211  1.00 29.25 LIG 0.18  C 
ATOM      7  CB  PRO B1003      14.681  22.144   1.391  1.00 27.80 LIG 0.04  C 
ATOM      8  CG  PRO B1003      15.330  23.432   0.964  1.00 32.17 LIG 0.02  C 
ATOM      9  CD  PRO B1003      15.007  23.507  -0.507  1.00 30.31 LIG 0.13  C 
ATOM     10  N   PRO B1003      15.146  22.101  -0.918  1.00 27.10 LIG-0.34  N 
ATOM     11  C   PRO B1002      15.542  21.609  -2.102  1.00 28.33 LIG 0.24  C 
ATOM     12 O    PRO B1002      15.747  20.414  -2.274  1.00 27.60 LIG-0.27  OA
BRANCH 11 13
ATOM     13  CA  PRO B1002      15.744  22.612  -3.231  1.00 29.68 LIG 0.18  C 
ATOM     14  N   PRO B1002      17.135  22.947  -3.545  1.00 30.07 LIG-0.34  N 
ATOM     15  CD  PRO B1002      17.416  22.686  -4.969  1.00 30.93 LIG 0.13  C 
ATOM     16  C   THR B1001      18.025  23.500  -2.669  1.00 31.77 LIG 0.26  C 
ATOM     17  CG  PRO B1002      16.045  22.746  -5.576  1.00 29.32 LIG 0.02  C 
ATOM     18  CB  PRO B1002      15.217  22.052  -4.551  1.00 30.61 LIG 0.04  C 
ATOM     19 O    THR B1001      17.683  23.734  -1.505  1.00 28.08 LIG-0.27  OA
BRANCH 16 20
ATOM     20  CA  THR B1001      19.424  23.782  -3.185  1.00 31.25 LIG 0.43  C 
ATOM     21  N   THR B1001      19.537  25.160  -3.626  1.00 31.78 LIG 0.62  N 
BRANCH 20 22
ATOM     22  CB  THR B1001      20.451  23.453  -2.100  1.00 33.83 LIG 0.16  C 
ATOM     23  CG2 THR B1001      21.015  24.731  -1.498  1.00 26.93 LIG 0.04  C 
BRANCH 22 24
ATOM     24 OG1  THR B1001      19.831  22.668  -1.074  1.00 35.47 LIG-0.39  OA
ATOM     25 HG1  THR B1001      20.248  22.770  -0.353  1.00 35.47 LIG 0.21  HD
ENDBRANCH 22 24
ENDBRANCH 20 22
ENDBRANCH 16 20
ENDBRANCH 11 13
ENDBRANCH 4 6
ENDBRANCH 1 2
BRANCH 1 26
ATOM     26  C   SER B1004      12.002  18.710  -1.645  1.00 31.12 LIG 0.24  C 
ATOM     27 O    SER B1004      13.041  18.334  -2.169  1.00 31.43 LIG-0.27  OA
ATOM     28  N   PRO B1005      11.125  17.841  -1.128  1.00 32.50 LIG-0.34  N 
ATOM     29  CA  PRO B1005       9.853  18.116  -0.456  1.00 31.67 LIG 0.18  C 
ATOM     30  CD  PRO B1005      11.241  16.402  -1.439  1.00 32.99 LIG 0.13  C 
ATOM     31  CB  PRO B1005       8.971  16.989  -0.956  1.00 32.97 LIG 0.04  C 
ATOM     32  CG  PRO B1005       9.918  15.828  -0.907  1.00 32.33 LIG 0.02  C 
BRANCH 29 33
ATOM     33  C   PRO B1005       9.987  18.082   1.070  1.00 31.95 LIG 0.24  C 
ATOM     34  N   PHE B1006      10.895  18.889   1.613  1.00 29.16 LIG-0.34  N 
ATOM     35 H    PHE B1006      11.388  19.435   1.167  1.00 29.16 LIG 0.16  HD
ATOM     36 O    PRO B1005       9.272  17.336   1.740  1.00 29.71 LIG-0.27  OA
BRANCH 34 37
ATOM     37  CA  PHE B1006      11.121  18.899   3.051  1.00 29.49 LIG 0.19  C 
BRANCH 37 38
ATOM     38  CB  PHE B1006      12.369  18.082   3.389  1.00 24.64 LIG 0.07  C 
BRANCH 38 39
ATOM     39  CG  PHE B1006      12.488  16.811   2.600  1.00 23.14 LIG-0.06  A 
ATOM     40  CD2 PHE B1006      11.720  15.700   2.926  1.00 22.25 LIG 0.01  A 
ATOM     41  CE2 PHE B1006      11.831  14.509   2.188  1.00 23.88 LIG 0.00  A 
ATOM     42  CZ  PHE B1006      12.715  14.439   1.119  1.00 22.95 LIG 0.00  A 
ATOM     43  CE1 PHE B1006      13.489  15.553   0.788  1.00 21.15 LIG 0.00  A 
ATOM     44  CD1 PHE B1006      13.370  16.723   1.525  1.00 23.85 LIG 0.01  A 
ENDBRANCH 38 39
ENDBRANCH 37 38
BRANCH 37 45
ATOM     45  C   PHE B1006      11.236  20.295   3.648  1.00 30.13 LIG 0.20  C 
ATOM     46 O    PHE B1006      11.322  21.257   2.857  1.00 31.00 LIG-0.65  OA
ATOM     47 OXT  PHE B1006      11.234  20.414   4.890  1.00 32.43 LIG-0.65  OA
ENDBRANCH 37 45
ENDBRANCH 34 37
ENDBRANCH 29 33
ENDBRANCH 1 26
BRANCH 1 48
ATOM     48  CB  SER B1004      11.163  20.737  -2.867  1.00 35.03 LIG 0.20  C 
BRANCH 48 49
ATOM     49 OG   SER B1004      12.250  21.035  -3.721  1.00 42.75 LIG-0.40  OA
ATOM     50 HG   SER B1004      12.918  20.578  -3.495  1.00 42.75 LIG 0.21  HD
ENDBRANCH 48 49
ENDBRANCH 1 48
TORSDOF 14
ENDMDL
MODEL 8
USER: ADFR SOLUTION from run 21
USER: SCORE 12.401533 LL:  -3.913 LR:  -8.940 RR:   0.000 FEB:  -4.764
USER: RMSD 3.085789
USER: SEED 20
USER: STATUS no improvement in best in 3 clusters for 5 generations
USER: GENES 16
USER: genes 0 Translation |==|  0.37810 0.37085 0.47036
USER: genes 1 Rotation |==|  0.67239 0.54870 0.49830 0.96681
USER: genes 2 Torsion [CB]-CA--N-[C] |==|  0.50575
USER: genes 3 Torsion [N]-C--CA-[N] |==|  0.26794
USER: genes 4 Torsion [N]-C--CA-[N] |==|  0.30260
USER: genes 5 Torsion [N]-C--CA-[N] |==|  0.88623
USER: genes 6 Torsion [C]-CA--CB-[CG2] |==|  0.97410
USER: genes 7 Torsion [CA]-CB--OG1-[HG1] |==|  0.44767
USER: genes 8 Torsion [N]-CA--C-[N] |==|  0.47136
USER: genes 9 Torsion [N]-CA--C-[N] |==|  0.40283
USER: genes 10 Torsion [C]-N--CA-[CB] |==|  0.31869
USER: genes 11 Torsion [N]-CA--CB-[CG] |==|  0.82572
USER: genes 12 Torsion [CA]-CB--CG-[CD1] |==|  0.40275
USER: genes 13 Torsion [N]-CA--C-[O] |==|  0.35800
USER: genes 14 Torsion [N]-CA--CB-[OG] |==|  0.96002
USER: genes 15 Torsion [CA]-CB--OG-[HG] |==|  0.91188
ROOT
ATOM      1  CA  SER B1004       9.700  17.234  -1.239  1.00 32.51 LIG 0.20  C 
ENDROOT
BRANCH 1 2
ATOM      2  N   SER B1004      10.844  17.769  -1.961  1.00 30.80 LIG-0.34  N 
ATOM      3 H    SER B1004      10.704  18.510  -2.375  1.00 30.80 LIG 0.16  HD
ATOM      4  C   PRO B1003      11.995  17.113  -1.946  1.00 29.50 LIG 0.24  C 
ATOM      5 O    PRO B1003      12.140  16.058  -1.326  1.00 26.59 LIG-0.27  OA
BRANCH 4 6
ATOM      6  CA  PRO B1003      13.163  17.718  -2.733  1.00 29.25 LIG 0.18  C 
ATOM      7  CB  PRO B1003      14.126  16.627  -3.205  1.00 27.80 LIG 0.04  C 
ATOM      8  CG  PRO B1003      15.490  17.169  -2.878  1.00 32.17 LIG 0.02  C 
ATOM      9  CD  PRO B1003      15.274  17.864  -1.558  1.00 30.31 LIG 0.13  C 
ATOM     10  N   PRO B1003      13.948  18.470  -1.750  1.00 27.10 LIG-0.34  N 
ATOM     11  C   PRO B1002      13.465  19.611  -1.235  1.00 28.33 LIG 0.24  C 
ATOM     12 O    PRO B1002      12.388  20.077  -1.583  1.00 27.60 LIG-0.27  OA
BRANCH 11 13
ATOM     13  CA  PRO B1002      14.332  20.321  -0.203  1.00 29.68 LIG 0.18  C 
ATOM     14  N   PRO B1002      14.955  21.571  -0.644  1.00 30.07 LIG-0.34  N 
ATOM     15  CD  PRO B1002      14.589  22.675   0.263  1.00 30.93 LIG 0.13  C 
ATOM     16  C   THR B1001      15.819  21.688  -1.695  1.00 31.77 LIG 0.26  C 
ATOM     17  CG  PRO B1002      14.230  21.941   1.522  1.00 29.32 LIG 0.02  C 
ATOM     18  CB  PRO B1002      13.492  20.759   0.997  1.00 30.61 LIG 0.04  C 
ATOM     19 O    THR B1001      16.111  20.694  -2.369  1.00 28.08 LIG-0.27  OA
BRANCH 16 20
ATOM     20  CA  THR B1001      16.367  23.071  -1.994  1.00 31.25 LIG 0.43  C 
ATOM     21  N   THR B1001      15.326  24.074  -1.856  1.00 31.78 LIG 0.62  N 
BRANCH 20 22
ATOM     22  CB  THR B1001      17.555  23.365  -1.078  1.00 33.83 LIG 0.16  C 
ATOM     23  CG2 THR B1001      17.677  22.293  -0.006  1.00 26.93 LIG 0.04  C 
BRANCH 22 24
ATOM     24 OG1  THR B1001      18.759  23.412  -1.853  1.00 35.47 LIG-0.39  OA
ATOM     25 HG1  THR B1001      19.355  23.816  -1.421  1.00 35.47 LIG 0.21  HD
ENDBRANCH 22 24
ENDBRANCH 20 22
ENDBRANCH 16 20
ENDBRANCH 11 13
ENDBRANCH 4 6
ENDBRANCH 1 2
BRANCH 1 26
ATOM     26  C   SER B1004       9.429  15.829  -1.771  1.00 31.12 LIG 0.24  C 
ATOM     27 O    SER B1004      10.017  15.414  -2.760  1.00 31.43 LIG-0.27  OA
ATOM     28  N   PRO B1005       8.553  15.067  -1.107  1.00 32.50 LIG-0.34  N 
ATOM     29  CA  PRO B1005       7.781  15.395   0.094  1.00 31.67 LIG 0.18  C 
ATOM     30  CD  PRO B1005       8.051  13.818  -1.715  1.00 32.99 LIG 0.13  C 
ATOM     31  CB  PRO B1005       6.450  14.723  -0.183  1.00 32.97 LIG 0.04  C 
ATOM     32  CG  PRO B1005       6.893  13.423  -0.783  1.00 32.33 LIG 0.02  C 
BRANCH 29 33
ATOM     33  C   PRO B1005       8.429  14.842   1.367  1.00 31.95 LIG 0.24  C 
ATOM     34  N   PHE B1006       8.318  15.578   2.469  1.00 29.16 LIG-0.34  N 
ATOM     35 H    PHE B1006       7.892  16.324   2.513  1.00 29.16 LIG 0.16  HD
ATOM     36 O    PRO B1005       9.018  13.760   1.344  1.00 29.71 LIG-0.27  OA
BRANCH 34 37
ATOM     37  CA  PHE B1006       8.934  15.153   3.717  1.00 29.49 LIG 0.19  C 
BRANCH 37 38
ATOM     38  CB  PHE B1006      10.035  16.136   4.118  1.00 24.64 LIG 0.07  C 
BRANCH 38 39
ATOM     39  CG  PHE B1006      11.166  16.207   3.134  1.00 23.14 LIG-0.06  A 
ATOM     40  CD2 PHE B1006      11.576  15.073   2.444  1.00 22.25 LIG 0.01  A 
ATOM     41  CE2 PHE B1006      12.635  15.138   1.522  1.00 23.88 LIG 0.00  A 
ATOM     42  CZ  PHE B1006      13.278  16.348   1.294  1.00 22.95 LIG 0.00  A 
ATOM     43  CE1 PHE B1006      12.868  17.490   1.985  1.00 21.15 LIG 0.00  A 
ATOM     44  CD1 PHE B1006      11.822  17.412   2.893  1.00 23.85 LIG 0.01  A 
ENDBRANCH 38 39
ENDBRANCH 37 38
BRANCH 37 45
ATOM     45  C   PHE B1006       7.948  14.981   4.864  1.00 30.13 LIG 0.20  C 
ATOM     46 O    PHE B1006       7.977  13.905   5.497  1.00 31.00 LIG-0.65  OA
ATOM     47 OXT  PHE B1006       7.164  15.917   5.122  1.00 32.43 LIG-0.65  OA
ENDBRANCH 37 45
ENDBRANCH 34 37
ENDBRANCH 29 33
ENDBRANCH 1 26
BRANCH 1 48
ATOM     48  CB  SER B1004       8.479  18.130  -1.444  1.00 35.03 LIG 0.20  C 
BRANCH 48 49
ATOM     49 OG   SER B1004       8.880  19.373  -1.988  1.00 42.75 LIG-0.40  OA
ATOM     50 HG   SER B1004       9.648  19.566  -1.709  1.00 42.75 LIG 0.21  HD
ENDBRANCH 48 49
ENDBRANCH 1 48
TORSDOF 14
ENDMDL
