MODEL 1
USER: ADFR SOLUTION from run 165
USER: SCORE 18.402495 LL:  -5.671 LR: -15.942 RR:   0.000 FEB:  -8.186
USER: RMSD 1.830423
USER: SEED 164
USER: STATUS no improvement in best in 2 clusters for 5 generations
USER: GENES 28
USER: genes 0 Translation |==|  0.53764 0.30451 0.62947
USER: genes 1 Rotation |==|  0.58201 0.51331 0.47965 0.99263
USER: genes 2 Torsion [N]-CA--C-[N] |==|  0.44006
USER: genes 3 Torsion [C]-N--CA-[CB] |==|  0.47007
USER: genes 4 Torsion [N]-CA--CB-[CG] |==|  0.21984
USER: genes 5 Torsion [CA]-CB--CG-[CD2] |==|  0.29526
USER: genes 6 Torsion [N]-CA--C-[N] |==|  0.96796
USER: genes 7 Torsion [C]-N--CA-[CB] |==|  0.48598
USER: genes 8 Torsion [N]-CA--C-[N] |==|  0.86207
USER: genes 9 Torsion [C]-N--CA-[C] |==|  0.68684
USER: genes 10 Torsion [N]-CA--C-[O] |==|  0.55394
USER: genes 11 Torsion [N]-CA--CB-[CG] |==|  0.73363
USER: genes 12 Torsion [CA]-CB--CG-[OD1] |==|  0.89187
USER: genes 13 Torsion [N]-CA--CB-[CG] |==|  0.15383
USER: genes 14 Torsion [CA]-CB--CG-[OD1] |==|  0.96738
USER: genes 15 Torsion [C]-CA--CB-[CG] |==|  0.66394
USER: genes 16 Torsion [CA]-CB--CG-[CD2] |==|  0.28132
USER: genes 17 Torsion [C]-CA--N-[C] |==|  0.59050
USER: genes 18 Torsion [N]-C--CA-[N] |==|  0.87451
USER: genes 19 Torsion [C]-CA--CB-[OG] |==|  0.65365
USER: genes 20 Torsion [CA]-CB--OG-[HG] |==|  0.40538
USER: genes 21 Torsion [C]-CA--N-[C] |==|  0.79135
USER: genes 22 Torsion [N]-C--CA-[N] |==|  0.41231
USER: genes 23 Torsion [C]-CA--N-[C] |==|  0.61143
USER: genes 24 Torsion [N]-C--CA-[N] |==|  0.78534
USER: genes 25 Torsion [C]-CA--CB-[CG2] |==|  0.49225
USER: genes 26 Torsion [C]-CA--N-[H2] |==|  0.84455
USER: genes 27 Torsion [C]-CA--CB-[CG2] |==|  0.73365
ROOT
ATOM      1  CA  HIS P   4     -16.832   9.118  12.196  1.00 23.76 LIG 0.18  C 
ENDROOT
BRANCH 1 2
ATOM      2  C   HIS P   4     -17.861   9.993  11.466  1.00 25.01 LIG 0.24  C 
ATOM      3 O    HIS P   4     -17.574  11.142  11.104  1.00 23.35 LIG-0.27  OA
ATOM      4  N   PHE P   5     -19.082   9.484  11.316  1.00 23.15 LIG-0.35  N 
ATOM      5 H    PHE P   5     -19.320   8.722  11.638  1.00 23.15 LIG 0.16  HD
BRANCH 4 6
ATOM      6  CA  PHE P   5     -20.137  10.168  10.591  1.00 24.23 LIG 0.18  C 
BRANCH 6 7
ATOM      7  CB  PHE P   5     -21.324   9.179  10.381  1.00 25.15 LIG 0.07  C 
BRANCH 7 8
ATOM      8  CG  PHE P   5     -22.151   9.057  11.620  1.00 25.22 LIG-0.06  A 
ATOM      9  CD2 PHE P   5     -23.396   9.679  11.617  1.00 26.21 LIG 0.01  A 
ATOM     10  CE2 PHE P   5     -24.176   9.676  12.738  1.00 26.58 LIG 0.00  A 
ATOM     11  CZ  PHE P   5     -23.747   9.004  13.869  1.00 27.68 LIG 0.00  A 
ATOM     12  CE1 PHE P   5     -22.528   8.372  13.882  1.00 26.50 LIG 0.00  A 
ATOM     13  CD1 PHE P   5     -21.727   8.398  12.748  1.00 25.73 LIG 0.01  A 
ENDBRANCH 7 8
ENDBRANCH 6 7
BRANCH 6 14
ATOM     14  C   PHE P   5     -20.589  11.461  11.232  1.00 25.59 LIG 0.24  C 
ATOM     15 O    PHE P   5     -21.389  12.229  10.659  1.00 25.82 LIG-0.27  OA
ATOM     16  N   ASN P   6     -20.158  11.686  12.458  1.00 24.53 LIG-0.35  N 
ATOM     17 H    ASN P   6     -19.630  11.162  12.890  1.00 24.53 LIG 0.16  HD
BRANCH 16 18
ATOM     18  CA  ASN P   6     -20.560  12.880  13.189  1.00 25.84 LIG 0.18  C 
BRANCH 18 19
ATOM     19  C   ASN P   6     -20.185  14.171  12.499  1.00 25.26 LIG 0.24  C 
ATOM     20  N   ASP P   7     -18.915  14.308  12.069  1.00 26.59 LIG-0.34  N 
ATOM     21 H    ASP P   7     -18.293  13.725  12.183  1.00 26.59 LIG 0.16  HD
ATOM     22 O    ASN P   6     -21.027  15.064  12.382  1.00 25.72 LIG-0.27  OA
BRANCH 20 23
ATOM     23  CA  ASP P   7     -18.514  15.503  11.360  1.00 25.93 LIG 0.20  C 
BRANCH 23 24
ATOM     24  C   ASP P   7     -18.179  15.155   9.902  1.00 27.07 LIG 0.20  C 
ATOM     25 O    ASP P   7     -17.492  15.971   9.312  1.00 28.96 LIG-0.65  OA
ATOM     26 OXT  ASP P   7     -18.572  13.998   9.416  1.00 29.63 LIG-0.65  OA
ENDBRANCH 23 24
BRANCH 23 27
ATOM     27  CB  ASP P   7     -17.277  16.215  11.942  1.00 25.41 LIG 0.15  C 
BRANCH 27 28
ATOM     28  CG  ASP P   7     -17.624  17.345  12.876  1.00 25.37 LIG 0.17  C 
ATOM     29 OD1  ASP P   7     -18.574  18.137  12.687  1.00 26.66 LIG-0.65  OA
ATOM     30 OD2  ASP P   7     -16.901  17.436  13.926  1.00 23.76 LIG-0.65  OA
ENDBRANCH 27 28
ENDBRANCH 23 27
ENDBRANCH 20 23
ENDBRANCH 18 19
BRANCH 18 31
ATOM     31  CB  ASN P   6     -20.022  12.830  14.621  1.00 24.75 LIG 0.14  C 
BRANCH 31 32
ATOM     32  CG  ASN P   6     -18.521  12.641  14.650  1.00 27.24 LIG 0.22  C 
ATOM     33  ND2 ASN P   6     -18.038  12.905  15.863  1.00 23.85 LIG-0.37  N 
ATOM     34 21HD ASN P   6     -17.191  12.871  16.005  1.00 23.85 LIG 0.16  HD
ATOM     35 22HD ASN P   6     -18.574  13.110  16.504  1.00 23.85 LIG 0.16  HD
ATOM     36 OD1  ASN P   6     -17.896  12.325  13.597  1.00 24.90 LIG-0.27  OA
ENDBRANCH 31 32
ENDBRANCH 18 31
ENDBRANCH 16 18
ENDBRANCH 6 14
ENDBRANCH 4 6
ENDBRANCH 1 2
BRANCH 1 37
ATOM     37  CB  HIS P   4     -17.111   9.213  13.696  1.00 21.80 LIG 0.10  C 
BRANCH 37 38
ATOM     38  CG  HIS P   4     -15.952   9.733  14.491  1.00 23.01 LIG 0.06  A 
ATOM     39  CD2 HIS P   4     -15.665  10.922  15.020  1.00 23.26 LIG 0.14  A 
ATOM     40 NE2  HIS P   4     -14.564  10.752  15.821  1.00 21.45 LIG-0.25  NA
ATOM     41  CE1 HIS P   4     -14.189   9.476  15.812  1.00 22.12 LIG 0.23  A 
ATOM     42 ND1  HIS P   4     -15.009   8.838  15.039  1.00 22.83 LIG-0.24  NA
ENDBRANCH 37 38
ENDBRANCH 1 37
BRANCH 1 43
ATOM     43  N   HIS P   4     -15.481   9.601  11.799  1.00 22.02 LIG-0.35  N 
ATOM     44  C   SER P   3     -14.491   8.712  11.720  1.00 24.42 LIG 0.24  C 
ATOM     45 O    SER P   3     -14.680   7.517  11.999  1.00 24.72 LIG-0.27  OA
ATOM     46 H    HIS P   4     -15.412  10.443  11.641  1.00 22.02 LIG 0.16  HD
BRANCH 44 47
ATOM     47  CA  SER P   3     -13.094   9.209  11.382  1.00 22.14 LIG 0.20  C 
BRANCH 47 48
ATOM     48  CB  SER P   3     -12.393   9.860  12.592  1.00 23.32 LIG 0.20  C 
BRANCH 48 49
ATOM     49 OG   SER P   3     -11.975  11.197  12.240  1.00 23.11 LIG-0.40  OA
ATOM     50 HG   SER P   3     -12.034  11.696  12.913  1.00 23.11 LIG 0.21  HD
ENDBRANCH 48 49
ENDBRANCH 47 48
BRANCH 47 51
ATOM     51  N   SER P   3     -13.060  10.168  10.277  1.00 22.53 LIG-0.34  N 
ATOM     52 H    SER P   3     -12.936  10.986  10.513  1.00 22.53 LIG 0.16  HD
ATOM     53  C   VAL P   2     -13.212   9.767   9.019  1.00 22.76 LIG 0.24  C 
ATOM     54 O    VAL P   2     -13.550   8.595   8.738  1.00 25.85 LIG-0.27  OA
BRANCH 53 55
ATOM     55  CA  VAL P   2     -13.125  10.855   7.945  1.00 24.07 LIG 0.18  C 
BRANCH 55 56
ATOM     56  N   VAL P   2     -12.571  10.321   6.700  1.00 24.29 LIG-0.35  N 
ATOM     57 H    VAL P   2     -12.840   9.535   6.479  1.00 24.29 LIG 0.16  HD
ATOM     58  C   VAL P   1     -11.697  11.073   5.993  1.00 26.39 LIG 0.25  C 
ATOM     59 O    VAL P   1     -11.362  12.229   6.386  1.00 26.90 LIG-0.27  OA
BRANCH 58 60
ATOM     60  CA  VAL P   1     -11.164  10.510   4.683  1.00 27.40 LIG 0.28  C 
BRANCH 60 61
ATOM     61  CB  VAL P   1     -12.310   9.865   3.840  1.00 27.20 LIG 0.02  C 
ATOM     62  CG2 VAL P   1     -11.721   9.382   2.509  1.00 28.02 LIG 0.01  C 
ATOM     63  CG1 VAL P   1     -13.302  10.990   3.644  1.00 27.17 LIG 0.01  C 
ENDBRANCH 60 61
BRANCH 60 64
ATOM     64  N   VAL P   1     -10.151   9.522   4.884  1.00 29.12 LIG-0.07  N 
ATOM     65 H2   VAL P   1      -9.493   9.866   5.375  1.00 29.12 LIG 0.28  HD
ATOM     66 H1   VAL P   1      -9.827   9.264   4.095  1.00 29.12 LIG 0.28  HD
ATOM     67 H3   VAL P   1     -10.500   8.821   5.306  1.00 29.12 LIG 0.28  HD
ENDBRANCH 60 64
ENDBRANCH 58 60
ENDBRANCH 55 56
BRANCH 55 68
ATOM     68  CB  VAL P   2     -14.541  11.484   7.795  1.00 25.03 LIG 0.01  C 
ATOM     69  CG2 VAL P   2     -15.279  10.805   6.624  1.00 23.99 LIG 0.01  C 
ATOM     70  CG1 VAL P   2     -14.498  12.983   7.559  1.00 25.56 LIG 0.01  C 
ENDBRANCH 55 68
ENDBRANCH 53 55
ENDBRANCH 47 51
ENDBRANCH 44 47
ENDBRANCH 1 43
TORSDOF 26
ENDMDL
MODEL 2
USER: ADFR SOLUTION from run 17
USER: SCORE 18.926743 LL:  -6.905 LR: -15.568 RR:   0.000 FEB:  -7.812
USER: RMSD 2.772297
USER: SEED 16
USER: STATUS no improvement in best in 5 clusters for 5 generations
USER: GENES 28
USER: genes 0 Translation |==|  0.53583 0.30303 0.62539
USER: genes 1 Rotation |==|  0.55179 0.51057 0.49844 0.99720
USER: genes 2 Torsion [N]-CA--C-[N] |==|  0.46307
USER: genes 3 Torsion [C]-N--CA-[CB] |==|  0.45696
USER: genes 4 Torsion [N]-CA--CB-[CG] |==|  0.22514
USER: genes 5 Torsion [CA]-CB--CG-[CD2] |==|  0.29476
USER: genes 6 Torsion [N]-CA--C-[N] |==|  0.95979
USER: genes 7 Torsion [C]-N--CA-[CB] |==|  0.39047
USER: genes 8 Torsion [N]-CA--C-[N] |==|  0.92653
USER: genes 9 Torsion [C]-N--CA-[C] |==|  0.58327
USER: genes 10 Torsion [N]-CA--C-[O] |==|  0.34949
USER: genes 11 Torsion [N]-CA--CB-[CG] |==|  0.65511
USER: genes 12 Torsion [CA]-CB--CG-[OD1] |==|  0.96807
USER: genes 13 Torsion [N]-CA--CB-[CG] |==|  0.71250
USER: genes 14 Torsion [CA]-CB--CG-[OD1] |==|  0.00415
USER: genes 15 Torsion [C]-CA--CB-[CG] |==|  0.63562
USER: genes 16 Torsion [CA]-CB--CG-[CD2] |==|  0.31104
USER: genes 17 Torsion [C]-CA--N-[C] |==|  0.60556
USER: genes 18 Torsion [N]-C--CA-[N] |==|  0.87792
USER: genes 19 Torsion [C]-CA--CB-[OG] |==|  0.59612
USER: genes 20 Torsion [CA]-CB--OG-[HG] |==|  0.43455
USER: genes 21 Torsion [C]-CA--N-[C] |==|  0.82055
USER: genes 22 Torsion [N]-C--CA-[N] |==|  0.73719
USER: genes 23 Torsion [C]-CA--N-[C] |==|  0.70990
USER: genes 24 Torsion [N]-C--CA-[N] |==|  0.64566
USER: genes 25 Torsion [C]-CA--CB-[CG2] |==|  0.62634
USER: genes 26 Torsion [C]-CA--N-[H2] |==|  0.87728
USER: genes 27 Torsion [C]-CA--CB-[CG2] |==|  0.74780
ROOT
ATOM      1  CA  HIS P   4     -16.872   9.092  12.107  1.00 23.76 LIG 0.18  C 
ENDROOT
BRANCH 1 2
ATOM      2  C   HIS P   4     -17.945   9.792  11.262  1.00 25.01 LIG 0.24  C 
ATOM      3 O    HIS P   4     -17.688  10.833  10.643  1.00 23.35 LIG-0.27  OA
ATOM      4  N   PHE P   5     -19.170   9.268  11.294  1.00 23.15 LIG-0.35  N 
ATOM      5 H    PHE P   5     -19.383   8.596  11.787  1.00 23.15 LIG 0.16  HD
BRANCH 4 6
ATOM      6  CA  PHE P   5     -20.267   9.783  10.498  1.00 24.23 LIG 0.18  C 
BRANCH 6 7
ATOM      7  CB  PHE P   5     -21.411   8.723  10.476  1.00 25.15 LIG 0.07  C 
BRANCH 7 8
ATOM      8  CG  PHE P   5     -22.238   8.794  11.719  1.00 25.22 LIG-0.06  A 
ATOM      9  CD2 PHE P   5     -23.506   9.355  11.608  1.00 26.21 LIG 0.01  A 
ATOM     10  CE2 PHE P   5     -24.289   9.524  12.714  1.00 26.58 LIG 0.00  A 
ATOM     11  CZ  PHE P   5     -23.839   9.085  13.946  1.00 27.68 LIG 0.00  A 
ATOM     12  CE1 PHE P   5     -22.596   8.514  14.070  1.00 26.50 LIG 0.00  A 
ATOM     13  CD1 PHE P   5     -21.792   8.367  12.946  1.00 25.73 LIG 0.01  A 
ENDBRANCH 7 8
ENDBRANCH 6 7
BRANCH 6 14
ATOM     14  C   PHE P   5     -20.768  11.140  10.938  1.00 25.59 LIG 0.24  C 
ATOM     15 O    PHE P   5     -21.572  11.796  10.245  1.00 25.82 LIG-0.27  OA
ATOM     16  N   ASN P   6     -20.374  11.549  12.129  1.00 24.53 LIG-0.35  N 
ATOM     17 H    ASN P   6     -19.844  11.106  12.642  1.00 24.53 LIG 0.16  HD
BRANCH 16 18
ATOM     18  CA  ASN P   6     -20.824  12.822  12.674  1.00 25.84 LIG 0.18  C 
BRANCH 18 19
ATOM     19  C   ASN P   6     -19.884  13.971  12.391  1.00 25.26 LIG 0.24  C 
ATOM     20  N   ASP P   7     -18.581  13.685  12.200  1.00 26.59 LIG-0.34  N 
ATOM     21 H    ASP P   7     -18.239  12.898  12.255  1.00 26.59 LIG 0.16  HD
ATOM     22 O    ASN P   6     -20.321  15.124  12.379  1.00 25.72 LIG-0.27  OA
BRANCH 20 23
ATOM     23  CA  ASP P   7     -17.645  14.739  11.879  1.00 25.93 LIG 0.20  C 
BRANCH 23 24
ATOM     24  C   ASP P   7     -16.504  14.178  11.016  1.00 27.07 LIG 0.20  C 
ATOM     25 O    ASP P   7     -16.310  14.759   9.962  1.00 28.96 LIG-0.65  OA
ATOM     26 OXT  ASP P   7     -15.777  13.190  11.487  1.00 29.63 LIG-0.65  OA
ENDBRANCH 23 24
BRANCH 23 27
ATOM     27  CB  ASP P   7     -16.989  15.415  13.099  1.00 25.41 LIG 0.15  C 
BRANCH 27 28
ATOM     28  CG  ASP P   7     -17.186  16.909  13.130  1.00 25.37 LIG 0.17  C 
ATOM     29 OD1  ASP P   7     -17.631  17.572  12.167  1.00 26.66 LIG-0.65  OA
ATOM     30 OD2  ASP P   7     -16.901  17.481  14.237  1.00 23.76 LIG-0.65  OA
ENDBRANCH 27 28
ENDBRANCH 23 27
ENDBRANCH 20 23
ENDBRANCH 18 19
BRANCH 18 31
ATOM     31  CB  ASN P   6     -21.111  12.685  14.171  1.00 24.75 LIG 0.14  C 
BRANCH 31 32
ATOM     32  CG  ASN P   6     -22.596  12.613  14.453  1.00 27.24 LIG 0.22  C 
ATOM     33  ND2 ASN P   6     -22.819  12.472  15.759  1.00 23.85 LIG-0.37  N 
ATOM     34 21HD ASN P   6     -23.623  12.382  16.050  1.00 23.85 LIG 0.16  HD
ATOM     35 22HD ASN P   6     -22.159  12.471  16.310  1.00 23.85 LIG 0.16  HD
ATOM     36 OD1  ASN P   6     -23.430  12.638  13.503  1.00 24.90 LIG-0.27  OA
ENDBRANCH 31 32
ENDBRANCH 18 31
ENDBRANCH 16 18
ENDBRANCH 6 14
ENDBRANCH 4 6
ENDBRANCH 1 2
BRANCH 1 37
ATOM     37  CB  HIS P   4     -17.192   9.344  13.580  1.00 21.80 LIG 0.10  C 
BRANCH 37 38
ATOM     38  CG  HIS P   4     -16.015   9.819  14.378  1.00 23.01 LIG 0.06  A 
ATOM     39  CD2 HIS P   4     -15.718  10.975  14.971  1.00 23.26 LIG 0.14  A 
ATOM     40 NE2  HIS P   4     -14.598  10.761  15.734  1.00 21.45 LIG-0.25  NA
ATOM     41  CE1 HIS P   4     -14.222   9.489  15.641  1.00 22.12 LIG 0.23  A 
ATOM     42 ND1  HIS P   4     -15.059   8.896  14.850  1.00 22.83 LIG-0.24  NA
ENDBRANCH 37 38
ENDBRANCH 1 37
BRANCH 1 43
ATOM     43  N   HIS P   4     -15.551   9.627  11.674  1.00 22.02 LIG-0.35  N 
ATOM     44  C   SER P   3     -14.519   8.786  11.611  1.00 24.42 LIG 0.24  C 
ATOM     45 O    SER P   3     -14.645   7.594  11.936  1.00 24.72 LIG-0.27  OA
ATOM     46 H    HIS P   4     -15.527  10.466  11.485  1.00 22.02 LIG 0.16  HD
BRANCH 44 47
ATOM     47  CA  SER P   3     -13.153   9.340  11.237  1.00 22.14 LIG 0.20  C 
BRANCH 47 48
ATOM     48  CB  SER P   3     -12.457  10.042  12.421  1.00 23.32 LIG 0.20  C 
BRANCH 48 49
ATOM     49 OG   SER P   3     -11.689  11.161  11.928  1.00 23.11 LIG-0.40  OA
ATOM     50 HG   SER P   3     -11.579  11.719  12.545  1.00 23.11 LIG 0.21  HD
ENDBRANCH 48 49
ENDBRANCH 47 48
BRANCH 47 51
ATOM     51  N   SER P   3     -13.185  10.281  10.116  1.00 22.53 LIG-0.34  N 
ATOM     52 H    SER P   3     -12.954  11.086  10.313  1.00 22.53 LIG 0.16  HD
ATOM     53  C   VAL P   2     -13.549   9.884   8.900  1.00 22.76 LIG 0.24  C 
ATOM     54 O    VAL P   2     -14.031   8.747   8.695  1.00 25.85 LIG-0.27  OA
BRANCH 53 55
ATOM     55  CA  VAL P   2     -13.513  10.949   7.801  1.00 24.07 LIG 0.18  C 
BRANCH 55 56
ATOM     56  N   VAL P   2     -14.826  11.572   7.628  1.00 24.29 LIG-0.35  N 
ATOM     57 H    VAL P   2     -15.052  12.138   8.234  1.00 24.29 LIG 0.16  HD
ATOM     58  C   VAL P   1     -15.582  11.229   6.560  1.00 26.39 LIG 0.25  C 
ATOM     59 O    VAL P   1     -15.166  10.391   5.707  1.00 26.90 LIG-0.27  OA
BRANCH 58 60
ATOM     60  CA  VAL P   1     -16.927  11.919   6.385  1.00 27.40 LIG 0.28  C 
BRANCH 60 61
ATOM     61  CB  VAL P   1     -17.259  12.826   7.612  1.00 27.20 LIG 0.02  C 
ATOM     62  CG2 VAL P   1     -18.715  12.575   8.022  1.00 28.02 LIG 0.01  C 
ATOM     63  CG1 VAL P   1     -17.052  14.234   7.097  1.00 27.17 LIG 0.01  C 
ENDBRANCH 60 61
BRANCH 60 64
ATOM     64  N   VAL P   1     -18.000  10.990   6.216  1.00 29.12 LIG-0.07  N 
ATOM     65 H2   VAL P   1     -17.754  10.351   5.648  1.00 29.12 LIG 0.28  HD
ATOM     66 H1   VAL P   1     -18.713  11.415   5.893  1.00 29.12 LIG 0.28  HD
ATOM     67 H3   VAL P   1     -18.203  10.625   7.002  1.00 29.12 LIG 0.28  HD
ENDBRANCH 60 64
ENDBRANCH 58 60
ENDBRANCH 55 56
BRANCH 55 68
ATOM     68  CB  VAL P   2     -12.373  11.951   8.151  1.00 25.03 LIG 0.01  C 
ATOM     69  CG2 VAL P   2     -12.949  13.100   9.002  1.00 23.99 LIG 0.01  C 
ATOM     70  CG1 VAL P   2     -11.697  12.528   6.921  1.00 25.56 LIG 0.01  C 
ENDBRANCH 55 68
ENDBRANCH 53 55
ENDBRANCH 47 51
ENDBRANCH 44 47
ENDBRANCH 1 43
TORSDOF 26
ENDMDL
MODEL 3
USER: ADFR SOLUTION from run 45
USER: SCORE 18.233113 LL:  -5.768 LR: -15.312 RR:   0.000 FEB:  -7.556
USER: RMSD 3.813053
USER: SEED 44
USER: STATUS no improvement in best in 3 clusters for 5 generations
USER: GENES 28
USER: genes 0 Translation |==|  0.54803 0.29461 0.62274
USER: genes 1 Rotation |==|  0.62472 0.52669 0.48448 0.98321
USER: genes 2 Torsion [N]-CA--C-[N] |==|  0.48631
USER: genes 3 Torsion [C]-N--CA-[CB] |==|  0.39409
USER: genes 4 Torsion [N]-CA--CB-[CG] |==|  0.25492
USER: genes 5 Torsion [CA]-CB--CG-[CD2] |==|  0.32432
USER: genes 6 Torsion [N]-CA--C-[N] |==|  0.92536
USER: genes 7 Torsion [C]-N--CA-[CB] |==|  0.79873
USER: genes 8 Torsion [N]-CA--C-[N] |==|  0.72661
USER: genes 9 Torsion [C]-N--CA-[C] |==|  0.18640
USER: genes 10 Torsion [N]-CA--C-[O] |==|  0.71969
USER: genes 11 Torsion [N]-CA--CB-[CG] |==|  0.73650
USER: genes 12 Torsion [CA]-CB--CG-[OD1] |==|  0.54520
USER: genes 13 Torsion [N]-CA--CB-[CG] |==|  0.88794
USER: genes 14 Torsion [CA]-CB--CG-[OD1] |==|  0.20694
USER: genes 15 Torsion [C]-CA--CB-[CG] |==|  0.70859
USER: genes 16 Torsion [CA]-CB--CG-[CD2] |==|  0.30016
USER: genes 17 Torsion [C]-CA--N-[C] |==|  0.55987
USER: genes 18 Torsion [N]-C--CA-[N] |==|  0.87397
USER: genes 19 Torsion [C]-CA--CB-[OG] |==|  0.71837
USER: genes 20 Torsion [CA]-CB--OG-[HG] |==|  0.50411
USER: genes 21 Torsion [C]-CA--N-[C] |==|  0.80450
USER: genes 22 Torsion [N]-C--CA-[N] |==|  0.41404
USER: genes 23 Torsion [C]-CA--N-[C] |==|  0.60986
USER: genes 24 Torsion [N]-C--CA-[N] |==|  0.78698
USER: genes 25 Torsion [C]-CA--CB-[CG2] |==|  0.48426
USER: genes 26 Torsion [C]-CA--N-[H2] |==|  0.86638
USER: genes 27 Torsion [C]-CA--CB-[CG2] |==|  0.10806
ROOT
ATOM      1  CA  HIS P   4     -16.606   8.947  12.050  1.00 23.76 LIG 0.18  C 
ENDROOT
BRANCH 1 2
ATOM      2  C   HIS P   4     -17.682   9.910  11.529  1.00 25.01 LIG 0.24  C 
ATOM      3 O    HIS P   4     -17.375  11.021  11.076  1.00 23.35 LIG-0.27  OA
ATOM      4  N   PHE P   5     -18.949   9.523  11.662  1.00 23.15 LIG-0.35  N 
ATOM      5 H    PHE P   5     -19.181   8.792  12.053  1.00 23.15 LIG 0.16  HD
BRANCH 4 6
ATOM      6  CA  PHE P   5     -20.067  10.299  11.159  1.00 24.23 LIG 0.18  C 
BRANCH 6 7
ATOM      7  CB  PHE P   5     -21.139   9.322  10.588  1.00 25.15 LIG 0.07  C 
BRANCH 7 8
ATOM      8  CG  PHE P   5     -22.144   8.952  11.631  1.00 25.22 LIG-0.06  A 
ATOM      9  CD2 PHE P   5     -23.463   9.335  11.408  1.00 26.21 LIG 0.01  A 
ATOM     10  CE2 PHE P   5     -24.423   9.100  12.350  1.00 26.58 LIG 0.00  A 
ATOM     11  CZ  PHE P   5     -24.091   8.429  13.514  1.00 27.68 LIG 0.00  A 
ATOM     12  CE1 PHE P   5     -22.796   8.031  13.742  1.00 26.50 LIG 0.00  A 
ATOM     13  CD1 PHE P   5     -21.818   8.293  12.792  1.00 25.73 LIG 0.01  A 
ENDBRANCH 7 8
ENDBRANCH 6 7
BRANCH 6 14
ATOM     14  C   PHE P   5     -20.660  11.256  12.168  1.00 25.59 LIG 0.24  C 
ATOM     15 O    PHE P   5     -21.312  12.259  11.813  1.00 25.82 LIG-0.27  OA
ATOM     16  N   ASN P   6     -20.521  10.924  13.438  1.00 24.53 LIG-0.35  N 
ATOM     17 H    ASN P   6     -20.102  10.225  13.713  1.00 24.53 LIG 0.16  HD
BRANCH 16 18
ATOM     18  CA  ASN P   6     -21.085  11.749  14.497  1.00 25.84 LIG 0.18  C 
BRANCH 18 19
ATOM     19  C   ASN P   6     -22.561  12.028  14.329  1.00 25.26 LIG 0.24  C 
ATOM     20  N   ASP P   7     -22.921  13.208  13.785  1.00 26.59 LIG-0.34  N 
ATOM     21 H    ASP P   7     -22.372  13.827  13.551  1.00 26.59 LIG 0.16  HD
ATOM     22 O    ASN P   6     -23.384  11.198  14.721  1.00 25.72 LIG-0.27  OA
BRANCH 20 23
ATOM     23  CA  ASP P   7     -24.316  13.507  13.557  1.00 25.93 LIG 0.20  C 
BRANCH 23 24
ATOM     24  C   ASP P   7     -25.046  13.648  14.902  1.00 27.07 LIG 0.20  C 
ATOM     25 O    ASP P   7     -25.697  12.678  15.250  1.00 28.96 LIG-0.65  OA
ATOM     26 OXT  ASP P   7     -24.864  14.738  15.614  1.00 29.63 LIG-0.65  OA
ENDBRANCH 23 24
BRANCH 23 27
ATOM     27  CB  ASP P   7     -25.082  12.442  12.747  1.00 25.41 LIG 0.15  C 
BRANCH 27 28
ATOM     28  CG  ASP P   7     -25.145  12.747  11.272  1.00 25.37 LIG 0.17  C 
ATOM     29 OD1  ASP P   7     -25.944  12.197  10.482  1.00 26.66 LIG-0.65  OA
ATOM     30 OD2  ASP P   7     -24.341  13.652  10.860  1.00 23.76 LIG-0.65  OA
ENDBRANCH 27 28
ENDBRANCH 23 27
ENDBRANCH 20 23
ENDBRANCH 18 19
BRANCH 18 31
ATOM     31  CB  ASN P   6     -20.281  13.043  14.646  1.00 24.75 LIG 0.14  C 
BRANCH 31 32
ATOM     32  CG  ASN P   6     -18.794  12.797  14.515  1.00 27.24 LIG 0.22  C 
ATOM     33  ND2 ASN P   6     -18.192  12.917  15.697  1.00 23.85 LIG-0.37  N 
ATOM     34 21HD ASN P   6     -17.338  12.837  15.755  1.00 23.85 LIG 0.16  HD
ATOM     35 22HD ASN P   6     -18.659  13.074  16.403  1.00 23.85 LIG 0.16  HD
ATOM     36 OD1  ASN P   6     -18.281  12.568  13.381  1.00 24.90 LIG-0.27  OA
ENDBRANCH 31 32
ENDBRANCH 18 31
ENDBRANCH 16 18
ENDBRANCH 6 14
ENDBRANCH 4 6
ENDBRANCH 1 2
BRANCH 1 37
ATOM     37  CB  HIS P   4     -16.819   8.769  13.553  1.00 21.80 LIG 0.10  C 
BRANCH 37 38
ATOM     38  CG  HIS P   4     -15.820   9.507  14.392  1.00 23.01 LIG 0.06  A 
ATOM     39  CD2 HIS P   4     -15.895  10.592  15.163  1.00 23.26 LIG 0.14  A 
ATOM     40 NE2  HIS P   4     -14.713  10.677  15.854  1.00 21.45 LIG-0.25  NA
ATOM     41  CE1 HIS P   4     -13.928   9.651  15.541  1.00 22.12 LIG 0.23  A 
ATOM     42 ND1  HIS P   4     -14.568   8.924  14.681  1.00 22.83 LIG-0.24  NA
ENDBRANCH 37 38
ENDBRANCH 1 37
BRANCH 1 43
ATOM     43  N   HIS P   4     -15.283   9.526  11.689  1.00 22.02 LIG-0.35  N 
ATOM     44  C   SER P   3     -14.231   8.710  11.631  1.00 24.42 LIG 0.24  C 
ATOM     45 O    SER P   3     -14.342   7.504  11.901  1.00 24.72 LIG-0.27  OA
ATOM     46 H    HIS P   4     -15.270  10.373  11.535  1.00 22.02 LIG 0.16  HD
BRANCH 44 47
ATOM     47  CA  SER P   3     -12.865   9.307  11.331  1.00 22.14 LIG 0.20  C 
BRANCH 47 48
ATOM     48  CB  SER P   3     -12.244  10.004  12.559  1.00 23.32 LIG 0.20  C 
BRANCH 48 49
ATOM     49 OG   SER P   3     -12.415  11.432  12.435  1.00 23.11 LIG-0.40  OA
ATOM     50 HG   SER P   3     -12.060  11.815  13.093  1.00 23.11 LIG 0.21  HD
ENDBRANCH 48 49
ENDBRANCH 47 48
BRANCH 47 51
ATOM     51  N   SER P   3     -12.870  10.269  10.227  1.00 22.53 LIG-0.34  N 
ATOM     52 H    SER P   3     -12.747  11.087  10.461  1.00 22.53 LIG 0.16  HD
ATOM     53  C   VAL P   2     -13.054   9.868   8.973  1.00 22.76 LIG 0.24  C 
ATOM     54 O    VAL P   2     -13.389   8.694   8.698  1.00 25.85 LIG-0.27  OA
BRANCH 53 55
ATOM     55  CA  VAL P   2     -13.007  10.959   7.900  1.00 24.07 LIG 0.18  C 
BRANCH 55 56
ATOM     56  N   VAL P   2     -12.497  10.430   6.634  1.00 24.29 LIG-0.35  N 
ATOM     57 H    VAL P   2     -12.767   9.641   6.425  1.00 24.29 LIG 0.16  HD
ATOM     58  C   VAL P   1     -11.659  11.190   5.893  1.00 26.39 LIG 0.25  C 
ATOM     59 O    VAL P   1     -11.321  12.350   6.271  1.00 26.90 LIG-0.27  OA
BRANCH 58 60
ATOM     60  CA  VAL P   1     -11.173  10.631   4.563  1.00 27.40 LIG 0.28  C 
BRANCH 60 61
ATOM     61  CB  VAL P   1     -12.347   9.987   3.759  1.00 27.20 LIG 0.02  C 
ATOM     62  CG2 VAL P   1     -11.822   9.574   2.380  1.00 28.02 LIG 0.01  C 
ATOM     63  CG1 VAL P   1     -13.378  11.090   3.665  1.00 27.17 LIG 0.01  C 
ENDBRANCH 60 61
BRANCH 60 64
ATOM     64  N   VAL P   1     -10.152   9.644   4.725  1.00 29.12 LIG-0.07  N 
ATOM     65 H2   VAL P   1      -9.532   9.947   5.287  1.00 29.12 LIG 0.28  HD
ATOM     66 H1   VAL P   1      -9.777   9.471   3.936  1.00 29.12 LIG 0.28  HD
ATOM     67 H3   VAL P   1     -10.509   8.898   5.054  1.00 29.12 LIG 0.28  HD
ENDBRANCH 60 64
ENDBRANCH 58 60
ENDBRANCH 55 56
BRANCH 55 68
ATOM     68  CB  VAL P   2     -14.429  11.587   7.801  1.00 25.03 LIG 0.01  C 
ATOM     69  CG2 VAL P   2     -15.032  11.706   9.215  1.00 23.99 LIG 0.01  C 
ATOM     70  CG1 VAL P   2     -15.368  10.783   6.921  1.00 25.56 LIG 0.01  C 
ENDBRANCH 55 68
ENDBRANCH 53 55
ENDBRANCH 47 51
ENDBRANCH 44 47
ENDBRANCH 1 43
TORSDOF 26
ENDMDL
MODEL 4
USER: ADFR SOLUTION from run 52
USER: SCORE 18.534447 LL:  -7.671 LR: -14.996 RR:   0.000 FEB:  -7.240
USER: RMSD 2.394814
USER: SEED 51
USER: STATUS no improvement in best in 3 clusters for 5 generations
USER: GENES 28
USER: genes 0 Translation |==|  0.52086 0.30421 0.62998
USER: genes 1 Rotation |==|  0.52750 0.50697 0.49269 0.99914
USER: genes 2 Torsion [N]-CA--C-[N] |==|  0.43458
USER: genes 3 Torsion [C]-N--CA-[CB] |==|  0.46665
USER: genes 4 Torsion [N]-CA--CB-[CG] |==|  0.20262
USER: genes 5 Torsion [CA]-CB--CG-[CD2] |==|  0.36431
USER: genes 6 Torsion [N]-CA--C-[N] |==|  0.97178
USER: genes 7 Torsion [C]-N--CA-[CB] |==|  0.42181
USER: genes 8 Torsion [N]-CA--C-[N] |==|  0.05106
USER: genes 9 Torsion [C]-N--CA-[C] |==|  0.80525
USER: genes 10 Torsion [N]-CA--C-[O] |==|  0.45042
USER: genes 11 Torsion [N]-CA--CB-[CG] |==|  0.03658
USER: genes 12 Torsion [CA]-CB--CG-[OD1] |==|  0.17184
USER: genes 13 Torsion [N]-CA--CB-[CG] |==|  0.17297
USER: genes 14 Torsion [CA]-CB--CG-[OD1] |==|  0.97161
USER: genes 15 Torsion [C]-CA--CB-[CG] |==|  0.61439
USER: genes 16 Torsion [CA]-CB--CG-[CD2] |==|  0.32786
USER: genes 17 Torsion [C]-CA--N-[C] |==|  0.60681
USER: genes 18 Torsion [N]-C--CA-[N] |==|  0.88926
USER: genes 19 Torsion [C]-CA--CB-[OG] |==|  0.66021
USER: genes 20 Torsion [CA]-CB--OG-[HG] |==|  0.48627
USER: genes 21 Torsion [C]-CA--N-[C] |==|  0.80820
USER: genes 22 Torsion [N]-C--CA-[N] |==|  0.67288
USER: genes 23 Torsion [C]-CA--N-[C] |==|  0.70178
USER: genes 24 Torsion [N]-C--CA-[N] |==|  0.94791
USER: genes 25 Torsion [C]-CA--CB-[CG2] |==|  0.20572
USER: genes 26 Torsion [C]-CA--N-[H2] |==|  0.86186
USER: genes 27 Torsion [C]-CA--CB-[CG2] |==|  0.74784
ROOT
ATOM      1  CA  HIS P   4     -17.197   9.113  12.207  1.00 23.76 LIG 0.18  C 
ENDROOT
BRANCH 1 2
ATOM      2  C   HIS P   4     -18.246   9.749  11.284  1.00 25.01 LIG 0.24  C 
ATOM      3 O    HIS P   4     -18.021  10.825  10.714  1.00 23.35 LIG-0.27  OA
ATOM      4  N   PHE P   5     -19.421   9.129  11.194  1.00 23.15 LIG-0.35  N 
ATOM      5 H    PHE P   5     -19.621   8.428  11.650  1.00 23.15 LIG 0.16  HD
BRANCH 4 6
ATOM      6  CA  PHE P   5     -20.482   9.577  10.313  1.00 24.23 LIG 0.18  C 
BRANCH 6 7
ATOM      7  CB  PHE P   5     -21.573   8.466  10.234  1.00 25.15 LIG 0.07  C 
BRANCH 7 8
ATOM      8  CG  PHE P   5     -22.363   8.393  11.501  1.00 25.22 LIG-0.06  A 
ATOM      9  CD2 PHE P   5     -23.749   8.374  11.385  1.00 26.21 LIG 0.01  A 
ATOM     10  CE2 PHE P   5     -24.539   8.386  12.499  1.00 26.58 LIG 0.00  A 
ATOM     11  CZ  PHE P   5     -23.955   8.363  13.753  1.00 27.68 LIG 0.00  A 
ATOM     12  CE1 PHE P   5     -22.588   8.366  13.884  1.00 26.50 LIG 0.00  A 
ATOM     13  CD1 PHE P   5     -21.788   8.379  12.748  1.00 25.73 LIG 0.01  A 
ENDBRANCH 7 8
ENDBRANCH 6 7
BRANCH 6 14
ATOM     14  C   PHE P   5     -21.073  10.918  10.688  1.00 25.59 LIG 0.24  C 
ATOM     15 O    PHE P   5     -21.916  11.487   9.965  1.00 25.82 LIG-0.27  OA
ATOM     16  N   ASN P   6     -20.711  11.407  11.859  1.00 24.53 LIG-0.35  N 
ATOM     17 H    ASN P   6     -20.156  11.025  12.393  1.00 24.53 LIG 0.16  HD
BRANCH 16 18
ATOM     18  CA  ASN P   6     -21.247  12.672  12.344  1.00 25.84 LIG 0.18  C 
BRANCH 18 19
ATOM     19  C   ASN P   6     -20.539  13.885  11.785  1.00 25.26 LIG 0.24  C 
ATOM     20  N   ASP P   7     -19.799  13.724  10.670  1.00 26.59 LIG-0.34  N 
ATOM     21 H    ASP P   7     -19.678  12.974  10.267  1.00 26.59 LIG 0.16  HD
ATOM     22 O    ASN P   6     -20.626  14.964  12.376  1.00 25.72 LIG-0.27  OA
BRANCH 20 23
ATOM     23  CA  ASP P   7     -19.140  14.859  10.066  1.00 25.93 LIG 0.20  C 
BRANCH 23 24
ATOM     24  C   ASP P   7     -20.184  15.794   9.436  1.00 27.07 LIG 0.20  C 
ATOM     25 O    ASP P   7     -19.800  16.927   9.201  1.00 28.96 LIG-0.65  OA
ATOM     26 OXT  ASP P   7     -21.365  15.310   9.123  1.00 29.63 LIG-0.65  OA
ENDBRANCH 23 24
BRANCH 23 27
ATOM     27  CB  ASP P   7     -18.132  14.505   8.955  1.00 25.41 LIG 0.15  C 
BRANCH 27 28
ATOM     28  CG  ASP P   7     -18.243  13.079   8.482  1.00 25.37 LIG 0.17  C 
ATOM     29 OD1  ASP P   7     -19.269  12.601   7.947  1.00 26.66 LIG-0.65  OA
ATOM     30 OD2  ASP P   7     -17.192  12.366   8.623  1.00 23.76 LIG-0.65  OA
ENDBRANCH 27 28
ENDBRANCH 23 27
ENDBRANCH 20 23
ENDBRANCH 18 19
BRANCH 18 31
ATOM     31  CB  ASN P   6     -21.267  12.686  13.874  1.00 24.75 LIG 0.14  C 
BRANCH 31 32
ATOM     32  CG  ASN P   6     -19.874  12.570  14.455  1.00 27.24 LIG 0.22  C 
ATOM     33  ND2 ASN P   6     -19.883  12.858  15.755  1.00 23.85 LIG-0.37  N 
ATOM     34 21HD ASN P   6     -19.146  12.865  16.199  1.00 23.85 LIG 0.16  HD
ATOM     35 22HD ASN P   6     -20.625  13.037  16.151  1.00 23.85 LIG 0.16  HD
ATOM     36 OD1  ASN P   6     -18.893  12.285  13.710  1.00 24.90 LIG-0.27  OA
ENDBRANCH 31 32
ENDBRANCH 18 31
ENDBRANCH 16 18
ENDBRANCH 6 14
ENDBRANCH 4 6
ENDBRANCH 1 2
BRANCH 1 37
ATOM     37  CB  HIS P   4     -17.527   9.514  13.644  1.00 21.80 LIG 0.10  C 
BRANCH 37 38
ATOM     38  CG  HIS P   4     -16.322   9.867  14.461  1.00 23.01 LIG 0.06  A 
ATOM     39  CD2 HIS P   4     -15.925  10.982  15.075  1.00 23.26 LIG 0.14  A 
ATOM     40 NE2  HIS P   4     -14.840  10.654  15.846  1.00 21.45 LIG-0.25  NA
ATOM     41  CE1 HIS P   4     -14.581   9.354  15.737  1.00 22.12 LIG 0.23  A 
ATOM     42 ND1  HIS P   4     -15.460   8.853  14.929  1.00 22.83 LIG-0.24  NA
ENDBRANCH 37 38
ENDBRANCH 1 37
BRANCH 1 43
ATOM     43  N   HIS P   4     -15.860   9.573  11.741  1.00 22.02 LIG-0.35  N 
ATOM     44  C   SER P   3     -14.849   8.706  11.765  1.00 24.42 LIG 0.24  C 
ATOM     45 O    SER P   3     -15.007   7.552  12.195  1.00 24.72 LIG-0.27  OA
ATOM     46 H    HIS P   4     -15.814  10.391  11.477  1.00 22.02 LIG 0.16  HD
BRANCH 44 47
ATOM     47  CA  SER P   3     -13.467   9.190  11.356  1.00 22.14 LIG 0.20  C 
BRANCH 47 48
ATOM     48  CB  SER P   3     -12.723   9.892  12.510  1.00 23.32 LIG 0.20  C 
BRANCH 48 49
ATOM     49 OG   SER P   3     -12.371  11.233  12.106  1.00 23.11 LIG-0.40  OA
ATOM     50 HG   SER P   3     -12.026  11.640  12.755  1.00 23.11 LIG 0.21  HD
ENDBRANCH 48 49
ENDBRANCH 47 48
BRANCH 47 51
ATOM     51  N   SER P   3     -13.476  10.102  10.210  1.00 22.53 LIG-0.34  N 
ATOM     52 H    SER P   3     -13.265  10.915  10.395  1.00 22.53 LIG 0.16  HD
ATOM     53  C   VAL P   2     -13.792   9.668   8.994  1.00 22.76 LIG 0.24  C 
ATOM     54 O    VAL P   2     -14.247   8.518   8.802  1.00 25.85 LIG-0.27  OA
BRANCH 53 55
ATOM     55  CA  VAL P   2     -13.735  10.705   7.869  1.00 24.07 LIG 0.18  C 
BRANCH 55 56
ATOM     56  N   VAL P   2     -15.055  10.897   7.265  1.00 24.29 LIG-0.35  N 
ATOM     57 H    VAL P   2     -15.625  11.327   7.744  1.00 24.29 LIG 0.16  HD
ATOM     58  C   VAL P   1     -15.290  10.403   6.028  1.00 26.39 LIG 0.25  C 
ATOM     59 O    VAL P   1     -14.388   9.790   5.386  1.00 26.90 LIG-0.27  OA
BRANCH 58 60
ATOM     60  CA  VAL P   1     -16.658  10.648   5.408  1.00 27.40 LIG 0.28  C 
BRANCH 60 61
ATOM     61  CB  VAL P   1     -16.598  11.790   4.344  1.00 27.20 LIG 0.02  C 
ATOM     62  CG2 VAL P   1     -15.906  11.246   3.088  1.00 28.02 LIG 0.01  C 
ATOM     63  CG1 VAL P   1     -15.783  12.875   5.013  1.00 27.17 LIG 0.01  C 
ENDBRANCH 60 61
BRANCH 60 64
ATOM     64  N   VAL P   1     -17.645  11.000   6.380  1.00 29.12 LIG-0.07  N 
ATOM     65 H2   VAL P   1     -17.624  10.416   7.051  1.00 29.12 LIG 0.28  HD
ATOM     66 H1   VAL P   1     -18.452  10.988   6.003  1.00 29.12 LIG 0.28  HD
ATOM     67 H3   VAL P   1     -17.476  11.816   6.693  1.00 29.12 LIG 0.28  HD
ENDBRANCH 60 64
ENDBRANCH 58 60
ENDBRANCH 55 56
BRANCH 55 68
ATOM     68  CB  VAL P   2     -13.108  12.004   8.455  1.00 25.03 LIG 0.01  C 
ATOM     69  CG2 VAL P   2     -14.229  12.911   8.999  1.00 23.99 LIG 0.01  C 
ATOM     70  CG1 VAL P   2     -12.289  12.774   7.436  1.00 25.56 LIG 0.01  C 
ENDBRANCH 55 68
ENDBRANCH 53 55
ENDBRANCH 47 51
ENDBRANCH 44 47
ENDBRANCH 1 43
TORSDOF 26
ENDMDL
MODEL 5
USER: ADFR SOLUTION from run 165
USER: SCORE 20.217812 LL:  -8.526 LR: -14.496 RR:   0.000 FEB:  -6.740
USER: RMSD 3.453307
USER: SEED 164
USER: STATUS no improvement in best in 2 clusters for 5 generations
USER: GENES 28
USER: genes 0 Translation |==|  0.53317 0.29946 0.62412
USER: genes 1 Rotation |==|  0.58287 0.53357 0.48969 0.99183
USER: genes 2 Torsion [N]-CA--C-[N] |==|  0.45174
USER: genes 3 Torsion [C]-N--CA-[CB] |==|  0.44065
USER: genes 4 Torsion [N]-CA--CB-[CG] |==|  0.23688
USER: genes 5 Torsion [CA]-CB--CG-[CD2] |==|  0.35328
USER: genes 6 Torsion [N]-CA--C-[N] |==|  0.97211
USER: genes 7 Torsion [C]-N--CA-[CB] |==|  0.51667
USER: genes 8 Torsion [N]-CA--C-[N] |==|  0.90982
USER: genes 9 Torsion [C]-N--CA-[C] |==|  0.58609
USER: genes 10 Torsion [N]-CA--C-[O] |==|  0.54598
USER: genes 11 Torsion [N]-CA--CB-[CG] |==|  0.66436
USER: genes 12 Torsion [CA]-CB--CG-[OD1] |==|  0.10414
USER: genes 13 Torsion [N]-CA--CB-[CG] |==|  0.15181
USER: genes 14 Torsion [CA]-CB--CG-[OD1] |==|  0.95501
USER: genes 15 Torsion [C]-CA--CB-[CG] |==|  0.66315
USER: genes 16 Torsion [CA]-CB--CG-[CD2] |==|  0.29856
USER: genes 17 Torsion [C]-CA--N-[C] |==|  0.57467
USER: genes 18 Torsion [N]-C--CA-[N] |==|  0.91389
USER: genes 19 Torsion [C]-CA--CB-[OG] |==|  0.67900
USER: genes 20 Torsion [CA]-CB--OG-[HG] |==|  0.44489
USER: genes 21 Torsion [C]-CA--N-[C] |==|  0.78596
USER: genes 22 Torsion [N]-C--CA-[N] |==|  0.91847
USER: genes 23 Torsion [C]-CA--N-[C] |==|  0.82508
USER: genes 24 Torsion [N]-C--CA-[N] |==|  0.30335
USER: genes 25 Torsion [C]-CA--CB-[CG2] |==|  0.47327
USER: genes 26 Torsion [C]-CA--N-[H2] |==|  0.50479
USER: genes 27 Torsion [C]-CA--CB-[CG2] |==|  0.54156
ROOT
ATOM      1  CA  HIS P   4     -16.930   9.031  12.080  1.00 23.76 LIG 0.18  C 
ENDROOT
BRANCH 1 2
ATOM      2  C   HIS P   4     -18.053   9.855  11.435  1.00 25.01 LIG 0.24  C 
ATOM      3 O    HIS P   4     -17.835  10.991  10.995  1.00 23.35 LIG-0.27  OA
ATOM      4  N   PHE P   5     -19.272   9.319  11.447  1.00 23.15 LIG-0.35  N 
ATOM      5 H    PHE P   5     -19.455   8.568  11.826  1.00 23.15 LIG 0.16  HD
BRANCH 4 6
ATOM      6  CA  PHE P   5     -20.416   9.952  10.820  1.00 24.23 LIG 0.18  C 
BRANCH 6 7
ATOM      7  CB  PHE P   5     -21.501   8.866  10.542  1.00 25.15 LIG 0.07  C 
BRANCH 7 8
ATOM      8  CG  PHE P   5     -22.364   8.646  11.742  1.00 25.22 LIG-0.06  A 
ATOM      9  CD2 PHE P   5     -23.740   8.736  11.562  1.00 26.21 LIG 0.01  A 
ATOM     10  CE2 PHE P   5     -24.589   8.622  12.625  1.00 26.58 LIG 0.00  A 
ATOM     11  CZ  PHE P   5     -24.079   8.362  13.884  1.00 27.68 LIG 0.00  A 
ATOM     12  CE1 PHE P   5     -22.723   8.255  14.077  1.00 26.50 LIG 0.00  A 
ATOM     13  CD1 PHE P   5     -21.862   8.396  12.997  1.00 25.73 LIG 0.01  A 
ENDBRANCH 7 8
ENDBRANCH 6 7
BRANCH 6 14
ATOM     14  C   PHE P   5     -20.979  11.122  11.594  1.00 25.59 LIG 0.24  C 
ATOM     15 O    PHE P   5     -21.893  11.834  11.131  1.00 25.82 LIG-0.27  OA
ATOM     16  N   ASN P   6     -20.508  11.293  12.816  1.00 24.53 LIG-0.35  N 
ATOM     17 H    ASN P   6     -19.900  10.801  13.173  1.00 24.53 LIG 0.16  HD
BRANCH 16 18
ATOM     18  CA  ASN P   6     -21.004  12.363  13.670  1.00 25.84 LIG 0.18  C 
BRANCH 18 19
ATOM     19  C   ASN P   6     -21.065  13.708  12.984  1.00 25.26 LIG 0.24  C 
ATOM     20  N   ASP P   7     -20.136  13.979  12.046  1.00 26.59 LIG-0.34  N 
ATOM     21 H    ASP P   7     -19.493  13.452  11.826  1.00 26.59 LIG 0.16  HD
ATOM     22 O    ASN P   6     -21.926  14.524  13.323  1.00 25.72 LIG-0.27  OA
BRANCH 20 23
ATOM     23  CA  ASP P   7     -20.176  15.231  11.325  1.00 25.93 LIG 0.20  C 
BRANCH 23 24
ATOM     24  C   ASP P   7     -19.616  15.035   9.907  1.00 27.07 LIG 0.20  C 
ATOM     25 O    ASP P   7     -19.307  16.056   9.319  1.00 28.96 LIG-0.65  OA
ATOM     26 OXT  ASP P   7     -19.435  13.812   9.458  1.00 29.63 LIG-0.65  OA
ENDBRANCH 23 24
BRANCH 23 27
ATOM     27  CB  ASP P   7     -19.364  16.373  11.968  1.00 25.41 LIG 0.15  C 
BRANCH 27 28
ATOM     28  CG  ASP P   7     -20.201  17.578  12.314  1.00 25.37 LIG 0.17  C 
ATOM     29 OD1  ASP P   7     -21.371  17.509  12.754  1.00 26.66 LIG-0.65  OA
ATOM     30 OD2  ASP P   7     -19.627  18.710  12.167  1.00 23.76 LIG-0.65  OA
ENDBRANCH 27 28
ENDBRANCH 23 27
ENDBRANCH 20 23
ENDBRANCH 18 19
BRANCH 18 31
ATOM     31  CB  ASN P   6     -20.191  12.427  14.964  1.00 24.75 LIG 0.14  C 
BRANCH 31 32
ATOM     32  CG  ASN P   6     -18.708  12.559  14.690  1.00 27.24 LIG 0.22  C 
ATOM     33  ND2 ASN P   6     -18.070  13.010  15.768  1.00 23.85 LIG-0.37  N 
ATOM     34 21HD ASN P   6     -17.224  13.164  15.734  1.00 23.85 LIG 0.16  HD
ATOM     35 22HD ASN P   6     -18.503  13.147  16.498  1.00 23.85 LIG 0.16  HD
ATOM     36 OD1  ASN P   6     -18.245  12.301  13.542  1.00 24.90 LIG-0.27  OA
ENDBRANCH 31 32
ENDBRANCH 18 31
ENDBRANCH 16 18
ENDBRANCH 6 14
ENDBRANCH 4 6
ENDBRANCH 1 2
BRANCH 1 37
ATOM     37  CB  HIS P   4     -17.102   9.101  13.596  1.00 21.80 LIG 0.10  C 
BRANCH 37 38
ATOM     38  CG  HIS P   4     -15.914   9.671  14.311  1.00 23.01 LIG 0.06  A 
ATOM     39  CD2 HIS P   4     -15.684  10.833  14.922  1.00 23.26 LIG 0.14  A 
ATOM     40 NE2  HIS P   4     -14.486  10.712  15.579  1.00 21.45 LIG-0.25  NA
ATOM     41  CE1 HIS P   4     -13.993   9.489  15.404  1.00 22.12 LIG 0.23  A 
ATOM     42 ND1  HIS P   4     -14.832   8.838  14.663  1.00 22.83 LIG-0.24  NA
ENDBRANCH 37 38
ENDBRANCH 1 37
BRANCH 1 43
ATOM     43  N   HIS P   4     -15.638   9.587  11.590  1.00 22.02 LIG-0.35  N 
ATOM     44  C   SER P   3     -14.580   8.777  11.539  1.00 24.42 LIG 0.24  C 
ATOM     45 O    SER P   3     -14.659   7.598  11.919  1.00 24.72 LIG-0.27  OA
ATOM     46 H    HIS P   4     -15.645  10.417  11.364  1.00 22.02 LIG 0.16  HD
BRANCH 44 47
ATOM     47  CA  SER P   3     -13.243   9.356  11.106  1.00 22.14 LIG 0.20  C 
BRANCH 47 48
ATOM     48  CB  SER P   3     -12.401   9.850  12.300  1.00 23.32 LIG 0.20  C 
BRANCH 48 49
ATOM     49 OG   SER P   3     -12.226  11.281  12.203  1.00 23.11 LIG-0.40  OA
ATOM     50 HG   SER P   3     -12.017  11.589  12.956  1.00 23.11 LIG 0.21  HD
ENDBRANCH 48 49
ENDBRANCH 47 48
BRANCH 47 51
ATOM     51  N   SER P   3     -13.359  10.462  10.154  1.00 22.53 LIG-0.34  N 
ATOM     52 H    SER P   3     -13.240  11.244  10.492  1.00 22.53 LIG 0.16  HD
ATOM     53  C   VAL P   2     -13.627  10.234   8.872  1.00 22.76 LIG 0.24  C 
ATOM     54 O    VAL P   2     -13.951   9.098   8.458  1.00 25.85 LIG-0.27  OA
BRANCH 53 55
ATOM     55  CA  VAL P   2     -13.692  11.465   7.964  1.00 24.07 LIG 0.18  C 
BRANCH 55 56
ATOM     56  N   VAL P   2     -14.126  12.647   8.711  1.00 24.29 LIG-0.35  N 
ATOM     57 H    VAL P   2     -13.554  13.287   8.759  1.00 24.29 LIG 0.16  HD
ATOM     58  C   VAL P   1     -15.360  12.660   9.263  1.00 26.39 LIG 0.25  C 
ATOM     59 O    VAL P   1     -16.145  11.674   9.134  1.00 26.90 LIG-0.27  OA
BRANCH 58 60
ATOM     60  CA  VAL P   1     -15.800  13.915  10.004  1.00 27.40 LIG 0.28  C 
BRANCH 60 61
ATOM     61  CB  VAL P   1     -16.354  13.567  11.422  1.00 27.20 LIG 0.02  C 
ATOM     62  CG2 VAL P   1     -16.551  14.873  12.200  1.00 28.02 LIG 0.01  C 
ATOM     63  CG1 VAL P   1     -15.277  12.699  12.036  1.00 27.17 LIG 0.01  C 
ENDBRANCH 60 61
BRANCH 60 64
ATOM     64  N   VAL P   1     -16.810  14.640   9.299  1.00 29.12 LIG-0.07  N 
ATOM     65 H2   VAL P   1     -17.019  15.376   9.753  1.00 29.12 LIG 0.28  HD
ATOM     66 H1   VAL P   1     -17.535  14.131   9.211  1.00 29.12 LIG 0.28  HD
ATOM     67 H3   VAL P   1     -16.506  14.866   8.494  1.00 29.12 LIG 0.28  HD
ENDBRANCH 60 64
ENDBRANCH 58 60
ENDBRANCH 55 56
BRANCH 55 68
ATOM     68  CB  VAL P   2     -12.303  11.620   7.278  1.00 25.03 LIG 0.01  C 
ATOM     69  CG2 VAL P   2     -12.194  13.028   6.660  1.00 23.99 LIG 0.01  C 
ATOM     70  CG1 VAL P   2     -12.059  10.579   6.200  1.00 25.56 LIG 0.01  C 
ENDBRANCH 55 68
ENDBRANCH 53 55
ENDBRANCH 47 51
ENDBRANCH 44 47
ENDBRANCH 1 43
TORSDOF 26
ENDMDL
MODEL 6
USER: ADFR SOLUTION from run 16
USER: SCORE 17.785415 LL:  -6.418 LR: -14.493 RR:   0.000 FEB:  -6.737
USER: RMSD 1.790768
USER: SEED 518279
USER: STATUS no improvement in best in 4 clusters for 5 generations
USER: GENES 28
USER: genes 0 Translation |==|  0.53407 0.31263 0.62452
USER: genes 1 Rotation |==|  0.54872 0.51139 0.50514 0.99746
USER: genes 2 Torsion [N]-CA--C-[N] |==|  0.44849
USER: genes 3 Torsion [C]-N--CA-[CB] |==|  0.45914
USER: genes 4 Torsion [N]-CA--CB-[CG] |==|  0.21788
USER: genes 5 Torsion [CA]-CB--CG-[CD2] |==|  0.34126
USER: genes 6 Torsion [N]-CA--C-[N] |==|  0.96422
USER: genes 7 Torsion [C]-N--CA-[CB] |==|  0.41668
USER: genes 8 Torsion [N]-CA--C-[N] |==|  0.94882
USER: genes 9 Torsion [C]-N--CA-[C] |==|  0.73150
USER: genes 10 Torsion [N]-CA--C-[O] |==|  0.47111
USER: genes 11 Torsion [N]-CA--CB-[CG] |==|  0.20419
USER: genes 12 Torsion [CA]-CB--CG-[OD1] |==|  0.75453
USER: genes 13 Torsion [N]-CA--CB-[CG] |==|  0.74980
USER: genes 14 Torsion [CA]-CB--CG-[OD1] |==|  0.00901
USER: genes 15 Torsion [C]-CA--CB-[CG] |==|  0.82515
USER: genes 16 Torsion [CA]-CB--CG-[CD2] |==|  0.90258
USER: genes 17 Torsion [C]-CA--N-[C] |==|  0.60136
USER: genes 18 Torsion [N]-C--CA-[N] |==|  0.87331
USER: genes 19 Torsion [C]-CA--CB-[OG] |==|  0.63105
USER: genes 20 Torsion [CA]-CB--OG-[HG] |==|  0.50261
USER: genes 21 Torsion [C]-CA--N-[C] |==|  0.79611
USER: genes 22 Torsion [N]-C--CA-[N] |==|  0.38893
USER: genes 23 Torsion [C]-CA--N-[C] |==|  0.62536
USER: genes 24 Torsion [N]-C--CA-[N] |==|  0.72301
USER: genes 25 Torsion [C]-CA--CB-[CG2] |==|  0.53571
USER: genes 26 Torsion [C]-CA--N-[H2] |==|  0.88012
USER: genes 27 Torsion [C]-CA--CB-[CG2] |==|  0.05570
ROOT
ATOM      1  CA  HIS P   4     -16.910   9.258  12.088  1.00 23.76 LIG 0.18  C 
ENDROOT
BRANCH 1 2
ATOM      2  C   HIS P   4     -18.003   9.918  11.236  1.00 25.01 LIG 0.24  C 
ATOM      3 O    HIS P   4     -17.805  11.008  10.682  1.00 23.35 LIG-0.27  OA
ATOM      4  N   PHE P   5     -19.182   9.301  11.190  1.00 23.15 LIG-0.35  N 
ATOM      5 H    PHE P   5     -19.360   8.588  11.638  1.00 23.15 LIG 0.16  HD
BRANCH 4 6
ATOM      6  CA  PHE P   5     -20.286   9.772  10.376  1.00 24.23 LIG 0.18  C 
BRANCH 6 7
ATOM      7  CB  PHE P   5     -21.350   8.637  10.267  1.00 25.15 LIG 0.07  C 
BRANCH 7 8
ATOM      8  CG  PHE P   5     -22.181   8.555  11.507  1.00 25.22 LIG-0.06  A 
ATOM      9  CD2 PHE P   5     -23.558   8.685  11.360  1.00 26.21 LIG 0.01  A 
ATOM     10  CE2 PHE P   5     -24.375   8.697  12.454  1.00 26.58 LIG 0.00  A 
ATOM     11  CZ  PHE P   5     -23.833   8.526  13.716  1.00 27.68 LIG 0.00  A 
ATOM     12  CE1 PHE P   5     -22.477   8.382  13.877  1.00 26.50 LIG 0.00  A 
ATOM     13  CD1 PHE P   5     -21.647   8.394  12.763  1.00 25.73 LIG 0.01  A 
ENDBRANCH 7 8
ENDBRANCH 6 7
BRANCH 6 14
ATOM     14  C   PHE P   5     -20.896  11.071  10.852  1.00 25.59 LIG 0.24  C 
ATOM     15 O    PHE P   5     -21.743  11.684  10.170  1.00 25.82 LIG-0.27  OA
ATOM     16  N   ASN P   6     -20.547  11.470  12.060  1.00 24.53 LIG-0.35  N 
ATOM     17 H    ASN P   6     -19.989  11.054  12.566  1.00 24.53 LIG 0.16  HD
BRANCH 16 18
ATOM     18  CA  ASN P   6     -21.102  12.686  12.640  1.00 25.84 LIG 0.18  C 
BRANCH 18 19
ATOM     19  C   ASN P   6     -20.379  13.944  12.218  1.00 25.26 LIG 0.24  C 
ATOM     20  N   ASP P   7     -19.139  13.816  11.707  1.00 26.59 LIG-0.34  N 
ATOM     21 H    ASP P   7     -18.716  13.072  11.628  1.00 26.59 LIG 0.16  HD
ATOM     22 O    ASN P   6     -20.921  15.040  12.385  1.00 25.72 LIG-0.27  OA
BRANCH 20 23
ATOM     23  CA  ASP P   7     -18.421  14.982  11.244  1.00 25.93 LIG 0.20  C 
BRANCH 23 24
ATOM     24  C   ASP P   7     -18.590  15.128   9.724  1.00 27.07 LIG 0.20  C 
ATOM     25 O    ASP P   7     -18.195  16.180   9.251  1.00 28.96 LIG-0.65  OA
ATOM     26 OXT  ASP P   7     -19.061  14.112   9.035  1.00 29.63 LIG-0.65  OA
ENDBRANCH 23 24
BRANCH 23 27
ATOM     27  CB  ASP P   7     -16.905  14.960  11.521  1.00 25.41 LIG 0.15  C 
BRANCH 27 28
ATOM     28  CG  ASP P   7     -16.149  14.008  10.630  1.00 25.37 LIG 0.17  C 
ATOM     29 OD1  ASP P   7     -15.964  12.801  10.901  1.00 26.66 LIG-0.65  OA
ATOM     30 OD2  ASP P   7     -15.724  14.501   9.530  1.00 23.76 LIG-0.65  OA
ENDBRANCH 27 28
ENDBRANCH 23 27
ENDBRANCH 20 23
ENDBRANCH 18 19
BRANCH 18 31
ATOM     31  CB  ASN P   6     -21.173  12.561  14.164  1.00 24.75 LIG 0.14  C 
BRANCH 31 32
ATOM     32  CG  ASN P   6     -22.493  11.976  14.617  1.00 27.24 LIG 0.22  C 
ATOM     33  ND2 ASN P   6     -22.537  11.892  15.946  1.00 23.85 LIG-0.37  N 
ATOM     34 21HD ASN P   6     -23.221  11.541  16.332  1.00 23.85 LIG 0.16  HD
ATOM     35 22HD ASN P   6     -21.881  12.188  16.417  1.00 23.85 LIG 0.16  HD
ATOM     36 OD1  ASN P   6     -23.352  11.600  13.768  1.00 24.90 LIG-0.27  OA
ENDBRANCH 31 32
ENDBRANCH 18 31
ENDBRANCH 16 18
ENDBRANCH 6 14
ENDBRANCH 4 6
ENDBRANCH 1 2
BRANCH 1 37
ATOM     37  CB  HIS P   4     -17.236   9.518  13.559  1.00 21.80 LIG 0.10  C 
BRANCH 37 38
ATOM     38  CG  HIS P   4     -17.222  10.970  13.930  1.00 23.01 LIG 0.06  A 
ATOM     39  CD2 HIS P   4     -16.485  12.008  13.537  1.00 23.26 LIG 0.14  A 
ATOM     40 NE2  HIS P   4     -17.063  13.135  14.063  1.00 21.45 LIG-0.25  NA
ATOM     41  CE1 HIS P   4     -18.155  12.808  14.749  1.00 22.12 LIG 0.23  A 
ATOM     42 ND1  HIS P   4     -18.286  11.522  14.674  1.00 22.83 LIG-0.24  NA
ENDBRANCH 37 38
ENDBRANCH 1 37
BRANCH 1 43
ATOM     43  N   HIS P   4     -15.604   9.823  11.648  1.00 22.02 LIG-0.35  N 
ATOM     44  C   SER P   3     -14.543   9.017  11.624  1.00 24.42 LIG 0.24  C 
ATOM     45 O    SER P   3     -14.630   7.834  11.989  1.00 24.72 LIG-0.27  OA
ATOM     46 H    HIS P   4     -15.608  10.655  11.430  1.00 22.02 LIG 0.16  HD
BRANCH 44 47
ATOM     47  CA  SER P   3     -13.194   9.605  11.242  1.00 22.14 LIG 0.20  C 
BRANCH 47 48
ATOM     48  CB  SER P   3     -12.553  10.407  12.394  1.00 23.32 LIG 0.20  C 
BRANCH 48 49
ATOM     49 OG   SER P   3     -12.078  11.673  11.888  1.00 23.11 LIG-0.40  OA
ATOM     50 HG   SER P   3     -11.717  12.106  12.510  1.00 23.11 LIG 0.21  HD
ENDBRANCH 48 49
ENDBRANCH 47 48
BRANCH 47 51
ATOM     51  N   SER P   3     -13.241  10.475  10.065  1.00 22.53 LIG-0.34  N 
ATOM     52 H    SER P   3     -13.165  11.315  10.234  1.00 22.53 LIG 0.16  HD
ATOM     53  C   VAL P   2     -13.390   9.967   8.845  1.00 22.76 LIG 0.24  C 
ATOM     54 O    VAL P   2     -13.658   8.758   8.664  1.00 25.85 LIG-0.27  OA
BRANCH 53 55
ATOM     55  CA  VAL P   2     -13.392  10.970   7.689  1.00 24.07 LIG 0.18  C 
BRANCH 55 56
ATOM     56  N   VAL P   2     -12.652  10.449   6.539  1.00 24.29 LIG-0.35  N 
ATOM     57 H    VAL P   2     -12.818   9.631   6.329  1.00 24.29 LIG 0.16  HD
ATOM     58  C   VAL P   1     -11.779  11.257   5.896  1.00 26.39 LIG 0.25  C 
ATOM     59 O    VAL P   1     -11.603  12.455   6.267  1.00 26.90 LIG-0.27  OA
BRANCH 58 60
ATOM     60  CA  VAL P   1     -11.050  10.702   4.681  1.00 27.40 LIG 0.28  C 
BRANCH 60 61
ATOM     61  CB  VAL P   1     -11.822   9.490   4.067  1.00 27.20 LIG 0.02  C 
ATOM     62  CG2 VAL P   1     -10.898   8.782   3.070  1.00 28.02 LIG 0.01  C 
ATOM     63  CG1 VAL P   1     -13.014  10.121   3.383  1.00 27.17 LIG 0.01  C 
ENDBRANCH 60 61
BRANCH 60 64
ATOM     64  N   VAL P   1      -9.722  10.272   4.989  1.00 29.12 LIG-0.07  N 
ATOM     65 H2   VAL P   1      -9.330  10.873   5.515  1.00 29.12 LIG 0.28  HD
ATOM     66 H1   VAL P   1      -9.255  10.188   4.236  1.00 29.12 LIG 0.28  HD
ATOM     67 H3   VAL P   1      -9.754   9.487   5.408  1.00 29.12 LIG 0.28  HD
ENDBRANCH 60 64
ENDBRANCH 58 60
ENDBRANCH 55 56
BRANCH 55 68
ATOM     68  CB  VAL P   2     -14.875  11.334   7.381  1.00 25.03 LIG 0.01  C 
ATOM     69  CG2 VAL P   2     -15.748  10.990   8.604  1.00 23.99 LIG 0.01  C 
ATOM     70  CG1 VAL P   2     -15.417  10.614   6.160  1.00 25.56 LIG 0.01  C 
ENDBRANCH 55 68
ENDBRANCH 53 55
ENDBRANCH 47 51
ENDBRANCH 44 47
ENDBRANCH 1 43
TORSDOF 26
ENDMDL
MODEL 7
USER: ADFR SOLUTION from run 18
USER: SCORE 17.828566 LL:  -4.723 LR: -14.433 RR:   0.000 FEB:  -6.677
USER: RMSD 3.456798
USER: SEED 17
USER: STATUS searching
USER: GENES 28
USER: genes 0 Translation |==|  0.52160 0.31257 0.62451
USER: genes 1 Rotation |==|  0.48889 0.47571 0.49916 0.99929
USER: genes 2 Torsion [N]-CA--C-[N] |==|  0.44941
USER: genes 3 Torsion [C]-N--CA-[CB] |==|  0.54594
USER: genes 4 Torsion [N]-CA--CB-[CG] |==|  0.11634
USER: genes 5 Torsion [CA]-CB--CG-[CD2] |==|  0.66006
USER: genes 6 Torsion [N]-CA--C-[N] |==|  0.36331
USER: genes 7 Torsion [C]-N--CA-[CB] |==|  0.52892
USER: genes 8 Torsion [N]-CA--C-[N] |==|  0.33054
USER: genes 9 Torsion [C]-N--CA-[C] |==|  0.77997
USER: genes 10 Torsion [N]-CA--C-[O] |==|  0.36580
USER: genes 11 Torsion [N]-CA--CB-[CG] |==|  0.71308
USER: genes 12 Torsion [CA]-CB--CG-[OD1] |==|  0.69521
USER: genes 13 Torsion [N]-CA--CB-[CG] |==|  0.73808
USER: genes 14 Torsion [CA]-CB--CG-[OD1] |==|  0.68089
USER: genes 15 Torsion [C]-CA--CB-[CG] |==|  0.53208
USER: genes 16 Torsion [CA]-CB--CG-[CD2] |==|  0.77622
USER: genes 17 Torsion [C]-CA--N-[C] |==|  0.62778
USER: genes 18 Torsion [N]-C--CA-[N] |==|  0.90110
USER: genes 19 Torsion [C]-CA--CB-[OG] |==|  0.62348
USER: genes 20 Torsion [CA]-CB--OG-[HG] |==|  0.44039
USER: genes 21 Torsion [C]-CA--N-[C] |==|  0.77593
USER: genes 22 Torsion [N]-C--CA-[N] |==|  0.42366
USER: genes 23 Torsion [C]-CA--N-[C] |==|  0.60019
USER: genes 24 Torsion [N]-C--CA-[N] |==|  0.79942
USER: genes 25 Torsion [C]-CA--CB-[CG2] |==|  0.47873
USER: genes 26 Torsion [C]-CA--N-[H2] |==|  0.76424
USER: genes 27 Torsion [C]-CA--CB-[CG2] |==|  0.75222
ROOT
ATOM      1  CA  HIS P   4     -17.181   9.257  12.088  1.00 23.76 LIG 0.18  C 
ENDROOT
BRANCH 1 2
ATOM      2  C   HIS P   4     -18.113   9.711  10.956  1.00 25.01 LIG 0.24  C 
ATOM      3 O    HIS P   4     -17.786  10.631  10.195  1.00 23.35 LIG-0.27  OA
ATOM      4  N   PHE P   5     -19.306   9.124  10.889  1.00 23.15 LIG-0.35  N 
ATOM      5 H    PHE P   5     -19.581   8.545  11.463  1.00 23.15 LIG 0.16  HD
BRANCH 4 6
ATOM      6  CA  PHE P   5     -20.264   9.405   9.837  1.00 24.23 LIG 0.18  C 
BRANCH 6 7
ATOM      7  CB  PHE P   5     -21.667   8.890  10.285  1.00 25.15 LIG 0.07  C 
BRANCH 7 8
ATOM      8  CG  PHE P   5     -21.927   9.210  11.721  1.00 25.22 LIG-0.06  A 
ATOM      9  CD2 PHE P   5     -22.207   8.145  12.570  1.00 26.21 LIG 0.01  A 
ATOM     10  CE2 PHE P   5     -22.530   8.365  13.878  1.00 26.58 LIG 0.00  A 
ATOM     11  CZ  PHE P   5     -22.526   9.656  14.377  1.00 27.68 LIG 0.00  A 
ATOM     12  CE1 PHE P   5     -22.236  10.718  13.556  1.00 26.50 LIG 0.00  A 
ATOM     13  CD1 PHE P   5     -21.932  10.491  12.220  1.00 25.73 LIG 0.01  A 
ENDBRANCH 7 8
ENDBRANCH 6 7
BRANCH 6 14
ATOM     14  C   PHE P   5     -20.308  10.855   9.411  1.00 25.59 LIG 0.24  C 
ATOM     15 O    PHE P   5     -20.322  11.782  10.247  1.00 25.82 LIG-0.27  OA
ATOM     16  N   ASN P   6     -20.246  11.083   8.113  1.00 24.53 LIG-0.35  N 
ATOM     17 H    ASN P   6     -20.206  10.467   7.514  1.00 24.53 LIG 0.16  HD
BRANCH 16 18
ATOM     18  CA  ASN P   6     -20.240  12.441   7.587  1.00 25.84 LIG 0.18  C 
BRANCH 18 19
ATOM     19  C   ASN P   6     -21.241  13.355   8.256  1.00 25.26 LIG 0.24  C 
ATOM     20  N   ASP P   7     -20.769  14.441   8.900  1.00 26.59 LIG-0.34  N 
ATOM     21 H    ASP P   7     -19.936  14.639   8.982  1.00 26.59 LIG 0.16  HD
ATOM     22 O    ASN P   6     -22.440  13.068   8.226  1.00 25.72 LIG-0.27  OA
BRANCH 20 23
ATOM     23  CA  ASP P   7     -21.685  15.375   9.516  1.00 25.93 LIG 0.20  C 
BRANCH 23 24
ATOM     24  C   ASP P   7     -22.281  16.303   8.447  1.00 27.07 LIG 0.20  C 
ATOM     25 O    ASP P   7     -23.493  16.433   8.482  1.00 28.96 LIG-0.65  OA
ATOM     26 OXT  ASP P   7     -21.469  16.944   7.636  1.00 29.63 LIG-0.65  OA
ENDBRANCH 23 24
BRANCH 23 27
ATOM     27  CB  ASP P   7     -21.056  16.283  10.592  1.00 25.41 LIG 0.15  C 
BRANCH 27 28
ATOM     28  CG  ASP P   7     -21.391  15.860  11.999  1.00 25.37 LIG 0.17  C 
ATOM     29 OD1  ASP P   7     -22.151  16.504  12.756  1.00 26.66 LIG-0.65  OA
ATOM     30 OD2  ASP P   7     -20.874  14.756  12.382  1.00 23.76 LIG-0.65  OA
ENDBRANCH 27 28
ENDBRANCH 23 27
ENDBRANCH 20 23
ENDBRANCH 18 19
BRANCH 18 31
ATOM     31  CB  ASN P   6     -20.422  12.422   6.068  1.00 24.75 LIG 0.14  C 
BRANCH 31 32
ATOM     32  CG  ASN P   6     -19.093  12.450   5.344  1.00 27.24 LIG 0.22  C 
ATOM     33  ND2 ASN P   6     -18.378  11.365   5.634  1.00 23.85 LIG-0.37  N 
ATOM     34 21HD ASN P   6     -17.584  11.275   5.315  1.00 23.85 LIG 0.16  HD
ATOM     35 22HD ASN P   6     -18.709  10.754   6.140  1.00 23.85 LIG 0.16  HD
ATOM     36 OD1  ASN P   6     -18.778  13.442   4.625  1.00 24.90 LIG-0.27  OA
ENDBRANCH 31 32
ENDBRANCH 18 31
ENDBRANCH 16 18
ENDBRANCH 6 14
ENDBRANCH 4 6
ENDBRANCH 1 2
BRANCH 1 37
ATOM     37  CB  HIS P   4     -17.693   9.864  13.394  1.00 21.80 LIG 0.10  C 
BRANCH 37 38
ATOM     38  CG  HIS P   4     -16.731   9.731  14.536  1.00 23.01 LIG 0.06  A 
ATOM     39  CD2 HIS P   4     -16.435   8.738  15.373  1.00 23.26 LIG 0.14  A 
ATOM     40 NE2  HIS P   4     -15.323   9.123  16.079  1.00 21.45 LIG-0.25  NA
ATOM     41  CE1 HIS P   4     -14.918  10.321  15.670  1.00 22.12 LIG 0.23  A 
ATOM     42 ND1  HIS P   4     -15.730  10.705  14.736  1.00 22.83 LIG-0.24  NA
ENDBRANCH 37 38
ENDBRANCH 1 37
BRANCH 1 43
ATOM     43  N   HIS P   4     -15.802   9.681  11.722  1.00 22.02 LIG-0.35  N 
ATOM     44  C   SER P   3     -14.811   8.801  11.863  1.00 24.42 LIG 0.24  C 
ATOM     45 O    SER P   3     -15.025   7.665  12.317  1.00 24.72 LIG-0.27  OA
ATOM     46 H    HIS P   4     -15.719  10.488  11.434  1.00 22.02 LIG 0.16  HD
BRANCH 44 47
ATOM     47  CA  SER P   3     -13.392   9.250  11.556  1.00 22.14 LIG 0.20  C 
BRANCH 47 48
ATOM     48  CB  SER P   3     -12.699   9.889  12.777  1.00 23.32 LIG 0.20  C 
BRANCH 48 49
ATOM     49 OG   SER P   3     -12.010  11.088  12.363  1.00 23.11 LIG-0.40  OA
ATOM     50 HG   SER P   3     -11.887  11.585  13.028  1.00 23.11 LIG 0.21  HD
ENDBRANCH 48 49
ENDBRANCH 47 48
BRANCH 47 51
ATOM     51  N   SER P   3     -13.299  10.198  10.444  1.00 22.53 LIG-0.34  N 
ATOM     52 H    SER P   3     -13.230  11.023  10.678  1.00 22.53 LIG 0.16  HD
ATOM     53  C   VAL P   2     -13.324   9.776   9.183  1.00 22.76 LIG 0.24  C 
ATOM     54 O    VAL P   2     -13.588   8.589   8.891  1.00 25.85 LIG-0.27  OA
BRANCH 53 55
ATOM     55  CA  VAL P   2     -13.187  10.855   8.106  1.00 24.07 LIG 0.18  C 
BRANCH 55 56
ATOM     56  N   VAL P   2     -12.593  10.308   6.886  1.00 24.29 LIG-0.35  N 
ATOM     57 H    VAL P   2     -12.819   9.501   6.691  1.00 24.29 LIG 0.16  HD
ATOM     58  C   VAL P   1     -11.749  11.078   6.162  1.00 26.39 LIG 0.25  C 
ATOM     59 O    VAL P   1     -11.477  12.262   6.517  1.00 26.90 LIG-0.27  OA
BRANCH 58 60
ATOM     60  CA  VAL P   1     -11.173  10.497   4.878  1.00 27.40 LIG 0.28  C 
BRANCH 60 61
ATOM     61  CB  VAL P   1     -12.297   9.878   3.986  1.00 27.20 LIG 0.02  C 
ATOM     62  CG2 VAL P   1     -11.684   9.488   2.636  1.00 28.02 LIG 0.01  C 
ATOM     63  CG1 VAL P   1     -13.312  10.991   3.847  1.00 27.17 LIG 0.01  C 
ENDBRANCH 60 61
BRANCH 60 64
ATOM     64  N   VAL P   1     -10.195   9.485   5.126  1.00 29.12 LIG-0.07  N 
ATOM     65 H2   VAL P   1      -9.401   9.865   5.257  1.00 29.12 LIG 0.28  HD
ATOM     66 H1   VAL P   1     -10.149   8.938   4.424  1.00 29.12 LIG 0.28  HD
ATOM     67 H3   VAL P   1     -10.424   9.021   5.850  1.00 29.12 LIG 0.28  HD
ENDBRANCH 60 64
ENDBRANCH 58 60
ENDBRANCH 55 56
BRANCH 55 68
ATOM     68  CB  VAL P   2     -14.591  11.496   7.898  1.00 25.03 LIG 0.01  C 
ATOM     69  CG2 VAL P   2     -15.357  10.707   6.818  1.00 23.99 LIG 0.01  C 
ATOM     70  CG1 VAL P   2     -14.518  12.957   7.494  1.00 25.56 LIG 0.01  C 
ENDBRANCH 55 68
ENDBRANCH 53 55
ENDBRANCH 47 51
ENDBRANCH 44 47
ENDBRANCH 1 43
TORSDOF 26
ENDMDL
MODEL 8
USER: ADFR SOLUTION from run 12
USER: SCORE 17.846778 LL:  -6.584 LR: -14.393 RR:   0.000 FEB:  -6.637
USER: RMSD 2.618113
USER: SEED 476470
USER: STATUS searching
USER: GENES 28
USER: genes 0 Translation |==|  0.53098 0.30815 0.61401
USER: genes 1 Rotation |==|  0.55164 0.51922 0.49213 0.99689
USER: genes 2 Torsion [N]-CA--C-[N] |==|  0.46184
USER: genes 3 Torsion [C]-N--CA-[CB] |==|  0.44697
USER: genes 4 Torsion [N]-CA--CB-[CG] |==|  0.21797
USER: genes 5 Torsion [CA]-CB--CG-[CD2] |==|  0.30260
USER: genes 6 Torsion [N]-CA--C-[N] |==|  0.97222
USER: genes 7 Torsion [C]-N--CA-[CB] |==|  0.39369
USER: genes 8 Torsion [N]-CA--C-[N] |==|  0.92759
USER: genes 9 Torsion [C]-N--CA-[C] |==|  0.58324
USER: genes 10 Torsion [N]-CA--C-[O] |==|  0.96659
USER: genes 11 Torsion [N]-CA--CB-[CG] |==|  0.66314
USER: genes 12 Torsion [CA]-CB--CG-[OD1] |==|  0.00484
USER: genes 13 Torsion [N]-CA--CB-[CG] |==|  0.74404
USER: genes 14 Torsion [CA]-CB--CG-[OD1] |==|  0.99467
USER: genes 15 Torsion [C]-CA--CB-[CG] |==|  0.82148
USER: genes 16 Torsion [CA]-CB--CG-[CD2] |==|  0.91970
USER: genes 17 Torsion [C]-CA--N-[C] |==|  0.55467
USER: genes 18 Torsion [N]-C--CA-[N] |==|  0.91669
USER: genes 19 Torsion [C]-CA--CB-[OG] |==|  0.73445
USER: genes 20 Torsion [CA]-CB--OG-[HG] |==|  0.50360
USER: genes 21 Torsion [C]-CA--N-[C] |==|  0.81416
USER: genes 22 Torsion [N]-C--CA-[N] |==|  0.10355
USER: genes 23 Torsion [C]-CA--N-[C] |==|  0.65050
USER: genes 24 Torsion [N]-C--CA-[N] |==|  0.55501
USER: genes 25 Torsion [C]-CA--CB-[CG2] |==|  0.89006
USER: genes 26 Torsion [C]-CA--N-[H2] |==|  0.92167
USER: genes 27 Torsion [C]-CA--CB-[CG2] |==|  0.66114
ROOT
ATOM      1  CA  HIS P   4     -16.977   9.181  11.860  1.00 23.76 LIG 0.18  C 
ENDROOT
BRANCH 1 2
ATOM      2  C   HIS P   4     -18.066   9.903  11.054  1.00 25.01 LIG 0.24  C 
ATOM      3 O    HIS P   4     -17.812  10.942  10.431  1.00 23.35 LIG-0.27  OA
ATOM      4  N   PHE P   5     -19.298   9.400  11.125  1.00 23.15 LIG-0.35  N 
ATOM      5 H    PHE P   5     -19.506   8.729  11.622  1.00 23.15 LIG 0.16  HD
BRANCH 4 6
ATOM      6  CA  PHE P   5     -20.412   9.937  10.369  1.00 24.23 LIG 0.18  C 
BRANCH 6 7
ATOM      7  CB  PHE P   5     -21.539   8.861  10.302  1.00 25.15 LIG 0.07  C 
BRANCH 7 8
ATOM      8  CG  PHE P   5     -22.314   8.811  11.580  1.00 25.22 LIG-0.06  A 
ATOM      9  CD2 PHE P   5     -23.615   9.300  11.554  1.00 26.21 LIG 0.01  A 
ATOM     10  CE2 PHE P   5     -24.359   9.358  12.698  1.00 26.58 LIG 0.00  A 
ATOM     11  CZ  PHE P   5     -23.830   8.876  13.882  1.00 27.68 LIG 0.00  A 
ATOM     12  CE1 PHE P   5     -22.552   8.375  13.922  1.00 26.50 LIG 0.00  A 
ATOM     13  CD1 PHE P   5     -21.791   8.341  12.760  1.00 25.73 LIG 0.01  A 
ENDBRANCH 7 8
ENDBRANCH 6 7
BRANCH 6 14
ATOM     14  C   PHE P   5     -20.930  11.261  10.884  1.00 25.59 LIG 0.24  C 
ATOM     15 O    PHE P   5     -21.812  11.900  10.275  1.00 25.82 LIG-0.27  OA
ATOM     16  N   ASN P   6     -20.457  11.657  12.051  1.00 24.53 LIG-0.35  N 
ATOM     17 H    ASN P   6     -19.871  11.225  12.508  1.00 24.53 LIG 0.16  HD
BRANCH 16 18
ATOM     18  CA  ASN P   6     -20.913  12.897  12.665  1.00 25.84 LIG 0.18  C 
BRANCH 18 19
ATOM     19  C   ASN P   6     -20.061  14.096  12.317  1.00 25.26 LIG 0.24  C 
ATOM     20  N   ASP P   7     -18.773  13.878  11.988  1.00 26.59 LIG-0.34  N 
ATOM     21 H    ASP P   7     -18.391  13.107  11.987  1.00 26.59 LIG 0.16  HD
ATOM     22 O    ASN P   6     -20.550  15.226  12.380  1.00 25.72 LIG-0.27  OA
BRANCH 20 23
ATOM     23  CA  ASP P   7     -17.925  14.983  11.600  1.00 25.93 LIG 0.20  C 
BRANCH 23 24
ATOM     24  C   ASP P   7     -16.854  14.497  10.612  1.00 27.07 LIG 0.20  C 
ATOM     25 O    ASP P   7     -16.748  13.287  10.507  1.00 28.96 LIG-0.65  OA
ATOM     26 OXT  ASP P   7     -16.193  15.384   9.902  1.00 29.63 LIG-0.65  OA
ENDBRANCH 23 24
BRANCH 23 27
ATOM     27  CB  ASP P   7     -17.179  15.664  12.764  1.00 25.41 LIG 0.15  C 
BRANCH 27 28
ATOM     28  CG  ASP P   7     -17.494  17.132  12.897  1.00 25.37 LIG 0.17  C 
ATOM     29 OD1  ASP P   7     -18.305  17.738  12.162  1.00 26.66 LIG-0.65  OA
ATOM     30 OD2  ASP P   7     -16.901  17.740  13.852  1.00 23.76 LIG-0.65  OA
ENDBRANCH 27 28
ENDBRANCH 23 27
ENDBRANCH 20 23
ENDBRANCH 18 19
BRANCH 18 31
ATOM     31  CB  ASN P   6     -21.045  12.720  14.179  1.00 24.75 LIG 0.14  C 
BRANCH 31 32
ATOM     32  CG  ASN P   6     -22.443  12.296  14.575  1.00 27.24 LIG 0.22  C 
ATOM     33  ND2 ASN P   6     -22.508  12.056  15.883  1.00 23.85 LIG-0.37  N 
ATOM     34 21HD ASN P   6     -23.241  11.771  16.232  1.00 23.85 LIG 0.16  HD
ATOM     35 22HD ASN P   6     -21.818  12.186  16.379  1.00 23.85 LIG 0.16  HD
ATOM     36 OD1  ASN P   6     -23.344  12.166  13.697  1.00 24.90 LIG-0.27  OA
ENDBRANCH 31 32
ENDBRANCH 18 31
ENDBRANCH 16 18
ENDBRANCH 6 14
ENDBRANCH 4 6
ENDBRANCH 1 2
BRANCH 1 37
ATOM     37  CB  HIS P   4     -17.237   9.440  13.343  1.00 21.80 LIG 0.10  C 
BRANCH 37 38
ATOM     38  CG  HIS P   4     -17.107  10.881  13.734  1.00 23.01 LIG 0.06  A 
ATOM     39  CD2 HIS P   4     -16.384  11.896  13.261  1.00 23.26 LIG 0.14  A 
ATOM     40 NE2  HIS P   4     -16.834  13.034  13.881  1.00 21.45 LIG-0.25  NA
ATOM     41  CE1 HIS P   4     -17.837  12.738  14.703  1.00 22.12 LIG 0.23  A 
ATOM     42 ND1  HIS P   4     -18.035  11.460  14.625  1.00 22.83 LIG-0.24  NA
ENDBRANCH 37 38
ENDBRANCH 1 37
BRANCH 1 43
ATOM     43  N   HIS P   4     -15.662   9.686  11.377  1.00 22.02 LIG-0.35  N 
ATOM     44  C   SER P   3     -14.576   8.953  11.620  1.00 24.42 LIG 0.24  C 
ATOM     45 O    SER P   3     -14.651   7.892  12.259  1.00 24.72 LIG-0.27  OA
ATOM     46 H    HIS P   4     -15.677  10.439  10.961  1.00 22.02 LIG 0.16  HD
BRANCH 44 47
ATOM     47  CA  SER P   3     -13.223   9.498  11.191  1.00 22.14 LIG 0.20  C 
BRANCH 47 48
ATOM     48  CB  SER P   3     -12.520  10.284  12.316  1.00 23.32 LIG 0.20  C 
BRANCH 48 49
ATOM     49 OG   SER P   3     -12.794  11.694  12.157  1.00 23.11 LIG-0.40  OA
ATOM     50 HG   SER P   3     -12.398  12.126  12.758  1.00 23.11 LIG 0.21  HD
ENDBRANCH 48 49
ENDBRANCH 47 48
BRANCH 47 51
ATOM     51  N   SER P   3     -13.281  10.362  10.010  1.00 22.53 LIG-0.34  N 
ATOM     52 H    SER P   3     -13.088  11.187  10.158  1.00 22.53 LIG 0.16  HD
ATOM     53  C   VAL P   2     -13.612   9.872   8.820  1.00 22.76 LIG 0.24  C 
ATOM     54 O    VAL P   2     -14.041   8.704   8.684  1.00 25.85 LIG-0.27  OA
BRANCH 53 55
ATOM     55  CA  VAL P   2     -13.607  10.864   7.654  1.00 24.07 LIG 0.18  C 
BRANCH 55 56
ATOM     56  N   VAL P   2     -12.508  11.822   7.783  1.00 24.29 LIG-0.35  N 
ATOM     57 H    VAL P   2     -11.725  11.480   7.875  1.00 24.29 LIG 0.16  HD
ATOM     58  C   VAL P   1     -12.783  13.146   7.751  1.00 26.39 LIG 0.25  C 
ATOM     59 O    VAL P   1     -13.968  13.565   7.601  1.00 26.90 LIG-0.27  OA
BRANCH 58 60
ATOM     60  CA  VAL P   1     -11.618  14.121   7.851  1.00 27.40 LIG 0.28  C 
BRANCH 60 61
ATOM     61  CB  VAL P   1     -10.545  13.615   8.867  1.00 27.20 LIG 0.02  C 
ATOM     62  CG2 VAL P   1     -11.269  12.998  10.069  1.00 28.02 LIG 0.01  C 
ATOM     63  CG1 VAL P   1      -9.780  14.864   9.248  1.00 27.17 LIG 0.01  C 
ENDBRANCH 60 61
BRANCH 60 64
ATOM     64  N   VAL P   1     -12.031  15.428   8.255  1.00 29.12 LIG-0.07  N 
ATOM     65 H2   VAL P   1     -12.870  15.569   7.994  1.00 29.12 LIG 0.28  HD
ATOM     66 H1   VAL P   1     -11.499  16.037   7.882  1.00 29.12 LIG 0.28  HD
ATOM     67 H3   VAL P   1     -11.982  15.494   9.141  1.00 29.12 LIG 0.28  HD
ENDBRANCH 60 64
ENDBRANCH 58 60
ENDBRANCH 55 56
BRANCH 55 68
ATOM     68  CB  VAL P   2     -13.582  10.040   6.333  1.00 25.03 LIG 0.01  C 
ATOM     69  CG2 VAL P   2     -12.342  10.437   5.508  1.00 23.99 LIG 0.01  C 
ATOM     70  CG1 VAL P   2     -14.829  10.239   5.491  1.00 25.56 LIG 0.01  C 
ENDBRANCH 55 68
ENDBRANCH 53 55
ENDBRANCH 47 51
ENDBRANCH 44 47
ENDBRANCH 1 43
TORSDOF 26
ENDMDL
