MODEL 1
USER: ADFR SOLUTION from run 96
USER: SCORE 13.506003 LL:  -3.270 LR: -10.391 RR:   0.000 FEB:  -8.005
USER: RMSD 0.992143
USER: SEED 95
USER: STATUS 1 or 2 clusters left
USER: GENES 10
USER: genes 0 Translation |==|  0.48821 0.55877 0.55616
USER: genes 1 Rotation |==|  0.45187 0.48013 0.52632 0.99658
USER: genes 2 Torsion [O]-C--CA-[N] |==|  0.94714
USER: genes 3 Torsion [N]-C--CA-[N] |==|  0.36273
USER: genes 4 Torsion [C]-CA--N-[C] |==|  0.65682
USER: genes 5 Torsion [C]-CA--CB-[CG] |==|  0.43452
USER: genes 6 Torsion [CA]-CB--CG-[CD1] |==|  0.33891
USER: genes 7 Torsion [N]-CA--C-[O] |==|  0.99060
USER: genes 8 Torsion [N]-CA--C-[N] |==|  0.45601
USER: genes 9 Torsion [N]-CA--C-[O] |==|  0.39402
ROOT
ATOM      1  C   PRO B1002      19.687  21.647  18.935  1.00 33.09 LIG 0.24  C 
ATOM      2 O    PRO B1002      19.642  20.832  18.008  1.00 32.82 LIG-0.27  OA
ATOM      3  N   PRO B1003      19.923  22.948  18.722  1.00 33.61 LIG-0.34  N 
ATOM      4  CA  PRO B1003      20.146  23.443  17.363  1.00 34.05 LIG 0.18  C 
ATOM      5  CB  PRO B1003      20.173  24.956  17.554  1.00 34.65 LIG 0.04  C 
ATOM      6  CG  PRO B1003      20.766  25.103  18.917  1.00 34.15 LIG 0.02  C 
ATOM      7  CD  PRO B1003      20.030  24.040  19.704  1.00 34.31 LIG 0.13  C 
ENDROOT
BRANCH 1 8
ATOM      8  CA  PRO B1002      19.467  21.203  20.375  1.00 32.09 LIG 0.18  C 
ATOM      9  N   PRO B1002      18.788  19.908  20.368  1.00 31.87 LIG-0.34  N 
ATOM     10  C   PHE B1001      17.466  19.853  20.145  1.00 31.39 LIG 0.24  C 
ATOM     11  CD  PRO B1002      19.715  18.830  20.756  1.00 31.65 LIG 0.13  C 
ATOM     12 O    PHE B1001      16.791  20.869  19.956  1.00 31.36 LIG-0.27  OA
ATOM     13  CG  PRO B1002      21.072  19.507  20.633  1.00 31.59 LIG 0.02  C 
ATOM     14  CB  PRO B1002      20.777  20.897  21.096  1.00 32.35 LIG 0.04  C 
BRANCH 10 15
ATOM     15  CA  PHE B1001      16.821  18.477  20.140  1.00 30.70 LIG 0.18  C 
BRANCH 15 16
ATOM     16  N   PHE B1001      15.635  18.449  20.991  1.00 31.26 LIG-0.35  N 
ATOM     17  C   ACE B1000      15.507  17.581  21.993  1.00 32.54 LIG 0.21  C 
ATOM     18  CH3 ACE B1000      14.074  17.457  22.513  1.00 32.86 LIG 0.12  C 
ATOM     19 O    ACE B1000      16.347  16.709  22.242  1.00 32.71 LIG-0.27  OA
ATOM     20 H    PHE B1001      15.039  19.035  20.788  1.00 31.26 LIG 0.16  HD
ENDBRANCH 15 16
BRANCH 15 21
ATOM     21  CB  PHE B1001      16.470  18.140  18.686  1.00 29.45 LIG 0.07  C 
BRANCH 21 22
ATOM     22  CG  PHE B1001      16.354  16.675  18.406  1.00 29.10 LIG-0.06  A 
ATOM     23  CD2 PHE B1001      17.427  15.825  18.647  1.00 29.14 LIG 0.01  A 
ATOM     24  CE2 PHE B1001      17.327  14.463  18.384  1.00 28.22 LIG 0.00  A 
ATOM     25  CZ  PHE B1001      16.148  13.944  17.875  1.00 28.72 LIG 0.00  A 
ATOM     26  CE1 PHE B1001      15.069  14.786  17.633  1.00 29.15 LIG 0.00  A 
ATOM     27  CD1 PHE B1001      15.176  16.144  17.899  1.00 28.88 LIG 0.01  A 
ENDBRANCH 21 22
ENDBRANCH 15 21
ENDBRANCH 10 15
ENDBRANCH 1 8
BRANCH 4 28
ATOM     28  C   PRO B1003      21.451  22.905  16.777  1.00 33.85 LIG 0.24  C 
ATOM     29 O    PRO B1003      22.202  22.202  17.454  1.00 33.94 LIG-0.27  OA
ATOM     30  N   PRO B1004      21.726  23.212  15.501  1.00 34.14 LIG-0.34  N 
ATOM     31  CA  PRO B1004      22.959  22.742  14.867  1.00 34.66 LIG 0.18  C 
ATOM     32  CD  PRO B1004      20.883  23.940  14.535  1.00 34.36 LIG 0.13  C 
ATOM     33  CB  PRO B1004      22.736  23.082  13.393  1.00 34.44 LIG 0.04  C 
ATOM     34  CG  PRO B1004      21.873  24.301  13.457  1.00 34.41 LIG 0.02  C 
BRANCH 31 35
ATOM     35  C   PRO B1004      24.181  23.441  15.466  1.00 35.04 LIG 0.24  C 
ATOM     36  N   PRO B1005      25.383  22.896  15.230  1.00 35.67 LIG-0.34  N 
ATOM     37  CD  PRO B1005      25.638  21.647  14.493  1.00 35.53 LIG 0.13  C 
ATOM     38  CA  PRO B1005      26.641  23.454  15.742  1.00 36.27 LIG 0.17  C 
ATOM     39  CG  PRO B1005      26.999  21.248  15.008  1.00 36.24 LIG 0.02  C 
ATOM     40  CB  PRO B1005      27.698  22.556  15.107  1.00 36.11 LIG 0.04  C 
ATOM     41 O    PRO B1004      24.050  24.458  16.148  1.00 35.22 LIG-0.27  OA
BRANCH 38 42
ATOM     42  C   PRO B1005      26.838  24.924  15.376  1.00 36.62 LIG 0.22  C 
ATOM     43 O    PRO B1005      27.359  25.674  16.229  1.00 36.45 LIG-0.29  OA
ENDBRANCH 38 42
ENDBRANCH 31 35
ENDBRANCH 4 28
TORSDOF 8
ENDMDL
MODEL 2
USER: ADFR SOLUTION from run 111
USER: SCORE 12.682982 LL:  -3.315 LR:  -9.594 RR:   0.000 FEB:  -7.207
USER: RMSD 2.486916
USER: SEED 110
USER: STATUS no improvement in best in 2 clusters for 5 generations
USER: GENES 10
USER: genes 0 Translation |==|  0.50674 0.53185 0.57106
USER: genes 1 Rotation |==|  0.34291 0.34801 0.70256 0.90149
USER: genes 2 Torsion [O]-C--CA-[N] |==|  0.80047
USER: genes 3 Torsion [N]-C--CA-[N] |==|  0.32279
USER: genes 4 Torsion [C]-CA--N-[C] |==|  0.67932
USER: genes 5 Torsion [C]-CA--CB-[CG] |==|  0.44140
USER: genes 6 Torsion [CA]-CB--CG-[CD1] |==|  0.82204
USER: genes 7 Torsion [N]-CA--C-[O] |==|  0.99895
USER: genes 8 Torsion [N]-CA--C-[N] |==|  0.30323
USER: genes 9 Torsion [N]-CA--C-[O] |==|  0.62172
ROOT
ATOM      1  C   PRO B1002      20.104  21.102  19.180  1.00 33.09 LIG 0.24  C 
ATOM      2 O    PRO B1002      21.070  20.372  18.940  1.00 32.82 LIG-0.27  OA
ATOM      3  N   PRO B1003      19.679  22.025  18.308  1.00 33.61 LIG-0.34  N 
ATOM      4  CA  PRO B1003      20.368  22.199  17.028  1.00 34.05 LIG 0.18  C 
ATOM      5  CB  PRO B1003      19.462  23.177  16.287  1.00 34.65 LIG 0.04  C 
ATOM      6  CG  PRO B1003      18.913  24.017  17.393  1.00 34.15 LIG 0.02  C 
ATOM      7  CD  PRO B1003      18.568  22.982  18.442  1.00 34.31 LIG 0.13  C 
ENDROOT
BRANCH 1 8
ATOM      8  CA  PRO B1002      19.341  20.978  20.494  1.00 32.09 LIG 0.18  C 
ATOM      9  N   PRO B1002      18.566  19.739  20.470  1.00 31.87 LIG-0.34  N 
ATOM     10  C   PHE B1001      17.411  19.690  19.791  1.00 31.39 LIG 0.24  C 
ATOM     11  CD  PRO B1002      19.169  18.729  21.361  1.00 31.65 LIG 0.13  C 
ATOM     12 O    PHE B1001      16.966  20.669  19.186  1.00 31.36 LIG-0.27  OA
ATOM     13  CG  PRO B1002      20.549  19.312  21.627  1.00 31.59 LIG 0.02  C 
ATOM     14  CB  PRO B1002      20.268  20.779  21.689  1.00 32.35 LIG 0.04  C 
BRANCH 10 15
ATOM     15  CA  PHE B1001      16.658  18.370  19.796  1.00 30.70 LIG 0.18  C 
BRANCH 15 16
ATOM     16  N   PHE B1001      15.363  18.506  20.458  1.00 31.26 LIG-0.35  N 
ATOM     17  C   ACE B1000      15.077  17.860  21.587  1.00 32.54 LIG 0.21  C 
ATOM     18  CH3 ACE B1000      13.583  17.832  21.911  1.00 32.86 LIG 0.12  C 
ATOM     19 O    ACE B1000      15.856  17.065  22.126  1.00 32.71 LIG-0.27  OA
ATOM     20 H    PHE B1001      14.815  19.033  20.056  1.00 31.26 LIG 0.16  HD
ENDBRANCH 15 16
BRANCH 15 21
ATOM     21  CB  PHE B1001      16.494  17.928  18.337  1.00 29.45 LIG 0.07  C 
BRANCH 21 22
ATOM     22  CG  PHE B1001      16.236  16.465  18.165  1.00 29.10 LIG-0.06  A 
ATOM     23  CD2 PHE B1001      15.030  16.020  17.633  1.00 29.14 LIG 0.01  A 
ATOM     24  CE2 PHE B1001      14.783  14.661  17.476  1.00 28.22 LIG 0.00  A 
ATOM     25  CZ  PHE B1001      15.743  13.737  17.852  1.00 28.72 LIG 0.00  A 
ATOM     26  CE1 PHE B1001      16.952  14.172  18.383  1.00 29.15 LIG 0.00  A 
ATOM     27  CD1 PHE B1001      17.192  15.530  18.536  1.00 28.88 LIG 0.01  A 
ENDBRANCH 21 22
ENDBRANCH 15 21
ENDBRANCH 10 15
ENDBRANCH 1 8
BRANCH 4 28
ATOM     28  C   PRO B1003      21.783  22.744  17.222  1.00 33.85 LIG 0.24  C 
ATOM     29 O    PRO B1003      22.213  22.988  18.349  1.00 33.94 LIG-0.27  OA
ATOM     30  N   PRO B1004      22.530  22.921  16.122  1.00 34.14 LIG-0.34  N 
ATOM     31  CA  PRO B1004      23.893  23.445  16.221  1.00 34.66 LIG 0.18  C 
ATOM     32  CD  PRO B1004      22.201  22.571  14.729  1.00 34.36 LIG 0.13  C 
ATOM     33  CB  PRO B1004      24.444  23.232  14.812  1.00 34.44 LIG 0.04  C 
ATOM     34  CG  PRO B1004      23.228  23.358  13.953  1.00 34.41 LIG 0.02  C 
BRANCH 31 35
ATOM     35  C   PRO B1004      23.882  24.916  16.644  1.00 35.04 LIG 0.24  C 
ATOM     36  N   PRO B1005      24.308  25.208  17.882  1.00 35.67 LIG-0.34  N 
ATOM     37  CD  PRO B1005      24.735  24.235  18.902  1.00 35.53 LIG 0.13  C 
ATOM     38  CA  PRO B1005      24.351  26.571  18.425  1.00 36.27 LIG 0.17  C 
ATOM     39  CG  PRO B1005      24.555  25.017  20.179  1.00 36.24 LIG 0.02  C 
ATOM     40  CB  PRO B1005      25.009  26.377  19.787  1.00 36.11 LIG 0.04  C 
ATOM     41 O    PRO B1004      23.481  25.788  15.872  1.00 35.22 LIG-0.27  OA
BRANCH 38 42
ATOM     42  C   PRO B1005      25.128  27.545  17.541  1.00 36.62 LIG 0.22  C 
ATOM     43 O    PRO B1005      25.920  28.335  18.098  1.00 36.45 LIG-0.29  OA
ENDBRANCH 38 42
ENDBRANCH 31 35
ENDBRANCH 4 28
TORSDOF 8
ENDMDL
