MODEL 1
USER: ADFR SOLUTION from run 110
USER: SCORE 7.178741 LL:  -1.198 LR:  -6.097 RR:   0.000 FEB:  -4.605
USER: RMSD 3.396582
USER: SEED 109
USER: STATUS no improvement in best in 21 clusters for 5 generations
USER: GENES 7
USER: genes 0 Translation |==|  0.47676 0.61765 0.44623
USER: genes 1 Rotation |==|  0.97801 0.54944 0.61709 0.57314
USER: genes 2 Torsion [C]-CA--N-[C] |==|  0.81550
USER: genes 3 Torsion [N]-C--CA-[N] |==|  0.44477
USER: genes 4 Torsion [N]-CA--C-[N] |==|  0.42868
USER: genes 5 Torsion [C]-N--CA-[CB] |==|  0.21991
USER: genes 6 Torsion [N]-CA--C-[OXT] |==|  0.64611
ROOT
ATOM      1  CA  GLY P 572      32.724  74.242  89.125  0.73  6.50 LIG 0.23  C 
ENDROOT
BRANCH 1 2
ATOM      2  N   GLY P 572      31.297  74.034  89.321  0.73  9.23 LIG-0.35  N 
ATOM      3  C   PRO P 571      30.742  72.888  89.738  0.73  8.22 LIG 0.25  C 
ATOM      4 O    PRO P 571      31.374  71.879  90.057  0.73  7.23 LIG-0.27  OA
ATOM      5 H    GLY P 572      30.828  74.733  89.140  0.73  9.23 LIG 0.16  HD
BRANCH 3 6
ATOM      6  CA  PRO P 571      29.212  72.903  89.849  0.73  9.03 LIG 0.35  C 
ATOM      7  N   PRO P 571      28.612  71.529  89.848  0.73 10.09 LIG 0.32  N 
ATOM      8  CD  PRO P 571      27.663  71.625  90.977  0.73  9.16 LIG 0.32  C 
ATOM      9  CG  PRO P 571      27.456  73.114  91.278  0.73  9.15 LIG 0.04  C 
ATOM     10  CB  PRO P 571      28.770  73.642  91.109  0.73  9.69 LIG 0.05  C 
ENDBRANCH 3 6
ENDBRANCH 1 2
BRANCH 1 11
ATOM     11  C   GLY P 572      33.319  74.151  90.528  0.73  5.30 LIG 0.24  C 
ATOM     12  N   ALA P 573      34.597  73.778  90.554  0.73  5.43 LIG-0.35  N 
ATOM     13 H    ALA P 573      35.037  73.585  89.841  0.73  5.43 LIG 0.16  HD
ATOM     14 O    GLY P 572      32.648  74.350  91.545  0.73  3.60 LIG-0.27  OA
BRANCH 12 15
ATOM     15  CA  ALA P 573      35.391  73.657  91.768  0.73  6.34 LIG 0.18  C 
ATOM     16  CB  ALA P 573      35.080  72.360  92.475  0.73  5.76 LIG 0.04  C 
BRANCH 15 17
ATOM     17  C   ALA P 573      36.856  73.679  91.338  0.73  7.45 LIG 0.20  C 
ATOM     18 OXT  ALA P 573      37.607  72.760  91.726  0.73  4.81 LIG-0.65  OA
ATOM     19 O    ALA P 573      37.232  74.617  90.601  0.73  9.82 LIG-0.65  OA
ENDBRANCH 15 17
ENDBRANCH 12 15
ENDBRANCH 1 11
TORSDOF 5
ENDMDL
MODEL 2
USER: ADFR SOLUTION from run 179
USER: SCORE 7.835139 LL:  -1.829 LR:  -6.007 RR:   0.000 FEB:  -4.515
USER: RMSD 1.803001
USER: SEED 178
USER: STATUS no improvement in best in 3 clusters for 5 generations
USER: GENES 7
USER: genes 0 Translation |==|  0.64080 0.59871 0.67473
USER: genes 1 Rotation |==|  0.40028 0.53735 0.41333 0.98078
USER: genes 2 Torsion [C]-CA--N-[C] |==|  0.23302
USER: genes 3 Torsion [N]-C--CA-[N] |==|  0.19772
USER: genes 4 Torsion [N]-CA--C-[N] |==|  0.00910
USER: genes 5 Torsion [C]-N--CA-[CB] |==|  0.17780
USER: genes 6 Torsion [N]-CA--C-[OXT] |==|  0.12945
ROOT
ATOM      1  CA  GLY P 572      35.430  74.000  92.210  0.73  6.50 LIG 0.23  C 
ENDROOT
BRANCH 1 2
ATOM      2  N   GLY P 572      34.159  74.231  91.539  0.73  9.23 LIG-0.35  N 
ATOM      3  C   PRO P 571      33.351  73.265  91.082  0.73  8.22 LIG 0.25  C 
ATOM      4 O    PRO P 571      33.557  72.057  91.216  0.73  7.23 LIG-0.27  OA
ATOM      5 H    GLY P 572      33.969  75.066  91.460  0.73  9.23 LIG 0.16  HD
BRANCH 3 6
ATOM      6  CA  PRO P 571      32.073  73.754  90.389  0.73  9.03 LIG 0.35  C 
ATOM      7  N   PRO P 571      32.335  74.379  89.052  0.73 10.09 LIG 0.32  N 
ATOM      8  CD  PRO P 571      31.303  73.728  88.218  0.73  9.16 LIG 0.32  C 
ATOM      9  CG  PRO P 571      30.265  73.117  89.166  0.73  9.15 LIG 0.04  C 
ATOM     10  CB  PRO P 571      31.080  72.607  90.220  0.73  9.69 LIG 0.05  C 
ENDBRANCH 3 6
ENDBRANCH 1 2
BRANCH 1 11
ATOM     11  C   GLY P 572      36.435  73.820  91.074  0.73  5.30 LIG 0.24  C 
ATOM     12  N   ALA P 573      35.917  73.985  89.859  0.73  5.43 LIG-0.35  N 
ATOM     13 H    ALA P 573      35.084  74.156  89.730  0.73  5.43 LIG 0.16  HD
ATOM     14 O    GLY P 572      37.607  73.492  91.275  0.73  3.60 LIG-0.27  OA
BRANCH 12 15
ATOM     15  CA  ALA P 573      36.683  73.901  88.624  0.73  6.34 LIG 0.18  C 
ATOM     16  CB  ALA P 573      37.231  72.507  88.436  0.73  5.76 LIG 0.04  C 
BRANCH 15 17
ATOM     17  C   ALA P 573      35.721  74.242  87.487  0.73  7.45 LIG 0.20  C 
ATOM     18 OXT  ALA P 573      34.982  75.241  87.608  0.73  4.81 LIG-0.65  OA
ATOM     19 O    ALA P 573      35.732  73.506  86.476  0.73  9.82 LIG-0.65  OA
ENDBRANCH 15 17
ENDBRANCH 12 15
ENDBRANCH 1 11
TORSDOF 5
ENDMDL
MODEL 3
USER: ADFR SOLUTION from run 193
USER: SCORE 7.129952 LL:  -1.623 LR:  -5.989 RR:   0.000 FEB:  -4.498
USER: RMSD 2.149684
USER: SEED 192
USER: STATUS 1 or 2 clusters left
USER: GENES 7
USER: genes 0 Translation |==|  0.69535 0.44460 0.68416
USER: genes 1 Rotation |==|  0.56405 0.61116 0.58825 0.97513
USER: genes 2 Torsion [C]-CA--N-[C] |==|  0.25372
USER: genes 3 Torsion [N]-C--CA-[N] |==|  0.41647
USER: genes 4 Torsion [N]-CA--C-[N] |==|  0.85000
USER: genes 5 Torsion [C]-N--CA-[CB] |==|  0.35580
USER: genes 6 Torsion [N]-CA--C-[OXT] |==|  0.49755
ROOT
ATOM      1  CA  GLY P 572      36.330  72.036  92.337  0.73  6.50 LIG 0.23  C 
ENDROOT
BRANCH 1 2
ATOM      2  N   GLY P 572      34.914  71.770  92.130  0.73  9.23 LIG-0.35  N 
ATOM      3  C   PRO P 571      34.425  70.869  91.268  0.73  8.22 LIG 0.25  C 
ATOM      4 O    PRO P 571      35.112  70.116  90.575  0.73  7.23 LIG-0.27  OA
ATOM      5 H    GLY P 572      34.406  72.256  92.625  0.73  9.23 LIG 0.16  HD
BRANCH 3 6
ATOM      6  CA  PRO P 571      32.894  70.783  91.209  0.73  9.03 LIG 0.35  C 
ATOM      7  N   PRO P 571      32.382  70.375  89.861  0.73 10.09 LIG 0.32  N 
ATOM      8  CD  PRO P 571      31.395  69.337  90.225  0.73  9.16 LIG 0.32  C 
ATOM      9  CG  PRO P 571      31.086  69.501  91.719  0.73  9.15 LIG 0.04  C 
ATOM     10  CB  PRO P 571      32.369  69.808  92.261  0.73  9.69 LIG 0.05  C 
ENDBRANCH 3 6
ENDBRANCH 1 2
BRANCH 1 11
ATOM     11  C   GLY P 572      36.654  73.163  91.359  0.73  5.30 LIG 0.24  C 
ATOM     12  N   ALA P 573      36.316  72.903  90.098  0.73  5.43 LIG-0.35  N 
ATOM     13 H    ALA P 573      35.968  72.154  89.857  0.73  5.43 LIG 0.16  HD
ATOM     14 O    GLY P 572      37.232  74.195  91.710  0.73  3.60 LIG-0.27  OA
BRANCH 12 15
ATOM     15  CA  ALA P 573      36.491  73.835  88.994  0.73  6.34 LIG 0.18  C 
ATOM     16  CB  ALA P 573      37.232  73.175  87.857  0.73  5.76 LIG 0.04  C 
BRANCH 15 17
ATOM     17  C   ALA P 573      35.091  74.243  88.539  0.73  7.45 LIG 0.20  C 
ATOM     18 OXT  ALA P 573      34.982  75.061  87.601  0.73  4.81 LIG-0.65  OA
ATOM     19 O    ALA P 573      34.115  73.723  89.122  0.73  9.82 LIG-0.65  OA
ENDBRANCH 15 17
ENDBRANCH 12 15
ENDBRANCH 1 11
TORSDOF 5
ENDMDL
MODEL 4
USER: ADFR SOLUTION from run 58
USER: SCORE 6.566141 LL:  -1.048 LR:  -5.796 RR:   0.000 FEB:  -4.305
USER: RMSD 3.428795
USER: SEED 57
USER: STATUS no improvement in best in 13 clusters for 5 generations
USER: GENES 7
USER: genes 0 Translation |==|  0.52031 0.29414 0.70462
USER: genes 1 Rotation |==|  0.74157 0.48252 0.51587 0.93714
USER: genes 2 Torsion [C]-CA--N-[C] |==|  0.46301
USER: genes 3 Torsion [N]-C--CA-[N] |==|  0.38281
USER: genes 4 Torsion [N]-CA--C-[N] |==|  0.53333
USER: genes 5 Torsion [C]-N--CA-[CB] |==|  0.43253
USER: genes 6 Torsion [N]-CA--C-[OXT] |==|  0.36466
ROOT
ATOM      1  CA  GLY P 572      33.442  70.117  92.613  0.73  6.50 LIG 0.23  C 
ENDROOT
BRANCH 1 2
ATOM      2  N   GLY P 572      32.250  70.813  92.152  0.73  9.23 LIG-0.35  N 
ATOM      3  C   PRO P 571      31.162  70.214  91.649  0.73  8.22 LIG 0.25  C 
ATOM      4 O    PRO P 571      31.013  68.993  91.560  0.73  7.23 LIG-0.27  OA
ATOM      5 H    GLY P 572      32.309  71.668  92.233  0.73  9.23 LIG 0.16  HD
BRANCH 3 6
ATOM      6  CA  PRO P 571      30.038  71.160  91.208  0.73  9.03 LIG 0.35  C 
ATOM      7  N   PRO P 571      29.414  70.759  89.906  0.73 10.09 LIG 0.32  N 
ATOM      8  CD  PRO P 571      27.976  70.867  90.226  0.73  9.16 LIG 0.32  C 
ATOM      9  CG  PRO P 571      27.851  71.707  91.503  0.73  9.15 LIG 0.04  C 
ATOM     10  CB  PRO P 571      28.953  71.243  92.280  0.73  9.69 LIG 0.05  C 
ENDBRANCH 3 6
ENDBRANCH 1 2
BRANCH 1 11
ATOM     11  C   GLY P 572      34.492  71.216  92.762  0.73  5.30 LIG 0.24  C 
ATOM     12  N   ALA P 573      35.732  70.764  92.935  0.73  5.43 LIG-0.35  N 
ATOM     13 H    ALA P 573      35.916  69.925  92.981  0.73  5.43 LIG 0.16  HD
ATOM     14 O    GLY P 572      34.196  72.414  92.778  0.73  3.60 LIG-0.27  OA
BRANCH 12 15
ATOM     15  CA  ALA P 573      36.905  71.617  93.062  0.73  6.34 LIG 0.18  C 
ATOM     16  CB  ALA P 573      38.001  70.899  93.811  0.73  5.76 LIG 0.04  C 
BRANCH 15 17
ATOM     17  C   ALA P 573      37.367  71.943  91.644  0.73  7.45 LIG 0.20  C 
ATOM     18 OXT  ALA P 573      37.607  73.133  91.351  0.73  4.81 LIG-0.65  OA
ATOM     19 O    ALA P 573      37.499  70.991  90.842  0.73  9.82 LIG-0.65  OA
ENDBRANCH 15 17
ENDBRANCH 12 15
ENDBRANCH 1 11
TORSDOF 5
ENDMDL
MODEL 5
USER: ADFR SOLUTION from run 110
USER: SCORE 7.014524 LL:  -1.318 LR:  -5.760 RR:   0.000 FEB:  -4.269
USER: RMSD 3.424520
USER: SEED 109
USER: STATUS no improvement in best in 21 clusters for 5 generations
USER: GENES 7
USER: genes 0 Translation |==|  0.51437 0.54145 0.32594
USER: genes 1 Rotation |==|  0.94970 0.68502 0.50003 0.61634
USER: genes 2 Torsion [C]-CA--N-[C] |==|  0.20820
USER: genes 3 Torsion [N]-C--CA-[N] |==|  0.68009
USER: genes 4 Torsion [N]-CA--C-[N] |==|  0.08319
USER: genes 5 Torsion [C]-N--CA-[CB] |==|  0.36704
USER: genes 6 Torsion [N]-CA--C-[OXT] |==|  0.48516
ROOT
ATOM      1  CA  GLY P 572      33.344  73.270  87.501  0.73  6.50 LIG 0.23  C 
ENDROOT
BRANCH 1 2
ATOM      2  N   GLY P 572      32.383  72.743  88.458  0.73  9.23 LIG-0.35  N 
ATOM      3  C   PRO P 571      31.472  73.477  89.109  0.73  8.22 LIG 0.25  C 
ATOM      4 O    PRO P 571      31.298  74.686  88.944  0.73  7.23 LIG-0.27  OA
ATOM      5 H    GLY P 572      32.455  71.893  88.571  0.73  9.23 LIG 0.16  HD
BRANCH 3 6
ATOM      6  CA  PRO P 571      30.580  72.700  90.087  0.73  9.03 LIG 0.35  C 
ATOM      7  N   PRO P 571      29.138  72.691  89.683  0.73 10.09 LIG 0.32  N 
ATOM      8  CD  PRO P 571      28.796  71.263  89.851  0.73  9.16 LIG 0.32  C 
ATOM      9  CG  PRO P 571      29.888  70.629  90.722  0.73  9.15 LIG 0.04  C 
ATOM     10  CB  PRO P 571      31.069  71.261  90.233  0.73  9.69 LIG 0.05  C 
ENDBRANCH 3 6
ENDBRANCH 1 2
BRANCH 1 11
ATOM     11  C   GLY P 572      34.388  73.981  88.361  0.73  5.30 LIG 0.24  C 
ATOM     12  N   ALA P 573      34.546  73.453  89.571  0.73  5.43 LIG-0.35  N 
ATOM     13 H    ALA P 573      34.083  72.784  89.849  0.73  5.43 LIG 0.16  HD
ATOM     14 O    GLY P 572      34.982  74.992  87.976  0.73  3.60 LIG-0.27  OA
BRANCH 12 15
ATOM     15  CA  ALA P 573      35.507  73.932  90.555  0.73  6.34 LIG 0.18  C 
ATOM     16  CB  ALA P 573      34.846  74.097  91.902  0.73  5.76 LIG 0.04  C 
BRANCH 15 17
ATOM     17  C   ALA P 573      36.610  72.880  90.640  0.73  7.45 LIG 0.20  C 
ATOM     18 OXT  ALA P 573      37.609  73.117  91.351  0.73  4.81 LIG-0.65  OA
ATOM     19 O    ALA P 573      36.452  71.817  89.999  0.73  9.82 LIG-0.65  OA
ENDBRANCH 15 17
ENDBRANCH 12 15
ENDBRANCH 1 11
TORSDOF 5
ENDMDL
MODEL 6
USER: ADFR SOLUTION from run 66
USER: SCORE 7.293427 LL:  -1.665 LR:  -5.707 RR:   0.000 FEB:  -4.215
USER: RMSD 4.211179
USER: SEED 65
USER: STATUS no improvement in best in 11 clusters for 5 generations
USER: GENES 7
USER: genes 0 Translation |==|  0.58721 0.61648 0.61415
USER: genes 1 Rotation |==|  0.25531 0.32128 0.41818 0.88922
USER: genes 2 Torsion [C]-CA--N-[C] |==|  0.78818
USER: genes 3 Torsion [N]-C--CA-[N] |==|  0.31846
USER: genes 4 Torsion [N]-CA--C-[N] |==|  0.91266
USER: genes 5 Torsion [C]-N--CA-[CB] |==|  0.24293
USER: genes 6 Torsion [N]-CA--C-[OXT] |==|  0.45196
ROOT
ATOM      1  CA  GLY P 572      34.546  74.227  91.392  0.73  6.50 LIG 0.23  C 
ENDROOT
BRANCH 1 2
ATOM      2  N   GLY P 572      34.076  73.451  90.254  0.73  9.23 LIG-0.35  N 
ATOM      3  C   PRO P 571      34.342  73.737  88.973  0.73  8.22 LIG 0.25  C 
ATOM      4 O    PRO P 571      35.060  74.665  88.596  0.73  7.23 LIG-0.27  OA
ATOM      5 H    GLY P 572      33.599  72.773  90.485  0.73  9.23 LIG 0.16  HD
BRANCH 3 6
ATOM      6  CA  PRO P 571      33.717  72.784  87.945  0.73  9.03 LIG 0.35  C 
ATOM      7  N   PRO P 571      32.694  73.450  87.076  0.73 10.09 LIG 0.32  N 
ATOM      8  CD  PRO P 571      33.096  72.975  85.736  0.73  9.16 LIG 0.32  C 
ATOM      9  CG  PRO P 571      34.019  71.766  85.934  0.73  9.15 LIG 0.04  C 
ATOM     10  CB  PRO P 571      34.797  72.162  87.062  0.73  9.69 LIG 0.05  C 
ENDBRANCH 3 6
ENDBRANCH 1 2
BRANCH 1 11
ATOM     11  C   GLY P 572      36.016  73.841  91.537  0.73  5.30 LIG 0.24  C 
ATOM     12  N   ALA P 573      36.290  72.592  91.166  0.73  5.43 LIG-0.35  N 
ATOM     13 H    ALA P 573      35.683  72.047  90.892  0.73  5.43 LIG 0.16  HD
ATOM     14 O    GLY P 572      36.857  74.609  92.012  0.73  3.60 LIG-0.27  OA
BRANCH 12 15
ATOM     15  CA  ALA P 573      37.623  72.007  91.178  0.73  6.34 LIG 0.18  C 
ATOM     16  CB  ALA P 573      37.926  71.410  92.532  0.73  5.76 LIG 0.04  C 
BRANCH 15 17
ATOM     17  C   ALA P 573      37.632  70.914  90.112  0.73  7.45 LIG 0.20  C 
ATOM     18 OXT  ALA P 573      38.732  70.489  89.700  0.73  4.81 LIG-0.65  OA
ATOM     19 O    ALA P 573      36.528  70.484  89.709  0.73  9.82 LIG-0.65  OA
ENDBRANCH 15 17
ENDBRANCH 12 15
ENDBRANCH 1 11
TORSDOF 5
ENDMDL
MODEL 7
USER: ADFR SOLUTION from run 46
USER: SCORE 7.135480 LL:  -1.502 LR:  -5.680 RR:   0.000 FEB:  -4.189
USER: RMSD 4.216533
USER: SEED 45
USER: STATUS no improvement in best in 8 clusters for 5 generations
USER: GENES 7
USER: genes 0 Translation |==|  0.67256 0.38477 0.63524
USER: genes 1 Rotation |==|  0.50349 0.41203 0.70242 0.94864
USER: genes 2 Torsion [C]-CA--N-[C] |==|  0.18904
USER: genes 3 Torsion [N]-C--CA-[N] |==|  0.25215
USER: genes 4 Torsion [N]-CA--C-[N] |==|  0.04655
USER: genes 5 Torsion [C]-N--CA-[CB] |==|  0.28361
USER: genes 6 Torsion [N]-CA--C-[OXT] |==|  0.56501
ROOT
ATOM      1  CA  GLY P 572      35.954  71.273  91.677  0.73  6.50 LIG 0.23  C 
ENDROOT
BRANCH 1 2
ATOM      2  N   GLY P 572      35.397  70.576  90.527  0.73  9.23 LIG-0.35  N 
ATOM      3  C   PRO P 571      36.113  70.117  89.492  0.73  8.22 LIG 0.25  C 
ATOM      4 O    PRO P 571      37.341  70.182  89.405  0.73  7.23 LIG-0.27  OA
ATOM      5 H    GLY P 572      34.543  70.483  90.573  0.73  9.23 LIG 0.16  HD
BRANCH 3 6
ATOM      6  CA  PRO P 571      35.300  69.434  88.384  0.73  9.03 LIG 0.35  C 
ATOM      7  N   PRO P 571      34.859  70.383  87.313  0.73 10.09 LIG 0.32  N 
ATOM      8  CD  PRO P 571      35.213  69.630  86.091  0.73  9.16 LIG 0.32  C 
ATOM      9  CG  PRO P 571      35.429  68.168  86.500  0.73  9.15 LIG 0.04  C 
ATOM     10  CB  PRO P 571      36.102  68.299  87.750  0.73  9.69 LIG 0.05  C 
ENDBRANCH 3 6
ENDBRANCH 1 2
BRANCH 1 11
ATOM     11  C   GLY P 572      36.441  72.607  91.116  0.73  5.30 LIG 0.24  C 
ATOM     12  N   ALA P 573      35.937  72.912  89.922  0.73  5.43 LIG-0.35  N 
ATOM     13 H    ALA P 573      35.403  72.388  89.498  0.73  5.43 LIG 0.16  HD
ATOM     14 O    GLY P 572      37.274  73.305  91.701  0.73  3.60 LIG-0.27  OA
BRANCH 12 15
ATOM     15  CA  ALA P 573      36.222  74.145  89.203  0.73  6.34 LIG 0.18  C 
ATOM     16  CB  ALA P 573      37.232  73.897  88.109  0.73  5.76 LIG 0.04  C 
BRANCH 15 17
ATOM     17  C   ALA P 573      34.901  74.616  88.598  0.73  7.45 LIG 0.20  C 
ATOM     18 OXT  ALA P 573      34.934  75.367  87.601  0.73  4.81 LIG-0.65  OA
ATOM     19 O    ALA P 573      33.842  74.211  89.126  0.73  9.82 LIG-0.65  OA
ENDBRANCH 15 17
ENDBRANCH 12 15
ENDBRANCH 1 11
TORSDOF 5
ENDMDL
MODEL 8
USER: ADFR SOLUTION from run 155
USER: SCORE 7.579960 LL:  -1.898 LR:  -5.682 RR:   0.000 FEB:  -4.191
USER: RMSD 5.088781
USER: SEED 154
USER: STATUS no improvement in best in 22 clusters for 5 generations
USER: GENES 7
USER: genes 0 Translation |==|  0.45856 0.61911 0.50103
USER: genes 1 Rotation |==|  0.35989 0.12452 0.39450 0.77974
USER: genes 2 Torsion [C]-CA--N-[C] |==|  0.76294
USER: genes 3 Torsion [N]-C--CA-[N] |==|  0.61953
USER: genes 4 Torsion [N]-CA--C-[N] |==|  0.99784
USER: genes 5 Torsion [C]-N--CA-[CB] |==|  0.22041
USER: genes 6 Torsion [N]-CA--C-[OXT] |==|  0.62898
ROOT
ATOM      1  CA  GLY P 572      32.423  74.261  89.865  0.73  6.50 LIG 0.23  C 
ENDROOT
BRANCH 1 2
ATOM      2  N   GLY P 572      33.320  73.599  88.929  0.73  9.23 LIG-0.35  N 
ATOM      3  C   PRO P 571      34.239  74.223  88.180  0.73  8.22 LIG 0.25  C 
ATOM      4 O    PRO P 571      34.475  75.432  88.225  0.73  7.23 LIG-0.27  OA
ATOM      5 H    GLY P 572      33.204  72.747  88.899  0.73  9.23 LIG 0.16  HD
BRANCH 3 6
ATOM      6  CA  PRO P 571      35.053  73.315  87.249  0.73  9.03 LIG 0.35  C 
ATOM      7  N   PRO P 571      36.514  73.646  87.240  0.73 10.09 LIG 0.32  N 
ATOM      8  CD  PRO P 571      37.118  72.305  87.381  0.73  9.16 LIG 0.32  C 
ATOM      9  CG  PRO P 571      36.035  71.275  87.040  0.73  9.15 LIG 0.04  C 
ATOM     10  CB  PRO P 571      34.873  71.849  87.636  0.73  9.69 LIG 0.05  C 
ENDBRANCH 3 6
ENDBRANCH 1 2
BRANCH 1 11
ATOM     11  C   GLY P 572      33.231  74.367  91.157  0.73  5.30 LIG 0.24  C 
ATOM     12  N   ALA P 573      34.451  73.842  91.080  0.73  5.43 LIG-0.35  N 
ATOM     13 H    ALA P 573      34.745  73.456  90.370  0.73  5.43 LIG 0.16  HD
ATOM     14 O    GLY P 572      32.760  74.848  92.191  0.73  3.60 LIG-0.27  OA
BRANCH 12 15
ATOM     15  CA  ALA P 573      35.418  73.856  92.168  0.73  6.34 LIG 0.18  C 
ATOM     16  CB  ALA P 573      35.103  72.772  93.170  0.73  5.76 LIG 0.04  C 
BRANCH 15 17
ATOM     17  C   ALA P 573      36.788  73.605  91.541  0.73  7.45 LIG 0.20  C 
ATOM     18 OXT  ALA P 573      37.547  72.769  92.075  0.73  4.81 LIG-0.65  OA
ATOM     19 O    ALA P 573      37.079  74.243  90.505  0.73  9.82 LIG-0.65  OA
ENDBRANCH 15 17
ENDBRANCH 12 15
ENDBRANCH 1 11
TORSDOF 5
ENDMDL
MODEL 9
USER: ADFR SOLUTION from run 53
USER: SCORE 6.533301 LL:  -1.145 LR:  -5.671 RR:   0.000 FEB:  -4.179
USER: RMSD 3.388029
USER: SEED 52
USER: STATUS no improvement in best in 10 clusters for 5 generations
USER: GENES 7
USER: genes 0 Translation |==|  0.47904 0.64578 0.66760
USER: genes 1 Rotation |==|  0.12252 0.45942 0.35158 0.78954
USER: genes 2 Torsion [C]-CA--N-[C] |==|  0.30916
USER: genes 3 Torsion [N]-C--CA-[N] |==|  0.00902
USER: genes 4 Torsion [N]-CA--C-[N] |==|  0.38353
USER: genes 5 Torsion [C]-N--CA-[CB] |==|  0.16626
USER: genes 6 Torsion [N]-CA--C-[OXT] |==|  0.50257
ROOT
ATOM      1  CA  GLY P 572      32.761  74.601  92.114  0.73  6.50 LIG 0.23  C 
ENDROOT
BRANCH 1 2
ATOM      2  N   GLY P 572      31.535  74.106  91.506  0.73  9.23 LIG-0.35  N 
ATOM      3  C   PRO P 571      30.336  74.097  92.103  0.73  8.22 LIG 0.25  C 
ATOM      4 O    PRO P 571      30.109  74.554  93.225  0.73  7.23 LIG-0.27  OA
ATOM      5 H    GLY P 572      31.653  73.810  90.706  0.73  9.23 LIG 0.16  HD
BRANCH 3 6
ATOM      6  CA  PRO P 571      29.192  73.504  91.269  0.73  9.03 LIG 0.35  C 
ATOM      7  N   PRO P 571      29.651  72.965  89.948  0.73 10.09 LIG 0.32  N 
ATOM      8  CD  PRO P 571      28.973  71.652  89.918  0.73  9.16 LIG 0.32  C 
ATOM      9  CG  PRO P 571      27.862  71.684  90.974  0.73  9.15 LIG 0.04  C 
ATOM     10  CB  PRO P 571      28.481  72.397  92.043  0.73  9.69 LIG 0.05  C 
ENDBRANCH 3 6
ENDBRANCH 1 2
BRANCH 1 11
ATOM     11  C   GLY P 572      33.613  73.351  92.328  0.73  5.30 LIG 0.24  C 
ATOM     12  N   ALA P 573      34.898  73.511  92.025  0.73  5.43 LIG-0.35  N 
ATOM     13 H    ALA P 573      35.213  74.248  91.713  0.73  5.43 LIG 0.16  HD
ATOM     14 O    GLY P 572      33.128  72.277  92.695  0.73  3.60 LIG-0.27  OA
BRANCH 12 15
ATOM     15  CA  ALA P 573      35.911  72.477  92.181  0.73  6.34 LIG 0.18  C 
ATOM     16  CB  ALA P 573      35.565  71.267  91.347  0.73  5.76 LIG 0.04  C 
BRANCH 15 17
ATOM     17  C   ALA P 573      37.231  73.079  91.704  0.73  7.45 LIG 0.20  C 
ATOM     18 OXT  ALA P 573      38.257  72.367  91.726  0.73  4.81 LIG-0.65  OA
ATOM     19 O    ALA P 573      37.217  74.262  91.297  0.73  9.82 LIG-0.65  OA
ENDBRANCH 15 17
ENDBRANCH 12 15
ENDBRANCH 1 11
TORSDOF 5
ENDMDL
MODEL 10
USER: ADFR SOLUTION from run 123
USER: SCORE 6.087397 LL:  -1.050 LR:  -5.600 RR:   0.000 FEB:  -4.108
USER: RMSD 2.979346
USER: SEED 122
USER: STATUS no improvement in best in 15 clusters for 5 generations
USER: GENES 7
USER: genes 0 Translation |==|  0.50330 0.29412 0.62389
USER: genes 1 Rotation |==|  0.54735 0.55757 0.40134 0.98447
USER: genes 2 Torsion [C]-CA--N-[C] |==|  0.31557
USER: genes 3 Torsion [N]-C--CA-[N] |==|  0.51436
USER: genes 4 Torsion [N]-CA--C-[N] |==|  0.24519
USER: genes 5 Torsion [C]-N--CA-[CB] |==|  0.34784
USER: genes 6 Torsion [N]-CA--C-[OXT] |==|  0.22664
ROOT
ATOM      1  CA  GLY P 572      33.161  70.117  91.524  0.73  6.50 LIG 0.23  C 
ENDROOT
BRANCH 1 2
ATOM      2  N   GLY P 572      31.961  70.816  91.089  0.73  9.23 LIG-0.35  N 
ATOM      3  C   PRO P 571      30.844  70.218  90.653  0.73  8.22 LIG 0.25  C 
ATOM      4 O    PRO P 571      30.673  68.998  90.612  0.73  7.23 LIG-0.27  OA
ATOM      5 H    GLY P 572      32.035  71.672  91.139  0.73  9.23 LIG 0.16  HD
BRANCH 3 6
ATOM      6  CA  PRO P 571      29.716  71.167  90.228  0.73  9.03 LIG 0.35  C 
ATOM      7  N   PRO P 571      28.452  70.448  89.868  0.73 10.09 LIG 0.32  N 
ATOM      8  CD  PRO P 571      27.445  71.242  90.601  0.73  9.16 LIG 0.32  C 
ATOM      9  CG  PRO P 571      28.098  72.578  90.976  0.73  9.15 LIG 0.04  C 
ATOM     10  CB  PRO P 571      29.420  72.179  91.332  0.73  9.69 LIG 0.05  C 
ENDBRANCH 3 6
ENDBRANCH 1 2
BRANCH 1 11
ATOM     11  C   GLY P 572      34.216  70.485  90.482  0.73  5.30 LIG 0.24  C 
ATOM     12  N   ALA P 573      34.887  71.600  90.758  0.73  5.43 LIG-0.35  N 
ATOM     13 H    ALA P 573      34.722  72.081  91.452  0.73  5.43 LIG 0.16  HD
ATOM     14 O    GLY P 572      34.380  69.830  89.449  0.73  3.60 LIG-0.27  OA
BRANCH 12 15
ATOM     15  CA  ALA P 573      35.964  72.133  89.936  0.73  6.34 LIG 0.18  C 
ATOM     16  CB  ALA P 573      35.674  73.563  89.547  0.73  5.76 LIG 0.04  C 
BRANCH 15 17
ATOM     17  C   ALA P 573      37.235  72.069  90.781  0.73  7.45 LIG 0.20  C 
ATOM     18 OXT  ALA P 573      37.851  70.985  90.853  0.73  4.81 LIG-0.65  OA
ATOM     19 O    ALA P 573      37.607  73.117  91.352  0.73  9.82 LIG-0.65  OA
ENDBRANCH 15 17
ENDBRANCH 12 15
ENDBRANCH 1 11
TORSDOF 5
ENDMDL
MODEL 11
USER: ADFR SOLUTION from run 57
USER: SCORE 6.528178 LL:  -1.091 LR:  -5.519 RR:   0.000 FEB:  -4.027
USER: RMSD 2.571035
USER: SEED 56
USER: STATUS no improvement in best in 20 clusters for 5 generations
USER: GENES 7
USER: genes 0 Translation |==|  0.65077 0.60374 0.69351
USER: genes 1 Rotation |==|  0.33913 0.56395 0.37097 0.95098
USER: genes 2 Torsion [C]-CA--N-[C] |==|  0.28834
USER: genes 3 Torsion [N]-C--CA-[N] |==|  0.16648
USER: genes 4 Torsion [N]-CA--C-[N] |==|  0.95000
USER: genes 5 Torsion [C]-N--CA-[CB] |==|  0.85845
USER: genes 6 Torsion [N]-CA--C-[OXT] |==|  0.19590
ROOT
ATOM      1  CA  GLY P 572      35.595  74.065  92.463  0.73  6.50 LIG 0.23  C 
ENDROOT
BRANCH 1 2
ATOM      2  N   GLY P 572      34.299  74.377  91.879  0.73  9.23 LIG-0.35  N 
ATOM      3  C   PRO P 571      33.176  73.678  92.093  0.73  8.22 LIG 0.25  C 
ATOM      4 O    PRO P 571      33.087  72.710  92.852  0.73  7.23 LIG-0.27  OA
ATOM      5 H    GLY P 572      34.319  75.069  91.369  0.73  9.23 LIG 0.16  HD
BRANCH 3 6
ATOM      6  CA  PRO P 571      31.935  74.187  91.348  0.73  9.03 LIG 0.35  C 
ATOM      7  N   PRO P 571      32.103  74.180  89.859  0.73 10.09 LIG 0.32  N 
ATOM      8  CD  PRO P 571      30.836  73.556  89.425  0.73  9.16 LIG 0.32  C 
ATOM      9  CG  PRO P 571      29.859  73.631  90.605  0.73  9.15 LIG 0.04  C 
ATOM     10  CB  PRO P 571      30.708  73.357  91.719  0.73  9.69 LIG 0.05  C 
ENDBRANCH 3 6
ENDBRANCH 1 2
BRANCH 1 11
ATOM     11  C   GLY P 572      36.383  73.422  91.324  0.73  5.30 LIG 0.24  C 
ATOM     12  N   ALA P 573      35.628  72.986  90.319  0.73  5.43 LIG-0.35  N 
ATOM     13 H    ALA P 573      34.770  73.042  90.326  0.73  5.43 LIG 0.16  HD
ATOM     14 O    GLY P 572      37.607  73.274  91.370  0.73  3.60 LIG-0.27  OA
BRANCH 12 15
ATOM     15  CA  ALA P 573      36.152  72.373  89.107  0.73  6.34 LIG 0.18  C 
ATOM     16  CB  ALA P 573      37.231  73.238  88.501  0.73  5.76 LIG 0.04  C 
BRANCH 15 17
ATOM     17  C   ALA P 573      36.733  71.021  89.514  0.73  7.45 LIG 0.20  C 
ATOM     18 OXT  ALA P 573      35.948  70.109  89.850  0.73  4.81 LIG-0.65  OA
ATOM     19 O    ALA P 573      37.976  70.887  89.477  0.73  9.82 LIG-0.65  OA
ENDBRANCH 15 17
ENDBRANCH 12 15
ENDBRANCH 1 11
TORSDOF 5
ENDMDL
MODEL 12
USER: ADFR SOLUTION from run 6
USER: SCORE 6.975130 LL:  -1.508 LR:  -5.498 RR:   0.000 FEB:  -4.006
USER: RMSD 3.295679
USER: SEED 706304
USER: STATUS no improvement in best in 19 clusters for 5 generations
USER: GENES 7
USER: genes 0 Translation |==|  0.58698 0.58171 0.66561
USER: genes 1 Rotation |==|  0.16431 0.35067 0.52705 0.83806
USER: genes 2 Torsion [C]-CA--N-[C] |==|  0.25848
USER: genes 3 Torsion [N]-C--CA-[N] |==|  0.54786
USER: genes 4 Torsion [N]-CA--C-[N] |==|  0.97223
USER: genes 5 Torsion [C]-N--CA-[CB] |==|  0.28231
USER: genes 6 Torsion [N]-CA--C-[OXT] |==|  0.47309
ROOT
ATOM      1  CA  GLY P 572      34.542  73.784  92.087  0.73  6.50 LIG 0.23  C 
ENDROOT
BRANCH 1 2
ATOM      2  N   GLY P 572      33.961  72.518  91.667  0.73  9.23 LIG-0.35  N 
ATOM      3  C   PRO P 571      33.654  71.507  92.491  0.73  8.22 LIG 0.25  C 
ATOM      4 O    PRO P 571      33.780  71.540  93.717  0.73  7.23 LIG-0.27  OA
ATOM      5 H    GLY P 572      33.828  72.475  90.818  0.73  9.23 LIG 0.16  HD
BRANCH 3 6
ATOM      6  CA  PRO P 571      33.071  70.261  91.812  0.73  9.03 LIG 0.35  C 
ATOM      7  N   PRO P 571      32.375  69.344  92.771  0.73 10.09 LIG 0.32  N 
ATOM      8  CD  PRO P 571      31.120  69.060  92.045  0.73  9.16 LIG 0.32  C 
ATOM      9  CG  PRO P 571      31.335  69.460  90.580  0.73  9.15 LIG 0.04  C 
ATOM     10  CB  PRO P 571      32.099  70.658  90.703  0.73  9.69 LIG 0.05  C 
ENDBRANCH 3 6
ENDBRANCH 1 2
BRANCH 1 11
ATOM     11  C   GLY P 572      36.048  73.580  91.938  0.73  5.30 LIG 0.24  C 
ATOM     12  N   ALA P 573      36.406  72.322  91.697  0.73  5.43 LIG-0.35  N 
ATOM     13 H    ALA P 573      35.836  71.679  91.653  0.73  5.43 LIG 0.16  HD
ATOM     14 O    GLY P 572      36.857  74.500  92.089  0.73  3.60 LIG-0.27  OA
BRANCH 12 15
ATOM     15  CA  ALA P 573      37.778  71.887  91.481  0.73  6.34 LIG 0.18  C 
ATOM     16  CB  ALA P 573      38.331  71.241  92.728  0.73  5.76 LIG 0.04  C 
BRANCH 15 17
ATOM     17  C   ALA P 573      37.743  70.872  90.339  0.73  7.45 LIG 0.20  C 
ATOM     18 OXT  ALA P 573      38.825  70.490  89.846  0.73  4.81 LIG-0.65  OA
ATOM     19 O    ALA P 573      36.624  70.460  89.962  0.73  9.82 LIG-0.65  OA
ENDBRANCH 15 17
ENDBRANCH 12 15
ENDBRANCH 1 11
TORSDOF 5
ENDMDL
MODEL 13
USER: ADFR SOLUTION from run 156
USER: SCORE 6.593301 LL:  -1.206 LR:  -5.442 RR:   0.000 FEB:  -3.951
USER: RMSD 3.378866
USER: SEED 155
USER: STATUS no improvement in best in 20 clusters for 5 generations
USER: GENES 7
USER: genes 0 Translation |==|  0.62240 0.63958 0.34749
USER: genes 1 Rotation |==|  0.00330 0.55337 0.49363 0.51999
USER: genes 2 Torsion [C]-CA--N-[C] |==|  0.72427
USER: genes 3 Torsion [N]-C--CA-[N] |==|  0.49098
USER: genes 4 Torsion [N]-CA--C-[N] |==|  0.01191
USER: genes 5 Torsion [C]-N--CA-[CB] |==|  0.84780
USER: genes 6 Torsion [N]-CA--C-[OXT] |==|  0.57802
ROOT
ATOM      1  CA  GLY P 572      35.127  74.522  87.792  0.73  6.50 LIG 0.23  C 
ENDROOT
BRANCH 1 2
ATOM      2  N   GLY P 572      33.895  74.634  88.560  0.73  9.23 LIG-0.35  N 
ATOM      3  C   PRO P 571      32.784  73.922  88.330  0.73  8.22 LIG 0.25  C 
ATOM      4 O    PRO P 571      32.679  73.045  87.471  0.73  7.23 LIG-0.27  OA
ATOM      5 H    GLY P 572      33.947  75.216  89.192  0.73  9.23 LIG 0.16  HD
BRANCH 3 6
ATOM      6  CA  PRO P 571      31.603  74.233  89.259  0.73  9.03 LIG 0.35  C 
ATOM      7  N   PRO P 571      30.366  73.464  88.908  0.73 10.09 LIG 0.32  N 
ATOM      8  CD  PRO P 571      29.943  72.970  90.235  0.73  9.16 LIG 0.32  C 
ATOM      9  CG  PRO P 571      30.678  73.804  91.291  0.73  9.15 LIG 0.04  C 
ATOM     10  CB  PRO P 571      31.974  73.950  90.713  0.73  9.69 LIG 0.05  C 
ENDBRANCH 3 6
ENDBRANCH 1 2
BRANCH 1 11
ATOM     11  C   GLY P 572      36.025  73.624  88.641  0.73  5.30 LIG 0.24  C 
ATOM     12  N   ALA P 573      35.437  73.144  89.734  0.73  5.43 LIG-0.35  N 
ATOM     13 H    ALA P 573      34.629  73.344  89.951  0.73  5.43 LIG 0.16  HD
ATOM     14 O    GLY P 572      37.208  73.417  88.357  0.73  3.60 LIG-0.27  OA
BRANCH 12 15
ATOM     15  CA  ALA P 573      36.077  72.239  90.677  0.73  6.34 LIG 0.18  C 
ATOM     16  CB  ALA P 573      36.601  71.016  89.964  0.73  5.76 LIG 0.04  C 
BRANCH 15 17
ATOM     17  C   ALA P 573      37.233  73.009  91.311  0.73  7.45 LIG 0.20  C 
ATOM     18 OXT  ALA P 573      38.225  72.370  91.719  0.73  4.81 LIG-0.65  OA
ATOM     19 O    ALA P 573      37.136  74.255  91.376  0.73  9.82 LIG-0.65  OA
ENDBRANCH 15 17
ENDBRANCH 12 15
ENDBRANCH 1 11
TORSDOF 5
ENDMDL
MODEL 14
USER: ADFR SOLUTION from run 96
USER: SCORE 7.340183 LL:  -1.968 LR:  -5.387 RR:   0.000 FEB:  -3.895
USER: RMSD 3.354740
USER: SEED 95
USER: STATUS no improvement in best in 14 clusters for 5 generations
USER: GENES 7
USER: genes 0 Translation |==|  0.76443 0.37362 0.55689
USER: genes 1 Rotation |==|  0.52132 0.76983 0.41499 0.91171
USER: genes 2 Torsion [C]-CA--N-[C] |==|  0.77576
USER: genes 3 Torsion [N]-C--CA-[N] |==|  0.63769
USER: genes 4 Torsion [N]-CA--C-[N] |==|  0.00247
USER: genes 5 Torsion [C]-N--CA-[CB] |==|  0.21145
USER: genes 6 Torsion [N]-CA--C-[OXT] |==|  0.39311
ROOT
ATOM      1  CA  GLY P 572      37.470  71.131  90.619  0.73  6.50 LIG 0.23  C 
ENDROOT
BRANCH 1 2
ATOM      2  N   GLY P 572      36.364  71.699  91.375  0.73  9.23 LIG-0.35  N 
ATOM      3  C   PRO P 571      36.342  72.939  91.880  0.73  8.22 LIG 0.25  C 
ATOM      4 O    PRO P 571      37.235  73.775  91.725  0.73  7.23 LIG-0.27  OA
ATOM      5 H    GLY P 572      35.708  71.151  91.472  0.73  9.23 LIG 0.16  HD
BRANCH 3 6
ATOM      6  CA  PRO P 571      35.073  73.306  92.661  0.73  9.03 LIG 0.35  C 
ATOM      7  N   PRO P 571      34.480  74.613  92.232  0.73 10.09 LIG 0.32  N 
ATOM      8  CD  PRO P 571      33.052  74.257  92.101  0.73  9.16 LIG 0.32  C 
ATOM      9  CG  PRO P 571      32.838  72.936  92.850  0.73  9.15 LIG 0.04  C 
ATOM     10  CB  PRO P 571      34.021  72.209  92.525  0.73  9.69 LIG 0.05  C 
ENDBRANCH 3 6
ENDBRANCH 1 2
BRANCH 1 11
ATOM     11  C   GLY P 572      37.287  71.679  89.205  0.73  5.30 LIG 0.24  C 
ATOM     12  N   ALA P 573      36.242  72.491  89.068  0.73  5.43 LIG-0.35  N 
ATOM     13 H    ALA P 573      35.706  72.670  89.716  0.73  5.43 LIG 0.16  HD
ATOM     14 O    GLY P 572      38.017  71.344  88.268  0.73  3.60 LIG-0.27  OA
BRANCH 12 15
ATOM     15  CA  ALA P 573      35.886  73.164  87.828  0.73  6.34 LIG 0.18  C 
ATOM     16  CB  ALA P 573      35.238  72.196  86.868  0.73  5.76 LIG 0.04  C 
BRANCH 15 17
ATOM     17  C   ALA P 573      34.901  74.272  88.197  0.73  7.45 LIG 0.20  C 
ATOM     18 OXT  ALA P 573      34.982  75.367  87.601  0.73  4.81 LIG-0.65  OA
ATOM     19 O    ALA P 573      34.045  74.021  89.074  0.73  9.82 LIG-0.65  OA
ENDBRANCH 15 17
ENDBRANCH 12 15
ENDBRANCH 1 11
TORSDOF 5
ENDMDL
MODEL 15
USER: ADFR SOLUTION from run 16
USER: SCORE 6.379588 LL:  -1.221 LR:  -5.365 RR:   0.000 FEB:  -3.873
USER: RMSD 3.594508
USER: SEED 422378
USER: STATUS no improvement in best in 18 clusters for 5 generations
USER: GENES 7
USER: genes 0 Translation |==|  0.47222 0.32921 0.72861
USER: genes 1 Rotation |==|  0.59451 0.53247 0.60779 0.97791
USER: genes 2 Torsion [C]-CA--N-[C] |==|  0.75232
USER: genes 3 Torsion [N]-C--CA-[N] |==|  0.52630
USER: genes 4 Torsion [N]-CA--C-[N] |==|  0.58474
USER: genes 5 Torsion [C]-N--CA-[CB] |==|  0.18213
USER: genes 6 Torsion [N]-CA--C-[OXT] |==|  0.02308
ROOT
ATOM      1  CA  GLY P 572      32.649  70.564  92.937  0.73  6.50 LIG 0.23  C 
ENDROOT
BRANCH 1 2
ATOM      2  N   GLY P 572      31.360  70.373  92.289  0.73  9.23 LIG-0.35  N 
ATOM      3  C   PRO P 571      30.200  70.878  92.730  0.73  8.22 LIG 0.25  C 
ATOM      4 O    PRO P 571      30.085  71.611  93.715  0.73  7.23 LIG-0.27  OA
ATOM      5 H    GLY P 572      31.411  69.893  91.577  0.73  9.23 LIG 0.16  HD
BRANCH 3 6
ATOM      6  CA  PRO P 571      28.968  70.521  91.889  0.73  9.03 LIG 0.35  C 
ATOM      7  N   PRO P 571      27.744  71.288  92.290  0.73 10.09 LIG 0.32  N 
ATOM      8  CD  PRO P 571      27.232  71.729  90.976  0.73  9.16 LIG 0.32  C 
ATOM      9  CG  PRO P 571      27.911  70.867  89.905  0.73  9.15 LIG 0.04  C 
ATOM     10  CB  PRO P 571      29.243  70.756  90.405  0.73  9.69 LIG 0.05  C 
ENDBRANCH 3 6
ENDBRANCH 1 2
BRANCH 1 11
ATOM     11  C   GLY P 572      33.202  71.846  92.317  0.73  5.30 LIG 0.24  C 
ATOM     12  N   ALA P 573      34.530  71.886  92.245  0.73  5.43 LIG-0.35  N 
ATOM     13 H    ALA P 573      35.029  71.253  92.544  0.73  5.43 LIG 0.16  HD
ATOM     14 O    GLY P 572      32.473  72.780  91.971  0.73  3.60 LIG-0.27  OA
BRANCH 12 15
ATOM     15  CA  ALA P 573      35.286  72.984  91.661  0.73  6.34 LIG 0.18  C 
ATOM     16  CB  ALA P 573      35.106  74.242  92.476  0.73  5.76 LIG 0.04  C 
BRANCH 15 17
ATOM     17  C   ALA P 573      36.753  72.561  91.670  0.73  7.45 LIG 0.20  C 
ATOM     18 OXT  ALA P 573      37.035  71.386  91.987  0.73  4.81 LIG-0.65  OA
ATOM     19 O    ALA P 573      37.607  73.415  91.344  0.73  9.82 LIG-0.65  OA
ENDBRANCH 15 17
ENDBRANCH 12 15
ENDBRANCH 1 11
TORSDOF 5
ENDMDL
MODEL 16
USER: ADFR SOLUTION from run 146
USER: SCORE 7.158952 LL:  -1.823 LR:  -5.337 RR:   0.000 FEB:  -3.846
USER: RMSD 4.527421
USER: SEED 145
USER: STATUS no improvement in best in 4 clusters for 5 generations
USER: GENES 7
USER: genes 0 Translation |==|  0.62064 0.45410 0.68385
USER: genes 1 Rotation |==|  0.68984 0.65932 0.76261 0.84585
USER: genes 2 Torsion [C]-CA--N-[C] |==|  0.76160
USER: genes 3 Torsion [N]-C--CA-[N] |==|  0.61251
USER: genes 4 Torsion [N]-CA--C-[N] |==|  0.00361
USER: genes 5 Torsion [C]-N--CA-[CB] |==|  0.32263
USER: genes 6 Torsion [N]-CA--C-[OXT] |==|  0.44142
ROOT
ATOM      1  CA  GLY P 572      35.098  72.157  92.333  0.73  6.50 LIG 0.23  C 
ENDROOT
BRANCH 1 2
ATOM      2  N   GLY P 572      34.088  71.147  92.053  0.73  9.23 LIG-0.35  N 
ATOM      3  C   PRO P 571      33.331  70.546  92.980  0.73  8.22 LIG 0.25  C 
ATOM      4 O    PRO P 571      33.358  70.808  94.185  0.73  7.23 LIG-0.27  OA
ATOM      5 H    GLY P 572      34.019  70.966  91.215  0.73  9.23 LIG 0.16  HD
BRANCH 3 6
ATOM      6  CA  PRO P 571      32.348  69.496  92.445  0.73  9.03 LIG 0.35  C 
ATOM      7  N   PRO P 571      31.011  69.549  93.119  0.73 10.09 LIG 0.32  N 
ATOM      8  CD  PRO P 571      30.098  69.492  91.959  0.73  9.16 LIG 0.32  C 
ATOM      9  CG  PRO P 571      30.910  68.990  90.759  0.73  9.15 LIG 0.04  C 
ATOM     10  CB  PRO P 571      32.158  69.656  90.939  0.73  9.69 LIG 0.05  C 
ENDBRANCH 3 6
ENDBRANCH 1 2
BRANCH 1 11
ATOM     11  C   GLY P 572      34.323  73.473  92.367  0.73  5.30 LIG 0.24  C 
ATOM     12  N   ALA P 573      33.014  73.338  92.171  0.73  5.43 LIG-0.35  N 
ATOM     13 H    ALA P 573      32.644  72.577  92.017  0.73  5.43 LIG 0.16  HD
ATOM     14 O    GLY P 572      34.882  74.564  92.505  0.73  3.60 LIG-0.27  OA
BRANCH 12 15
ATOM     15  CA  ALA P 573      32.064  74.441  92.196  0.73  6.34 LIG 0.18  C 
ATOM     16  CB  ALA P 573      31.422  74.616  90.841  0.73  5.76 LIG 0.04  C 
BRANCH 15 17
ATOM     17  C   ALA P 573      31.002  74.083  93.234  0.73  7.45 LIG 0.20  C 
ATOM     18 OXT  ALA P 573      30.317  75.002  93.730  0.73  4.81 LIG-0.65  OA
ATOM     19 O    ALA P 573      30.860  72.876  93.528  0.73  9.82 LIG-0.65  OA
ENDBRANCH 15 17
ENDBRANCH 12 15
ENDBRANCH 1 11
TORSDOF 5
ENDMDL
MODEL 17
USER: ADFR SOLUTION from run 153
USER: SCORE 7.021384 LL:  -1.737 LR:  -5.326 RR:   0.000 FEB:  -3.834
USER: RMSD 3.103053
USER: SEED 152
USER: STATUS no improvement in best in 24 clusters for 5 generations
USER: GENES 7
USER: genes 0 Translation |==|  0.61901 0.61764 0.64158
USER: genes 1 Rotation |==|  0.23378 0.51096 0.40666 0.91267
USER: genes 2 Torsion [C]-CA--N-[C] |==|  0.80310
USER: genes 3 Torsion [N]-C--CA-[N] |==|  0.78814
USER: genes 4 Torsion [N]-CA--C-[N] |==|  0.93451
USER: genes 5 Torsion [C]-N--CA-[CB] |==|  0.12960
USER: genes 6 Torsion [N]-CA--C-[OXT] |==|  0.54775
ROOT
ATOM      1  CA  GLY P 572      35.071  74.242  91.762  0.73  6.50 LIG 0.23  C 
ENDROOT
BRANCH 1 2
ATOM      2  N   GLY P 572      33.780  73.981  91.143  0.73  9.23 LIG-0.35  N 
ATOM      3  C   PRO P 571      33.433  74.367  89.908  0.73  8.22 LIG 0.25  C 
ATOM      4 O    PRO P 571      34.182  74.949  89.120  0.73  7.23 LIG-0.27  OA
ATOM      5 H    GLY P 572      33.244  73.545  91.656  0.73  9.23 LIG 0.16  HD
BRANCH 3 6
ATOM      6  CA  PRO P 571      32.007  73.996  89.481  0.73  9.03 LIG 0.35  C 
ATOM      7  N   PRO P 571      31.863  72.549  89.119  0.73 10.09 LIG 0.32  N 
ATOM      8  CD  PRO P 571      30.631  72.186  89.851  0.73  9.16 LIG 0.32  C 
ATOM      9  CG  PRO P 571      29.919  73.492  90.226  0.73  9.15 LIG 0.04  C 
ATOM     10  CB  PRO P 571      31.009  74.339  90.584  0.73  9.69 LIG 0.05  C 
ENDBRANCH 3 6
ENDBRANCH 1 2
BRANCH 1 11
ATOM     11  C   GLY P 572      36.044  73.337  91.011  0.73  5.30 LIG 0.24  C 
ATOM     12  N   ALA P 573      35.473  72.283  90.434  0.73  5.43 LIG-0.35  N 
ATOM     13 H    ALA P 573      34.631  72.118  90.501  0.73  5.43 LIG 0.16  HD
ATOM     14 O    GLY P 572      37.261  73.543  90.997  0.73  3.60 LIG-0.27  OA
BRANCH 12 15
ATOM     15  CA  ALA P 573      36.187  71.300  89.633  0.73  6.34 LIG 0.18  C 
ATOM     16  CB  ALA P 573      37.453  70.867  90.332  0.73  5.76 LIG 0.04  C 
BRANCH 15 17
ATOM     17  C   ALA P 573      35.249  70.106  89.464  0.73  7.45 LIG 0.20  C 
ATOM     18 OXT  ALA P 573      35.732  69.013  89.101  0.73  4.81 LIG-0.65  OA
ATOM     19 O    ALA P 573      34.036  70.279  89.714  0.73  9.82 LIG-0.65  OA
ENDBRANCH 15 17
ENDBRANCH 12 15
ENDBRANCH 1 11
TORSDOF 5
ENDMDL
MODEL 18
USER: ADFR SOLUTION from run 140
USER: SCORE 6.522764 LL:  -1.337 LR:  -5.294 RR:   0.000 FEB:  -3.802
USER: RMSD 3.598596
USER: SEED 139
USER: STATUS no improvement in best in 11 clusters for 5 generations
USER: GENES 7
USER: genes 0 Translation |==|  0.68583 0.61659 0.39836
USER: genes 1 Rotation |==|  0.03456 0.42096 0.33851 0.53231
USER: genes 2 Torsion [C]-CA--N-[C] |==|  0.19008
USER: genes 3 Torsion [N]-C--CA-[N] |==|  0.24843
USER: genes 4 Torsion [N]-CA--C-[N] |==|  0.10566
USER: genes 5 Torsion [C]-N--CA-[CB] |==|  0.39962
USER: genes 6 Torsion [N]-CA--C-[OXT] |==|  0.41531
ROOT
ATOM      1  CA  GLY P 572      36.173  74.229  88.479  0.73  6.50 LIG 0.23  C 
ENDROOT
BRANCH 1 2
ATOM      2  N   GLY P 572      34.839  73.662  88.347  0.73  9.23 LIG-0.35  N 
ATOM      3  C   PRO P 571      33.783  74.016  89.092  0.73  8.22 LIG 0.25  C 
ATOM      4 O    PRO P 571      33.794  74.901  89.950  0.73  7.23 LIG-0.27  OA
ATOM      5 H    GLY P 572      34.788  73.064  87.732  0.73  9.23 LIG 0.16  HD
BRANCH 3 6
ATOM      6  CA  PRO P 571      32.482  73.262  88.784  0.73  9.03 LIG 0.35  C 
ATOM      7  N   PRO P 571      32.329  72.008  89.589  0.73 10.09 LIG 0.32  N 
ATOM      8  CD  PRO P 571      30.933  72.130  90.057  0.73  9.16 LIG 0.32  C 
ATOM      9  CG  PRO P 571      30.245  73.183  89.180  0.73  9.15 LIG 0.04  C 
ATOM     10  CB  PRO P 571      31.271  74.161  89.020  0.73  9.69 LIG 0.05  C 
ENDBRANCH 3 6
ENDBRANCH 1 2
BRANCH 1 11
ATOM     11  C   GLY P 572      36.669  73.726  89.833  0.73  5.30 LIG 0.24  C 
ATOM     12  N   ALA P 573      36.310  72.476  90.115  0.73  5.43 LIG-0.35  N 
ATOM     13 H    ALA P 573      35.821  72.005  89.587  0.73  5.43 LIG 0.16  HD
ATOM     14 O    GLY P 572      37.297  74.446  90.614  0.73  3.60 LIG-0.27  OA
BRANCH 12 15
ATOM     15  CA  ALA P 573      36.693  71.767  91.326  0.73  6.34 LIG 0.18  C 
ATOM     16  CB  ALA P 573      35.570  70.873  91.794  0.73  5.76 LIG 0.04  C 
BRANCH 15 17
ATOM     17  C   ALA P 573      37.918  70.925  90.974  0.73  7.45 LIG 0.20  C 
ATOM     18 OXT  ALA P 573      38.762  70.693  91.865  0.73  4.81 LIG-0.65  OA
ATOM     19 O    ALA P 573      38.009  70.492  89.803  0.73  9.82 LIG-0.65  OA
ENDBRANCH 15 17
ENDBRANCH 12 15
ENDBRANCH 1 11
TORSDOF 5
ENDMDL
MODEL 19
USER: ADFR SOLUTION from run 189
USER: SCORE 6.076609 LL:  -1.379 LR:  -5.239 RR:   0.000 FEB:  -3.747
USER: RMSD 3.145221
USER: SEED 188
USER: STATUS no improvement in best in 18 clusters for 5 generations
USER: GENES 7
USER: genes 0 Translation |==|  0.48977 0.57447 0.33936
USER: genes 1 Rotation |==|  0.95733 0.58696 0.39086 0.64621
USER: genes 2 Torsion [C]-CA--N-[C] |==|  0.75670
USER: genes 3 Torsion [N]-C--CA-[N] |==|  0.72808
USER: genes 4 Torsion [N]-CA--C-[N] |==|  0.19416
USER: genes 5 Torsion [C]-N--CA-[CB] |==|  0.92412
USER: genes 6 Torsion [N]-CA--C-[OXT] |==|  0.49238
ROOT
ATOM      1  CA  GLY P 572      32.938  73.691  87.682  0.73  6.50 LIG 0.23  C 
ENDROOT
BRANCH 1 2
ATOM      2  N   GLY P 572      32.189  73.881  88.916  0.73  9.23 LIG-0.35  N 
ATOM      3  C   PRO P 571      31.971  72.927  89.831  0.73  8.22 LIG 0.25  C 
ATOM      4 O    PRO P 571      32.419  71.780  89.768  0.73  7.23 LIG-0.27  OA
ATOM      5 H    GLY P 572      31.892  74.683  89.007  0.73  9.23 LIG 0.16  HD
BRANCH 3 6
ATOM      6  CA  PRO P 571      31.133  73.359  91.041  0.73  9.03 LIG 0.35  C 
ATOM      7  N   PRO P 571      31.969  73.719  92.232  0.73 10.09 LIG 0.32  N 
ATOM      8  CD  PRO P 571      31.347  74.992  92.651  0.73  9.16 LIG 0.32  C 
ATOM      9  CG  PRO P 571      29.972  75.076  91.977  0.73  9.15 LIG 0.04  C 
ATOM     10  CB  PRO P 571      30.238  74.543  90.681  0.73  9.69 LIG 0.05  C 
ENDBRANCH 3 6
ENDBRANCH 1 2
BRANCH 1 11
ATOM     11  C   GLY P 572      34.390  73.965  88.071  0.73  5.30 LIG 0.24  C 
ATOM     12  N   ALA P 573      34.927  73.035  88.856  0.73  5.43 LIG-0.35  N 
ATOM     13 H    ALA P 573      34.484  72.353  89.136  0.73  5.43 LIG 0.16  HD
ATOM     14 O    GLY P 572      34.982  74.992  87.728  0.73  3.60 LIG-0.27  OA
BRANCH 12 15
ATOM     15  CA  ALA P 573      36.305  73.056  89.326  0.73  6.34 LIG 0.18  C 
ATOM     16  CB  ALA P 573      37.184  73.803  88.353  0.73  5.76 LIG 0.04  C 
BRANCH 15 17
ATOM     17  C   ALA P 573      36.297  73.770  90.677  0.73  7.45 LIG 0.20  C 
ATOM     18 OXT  ALA P 573      37.369  73.867  91.308  0.73  4.81 LIG-0.65  OA
ATOM     19 O    ALA P 573      35.210  74.240  91.080  0.73  9.82 LIG-0.65  OA
ENDBRANCH 15 17
ENDBRANCH 12 15
ENDBRANCH 1 11
TORSDOF 5
ENDMDL
MODEL 20
USER: ADFR SOLUTION from run 156
USER: SCORE 6.393862 LL:  -1.234 LR:  -5.219 RR:   0.000 FEB:  -3.728
USER: RMSD 3.441282
USER: SEED 155
USER: STATUS no improvement in best in 20 clusters for 5 generations
USER: GENES 7
USER: genes 0 Translation |==|  0.64312 0.27989 0.44761
USER: genes 1 Rotation |==|  0.92415 0.64206 0.51979 0.72255
USER: genes 2 Torsion [C]-CA--N-[C] |==|  0.21296
USER: genes 3 Torsion [N]-C--CA-[N] |==|  0.77976
USER: genes 4 Torsion [N]-CA--C-[N] |==|  0.07743
USER: genes 5 Torsion [C]-N--CA-[CB] |==|  0.86767
USER: genes 6 Torsion [N]-CA--C-[OXT] |==|  0.71966
ROOT
ATOM      1  CA  GLY P 572      35.469  69.936  89.144  0.73  6.50 LIG 0.23  C 
ENDROOT
BRANCH 1 2
ATOM      2  N   GLY P 572      34.238  69.854  89.916  0.73  9.23 LIG-0.35  N 
ATOM      3  C   PRO P 571      33.298  70.807  89.958  0.73  8.22 LIG 0.25  C 
ATOM      4 O    PRO P 571      33.332  71.855  89.309  0.73  7.23 LIG-0.27  OA
ATOM      5 H    GLY P 572      34.166  69.118  90.356  0.73  9.23 LIG 0.16  HD
BRANCH 3 6
ATOM      6  CA  PRO P 571      32.096  70.503  90.863  0.73  9.03 LIG 0.35  C 
ATOM      7  N   PRO P 571      31.104  69.579  90.226  0.73 10.09 LIG 0.32  N 
ATOM      8  CD  PRO P 571      30.857  68.617  91.320  0.73  9.16 LIG 0.32  C 
ATOM      9  CG  PRO P 571      31.363  69.258  92.618  0.73  9.15 LIG 0.04  C 
ATOM     10  CB  PRO P 571      32.559  69.906  92.190  0.73  9.69 LIG 0.05  C 
ENDBRANCH 3 6
ENDBRANCH 1 2
BRANCH 1 11
ATOM     11  C   GLY P 572      36.365  70.871  89.952  0.73  5.30 LIG 0.24  C 
ATOM     12  N   ALA P 573      36.118  70.867  91.259  0.73  5.43 LIG-0.35  N 
ATOM     13 H    ALA P 573      35.491  70.394  91.610  0.73  5.43 LIG 0.16  HD
ATOM     14 O    GLY P 572      37.202  71.606  89.420  0.73  3.60 LIG-0.27  OA
BRANCH 12 15
ATOM     15  CA  ALA P 573      36.864  71.646  92.237  0.73  6.34 LIG 0.18  C 
ATOM     16  CB  ALA P 573      38.349  71.485  92.018  0.73  5.76 LIG 0.04  C 
BRANCH 15 17
ATOM     17  C   ALA P 573      36.461  73.105  92.035  0.73  7.45 LIG 0.20  C 
ATOM     18 OXT  ALA P 573      37.232  73.856  91.401  0.73  4.81 LIG-0.65  OA
ATOM     19 O    ALA P 573      35.364  73.477  92.506  0.73  9.82 LIG-0.65  OA
ENDBRANCH 15 17
ENDBRANCH 12 15
ENDBRANCH 1 11
TORSDOF 5
ENDMDL
MODEL 21
USER: ADFR SOLUTION from run 57
USER: SCORE 6.659546 LL:  -1.573 LR:  -5.221 RR:   0.000 FEB:  -3.730
USER: RMSD 4.720070
USER: SEED 56
USER: STATUS no improvement in best in 20 clusters for 5 generations
USER: GENES 7
USER: genes 0 Translation |==|  0.44537 0.32393 0.76830
USER: genes 1 Rotation |==|  0.65848 0.49341 0.63623 0.95418
USER: genes 2 Torsion [C]-CA--N-[C] |==|  0.76395
USER: genes 3 Torsion [N]-C--CA-[N] |==|  0.58083
USER: genes 4 Torsion [N]-CA--C-[N] |==|  0.05271
USER: genes 5 Torsion [C]-N--CA-[CB] |==|  0.20937
USER: genes 6 Torsion [N]-CA--C-[OXT] |==|  0.21759
ROOT
ATOM      1  CA  GLY P 572      32.206  70.497  93.473  0.73  6.50 LIG 0.23  C 
ENDROOT
BRANCH 1 2
ATOM      2  N   GLY P 572      31.010  70.428  92.646  0.73  9.23 LIG-0.35  N 
ATOM      3  C   PRO P 571      29.781  70.775  93.051  0.73  8.22 LIG 0.25  C 
ATOM      4 O    PRO P 571      29.514  71.243  94.160  0.73  7.23 LIG-0.27  OA
ATOM      5 H    GLY P 572      31.168  70.137  91.852  0.73  9.23 LIG 0.16  HD
BRANCH 3 6
ATOM      6  CA  PRO P 571      28.671  70.594  92.006  0.73  9.03 LIG 0.35  C 
ATOM      7  N   PRO P 571      27.541  71.562  92.180  0.73 10.09 LIG 0.32  N 
ATOM      8  CD  PRO P 571      27.347  72.035  90.793  0.73  9.16 LIG 0.32  C 
ATOM      9  CG  PRO P 571      28.049  71.037  89.865  0.73  9.15 LIG 0.04  C 
ATOM     10  CB  PRO P 571      29.236  70.729  90.594  0.73  9.69 LIG 0.05  C 
ENDBRANCH 3 6
ENDBRANCH 1 2
BRANCH 1 11
ATOM     11  C   GLY P 572      32.686  71.940  93.330  0.73  5.30 LIG 0.24  C 
ATOM     12  N   ALA P 573      31.756  72.781  92.888  0.73  5.43 LIG-0.35  N 
ATOM     13 H    ALA P 573      30.961  72.526  92.680  0.73  5.43 LIG 0.16  HD
ATOM     14 O    GLY P 572      33.854  72.271  93.551  0.73  3.60 LIG-0.27  OA
BRANCH 12 15
ATOM     15  CA  ALA P 573      31.964  74.211  92.706  0.73  6.34 LIG 0.18  C 
ATOM     16  CB  ALA P 573      32.785  74.472  91.466  0.73  5.76 LIG 0.04  C 
BRANCH 15 17
ATOM     17  C   ALA P 573      30.580  74.841  92.557  0.73  7.45 LIG 0.20  C 
ATOM     18 OXT  ALA P 573      29.896  75.030  93.584  0.73  4.81 LIG-0.65  OA
ATOM     19 O    ALA P 573      30.203  75.152  91.406  0.73  9.82 LIG-0.65  OA
ENDBRANCH 15 17
ENDBRANCH 12 15
ENDBRANCH 1 11
TORSDOF 5
ENDMDL
MODEL 22
USER: ADFR SOLUTION from run 196
USER: SCORE 6.537310 LL:  -1.443 LR:  -5.197 RR:   0.000 FEB:  -3.705
USER: RMSD 2.910371
USER: SEED 195
USER: STATUS no improvement in best in 13 clusters for 5 generations
USER: GENES 7
USER: genes 0 Translation |==|  0.67669 0.24735 0.41464
USER: genes 1 Rotation |==|  0.84033 0.58912 0.52672 0.85428
USER: genes 2 Torsion [C]-CA--N-[C] |==|  0.81896
USER: genes 3 Torsion [N]-C--CA-[N] |==|  0.17984
USER: genes 4 Torsion [N]-CA--C-[N] |==|  0.88906
USER: genes 5 Torsion [C]-N--CA-[CB] |==|  0.42474
USER: genes 6 Torsion [N]-CA--C-[OXT] |==|  0.85071
ROOT
ATOM      1  CA  GLY P 572      36.022  69.521  88.699  0.73  6.50 LIG 0.23  C 
ENDROOT
BRANCH 1 2
ATOM      2  N   GLY P 572      34.647  69.895  88.995  0.73  9.23 LIG-0.35  N 
ATOM      3  C   PRO P 571      34.169  70.134  90.223  0.73  8.22 LIG 0.25  C 
ATOM      4 O    PRO P 571      34.844  70.117  91.254  0.73  7.23 LIG-0.27  OA
ATOM      5 H    GLY P 572      34.156  69.949  88.291  0.73  9.23 LIG 0.16  HD
BRANCH 3 6
ATOM      6  CA  PRO P 571      32.678  70.491  90.287  0.73  9.03 LIG 0.35  C 
ATOM      7  N   PRO P 571      31.788  69.367  89.851  0.73 10.09 LIG 0.32  N 
ATOM      8  CD  PRO P 571      30.775  69.363  90.926  0.73  9.16 LIG 0.32  C 
ATOM      9  CG  PRO P 571      30.878  70.706  91.660  0.73  9.15 LIG 0.04  C 
ATOM     10  CB  PRO P 571      32.288  70.921  91.699  0.73  9.69 LIG 0.05  C 
ENDBRANCH 3 6
ENDBRANCH 1 2
BRANCH 1 11
ATOM     11  C   GLY P 572      36.845  70.743  89.100  0.73  5.30 LIG 0.24  C 
ATOM     12  N   ALA P 573      36.283  71.906  88.782  0.73  5.43 LIG-0.35  N 
ATOM     13 H    ALA P 573      35.532  71.959  88.365  0.73  5.43 LIG 0.16  HD
ATOM     14 O    GLY P 572      37.960  70.646  89.621  0.73  3.60 LIG-0.27  OA
BRANCH 12 15
ATOM     15  CA  ALA P 573      36.857  73.207  89.094  0.73  6.34 LIG 0.18  C 
ATOM     16  CB  ALA P 573      36.396  74.241  88.096  0.73  5.76 LIG 0.04  C 
BRANCH 15 17
ATOM     17  C   ALA P 573      36.370  73.577  90.493  0.73  7.45 LIG 0.20  C 
ATOM     18 OXT  ALA P 573      35.142  73.562  90.723  0.73  4.81 LIG-0.65  OA
ATOM     19 O    ALA P 573      37.232  73.867  91.352  0.73  9.82 LIG-0.65  OA
ENDBRANCH 15 17
ENDBRANCH 12 15
ENDBRANCH 1 11
TORSDOF 5
ENDMDL
MODEL 23
USER: ADFR SOLUTION from run 67
USER: SCORE 6.459785 LL:  -1.400 LR:  -5.123 RR:   0.000 FEB:  -3.631
USER: RMSD 3.932845
USER: SEED 66
USER: STATUS no improvement in best in 7 clusters for 5 generations
USER: GENES 7
USER: genes 0 Translation |==|  0.54169 0.61533 0.66963
USER: genes 1 Rotation |==|  0.37971 0.32451 0.23441 0.86632
USER: genes 2 Torsion [C]-CA--N-[C] |==|  0.27644
USER: genes 3 Torsion [N]-C--CA-[N] |==|  0.08616
USER: genes 4 Torsion [N]-CA--C-[N] |==|  0.95707
USER: genes 5 Torsion [C]-N--CA-[CB] |==|  0.45804
USER: genes 6 Torsion [N]-CA--C-[OXT] |==|  0.47213
ROOT
ATOM      1  CA  GLY P 572      33.795  74.212  92.141  0.73  6.50 LIG 0.23  C 
ENDROOT
BRANCH 1 2
ATOM      2  N   GLY P 572      33.854  74.401  90.699  0.73  9.23 LIG-0.35  N 
ATOM      3  C   PRO P 571      32.982  73.883  89.825  0.73  8.22 LIG 0.25  C 
ATOM      4 O    PRO P 571      31.989  73.221  90.134  0.73  7.23 LIG-0.27  OA
ATOM      5 H    GLY P 572      34.518  74.889  90.452  0.73  9.23 LIG 0.16  HD
BRANCH 3 6
ATOM      6  CA  PRO P 571      33.263  74.202  88.350  0.73  9.03 LIG 0.35  C 
ATOM      7  N   PRO P 571      34.723  74.360  88.055  0.73 10.09 LIG 0.32  N 
ATOM      8  CD  PRO P 571      34.864  73.541  86.834  0.73  9.16 LIG 0.32  C 
ATOM      9  CG  PRO P 571      33.458  73.318  86.265  0.73  9.15 LIG 0.04  C 
ATOM     10  CB  PRO P 571      32.682  73.118  87.445  0.73  9.69 LIG 0.05  C 
ENDBRANCH 3 6
ENDBRANCH 1 2
BRANCH 1 11
ATOM     11  C   GLY P 572      34.811  73.108  92.423  0.73  5.30 LIG 0.24  C 
ATOM     12  N   ALA P 573      35.192  72.430  91.344  0.73  5.43 LIG-0.35  N 
ATOM     13 H    ALA P 573      34.872  72.589  90.561  0.73  5.43 LIG 0.16  HD
ATOM     14 O    GLY P 572      35.193  72.839  93.566  0.73  3.60 LIG-0.27  OA
BRANCH 12 15
ATOM     15  CA  ALA P 573      36.177  71.358  91.354  0.73  6.34 LIG 0.18  C 
ATOM     16  CB  ALA P 573      36.110  70.566  90.070  0.73  5.76 LIG 0.04  C 
BRANCH 15 17
ATOM     17  C   ALA P 573      37.546  72.021  91.487  0.73  7.45 LIG 0.20  C 
ATOM     18 OXT  ALA P 573      38.541  71.300  91.710  0.73  4.81 LIG-0.65  OA
ATOM     19 O    ALA P 573      37.607  73.263  91.352  0.73  9.82 LIG-0.65  OA
ENDBRANCH 15 17
ENDBRANCH 12 15
ENDBRANCH 1 11
TORSDOF 5
ENDMDL
MODEL 24
USER: ADFR SOLUTION from run 104
USER: SCORE 7.065191 LL:  -2.032 LR:  -5.120 RR:   0.000 FEB:  -3.629
USER: RMSD 3.454498
USER: SEED 103
USER: STATUS no improvement in best in 7 clusters for 5 generations
USER: GENES 7
USER: genes 0 Translation |==|  0.60523 0.61765 0.67405
USER: genes 1 Rotation |==|  0.19702 0.39214 0.49478 0.88281
USER: genes 2 Torsion [C]-CA--N-[C] |==|  0.78342
USER: genes 3 Torsion [N]-C--CA-[N] |==|  0.74738
USER: genes 4 Torsion [N]-CA--C-[N] |==|  0.90795
USER: genes 5 Torsion [C]-N--CA-[CB] |==|  0.30222
USER: genes 6 Torsion [N]-CA--C-[OXT] |==|  0.95024
ROOT
ATOM      1  CA  GLY P 572      34.843  74.242  92.201  0.73  6.50 LIG 0.23  C 
ENDROOT
BRANCH 1 2
ATOM      2  N   GLY P 572      34.020  73.223  91.566  0.73  9.23 LIG-0.35  N 
ATOM      3  C   PRO P 571      33.725  73.184  90.260  0.73  8.22 LIG 0.25  C 
ATOM      4 O    PRO P 571      34.153  73.978  89.421  0.73  7.23 LIG-0.27  OA
ATOM      5 H    GLY P 572      33.732  72.632  92.121  0.73  9.23 LIG 0.16  HD
BRANCH 3 6
ATOM      6  CA  PRO P 571      32.819  72.024  89.828  0.73  9.03 LIG 0.35  C 
ATOM      7  N   PRO P 571      33.587  70.806  89.413  0.73 10.09 LIG 0.32  N 
ATOM      8  CD  PRO P 571      32.861  69.742  90.137  0.73  9.16 LIG 0.32  C 
ATOM      9  CG  PRO P 571      31.506  70.320  90.565  0.73  9.15 LIG 0.04  C 
ATOM     10  CB  PRO P 571      31.852  71.649  90.948  0.73  9.69 LIG 0.05  C 
ENDBRANCH 3 6
ENDBRANCH 1 2
BRANCH 1 11
ATOM     11  C   GLY P 572      36.277  73.847  91.852  0.73  5.30 LIG 0.24  C 
ATOM     12  N   ALA P 573      36.472  72.534  91.760  0.73  5.43 LIG-0.35  N 
ATOM     13 H    ALA P 573      35.847  71.961  91.909  0.73  5.43 LIG 0.16  HD
ATOM     14 O    GLY P 572      37.179  74.679  91.726  0.73  3.60 LIG-0.27  OA
BRANCH 12 15
ATOM     15  CA  ALA P 573      37.741  71.917  91.404  0.73  6.34 LIG 0.18  C 
ATOM     16  CB  ALA P 573      38.357  71.242  92.606  0.73  5.76 LIG 0.04  C 
BRANCH 15 17
ATOM     17  C   ALA P 573      37.438  70.883  90.322  0.73  7.45 LIG 0.20  C 
ATOM     18 OXT  ALA P 573      36.261  70.492  90.181  0.73  4.81 LIG-0.65  OA
ATOM     19 O    ALA P 573      38.390  70.484  89.615  0.73  9.82 LIG-0.65  OA
ENDBRANCH 15 17
ENDBRANCH 12 15
ENDBRANCH 1 11
TORSDOF 5
ENDMDL
MODEL 25
USER: ADFR SOLUTION from run 37
USER: SCORE 6.820348 LL:  -1.777 LR:  -5.075 RR:   0.000 FEB:  -3.583
USER: RMSD 4.197393
USER: SEED 36
USER: STATUS no improvement in best in 17 clusters for 5 generations
USER: GENES 7
USER: genes 0 Translation |==|  0.53132 0.29412 0.59296
USER: genes 1 Rotation |==|  0.59056 0.21111 0.52484 0.89715
USER: genes 2 Torsion [C]-CA--N-[C] |==|  0.26108
USER: genes 3 Torsion [N]-C--CA-[N] |==|  0.90962
USER: genes 4 Torsion [N]-CA--C-[N] |==|  0.97286
USER: genes 5 Torsion [C]-N--CA-[CB] |==|  0.27699
USER: genes 6 Torsion [N]-CA--C-[OXT] |==|  0.44644
ROOT
ATOM      1  CA  GLY P 572      33.624  70.117  91.106  0.73  6.50 LIG 0.23  C 
ENDROOT
BRANCH 1 2
ATOM      2  N   GLY P 572      33.919  70.632  89.777  0.73  9.23 LIG-0.35  N 
ATOM      3  C   PRO P 571      34.760  70.058  88.906  0.73  8.22 LIG 0.25  C 
ATOM      4 O    PRO P 571      35.352  68.995  89.100  0.73  7.23 LIG-0.27  OA
ATOM      5 H    GLY P 572      33.494  71.357  89.597  0.73  9.23 LIG 0.16  HD
BRANCH 3 6
ATOM      6  CA  PRO P 571      34.927  70.799  87.572  0.73  9.03 LIG 0.35  C 
ATOM      7  N   PRO P 571      33.681  71.507  87.136  0.73 10.09 LIG 0.32  N 
ATOM      8  CD  PRO P 571      34.216  72.831  86.755  0.73  9.16 LIG 0.32  C 
ATOM      9  CG  PRO P 571      35.732  72.681  86.583  0.73  9.15 LIG 0.04  C 
ATOM     10  CB  PRO P 571      36.073  71.805  87.656  0.73  9.69 LIG 0.05  C 
ENDBRANCH 3 6
ENDBRANCH 1 2
BRANCH 1 11
ATOM     11  C   GLY P 572      34.597  70.853  92.025  0.73  5.30 LIG 0.24  C 
ATOM     12  N   ALA P 573      35.530  71.550  91.383  0.73  5.43 LIG-0.35  N 
ATOM     13 H    ALA P 573      35.589  71.564  90.525  0.73  5.43 LIG 0.16  HD
ATOM     14 O    GLY P 572      34.547  70.753  93.254  0.73  3.60 LIG-0.27  OA
BRANCH 12 15
ATOM     15  CA  ALA P 573      36.543  72.362  92.041  0.73  6.34 LIG 0.18  C 
ATOM     16  CB  ALA P 573      37.854  71.617  92.110  0.73  5.76 LIG 0.04  C 
BRANCH 15 17
ATOM     17  C   ALA P 573      36.706  73.627  91.200  0.73  7.45 LIG 0.20  C 
ATOM     18 OXT  ALA P 573      37.232  74.631  91.726  0.73  4.81 LIG-0.65  OA
ATOM     19 O    ALA P 573      36.315  73.591  90.013  0.73  9.82 LIG-0.65  OA
ENDBRANCH 15 17
ENDBRANCH 12 15
ENDBRANCH 1 11
TORSDOF 5
ENDMDL
MODEL 26
USER: ADFR SOLUTION from run 152
USER: SCORE 6.322100 LL:  -1.450 LR:  -5.068 RR:   0.000 FEB:  -3.576
USER: RMSD 3.005811
USER: SEED 151
USER: STATUS no improvement in best in 9 clusters for 5 generations
USER: GENES 7
USER: genes 0 Translation |==|  0.41684 0.67288 0.70748
USER: genes 1 Rotation |==|  0.26540 0.43703 0.46379 0.93553
USER: genes 2 Torsion [C]-CA--N-[C] |==|  0.29237
USER: genes 3 Torsion [N]-C--CA-[N] |==|  0.22388
USER: genes 4 Torsion [N]-CA--C-[N] |==|  0.04991
USER: genes 5 Torsion [C]-N--CA-[CB] |==|  0.27626
USER: genes 6 Torsion [N]-CA--C-[OXT] |==|  0.33942
ROOT
ATOM      1  CA  GLY P 572      31.735  74.946  92.652  0.73  6.50 LIG 0.23  C 
ENDROOT
BRANCH 1 2
ATOM      2  N   GLY P 572      30.714  74.337  91.812  0.73  9.23 LIG-0.35  N 
ATOM      3  C   PRO P 571      29.997  73.255  92.145  0.73  8.22 LIG 0.25  C 
ATOM      4 O    PRO P 571      30.076  72.668  93.226  0.73  7.23 LIG-0.27  OA
ATOM      5 H    GLY P 572      30.610  74.745  91.062  0.73  9.23 LIG 0.16  HD
BRANCH 3 6
ATOM      6  CA  PRO P 571      28.993  72.783  91.085  0.73  9.03 LIG 0.35  C 
ATOM      7  N   PRO P 571      29.629  71.970  89.999  0.73 10.09 LIG 0.32  N 
ATOM      8  CD  PRO P 571      28.695  70.830  89.903  0.73  9.16 LIG 0.32  C 
ATOM      9  CG  PRO P 571      27.393  71.242  90.601  0.73  9.15 LIG 0.04  C 
ATOM     10  CB  PRO P 571      27.873  71.970  91.730  0.73  9.69 LIG 0.05  C 
ENDBRANCH 3 6
ENDBRANCH 1 2
BRANCH 1 11
ATOM     11  C   GLY P 572      33.056  74.537  92.005  0.73  5.30 LIG 0.24  C 
ATOM     12  N   ALA P 573      32.939  74.119  90.747  0.73  5.43 LIG-0.35  N 
ATOM     13 H    ALA P 573      32.181  74.065  90.346  0.73  5.43 LIG 0.16  HD
ATOM     14 O    GLY P 572      34.124  74.541  92.624  0.73  3.60 LIG-0.27  OA
BRANCH 12 15
ATOM     15  CA  ALA P 573      34.060  73.713  89.911  0.73  6.34 LIG 0.18  C 
ATOM     16  CB  ALA P 573      34.179  72.208  89.882  0.73  5.76 LIG 0.04  C 
BRANCH 15 17
ATOM     17  C   ALA P 573      33.775  74.242  88.507  0.73  7.45 LIG 0.20  C 
ATOM     18 OXT  ALA P 573      34.607  75.007  87.976  0.73  4.81 LIG-0.65  OA
ATOM     19 O    ALA P 573      32.721  73.868  87.947  0.73  9.82 LIG-0.65  OA
ENDBRANCH 15 17
ENDBRANCH 12 15
ENDBRANCH 1 11
TORSDOF 5
ENDMDL
MODEL 27
USER: ADFR SOLUTION from run 62
USER: SCORE 6.863624 LL:  -1.846 LR:  -5.053 RR:   0.000 FEB:  -3.562
USER: RMSD 3.308887
USER: SEED 61
USER: STATUS no improvement in best in 15 clusters for 5 generations
USER: GENES 7
USER: genes 0 Translation |==|  0.48491 0.58824 0.38279
USER: genes 1 Rotation |==|  0.08688 0.30811 0.58643 0.68718
USER: genes 2 Torsion [C]-CA--N-[C] |==|  0.26667
USER: genes 3 Torsion [N]-C--CA-[N] |==|  0.32660
USER: genes 4 Torsion [N]-CA--C-[N] |==|  0.97363
USER: genes 5 Torsion [C]-N--CA-[CB] |==|  0.20492
USER: genes 6 Torsion [N]-CA--C-[OXT] |==|  0.47871
ROOT
ATOM      1  CA  GLY P 572      32.858  73.867  88.269  0.73  6.50 LIG 0.23  C 
ENDROOT
BRANCH 1 2
ATOM      2  N   GLY P 572      32.575  72.515  88.728  0.73  9.23 LIG-0.35  N 
ATOM      3  C   PRO P 571      32.198  72.195  89.973  0.73  8.22 LIG 0.25  C 
ATOM      4 O    PRO P 571      31.995  73.010  90.875  0.73  7.23 LIG-0.27  OA
ATOM      5 H    GLY P 572      32.675  71.924  88.111  0.73  9.23 LIG 0.16  HD
BRANCH 3 6
ATOM      6  CA  PRO P 571      31.979  70.697  90.226  0.73  9.03 LIG 0.35  C 
ATOM      7  N   PRO P 571      32.913  70.135  91.254  0.73 10.09 LIG 0.32  N 
ATOM      8  CD  PRO P 571      31.982  69.361  92.101  0.73  9.16 LIG 0.32  C 
ATOM      9  CG  PRO P 571      30.687  69.168  91.303  0.73  9.15 LIG 0.04  C 
ATOM     10  CB  PRO P 571      30.539  70.430  90.657  0.73  9.69 LIG 0.05  C 
ENDBRANCH 3 6
ENDBRANCH 1 2
BRANCH 1 11
ATOM     11  C   GLY P 572      34.374  74.003  88.392  0.73  5.30 LIG 0.24  C 
ATOM     12  N   ALA P 573      34.960  72.998  89.038  0.73  5.43 LIG-0.35  N 
ATOM     13 H    ALA P 573      34.516  72.343  89.376  0.73  5.43 LIG 0.16  HD
ATOM     14 O    GLY P 572      34.984  74.992  87.976  0.73  3.60 LIG-0.27  OA
BRANCH 12 15
ATOM     15  CA  ALA P 573      36.396  72.885  89.249  0.73  6.34 LIG 0.18  C 
ATOM     16  CB  ALA P 573      36.855  73.867  90.299  0.73  5.76 LIG 0.04  C 
BRANCH 15 17
ATOM     17  C   ALA P 573      36.660  71.456  89.718  0.73  7.45 LIG 0.20  C 
ATOM     18 OXT  ALA P 573      37.843  71.071  89.827  0.73  4.81 LIG-0.65  OA
ATOM     19 O    ALA P 573      35.670  70.740  89.987  0.73  9.82 LIG-0.65  OA
ENDBRANCH 15 17
ENDBRANCH 12 15
ENDBRANCH 1 11
TORSDOF 5
ENDMDL
MODEL 28
USER: ADFR SOLUTION from run 169
USER: SCORE 6.159647 LL:  -1.158 LR:  -5.049 RR:   0.000 FEB:  -3.557
USER: RMSD 3.129036
USER: SEED 168
USER: STATUS no improvement in best in 12 clusters for 5 generations
USER: GENES 7
USER: genes 0 Translation |==|  0.64284 0.61452 0.69567
USER: genes 1 Rotation |==|  0.21833 0.54146 0.52384 0.91033
USER: genes 2 Torsion [C]-CA--N-[C] |==|  0.78099
USER: genes 3 Torsion [N]-C--CA-[N] |==|  0.80622
USER: genes 4 Torsion [N]-CA--C-[N] |==|  0.93474
USER: genes 5 Torsion [C]-N--CA-[CB] |==|  0.87528
USER: genes 6 Torsion [N]-CA--C-[OXT] |==|  0.51917
ROOT
ATOM      1  CA  GLY P 572      35.464  74.202  92.492  0.73  6.50 LIG 0.23  C 
ENDROOT
BRANCH 1 2
ATOM      2  N   GLY P 572      34.191  73.508  92.363  0.73  9.23 LIG-0.35  N 
ATOM      3  C   PRO P 571      33.267  73.775  91.431  0.73  8.22 LIG 0.25  C 
ATOM      4 O    PRO P 571      33.398  74.610  90.533  0.73  7.23 LIG-0.27  OA
ATOM      5 H    GLY P 572      34.083  72.893  92.955  0.73  9.23 LIG 0.16  HD
BRANCH 3 6
ATOM      6  CA  PRO P 571      31.993  72.924  91.508  0.73  9.03 LIG 0.35  C 
ATOM      7  N   PRO P 571      32.223  71.492  91.130  0.73 10.09 LIG 0.32  N 
ATOM      8  CD  PRO P 571      31.522  70.786  92.222  0.73  9.16 LIG 0.32  C 
ATOM      9  CG  PRO P 571      30.594  71.799  92.904  0.73  9.15 LIG 0.04  C 
ATOM     10  CB  PRO P 571      31.391  72.982  92.910  0.73  9.69 LIG 0.05  C 
ENDBRANCH 3 6
ENDBRANCH 1 2
BRANCH 1 11
ATOM     11  C   GLY P 572      36.349  73.583  91.412  0.73  5.30 LIG 0.24  C 
ATOM     12  N   ALA P 573      35.975  72.362  91.037  0.73  5.43 LIG-0.35  N 
ATOM     13 H    ALA P 573      35.307  71.953  91.392  0.73  5.43 LIG 0.16  HD
ATOM     14 O    GLY P 572      37.353  74.152  90.977  0.73  3.60 LIG-0.27  OA
BRANCH 12 15
ATOM     15  CA  ALA P 573      36.638  71.586  90.000  0.73  6.34 LIG 0.18  C 
ATOM     16  CB  ALA P 573      36.921  72.448  88.793  0.73  5.76 LIG 0.04  C 
BRANCH 15 17
ATOM     17  C   ALA P 573      37.948  71.080  90.599  0.73  7.45 LIG 0.20  C 
ATOM     18 OXT  ALA P 573      38.760  70.492  89.853  0.73  4.81 LIG-0.65  OA
ATOM     19 O    ALA P 573      38.153  71.293  91.815  0.73  9.82 LIG-0.65  OA
ENDBRANCH 15 17
ENDBRANCH 12 15
ENDBRANCH 1 11
TORSDOF 5
ENDMDL
MODEL 29
USER: ADFR SOLUTION from run 23
USER: SCORE 5.963382 LL:  -1.067 LR:  -4.996 RR:   0.000 FEB:  -3.505
USER: RMSD 3.763625
USER: SEED 22
USER: STATUS no improvement in best in 23 clusters for 5 generations
USER: GENES 7
USER: genes 0 Translation |==|  0.54965 0.29654 0.48405
USER: genes 1 Rotation |==|  0.95892 0.65300 0.51461 0.62559
USER: genes 2 Torsion [C]-CA--N-[C] |==|  0.19998
USER: genes 3 Torsion [N]-C--CA-[N] |==|  0.04730
USER: genes 4 Torsion [N]-CA--C-[N] |==|  0.56069
USER: genes 5 Torsion [C]-N--CA-[CB] |==|  0.87067
USER: genes 6 Torsion [N]-CA--C-[OXT] |==|  0.13710
ROOT
ATOM      1  CA  GLY P 572      33.926  70.148  89.636  0.73  6.50 LIG 0.23  C 
ENDROOT
BRANCH 1 2
ATOM      2  N   GLY P 572      32.824  69.742  90.495  0.73  9.23 LIG-0.35  N 
ATOM      3  C   PRO P 571      31.979  70.585  91.103  0.73  8.22 LIG 0.25  C 
ATOM      4 O    PRO P 571      31.997  71.811  90.972  0.73  7.23 LIG-0.27  OA
ATOM      5 H    GLY P 572      32.762  68.888  90.579  0.73  9.23 LIG 0.16  HD
BRANCH 3 6
ATOM      6  CA  PRO P 571      30.908  69.922  91.978  0.73  9.03 LIG 0.35  C 
ATOM      7  N   PRO P 571      31.232  68.501  92.323  0.73 10.09 LIG 0.32  N 
ATOM      8  CD  PRO P 571      30.956  68.482  93.775  0.73  9.16 LIG 0.32  C 
ATOM      9  CG  PRO P 571      30.107  69.718  94.096  0.73  9.15 LIG 0.04  C 
ATOM     10  CB  PRO P 571      30.698  70.716  93.266  0.73  9.69 LIG 0.05  C 
ENDBRANCH 3 6
ENDBRANCH 1 2
BRANCH 1 11
ATOM     11  C   GLY P 572      34.958  70.742  90.593  0.73  5.30 LIG 0.24  C 
ATOM     12  N   ALA P 573      35.821  71.572  90.014  0.73  5.43 LIG-0.35  N 
ATOM     13 H    ALA P 573      35.810  71.738  89.171  0.73  5.43 LIG 0.16  HD
ATOM     14 O    GLY P 572      35.011  70.425  91.784  0.73  3.60 LIG-0.27  OA
BRANCH 12 15
ATOM     15  CA  ALA P 573      36.871  72.288  90.725  0.73  6.34 LIG 0.18  C 
ATOM     16  CB  ALA P 573      36.321  72.923  91.980  0.73  5.76 LIG 0.04  C 
BRANCH 15 17
ATOM     17  C   ALA P 573      37.939  71.258  91.086  0.73  7.45 LIG 0.20  C 
ATOM     18 OXT  ALA P 573      38.357  70.492  90.192  0.73  4.81 LIG-0.65  OA
ATOM     19 O    ALA P 573      38.357  71.242  92.265  0.73  9.82 LIG-0.65  OA
ENDBRANCH 15 17
ENDBRANCH 12 15
ENDBRANCH 1 11
TORSDOF 5
ENDMDL
MODEL 30
USER: ADFR SOLUTION from run 109
USER: SCORE 6.201462 LL:  -1.323 LR:  -4.972 RR:   0.000 FEB:  -3.481
USER: RMSD 3.412749
USER: SEED 108
USER: STATUS no improvement in best in 12 clusters for 5 generations
USER: GENES 7
USER: genes 0 Translation |==|  0.41487 0.61294 0.65705
USER: genes 1 Rotation |==|  0.14435 0.26310 0.51674 0.75906
USER: genes 2 Torsion [C]-CA--N-[C] |==|  0.28889
USER: genes 3 Torsion [N]-C--CA-[N] |==|  0.73407
USER: genes 4 Torsion [N]-CA--C-[N] |==|  0.01950
USER: genes 5 Torsion [C]-N--CA-[CB] |==|  0.43611
USER: genes 6 Torsion [N]-CA--C-[OXT] |==|  0.44792
ROOT
ATOM      1  CA  GLY P 572      31.702  74.182  91.971  0.73  6.50 LIG 0.23  C 
ENDROOT
BRANCH 1 2
ATOM      2  N   GLY P 572      31.522  72.757  91.734  0.73  9.23 LIG-0.35  N 
ATOM      3  C   PRO P 571      30.895  71.918  92.568  0.73  8.22 LIG 0.25  C 
ATOM      4 O    PRO P 571      30.347  72.254  93.620  0.73  7.23 LIG-0.27  OA
ATOM      5 H    GLY P 572      31.863  72.496  90.989  0.73  9.23 LIG 0.16  HD
BRANCH 3 6
ATOM      6  CA  PRO P 571      30.848  70.453  92.112  0.73  9.03 LIG 0.35  C 
ATOM      7  N   PRO P 571      29.576  70.102  91.403  0.73 10.09 LIG 0.32  N 
ATOM      8  CD  PRO P 571      30.090  69.375  90.224  0.73  9.16 LIG 0.32  C 
ATOM      9  CG  PRO P 571      31.542  68.982  90.524  0.73  9.15 LIG 0.04  C 
ATOM     10  CB  PRO P 571      32.034  70.136  91.203  0.73  9.69 LIG 0.05  C 
ENDBRANCH 3 6
ENDBRANCH 1 2
BRANCH 1 11
ATOM     11  C   GLY P 572      33.166  74.317  92.386  0.73  5.30 LIG 0.24  C 
ATOM     12  N   ALA P 573      33.869  73.193  92.273  0.73  5.43 LIG-0.35  N 
ATOM     13 H    ALA P 573      33.520  72.453  92.011  0.73  5.43 LIG 0.16  HD
ATOM     14 O    GLY P 572      33.629  75.367  92.840  0.73  3.60 LIG-0.27  OA
BRANCH 12 15
ATOM     15  CA  ALA P 573      35.290  73.082  92.572  0.73  6.34 LIG 0.18  C 
ATOM     16  CB  ALA P 573      35.653  71.652  92.889  0.73  5.76 LIG 0.04  C 
BRANCH 15 17
ATOM     17  C   ALA P 573      36.039  73.547  91.325  0.73  7.45 LIG 0.20  C 
ATOM     18 OXT  ALA P 573      37.237  73.882  91.437  0.73  4.81 LIG-0.65  OA
ATOM     19 O    ALA P 573      35.415  73.556  90.241  0.73  9.82 LIG-0.65  OA
ENDBRANCH 15 17
ENDBRANCH 12 15
ENDBRANCH 1 11
TORSDOF 5
ENDMDL
MODEL 31
USER: ADFR SOLUTION from run 67
USER: SCORE 6.253116 LL:  -1.293 LR:  -4.962 RR:   0.000 FEB:  -3.471
USER: RMSD 3.626367
USER: SEED 66
USER: STATUS no improvement in best in 7 clusters for 5 generations
USER: GENES 7
USER: genes 0 Translation |==|  0.75000 0.53762 0.58332
USER: genes 1 Rotation |==|  0.14152 0.67628 0.32908 0.74739
USER: genes 2 Torsion [C]-CA--N-[C] |==|  0.22425
USER: genes 3 Torsion [N]-C--CA-[N] |==|  0.06303
USER: genes 4 Torsion [N]-CA--C-[N] |==|  0.02713
USER: genes 5 Torsion [C]-N--CA-[CB] |==|  0.47449
USER: genes 6 Torsion [N]-CA--C-[OXT] |==|  0.40519
ROOT
ATOM      1  CA  GLY P 572      37.232  73.222  90.976  0.73  6.50 LIG 0.23  C 
ENDROOT
BRANCH 1 2
ATOM      2  N   GLY P 572      35.919  73.849  90.942  0.73  9.23 LIG-0.35  N 
ATOM      3  C   PRO P 571      35.071  73.901  91.978  0.73  8.22 LIG 0.25  C 
ATOM      4 O    PRO P 571      35.314  73.467  93.106  0.73  7.23 LIG-0.27  OA
ATOM      5 H    GLY P 572      35.732  74.194  90.176  0.73  9.23 LIG 0.16  HD
BRANCH 3 6
ATOM      6  CA  PRO P 571      33.733  74.598  91.695  0.73  9.03 LIG 0.35  C 
ATOM      7  N   PRO P 571      33.380  74.617  90.239  0.73 10.09 LIG 0.32  N 
ATOM      8  CD  PRO P 571      31.968  74.185  90.275  0.73  9.16 LIG 0.32  C 
ATOM      9  CG  PRO P 571      31.473  74.354  91.717  0.73  9.15 LIG 0.04  C 
ATOM     10  CB  PRO P 571      32.604  73.931  92.476  0.73  9.69 LIG 0.05  C 
ENDBRANCH 3 6
ENDBRANCH 1 2
BRANCH 1 11
ATOM     11  C   GLY P 572      36.948  71.733  90.789  0.73  5.30 LIG 0.24  C 
ATOM     12  N   ALA P 573      35.691  71.457  90.452  0.73  5.43 LIG-0.35  N 
ATOM     13 H    ALA P 573      35.089  72.066  90.371  0.73  5.43 LIG 0.16  HD
ATOM     14 O    GLY P 572      37.803  70.867  90.993  0.73  3.60 LIG-0.27  OA
BRANCH 12 15
ATOM     15  CA  ALA P 573      35.189  70.117  90.183  0.73  6.34 LIG 0.18  C 
ATOM     16  CB  ALA P 573      33.686  70.132  90.052  0.73  5.76 LIG 0.04  C 
BRANCH 15 17
ATOM     17  C   ALA P 573      35.824  69.666  88.870  0.73  7.45 LIG 0.20  C 
ATOM     18 OXT  ALA P 573      36.107  68.458  88.726  0.73  4.81 LIG-0.65  OA
ATOM     19 O    ALA P 573      36.018  70.533  87.989  0.73  9.82 LIG-0.65  OA
ENDBRANCH 15 17
ENDBRANCH 12 15
ENDBRANCH 1 11
TORSDOF 5
ENDMDL
MODEL 32
USER: ADFR SOLUTION from run 111
USER: SCORE 6.951387 LL:  -1.998 LR:  -4.954 RR:   0.000 FEB:  -3.463
USER: RMSD 3.290776
USER: SEED 110
USER: STATUS 1 or 2 clusters left
USER: GENES 7
USER: genes 0 Translation |==|  0.65533 0.55158 0.72222
USER: genes 1 Rotation |==|  0.23054 0.57669 0.59976 0.90194
USER: genes 2 Torsion [C]-CA--N-[C] |==|  0.77622
USER: genes 3 Torsion [N]-C--CA-[N] |==|  0.62481
USER: genes 4 Torsion [N]-CA--C-[N] |==|  0.97945
USER: genes 5 Torsion [C]-N--CA-[CB] |==|  0.17632
USER: genes 6 Torsion [N]-CA--C-[OXT] |==|  0.60918
ROOT
ATOM      1  CA  GLY P 572      35.670  73.400  92.851  0.73  6.50 LIG 0.23  C 
ENDROOT
BRANCH 1 2
ATOM      2  N   GLY P 572      34.542  72.500  93.045  0.73  9.23 LIG-0.35  N 
ATOM      3  C   PRO P 571      33.346  72.638  92.458  0.73  8.22 LIG 0.25  C 
ATOM      4 O    PRO P 571      33.063  73.517  91.640  0.73  7.23 LIG-0.27  OA
ATOM      5 H    GLY P 572      34.718  71.854  93.585  0.73  9.23 LIG 0.16  HD
BRANCH 3 6
ATOM      6  CA  PRO P 571      32.305  71.576  92.834  0.73  9.03 LIG 0.35  C 
ATOM      7  N   PRO P 571      31.556  71.045  91.650  0.73 10.09 LIG 0.32  N 
ATOM      8  CD  PRO P 571      31.614  69.589  91.896  0.73  9.16 LIG 0.32  C 
ATOM      9  CG  PRO P 571      31.996  69.387  93.368  0.73  9.15 LIG 0.04  C 
ATOM     10  CB  PRO P 571      32.965  70.413  93.572  0.73  9.69 LIG 0.05  C 
ENDBRANCH 3 6
ENDBRANCH 1 2
BRANCH 1 11
ATOM     11  C   GLY P 572      36.289  72.957  91.527  0.73  5.30 LIG 0.24  C 
ATOM     12  N   ALA P 573      35.764  71.840  91.028  0.73  5.43 LIG-0.35  N 
ATOM     13 H    ALA P 573      35.147  71.398  91.432  0.73  5.43 LIG 0.16  HD
ATOM     14 O    GLY P 572      37.232  73.558  91.006  0.73  3.60 LIG-0.27  OA
BRANCH 12 15
ATOM     15  CA  ALA P 573      36.162  71.243  89.762  0.73  6.34 LIG 0.18  C 
ATOM     16  CB  ALA P 573      37.607  70.809  89.813  0.73  5.76 LIG 0.04  C 
BRANCH 15 17
ATOM     17  C   ALA P 573      35.260  70.030  89.545  0.73  7.45 LIG 0.20  C 
ATOM     18 OXT  ALA P 573      35.758  68.993  89.060  0.73  4.81 LIG-0.65  OA
ATOM     19 O    ALA P 573      34.059  70.130  89.882  0.73  9.82 LIG-0.65  OA
ENDBRANCH 15 17
ENDBRANCH 12 15
ENDBRANCH 1 11
TORSDOF 5
ENDMDL
MODEL 33
USER: ADFR SOLUTION from run 114
USER: SCORE 6.080147 LL:  -1.353 LR:  -4.925 RR:   0.000 FEB:  -3.434
USER: RMSD 2.612746
USER: SEED 113
USER: STATUS no improvement in best in 11 clusters for 5 generations
USER: GENES 7
USER: genes 0 Translation |==|  0.53361 0.29295 0.54345
USER: genes 1 Rotation |==|  0.58647 0.66471 0.39898 0.95298
USER: genes 2 Torsion [C]-CA--N-[C] |==|  0.29907
USER: genes 3 Torsion [N]-C--CA-[N] |==|  0.37983
USER: genes 4 Torsion [N]-CA--C-[N] |==|  0.04317
USER: genes 5 Torsion [C]-N--CA-[CB] |==|  0.30831
USER: genes 6 Torsion [N]-CA--C-[OXT] |==|  0.46688
ROOT
ATOM      1  CA  GLY P 572      33.662  70.102  90.438  0.73  6.50 LIG 0.23  C 
ENDROOT
BRANCH 1 2
ATOM      2  N   GLY P 572      32.431  70.839  90.686  0.73  9.23 LIG-0.35  N 
ATOM      3  C   PRO P 571      31.198  70.357  90.483  0.73  8.22 LIG 0.25  C 
ATOM      4 O    PRO P 571      30.947  69.210  90.107  0.73  7.23 LIG-0.27  OA
ATOM      5 H    GLY P 572      32.571  71.634  90.983  0.73  9.23 LIG 0.16  HD
BRANCH 3 6
ATOM      6  CA  PRO P 571      30.054  71.331  90.796  0.73  9.03 LIG 0.35  C 
ATOM      7  N   PRO P 571      28.973  71.315  89.759  0.73 10.09 LIG 0.32  N 
ATOM      8  CD  PRO P 571      27.761  71.242  90.601  0.73  9.16 LIG 0.32  C 
ATOM      9  CG  PRO P 571      28.167  71.643  92.025  0.73  9.15 LIG 0.04  C 
ATOM     10  CB  PRO P 571      29.444  71.023  92.161  0.73  9.69 LIG 0.05  C 
ENDBRANCH 3 6
ENDBRANCH 1 2
BRANCH 1 11
ATOM     11  C   GLY P 572      34.251  70.752  89.187  0.73  5.30 LIG 0.24  C 
ATOM     12  N   ALA P 573      33.719  71.934  88.887  0.73  5.43 LIG-0.35  N 
ATOM     13 H    ALA P 573      33.083  72.286  89.347  0.73  5.43 LIG 0.16  HD
ATOM     14 O    GLY P 572      35.102  70.192  88.492  0.73  3.60 LIG-0.27  OA
BRANCH 12 15
ATOM     15  CA  ALA P 573      34.141  72.761  87.766  0.73  6.34 LIG 0.18  C 
ATOM     16  CB  ALA P 573      33.061  72.814  86.712  0.73  5.76 LIG 0.04  C 
BRANCH 15 17
ATOM     17  C   ALA P 573      34.396  74.160  88.323  0.73  7.45 LIG 0.20  C 
ATOM     18 OXT  ALA P 573      34.982  74.994  87.601  0.73  4.81 LIG-0.65  OA
ATOM     19 O    ALA P 573      33.988  74.409  89.479  0.73  9.82 LIG-0.65  OA
ENDBRANCH 15 17
ENDBRANCH 12 15
ENDBRANCH 1 11
TORSDOF 5
ENDMDL
MODEL 34
USER: ADFR SOLUTION from run 66
USER: SCORE 6.577353 LL:  -1.688 LR:  -4.895 RR:   0.000 FEB:  -3.404
USER: RMSD 3.441776
USER: SEED 65
USER: STATUS no improvement in best in 11 clusters for 5 generations
USER: GENES 7
USER: genes 0 Translation |==|  0.52856 0.27029 0.49936
USER: genes 1 Rotation |==|  0.83915 0.52989 0.27189 0.78645
USER: genes 2 Torsion [C]-CA--N-[C] |==|  0.78333
USER: genes 3 Torsion [N]-C--CA-[N] |==|  0.75850
USER: genes 4 Torsion [N]-CA--C-[N] |==|  0.96235
USER: genes 5 Torsion [C]-N--CA-[CB] |==|  0.30977
USER: genes 6 Torsion [N]-CA--C-[OXT] |==|  0.24887
ROOT
ATOM      1  CA  GLY P 572      33.578  69.813  89.842  0.73  6.50 LIG 0.23  C 
ENDROOT
BRANCH 1 2
ATOM      2  N   GLY P 572      33.370  70.984  90.682  0.73  9.23 LIG-0.35  N 
ATOM      3  C   PRO P 571      33.716  71.069  91.973  0.73  8.22 LIG 0.25  C 
ATOM      4 O    PRO P 571      34.300  70.184  92.602  0.73  7.23 LIG-0.27  OA
ATOM      5 H    GLY P 572      32.994  71.634  90.262  0.73  9.23 LIG 0.16  HD
BRANCH 3 6
ATOM      6  CA  PRO P 571      33.375  72.399  92.657  0.73  9.03 LIG 0.35  C 
ATOM      7  N   PRO P 571      34.446  73.434  92.492  0.73 10.09 LIG 0.32  N 
ATOM      8  CD  PRO P 571      33.652  74.617  92.101  0.73  9.16 LIG 0.32  C 
ATOM      9  CG  PRO P 571      32.191  74.332  92.470  0.73  9.15 LIG 0.04  C 
ATOM     10  CB  PRO P 571      32.055  72.954  92.125  0.73  9.69 LIG 0.05  C 
ENDBRANCH 3 6
ENDBRANCH 1 2
BRANCH 1 11
ATOM     11  C   GLY P 572      35.061  69.863  89.478  0.73  5.30 LIG 0.24  C 
ATOM     12  N   ALA P 573      35.648  71.026  89.748  0.73  5.43 LIG-0.35  N 
ATOM     13 H    ALA P 573      35.220  71.696  90.077  0.73  5.43 LIG 0.16  HD
ATOM     14 O    GLY P 572      35.637  68.921  88.928  0.73  3.60 LIG-0.27  OA
BRANCH 12 15
ATOM     15  CA  ALA P 573      37.060  71.303  89.525  0.73  6.34 LIG 0.18  C 
ATOM     16  CB  ALA P 573      37.232  72.305  88.409  0.73  5.76 LIG 0.04  C 
BRANCH 15 17
ATOM     17  C   ALA P 573      37.607  71.875  90.830  0.73  7.45 LIG 0.20  C 
ATOM     18 OXT  ALA P 573      38.066  71.087  91.683  0.73  4.81 LIG-0.65  OA
ATOM     19 O    ALA P 573      37.582  73.117  90.977  0.73  9.82 LIG-0.65  OA
ENDBRANCH 15 17
ENDBRANCH 12 15
ENDBRANCH 1 11
TORSDOF 5
ENDMDL
MODEL 35
USER: ADFR SOLUTION from run 84
USER: SCORE 6.109941 LL:  -1.356 LR:  -4.895 RR:   0.000 FEB:  -3.404
USER: RMSD 2.988221
USER: SEED 83
USER: STATUS no improvement in best in 6 clusters for 5 generations
USER: GENES 7
USER: genes 0 Translation |==|  0.46679 0.34715 0.80298
USER: genes 1 Rotation |==|  0.43956 0.41468 0.39407 0.97733
USER: genes 2 Torsion [C]-CA--N-[C] |==|  0.19910
USER: genes 3 Torsion [N]-C--CA-[N] |==|  0.68487
USER: genes 4 Torsion [N]-CA--C-[N] |==|  0.11667
USER: genes 5 Torsion [C]-N--CA-[CB] |==|  0.30528
USER: genes 6 Torsion [N]-CA--C-[OXT] |==|  0.48344
ROOT
ATOM      1  CA  GLY P 572      32.559  70.793  93.941  0.73  6.50 LIG 0.23  C 
ENDROOT
BRANCH 1 2
ATOM      2  N   GLY P 572      31.783  71.069  92.742  0.73  9.23 LIG-0.35  N 
ATOM      3  C   PRO P 571      31.528  70.177  91.775  0.73  8.22 LIG 0.25  C 
ATOM      4 O    PRO P 571      31.878  68.995  91.802  0.73  7.23 LIG-0.27  OA
ATOM      5 H    GLY P 572      31.494  71.879  92.708  0.73  9.23 LIG 0.16  HD
BRANCH 3 6
ATOM      6  CA  PRO P 571      30.705  70.708  90.594  0.73  9.03 LIG 0.35  C 
ATOM      7  N   PRO P 571      29.349  70.079  90.497  0.73 10.09 LIG 0.32  N 
ATOM      8  CD  PRO P 571      28.491  71.264  90.291  0.73  9.16 LIG 0.32  C 
ATOM      9  CG  PRO P 571      29.402  72.421  89.861  0.73  9.15 LIG 0.04  C 
ATOM     10  CB  PRO P 571      30.549  72.224  90.685  0.73  9.69 LIG 0.05  C 
ENDBRANCH 3 6
ENDBRANCH 1 2
BRANCH 1 11
ATOM     11  C   GLY P 572      33.999  70.674  93.445  0.73  5.30 LIG 0.24  C 
ATOM     12  N   ALA P 573      34.339  71.587  92.540  0.73  5.43 LIG-0.35  N 
ATOM     13 H    ALA P 573      33.786  72.176  92.246  0.73  5.43 LIG 0.16  HD
ATOM     14 O    GLY P 572      34.751  69.769  93.816  0.73  3.60 LIG-0.27  OA
BRANCH 12 15
ATOM     15  CA  ALA P 573      35.665  71.699  91.948  0.73  6.34 LIG 0.18  C 
ATOM     16  CB  ALA P 573      35.632  71.285  90.497  0.73  5.76 LIG 0.04  C 
BRANCH 15 17
ATOM     17  C   ALA P 573      36.074  73.166  92.064  0.73  7.45 LIG 0.20  C 
ATOM     18 OXT  ALA P 573      37.231  73.493  91.723  0.73  4.81 LIG-0.65  OA
ATOM     19 O    ALA P 573      35.220  73.978  92.483  0.73  9.82 LIG-0.65  OA
ENDBRANCH 15 17
ENDBRANCH 12 15
ENDBRANCH 1 11
TORSDOF 5
ENDMDL
MODEL 36
USER: ADFR SOLUTION from run 117
USER: SCORE 6.740716 LL:  -1.895 LR:  -4.872 RR:   0.000 FEB:  -3.381
USER: RMSD 4.575141
USER: SEED 116
USER: STATUS no improvement in best in 17 clusters for 5 generations
USER: GENES 7
USER: genes 0 Translation |==|  0.66349 0.25499 0.41922
USER: genes 1 Rotation |==|  0.64337 0.84069 0.27527 0.75075
USER: genes 2 Torsion [C]-CA--N-[C] |==|  0.79908
USER: genes 3 Torsion [N]-C--CA-[N] |==|  0.68484
USER: genes 4 Torsion [N]-CA--C-[N] |==|  0.96252
USER: genes 5 Torsion [C]-N--CA-[CB] |==|  0.25958
USER: genes 6 Torsion [N]-CA--C-[OXT] |==|  0.61245
ROOT
ATOM      1  CA  GLY P 572      35.805  69.618  88.760  0.73  6.50 LIG 0.23  C 
ENDROOT
BRANCH 1 2
ATOM      2  N   GLY P 572      35.942  70.447  89.949  0.73  9.23 LIG-0.35  N 
ATOM      3  C   PRO P 571      37.008  71.207  90.231  0.73  8.22 LIG 0.25  C 
ATOM      4 O    PRO P 571      37.989  71.339  89.496  0.73  7.23 LIG-0.27  OA
ATOM      5 H    GLY P 572      35.257  70.404  90.468  0.73  9.23 LIG 0.16  HD
BRANCH 3 6
ATOM      6  CA  PRO P 571      36.933  71.976  91.556  0.73  9.03 LIG 0.35  C 
ATOM      7  N   PRO P 571      36.863  73.461  91.367  0.73 10.09 LIG 0.32  N 
ATOM      8  CD  PRO P 571      35.763  73.821  92.286  0.73  9.16 LIG 0.32  C 
ATOM      9  CG  PRO P 571      35.557  72.639  93.242  0.73  9.15 LIG 0.04  C 
ATOM     10  CB  PRO P 571      35.729  71.518  92.377  0.73  9.69 LIG 0.05  C 
ENDBRANCH 3 6
ENDBRANCH 1 2
BRANCH 1 11
ATOM     11  C   GLY P 572      35.586  70.614  87.623  0.73  5.30 LIG 0.24  C 
ATOM     12  N   ALA P 573      35.299  71.848  88.030  0.73  5.43 LIG-0.35  N 
ATOM     13 H    ALA P 573      35.222  72.056  88.860  0.73  5.43 LIG 0.16  HD
ATOM     14 O    GLY P 572      35.616  70.278  86.437  0.73  3.60 LIG-0.27  OA
BRANCH 12 15
ATOM     15  CA  ALA P 573      35.086  72.977  87.135  0.73  6.34 LIG 0.18  C 
ATOM     16  CB  ALA P 573      33.617  73.134  86.823  0.73  5.76 LIG 0.04  C 
BRANCH 15 17
ATOM     17  C   ALA P 573      35.602  74.217  87.861  0.73  7.45 LIG 0.20  C 
ATOM     18 OXT  ALA P 573      34.947  75.277  87.774  0.73  4.81 LIG-0.65  OA
ATOM     19 O    ALA P 573      36.657  74.106  88.525  0.73  9.82 LIG-0.65  OA
ENDBRANCH 15 17
ENDBRANCH 12 15
ENDBRANCH 1 11
TORSDOF 5
ENDMDL
MODEL 37
USER: ADFR SOLUTION from run 173
USER: SCORE 6.023516 LL:  -1.264 LR:  -4.842 RR:   0.000 FEB:  -3.351
USER: RMSD 4.441074
USER: SEED 172
USER: STATUS no improvement in best in 15 clusters for 5 generations
USER: GENES 7
USER: genes 0 Translation |==|  0.75446 0.42255 0.55910
USER: genes 1 Rotation |==|  0.72911 0.50229 0.80368 0.82447
USER: genes 2 Torsion [C]-CA--N-[C] |==|  0.75586
USER: genes 3 Torsion [N]-C--CA-[N] |==|  0.78706
USER: genes 4 Torsion [N]-CA--C-[N] |==|  0.04993
USER: genes 5 Torsion [C]-N--CA-[CB] |==|  0.40034
USER: genes 6 Torsion [N]-CA--C-[OXT] |==|  0.50419
ROOT
ATOM      1  CA  GLY P 572      37.306  71.755  90.649  0.73  6.50 LIG 0.23  C 
ENDROOT
BRANCH 1 2
ATOM      2  N   GLY P 572      36.470  71.249  89.570  0.73  9.23 LIG-0.35  N 
ATOM      3  C   PRO P 571      35.417  70.438  89.735  0.73  8.22 LIG 0.25  C 
ATOM      4 O    PRO P 571      34.990  70.057  90.827  0.73  7.23 LIG-0.27  OA
ATOM      5 H    GLY P 572      36.721  71.525  88.794  0.73  9.23 LIG 0.16  HD
BRANCH 3 6
ATOM      6  CA  PRO P 571      34.703  70.019  88.443  0.73  9.03 LIG 0.35  C 
ATOM      7  N   PRO P 571      33.831  71.100  87.880  0.73 10.09 LIG 0.32  N 
ATOM      8  CD  PRO P 571      34.216  71.073  86.454  0.73  9.16 LIG 0.32  C 
ATOM      9  CG  PRO P 571      34.938  69.744  86.199  0.73  9.15 LIG 0.04  C 
ATOM     10  CB  PRO P 571      35.715  69.589  87.384  0.73  9.69 LIG 0.05  C 
ENDBRANCH 3 6
ENDBRANCH 1 2
BRANCH 1 11
ATOM     11  C   GLY P 572      36.610  73.037  91.102  0.73  5.30 LIG 0.24  C 
ATOM     12  N   ALA P 573      35.341  73.133  90.714  0.73  5.43 LIG-0.35  N 
ATOM     13 H    ALA P 573      34.957  72.533  90.232  0.73  5.43 LIG 0.16  HD
ATOM     14 O    GLY P 572      37.202  73.925  91.721  0.73  3.60 LIG-0.27  OA
BRANCH 12 15
ATOM     15  CA  ALA P 573      34.462  74.242  91.055  0.73  6.34 LIG 0.18  C 
ATOM     16  CB  ALA P 573      33.531  74.550  89.907  0.73  5.76 LIG 0.04  C 
BRANCH 15 17
ATOM     17  C   ALA P 573      33.657  73.806  92.278  0.73  7.45 LIG 0.20  C 
ATOM     18 OXT  ALA P 573      32.804  74.590  92.743  0.73  4.81 LIG-0.65  OA
ATOM     19 O    ALA P 573      33.884  72.669  92.748  0.73  9.82 LIG-0.65  OA
ENDBRANCH 15 17
ENDBRANCH 12 15
ENDBRANCH 1 11
TORSDOF 5
ENDMDL
MODEL 38
USER: ADFR SOLUTION from run 64
USER: SCORE 6.429283 LL:  -1.693 LR:  -4.827 RR:   0.000 FEB:  -3.336
USER: RMSD 3.373094
USER: SEED 63
USER: STATUS no improvement in best in 15 clusters for 5 generations
USER: GENES 7
USER: genes 0 Translation |==|  0.53413 0.64706 0.44157
USER: genes 1 Rotation |==|  0.09293 0.54278 0.60127 0.76871
USER: genes 2 Torsion [C]-CA--N-[C] |==|  0.73550
USER: genes 3 Torsion [N]-C--CA-[N] |==|  0.44186
USER: genes 4 Torsion [N]-CA--C-[N] |==|  0.95080
USER: genes 5 Torsion [C]-N--CA-[CB] |==|  0.17193
USER: genes 6 Torsion [N]-CA--C-[OXT] |==|  0.52010
ROOT
ATOM      1  CA  GLY P 572      33.670  74.617  89.062  0.73  6.50 LIG 0.23  C 
ENDROOT
BRANCH 1 2
ATOM      2  N   GLY P 572      32.732  73.760  89.773  0.73  9.23 LIG-0.35  N 
ATOM      3  C   PRO P 571      31.547  73.363  89.292  0.73  8.22 LIG 0.25  C 
ATOM      4 O    PRO P 571      31.121  73.631  88.167  0.73  7.23 LIG-0.27  OA
ATOM      5 H    GLY P 572      33.016  73.526  90.551  0.73  9.23 LIG 0.16  HD
BRANCH 3 6
ATOM      6  CA  PRO P 571      30.721  72.478  90.236  0.73  9.03 LIG 0.35  C 
ATOM      7  N   PRO P 571      29.260  72.471  89.901  0.73 10.09 LIG 0.32  N 
ATOM      8  CD  PRO P 571      28.956  71.026  89.954  0.73  9.16 LIG 0.32  C 
ATOM      9  CG  PRO P 571      30.102  70.343  90.710  0.73  9.15 LIG 0.04  C 
ATOM     10  CB  PRO P 571      31.245  71.044  90.226  0.73  9.69 LIG 0.05  C 
ENDBRANCH 3 6
ENDBRANCH 1 2
BRANCH 1 11
ATOM     11  C   GLY P 572      34.639  73.647  88.389  0.73  5.30 LIG 0.24  C 
ATOM     12  N   ALA P 573      34.621  72.418  88.900  0.73  5.43 LIG-0.35  N 
ATOM     13 H    ALA P 573      34.122  72.201  89.566  0.73  5.43 LIG 0.16  HD
ATOM     14 O    GLY P 572      35.408  73.999  87.491  0.73  3.60 LIG-0.27  OA
BRANCH 12 15
ATOM     15  CA  ALA P 573      35.427  71.312  88.403  0.73  6.34 LIG 0.18  C 
ATOM     16  CB  ALA P 573      36.897  71.624  88.545  0.73  5.76 LIG 0.04  C 
BRANCH 15 17
ATOM     17  C   ALA P 573      35.067  70.093  89.249  0.73  7.45 LIG 0.20  C 
ATOM     18 OXT  ALA P 573      35.732  69.046  89.101  0.73  4.81 LIG-0.65  OA
ATOM     19 O    ALA P 573      34.127  70.207  90.065  0.73  9.82 LIG-0.65  OA
ENDBRANCH 15 17
ENDBRANCH 12 15
ENDBRANCH 1 11
TORSDOF 5
ENDMDL
MODEL 39
USER: ADFR SOLUTION from run 43
USER: SCORE 6.549645 LL:  -1.769 LR:  -4.832 RR:   0.000 FEB:  -3.341
USER: RMSD 3.732294
USER: SEED 42
USER: STATUS no improvement in best in 22 clusters for 5 generations
USER: GENES 7
USER: genes 0 Translation |==|  0.73066 0.60157 0.54354
USER: genes 1 Rotation |==|  0.13971 0.53558 0.22843 0.71254
USER: genes 2 Torsion [C]-CA--N-[C] |==|  0.19916
USER: genes 3 Torsion [N]-C--CA-[N] |==|  0.09664
USER: genes 4 Torsion [N]-CA--C-[N] |==|  0.02266
USER: genes 5 Torsion [C]-N--CA-[CB] |==|  0.27700
USER: genes 6 Torsion [N]-CA--C-[OXT] |==|  0.41500
ROOT
ATOM      1  CA  GLY P 572      36.913  74.037  90.439  0.73  6.50 LIG 0.23  C 
ENDROOT
BRANCH 1 2
ATOM      2  N   GLY P 572      35.786  74.240  89.541  0.73  9.23 LIG-0.35  N 
ATOM      3  C   PRO P 571      34.502  74.275  89.922  0.73  8.22 LIG 0.25  C 
ATOM      4 O    PRO P 571      34.115  74.189  91.089  0.73  7.23 LIG-0.27  OA
ATOM      5 H    GLY P 572      36.025  74.339  88.720  0.73  9.23 LIG 0.16  HD
BRANCH 3 6
ATOM      6  CA  PRO P 571      33.487  74.480  88.789  0.73  9.03 LIG 0.35  C 
ATOM      7  N   PRO P 571      33.898  73.818  87.509  0.73 10.09 LIG 0.32  N 
ATOM      8  CD  PRO P 571      32.644  73.141  87.116  0.73  9.16 LIG 0.32  C 
ATOM      9  CG  PRO P 571      31.506  73.777  87.923  0.73  9.15 LIG 0.04  C 
ATOM     10  CB  PRO P 571      32.110  73.965  89.202  0.73  9.69 LIG 0.05  C 
ENDBRANCH 3 6
ENDBRANCH 1 2
BRANCH 1 11
ATOM     11  C   GLY P 572      36.821  72.566  90.840  0.73  5.30 LIG 0.24  C 
ATOM     12  N   ALA P 573      35.908  71.874  90.163  0.73  5.43 LIG-0.35  N 
ATOM     13 H    ALA P 573      35.400  72.234  89.570  0.73  5.43 LIG 0.16  HD
ATOM     14 O    GLY P 572      37.500  72.088  91.753  0.73  3.60 LIG-0.27  OA
BRANCH 12 15
ATOM     15  CA  ALA P 573      35.662  70.450  90.341  0.73  6.34 LIG 0.18  C 
ATOM     16  CB  ALA P 573      34.457  70.228  91.223  0.73  5.76 LIG 0.04  C 
BRANCH 15 17
ATOM     17  C   ALA P 573      35.406  69.872  88.951  0.73  7.45 LIG 0.20  C 
ATOM     18 OXT  ALA P 573      35.732  68.688  88.726  0.73  4.81 LIG-0.65  OA
ATOM     19 O    ALA P 573      34.863  70.615  88.103  0.73  9.82 LIG-0.65  OA
ENDBRANCH 15 17
ENDBRANCH 12 15
ENDBRANCH 1 11
TORSDOF 5
ENDMDL
MODEL 40
USER: ADFR SOLUTION from run 169
USER: SCORE 6.709571 LL:  -1.934 LR:  -4.807 RR:   0.000 FEB:  -3.315
USER: RMSD 3.156866
USER: SEED 168
USER: STATUS no improvement in best in 12 clusters for 5 generations
USER: GENES 7
USER: genes 0 Translation |==|  0.73905 0.41174 0.72122
USER: genes 1 Rotation |==|  0.42146 0.62041 0.33715 0.95035
USER: genes 2 Torsion [C]-CA--N-[C] |==|  0.79998
USER: genes 3 Torsion [N]-C--CA-[N] |==|  0.68854
USER: genes 4 Torsion [N]-CA--C-[N] |==|  0.94228
USER: genes 5 Torsion [C]-N--CA-[CB] |==|  0.35119
USER: genes 6 Torsion [N]-CA--C-[OXT] |==|  0.44056
ROOT
ATOM      1  CA  GLY P 572      37.051  71.617  92.837  0.73  6.50 LIG 0.23  C 
ENDROOT
BRANCH 1 2
ATOM      2  N   GLY P 572      35.852  72.384  92.536  0.73  9.23 LIG-0.35  N 
ATOM      3  C   PRO P 571      35.847  73.628  92.038  0.73  8.22 LIG 0.25  C 
ATOM      4 O    PRO P 571      36.857  74.262  91.726  0.73  7.23 LIG-0.27  OA
ATOM      5 H    GLY P 572      35.127  71.956  92.710  0.73  9.23 LIG 0.16  HD
BRANCH 3 6
ATOM      6  CA  PRO P 571      34.457  74.242  91.823  0.73  9.03 LIG 0.35  C 
ATOM      7  N   PRO P 571      34.122  74.437  90.376  0.73 10.09 LIG 0.32  N 
ATOM      8  CD  PRO P 571      32.752  73.887  90.317  0.73  9.16 LIG 0.32  C 
ATOM      9  CG  PRO P 571      32.227  73.807  91.756  0.73  9.15 LIG 0.04  C 
ATOM     10  CB  PRO P 571      33.381  73.378  92.476  0.73  9.69 LIG 0.05  C 
ENDBRANCH 3 6
ENDBRANCH 1 2
BRANCH 1 11
ATOM     11  C   GLY P 572      37.619  71.242  91.470  0.73  5.30 LIG 0.24  C 
ATOM     12  N   ALA P 573      36.732  71.293  90.480  0.73  5.43 LIG-0.35  N 
ATOM     13 H    ALA P 573      35.906  71.497  90.608  0.73  5.43 LIG 0.16  HD
ATOM     14 O    GLY P 572      38.786  70.870  91.320  0.73  3.60 LIG-0.27  OA
BRANCH 12 15
ATOM     15  CA  ALA P 573      37.043  71.016  89.085  0.73  6.34 LIG 0.18  C 
ATOM     16  CB  ALA P 573      36.111  69.964  88.534  0.73  5.76 LIG 0.04  C 
BRANCH 15 17
ATOM     17  C   ALA P 573      36.858  72.328  88.325  0.73  7.45 LIG 0.20  C 
ATOM     18 OXT  ALA P 573      37.434  72.468  87.226  0.73  4.81 LIG-0.65  OA
ATOM     19 O    ALA P 573      36.121  73.198  88.838  0.73  9.82 LIG-0.65  OA
ENDBRANCH 15 17
ENDBRANCH 12 15
ENDBRANCH 1 11
TORSDOF 5
ENDMDL
MODEL 41
USER: ADFR SOLUTION from run 28
USER: SCORE 6.275336 LL:  -1.541 LR:  -4.799 RR:   0.000 FEB:  -3.308
USER: RMSD 1.474929
USER: SEED 27
USER: STATUS no improvement in best in 17 clusters for 5 generations
USER: GENES 7
USER: genes 0 Translation |==|  0.58053 0.40855 0.68470
USER: genes 1 Rotation |==|  0.55125 0.48581 0.58493 0.98986
USER: genes 2 Torsion [C]-CA--N-[C] |==|  0.76111
USER: genes 3 Torsion [N]-C--CA-[N] |==|  0.11232
USER: genes 4 Torsion [N]-CA--C-[N] |==|  0.93942
USER: genes 5 Torsion [C]-N--CA-[CB] |==|  0.26219
USER: genes 6 Torsion [N]-CA--C-[OXT] |==|  0.53032
ROOT
ATOM      1  CA  GLY P 572      34.436  71.576  92.344  0.73  6.50 LIG 0.23  C 
ENDROOT
BRANCH 1 2
ATOM      2  N   GLY P 572      33.281  71.427  91.471  0.73  9.23 LIG-0.35  N 
ATOM      3  C   PRO P 571      32.160  72.156  91.557  0.73  8.22 LIG 0.25  C 
ATOM      4 O    PRO P 571      31.983  73.079  92.354  0.73  7.23 LIG-0.27  OA
ATOM      5 H    GLY P 572      33.386  70.812  90.879  0.73  9.23 LIG 0.16  HD
BRANCH 3 6
ATOM      6  CA  PRO P 571      31.068  71.801  90.539  0.73  9.03 LIG 0.35  C 
ATOM      7  N   PRO P 571      30.929  70.325  90.322  0.73 10.09 LIG 0.32  N 
ATOM      8  CD  PRO P 571      29.463  70.155  90.402  0.73  9.16 LIG 0.32  C 
ATOM      9  CG  PRO P 571      28.830  71.542  90.232  0.73  9.15 LIG 0.04  C 
ATOM     10  CB  PRO P 571      29.721  72.374  90.972  0.73  9.69 LIG 0.05  C 
ENDBRANCH 3 6
ENDBRANCH 1 2
BRANCH 1 11
ATOM     11  C   GLY P 572      35.265  72.683  91.696  0.73  5.30 LIG 0.24  C 
ATOM     12  N   ALA P 573      35.017  72.860  90.401  0.73  5.43 LIG-0.35  N 
ATOM     13 H    ALA P 573      34.455  72.375  89.966  0.73  5.43 LIG 0.16  HD
ATOM     14 O    GLY P 572      36.128  73.310  92.316  0.73  3.60 LIG-0.27  OA
BRANCH 12 15
ATOM     15  CA  ALA P 573      35.653  73.877  89.576  0.73  6.34 LIG 0.18  C 
ATOM     16  CB  ALA P 573      36.859  73.307  88.870  0.73  5.76 LIG 0.04  C 
BRANCH 15 17
ATOM     17  C   ALA P 573      34.612  74.327  88.553  0.73  7.45 LIG 0.20  C 
ATOM     18 OXT  ALA P 573      34.982  75.047  87.601  0.73  4.81 LIG-0.65  OA
ATOM     19 O    ALA P 573      33.434  73.938  88.711  0.73  9.82 LIG-0.65  OA
ENDBRANCH 15 17
ENDBRANCH 12 15
ENDBRANCH 1 11
TORSDOF 5
ENDMDL
MODEL 42
USER: ADFR SOLUTION from run 113
USER: SCORE 5.962517 LL:  -1.324 LR:  -4.768 RR:   0.000 FEB:  -3.277
USER: RMSD 3.486878
USER: SEED 112
USER: STATUS no improvement in best in 17 clusters for 5 generations
USER: GENES 7
USER: genes 0 Translation |==|  0.66650 0.29883 0.40764
USER: genes 1 Rotation |==|  0.89836 0.47236 0.55533 0.79578
USER: genes 2 Torsion [C]-CA--N-[C] |==|  0.17513
USER: genes 3 Torsion [N]-C--CA-[N] |==|  0.08905
USER: genes 4 Torsion [N]-CA--C-[N] |==|  0.11667
USER: genes 5 Torsion [C]-N--CA-[CB] |==|  0.90414
USER: genes 6 Torsion [N]-CA--C-[OXT] |==|  0.23418
ROOT
ATOM      1  CA  GLY P 572      35.854  70.177  88.604  0.73  6.50 LIG 0.23  C 
ENDROOT
BRANCH 1 2
ATOM      2  N   GLY P 572      34.570  70.861  88.612  0.73  9.23 LIG-0.35  N 
ATOM      3  C   PRO P 571      34.392  72.154  88.309  0.73  8.22 LIG 0.25  C 
ATOM      4 O    PRO P 571      35.286  72.917  87.938  0.73  7.23 LIG-0.27  OA
ATOM      5 H    GLY P 572      33.917  70.347  88.834  0.73  9.23 LIG 0.16  HD
BRANCH 3 6
ATOM      6  CA  PRO P 571      32.945  72.657  88.409  0.73  9.03 LIG 0.35  C 
ATOM      7  N   PRO P 571      32.156  71.962  89.476  0.73 10.09 LIG 0.32  N 
ATOM      8  CD  PRO P 571      31.509  73.105  90.153  0.73  9.16 LIG 0.32  C 
ATOM      9  CG  PRO P 571      31.607  74.311  89.211  0.73  9.15 LIG 0.04  C 
ATOM     10  CB  PRO P 571      32.916  74.162  88.664  0.73  9.69 LIG 0.05  C 
ENDBRANCH 3 6
ENDBRANCH 1 2
BRANCH 1 11
ATOM     11  C   GLY P 572      36.671  70.887  89.682  0.73  5.30 LIG 0.24  C 
ATOM     12  N   ALA P 573      35.988  71.161  90.790  0.73  5.43 LIG-0.35  N 
ATOM     13 H    ALA P 573      35.153  70.974  90.877  0.73  5.43 LIG 0.16  HD
ATOM     14 O    GLY P 572      37.845  71.223  89.505  0.73  3.60 LIG-0.27  OA
BRANCH 12 15
ATOM     15  CA  ALA P 573      36.559  71.798  91.968  0.73  6.34 LIG 0.18  C 
ATOM     16  CB  ALA P 573      37.992  71.367  92.160  0.73  5.76 LIG 0.04  C 
BRANCH 15 17
ATOM     17  C   ALA P 573      36.494  73.305  91.727  0.73  7.45 LIG 0.20  C 
ATOM     18 OXT  ALA P 573      35.435  73.910  91.997  0.73  4.81 LIG-0.65  OA
ATOM     19 O    ALA P 573      37.519  73.867  91.281  0.73  9.82 LIG-0.65  OA
ENDBRANCH 15 17
ENDBRANCH 12 15
ENDBRANCH 1 11
TORSDOF 5
ENDMDL
MODEL 43
USER: ADFR SOLUTION from run 19
USER: SCORE 6.238360 LL:  -1.567 LR:  -4.737 RR:   0.000 FEB:  -3.245
USER: RMSD 1.851434
USER: SEED 18
USER: STATUS no improvement in best in 8 clusters for 5 generations
USER: GENES 7
USER: genes 0 Translation |==|  0.66347 0.39850 0.65489
USER: genes 1 Rotation |==|  0.60576 0.59214 0.49616 0.97990
USER: genes 2 Torsion [C]-CA--N-[C] |==|  0.81106
USER: genes 3 Torsion [N]-C--CA-[N] |==|  0.14353
USER: genes 4 Torsion [N]-CA--C-[N] |==|  0.91181
USER: genes 5 Torsion [C]-N--CA-[CB] |==|  0.23884
USER: genes 6 Torsion [N]-CA--C-[OXT] |==|  0.53705
ROOT
ATOM      1  CA  GLY P 572      35.804  71.448  91.942  0.73  6.50 LIG 0.23  C 
ENDROOT
BRANCH 1 2
ATOM      2  N   GLY P 572      34.401  71.777  91.738  0.73  9.23 LIG-0.35  N 
ATOM      3  C   PRO P 571      33.815  72.910  92.147  0.73  8.22 LIG 0.25  C 
ATOM      4 O    PRO P 571      34.401  73.841  92.703  0.73  7.23 LIG-0.27  OA
ATOM      5 H    GLY P 572      33.970  71.160  91.320  0.73  9.23 LIG 0.16  HD
BRANCH 3 6
ATOM      6  CA  PRO P 571      32.317  73.022  91.836  0.73  9.03 LIG 0.35  C 
ATOM      7  N   PRO P 571      31.533  71.831  92.298  0.73 10.09 LIG 0.32  N 
ATOM      8  CD  PRO P 571      30.389  72.478  92.972  0.73  9.16 LIG 0.32  C 
ATOM      9  CG  PRO P 571      30.346  73.938  92.505  0.73  9.15 LIG 0.04  C 
ATOM     10  CB  PRO P 571      31.730  74.283  92.465  0.73  9.69 LIG 0.05  C 
ENDBRANCH 3 6
ENDBRANCH 1 2
BRANCH 1 11
ATOM     11  C   GLY P 572      36.561  72.438  91.059  0.73  5.30 LIG 0.24  C 
ATOM     12  N   ALA P 573      35.908  72.790  89.954  0.73  5.43 LIG-0.35  N 
ATOM     13 H    ALA P 573      35.137  72.467  89.749  0.73  5.43 LIG 0.16  HD
ATOM     14 O    GLY P 572      37.702  72.824  91.327  0.73  3.60 LIG-0.27  OA
BRANCH 12 15
ATOM     15  CA  ALA P 573      36.407  73.747  88.977  0.73  6.34 LIG 0.18  C 
ATOM     16  CB  ALA P 573      37.298  73.059  87.971  0.73  5.76 LIG 0.04  C 
BRANCH 15 17
ATOM     17  C   ALA P 573      35.185  74.336  88.275  0.73  7.45 LIG 0.20  C 
ATOM     18 OXT  ALA P 573      35.356  74.992  87.227  0.73  4.81 LIG-0.65  OA
ATOM     19 O    ALA P 573      34.062  74.119  88.782  0.73  9.82 LIG-0.65  OA
ENDBRANCH 15 17
ENDBRANCH 12 15
ENDBRANCH 1 11
TORSDOF 5
ENDMDL
MODEL 44
USER: ADFR SOLUTION from run 155
USER: SCORE 6.318477 LL:  -1.600 LR:  -4.740 RR:   0.000 FEB:  -3.248
USER: RMSD 3.334391
USER: SEED 154
USER: STATUS no improvement in best in 22 clusters for 5 generations
USER: GENES 7
USER: genes 0 Translation |==|  0.51684 0.29412 0.43245
USER: genes 1 Rotation |==|  0.87185 0.42302 0.36067 0.79392
USER: genes 2 Torsion [C]-CA--N-[C] |==|  0.25283
USER: genes 3 Torsion [N]-C--CA-[N] |==|  0.75771
USER: genes 4 Torsion [N]-CA--C-[N] |==|  0.00455
USER: genes 5 Torsion [C]-N--CA-[CB] |==|  0.16357
USER: genes 6 Torsion [N]-CA--C-[OXT] |==|  0.60809
ROOT
ATOM      1  CA  GLY P 572      33.385  70.117  88.939  0.73  6.50 LIG 0.23  C 
ENDROOT
BRANCH 1 2
ATOM      2  N   GLY P 572      32.901  71.399  89.429  0.73  9.23 LIG-0.35  N 
ATOM      3  C   PRO P 571      32.956  72.549  88.743  0.73  8.22 LIG 0.25  C 
ATOM      4 O    PRO P 571      33.379  72.657  87.590  0.73  7.23 LIG-0.27  OA
ATOM      5 H    GLY P 572      32.567  71.351  90.220  0.73  9.23 LIG 0.16  HD
BRANCH 3 6
ATOM      6  CA  PRO P 571      32.402  73.777  89.477  0.73  9.03 LIG 0.35  C 
ATOM      7  N   PRO P 571      30.927  73.956  89.287  0.73 10.09 LIG 0.32  N 
ATOM      8  CD  PRO P 571      30.483  74.213  90.673  0.73  9.16 LIG 0.32  C 
ATOM      9  CG  PRO P 571      31.725  74.586  91.491  0.73  9.15 LIG 0.04  C 
ATOM     10  CB  PRO P 571      32.710  73.695  90.970  0.73  9.69 LIG 0.05  C 
ENDBRANCH 3 6
ENDBRANCH 1 2
BRANCH 1 11
ATOM     11  C   GLY P 572      34.835  70.050  89.413  0.73  5.30 LIG 0.24  C 
ATOM     12  N   ALA P 573      35.222  71.103  90.129  0.73  5.43 LIG-0.35  N 
ATOM     13 H    ALA P 573      34.704  71.770  90.289  0.73  5.43 LIG 0.16  HD
ATOM     14 O    GLY P 572      35.589  69.125  89.101  0.73  3.60 LIG-0.27  OA
BRANCH 12 15
ATOM     15  CA  ALA P 573      36.544  71.250  90.720  0.73  6.34 LIG 0.18  C 
ATOM     16  CB  ALA P 573      37.610  71.199  89.652  0.73  5.76 LIG 0.04  C 
BRANCH 15 17
ATOM     17  C   ALA P 573      36.566  72.610  91.415  0.73  7.45 LIG 0.20  C 
ATOM     18 OXT  ALA P 573      37.607  73.297  91.351  0.73  4.81 LIG-0.65  OA
ATOM     19 O    ALA P 573      35.527  72.979  92.005  0.73  9.82 LIG-0.65  OA
ENDBRANCH 15 17
ENDBRANCH 12 15
ENDBRANCH 1 11
TORSDOF 5
ENDMDL
MODEL 45
USER: ADFR SOLUTION from run 65
USER: SCORE 6.453189 LL:  -1.771 LR:  -4.697 RR:   0.000 FEB:  -3.206
USER: RMSD 4.342610
USER: SEED 64
USER: STATUS no improvement in best in 17 clusters for 5 generations
USER: GENES 7
USER: genes 0 Translation |==|  0.68547 0.27629 0.40976
USER: genes 1 Rotation |==|  0.74373 0.37259 0.69844 0.86740
USER: genes 2 Torsion [C]-CA--N-[C] |==|  0.79361
USER: genes 3 Torsion [N]-C--CA-[N] |==|  0.69727
USER: genes 4 Torsion [N]-CA--C-[N] |==|  0.96636
USER: genes 5 Torsion [C]-N--CA-[CB] |==|  0.22607
USER: genes 6 Torsion [N]-CA--C-[OXT] |==|  0.26033
ROOT
ATOM      1  CA  GLY P 572      36.167  69.890  88.633  0.73  6.50 LIG 0.23  C 
ENDROOT
BRANCH 1 2
ATOM      2  N   GLY P 572      35.411  70.235  87.438  0.73  9.23 LIG-0.35  N 
ATOM      3  C   PRO P 571      34.089  70.448  87.406  0.73  8.22 LIG 0.25  C 
ATOM      4 O    PRO P 571      33.352  70.428  88.394  0.73  7.23 LIG-0.27  OA
ATOM      5 H    GLY P 572      35.903  70.290  86.735  0.73  9.23 LIG 0.16  HD
BRANCH 3 6
ATOM      6  CA  PRO P 571      33.511  70.777  86.023  0.73  9.03 LIG 0.35  C 
ATOM      7  N   PRO P 571      33.081  72.206  85.894  0.73 10.09 LIG 0.32  N 
ATOM      8  CD  PRO P 571      33.675  72.574  84.592  0.73  9.16 LIG 0.32  C 
ATOM      9  CG  PRO P 571      34.030  71.271  83.865  0.73  9.15 LIG 0.04  C 
ATOM     10  CB  PRO P 571      34.525  70.457  84.927  0.73  9.69 LIG 0.05  C 
ENDBRANCH 3 6
ENDBRANCH 1 2
BRANCH 1 11
ATOM     11  C   GLY P 572      36.246  71.193  89.424  0.73  5.30 LIG 0.24  C 
ATOM     12  N   ALA P 573      35.869  72.270  88.739  0.73  5.43 LIG-0.35  N 
ATOM     13 H    ALA P 573      35.626  72.232  87.915  0.73  5.43 LIG 0.16  HD
ATOM     14 O    GLY P 572      36.679  71.239  90.579  0.73  3.60 LIG-0.27  OA
BRANCH 12 15
ATOM     15  CA  ALA P 573      35.823  73.617  89.289  0.73  6.34 LIG 0.18  C 
ATOM     16  CB  ALA P 573      37.197  74.241  89.276  0.73  5.76 LIG 0.04  C 
BRANCH 15 17
ATOM     17  C   ALA P 573      34.876  74.421  88.401  0.73  7.45 LIG 0.20  C 
ATOM     18 OXT  ALA P 573      33.674  74.505  88.729  0.73  4.81 LIG-0.65  OA
ATOM     19 O    ALA P 573      35.357  74.973  87.387  0.73  9.82 LIG-0.65  OA
ENDBRANCH 15 17
ENDBRANCH 12 15
ENDBRANCH 1 11
TORSDOF 5
ENDMDL
MODEL 46
USER: ADFR SOLUTION from run 176
USER: SCORE 6.226418 LL:  -1.614 LR:  -4.677 RR:   0.000 FEB:  -3.186
USER: RMSD 2.598541
USER: SEED 175
USER: STATUS no improvement in best in 9 clusters for 5 generations
USER: GENES 7
USER: genes 0 Translation |==|  0.55693 0.42447 0.74159
USER: genes 1 Rotation |==|  0.53641 0.41373 0.39558 0.97993
USER: genes 2 Torsion [C]-CA--N-[C] |==|  0.80346
USER: genes 3 Torsion [N]-C--CA-[N] |==|  0.71207
USER: genes 4 Torsion [N]-CA--C-[N] |==|  0.91119
USER: genes 5 Torsion [C]-N--CA-[CB] |==|  0.39585
USER: genes 6 Torsion [N]-CA--C-[OXT] |==|  0.68945
ROOT
ATOM      1  CA  GLY P 572      34.046  71.779  93.113  0.73  6.50 LIG 0.23  C 
ENDROOT
BRANCH 1 2
ATOM      2  N   GLY P 572      33.332  72.429  92.024  0.73  9.23 LIG-0.35  N 
ATOM      3  C   PRO P 571      33.307  73.751  91.808  0.73  8.22 LIG 0.25  C 
ATOM      4 O    PRO P 571      33.927  74.581  92.475  0.73  7.23 LIG-0.27  OA
ATOM      5 H    GLY P 572      32.915  71.872  91.517  0.73  9.23 LIG 0.16  HD
BRANCH 3 6
ATOM      6  CA  PRO P 571      32.465  74.203  90.608  0.73  9.03 LIG 0.35  C 
ATOM      7  N   PRO P 571      33.296  74.576  89.418  0.73 10.09 LIG 0.32  N 
ATOM      8  CD  PRO P 571      32.587  73.867  88.333  0.73  9.16 LIG 0.32  C 
ATOM      9  CG  PRO P 571      31.196  73.495  88.859  0.73  9.15 LIG 0.04  C 
ATOM     10  CB  PRO P 571      31.473  73.114  90.205  0.73  9.69 LIG 0.05  C 
ENDBRANCH 3 6
ENDBRANCH 1 2
BRANCH 1 11
ATOM     11  C   GLY P 572      35.521  71.932  92.747  0.73  5.30 LIG 0.24  C 
ATOM     12  N   ALA P 573      35.760  71.931  91.438  0.73  5.43 LIG-0.35  N 
ATOM     13 H    ALA P 573      35.137  71.828  90.854  0.73  5.43 LIG 0.16  HD
ATOM     14 O    GLY P 572      36.410  71.992  93.600  0.73  3.60 LIG-0.27  OA
BRANCH 12 15
ATOM     15  CA  ALA P 573      37.078  72.100  90.845  0.73  6.34 LIG 0.18  C 
ATOM     16  CB  ALA P 573      37.228  71.219  89.628  0.73  5.76 LIG 0.04  C 
BRANCH 15 17
ATOM     17  C   ALA P 573      37.194  73.569  90.443  0.73  7.45 LIG 0.20  C 
ATOM     18 OXT  ALA P 573      37.232  73.855  89.228  0.73  4.81 LIG-0.65  OA
ATOM     19 O    ALA P 573      37.232  74.421  91.358  0.73  9.82 LIG-0.65  OA
ENDBRANCH 15 17
ENDBRANCH 12 15
ENDBRANCH 1 11
TORSDOF 5
ENDMDL
MODEL 47
USER: ADFR SOLUTION from run 136
USER: SCORE 6.426458 LL:  -1.857 LR:  -4.661 RR:   0.000 FEB:  -3.169
USER: RMSD 1.753260
USER: SEED 135
USER: STATUS no improvement in best in 13 clusters for 5 generations
USER: GENES 7
USER: genes 0 Translation |==|  0.61450 0.26783 0.46342
USER: genes 1 Rotation |==|  0.79117 0.61741 0.47987 0.88862
USER: genes 2 Torsion [C]-CA--N-[C] |==|  0.80161
USER: genes 3 Torsion [N]-C--CA-[N] |==|  0.79087
USER: genes 4 Torsion [N]-CA--C-[N] |==|  0.89603
USER: genes 5 Torsion [C]-N--CA-[CB] |==|  0.20205
USER: genes 6 Torsion [N]-CA--C-[OXT] |==|  0.59868
ROOT
ATOM      1  CA  GLY P 572      34.996  69.782  89.357  0.73  6.50 LIG 0.23  C 
ENDROOT
BRANCH 1 2
ATOM      2  N   GLY P 572      33.695  70.291  89.766  0.73  9.23 LIG-0.35  N 
ATOM      3  C   PRO P 571      33.409  70.764  90.986  0.73  8.22 LIG 0.25  C 
ATOM      4 O    PRO P 571      34.225  70.875  91.903  0.73  7.23 LIG-0.27  OA
ATOM      5 H    GLY P 572      33.110  70.260  89.136  0.73  9.23 LIG 0.16  HD
BRANCH 3 6
ATOM      6  CA  PRO P 571      31.960  71.225  91.186  0.73  9.03 LIG 0.35  C 
ATOM      7  N   PRO P 571      31.669  72.543  90.534  0.73 10.09 LIG 0.32  N 
ATOM      8  CD  PRO P 571      30.393  72.253  89.847  0.73  9.16 LIG 0.32  C 
ATOM      9  CG  PRO P 571      29.817  70.975  90.469  0.73  9.15 LIG 0.04  C 
ATOM     10  CB  PRO P 571      30.984  70.177  90.657  0.73  9.69 LIG 0.05  C 
ENDBRANCH 3 6
ENDBRANCH 1 2
BRANCH 1 11
ATOM     11  C   GLY P 572      35.882  71.023  89.269  0.73  5.30 LIG 0.24  C 
ATOM     12  N   ALA P 573      35.262  72.101  88.795  0.73  5.43 LIG-0.35  N 
ATOM     13 H    ALA P 573      34.441  72.088  88.539  0.73  5.43 LIG 0.16  HD
ATOM     14 O    GLY P 572      37.081  71.000  89.560  0.73  3.60 LIG-0.27  OA
BRANCH 12 15
ATOM     15  CA  ALA P 573      35.885  73.409  88.653  0.73  6.34 LIG 0.18  C 
ATOM     16  CB  ALA P 573      36.865  73.406  87.505  0.73  5.76 LIG 0.04  C 
BRANCH 15 17
ATOM     17  C   ALA P 573      34.760  74.404  88.377  0.73  7.45 LIG 0.20  C 
ATOM     18 OXT  ALA P 573      34.982  75.357  87.601  0.73  4.81 LIG-0.65  OA
ATOM     19 O    ALA P 573      33.658  74.206  88.935  0.73  9.82 LIG-0.65  OA
ENDBRANCH 15 17
ENDBRANCH 12 15
ENDBRANCH 1 11
TORSDOF 5
ENDMDL
MODEL 48
USER: ADFR SOLUTION from run 110
USER: SCORE 6.638036 LL:  -2.029 LR:  -4.648 RR:   0.000 FEB:  -3.157
USER: RMSD 4.370911
USER: SEED 109
USER: STATUS no improvement in best in 21 clusters for 5 generations
USER: GENES 7
USER: genes 0 Translation |==|  0.47633 0.28550 0.53122
USER: genes 1 Rotation |==|  0.88530 0.56562 0.58720 0.79939
USER: genes 2 Torsion [C]-CA--N-[C] |==|  0.80187
USER: genes 3 Torsion [N]-C--CA-[N] |==|  0.60898
USER: genes 4 Torsion [N]-CA--C-[N] |==|  0.96116
USER: genes 5 Torsion [C]-N--CA-[CB] |==|  0.25662
USER: genes 6 Torsion [N]-CA--C-[OXT] |==|  0.57189
ROOT
ATOM      1  CA  GLY P 572      32.716  70.007  90.272  0.73  6.50 LIG 0.23  C 
ENDROOT
BRANCH 1 2
ATOM      2  N   GLY P 572      31.278  70.186  90.398  0.73  9.23 LIG-0.35  N 
ATOM      3  C   PRO P 571      30.561  69.873  91.486  0.73  8.22 LIG 0.25  C 
ATOM      4 O    PRO P 571      31.037  69.439  92.538  0.73  7.23 LIG-0.27  OA
ATOM      5 H    GLY P 572      30.919  70.521  89.692  0.73  9.23 LIG 0.16  HD
BRANCH 3 6
ATOM      6  CA  PRO P 571      29.053  70.132  91.375  0.73  9.03 LIG 0.35  C 
ATOM      7  N   PRO P 571      28.458  70.677  92.637  0.73 10.09 LIG 0.32  N 
ATOM      8  CD  PRO P 571      27.642  71.793  92.117  0.73  9.16 LIG 0.32  C 
ATOM      9  CG  PRO P 571      27.469  71.572  90.610  0.73  9.15 LIG 0.04  C 
ATOM     10  CB  PRO P 571      28.756  71.091  90.225  0.73  9.69 LIG 0.05  C 
ENDBRANCH 3 6
ENDBRANCH 1 2
BRANCH 1 11
ATOM     11  C   GLY P 572      33.316  71.075  91.185  0.73  5.30 LIG 0.24  C 
ATOM     12  N   ALA P 573      32.449  72.007  91.574  0.73  5.43 LIG-0.35  N 
ATOM     13 H    ALA P 573      31.630  72.016  91.311  0.73  5.43 LIG 0.16  HD
ATOM     14 O    GLY P 572      34.513  71.093  91.482  0.73  3.60 LIG-0.27  OA
BRANCH 12 15
ATOM     15  CA  ALA P 573      32.775  73.104  92.473  0.73  6.34 LIG 0.18  C 
ATOM     16  CB  ALA P 573      33.201  74.322  91.689  0.73  5.76 LIG 0.04  C 
BRANCH 15 17
ATOM     17  C   ALA P 573      31.507  73.413  93.267  0.73  7.45 LIG 0.20  C 
ATOM     18 OXT  ALA P 573      31.353  74.564  93.725  0.73  4.81 LIG-0.65  OA
ATOM     19 O    ALA P 573      30.670  72.493  93.408  0.73  9.82 LIG-0.65  OA
ENDBRANCH 15 17
ENDBRANCH 12 15
ENDBRANCH 1 11
TORSDOF 5
ENDMDL
MODEL 49
USER: ADFR SOLUTION from run 117
USER: SCORE 6.552168 LL:  -2.013 LR:  -4.604 RR:   0.000 FEB:  -3.112
USER: RMSD 3.892726
USER: SEED 116
USER: STATUS no improvement in best in 17 clusters for 5 generations
USER: GENES 7
USER: genes 0 Translation |==|  0.69117 0.58827 0.46130
USER: genes 1 Rotation |==|  0.02873 0.48709 0.33348 0.50355
USER: genes 2 Torsion [C]-CA--N-[C] |==|  0.73752
USER: genes 3 Torsion [N]-C--CA-[N] |==|  0.70508
USER: genes 4 Torsion [N]-CA--C-[N] |==|  0.04989
USER: genes 5 Torsion [C]-N--CA-[CB] |==|  0.18393
USER: genes 6 Torsion [N]-CA--C-[OXT] |==|  0.49897
ROOT
ATOM      1  CA  GLY P 572      36.261  73.867  89.329  0.73  6.50 LIG 0.23  C 
ENDROOT
BRANCH 1 2
ATOM      2  N   GLY P 572      34.822  73.703  89.187  0.73  9.23 LIG-0.35  N 
ATOM      3  C   PRO P 571      34.228  72.671  88.573  0.73  8.22 LIG 0.25  C 
ATOM      4 O    PRO P 571      34.823  71.704  88.093  0.73  7.23 LIG-0.27  OA
ATOM      5 H    GLY P 572      34.375  74.346  89.543  0.73  9.23 LIG 0.16  HD
BRANCH 3 6
ATOM      6  CA  PRO P 571      32.695  72.728  88.530  0.73  9.03 LIG 0.35  C 
ATOM      7  N   PRO P 571      32.048  71.763  89.475  0.73 10.09 LIG 0.32  N 
ATOM      8  CD  PRO P 571      31.032  72.622  90.119  0.73  9.16 LIG 0.32  C 
ATOM      9  CG  PRO P 571      30.860  73.867  89.240  0.73  9.15 LIG 0.04  C 
ATOM     10  CB  PRO P 571      32.201  74.140  88.837  0.73  9.69 LIG 0.05  C 
ENDBRANCH 3 6
ENDBRANCH 1 2
BRANCH 1 11
ATOM     11  C   GLY P 572      36.581  73.274  90.699  0.73  5.30 LIG 0.24  C 
ATOM     12  N   ALA P 573      35.631  72.476  91.181  0.73  5.43 LIG-0.35  N 
ATOM     13 H    ALA P 573      34.893  72.330  90.764  0.73  5.43 LIG 0.16  HD
ATOM     14 O    GLY P 572      37.607  73.563  91.320  0.73  3.60 LIG-0.27  OA
BRANCH 12 15
ATOM     15  CA  ALA P 573      35.723  71.767  92.449  0.73  6.34 LIG 0.18  C 
ATOM     16  CB  ALA P 573      35.732  72.742  93.601  0.73  5.76 LIG 0.04  C 
BRANCH 15 17
ATOM     17  C   ALA P 573      34.493  70.866  92.537  0.73  7.45 LIG 0.20  C 
ATOM     18 OXT  ALA P 573      34.352  70.144  93.547  0.73  4.81 LIG-0.65  OA
ATOM     19 O    ALA P 573      33.673  70.906  91.594  0.73  9.82 LIG-0.65  OA
ENDBRANCH 15 17
ENDBRANCH 12 15
ENDBRANCH 1 11
TORSDOF 5
ENDMDL
MODEL 50
USER: ADFR SOLUTION from run 37
USER: SCORE 6.394280 LL:  -1.976 LR:  -4.578 RR:   0.000 FEB:  -3.087
USER: RMSD 3.610901
USER: SEED 36
USER: STATUS no improvement in best in 17 clusters for 5 generations
USER: GENES 7
USER: genes 0 Translation |==|  0.45433 0.64706 0.69207
USER: genes 1 Rotation |==|  0.20667 0.41646 0.40857 0.88551
USER: genes 2 Torsion [C]-CA--N-[C] |==|  0.29966
USER: genes 3 Torsion [N]-C--CA-[N] |==|  0.21004
USER: genes 4 Torsion [N]-CA--C-[N] |==|  0.93668
USER: genes 5 Torsion [C]-N--CA-[CB] |==|  0.20664
USER: genes 6 Torsion [N]-CA--C-[OXT] |==|  0.46024
ROOT
ATOM      1  CA  GLY P 572      32.353  74.617  92.444  0.73  6.50 LIG 0.23  C 
ENDROOT
BRANCH 1 2
ATOM      2  N   GLY P 572      31.364  73.972  91.593  0.73  9.23 LIG-0.35  N 
ATOM      3  C   PRO P 571      30.355  73.211  92.037  0.73  8.22 LIG 0.25  C 
ATOM      4 O    PRO P 571      30.107  73.000  93.226  0.73  7.23 LIG-0.27  OA
ATOM      5 H    GLY P 572      31.490  74.128  90.756  0.73  9.23 LIG 0.16  HD
BRANCH 3 6
ATOM      6  CA  PRO P 571      29.453  72.618  90.947  0.73  9.03 LIG 0.35  C 
ATOM      7  N   PRO P 571      30.084  71.467  90.226  0.73 10.09 LIG 0.32  N 
ATOM      8  CD  PRO P 571      28.982  70.483  90.226  0.73  9.16 LIG 0.32  C 
ATOM      9  CG  PRO P 571      27.688  71.242  90.544  0.73  9.15 LIG 0.04  C 
ATOM     10  CB  PRO P 571      28.119  72.169  91.539  0.73  9.69 LIG 0.05  C 
ENDBRANCH 3 6
ENDBRANCH 1 2
BRANCH 1 11
ATOM     11  C   GLY P 572      33.636  73.821  92.210  0.73  5.30 LIG 0.24  C 
ATOM     12  N   ALA P 573      33.434  72.585  91.760  0.73  5.43 LIG-0.35  N 
ATOM     13 H    ALA P 573      32.647  72.260  91.636  0.73  5.43 LIG 0.16  HD
ATOM     14 O    GLY P 572      34.752  74.275  92.476  0.73  3.60 LIG-0.27  OA
BRANCH 12 15
ATOM     15  CA  ALA P 573      34.499  71.650  91.429  0.73  6.34 LIG 0.18  C 
ATOM     16  CB  ALA P 573      35.136  71.107  92.685  0.73  5.76 LIG 0.04  C 
BRANCH 15 17
ATOM     17  C   ALA P 573      33.855  70.514  90.636  0.73  7.45 LIG 0.20  C 
ATOM     18 OXT  ALA P 573      34.596  69.728  90.008  0.73  4.81 LIG-0.65  OA
ATOM     19 O    ALA P 573      32.609  70.417  90.667  0.73  9.82 LIG-0.65  OA
ENDBRANCH 15 17
ENDBRANCH 12 15
ENDBRANCH 1 11
TORSDOF 5
ENDMDL
MODEL 51
USER: ADFR SOLUTION from run 33
USER: SCORE 5.900845 LL:  -1.455 LR:  -4.526 RR:   0.000 FEB:  -3.034
USER: RMSD 3.209496
USER: SEED 32
USER: STATUS no improvement in best in 15 clusters for 5 generations
USER: GENES 7
USER: genes 0 Translation |==|  0.54439 0.29458 0.42957
USER: genes 1 Rotation |==|  0.93851 0.50681 0.46690 0.73784
USER: genes 2 Torsion [C]-CA--N-[C] |==|  0.71669
USER: genes 3 Torsion [N]-C--CA-[N] |==|  0.15904
USER: genes 4 Torsion [N]-CA--C-[N] |==|  0.98849
USER: genes 5 Torsion [C]-N--CA-[CB] |==|  0.18077
USER: genes 6 Torsion [N]-CA--C-[OXT] |==|  0.59499
ROOT
ATOM      1  CA  GLY P 572      33.839  70.123  88.900  0.73  6.50 LIG 0.23  C 
ENDROOT
BRANCH 1 2
ATOM      2  N   GLY P 572      32.726  70.790  89.559  0.73  9.23 LIG-0.35  N 
ATOM      3  C   PRO P 571      31.835  70.183  90.354  0.73  8.22 LIG 0.25  C 
ATOM      4 O    PRO P 571      31.873  68.992  90.669  0.73  7.23 LIG-0.27  OA
ATOM      5 H    GLY P 572      32.691  71.632  89.387  0.73  9.23 LIG 0.16  HD
BRANCH 3 6
ATOM      6  CA  PRO P 571      30.735  71.092  90.918  0.73  9.03 LIG 0.35  C 
ATOM      7  N   PRO P 571      29.947  71.789  89.851  0.73 10.09 LIG 0.32  N 
ATOM      8  CD  PRO P 571      28.563  71.562  90.314  0.73  9.16 LIG 0.32  C 
ATOM      9  CG  PRO P 571      28.635  71.143  91.788  0.73  9.15 LIG 0.04  C 
ATOM     10  CB  PRO P 571      29.781  70.295  91.806  0.73  9.69 LIG 0.05  C 
ENDBRANCH 3 6
ENDBRANCH 1 2
BRANCH 1 11
ATOM     11  C   GLY P 572      35.057  70.483  89.749  0.73  5.30 LIG 0.24  C 
ATOM     12  N   ALA P 573      34.797  71.330  90.741  0.73  5.43 LIG-0.35  N 
ATOM     13 H    ALA P 573      34.014  71.661  90.875  0.73  5.43 LIG 0.16  HD
ATOM     14 O    GLY P 572      36.189  70.065  89.490  0.73  3.60 LIG-0.27  OA
BRANCH 12 15
ATOM     15  CA  ALA P 573      35.785  71.791  91.706  0.73  6.34 LIG 0.18  C 
ATOM     16  CB  ALA P 573      36.848  72.615  91.020  0.73  5.76 LIG 0.04  C 
BRANCH 15 17
ATOM     17  C   ALA P 573      35.038  72.647  92.726  0.73  7.45 LIG 0.20  C 
ATOM     18 OXT  ALA P 573      35.624  73.630  93.226  0.73  4.81 LIG-0.65  OA
ATOM     19 O    ALA P 573      33.860  72.328  93.002  0.73  9.82 LIG-0.65  OA
ENDBRANCH 15 17
ENDBRANCH 12 15
ENDBRANCH 1 11
TORSDOF 5
ENDMDL
MODEL 52
USER: ADFR SOLUTION from run 106
USER: SCORE 6.474334 LL:  -2.014 LR:  -4.481 RR:   0.000 FEB:  -2.990
USER: RMSD 4.214593
USER: SEED 105
USER: STATUS no improvement in best in 19 clusters for 5 generations
USER: GENES 7
USER: genes 0 Translation |==|  0.78064 0.34689 0.44661
USER: genes 1 Rotation |==|  0.89796 0.45047 0.70778 0.71448
USER: genes 2 Torsion [C]-CA--N-[C] |==|  0.75619
USER: genes 3 Torsion [N]-C--CA-[N] |==|  0.74371
USER: genes 4 Torsion [N]-CA--C-[N] |==|  0.97312
USER: genes 5 Torsion [C]-N--CA-[CB] |==|  0.27995
USER: genes 6 Torsion [N]-CA--C-[OXT] |==|  0.42079
ROOT
ATOM      1  CA  GLY P 572      37.738  70.790  89.130  0.73  6.50 LIG 0.23  C 
ENDROOT
BRANCH 1 2
ATOM      2  N   GLY P 572      36.462  71.106  88.505  0.73  9.23 LIG-0.35  N 
ATOM      3  C   PRO P 571      35.383  70.312  88.527  0.73  8.22 LIG 0.25  C 
ATOM      4 O    PRO P 571      35.318  69.234  89.122  0.73  7.23 LIG-0.27  OA
ATOM      5 H    GLY P 572      36.463  71.870  88.109  0.73  9.23 LIG 0.16  HD
BRANCH 3 6
ATOM      6  CA  PRO P 571      34.158  70.851  87.777  0.73  9.03 LIG 0.35  C 
ATOM      7  N   PRO P 571      33.230  71.631  88.658  0.73 10.09 LIG 0.32  N 
ATOM      8  CD  PRO P 571      32.975  72.826  87.827  0.73  9.16 LIG 0.32  C 
ATOM      9  CG  PRO P 571      33.401  72.488  86.393  0.73  9.15 LIG 0.04  C 
ATOM     10  CB  PRO P 571      34.588  71.725  86.602  0.73  9.69 LIG 0.05  C 
ENDBRANCH 3 6
ENDBRANCH 1 2
BRANCH 1 11
ATOM     11  C   GLY P 572      37.599  71.305  90.561  0.73  5.30 LIG 0.24  C 
ATOM     12  N   ALA P 573      36.512  72.042  90.771  0.73  5.43 LIG-0.35  N 
ATOM     13 H    ALA P 573      35.951  72.229  90.146  0.73  5.43 LIG 0.16  HD
ATOM     14 O    GLY P 572      38.458  71.098  91.423  0.73  3.60 LIG-0.27  OA
BRANCH 12 15
ATOM     15  CA  ALA P 573      36.144  72.612  92.059  0.73  6.34 LIG 0.18  C 
ATOM     16  CB  ALA P 573      36.515  74.074  92.116  0.73  5.76 LIG 0.04  C 
BRANCH 15 17
ATOM     17  C   ALA P 573      34.632  72.451  92.195  0.73  7.45 LIG 0.20  C 
ATOM     18 OXT  ALA P 573      34.141  72.346  93.339  0.73  4.81 LIG-0.65  OA
ATOM     19 O    ALA P 573      33.950  72.449  91.146  0.73  9.82 LIG-0.65  OA
ENDBRANCH 15 17
ENDBRANCH 12 15
ENDBRANCH 1 11
TORSDOF 5
ENDMDL
MODEL 53
USER: ADFR SOLUTION from run 129
USER: SCORE 5.963598 LL:  -1.554 LR:  -4.466 RR:   0.000 FEB:  -2.974
USER: RMSD 3.773337
USER: SEED 128
USER: STATUS no improvement in best in 14 clusters for 5 generations
USER: GENES 7
USER: genes 0 Translation |==|  0.43382 0.23809 0.75153
USER: genes 1 Rotation |==|  0.68946 0.43086 0.48100 0.95713
USER: genes 2 Torsion [C]-CA--N-[C] |==|  0.73459
USER: genes 3 Torsion [N]-C--CA-[N] |==|  0.02440
USER: genes 4 Torsion [N]-CA--C-[N] |==|  0.97977
USER: genes 5 Torsion [C]-N--CA-[CB] |==|  0.24757
USER: genes 6 Torsion [N]-CA--C-[OXT] |==|  0.50885
ROOT
ATOM      1  CA  GLY P 572      32.015  69.403  93.247  0.73  6.50 LIG 0.23  C 
ENDROOT
BRANCH 1 2
ATOM      2  N   GLY P 572      31.073  70.221  92.497  0.73  9.23 LIG-0.35  N 
ATOM      3  C   PRO P 571      30.148  71.018  93.048  0.73  8.22 LIG 0.25  C 
ATOM      4 O    PRO P 571      30.009  71.199  94.260  0.73  7.23 LIG-0.27  OA
ATOM      5 H    GLY P 572      31.166  70.144  91.646  0.73  9.23 LIG 0.16  HD
BRANCH 3 6
ATOM      6  CA  PRO P 571      29.251  71.767  92.053  0.73  9.03 LIG 0.35  C 
ATOM      7  N   PRO P 571      29.438  71.309  90.638  0.73 10.09 LIG 0.32  N 
ATOM      8  CD  PRO P 571      28.038  71.151  90.195  0.73  9.16 LIG 0.32  C 
ATOM      9  CG  PRO P 571      27.153  71.911  91.190  0.73  9.15 LIG 0.04  C 
ATOM     10  CB  PRO P 571      27.781  71.620  92.437  0.73  9.69 LIG 0.05  C 
ENDBRANCH 3 6
ENDBRANCH 1 2
BRANCH 1 11
ATOM     11  C   GLY P 572      33.281  70.254  93.326  0.73  5.30 LIG 0.24  C 
ATOM     12  N   ALA P 573      33.234  71.367  92.598  0.73  5.43 LIG-0.35  N 
ATOM     13 H    ALA P 573      32.557  71.572  92.109  0.73  5.43 LIG 0.16  HD
ATOM     14 O    GLY P 572      34.275  69.900  93.965  0.73  3.60 LIG-0.27  OA
BRANCH 12 15
ATOM     15  CA  ALA P 573      34.302  72.354  92.542  0.73  6.34 LIG 0.18  C 
ATOM     16  CB  ALA P 573      35.280  72.012  91.444  0.73  5.76 LIG 0.04  C 
BRANCH 15 17
ATOM     17  C   ALA P 573      33.641  73.700  92.251  0.73  7.45 LIG 0.20  C 
ATOM     18 OXT  ALA P 573      34.369  74.703  92.096  0.73  4.81 LIG-0.65  OA
ATOM     19 O    ALA P 573      32.393  73.729  92.168  0.73  9.82 LIG-0.65  OA
ENDBRANCH 15 17
ENDBRANCH 12 15
ENDBRANCH 1 11
TORSDOF 5
ENDMDL
MODEL 54
USER: ADFR SOLUTION from run 24
USER: SCORE 6.156643 LL:  -1.902 LR:  -4.306 RR:   0.000 FEB:  -2.815
USER: RMSD 3.667997
USER: SEED 23
USER: STATUS no improvement in best in 15 clusters for 5 generations
USER: GENES 7
USER: genes 0 Translation |==|  0.57649 0.64945 0.37351
USER: genes 1 Rotation |==|  0.00161 0.49646 0.46011 0.49747
USER: genes 2 Torsion [C]-CA--N-[C] |==|  0.73917
USER: genes 3 Torsion [N]-C--CA-[N] |==|  0.59389
USER: genes 4 Torsion [N]-CA--C-[N] |==|  0.97728
USER: genes 5 Torsion [C]-N--CA-[CB] |==|  0.17678
USER: genes 6 Torsion [N]-CA--C-[OXT] |==|  0.45609
ROOT
ATOM      1  CA  GLY P 572      34.369  74.647  88.143  0.73  6.50 LIG 0.23  C 
ENDROOT
BRANCH 1 2
ATOM      2  N   GLY P 572      33.045  74.550  88.739  0.73  9.23 LIG-0.35  N 
ATOM      3  C   PRO P 571      32.193  73.534  88.545  0.73  8.22 LIG 0.25  C 
ATOM      4 O    PRO P 571      32.442  72.529  87.876  0.73  7.23 LIG-0.27  OA
ATOM      5 H    GLY P 572      32.853  75.221  89.241  0.73  9.23 LIG 0.16  HD
BRANCH 3 6
ATOM      6  CA  PRO P 571      30.843  73.664  89.262  0.73  9.03 LIG 0.35  C 
ATOM      7  N   PRO P 571      30.290  72.346  89.710  0.73 10.09 LIG 0.32  N 
ATOM      8  CD  PRO P 571      29.888  72.654  91.099  0.73  9.16 LIG 0.32  C 
ATOM      9  CG  PRO P 571      29.831  74.181  91.232  0.73  9.15 LIG 0.04  C 
ATOM     10  CB  PRO P 571      30.962  74.594  90.468  0.73  9.69 LIG 0.05  C 
ENDBRANCH 3 6
ENDBRANCH 1 2
BRANCH 1 11
ATOM     11  C   GLY P 572      35.306  74.057  89.195  0.73  5.30 LIG 0.24  C 
ATOM     12  N   ALA P 573      34.720  73.799  90.362  0.73  5.43 LIG-0.35  N 
ATOM     13 H    ALA P 573      33.891  73.974  90.513  0.73  5.43 LIG 0.16  HD
ATOM     14 O    GLY P 572      36.511  73.892  88.988  0.73  3.60 LIG-0.27  OA
BRANCH 12 15
ATOM     15  CA  ALA P 573      35.396  73.201  91.504  0.73  6.34 LIG 0.18  C 
ATOM     16  CB  ALA P 573      36.494  74.108  92.003  0.73  5.76 LIG 0.04  C 
BRANCH 15 17
ATOM     17  C   ALA P 573      34.340  73.013  92.591  0.73  7.45 LIG 0.20  C 
ATOM     18 OXT  ALA P 573      34.596  72.253  93.548  0.73  4.81 LIG-0.65  OA
ATOM     19 O    ALA P 573      33.267  73.646  92.475  0.73  9.82 LIG-0.65  OA
ENDBRANCH 15 17
ENDBRANCH 12 15
ENDBRANCH 1 11
TORSDOF 5
ENDMDL
MODEL 55
USER: ADFR SOLUTION from run 191
USER: SCORE 6.180410 LL:  -1.967 LR:  -4.270 RR:   0.000 FEB:  -2.779
USER: RMSD 3.715642
USER: SEED 190
USER: STATUS no improvement in best in 16 clusters for 5 generations
USER: GENES 7
USER: genes 0 Translation |==|  0.60489 0.57240 0.34130
USER: genes 1 Rotation |==|  0.02793 0.33843 0.49208 0.53135
USER: genes 2 Torsion [C]-CA--N-[C] |==|  0.81629
USER: genes 3 Torsion [N]-C--CA-[N] |==|  0.62137
USER: genes 4 Torsion [N]-CA--C-[N] |==|  0.93194
USER: genes 5 Torsion [C]-N--CA-[CB] |==|  0.35635
USER: genes 6 Torsion [N]-CA--C-[OXT] |==|  0.40269
ROOT
ATOM      1  CA  GLY P 572      34.838  73.665  87.708  0.73  6.50 LIG 0.23  C 
ENDROOT
BRANCH 1 2
ATOM      2  N   GLY P 572      33.940  72.756  88.405  0.73  9.23 LIG-0.35  N 
ATOM      3  C   PRO P 571      34.169  71.449  88.591  0.73  8.22 LIG 0.25  C 
ATOM      4 O    PRO P 571      35.193  70.860  88.239  0.73  7.23 LIG-0.27  OA
ATOM      5 H    GLY P 572      33.228  73.144  88.694  0.73  9.23 LIG 0.16  HD
BRANCH 3 6
ATOM      6  CA  PRO P 571      33.064  70.690  89.336  0.73  9.03 LIG 0.35  C 
ATOM      7  N   PRO P 571      33.598  69.750  90.374  0.73 10.09 LIG 0.32  N 
ATOM      8  CD  PRO P 571      32.731  70.066  91.528  0.73  9.16 LIG 0.32  C 
ATOM      9  CG  PRO P 571      31.511  70.825  90.992  0.73  9.15 LIG 0.04  C 
ATOM     10  CB  PRO P 571      32.091  71.665  89.995  0.73  9.69 LIG 0.05  C 
ENDBRANCH 3 6
ENDBRANCH 1 2
BRANCH 1 11
ATOM     11  C   GLY P 572      36.080  73.728  88.595  0.73  5.30 LIG 0.24  C 
ATOM     12  N   ALA P 573      35.851  73.438  89.873  0.73  5.43 LIG-0.35  N 
ATOM     13 H    ALA P 573      35.066  73.255  90.173  0.73  5.43 LIG 0.16  HD
ATOM     14 O    GLY P 572      37.182  74.076  88.163  0.73  3.60 LIG-0.27  OA
BRANCH 12 15
ATOM     15  CA  ALA P 573      36.881  73.396  90.901  0.73  6.34 LIG 0.18  C 
ATOM     16  CB  ALA P 573      36.482  74.243  92.085  0.73  5.76 LIG 0.04  C 
BRANCH 15 17
ATOM     17  C   ALA P 573      37.017  71.935  91.326  0.73  7.45 LIG 0.20  C 
ATOM     18 OXT  ALA P 573      38.148  71.505  91.636  0.73  4.81 LIG-0.65  OA
ATOM     19 O    ALA P 573      35.979  71.239  91.357  0.73  9.82 LIG-0.65  OA
ENDBRANCH 15 17
ENDBRANCH 12 15
ENDBRANCH 1 11
TORSDOF 5
ENDMDL
