MODEL 1
USER: ADFR SOLUTION from run 88
USER: SCORE 12.013533 LL:  -2.579 LR: -11.522 RR:   0.000 FEB:  -7.047
USER: RMSD 2.151618
USER: SEED 87
USER: STATUS 1 or 2 clusters left
USER: GENES 17
USER: genes 0 Translation |==|  0.49964 0.46767 0.49145
USER: genes 1 Rotation |==|  0.55237 0.54807 0.51715 0.99462
USER: genes 2 Torsion [C]-CA--CB-[OG] |==|  0.71102
USER: genes 3 Torsion [CA]-CB--OG-[HG] |==|  0.09051
USER: genes 4 Torsion [N]-CA--C-[N] |==|  0.57019
USER: genes 5 Torsion [C]-N--CA-[C] |==|  0.57033
USER: genes 6 Torsion [N]-CA--C-[N] |==|  0.46664
USER: genes 7 Torsion [C]-N--CA-[C] |==|  0.29942
USER: genes 8 Torsion [N]-CA--C-[O] |==|  0.00539
USER: genes 9 Torsion [N]-CA--CB-[CG] |==|  0.78742
USER: genes 10 Torsion [CA]-CB--CG-[CD2] |==|  0.83896
USER: genes 11 Torsion [CB]-CA--N-[C] |==|  0.34483
USER: genes 12 Torsion [N]-C--CA-[N] |==|  0.39215
USER: genes 13 Torsion [C]-CA--CB-[CG] |==|  0.45158
USER: genes 14 Torsion [CA]-CB--CG-[CD2] |==|  0.85958
USER: genes 15 Torsion [C]-CA--N-[C] |==|  0.58456
USER: genes 16 Torsion [N]-C--CA-[N] |==|  0.38293
ROOT
ATOM      1  CA  SER E  44      26.446  -8.194  18.420  1.00 44.79 LIG 0.20  C 
ENDROOT
BRANCH 1 2
ATOM      2  CB  SER E  44      27.398  -9.047  17.584  1.00 46.10 LIG 0.20  C 
BRANCH 2 3
ATOM      3 OG   SER E  44      26.696  -9.673  16.530  1.00 47.85 LIG-0.40  OA
ATOM      4 HG   SER E  44      26.071  -9.175  16.274  1.00 47.85 LIG 0.21  HD
ENDBRANCH 2 3
ENDBRANCH 1 2
BRANCH 1 5
ATOM      5  C   SER E  44      26.645  -6.731  18.091  1.00 42.78 LIG 0.24  C 
ATOM      6  N   PHE E  45      27.879  -6.397  17.747  1.00 43.36 LIG-0.35  N 
ATOM      7 H    PHE E  45      28.538  -6.950  17.719  1.00 43.36 LIG 0.16  HD
ATOM      8 O    SER E  44      25.721  -5.920  18.171  1.00 37.54 LIG-0.27  OA
BRANCH 6 9
ATOM      9  CA  PHE E  45      28.221  -5.033  17.379  1.00 46.68 LIG 0.18  C 
BRANCH 9 10
ATOM     10  C   PHE E  45      29.442  -5.073  16.472  1.00 48.11 LIG 0.24  C 
ATOM     11 O    PHE E  45      30.095  -6.110  16.343  1.00 49.85 LIG-0.27  OA
ATOM     12  N   GLY E  46      29.756  -3.951  15.837  1.00 50.71 LIG-0.35  N 
ATOM     13 H    GLY E  46      29.327  -3.208  15.903  1.00 50.71 LIG 0.16  HD
BRANCH 12 14
ATOM     14  CA  GLY E  46      30.905  -3.934  14.953  1.00 54.23 LIG 0.21  C 
BRANCH 14 15
ATOM     15  C   GLY E  46      30.516  -3.875  13.493  1.00 55.55 LIG 0.21  C 
ATOM     16 O    GLY E  46      29.302  -3.811  13.224  1.00 59.11 LIG-0.29  OA
ENDBRANCH 14 15
ENDBRANCH 12 14
ENDBRANCH 9 10
BRANCH 9 17
ATOM     17  CB  PHE E  45      28.515  -4.194  18.627  1.00 43.03 LIG 0.07  C 
BRANCH 17 18
ATOM     18  CG  PHE E  45      27.280  -3.774  19.382  1.00 41.93 LIG-0.06  A 
ATOM     19  CD2 PHE E  45      26.279  -3.029  18.758  1.00 42.38 LIG 0.01  A 
ATOM     20  CE2 PHE E  45      25.121  -2.664  19.450  1.00 42.73 LIG 0.00  A 
ATOM     21  CZ  PHE E  45      24.958  -3.044  20.779  1.00 42.74 LIG 0.00  A 
ATOM     22  CE1 PHE E  45      25.949  -3.789  21.412  1.00 41.89 LIG 0.00  A 
ATOM     23  CD1 PHE E  45      27.103  -4.149  20.712  1.00 42.01 LIG 0.01  A 
ENDBRANCH 17 18
ENDBRANCH 9 17
ENDBRANCH 6 9
ENDBRANCH 1 5
BRANCH 1 24
ATOM     24  N   SER E  44      25.079  -8.627  18.217  1.00 46.50 LIG-0.34  N 
ATOM     25  C   PHE E  43      24.375  -8.971  19.273  1.00 47.40 LIG 0.24  C 
ATOM     26 O    PHE E  43      24.856  -8.966  20.403  1.00 45.80 LIG-0.27  OA
ATOM     27 H    SER E  44      24.802  -8.635  17.404  1.00 46.50 LIG 0.16  HD
BRANCH 25 28
ATOM     28  CA  PHE E  43      22.953  -9.426  19.032  1.00 47.87 LIG 0.18  C 
BRANCH 28 29
ATOM     29  CB  PHE E  43      22.004  -8.289  19.399  1.00 42.32 LIG 0.07  C 
BRANCH 29 30
ATOM     30  CG  PHE E  43      20.597  -8.411  18.843  1.00 35.12 LIG-0.06  A 
ATOM     31  CD2 PHE E  43      20.329  -8.664  17.491  1.00 32.72 LIG 0.01  A 
ATOM     32  CE2 PHE E  43      18.985  -8.729  17.029  1.00 30.40 LIG 0.00  A 
ATOM     33  CZ  PHE E  43      17.926  -8.544  17.928  1.00 28.92 LIG 0.00  A 
ATOM     34  CE1 PHE E  43      18.204  -8.293  19.267  1.00 29.46 LIG 0.00  A 
ATOM     35  CD1 PHE E  43      19.529  -8.229  19.706  1.00 34.02 LIG 0.01  A 
ENDBRANCH 29 30
ENDBRANCH 28 29
BRANCH 28 36
ATOM     36  N   PHE E  43      22.916 -10.481  20.004  1.00 51.92 LIG-0.35  N 
ATOM     37  C   GLY E  42      22.209 -11.594  19.940  1.00 55.92 LIG 0.25  C 
ATOM     38 O    GLY E  42      21.438 -11.917  19.026  1.00 57.26 LIG-0.27  OA
ATOM     39 H    PHE E  43      23.428 -10.315  20.675  1.00 51.92 LIG 0.16  HD
BRANCH 37 40
ATOM     40  CA  GLY E  42      22.457 -12.466  21.145  1.00 58.33 LIG 0.47  C 
ATOM     41  N   GLY E  42      21.283 -13.079  21.700  1.00 60.94 LIG 0.61  N 
ENDBRANCH 37 40
ENDBRANCH 28 36
ENDBRANCH 25 28
ENDBRANCH 1 24
TORSDOF 15
ENDMDL
MODEL 2
USER: ADFR SOLUTION from run 27
USER: SCORE 11.718295 LL:  -2.800 LR: -11.232 RR:   0.000 FEB:  -6.757
USER: RMSD 1.628855
USER: SEED 26
USER: STATUS searching
USER: GENES 17
USER: genes 0 Translation |==|  0.50772 0.50837 0.50319
USER: genes 1 Rotation |==|  0.52318 0.49990 0.51046 0.99935
USER: genes 2 Torsion [C]-CA--CB-[OG] |==|  0.71245
USER: genes 3 Torsion [CA]-CB--OG-[HG] |==|  0.04501
USER: genes 4 Torsion [N]-CA--C-[N] |==|  0.54485
USER: genes 5 Torsion [C]-N--CA-[C] |==|  0.58059
USER: genes 6 Torsion [N]-CA--C-[N] |==|  0.45466
USER: genes 7 Torsion [C]-N--CA-[C] |==|  0.73682
USER: genes 8 Torsion [N]-CA--C-[O] |==|  0.04743
USER: genes 9 Torsion [N]-CA--CB-[CG] |==|  0.86914
USER: genes 10 Torsion [CA]-CB--CG-[CD2] |==|  0.27705
USER: genes 11 Torsion [CB]-CA--N-[C] |==|  0.40709
USER: genes 12 Torsion [N]-C--CA-[N] |==|  0.12578
USER: genes 13 Torsion [C]-CA--CB-[CG] |==|  0.46782
USER: genes 14 Torsion [CA]-CB--CG-[CD2] |==|  0.48786
USER: genes 15 Torsion [C]-CA--N-[C] |==|  0.61111
USER: genes 16 Torsion [N]-C--CA-[N] |==|  0.74226
ROOT
ATOM      1  CA  SER E  44      26.634  -7.370  18.570  1.00 44.79 LIG 0.20  C 
ENDROOT
BRANCH 1 2
ATOM      2  CB  SER E  44      27.686  -8.338  18.033  1.00 46.10 LIG 0.20  C 
BRANCH 2 3
ATOM      3 OG   SER E  44      27.174  -9.056  16.930  1.00 47.85 LIG-0.40  OA
ATOM      4 HG   SER E  44      26.486  -8.672  16.639  1.00 47.85 LIG 0.21  HD
ENDBRANCH 2 3
ENDBRANCH 1 2
BRANCH 1 5
ATOM      5  C   SER E  44      26.960  -5.961  18.128  1.00 42.78 LIG 0.24  C 
ATOM      6  N   PHE E  45      28.244  -5.641  18.177  1.00 43.36 LIG-0.35  N 
ATOM      7 H    PHE E  45      28.863  -6.173  18.451  1.00 43.36 LIG 0.16  HD
ATOM      8 O    SER E  44      26.079  -5.173  17.779  1.00 37.54 LIG-0.27  OA
BRANCH 6 9
ATOM      9  CA  PHE E  45      28.716  -4.331  17.761  1.00 46.68 LIG 0.18  C 
BRANCH 9 10
ATOM     10  C   PHE E  45      30.141  -4.475  17.247  1.00 48.11 LIG 0.24  C 
ATOM     11 O    PHE E  45      30.800  -5.485  17.500  1.00 49.85 LIG-0.27  OA
ATOM     12  N   GLY E  46      30.622  -3.474  16.522  1.00 50.71 LIG-0.35  N 
ATOM     13 H    GLY E  46      30.195  -2.754  16.326  1.00 50.71 LIG 0.16  HD
BRANCH 12 14
ATOM     14  CA  GLY E  46      31.972  -3.563  16.000  1.00 54.23 LIG 0.21  C 
BRANCH 14 15
ATOM     15  C   GLY E  46      32.989  -2.893  16.896  1.00 55.55 LIG 0.21  C 
ATOM     16 O    GLY E  46      32.650  -2.652  18.070  1.00 59.11 LIG-0.29  OA
ENDBRANCH 14 15
ENDBRANCH 12 14
ENDBRANCH 9 10
BRANCH 9 17
ATOM     17  CB  PHE E  45      28.672  -3.343  18.933  1.00 43.03 LIG 0.07  C 
BRANCH 17 18
ATOM     18  CG  PHE E  45      27.376  -3.369  19.702  1.00 41.93 LIG-0.06  A 
ATOM     19  CD2 PHE E  45      27.272  -4.066  20.905  1.00 42.38 LIG 0.01  A 
ATOM     20  CE2 PHE E  45      26.078  -4.066  21.632  1.00 42.73 LIG 0.00  A 
ATOM     21  CZ  PHE E  45      24.976  -3.365  21.154  1.00 42.74 LIG 0.00  A 
ATOM     22  CE1 PHE E  45      25.067  -2.664  19.955  1.00 41.89 LIG 0.00  A 
ATOM     23  CD1 PHE E  45      26.265  -2.670  19.236  1.00 42.01 LIG 0.01  A 
ENDBRANCH 17 18
ENDBRANCH 9 17
ENDBRANCH 6 9
ENDBRANCH 1 5
BRANCH 1 24
ATOM     24  N   SER E  44      25.312  -7.790  18.154  1.00 46.50 LIG-0.34  N 
ATOM     25  C   PHE E  43      24.305  -7.566  18.970  1.00 47.40 LIG 0.24  C 
ATOM     26 O    PHE E  43      24.466  -7.050  20.072  1.00 45.80 LIG-0.27  OA
ATOM     27 H    SER E  44      25.260  -8.168  17.384  1.00 46.50 LIG 0.16  HD
BRANCH 25 28
ATOM     28  CA  PHE E  43      22.937  -8.021  18.514  1.00 47.87 LIG 0.18  C 
BRANCH 28 29
ATOM     29  CB  PHE E  43      22.017  -8.107  19.728  1.00 42.32 LIG 0.07  C 
BRANCH 29 30
ATOM     30  CG  PHE E  43      20.542  -8.282  19.415  1.00 35.12 LIG-0.06  A 
ATOM     31  CD2 PHE E  43      19.567  -8.468  20.404  1.00 32.72 LIG 0.01  A 
ATOM     32  CE2 PHE E  43      18.207  -8.664  20.039  1.00 30.40 LIG 0.00  A 
ATOM     33  CZ  PHE E  43      17.838  -8.667  18.687  1.00 28.92 LIG 0.00  A 
ATOM     34  CE1 PHE E  43      18.814  -8.482  17.714  1.00 29.46 LIG 0.00  A 
ATOM     35  CD1 PHE E  43      20.147  -8.294  18.086  1.00 34.02 LIG 0.01  A 
ENDBRANCH 29 30
ENDBRANCH 28 29
BRANCH 28 36
ATOM     36  N   PHE E  43      23.310  -9.322  18.039  1.00 51.92 LIG-0.35  N 
ATOM     37  C   GLY E  42      22.869  -9.927  16.952  1.00 55.92 LIG 0.25  C 
ATOM     38 O    GLY E  42      22.038  -9.475  16.152  1.00 57.26 LIG-0.27  OA
ATOM     39 H    PHE E  43      23.884  -9.699  18.558  1.00 51.92 LIG 0.16  HD
BRANCH 37 40
ATOM     40  CA  GLY E  42      23.516 -11.279  16.779  1.00 58.33 LIG 0.47  C 
ATOM     41  N   GLY E  42      24.698 -11.282  15.965  1.00 60.94 LIG 0.61  N 
ENDBRANCH 37 40
ENDBRANCH 28 36
ENDBRANCH 25 28
ENDBRANCH 1 24
TORSDOF 15
ENDMDL
MODEL 3
USER: ADFR SOLUTION from run 125
USER: SCORE 11.884993 LL:  -2.544 LR: -10.603 RR:   0.000 FEB:  -6.129
USER: RMSD 3.587212
USER: SEED 124
USER: STATUS no improvement in best in 5 clusters for 5 generations
USER: GENES 17
USER: genes 0 Translation |==|  0.49533 0.49241 0.52318
USER: genes 1 Rotation |==|  0.66744 0.52445 0.61793 0.95548
USER: genes 2 Torsion [C]-CA--CB-[OG] |==|  0.65892
USER: genes 3 Torsion [CA]-CB--OG-[HG] |==|  0.11939
USER: genes 4 Torsion [N]-CA--C-[N] |==|  0.38123
USER: genes 5 Torsion [C]-N--CA-[C] |==|  0.84297
USER: genes 6 Torsion [N]-CA--C-[N] |==|  0.88409
USER: genes 7 Torsion [C]-N--CA-[C] |==|  0.37837
USER: genes 8 Torsion [N]-CA--C-[O] |==|  0.06835
USER: genes 9 Torsion [N]-CA--CB-[CG] |==|  0.89371
USER: genes 10 Torsion [CA]-CB--CG-[CD2] |==|  0.90586
USER: genes 11 Torsion [CB]-CA--N-[C] |==|  0.49463
USER: genes 12 Torsion [N]-C--CA-[N] |==|  0.15040
USER: genes 13 Torsion [C]-CA--CB-[CG] |==|  0.35906
USER: genes 14 Torsion [CA]-CB--CG-[CD2] |==|  0.57930
USER: genes 15 Torsion [C]-CA--N-[C] |==|  0.62982
USER: genes 16 Torsion [N]-C--CA-[N] |==|  0.47894
ROOT
ATOM      1  CA  SER E  44      26.346  -7.693  18.825  1.00 44.79 LIG 0.20  C 
ENDROOT
BRANCH 1 2
ATOM      2  CB  SER E  44      27.548  -7.668  17.883  1.00 46.10 LIG 0.20  C 
BRANCH 2 3
ATOM      3 OG   SER E  44      27.216  -8.265  16.647  1.00 47.85 LIG-0.40  OA
ATOM      4 HG   SER E  44      26.455  -8.004  16.405  1.00 47.85 LIG 0.21  HD
ENDBRANCH 2 3
ENDBRANCH 1 2
BRANCH 1 5
ATOM      5  C   SER E  44      26.009  -6.286  19.265  1.00 42.78 LIG 0.24  C 
ATOM      6  N   PHE E  45      26.459  -5.951  20.464  1.00 43.36 LIG-0.35  N 
ATOM      7 H    PHE E  45      26.899  -6.481  20.979  1.00 43.36 LIG 0.16  HD
ATOM      8 O    SER E  44      25.340  -5.531  18.557  1.00 37.54 LIG-0.27  OA
BRANCH 6 9
ATOM      9  CA  PHE E  45      26.236  -4.624  21.014  1.00 46.68 LIG 0.18  C 
BRANCH 9 10
ATOM     10  C   PHE E  45      26.804  -3.601  20.041  1.00 48.11 LIG 0.24  C 
ATOM     11 O    PHE E  45      26.191  -2.560  19.795  1.00 49.85 LIG-0.27  OA
ATOM     12  N   GLY E  46      27.975  -3.885  19.486  1.00 50.71 LIG-0.35  N 
ATOM     13 H    GLY E  46      28.432  -4.600  19.630  1.00 50.71 LIG 0.16  HD
BRANCH 12 14
ATOM     14  CA  GLY E  46      28.567  -2.942  18.558  1.00 54.23 LIG 0.21  C 
BRANCH 14 15
ATOM     15  C   GLY E  46      30.046  -2.740  18.795  1.00 55.55 LIG 0.21  C 
ATOM     16 O    GLY E  46      30.669  -3.661  19.358  1.00 59.11 LIG-0.29  OA
ENDBRANCH 14 15
ENDBRANCH 12 14
ENDBRANCH 9 10
BRANCH 9 17
ATOM     17  CB  PHE E  45      26.912  -4.486  22.383  1.00 43.03 LIG 0.07  C 
BRANCH 17 18
ATOM     18  CG  PHE E  45      26.824  -5.728  23.232  1.00 41.93 LIG-0.06  A 
ATOM     19  CD2 PHE E  45      25.704  -6.557  23.174  1.00 42.38 LIG 0.01  A 
ATOM     20  CE2 PHE E  45      25.636  -7.724  23.940  1.00 42.73 LIG 0.00  A 
ATOM     21  CZ  PHE E  45      26.694  -8.067  24.776  1.00 42.74 LIG 0.00  A 
ATOM     22  CE1 PHE E  45      27.818  -7.249  24.842  1.00 41.89 LIG 0.00  A 
ATOM     23  CD1 PHE E  45      27.877  -6.085  24.072  1.00 42.01 LIG 0.01  A 
ENDBRANCH 17 18
ENDBRANCH 9 17
ENDBRANCH 6 9
ENDBRANCH 1 5
BRANCH 1 24
ATOM     24  N   SER E  44      25.228  -8.357  18.188  1.00 46.50 LIG-0.34  N 
ATOM     25  C   PHE E  43      24.117  -8.501  18.877  1.00 47.40 LIG 0.24  C 
ATOM     26 O    PHE E  43      24.023  -8.121  20.041  1.00 45.80 LIG-0.27  OA
ATOM     27 H    SER E  44      25.357  -8.624  17.381  1.00 46.50 LIG 0.16  HD
BRANCH 25 28
ATOM     28  CA  PHE E  43      22.968  -9.204  18.190  1.00 47.87 LIG 0.18  C 
BRANCH 28 29
ATOM     29  CB  PHE E  43      21.877  -9.484  19.219  1.00 42.32 LIG 0.07  C 
BRANCH 29 30
ATOM     30  CG  PHE E  43      20.482  -9.036  18.824  1.00 35.12 LIG-0.06  A 
ATOM     31  CD2 PHE E  43      19.505  -8.662  19.757  1.00 32.72 LIG 0.01  A 
ATOM     32  CE2 PHE E  43      18.204  -8.289  19.320  1.00 30.40 LIG 0.00  A 
ATOM     33  CZ  PHE E  43      17.898  -8.289  17.953  1.00 28.92 LIG 0.00  A 
ATOM     34  CE1 PHE E  43      18.874  -8.662  17.036  1.00 29.46 LIG 0.00  A 
ATOM     35  CD1 PHE E  43      20.147  -9.030  17.479  1.00 34.02 LIG 0.01  A 
ENDBRANCH 29 30
ENDBRANCH 28 29
BRANCH 28 36
ATOM     36  N   PHE E  43      23.665 -10.402  17.818  1.00 51.92 LIG-0.35  N 
ATOM     37  C   GLY E  42      23.648 -10.997  16.640  1.00 55.92 LIG 0.25  C 
ATOM     38 O    GLY E  42      23.010 -10.625  15.645  1.00 57.26 LIG-0.27  OA
ATOM     39 H    PHE E  43      24.125 -10.721  18.472  1.00 51.92 LIG 0.16  HD
BRANCH 37 40
ATOM     40  CA  GLY E  42      24.528 -12.222  16.635  1.00 58.33 LIG 0.47  C 
ATOM     41  N   GLY E  42      24.437 -13.026  15.449  1.00 60.94 LIG 0.61  N 
ENDBRANCH 37 40
ENDBRANCH 28 36
ENDBRANCH 25 28
ENDBRANCH 1 24
TORSDOF 15
ENDMDL
MODEL 4
USER: ADFR SOLUTION from run 165
USER: SCORE 10.995796 LL:  -2.821 LR: -10.425 RR:   0.000 FEB:  -5.950
USER: RMSD 2.386686
USER: SEED 164
USER: STATUS no improvement in best in 5 clusters for 5 generations
USER: GENES 17
USER: genes 0 Translation |==|  0.50103 0.50083 0.51398
USER: genes 1 Rotation |==|  0.59003 0.55551 0.55760 0.98528
USER: genes 2 Torsion [C]-CA--CB-[OG] |==|  0.65771
USER: genes 3 Torsion [CA]-CB--OG-[HG] |==|  0.12357
USER: genes 4 Torsion [N]-CA--C-[N] |==|  0.52059
USER: genes 5 Torsion [C]-N--CA-[C] |==|  0.52222
USER: genes 6 Torsion [N]-CA--C-[N] |==|  0.47503
USER: genes 7 Torsion [C]-N--CA-[C] |==|  0.80534
USER: genes 8 Torsion [N]-CA--C-[O] |==|  0.71626
USER: genes 9 Torsion [N]-CA--CB-[CG] |==|  0.10319
USER: genes 10 Torsion [CA]-CB--CG-[CD2] |==|  0.69442
USER: genes 11 Torsion [CB]-CA--N-[C] |==|  0.39323
USER: genes 12 Torsion [N]-C--CA-[N] |==|  0.35210
USER: genes 13 Torsion [C]-CA--CB-[CG] |==|  0.43787
USER: genes 14 Torsion [CA]-CB--CG-[CD2] |==|  0.88847
USER: genes 15 Torsion [C]-CA--N-[C] |==|  0.61770
USER: genes 16 Torsion [N]-C--CA-[N] |==|  0.46401
ROOT
ATOM      1  CA  SER E  44      26.478  -7.522  18.707  1.00 44.79 LIG 0.20  C 
ENDROOT
BRANCH 1 2
ATOM      2  CB  SER E  44      27.516  -8.073  17.732  1.00 46.10 LIG 0.20  C 
BRANCH 2 3
ATOM      3 OG   SER E  44      26.913  -8.983  16.836  1.00 47.85 LIG-0.40  OA
ATOM      4 HG   SER E  44      26.186  -8.665  16.560  1.00 47.85 LIG 0.21  HD
ENDBRANCH 2 3
ENDBRANCH 1 2
BRANCH 1 5
ATOM      5  C   SER E  44      26.448  -6.013  18.627  1.00 42.78 LIG 0.24  C 
ATOM      6  N   PHE E  45      27.632  -5.424  18.704  1.00 43.36 LIG-0.35  N 
ATOM      7 H    PHE E  45      28.375  -5.846  18.808  1.00 43.36 LIG 0.16  HD
ATOM      8 O    SER E  44      25.389  -5.392  18.526  1.00 37.54 LIG-0.27  OA
BRANCH 6 9
ATOM      9  CA  PHE E  45      27.767  -3.979  18.618  1.00 46.68 LIG 0.18  C 
BRANCH 9 10
ATOM     10  C   PHE E  45      29.249  -3.640  18.540  1.00 48.11 LIG 0.24  C 
ATOM     11 O    PHE E  45      30.102  -4.511  18.718  1.00 49.85 LIG-0.27  OA
ATOM     12  N   GLY E  46      29.563  -2.380  18.271  1.00 50.71 LIG-0.35  N 
ATOM     13 H    GLY E  46      28.998  -1.744  18.143  1.00 50.71 LIG 0.16  HD
BRANCH 12 14
ATOM     14  CA  GLY E  46      30.960  -2.003  18.177  1.00 54.23 LIG 0.21  C 
BRANCH 14 15
ATOM     15  C   GLY E  46      31.663  -2.030  19.515  1.00 55.55 LIG 0.21  C 
ATOM     16 O    GLY E  46      31.859  -0.939  20.083  1.00 59.11 LIG-0.29  OA
ENDBRANCH 14 15
ENDBRANCH 12 14
ENDBRANCH 9 10
BRANCH 9 17
ATOM     17  CB  PHE E  45      27.132  -3.303  19.837  1.00 43.03 LIG 0.07  C 
BRANCH 17 18
ATOM     18  CG  PHE E  45      27.327  -4.063  21.124  1.00 41.93 LIG-0.06  A 
ATOM     19  CD2 PHE E  45      26.254  -4.696  21.750  1.00 42.38 LIG 0.01  A 
ATOM     20  CE2 PHE E  45      26.441  -5.425  22.928  1.00 42.73 LIG 0.00  A 
ATOM     21  CZ  PHE E  45      27.710  -5.523  23.489  1.00 42.74 LIG 0.00  A 
ATOM     22  CE1 PHE E  45      28.789  -4.896  22.873  1.00 41.89 LIG 0.00  A 
ATOM     23  CD1 PHE E  45      28.592  -4.170  21.696  1.00 42.01 LIG 0.01  A 
ENDBRANCH 17 18
ENDBRANCH 9 17
ENDBRANCH 6 9
ENDBRANCH 1 5
BRANCH 1 24
ATOM     24  N   SER E  44      25.184  -8.117  18.447  1.00 46.50 LIG-0.34  N 
ATOM     25  C   PHE E  43      24.422  -8.419  19.475  1.00 47.40 LIG 0.24  C 
ATOM     26 O    PHE E  43      24.793  -8.241  20.632  1.00 45.80 LIG-0.27  OA
ATOM     27 H    SER E  44      24.985  -8.242  17.620  1.00 46.50 LIG 0.16  HD
BRANCH 25 28
ATOM     28  CA  PHE E  43      23.079  -9.046  19.174  1.00 47.87 LIG 0.18  C 
BRANCH 28 29
ATOM     29  CB  PHE E  43      21.978  -8.110  19.667  1.00 42.32 LIG 0.07  C 
BRANCH 29 30
ATOM     30  CG  PHE E  43      20.625  -8.294  19.006  1.00 35.12 LIG-0.06  A 
ATOM     31  CD2 PHE E  43      20.469  -8.543  17.636  1.00 32.72 LIG 0.01  A 
ATOM     32  CE2 PHE E  43      19.168  -8.667  17.075  1.00 30.40 LIG 0.00  A 
ATOM     33  CZ  PHE E  43      18.038  -8.546  17.894  1.00 28.92 LIG 0.00  A 
ATOM     34  CE1 PHE E  43      18.203  -8.299  19.252  1.00 29.46 LIG 0.00  A 
ATOM     35  CD1 PHE E  43      19.487  -8.176  19.790  1.00 34.02 LIG 0.01  A 
ENDBRANCH 29 30
ENDBRANCH 28 29
BRANCH 28 36
ATOM     36  N   PHE E  43      23.208 -10.201  20.014  1.00 51.92 LIG-0.35  N 
ATOM     37  C   GLY E  42      22.860 -11.440  19.719  1.00 55.92 LIG 0.25  C 
ATOM     38 O    GLY E  42      22.345 -11.819  18.658  1.00 57.26 LIG-0.27  OA
ATOM     39 H    PHE E  43      23.554 -10.005  20.777  1.00 51.92 LIG 0.16  HD
BRANCH 37 40
ATOM     40  CA  GLY E  42      23.175 -12.380  20.855  1.00 58.33 LIG 0.47  C 
ATOM     41  N   GLY E  42      22.575 -13.680  20.749  1.00 60.94 LIG 0.61  N 
ENDBRANCH 37 40
ENDBRANCH 28 36
ENDBRANCH 25 28
ENDBRANCH 1 24
TORSDOF 15
ENDMDL
MODEL 5
USER: ADFR SOLUTION from run 191
USER: SCORE 11.693740 LL:  -2.814 LR: -10.371 RR:   0.000 FEB:  -5.897
USER: RMSD 3.142714
USER: SEED 190
USER: STATUS no improvement in best in 7 clusters for 5 generations
USER: GENES 17
USER: genes 0 Translation |==|  0.49477 0.48407 0.50958
USER: genes 1 Rotation |==|  0.66667 0.56977 0.56059 0.96226
USER: genes 2 Torsion [C]-CA--CB-[OG] |==|  0.57922
USER: genes 3 Torsion [CA]-CB--OG-[HG] |==|  0.18488
USER: genes 4 Torsion [N]-CA--C-[N] |==|  0.43305
USER: genes 5 Torsion [C]-N--CA-[C] |==|  0.75545
USER: genes 6 Torsion [N]-CA--C-[N] |==|  0.99951
USER: genes 7 Torsion [C]-N--CA-[C] |==|  0.57255
USER: genes 8 Torsion [N]-CA--C-[O] |==|  0.99767
USER: genes 9 Torsion [N]-CA--CB-[CG] |==|  0.79788
USER: genes 10 Torsion [CA]-CB--CG-[CD2] |==|  0.65832
USER: genes 11 Torsion [CB]-CA--N-[C] |==|  0.44709
USER: genes 12 Torsion [N]-C--CA-[N] |==|  0.33491
USER: genes 13 Torsion [C]-CA--CB-[CG] |==|  0.44912
USER: genes 14 Torsion [CA]-CB--CG-[CD2] |==|  0.38630
USER: genes 15 Torsion [C]-CA--N-[C] |==|  0.55676
USER: genes 16 Torsion [N]-C--CA-[N] |==|  0.45536
ROOT
ATOM      1  CA  SER E  44      26.332  -7.862  18.651  1.00 44.79 LIG 0.20  C 
ENDROOT
BRANCH 1 2
ATOM      2  CB  SER E  44      27.262  -8.074  17.458  1.00 46.10 LIG 0.20  C 
BRANCH 2 3
ATOM      3 OG   SER E  44      26.830  -9.180  16.692  1.00 47.85 LIG-0.40  OA
ATOM      4 HG   SER E  44      26.090  -9.004  16.337  1.00 47.85 LIG 0.21  HD
ENDBRANCH 2 3
ENDBRANCH 1 2
BRANCH 1 5
ATOM      5  C   SER E  44      26.321  -6.400  19.038  1.00 42.78 LIG 0.24  C 
ATOM      6  N   PHE E  45      27.344  -6.008  19.782  1.00 43.36 LIG-0.35  N 
ATOM      7 H    PHE E  45      27.972  -6.531  20.051  1.00 43.36 LIG 0.16  HD
ATOM      8 O    SER E  44      25.403  -5.650  18.701  1.00 37.54 LIG-0.27  OA
BRANCH 6 9
ATOM      9  CA  PHE E  45      27.483  -4.627  20.212  1.00 46.68 LIG 0.18  C 
BRANCH 9 10
ATOM     10  C   PHE E  45      28.244  -3.865  19.136  1.00 48.11 LIG 0.24  C 
ATOM     11 O    PHE E  45      28.489  -2.665  19.271  1.00 49.85 LIG-0.27  OA
ATOM     12  N   GLY E  46      28.623  -4.553  18.067  1.00 50.71 LIG-0.35  N 
ATOM     13 H    GLY E  46      28.469  -5.389  17.936  1.00 50.71 LIG 0.16  HD
BRANCH 12 14
ATOM     14  CA  GLY E  46      29.358  -3.879  17.015  1.00 54.23 LIG 0.21  C 
BRANCH 14 15
ATOM     15  C   GLY E  46      29.179  -4.538  15.666  1.00 55.55 LIG 0.21  C 
ATOM     16 O    GLY E  46      28.462  -5.555  15.613  1.00 59.11 LIG-0.29  OA
ENDBRANCH 14 15
ENDBRANCH 12 14
ENDBRANCH 9 10
BRANCH 9 17
ATOM     17  CB  PHE E  45      28.233  -4.550  21.547  1.00 43.03 LIG 0.07  C 
BRANCH 17 18
ATOM     18  CG  PHE E  45      27.420  -5.012  22.728  1.00 41.93 LIG-0.06  A 
ATOM     19  CD2 PHE E  45      27.201  -4.172  23.819  1.00 42.38 LIG 0.01  A 
ATOM     20  CE2 PHE E  45      26.422  -4.591  24.902  1.00 42.73 LIG 0.00  A 
ATOM     21  CZ  PHE E  45      25.857  -5.863  24.898  1.00 42.74 LIG 0.00  A 
ATOM     22  CE1 PHE E  45      26.067  -6.711  23.815  1.00 41.89 LIG 0.00  A 
ATOM     23  CD1 PHE E  45      26.846  -6.282  22.737  1.00 42.01 LIG 0.01  A 
ENDBRANCH 17 18
ENDBRANCH 9 17
ENDBRANCH 6 9
ENDBRANCH 1 5
BRANCH 1 24
ATOM     24  N   SER E  44      25.010  -8.367  18.349  1.00 46.50 LIG-0.34  N 
ATOM     25  C   PHE E  43      24.198  -8.619  19.353  1.00 47.40 LIG 0.24  C 
ATOM     26 O    PHE E  43      24.546  -8.471  20.521  1.00 45.80 LIG-0.27  OA
ATOM     27 H    SER E  44      24.827  -8.474  17.516  1.00 46.50 LIG 0.16  HD
BRANCH 25 28
ATOM     28  CA  PHE E  43      22.825  -9.152  19.009  1.00 47.87 LIG 0.18  C 
BRANCH 28 29
ATOM     29  CB  PHE E  43      21.773  -8.224  19.609  1.00 42.32 LIG 0.07  C 
BRANCH 29 30
ATOM     30  CG  PHE E  43      20.382  -8.349  19.016  1.00 35.12 LIG-0.06  A 
ATOM     31  CD2 PHE E  43      19.215  -8.317  19.790  1.00 32.72 LIG 0.01  A 
ATOM     32  CE2 PHE E  43      17.943  -8.478  19.173  1.00 30.40 LIG 0.00  A 
ATOM     33  CZ  PHE E  43      17.856  -8.664  17.787  1.00 28.92 LIG 0.00  A 
ATOM     34  CE1 PHE E  43      19.020  -8.695  17.029  1.00 29.46 LIG 0.00  A 
ATOM     35  CD1 PHE E  43      20.263  -8.539  17.648  1.00 34.02 LIG 0.01  A 
ENDBRANCH 29 30
ENDBRANCH 28 29
BRANCH 28 36
ATOM     36  N   PHE E  43      22.910 -10.391  19.726  1.00 51.92 LIG-0.35  N 
ATOM     37  C   GLY E  42      22.181 -11.474  19.528  1.00 55.92 LIG 0.25  C 
ATOM     38 O    GLY E  42      21.281 -11.603  18.687  1.00 57.26 LIG-0.27  OA
ATOM     39 H    PHE E  43      23.516 -10.367  20.337  1.00 51.92 LIG 0.16  HD
BRANCH 37 40
ATOM     40  CA  GLY E  42      22.584 -12.582  20.469  1.00 58.33 LIG 0.47  C 
ATOM     41  N   GLY E  42      21.635 -13.653  20.584  1.00 60.94 LIG 0.61  N 
ENDBRANCH 37 40
ENDBRANCH 28 36
ENDBRANCH 25 28
ENDBRANCH 1 24
TORSDOF 15
ENDMDL
MODEL 6
USER: ADFR SOLUTION from run 55
USER: SCORE 11.476064 LL:  -2.933 LR: -10.275 RR:   0.000 FEB:  -5.800
USER: RMSD 2.180591
USER: SEED 54
USER: STATUS no improvement in best in 7 clusters for 5 generations
USER: GENES 17
USER: genes 0 Translation |==|  0.50673 0.44650 0.49105
USER: genes 1 Rotation |==|  0.41792 0.49576 0.45881 0.99148
USER: genes 2 Torsion [C]-CA--CB-[OG] |==|  0.82577
USER: genes 3 Torsion [CA]-CB--OG-[HG] |==|  0.07790
USER: genes 4 Torsion [N]-CA--C-[N] |==|  0.27676
USER: genes 5 Torsion [C]-N--CA-[C] |==|  0.67529
USER: genes 6 Torsion [N]-CA--C-[N] |==|  0.50417
USER: genes 7 Torsion [C]-N--CA-[C] |==|  0.79831
USER: genes 8 Torsion [N]-CA--C-[O] |==|  0.25386
USER: genes 9 Torsion [N]-CA--CB-[CG] |==|  0.13585
USER: genes 10 Torsion [CA]-CB--CG-[CD2] |==|  0.79383
USER: genes 11 Torsion [CB]-CA--N-[C] |==|  0.22764
USER: genes 12 Torsion [N]-C--CA-[N] |==|  0.41111
USER: genes 13 Torsion [C]-CA--CB-[CG] |==|  0.48133
USER: genes 14 Torsion [CA]-CB--CG-[CD2] |==|  0.83513
USER: genes 15 Torsion [C]-CA--N-[C] |==|  0.56007
USER: genes 16 Torsion [N]-C--CA-[N] |==|  0.49405
ROOT
ATOM      1  CA  SER E  44      26.611  -8.622  18.415  1.00 44.79 LIG 0.20  C 
ENDROOT
BRANCH 1 2
ATOM      2  CB  SER E  44      27.428  -9.912  18.380  1.00 46.10 LIG 0.20  C 
BRANCH 2 3
ATOM      3 OG   SER E  44      27.374 -10.492  17.092  1.00 47.85 LIG-0.40  OA
ATOM      4 HG   SER E  44      27.257  -9.890  16.518  1.00 47.85 LIG 0.21  HD
ENDBRANCH 2 3
ENDBRANCH 1 2
BRANCH 1 5
ATOM      5  C   SER E  44      27.205  -7.612  17.460  1.00 42.78 LIG 0.24  C 
ATOM      6  N   PHE E  45      27.274  -6.374  17.925  1.00 43.36 LIG-0.35  N 
ATOM      7 H    PHE E  45      26.995  -6.135  18.703  1.00 43.36 LIG 0.16  HD
ATOM      8 O    SER E  44      27.566  -7.931  16.325  1.00 37.54 LIG-0.27  OA
BRANCH 6 9
ATOM      9  CA  PHE E  45      27.844  -5.297  17.132  1.00 46.68 LIG 0.18  C 
BRANCH 9 10
ATOM     10  C   PHE E  45      29.078  -4.773  17.852  1.00 48.11 LIG 0.24  C 
ATOM     11 O    PHE E  45      29.452  -5.283  18.910  1.00 49.85 LIG-0.27  OA
ATOM     12  N   GLY E  46      29.718  -3.758  17.286  1.00 50.71 LIG-0.35  N 
ATOM     13 H    GLY E  46      29.488  -3.374  16.552  1.00 50.71 LIG 0.16  HD
BRANCH 12 14
ATOM     14  CA  GLY E  46      30.905  -3.224  17.925  1.00 54.23 LIG 0.21  C 
BRANCH 14 15
ATOM     15  C   GLY E  46      30.588  -2.432  19.174  1.00 55.55 LIG 0.21  C 
ATOM     16 O    GLY E  46      30.582  -3.046  20.258  1.00 59.11 LIG-0.29  OA
ENDBRANCH 14 15
ENDBRANCH 12 14
ENDBRANCH 9 10
BRANCH 9 17
ATOM     17  CB  PHE E  45      26.824  -4.170  16.939  1.00 43.03 LIG 0.07  C 
BRANCH 17 18
ATOM     18  CG  PHE E  45      26.154  -3.731  18.215  1.00 41.93 LIG-0.06  A 
ATOM     19  CD2 PHE E  45      25.179  -4.523  18.821  1.00 42.38 LIG 0.01  A 
ATOM     20  CE2 PHE E  45      24.579  -4.128  20.020  1.00 42.73 LIG 0.00  A 
ATOM     21  CZ  PHE E  45      24.954  -2.931  20.622  1.00 42.74 LIG 0.00  A 
ATOM     22  CE1 PHE E  45      25.928  -2.133  20.029  1.00 41.89 LIG 0.00  A 
ATOM     23  CD1 PHE E  45      26.521  -2.536  18.830  1.00 42.01 LIG 0.01  A 
ENDBRANCH 17 18
ENDBRANCH 9 17
ENDBRANCH 6 9
ENDBRANCH 1 5
BRANCH 1 24
ATOM     24  N   SER E  44      25.220  -8.905  18.129  1.00 46.50 LIG-0.34  N 
ATOM     25  C   PHE E  43      24.461  -9.341  19.110  1.00 47.40 LIG 0.24  C 
ATOM     26 O    PHE E  43      24.909  -9.542  20.236  1.00 45.80 LIG-0.27  OA
ATOM     27 H    SER E  44      24.966  -8.770  17.319  1.00 46.50 LIG 0.16  HD
BRANCH 25 28
ATOM     28  CA  PHE E  43      23.014  -9.635  18.781  1.00 47.87 LIG 0.18  C 
BRANCH 28 29
ATOM     29  CB  PHE E  43      22.170  -8.417  19.144  1.00 42.32 LIG 0.07  C 
BRANCH 29 30
ATOM     30  CG  PHE E  43      20.713  -8.488  18.728  1.00 35.12 LIG-0.06  A 
ATOM     31  CD2 PHE E  43      20.304  -8.642  17.397  1.00 32.72 LIG 0.01  A 
ATOM     32  CE2 PHE E  43      18.919  -8.664  17.072  1.00 30.40 LIG 0.00  A 
ATOM     33  CZ  PHE E  43      17.960  -8.536  18.086  1.00 28.92 LIG 0.00  A 
ATOM     34  CE1 PHE E  43      18.377  -8.383  19.403  1.00 29.46 LIG 0.00  A 
ATOM     35  CD1 PHE E  43      19.741  -8.360  19.708  1.00 34.02 LIG 0.01  A 
ENDBRANCH 29 30
ENDBRANCH 28 29
BRANCH 28 36
ATOM     36  N   PHE E  43      22.816 -10.711  19.709  1.00 51.92 LIG-0.35  N 
ATOM     37  C   GLY E  42      21.892 -11.652  19.648  1.00 55.92 LIG 0.25  C 
ATOM     38 O    GLY E  42      21.019 -11.760  18.775  1.00 57.26 LIG-0.27  OA
ATOM     39 H    PHE E  43      23.389 -10.690  20.351  1.00 51.92 LIG 0.16  HD
BRANCH 37 40
ATOM     40  CA  GLY E  42      22.024 -12.621  20.796  1.00 58.33 LIG 0.47  C 
ATOM     41  N   GLY E  42      21.025 -13.651  20.835  1.00 60.94 LIG 0.61  N 
ENDBRANCH 37 40
ENDBRANCH 28 36
ENDBRANCH 25 28
ENDBRANCH 1 24
TORSDOF 15
ENDMDL
MODEL 7
USER: ADFR SOLUTION from run 58
USER: SCORE 11.759747 LL:  -2.905 LR: -10.225 RR:   0.000 FEB:  -5.750
USER: RMSD 3.234661
USER: SEED 57
USER: STATUS no improvement in best in 5 clusters for 5 generations
USER: GENES 17
USER: genes 0 Translation |==|  0.51203 0.47942 0.51517
USER: genes 1 Rotation |==|  0.64379 0.49162 0.52207 0.97830
USER: genes 2 Torsion [C]-CA--CB-[OG] |==|  0.67871
USER: genes 3 Torsion [CA]-CB--OG-[HG] |==|  0.12555
USER: genes 4 Torsion [N]-CA--C-[N] |==|  0.42222
USER: genes 5 Torsion [C]-N--CA-[C] |==|  0.54386
USER: genes 6 Torsion [N]-CA--C-[N] |==|  0.49146
USER: genes 7 Torsion [C]-N--CA-[C] |==|  0.44950
USER: genes 8 Torsion [N]-CA--C-[O] |==|  0.89860
USER: genes 9 Torsion [N]-CA--CB-[CG] |==|  0.17920
USER: genes 10 Torsion [CA]-CB--CG-[CD2] |==|  0.81304
USER: genes 11 Torsion [CB]-CA--N-[C] |==|  0.45956
USER: genes 12 Torsion [N]-C--CA-[N] |==|  0.10962
USER: genes 13 Torsion [C]-CA--CB-[CG] |==|  0.46405
USER: genes 14 Torsion [CA]-CB--CG-[CD2] |==|  0.05644
USER: genes 15 Torsion [C]-CA--N-[C] |==|  0.17222
USER: genes 16 Torsion [N]-C--CA-[N] |==|  0.24137
ROOT
ATOM      1  CA  SER E  44      26.734  -7.956  18.722  1.00 44.79 LIG 0.20  C 
ENDROOT
BRANCH 1 2
ATOM      2  CB  SER E  44      27.842  -8.514  17.831  1.00 46.10 LIG 0.20  C 
BRANCH 2 3
ATOM      3 OG   SER E  44      27.314  -8.906  16.581  1.00 47.85 LIG-0.40  OA
ATOM      4 HG   SER E  44      26.797  -8.309  16.295  1.00 47.85 LIG 0.21  HD
ENDBRANCH 2 3
ENDBRANCH 1 2
BRANCH 1 5
ATOM      5  C   SER E  44      26.993  -6.494  19.008  1.00 42.78 LIG 0.24  C 
ATOM      6  N   PHE E  45      27.807  -6.257  20.026  1.00 43.36 LIG-0.35  N 
ATOM      7 H    PHE E  45      28.162  -6.872  20.512  1.00 43.36 LIG 0.16  HD
ATOM      8 O    SER E  44      26.454  -5.602  18.351  1.00 37.54 LIG-0.27  OA
BRANCH 6 9
ATOM      9  CA  PHE E  45      28.171  -4.902  20.407  1.00 46.68 LIG 0.18  C 
BRANCH 9 10
ATOM     10  C   PHE E  45      29.388  -4.971  21.318  1.00 48.11 LIG 0.24  C 
ATOM     11 O    PHE E  45      29.859  -6.059  21.655  1.00 49.85 LIG-0.27  OA
ATOM     12  N   GLY E  46      29.904  -3.816  21.718  1.00 50.71 LIG-0.35  N 
ATOM     13 H    GLY E  46      29.603  -3.039  21.507  1.00 50.71 LIG 0.16  HD
BRANCH 12 14
ATOM     14  CA  GLY E  46      31.069  -3.823  22.581  1.00 54.23 LIG 0.21  C 
BRANCH 14 15
ATOM     15  C   GLY E  46      31.791  -2.495  22.595  1.00 55.55 LIG 0.21  C 
ATOM     16 O    GLY E  46      31.842  -1.856  21.526  1.00 59.11 LIG-0.29  OA
ENDBRANCH 14 15
ENDBRANCH 12 14
ENDBRANCH 9 10
BRANCH 9 17
ATOM     17  CB  PHE E  45      27.007  -4.212  21.127  1.00 43.03 LIG 0.07  C 
BRANCH 17 18
ATOM     18  CG  PHE E  45      26.643  -4.850  22.443  1.00 41.93 LIG-0.06  A 
ATOM     19  CD2 PHE E  45      26.090  -6.130  22.490  1.00 42.38 LIG 0.01  A 
ATOM     20  CE2 PHE E  45      25.780  -6.732  23.712  1.00 42.73 LIG 0.00  A 
ATOM     21  CZ  PHE E  45      26.021  -6.052  24.901  1.00 42.74 LIG 0.00  A 
ATOM     22  CE1 PHE E  45      26.574  -4.775  24.869  1.00 41.89 LIG 0.00  A 
ATOM     23  CD1 PHE E  45      26.882  -4.182  23.642  1.00 42.01 LIG 0.01  A 
ENDBRANCH 17 18
ENDBRANCH 9 17
ENDBRANCH 6 9
ENDBRANCH 1 5
BRANCH 1 24
ATOM     24  N   SER E  44      25.441  -8.181  18.111  1.00 46.50 LIG-0.34  N 
ATOM     25  C   PHE E  43      24.368  -8.033  18.857  1.00 47.40 LIG 0.24  C 
ATOM     26 O    PHE E  43      24.441  -7.748  20.049  1.00 45.80 LIG-0.27  OA
ATOM     27 H    SER E  44      25.449  -8.402  17.280  1.00 46.50 LIG 0.16  HD
BRANCH 25 28
ATOM     28  CA  PHE E  43      23.031  -8.282  18.195  1.00 47.87 LIG 0.18  C 
BRANCH 28 29
ATOM     29  CB  PHE E  43      22.014  -8.661  19.267  1.00 42.32 LIG 0.07  C 
BRANCH 29 30
ATOM     30  CG  PHE E  43      20.564  -8.645  18.822  1.00 35.12 LIG-0.06  A 
ATOM     31  CD2 PHE E  43      20.175  -8.719  17.477  1.00 32.72 LIG 0.01  A 
ATOM     32  CE2 PHE E  43      18.798  -8.661  17.127  1.00 30.40 LIG 0.00  A 
ATOM     33  CZ  PHE E  43      17.825  -8.533  18.128  1.00 28.92 LIG 0.00  A 
ATOM     34  CE1 PHE E  43      18.222  -8.459  19.458  1.00 29.46 LIG 0.00  A 
ATOM     35  CD1 PHE E  43      19.579  -8.515  19.788  1.00 34.02 LIG 0.01  A 
ENDBRANCH 29 30
ENDBRANCH 28 29
BRANCH 28 36
ATOM     36  N   PHE E  43      23.412  -9.414  17.401  1.00 51.92 LIG-0.35  N 
ATOM     37  C   GLY E  42      23.843 -10.582  17.840  1.00 55.92 LIG 0.25  C 
ATOM     38 O    GLY E  42      24.006 -10.900  19.026  1.00 57.26 LIG-0.27  OA
ATOM     39 H    PHE E  43      23.330  -9.257  16.559  1.00 51.92 LIG 0.16  HD
BRANCH 37 40
ATOM     40  CA  GLY E  42      24.119 -11.526  16.697  1.00 58.33 LIG 0.47  C 
ATOM     41  N   GLY E  42      25.436 -11.424  16.134  1.00 60.94 LIG 0.61  N 
ENDBRANCH 37 40
ENDBRANCH 28 36
ENDBRANCH 25 28
ENDBRANCH 1 24
TORSDOF 15
ENDMDL
MODEL 8
USER: ADFR SOLUTION from run 56
USER: SCORE 11.322474 LL:  -2.712 LR: -10.064 RR:   0.000 FEB:  -5.589
USER: RMSD 2.263347
USER: SEED 55
USER: STATUS no improvement in best in 7 clusters for 5 generations
USER: GENES 17
USER: genes 0 Translation |==|  0.50183 0.48157 0.50609
USER: genes 1 Rotation |==|  0.53695 0.49518 0.46232 0.99718
USER: genes 2 Torsion [C]-CA--CB-[OG] |==|  0.73680
USER: genes 3 Torsion [CA]-CB--OG-[HG] |==|  0.98577
USER: genes 4 Torsion [N]-CA--C-[N] |==|  0.49085
USER: genes 5 Torsion [C]-N--CA-[C] |==|  0.61176
USER: genes 6 Torsion [N]-CA--C-[N] |==|  0.03830
USER: genes 7 Torsion [C]-N--CA-[C] |==|  0.44528
USER: genes 8 Torsion [N]-CA--C-[O] |==|  0.13836
USER: genes 9 Torsion [N]-CA--CB-[CG] |==|  0.83121
USER: genes 10 Torsion [CA]-CB--CG-[CD2] |==|  0.82046
USER: genes 11 Torsion [CB]-CA--N-[C] |==|  0.21100
USER: genes 12 Torsion [N]-C--CA-[N] |==|  0.41363
USER: genes 13 Torsion [C]-CA--CB-[CG] |==|  0.50992
USER: genes 14 Torsion [CA]-CB--CG-[CD2] |==|  0.40607
USER: genes 15 Torsion [C]-CA--N-[C] |==|  0.61186
USER: genes 16 Torsion [N]-C--CA-[N] |==|  0.40204
ROOT
ATOM      1  CA  SER E  44      26.497  -7.912  18.607  1.00 44.79 LIG 0.20  C 
ENDROOT
BRANCH 1 2
ATOM      2  CB  SER E  44      27.351  -9.034  18.020  1.00 46.10 LIG 0.20  C 
BRANCH 2 3
ATOM      3 OG   SER E  44      26.833  -9.443  16.771  1.00 47.85 LIG-0.40  OA
ATOM      4 HG   SER E  44      26.112  -9.039  16.621  1.00 47.85 LIG 0.21  HD
ENDBRANCH 2 3
ENDBRANCH 1 2
BRANCH 1 5
ATOM      5  C   SER E  44      27.093  -6.570  18.246  1.00 42.78 LIG 0.24  C 
ATOM      6  N   PHE E  45      28.325  -6.368  18.688  1.00 43.36 LIG-0.35  N 
ATOM      7 H    PHE E  45      28.768  -6.936  19.159  1.00 43.36 LIG 0.16  HD
ATOM      8 O    SER E  44      26.454  -5.729  17.613  1.00 37.54 LIG-0.27  OA
BRANCH 6 9
ATOM      9  CA  PHE E  45      29.041  -5.136  18.400  1.00 46.68 LIG 0.18  C 
BRANCH 9 10
ATOM     10  C   PHE E  45      30.489  -5.484  18.090  1.00 48.11 LIG 0.24  C 
ATOM     11 O    PHE E  45      31.354  -4.606  18.065  1.00 49.85 LIG-0.27  OA
ATOM     12  N   GLY E  46      30.763  -6.761  17.856  1.00 50.71 LIG-0.35  N 
ATOM     13 H    GLY E  46      30.188  -7.400  17.862  1.00 50.71 LIG 0.16  HD
BRANCH 12 14
ATOM     14  CA  GLY E  46      32.129  -7.150  17.564  1.00 54.23 LIG 0.21  C 
BRANCH 14 15
ATOM     15  C   GLY E  46      32.375  -8.625  17.788  1.00 55.55 LIG 0.21  C 
ATOM     16 O    GLY E  46      31.572  -9.427  17.273  1.00 59.11 LIG-0.29  OA
ENDBRANCH 14 15
ENDBRANCH 12 14
ENDBRANCH 9 10
BRANCH 9 17
ATOM     17  CB  PHE E  45      28.969  -4.178  19.595  1.00 43.03 LIG 0.07  C 
BRANCH 17 18
ATOM     18  CG  PHE E  45      27.566  -3.768  19.963  1.00 41.93 LIG-0.06  A 
ATOM     19  CD2 PHE E  45      26.786  -3.019  19.084  1.00 42.38 LIG 0.01  A 
ATOM     20  CE2 PHE E  45      25.475  -2.664  19.414  1.00 42.73 LIG 0.00  A 
ATOM     21  CZ  PHE E  45      24.936  -3.059  20.634  1.00 42.74 LIG 0.00  A 
ATOM     22  CE1 PHE E  45      25.704  -3.809  21.520  1.00 41.89 LIG 0.00  A 
ATOM     23  CD1 PHE E  45      27.013  -4.159  21.180  1.00 42.01 LIG 0.01  A 
ENDBRANCH 17 18
ENDBRANCH 9 17
ENDBRANCH 6 9
ENDBRANCH 1 5
BRANCH 1 24
ATOM     24  N   SER E  44      25.125  -8.047  18.164  1.00 46.50 LIG-0.34  N 
ATOM     25  C   PHE E  43      24.381  -8.976  18.723  1.00 47.40 LIG 0.24  C 
ATOM     26 O    PHE E  43      24.828  -9.740  19.574  1.00 45.80 LIG-0.27  OA
ATOM     27 H    SER E  44      24.871  -7.502  17.549  1.00 46.50 LIG 0.16  HD
BRANCH 25 28
ATOM     28  CA  PHE E  43      22.954  -9.098  18.237  1.00 47.87 LIG 0.18  C 
BRANCH 28 29
ATOM     29  CB  PHE E  43      22.048  -8.289  19.160  1.00 42.32 LIG 0.07  C 
BRANCH 29 30
ATOM     30  CG  PHE E  43      20.564  -8.377  18.856  1.00 35.12 LIG-0.06  A 
ATOM     31  CD2 PHE E  43      19.576  -8.336  19.849  1.00 32.72 LIG 0.01  A 
ATOM     32  CE2 PHE E  43      18.204  -8.463  19.497  1.00 30.40 LIG 0.00  A 
ATOM     33  CZ  PHE E  43      17.837  -8.624  18.154  1.00 28.92 LIG 0.00  A 
ATOM     34  CE1 PHE E  43      18.825  -8.664  17.177  1.00 29.46 LIG 0.00  A 
ATOM     35  CD1 PHE E  43      20.170  -8.542  17.537  1.00 34.02 LIG 0.01  A 
ENDBRANCH 29 30
ENDBRANCH 28 29
BRANCH 28 36
ATOM     36  N   PHE E  43      22.796 -10.509  18.443  1.00 51.92 LIG-0.35  N 
ATOM     37  C   GLY E  42      22.181 -11.364  17.648  1.00 55.92 LIG 0.25  C 
ATOM     38 O    GLY E  42      21.617 -11.089  16.580  1.00 57.26 LIG-0.27  OA
ATOM     39 H    PHE E  43      23.161 -10.768  19.178  1.00 51.92 LIG 0.16  HD
BRANCH 37 40
ATOM     40  CA  GLY E  42      22.247 -12.766  18.199  1.00 58.33 LIG 0.47  C 
ATOM     41  N   GLY E  42      21.081 -13.568  17.954  1.00 60.94 LIG 0.61  N 
ENDBRANCH 37 40
ENDBRANCH 28 36
ENDBRANCH 25 28
ENDBRANCH 1 24
TORSDOF 15
ENDMDL
MODEL 9
USER: ADFR SOLUTION from run 25
USER: SCORE 11.152731 LL:  -3.075 LR:  -9.923 RR:   0.000 FEB:  -5.448
USER: RMSD 2.506874
USER: SEED 24
USER: STATUS searching
USER: GENES 17
USER: genes 0 Translation |==|  0.51088 0.50286 0.52743
USER: genes 1 Rotation |==|  0.41120 0.41564 0.45333 0.98251
USER: genes 2 Torsion [C]-CA--CB-[OG] |==|  0.69055
USER: genes 3 Torsion [CA]-CB--OG-[HG] |==|  0.51755
USER: genes 4 Torsion [N]-CA--C-[N] |==|  0.41123
USER: genes 5 Torsion [C]-N--CA-[C] |==|  0.60098
USER: genes 6 Torsion [N]-CA--C-[N] |==|  0.80247
USER: genes 7 Torsion [C]-N--CA-[C] |==|  0.63623
USER: genes 8 Torsion [N]-CA--C-[O] |==|  0.93988
USER: genes 9 Torsion [N]-CA--CB-[CG] |==|  0.01989
USER: genes 10 Torsion [CA]-CB--CG-[CD2] |==|  0.72544
USER: genes 11 Torsion [CB]-CA--N-[C] |==|  0.26469
USER: genes 12 Torsion [N]-C--CA-[N] |==|  0.13838
USER: genes 13 Torsion [C]-CA--CB-[CG] |==|  0.43346
USER: genes 14 Torsion [CA]-CB--CG-[CD2] |==|  0.09056
USER: genes 15 Torsion [C]-CA--N-[C] |==|  0.16666
USER: genes 16 Torsion [N]-C--CA-[N] |==|  0.21241
ROOT
ATOM      1  CA  SER E  44      26.707  -7.481  18.879  1.00 44.79 LIG 0.20  C 
ENDROOT
BRANCH 1 2
ATOM      2  CB  SER E  44      27.518  -8.740  19.180  1.00 46.10 LIG 0.20  C 
BRANCH 2 3
ATOM      3 OG   SER E  44      27.006  -9.838  18.454  1.00 47.85 LIG-0.40  OA
ATOM      4 HG   SER E  44      27.401 -10.540  18.691  1.00 47.85 LIG 0.21  HD
ENDBRANCH 2 3
ENDBRANCH 1 2
BRANCH 1 5
ATOM      5  C   SER E  44      27.553  -6.502  18.096  1.00 42.78 LIG 0.24  C 
ATOM      6  N   PHE E  45      28.266  -5.663  18.832  1.00 43.36 LIG-0.35  N 
ATOM      7 H    PHE E  45      28.254  -5.647  19.692  1.00 43.36 LIG 0.16  HD
ATOM      8 O    SER E  44      27.543  -6.482  16.864  1.00 37.54 LIG-0.27  OA
BRANCH 6 9
ATOM      9  CA  PHE E  45      29.145  -4.680  18.222  1.00 46.68 LIG 0.18  C 
BRANCH 9 10
ATOM     10  C   PHE E  45      30.383  -4.537  19.097  1.00 48.11 LIG 0.24  C 
ATOM     11 O    PHE E  45      31.473  -4.970  18.718  1.00 49.85 LIG-0.27  OA
ATOM     12  N   GLY E  46      30.225  -3.930  20.266  1.00 50.71 LIG-0.35  N 
ATOM     13 H    GLY E  46      29.483  -3.617  20.566  1.00 50.71 LIG 0.16  HD
BRANCH 12 14
ATOM     14  CA  GLY E  46      31.373  -3.759  21.136  1.00 54.23 LIG 0.21  C 
BRANCH 14 15
ATOM     15  C   GLY E  46      31.098  -4.199  22.556  1.00 55.55 LIG 0.21  C 
ATOM     16 O    GLY E  46      29.909  -4.246  22.923  1.00 59.11 LIG-0.29  OA
ENDBRANCH 14 15
ENDBRANCH 12 14
ENDBRANCH 9 10
BRANCH 9 17
ATOM     17  CB  PHE E  45      28.434  -3.329  18.086  1.00 43.03 LIG 0.07  C 
BRANCH 17 18
ATOM     18  CG  PHE E  45      27.084  -3.283  18.754  1.00 41.93 LIG-0.06  A 
ATOM     19  CD2 PHE E  45      25.914  -3.455  18.016  1.00 42.38 LIG 0.01  A 
ATOM     20  CE2 PHE E  45      24.664  -3.441  18.642  1.00 42.73 LIG 0.00  A 
ATOM     21  CZ  PHE E  45      24.579  -3.251  20.017  1.00 42.74 LIG 0.00  A 
ATOM     22  CE1 PHE E  45      25.740  -3.079  20.766  1.00 41.89 LIG 0.00  A 
ATOM     23  CD1 PHE E  45      26.985  -3.095  20.131  1.00 42.01 LIG 0.01  A 
ENDBRANCH 17 18
ENDBRANCH 9 17
ENDBRANCH 6 9
ENDBRANCH 1 5
BRANCH 1 24
ATOM     24  N   SER E  44      25.482  -7.830  18.191  1.00 46.50 LIG-0.34  N 
ATOM     25  C   PHE E  43      24.390  -7.980  18.909  1.00 47.40 LIG 0.24  C 
ATOM     26 O    PHE E  43      24.396  -7.868  20.131  1.00 45.80 LIG-0.27  OA
ATOM     27 H    SER E  44      25.539  -7.920  17.338  1.00 46.50 LIG 0.16  HD
BRANCH 25 28
ATOM     28  CA  PHE E  43      23.125  -8.351  18.166  1.00 47.87 LIG 0.18  C 
BRANCH 28 29
ATOM     29  CB  PHE E  43      22.080  -8.816  19.176  1.00 42.32 LIG 0.07  C 
BRANCH 29 30
ATOM     30  CG  PHE E  43      20.637  -8.685  18.724  1.00 35.12 LIG-0.06  A 
ATOM     31  CD2 PHE E  43      20.237  -8.829  17.389  1.00 32.72 LIG 0.01  A 
ATOM     32  CE2 PHE E  43      18.872  -8.656  17.029  1.00 30.40 LIG 0.00  A 
ATOM     33  CZ  PHE E  43      17.923  -8.346  18.012  1.00 28.92 LIG 0.00  A 
ATOM     34  CE1 PHE E  43      18.331  -8.205  19.333  1.00 29.46 LIG 0.00  A 
ATOM     35  CD1 PHE E  43      19.675  -8.374  19.673  1.00 34.02 LIG 0.01  A 
ENDBRANCH 29 30
ENDBRANCH 28 29
BRANCH 28 36
ATOM     36  N   PHE E  43      23.656  -9.449  17.410  1.00 51.92 LIG-0.35  N 
ATOM     37  C   GLY E  42      24.194 -10.555  17.888  1.00 55.92 LIG 0.25  C 
ATOM     38 O    GLY E  42      24.346 -10.833  19.086  1.00 57.26 LIG-0.27  OA
ATOM     39 H    PHE E  43      23.589  -9.316  16.562  1.00 51.92 LIG 0.16  HD
BRANCH 37 40
ATOM     40  CA  GLY E  42      24.614 -11.482  16.775  1.00 58.33 LIG 0.47  C 
ATOM     41  N   GLY E  42      25.824 -11.107  16.100  1.00 60.94 LIG 0.61  N 
ENDBRANCH 37 40
ENDBRANCH 28 36
ENDBRANCH 25 28
ENDBRANCH 1 24
TORSDOF 15
ENDMDL
MODEL 10
USER: ADFR SOLUTION from run 162
USER: SCORE 11.103399 LL:  -2.701 LR:  -9.778 RR:   0.000 FEB:  -5.304
USER: RMSD 2.500259
USER: SEED 161
USER: STATUS 1 or 2 clusters left
USER: GENES 17
USER: genes 0 Translation |==|  0.49334 0.49965 0.52068
USER: genes 1 Rotation |==|  0.51804 0.51329 0.50906 0.99942
USER: genes 2 Torsion [C]-CA--CB-[OG] |==|  0.74653
USER: genes 3 Torsion [CA]-CB--OG-[HG] |==|  0.02485
USER: genes 4 Torsion [N]-CA--C-[N] |==|  0.57198
USER: genes 5 Torsion [C]-N--CA-[C] |==|  0.53976
USER: genes 6 Torsion [N]-CA--C-[N] |==|  0.45366
USER: genes 7 Torsion [C]-N--CA-[C] |==|  0.81813
USER: genes 8 Torsion [N]-CA--C-[O] |==|  0.69816
USER: genes 9 Torsion [N]-CA--CB-[CG] |==|  0.29510
USER: genes 10 Torsion [CA]-CB--CG-[CD2] |==|  0.77942
USER: genes 11 Torsion [CB]-CA--N-[C] |==|  0.22744
USER: genes 12 Torsion [N]-C--CA-[N] |==|  0.45486
USER: genes 13 Torsion [C]-CA--CB-[CG] |==|  0.46648
USER: genes 14 Torsion [CA]-CB--CG-[CD2] |==|  0.88244
USER: genes 15 Torsion [C]-CA--N-[C] |==|  0.54480
USER: genes 16 Torsion [N]-C--CA-[N] |==|  0.40879
ROOT
ATOM      1  CA  SER E  44      26.299  -7.546  18.793  1.00 44.79 LIG 0.20  C 
ENDROOT
BRANCH 1 2
ATOM      2  CB  SER E  44      27.319  -8.530  18.222  1.00 46.10 LIG 0.20  C 
BRANCH 2 3
ATOM      3 OG   SER E  44      26.854  -9.064  17.000  1.00 47.85 LIG-0.40  OA
ATOM      4 HG   SER E  44      26.164  -8.651  16.758  1.00 47.85 LIG 0.21  HD
ENDBRANCH 2 3
ENDBRANCH 1 2
BRANCH 1 5
ATOM      5  C   SER E  44      26.605  -6.148  18.303  1.00 42.78 LIG 0.24  C 
ATOM      6  N   PHE E  45      27.887  -5.899  18.085  1.00 43.36 LIG-0.35  N 
ATOM      7 H    PHE E  45      28.519  -6.469  18.217  1.00 43.36 LIG 0.16  HD
ATOM      8 O    SER E  44      25.717  -5.308  18.154  1.00 37.54 LIG-0.27  OA
BRANCH 6 9
ATOM      9  CA  PHE E  45      28.335  -4.608  17.589  1.00 46.68 LIG 0.18  C 
BRANCH 9 10
ATOM     10  C   PHE E  45      29.773  -4.750  17.111  1.00 48.11 LIG 0.24  C 
ATOM     11 O    PHE E  45      30.453  -5.721  17.449  1.00 49.85 LIG-0.27  OA
ATOM     12  N   GLY E  46      30.241  -3.791  16.323  1.00 50.71 LIG-0.35  N 
ATOM     13 H    GLY E  46      29.799  -3.099  16.068  1.00 50.71 LIG 0.16  HD
BRANCH 12 14
ATOM     14  CA  GLY E  46      31.602  -3.881  15.831  1.00 54.23 LIG 0.21  C 
BRANCH 14 15
ATOM     15  C   GLY E  46      32.629  -3.780  16.936  1.00 55.55 LIG 0.21  C 
ATOM     16 O    GLY E  46      33.304  -2.735  16.999  1.00 59.11 LIG-0.29  OA
ENDBRANCH 14 15
ENDBRANCH 12 14
ENDBRANCH 9 10
BRANCH 9 17
ATOM     17  CB  PHE E  45      28.245  -3.546  18.691  1.00 43.03 LIG 0.07  C 
BRANCH 17 18
ATOM     18  CG  PHE E  45      29.582  -3.144  19.258  1.00 41.93 LIG-0.06  A 
ATOM     19  CD2 PHE E  45      30.229  -3.942  20.201  1.00 42.38 LIG 0.01  A 
ATOM     20  CE2 PHE E  45      31.482  -3.583  20.705  1.00 42.73 LIG 0.00  A 
ATOM     21  CZ  PHE E  45      32.098  -2.416  20.265  1.00 42.74 LIG 0.00  A 
ATOM     22  CE1 PHE E  45      31.464  -1.611  19.323  1.00 41.89 LIG 0.00  A 
ATOM     23  CD1 PHE E  45      30.212  -1.979  18.825  1.00 42.01 LIG 0.01  A 
ENDBRANCH 17 18
ENDBRANCH 9 17
ENDBRANCH 6 9
ENDBRANCH 1 5
BRANCH 1 24
ATOM     24  N   SER E  44      24.956  -7.970  18.457  1.00 46.50 LIG-0.34  N 
ATOM     25  C   PHE E  43      24.393  -8.895  19.204  1.00 47.40 LIG 0.24  C 
ATOM     26 O    PHE E  43      24.986  -9.421  20.141  1.00 45.80 LIG-0.27  OA
ATOM     27 H    SER E  44      24.598  -7.586  17.777  1.00 46.50 LIG 0.16  HD
BRANCH 25 28
ATOM     28  CA  PHE E  43      22.993  -9.323  18.827  1.00 47.87 LIG 0.18  C 
BRANCH 28 29
ATOM     29  CB  PHE E  43      22.003  -8.292  19.360  1.00 42.32 LIG 0.07  C 
BRANCH 29 30
ATOM     30  CG  PHE E  43      20.586  -8.416  18.829  1.00 35.12 LIG-0.06  A 
ATOM     31  CD2 PHE E  43      20.293  -8.677  17.484  1.00 32.72 LIG 0.01  A 
ATOM     32  CE2 PHE E  43      18.941  -8.743  17.047  1.00 30.40 LIG 0.00  A 
ATOM     33  CZ  PHE E  43      17.899  -8.551  17.963  1.00 28.92 LIG 0.00  A 
ATOM     34  CE1 PHE E  43      18.201  -8.291  19.295  1.00 29.46 LIG 0.00  A 
ATOM     35  CD1 PHE E  43      19.533  -8.226  19.711  1.00 34.02 LIG 0.01  A 
ENDBRANCH 29 30
ENDBRANCH 28 29
BRANCH 28 36
ATOM     36  N   PHE E  43      22.949 -10.540  19.584  1.00 51.92 LIG-0.35  N 
ATOM     37  C   GLY E  42      22.088 -11.532  19.444  1.00 55.92 LIG 0.25  C 
ATOM     38 O    GLY E  42      21.153 -11.576  18.633  1.00 57.26 LIG-0.27  OA
ATOM     39 H    PHE E  43      23.572 -10.572  20.176  1.00 51.92 LIG 0.16  HD
BRANCH 37 40
ATOM     40  CA  GLY E  42      22.384 -12.651  20.411  1.00 58.33 LIG 0.47  C 
ATOM     41  N   GLY E  42      21.230 -13.365  20.880  1.00 60.94 LIG 0.61  N 
ENDBRANCH 37 40
ENDBRANCH 28 36
ENDBRANCH 25 28
ENDBRANCH 1 24
TORSDOF 15
ENDMDL
MODEL 11
USER: ADFR SOLUTION from run 125
USER: SCORE 11.049522 LL:  -2.743 LR:  -9.747 RR:   0.000 FEB:  -5.273
USER: RMSD 3.087994
USER: SEED 124
USER: STATUS no improvement in best in 5 clusters for 5 generations
USER: GENES 17
USER: genes 0 Translation |==|  0.41982 0.54399 0.57674
USER: genes 1 Rotation |==|  0.39866 0.26032 0.56756 0.92157
USER: genes 2 Torsion [C]-CA--CB-[OG] |==|  0.75216
USER: genes 3 Torsion [CA]-CB--OG-[HG] |==|  0.30698
USER: genes 4 Torsion [N]-CA--C-[N] |==|  0.80690
USER: genes 5 Torsion [C]-N--CA-[C] |==|  0.59784
USER: genes 6 Torsion [N]-CA--C-[N] |==|  0.48889
USER: genes 7 Torsion [C]-N--CA-[C] |==|  0.40942
USER: genes 8 Torsion [N]-CA--C-[O] |==|  0.72015
USER: genes 9 Torsion [N]-CA--CB-[CG] |==|  0.97731
USER: genes 10 Torsion [CA]-CB--CG-[CD2] |==|  0.77405
USER: genes 11 Torsion [CB]-CA--N-[C] |==|  0.20354
USER: genes 12 Torsion [N]-C--CA-[N] |==|  0.21566
USER: genes 13 Torsion [C]-CA--CB-[CG] |==|  0.18993
USER: genes 14 Torsion [CA]-CB--CG-[CD2] |==|  0.69853
USER: genes 15 Torsion [C]-CA--N-[C] |==|  0.62982
USER: genes 16 Torsion [N]-C--CA-[N] |==|  0.46916
ROOT
ATOM      1  CA  SER E  44      24.590  -6.648  19.507  1.00 44.79 LIG 0.20  C 
ENDROOT
BRANCH 1 2
ATOM      2  CB  SER E  44      25.517  -7.247  20.564  1.00 46.10 LIG 0.20  C 
BRANCH 2 3
ATOM      3 OG   SER E  44      26.395  -8.182  19.971  1.00 47.85 LIG-0.40  OA
ATOM      4 HG   SER E  44      27.177  -7.874  19.977  1.00 47.85 LIG 0.21  HD
ENDBRANCH 2 3
ENDBRANCH 1 2
BRANCH 1 5
ATOM      5  C   SER E  44      25.230  -5.420  18.901  1.00 42.78 LIG 0.24  C 
ATOM      6  N   PHE E  45      26.451  -5.603  18.420  1.00 43.36 LIG-0.35  N 
ATOM      7 H    PHE E  45      26.874  -6.352  18.452  1.00 43.36 LIG 0.16  HD
ATOM      8 O    SER E  44      24.655  -4.330  18.890  1.00 37.54 LIG-0.27  OA
BRANCH 6 9
ATOM      9  CA  PHE E  45      27.185  -4.522  17.785  1.00 46.68 LIG 0.18  C 
BRANCH 9 10
ATOM     10  C   PHE E  45      28.015  -5.108  16.651  1.00 48.11 LIG 0.24  C 
ATOM     11 O    PHE E  45      28.039  -6.325  16.455  1.00 49.85 LIG-0.27  OA
ATOM     12  N   GLY E  46      28.694  -4.252  15.899  1.00 50.71 LIG-0.35  N 
ATOM     13 H    GLY E  46      28.705  -3.399  16.006  1.00 50.71 LIG 0.16  HD
BRANCH 12 14
ATOM     14  CA  GLY E  46      29.495  -4.755  14.800  1.00 54.23 LIG 0.21  C 
BRANCH 14 15
ATOM     15  C   GLY E  46      29.552  -3.794  13.634  1.00 55.55 LIG 0.21  C 
ATOM     16 O    GLY E  46      28.812  -4.028  12.659  1.00 59.11 LIG-0.29  OA
ENDBRANCH 14 15
ENDBRANCH 12 14
ENDBRANCH 9 10
BRANCH 9 17
ATOM     17  CB  PHE E  45      28.094  -3.818  18.798  1.00 43.03 LIG 0.07  C 
BRANCH 17 18
ATOM     18  CG  PHE E  45      27.877  -4.262  20.221  1.00 41.93 LIG-0.06  A 
ATOM     19  CD2 PHE E  45      26.833  -3.740  20.983  1.00 42.38 LIG 0.01  A 
ATOM     20  CE2 PHE E  45      26.615  -4.175  22.293  1.00 42.73 LIG 0.00  A 
ATOM     21  CZ  PHE E  45      27.448  -5.139  22.852  1.00 42.74 LIG 0.00  A 
ATOM     22  CE1 PHE E  45      28.494  -5.669  22.101  1.00 41.89 LIG 0.00  A 
ATOM     23  CD1 PHE E  45      28.703  -5.229  20.792  1.00 42.01 LIG 0.01  A 
ENDBRANCH 17 18
ENDBRANCH 9 17
ENDBRANCH 6 9
ENDBRANCH 1 5
BRANCH 1 24
ATOM     24  N   SER E  44      24.254  -7.647  18.515  1.00 46.50 LIG-0.34  N 
ATOM     25  C   PHE E  43      23.415  -8.601  18.854  1.00 47.40 LIG 0.24  C 
ATOM     26 O    PHE E  43      22.946  -8.680  19.987  1.00 45.80 LIG-0.27  OA
ATOM     27 H    SER E  44      24.629  -7.557  17.747  1.00 46.50 LIG 0.16  HD
BRANCH 25 28
ATOM     28  CA  PHE E  43      23.087  -9.635  17.800  1.00 47.87 LIG 0.18  C 
BRANCH 28 29
ATOM     29  CB  PHE E  43      21.867 -10.430  18.254  1.00 42.32 LIG 0.07  C 
BRANCH 29 30
ATOM     30  CG  PHE E  43      20.562  -9.656  18.288  1.00 35.12 LIG-0.06  A 
ATOM     31  CD2 PHE E  43      19.927  -9.278  19.478  1.00 32.72 LIG 0.01  A 
ATOM     32  CE2 PHE E  43      18.685  -8.586  19.437  1.00 30.40 LIG 0.00  A 
ATOM     33  CZ  PHE E  43      18.095  -8.277  18.204  1.00 28.92 LIG 0.00  A 
ATOM     34  CE1 PHE E  43      18.733  -8.658  17.029  1.00 29.46 LIG 0.00  A 
ATOM     35  CD1 PHE E  43      19.952  -9.340  17.084  1.00 34.02 LIG 0.01  A 
ENDBRANCH 29 30
ENDBRANCH 28 29
BRANCH 28 36
ATOM     36  N   PHE E  43      24.291 -10.407  17.900  1.00 51.92 LIG-0.35  N 
ATOM     37  C   GLY E  42      25.043 -10.838  16.905  1.00 55.92 LIG 0.25  C 
ATOM     38 O    GLY E  42      24.829 -10.656  15.698  1.00 57.26 LIG-0.27  OA
ATOM     39 H    PHE E  43      24.494 -10.578  18.719  1.00 51.92 LIG 0.16  HD
BRANCH 37 40
ATOM     40  CA  GLY E  42      26.241 -11.598  17.416  1.00 58.33 LIG 0.47  C 
ATOM     41  N   GLY E  42      26.977 -12.313  16.412  1.00 60.94 LIG 0.61  N 
ENDBRANCH 37 40
ENDBRANCH 28 36
ENDBRANCH 25 28
ENDBRANCH 1 24
TORSDOF 15
ENDMDL
MODEL 12
USER: ADFR SOLUTION from run 53
USER: SCORE 10.750922 LL:  -2.956 LR:  -9.649 RR:   0.000 FEB:  -5.174
USER: RMSD 2.611106
USER: SEED 52
USER: STATUS no improvement in best in 4 clusters for 5 generations
USER: GENES 17
USER: genes 0 Translation |==|  0.54022 0.48259 0.40136
USER: genes 1 Rotation |==|  0.56112 0.66791 0.45200 0.96451
USER: genes 2 Torsion [C]-CA--CB-[OG] |==|  0.62415
USER: genes 3 Torsion [CA]-CB--OG-[HG] |==|  0.11449
USER: genes 4 Torsion [N]-CA--C-[N] |==|  0.29210
USER: genes 5 Torsion [C]-N--CA-[C] |==|  0.70313
USER: genes 6 Torsion [N]-CA--C-[N] |==|  0.43855
USER: genes 7 Torsion [C]-N--CA-[C] |==|  0.40919
USER: genes 8 Torsion [N]-CA--C-[O] |==|  0.36732
USER: genes 9 Torsion [N]-CA--CB-[CG] |==|  0.83839
USER: genes 10 Torsion [CA]-CB--CG-[CD2] |==|  0.89897
USER: genes 11 Torsion [CB]-CA--N-[C] |==|  0.26037
USER: genes 12 Torsion [N]-C--CA-[N] |==|  0.65195
USER: genes 13 Torsion [C]-CA--CB-[CG] |==|  0.42574
USER: genes 14 Torsion [CA]-CB--CG-[CD2] |==|  0.20131
USER: genes 15 Torsion [C]-CA--N-[C] |==|  0.16106
USER: genes 16 Torsion [N]-C--CA-[N] |==|  0.47581
ROOT
ATOM      1  CA  SER E  44      27.389  -7.892  17.271  1.00 44.79 LIG 0.20  C 
ENDROOT
BRANCH 1 2
ATOM      2  CB  SER E  44      27.611  -8.866  16.116  1.00 46.10 LIG 0.20  C 
BRANCH 2 3
ATOM      3 OG   SER E  44      26.546  -9.791  16.043  1.00 47.85 LIG-0.40  OA
ATOM      4 HG   SER E  44      25.819  -9.393  16.177  1.00 47.85 LIG 0.21  HD
ENDBRANCH 2 3
ENDBRANCH 1 2
BRANCH 1 5
ATOM      5  C   SER E  44      27.688  -6.480  16.817  1.00 42.78 LIG 0.24  C 
ATOM      6  N   PHE E  45      28.472  -5.785  17.627  1.00 43.36 LIG-0.35  N 
ATOM      7 H    PHE E  45      28.788  -6.087  18.368  1.00 43.36 LIG 0.16  HD
ATOM      8 O    SER E  44      27.204  -6.019  15.782  1.00 37.54 LIG-0.27  OA
BRANCH 6 9
ATOM      9  CA  PHE E  45      28.868  -4.422  17.313  1.00 46.68 LIG 0.18  C 
BRANCH 9 10
ATOM     10  C   PHE E  45      30.332  -4.433  16.898  1.00 48.11 LIG 0.24  C 
ATOM     11 O    PHE E  45      31.075  -5.355  17.239  1.00 49.85 LIG-0.27  OA
ATOM     12  N   GLY E  46      30.754  -3.414  16.160  1.00 50.71 LIG-0.35  N 
ATOM     13 H    GLY E  46      30.268  -2.752  15.904  1.00 50.71 LIG 0.16  HD
BRANCH 12 14
ATOM     14  CA  GLY E  46      32.138  -3.377  15.728  1.00 54.23 LIG 0.21  C 
BRANCH 14 15
ATOM     15  C   GLY E  46      32.309  -2.723  14.376  1.00 55.55 LIG 0.21  C 
ATOM     16 O    GLY E  46      33.201  -1.861  14.263  1.00 59.11 LIG-0.29  OA
ENDBRANCH 14 15
ENDBRANCH 12 14
ENDBRANCH 9 10
BRANCH 9 17
ATOM     17  CB  PHE E  45      28.668  -3.508  18.527  1.00 43.03 LIG 0.07  C 
BRANCH 17 18
ATOM     18  CG  PHE E  45      27.249  -3.476  19.036  1.00 41.93 LIG-0.06  A 
ATOM     19  CD2 PHE E  45      26.171  -3.537  18.154  1.00 42.38 LIG 0.01  A 
ATOM     20  CE2 PHE E  45      24.856  -3.536  18.629  1.00 42.73 LIG 0.00  A 
ATOM     21  CZ  PHE E  45      24.613  -3.473  19.998  1.00 42.74 LIG 0.00  A 
ATOM     22  CE1 PHE E  45      25.681  -3.414  20.889  1.00 41.89 LIG 0.00  A 
ATOM     23  CD1 PHE E  45      26.991  -3.416  20.404  1.00 42.01 LIG 0.01  A 
ENDBRANCH 17 18
ENDBRANCH 9 17
ENDBRANCH 6 9
ENDBRANCH 1 5
BRANCH 1 24
ATOM     24  N   SER E  44      26.046  -8.034  17.792  1.00 46.50 LIG-0.34  N 
ATOM     25  C   PHE E  43      25.859  -8.842  18.813  1.00 47.40 LIG 0.24  C 
ATOM     26 O    PHE E  43      26.779  -9.493  19.302  1.00 45.80 LIG-0.27  OA
ATOM     27 H    SER E  44      25.437  -7.575  17.397  1.00 46.50 LIG 0.16  HD
BRANCH 25 28
ATOM     28  CA  PHE E  43      24.445  -8.978  19.333  1.00 47.87 LIG 0.18  C 
BRANCH 28 29
ATOM     29  CB  PHE E  43      23.570  -7.929  18.653  1.00 42.32 LIG 0.07  C 
BRANCH 29 30
ATOM     30  CG  PHE E  43      22.099  -8.284  18.542  1.00 35.12 LIG-0.06  A 
ATOM     31  CD2 PHE E  43      21.227  -8.289  19.639  1.00 32.72 LIG 0.01  A 
ATOM     32  CE2 PHE E  43      19.867  -8.669  19.471  1.00 30.40 LIG 0.00  A 
ATOM     33  CZ  PHE E  43      19.394  -9.036  18.203  1.00 28.92 LIG 0.00  A 
ATOM     34  CE1 PHE E  43      20.267  -9.028  17.122  1.00 29.46 LIG 0.00  A 
ATOM     35  CD1 PHE E  43      21.602  -8.656  17.302  1.00 34.02 LIG 0.01  A 
ENDBRANCH 29 30
ENDBRANCH 28 29
BRANCH 28 36
ATOM     36  N   PHE E  43      24.706  -8.643  20.703  1.00 51.92 LIG-0.35  N 
ATOM     37  C   GLY E  42      25.243  -7.526  21.159  1.00 55.92 LIG 0.25  C 
ATOM     38 O    GLY E  42      25.629  -6.570  20.472  1.00 57.26 LIG-0.27  OA
ATOM     39 H    PHE E  43      24.467  -9.273  21.237  1.00 51.92 LIG 0.16  HD
BRANCH 37 40
ATOM     40  CA  GLY E  42      25.332  -7.539  22.664  1.00 58.33 LIG 0.47  C 
ATOM     41  N   GLY E  42      26.079  -6.454  23.235  1.00 60.94 LIG 0.61  N 
ENDBRANCH 37 40
ENDBRANCH 28 36
ENDBRANCH 25 28
ENDBRANCH 1 24
TORSDOF 15
ENDMDL
MODEL 13
USER: ADFR SOLUTION from run 46
USER: SCORE 10.686891 LL:  -2.527 LR:  -9.638 RR:   0.000 FEB:  -5.164
USER: RMSD 2.860117
USER: SEED 45
USER: STATUS no improvement in best in 4 clusters for 5 generations
USER: GENES 17
USER: genes 0 Translation |==|  0.51274 0.44818 0.50613
USER: genes 1 Rotation |==|  0.65456 0.51020 0.48297 0.97510
USER: genes 2 Torsion [C]-CA--CB-[OG] |==|  0.66776
USER: genes 3 Torsion [CA]-CB--OG-[HG] |==|  0.10040
USER: genes 4 Torsion [N]-CA--C-[N] |==|  0.36079
USER: genes 5 Torsion [C]-N--CA-[C] |==|  0.56484
USER: genes 6 Torsion [N]-CA--C-[N] |==|  0.48163
USER: genes 7 Torsion [C]-N--CA-[C] |==|  0.40696
USER: genes 8 Torsion [N]-CA--C-[O] |==|  0.87777
USER: genes 9 Torsion [N]-CA--CB-[CG] |==|  0.76296
USER: genes 10 Torsion [CA]-CB--CG-[CD2] |==|  0.77061
USER: genes 11 Torsion [CB]-CA--N-[C] |==|  0.26424
USER: genes 12 Torsion [N]-C--CA-[N] |==|  0.45183
USER: genes 13 Torsion [C]-CA--CB-[CG] |==|  0.50972
USER: genes 14 Torsion [CA]-CB--CG-[CD2] |==|  0.88829
USER: genes 15 Torsion [C]-CA--N-[C] |==|  0.57217
USER: genes 16 Torsion [N]-C--CA-[N] |==|  0.45378
ROOT
ATOM      1  CA  SER E  44      26.750  -8.588  18.607  1.00 44.79 LIG 0.20  C 
ENDROOT
BRANCH 1 2
ATOM      2  CB  SER E  44      27.667  -9.233  17.569  1.00 46.10 LIG 0.20  C 
BRANCH 2 3
ATOM      3 OG   SER E  44      26.934  -9.574  16.411  1.00 47.85 LIG-0.40  OA
ATOM      4 HG   SER E  44      26.346  -8.990  16.270  1.00 47.85 LIG 0.21  HD
ENDBRANCH 2 3
ENDBRANCH 1 2
BRANCH 1 5
ATOM      5  C   SER E  44      27.227  -7.186  18.913  1.00 42.78 LIG 0.24  C 
ATOM      6  N   PHE E  45      27.804  -7.036  20.096  1.00 43.36 LIG-0.35  N 
ATOM      7 H    PHE E  45      27.899  -7.670  20.670  1.00 43.36 LIG 0.16  HD
ATOM      8 O    SER E  44      27.056  -6.259  18.120  1.00 37.54 LIG-0.27  OA
BRANCH 6 9
ATOM      9  CA  PHE E  45      28.335  -5.752  20.522  1.00 46.68 LIG 0.18  C 
BRANCH 9 10
ATOM     10  C   PHE E  45      29.398  -6.001  21.583  1.00 48.11 LIG 0.24  C 
ATOM     11 O    PHE E  45      29.591  -7.136  22.023  1.00 49.85 LIG-0.27  OA
ATOM     12  N   GLY E  46      30.092  -4.949  21.995  1.00 50.71 LIG-0.35  N 
ATOM     13 H    GLY E  46      29.986  -4.143  21.715  1.00 50.71 LIG 0.16  HD
BRANCH 12 14
ATOM     14  CA  GLY E  46      31.124  -5.130  22.998  1.00 54.23 LIG 0.21  C 
BRANCH 14 15
ATOM     15  C   GLY E  46      32.292  -4.189  22.811  1.00 55.55 LIG 0.21  C 
ATOM     16 O    GLY E  46      32.725  -4.034  21.653  1.00 59.11 LIG-0.29  OA
ENDBRANCH 14 15
ENDBRANCH 12 14
ENDBRANCH 9 10
BRANCH 9 17
ATOM     17  CB  PHE E  45      27.219  -4.866  21.087  1.00 43.03 LIG 0.07  C 
BRANCH 17 18
ATOM     18  CG  PHE E  45      26.472  -4.085  20.037  1.00 41.93 LIG-0.06  A 
ATOM     19  CD2 PHE E  45      26.977  -2.881  19.547  1.00 42.38 LIG 0.01  A 
ATOM     20  CE2 PHE E  45      26.298  -2.172  18.552  1.00 42.73 LIG 0.00  A 
ATOM     21  CZ  PHE E  45      25.102  -2.666  18.041  1.00 42.74 LIG 0.00  A 
ATOM     22  CE1 PHE E  45      24.589  -3.867  18.521  1.00 41.89 LIG 0.00  A 
ATOM     23  CD1 PHE E  45      25.275  -4.569  19.515  1.00 42.01 LIG 0.01  A 
ENDBRANCH 17 18
ENDBRANCH 9 17
ENDBRANCH 6 9
ENDBRANCH 1 5
BRANCH 1 24
ATOM     24  N   SER E  44      25.378  -8.620  18.148  1.00 46.50 LIG-0.34  N 
ATOM     25  C   PHE E  43      24.613  -9.613  18.546  1.00 47.40 LIG 0.24  C 
ATOM     26 O    PHE E  43      25.043 -10.516  19.258  1.00 45.80 LIG-0.27  OA
ATOM     27 H    SER E  44      25.137  -7.976  17.632  1.00 46.50 LIG 0.16  HD
BRANCH 25 28
ATOM     28  CA  PHE E  43      23.186  -9.625  18.045  1.00 47.87 LIG 0.18  C 
BRANCH 28 29
ATOM     29  CB  PHE E  43      22.356  -8.676  18.904  1.00 42.32 LIG 0.07  C 
BRANCH 29 30
ATOM     30  CG  PHE E  43      20.874  -8.635  18.582  1.00 35.12 LIG-0.06  A 
ATOM     31  CD2 PHE E  43      20.375  -8.662  17.273  1.00 32.72 LIG 0.01  A 
ATOM     32  CE2 PHE E  43      18.973  -8.583  17.040  1.00 30.40 LIG 0.00  A 
ATOM     33  CZ  PHE E  43      18.089  -8.482  18.122  1.00 28.92 LIG 0.00  A 
ATOM     34  CE1 PHE E  43      18.595  -8.456  19.417  1.00 29.46 LIG 0.00  A 
ATOM     35  CD1 PHE E  43      19.974  -8.531  19.631  1.00 34.02 LIG 0.01  A 
ENDBRANCH 29 30
ENDBRANCH 28 29
BRANCH 28 36
ATOM     36  N   PHE E  43      22.888 -10.998  18.334  1.00 51.92 LIG-0.35  N 
ATOM     37  C   GLY E  42      21.995 -11.760  17.729  1.00 55.92 LIG 0.25  C 
ATOM     38 O    GLY E  42      21.245 -11.412  16.807  1.00 57.26 LIG-0.27  OA
ATOM     39 H    PHE E  43      23.372 -11.303  18.976  1.00 51.92 LIG 0.16  HD
BRANCH 37 40
ATOM     40  CA  GLY E  42      21.993 -13.155  18.302  1.00 58.33 LIG 0.47  C 
ATOM     41  N   GLY E  42      20.831 -13.937  17.985  1.00 60.94 LIG 0.61  N 
ENDBRANCH 37 40
ENDBRANCH 28 36
ENDBRANCH 25 28
ENDBRANCH 1 24
TORSDOF 15
ENDMDL
