MODEL 1
USER: ADFR SOLUTION from run 22
USER: SCORE 16.676947 LL:  -3.108 LR: -15.763 RR:   0.000 FEB:  -9.797
USER: RMSD 3.951077
USER: SEED 21
USER: STATUS no improvement in best in 9 clusters for 5 generations
USER: GENES 22
USER: genes 0 Translation |==|  0.51286 0.38799 0.48530
USER: genes 1 Rotation |==|  0.30612 0.58013 0.56459 0.94924
USER: genes 2 Torsion [CB]-CA--N-[C] |==|  0.25868
USER: genes 3 Torsion [N]-C--CA-[N] |==|  0.41999
USER: genes 4 Torsion [C]-CA--CB-[CG] |==|  0.16807
USER: genes 5 Torsion [CA]-CB--CG-[ND2] |==|  0.14509
USER: genes 6 Torsion [C]-CA--N-[C] |==|  0.57841
USER: genes 7 Torsion [N]-C--CA-[N] |==|  0.23944
USER: genes 8 Torsion [C]-CA--CB-[CG] |==|  0.70977
USER: genes 9 Torsion [CA]-CB--CG-[CD] |==|  0.56026
USER: genes 10 Torsion [CB]-CG--CD-[NE] |==|  0.20840
USER: genes 11 Torsion [CG]-CD--NE-[HE] |==|  0.86915
USER: genes 12 Torsion [N]-CA--CB-[CG] |==|  0.99234
USER: genes 13 Torsion [CA]-CB--CG-[CD2] |==|  0.70925
USER: genes 14 Torsion [N]-CA--C-[N] |==|  0.68248
USER: genes 15 Torsion [C]-N--CA-[C] |==|  0.82709
USER: genes 16 Torsion [N]-CA--CB-[CG] |==|  0.92174
USER: genes 17 Torsion [CA]-CB--CG-[CD2] |==|  0.79426
USER: genes 18 Torsion [N]-CA--C-[N] |==|  0.37498
USER: genes 19 Torsion [C]-N--CA-[C] |==|  0.37930
USER: genes 20 Torsion [N]-CA--C-[N] |==|  0.47866
USER: genes 21 Torsion [N]-CA--C-[OXT] |==|  0.80927
ROOT
ATOM      1  CA  LEU E  32      13.851 151.487  71.049  1.00142.86 LIG 0.18  C 
ENDROOT
BRANCH 1 2
ATOM      2  N   LEU E  32      12.510 150.945  71.259  1.00142.97 LIG-0.35  N 
ATOM      3 H    LEU E  32      12.223 150.452  70.615  1.00142.97 LIG 0.16  HD
ATOM      4  C   ASN E  31      11.809 151.205  72.360  1.00143.13 LIG 0.24  C 
ATOM      5 O    ASN E  31      12.199 151.980  73.230  1.00142.70 LIG-0.27  OA
BRANCH 4 6
ATOM      6  CA  ASN E  31      10.468 150.478  72.503  1.00143.53 LIG 0.18  C 
BRANCH 6 7
ATOM      7  CB  ASN E  31       9.352 151.277  71.824  1.00143.35 LIG 0.14  C 
BRANCH 7 8
ATOM      8  CG  ASN E  31       9.588 151.473  70.344  1.00142.31 LIG 0.22  C 
ATOM      9  ND2 ASN E  31       9.841 150.379  69.637  1.00140.74 LIG-0.37  N 
ATOM     10 21HD ASN E  31       9.939 150.432  68.784  1.00140.74 LIG 0.16  HD
ATOM     11 22HD ASN E  31       9.908 149.617  70.031  1.00140.74 LIG 0.16  HD
ATOM     12 OD1  ASN E  31       9.483 152.584  69.831  1.00141.61 LIG-0.27  OA
ENDBRANCH 7 8
ENDBRANCH 6 7
BRANCH 6 13
ATOM     13  N   ASN E  31      10.122 150.274  73.905  1.00144.28 LIG-0.34  N 
ATOM     14  C   ARG E  30       9.368 149.257  74.308  1.00145.24 LIG 0.26  C 
ATOM     15 O    ARG E  30       8.715 148.565  73.531  1.00145.16 LIG-0.27  OA
ATOM     16 H    ASN E  31      10.448 150.867  74.436  1.00144.28 LIG 0.16  HD
BRANCH 14 17
ATOM     17  CA  ARG E  30       9.299 149.025  75.821  1.00146.00 LIG 0.40  C 
ATOM     18  N   ARG E  30       8.240 149.849  76.473  1.00146.11 LIG 0.61  N 
BRANCH 17 19
ATOM     19  CB  ARG E  30       9.057 147.541  76.100  1.00146.54 LIG 0.05  C 
BRANCH 19 20
ATOM     20  CG  ARG E  30       7.629 147.226  76.526  1.00147.66 LIG 0.02  C 
BRANCH 20 21
ATOM     21  CD  ARG E  30       7.481 145.923  77.288  1.00149.13 LIG 0.14  C 
BRANCH 21 22
ATOM     22  NE  ARG E  30       7.965 146.026  78.662  1.00150.31 LIG-0.23  N 
ATOM     23 HE   ARG E  30       8.731 146.394  78.791  1.00150.31 LIG 0.18  HD
ATOM     24  CZ  ARG E  30       7.304 145.590  79.726  1.00151.12 LIG 0.67  C 
ATOM     25  NH1 ARG E  30       6.107 145.036  79.587  1.00151.59 LIG-0.23  N 
ATOM     26  NH2 ARG E  30       7.836 145.710  80.934  1.00151.52 LIG-0.23  N 
ATOM     27 1HH1 ARG E  30       5.757 144.959  78.806  1.00151.59 LIG 0.17  HD
ATOM     28 2HH1 ARG E  30       5.681 144.754  80.279  1.00151.59 LIG 0.17  HD
ATOM     29 1HH2 ARG E  30       8.610 146.071  81.029  1.00151.52 LIG 0.17  HD
ATOM     30 2HH2 ARG E  30       7.406 145.427  81.623  1.00151.52 LIG 0.17  HD
ENDBRANCH 21 22
ENDBRANCH 20 21
ENDBRANCH 19 20
ENDBRANCH 17 19
ENDBRANCH 14 17
ENDBRANCH 6 13
ENDBRANCH 4 6
ENDBRANCH 1 2
BRANCH 1 31
ATOM     31  CB  LEU E  32      14.906 150.491  71.537  1.00142.51 LIG 0.04  C 
BRANCH 31 32
ATOM     32  CG  LEU E  32      14.393 149.206  72.185  1.00140.78 LIG-0.02  C 
ATOM     33  CD1 LEU E  32      15.118 148.010  71.607  1.00139.49 LIG 0.01  C 
ATOM     34  CD2 LEU E  32      14.561 149.255  73.689  1.00139.97 LIG 0.01  C 
ENDBRANCH 31 32
ENDBRANCH 1 31
BRANCH 1 35
ATOM     35  C   LEU E  32      14.143 151.862  69.592  1.00143.34 LIG 0.24  C 
ATOM     36  N   PHE E  33      15.082 151.154  68.968  1.00143.72 LIG-0.35  N 
ATOM     37 H    PHE E  33      15.439 150.441  69.291  1.00143.72 LIG 0.16  HD
ATOM     38 O    LEU E  32      13.566 152.809  69.062  1.00143.58 LIG-0.27  OA
BRANCH 36 39
ATOM     39  CA  PHE E  33      15.593 151.541  67.654  1.00144.11 LIG 0.18  C 
BRANCH 39 40
ATOM     40  CB  PHE E  33      16.732 150.618  67.243  1.00143.74 LIG 0.07  C 
BRANCH 40 41
ATOM     41  CG  PHE E  33      17.481 150.049  68.399  1.00143.08 LIG-0.06  A 
ATOM     42  CD2 PHE E  33      18.355 150.834  69.128  1.00142.72 LIG 0.01  A 
ATOM     43  CE2 PHE E  33      19.038 150.310  70.204  1.00141.76 LIG 0.00  A 
ATOM     44  CZ  PHE E  33      18.841 149.001  70.572  1.00141.29 LIG 0.00  A 
ATOM     45  CE1 PHE E  33      17.962 148.213  69.862  1.00141.79 LIG 0.00  A 
ATOM     46  CD1 PHE E  33      17.286 148.737  68.784  1.00142.36 LIG 0.01  A 
ENDBRANCH 40 41
ENDBRANCH 39 40
BRANCH 39 47
ATOM     47  C   PHE E  33      14.528 151.530  66.567  1.00145.05 LIG 0.24  C 
ATOM     48 O    PHE E  33      13.723 150.604  66.494  1.00145.07 LIG-0.27  OA
ATOM     49  N   GLY E  34      14.502 152.572  65.743  1.00146.17 LIG-0.35  N 
ATOM     50 H    GLY E  34      15.008 153.263  65.825  1.00146.17 LIG 0.16  HD
BRANCH 49 51
ATOM     51  CA  GLY E  34      13.591 152.622  64.613  1.00147.07 LIG 0.23  C 
BRANCH 51 52
ATOM     52  C   GLY E  34      12.948 153.992  64.493  1.00147.85 LIG 0.24  C 
ATOM     53  N   PRO E  35      12.214 154.216  63.407  1.00148.70 LIG-0.34  N 
ATOM     54  CA  PRO E  35      11.551 155.506  63.184  1.00149.01 LIG 0.19  C 
ATOM     55  CD  PRO E  35      11.909 153.248  62.337  1.00148.94 LIG 0.13  C 
ATOM     56  CB  PRO E  35      10.708 155.255  61.923  1.00149.16 LIG 0.04  C 
ATOM     57  CG  PRO E  35      10.598 153.762  61.821  1.00149.11 LIG 0.02  C 
ATOM     58 O    GLY E  34      13.095 154.835  65.382  1.00147.94 LIG-0.27  OA
BRANCH 54 59
ATOM     59  C   PRO E  35      10.667 155.901  64.370  1.00149.03 LIG 0.20  C 
ATOM     60 OXT  PRO E  35       9.635 155.288  64.639  1.00149.10 LIG-0.65  OA
ATOM     61 O    PRO E  35      10.970 156.816  65.138  1.00148.99 LIG-0.65  OA
ENDBRANCH 54 59
ENDBRANCH 51 52
ENDBRANCH 49 51
ENDBRANCH 39 47
ENDBRANCH 36 39
ENDBRANCH 1 35
TORSDOF 20
ENDMDL
MODEL 2
USER: ADFR SOLUTION from run 69
USER: SCORE 16.796993 LL:  -3.599 LR: -15.424 RR:   0.000 FEB:  -9.458
USER: RMSD 3.265192
USER: SEED 68
USER: STATUS no improvement in best in 3 clusters for 5 generations
USER: GENES 22
USER: genes 0 Translation |==|  0.50842 0.35320 0.49220
USER: genes 1 Rotation |==|  0.42963 0.61293 0.52391 0.98138
USER: genes 2 Torsion [CB]-CA--N-[C] |==|  0.31757
USER: genes 3 Torsion [N]-C--CA-[N] |==|  0.43513
USER: genes 4 Torsion [C]-CA--CB-[CG] |==|  0.21028
USER: genes 5 Torsion [CA]-CB--CG-[ND2] |==|  0.48387
USER: genes 6 Torsion [C]-CA--N-[C] |==|  0.63666
USER: genes 7 Torsion [N]-C--CA-[N] |==|  0.57396
USER: genes 8 Torsion [C]-CA--CB-[CG] |==|  0.84616
USER: genes 9 Torsion [CA]-CB--CG-[CD] |==|  0.51709
USER: genes 10 Torsion [CB]-CG--CD-[NE] |==|  0.21628
USER: genes 11 Torsion [CG]-CD--NE-[HE] |==|  0.87900
USER: genes 12 Torsion [N]-CA--CB-[CG] |==|  0.81910
USER: genes 13 Torsion [CA]-CB--CG-[CD2] |==|  0.87876
USER: genes 14 Torsion [N]-CA--C-[N] |==|  0.67483
USER: genes 15 Torsion [C]-N--CA-[C] |==|  0.72807
USER: genes 16 Torsion [N]-CA--CB-[CG] |==|  0.95779
USER: genes 17 Torsion [CA]-CB--CG-[CD2] |==|  0.77352
USER: genes 18 Torsion [N]-CA--C-[N] |==|  0.42883
USER: genes 19 Torsion [C]-N--CA-[C] |==|  0.34370
USER: genes 20 Torsion [N]-CA--C-[N] |==|  0.52382
USER: genes 21 Torsion [N]-CA--C-[OXT] |==|  0.83804
ROOT
ATOM      1  CA  LEU E  32      13.762 150.782  71.199  1.00142.86 LIG 0.18  C 
ENDROOT
BRANCH 1 2
ATOM      2  N   LEU E  32      12.325 150.573  71.375  1.00142.97 LIG-0.35  N 
ATOM      3 H    LEU E  32      11.931 150.234  70.690  1.00142.97 LIG 0.16  HD
ATOM      4  C   ASN E  31      11.700 150.888  72.507  1.00143.13 LIG 0.24  C 
ATOM      5 O    ASN E  31      12.262 151.450  73.443  1.00142.70 LIG-0.27  OA
BRANCH 4 6
ATOM      6  CA  ASN E  31      10.219 150.507  72.598  1.00143.53 LIG 0.18  C 
BRANCH 6 7
ATOM      7  CB  ASN E  31       9.354 151.558  71.899  1.00143.35 LIG 0.14  C 
BRANCH 7 8
ATOM      8  CG  ASN E  31       9.409 151.456  70.392  1.00142.31 LIG 0.22  C 
ATOM      9  ND2 ASN E  31       8.593 152.255  69.716  1.00140.74 LIG-0.37  N 
ATOM     10 21HD ASN E  31       8.617 152.267  68.856  1.00140.74 LIG 0.16  HD
ATOM     11 22HD ASN E  31       8.039 152.762  70.138  1.00140.74 LIG 0.16  HD
ATOM     12 OD1  ASN E  31      10.216 150.714  69.839  1.00141.61 LIG-0.27  OA
ENDBRANCH 7 8
ENDBRANCH 6 7
BRANCH 6 13
ATOM     13  N   ASN E  31       9.788 150.381  73.984  1.00144.28 LIG-0.34  N 
ATOM     14  C   ARG E  30       9.112 149.324  74.424  1.00145.24 LIG 0.26  C 
ATOM     15 O    ARG E  30       8.596 148.505  73.668  1.00145.16 LIG-0.27  OA
ATOM     16 H    ASN E  31      10.009 151.046  74.483  1.00144.28 LIG 0.16  HD
BRANCH 14 17
ATOM     17  CA  ARG E  30       8.949 149.209  75.943  1.00146.00 LIG 0.40  C 
ATOM     18  N   ARG E  30       8.780 147.796  76.389  1.00146.11 LIG 0.61  N 
BRANCH 17 19
ATOM     19  CB  ARG E  30      10.158 149.839  76.636  1.00146.54 LIG 0.05  C 
BRANCH 19 20
ATOM     20  CG  ARG E  30      11.490 149.255  76.185  1.00147.66 LIG 0.02  C 
BRANCH 20 21
ATOM     21  CD  ARG E  30      12.687 149.764  76.967  1.00149.13 LIG 0.14  C 
BRANCH 21 22
ATOM     22  NE  ARG E  30      12.811 149.122  78.273  1.00150.31 LIG-0.23  N 
ATOM     23 HE   ARG E  30      12.096 149.021  78.740  1.00150.31 LIG 0.18  HD
ATOM     24  CZ  ARG E  30      13.951 148.683  78.789  1.00151.12 LIG 0.67  C 
ATOM     25  NH1 ARG E  30      15.080 148.790  78.102  1.00151.59 LIG-0.23  N 
ATOM     26  NH2 ARG E  30      13.966 148.130  79.994  1.00151.52 LIG-0.23  N 
ATOM     27 1HH1 ARG E  30      15.074 149.145  77.318  1.00151.59 LIG 0.17  HD
ATOM     28 2HH1 ARG E  30      15.818 148.505  78.439  1.00151.59 LIG 0.17  HD
ATOM     29 1HH2 ARG E  30      13.236 148.056  80.442  1.00151.52 LIG 0.17  HD
ATOM     30 2HH2 ARG E  30      14.706 147.846  80.328  1.00151.52 LIG 0.17  HD
ENDBRANCH 21 22
ENDBRANCH 20 21
ENDBRANCH 19 20
ENDBRANCH 17 19
ENDBRANCH 14 17
ENDBRANCH 6 13
ENDBRANCH 4 6
ENDBRANCH 1 2
BRANCH 1 31
ATOM     31  CB  LEU E  32      14.477 149.438  71.049  1.00142.51 LIG 0.04  C 
BRANCH 31 32
ATOM     32  CG  LEU E  32      14.455 148.506  72.260  1.00140.78 LIG-0.02  C 
ATOM     33  CD1 LEU E  32      15.466 147.396  72.076  1.00139.49 LIG 0.01  C 
ATOM     34  CD2 LEU E  32      14.731 149.272  73.536  1.00139.97 LIG 0.01  C 
ENDBRANCH 31 32
ENDBRANCH 1 31
BRANCH 1 35
ATOM     35  C   LEU E  32      14.112 151.680  70.008  1.00143.34 LIG 0.24  C 
ATOM     36  N   PHE E  33      14.823 151.125  69.028  1.00143.72 LIG-0.35  N 
ATOM     37 H    PHE E  33      14.989 150.283  68.974  1.00143.72 LIG 0.16  HD
ATOM     38 O    LEU E  32      13.790 152.866  70.003  1.00143.58 LIG-0.27  OA
BRANCH 36 39
ATOM     39  CA  PHE E  33      15.391 151.921  67.942  1.00144.11 LIG 0.18  C 
BRANCH 39 40
ATOM     40  CB  PHE E  33      16.790 151.423  67.604  1.00143.74 LIG 0.07  C 
BRANCH 40 41
ATOM     41  CG  PHE E  33      17.371 150.534  68.650  1.00143.08 LIG-0.06  A 
ATOM     42  CD2 PHE E  33      17.964 151.067  69.778  1.00142.72 LIG 0.01  A 
ATOM     43  CE2 PHE E  33      18.491 150.245  70.750  1.00141.76 LIG 0.00  A 
ATOM     44  CZ  PHE E  33      18.414 148.880  70.610  1.00141.29 LIG 0.00  A 
ATOM     45  CE1 PHE E  33      17.813 148.336  69.496  1.00141.79 LIG 0.00  A 
ATOM     46  CD1 PHE E  33      17.294 149.160  68.525  1.00142.36 LIG 0.01  A 
ENDBRANCH 40 41
ENDBRANCH 39 40
BRANCH 39 47
ATOM     47  C   PHE E  33      14.541 151.910  66.679  1.00145.05 LIG 0.24  C 
ATOM     48 O    PHE E  33      13.767 150.980  66.459  1.00145.07 LIG-0.27  OA
ATOM     49  N   GLY E  34      14.661 152.954  65.867  1.00146.17 LIG-0.35  N 
ATOM     50 H    GLY E  34      15.140 153.646  66.041  1.00146.17 LIG 0.16  HD
BRANCH 49 51
ATOM     51  CA  GLY E  34      13.970 153.004  64.590  1.00147.07 LIG 0.23  C 
BRANCH 51 52
ATOM     52  C   GLY E  34      13.097 154.242  64.492  1.00147.85 LIG 0.24  C 
ATOM     53  N   PRO E  35      12.279 154.317  63.446  1.00148.70 LIG-0.34  N 
ATOM     54  CA  PRO E  35      11.396 155.470  63.247  1.00149.01 LIG 0.19  C 
ATOM     55  CD  PRO E  35      12.087 153.289  62.406  1.00148.94 LIG 0.13  C 
ATOM     56  CB  PRO E  35      10.541 155.055  62.038  1.00149.16 LIG 0.04  C 
ATOM     57  CG  PRO E  35      10.681 153.563  61.959  1.00149.11 LIG 0.02  C 
ATOM     58 O    GLY E  34      13.146 155.116  65.361  1.00147.94 LIG-0.27  OA
BRANCH 54 59
ATOM     59  C   PRO E  35      10.521 155.734  64.476  1.00149.03 LIG 0.20  C 
ATOM     60 OXT  PRO E  35       9.756 154.880  64.920  1.00149.10 LIG-0.65  OA
ATOM     61 O    PRO E  35      10.579 156.791  65.108  1.00148.99 LIG-0.65  OA
ENDBRANCH 54 59
ENDBRANCH 51 52
ENDBRANCH 49 51
ENDBRANCH 39 47
ENDBRANCH 36 39
ENDBRANCH 1 35
TORSDOF 20
ENDMDL
MODEL 3
USER: ADFR SOLUTION from run 14
USER: SCORE 17.380646 LL:  -3.838 LR: -15.285 RR:   0.000 FEB:  -9.319
USER: RMSD 3.842280
USER: SEED 265925
USER: STATUS searching
USER: GENES 22
USER: genes 0 Translation |==|  0.52649 0.36728 0.49155
USER: genes 1 Rotation |==|  0.45184 0.59135 0.50268 0.98921
USER: genes 2 Torsion [CB]-CA--N-[C] |==|  0.33399
USER: genes 3 Torsion [N]-C--CA-[N] |==|  0.42927
USER: genes 4 Torsion [C]-CA--CB-[CG] |==|  0.23224
USER: genes 5 Torsion [CA]-CB--CG-[ND2] |==|  0.49499
USER: genes 6 Torsion [C]-CA--N-[C] |==|  0.68330
USER: genes 7 Torsion [N]-C--CA-[N] |==|  0.48687
USER: genes 8 Torsion [C]-CA--CB-[CG] |==|  0.93283
USER: genes 9 Torsion [CA]-CB--CG-[CD] |==|  0.50831
USER: genes 10 Torsion [CB]-CG--CD-[NE] |==|  0.15486
USER: genes 11 Torsion [CG]-CD--NE-[HE] |==|  0.91205
USER: genes 12 Torsion [N]-CA--CB-[CG] |==|  0.84087
USER: genes 13 Torsion [CA]-CB--CG-[CD2] |==|  0.88154
USER: genes 14 Torsion [N]-CA--C-[N] |==|  0.88426
USER: genes 15 Torsion [C]-N--CA-[C] |==|  0.60591
USER: genes 16 Torsion [N]-CA--CB-[CG] |==|  0.81738
USER: genes 17 Torsion [CA]-CB--CG-[CD2] |==|  0.80332
USER: genes 18 Torsion [N]-CA--C-[N] |==|  0.45813
USER: genes 19 Torsion [C]-N--CA-[C] |==|  0.76214
USER: genes 20 Torsion [N]-CA--C-[N] |==|  0.50539
USER: genes 21 Torsion [N]-CA--C-[OXT] |==|  0.87658
ROOT
ATOM      1  CA  LEU E  32      14.127 151.068  71.185  1.00142.86 LIG 0.18  C 
ENDROOT
BRANCH 1 2
ATOM      2  N   LEU E  32      12.668 150.983  71.207  1.00142.97 LIG-0.35  N 
ATOM      3 H    LEU E  32      12.321 150.656  70.491  1.00142.97 LIG 0.16  HD
ATOM      4  C   ASN E  31      11.955 151.385  72.257  1.00143.13 LIG 0.24  C 
ATOM      5 O    ASN E  31      12.460 151.928  73.236  1.00142.70 LIG-0.27  OA
BRANCH 4 6
ATOM      6  CA  ASN E  31      10.445 151.130  72.194  1.00143.53 LIG 0.18  C 
BRANCH 6 7
ATOM      7  CB  ASN E  31       9.746 152.254  71.426  1.00143.35 LIG 0.14  C 
BRANCH 7 8
ATOM      8  CG  ASN E  31       9.782 152.052  69.928  1.00142.31 LIG 0.22  C 
ATOM      9  ND2 ASN E  31       9.162 152.968  69.194  1.00140.74 LIG-0.37  N 
ATOM     10 21HD ASN E  31       9.191 152.922  68.335  1.00140.74 LIG 0.16  HD
ATOM     11 22HD ASN E  31       8.732 153.607  69.577  1.00140.74 LIG 0.16  HD
ATOM     12 OD1  ASN E  31      10.409 151.119  69.433  1.00141.61 LIG-0.27  OA
ENDBRANCH 7 8
ENDBRANCH 6 7
BRANCH 6 13
ATOM     13  N   ASN E  31       9.867 151.035  73.529  1.00144.28 LIG-0.34  N 
ATOM     14  C   ARG E  30       9.343 149.907  73.997  1.00145.24 LIG 0.26  C 
ATOM     15 O    ARG E  30       9.088 148.945  73.277  1.00145.16 LIG-0.27  OA
ATOM     16 H    ASN E  31       9.897 151.769  73.977  1.00144.28 LIG 0.16  HD
BRANCH 14 17
ATOM     17  CA  ARG E  30       9.008 149.886  75.492  1.00146.00 LIG 0.40  C 
ATOM     18  N   ARG E  30       8.324 148.626  75.900  1.00146.11 LIG 0.61  N 
BRANCH 17 19
ATOM     19  CB  ARG E  30      10.288 150.078  76.306  1.00146.54 LIG 0.05  C 
BRANCH 19 20
ATOM     20  CG  ARG E  30      11.551 149.664  75.561  1.00147.66 LIG 0.02  C 
BRANCH 20 21
ATOM     21  CD  ARG E  30      12.822 149.782  76.380  1.00149.13 LIG 0.14  C 
BRANCH 21 22
ATOM     22  NE  ARG E  30      12.748 149.028  77.630  1.00150.31 LIG-0.23  N 
ATOM     23 HE   ARG E  30      11.980 148.951  78.007  1.00150.31 LIG 0.18  HD
ATOM     24  CZ  ARG E  30      13.787 148.455  78.223  1.00151.12 LIG 0.67  C 
ATOM     25  NH1 ARG E  30      14.991 148.522  77.672  1.00151.59 LIG-0.23  N 
ATOM     26  NH2 ARG E  30      13.624 147.807  79.368  1.00151.52 LIG-0.23  N 
ATOM     27 1HH1 ARG E  30      15.101 148.939  76.927  1.00151.59 LIG 0.17  HD
ATOM     28 2HH1 ARG E  30      15.663 148.150  78.058  1.00151.59 LIG 0.17  HD
ATOM     29 1HH2 ARG E  30      12.845 147.758  79.727  1.00151.52 LIG 0.17  HD
ATOM     30 2HH2 ARG E  30      14.298 147.436  79.752  1.00151.52 LIG 0.17  HD
ENDBRANCH 21 22
ENDBRANCH 20 21
ENDBRANCH 19 20
ENDBRANCH 17 19
ENDBRANCH 14 17
ENDBRANCH 6 13
ENDBRANCH 4 6
ENDBRANCH 1 2
BRANCH 1 31
ATOM     31  CB  LEU E  32      14.734 149.675  70.997  1.00142.51 LIG 0.04  C 
BRANCH 31 32
ATOM     32  CG  LEU E  32      14.357 148.613  72.029  1.00140.78 LIG-0.02  C 
ATOM     33  CD1 LEU E  32      15.295 147.431  71.920  1.00139.49 LIG 0.01  C 
ATOM     34  CD2 LEU E  32      14.383 149.188  73.429  1.00139.97 LIG 0.01  C 
ENDBRANCH 31 32
ENDBRANCH 1 31
BRANCH 1 35
ATOM     35  C   LEU E  32      14.674 152.010  70.107  1.00143.34 LIG 0.24  C 
ATOM     36  N   PHE E  33      14.084 151.960  68.914  1.00143.72 LIG-0.35  N 
ATOM     37 H    PHE E  33      13.358 151.527  68.755  1.00143.72 LIG 0.16  HD
ATOM     38 O    LEU E  32      15.643 152.729  70.337  1.00143.58 LIG-0.27  OA
BRANCH 36 39
ATOM     39  CA  PHE E  33      14.636 152.654  67.752  1.00144.11 LIG 0.18  C 
BRANCH 39 40
ATOM     40  CB  PHE E  33      15.489 151.699  66.928  1.00143.74 LIG 0.07  C 
BRANCH 40 41
ATOM     41  CG  PHE E  33      16.713 151.233  67.639  1.00143.08 LIG-0.06  A 
ATOM     42  CD2 PHE E  33      17.766 152.098  67.870  1.00142.72 LIG 0.01  A 
ATOM     43  CE2 PHE E  33      18.893 151.670  68.538  1.00141.76 LIG 0.00  A 
ATOM     44  CZ  PHE E  33      18.970 150.377  68.997  1.00141.29 LIG 0.00  A 
ATOM     45  CE1 PHE E  33      17.921 149.509  68.785  1.00141.79 LIG 0.00  A 
ATOM     46  CD1 PHE E  33      16.800 149.938  68.112  1.00142.36 LIG 0.01  A 
ENDBRANCH 40 41
ENDBRANCH 39 40
BRANCH 39 47
ATOM     47  C   PHE E  33      13.572 153.269  66.856  1.00145.05 LIG 0.24  C 
ATOM     48 O    PHE E  33      12.390 152.956  66.989  1.00145.07 LIG-0.27  OA
ATOM     49  N   GLY E  34      13.982 154.165  65.965  1.00146.17 LIG-0.35  N 
ATOM     50 H    GLY E  34      14.791 154.451  65.908  1.00146.17 LIG 0.16  HD
BRANCH 49 51
ATOM     51  CA  GLY E  34      13.068 154.745  64.997  1.00147.07 LIG 0.23  C 
BRANCH 51 52
ATOM     52  C   GLY E  34      12.947 153.864  63.767  1.00147.85 LIG 0.24  C 
ATOM     53  N   PRO E  35      12.167 154.307  62.786  1.00148.70 LIG-0.34  N 
ATOM     54  CA  PRO E  35      11.972 153.534  61.555  1.00149.01 LIG 0.19  C 
ATOM     55  CD  PRO E  35      11.456 155.599  62.745  1.00148.94 LIG 0.13  C 
ATOM     56  CB  PRO E  35      11.150 154.485  60.668  1.00149.16 LIG 0.04  C 
ATOM     57  CG  PRO E  35      11.352 155.846  61.268  1.00149.11 LIG 0.02  C 
ATOM     58 O    GLY E  34      13.568 152.800  63.693  1.00147.94 LIG-0.27  OA
BRANCH 54 59
ATOM     59  C   PRO E  35      13.305 153.177  60.892  1.00149.03 LIG 0.20  C 
ATOM     60 OXT  PRO E  35      14.209 154.003  60.772  1.00149.10 LIG-0.65  OA
ATOM     61 O    PRO E  35      13.556 152.037  60.495  1.00148.99 LIG-0.65  OA
ENDBRANCH 54 59
ENDBRANCH 51 52
ENDBRANCH 49 51
ENDBRANCH 39 47
ENDBRANCH 36 39
ENDBRANCH 1 35
TORSDOF 20
ENDMDL
MODEL 4
USER: ADFR SOLUTION from run 99
USER: SCORE 17.819154 LL:  -4.836 LR: -14.892 RR:   0.000 FEB:  -8.926
USER: RMSD 4.525468
USER: SEED 98
USER: STATUS no improvement in best in 9 clusters for 5 generations
USER: GENES 22
USER: genes 0 Translation |==|  0.58939 0.40725 0.47695
USER: genes 1 Rotation |==|  0.40777 0.36463 0.46759 0.97129
USER: genes 2 Torsion [CB]-CA--N-[C] |==|  0.50602
USER: genes 3 Torsion [N]-C--CA-[N] |==|  0.35684
USER: genes 4 Torsion [C]-CA--CB-[CG] |==|  0.17620
USER: genes 5 Torsion [CA]-CB--CG-[ND2] |==|  0.64522
USER: genes 6 Torsion [C]-CA--N-[C] |==|  0.74170
USER: genes 7 Torsion [N]-C--CA-[N] |==|  0.31584
USER: genes 8 Torsion [C]-CA--CB-[CG] |==|  0.81360
USER: genes 9 Torsion [CA]-CB--CG-[CD] |==|  0.26887
USER: genes 10 Torsion [CB]-CG--CD-[NE] |==|  0.46710
USER: genes 11 Torsion [CG]-CD--NE-[HE] |==|  0.82841
USER: genes 12 Torsion [N]-CA--CB-[CG] |==|  0.91922
USER: genes 13 Torsion [CA]-CB--CG-[CD2] |==|  0.81636
USER: genes 14 Torsion [N]-CA--C-[N] |==|  0.92785
USER: genes 15 Torsion [C]-N--CA-[C] |==|  0.64770
USER: genes 16 Torsion [N]-CA--CB-[CG] |==|  0.96764
USER: genes 17 Torsion [CA]-CB--CG-[CD2] |==|  0.74086
USER: genes 18 Torsion [N]-CA--C-[N] |==|  0.05821
USER: genes 19 Torsion [C]-N--CA-[C] |==|  0.84996
USER: genes 20 Torsion [N]-CA--C-[N] |==|  0.85781
USER: genes 21 Torsion [N]-CA--C-[OXT] |==|  0.80999
ROOT
ATOM      1  CA  LEU E  32      15.401 151.877  70.868  1.00142.86 LIG 0.18  C 
ENDROOT
BRANCH 1 2
ATOM      2  N   LEU E  32      14.492 151.691  69.738  1.00142.97 LIG-0.35  N 
ATOM      3 H    LEU E  32      14.271 150.873  69.592  1.00142.97 LIG 0.16  HD
ATOM      4  C   ASN E  31      14.054 152.716  69.010  1.00143.13 LIG 0.24  C 
ATOM      5 O    ASN E  31      14.446 153.868  69.179  1.00142.70 LIG-0.27  OA
BRANCH 4 6
ATOM      6  CA  ASN E  31      13.014 152.393  67.932  1.00143.53 LIG 0.18  C 
BRANCH 6 7
ATOM      7  CB  ASN E  31      13.625 152.549  66.537  1.00143.35 LIG 0.14  C 
BRANCH 7 8
ATOM      8  CG  ASN E  31      14.753 151.577  66.278  1.00142.31 LIG 0.22  C 
ATOM      9  ND2 ASN E  31      15.895 152.099  65.849  1.00140.74 LIG-0.37  N 
ATOM     10 21HD ASN E  31      16.581 151.594  65.729  1.00140.74 LIG 0.16  HD
ATOM     11 22HD ASN E  31      15.950 152.943  65.692  1.00140.74 LIG 0.16  HD
ATOM     12 OD1  ASN E  31      14.622 150.379  66.518  1.00141.61 LIG-0.27  OA
ENDBRANCH 7 8
ENDBRANCH 6 7
BRANCH 6 13
ATOM     13  N   ASN E  31      11.849 153.262  68.041  1.00144.28 LIG-0.34  N 
ATOM     14  C   ARG E  30      10.771 152.919  68.739  1.00145.24 LIG 0.26  C 
ATOM     15 O    ARG E  30      10.573 151.774  69.135  1.00145.16 LIG-0.27  OA
ATOM     16 H    ASN E  31      11.926 154.006  67.617  1.00144.28 LIG 0.16  HD
BRANCH 14 17
ATOM     17  CA  ARG E  30       9.738 154.026  68.975  1.00146.00 LIG 0.40  C 
ATOM     18  N   ARG E  30       8.450 153.756  68.276  1.00146.11 LIG 0.61  N 
BRANCH 17 19
ATOM     19  CB  ARG E  30       9.498 154.190  70.476  1.00146.54 LIG 0.05  C 
BRANCH 19 20
ATOM     20  CG  ARG E  30       8.816 152.989  71.118  1.00147.66 LIG 0.02  C 
BRANCH 20 21
ATOM     21  CD  ARG E  30       9.770 152.014  71.782  1.00149.13 LIG 0.14  C 
BRANCH 21 22
ATOM     22  NE  ARG E  30       9.074 151.036  72.615  1.00150.31 LIG-0.23  N 
ATOM     23 HE   ARG E  30       8.621 151.329  73.284  1.00150.31 LIG 0.18  HD
ATOM     24  CZ  ARG E  30       9.093 149.726  72.408  1.00151.12 LIG 0.67  C 
ATOM     25  NH1 ARG E  30       9.756 149.222  71.377  1.00151.59 LIG-0.23  N 
ATOM     26  NH2 ARG E  30       8.444 148.914  73.232  1.00151.52 LIG-0.23  N 
ATOM     27 1HH1 ARG E  30      10.176 149.745  70.838  1.00151.59 LIG 0.17  HD
ATOM     28 2HH1 ARG E  30       9.767 148.372  71.246  1.00151.59 LIG 0.17  HD
ATOM     29 1HH2 ARG E  30       8.011 149.237  73.900  1.00151.52 LIG 0.17  HD
ATOM     30 2HH2 ARG E  30       8.458 148.065  73.098  1.00151.52 LIG 0.17  HD
ENDBRANCH 21 22
ENDBRANCH 20 21
ENDBRANCH 19 20
ENDBRANCH 17 19
ENDBRANCH 14 17
ENDBRANCH 6 13
ENDBRANCH 4 6
ENDBRANCH 1 2
BRANCH 1 31
ATOM     31  CB  LEU E  32      15.771 150.522  71.476  1.00142.51 LIG 0.04  C 
BRANCH 31 32
ATOM     32  CG  LEU E  32      14.736 149.405  71.354  1.00140.78 LIG-0.02  C 
ATOM     33  CD1 LEU E  32      15.336 148.092  71.806  1.00139.49 LIG 0.01  C 
ATOM     34  CD2 LEU E  32      13.495 149.729  72.158  1.00139.97 LIG 0.01  C 
ENDBRANCH 31 32
ENDBRANCH 1 31
BRANCH 1 35
ATOM     35  C   LEU E  32      16.681 152.640  70.509  1.00143.34 LIG 0.24  C 
ATOM     36  N   PHE E  33      17.082 152.574  69.241  1.00143.72 LIG-0.35  N 
ATOM     37 H    PHE E  33      16.612 152.234  68.606  1.00143.72 LIG 0.16  HD
ATOM     38 O    LEU E  32      17.320 153.233  71.376  1.00143.58 LIG-0.27  OA
BRANCH 36 39
ATOM     39  CA  PHE E  33      18.385 153.084  68.818  1.00144.11 LIG 0.18  C 
BRANCH 39 40
ATOM     40  CB  PHE E  33      19.297 151.929  68.425  1.00143.74 LIG 0.07  C 
BRANCH 40 41
ATOM     41  CG  PHE E  33      18.766 150.594  68.819  1.00143.08 LIG-0.06  A 
ATOM     42  CD2 PHE E  33      19.128 150.018  70.022  1.00142.72 LIG 0.01  A 
ATOM     43  CE2 PHE E  33      18.628 148.788  70.391  1.00141.76 LIG 0.00  A 
ATOM     44  CZ  PHE E  33      17.746 148.131  69.567  1.00141.29 LIG 0.00  A 
ATOM     45  CE1 PHE E  33      17.366 148.700  68.372  1.00141.79 LIG 0.00  A 
ATOM     46  CD1 PHE E  33      17.873 149.925  68.004  1.00142.36 LIG 0.01  A 
ENDBRANCH 40 41
ENDBRANCH 39 40
BRANCH 39 47
ATOM     47  C   PHE E  33      18.299 154.066  67.658  1.00145.05 LIG 0.24  C 
ATOM     48 O    PHE E  33      19.274 154.260  66.934  1.00145.07 LIG-0.27  OA
ATOM     49  N   GLY E  34      17.128 154.661  67.462  1.00146.17 LIG-0.35  N 
ATOM     50 H    GLY E  34      16.416 154.482  67.910  1.00146.17 LIG 0.16  HD
BRANCH 49 51
ATOM     51  CA  GLY E  34      16.959 155.684  66.445  1.00147.07 LIG 0.23  C 
BRANCH 51 52
ATOM     52  C   GLY E  34      17.978 156.796  66.617  1.00147.85 LIG 0.24  C 
ATOM     53  N   PRO E  35      18.078 157.336  67.828  1.00148.70 LIG-0.34  N 
ATOM     54  CA  PRO E  35      19.024 158.421  68.106  1.00149.01 LIG 0.19  C 
ATOM     55  CD  PRO E  35      17.343 156.921  69.038  1.00148.94 LIG 0.13  C 
ATOM     56  CB  PRO E  35      18.910 158.606  69.629  1.00149.16 LIG 0.04  C 
ATOM     57  CG  PRO E  35      18.287 157.335  70.128  1.00149.11 LIG 0.02  C 
ATOM     58 O    GLY E  34      18.683 157.153  65.670  1.00147.94 LIG-0.27  OA
BRANCH 54 59
ATOM     59  C   PRO E  35      20.453 158.045  67.702  1.00149.03 LIG 0.20  C 
ATOM     60 OXT  PRO E  35      21.087 157.178  68.302  1.00149.10 LIG-0.65  OA
ATOM     61 O    PRO E  35      21.015 158.553  66.730  1.00148.99 LIG-0.65  OA
ENDBRANCH 54 59
ENDBRANCH 51 52
ENDBRANCH 49 51
ENDBRANCH 39 47
ENDBRANCH 36 39
ENDBRANCH 1 35
TORSDOF 20
ENDMDL
MODEL 5
USER: ADFR SOLUTION from run 6
USER: SCORE 17.089664 LL:  -3.652 LR: -14.866 RR:   0.000 FEB:  -8.900
USER: RMSD 3.754310
USER: SEED 797467
USER: STATUS no improvement in best in 11 clusters for 5 generations
USER: GENES 22
USER: genes 0 Translation |==|  0.53352 0.37530 0.48739
USER: genes 1 Rotation |==|  0.49019 0.53374 0.45783 0.99698
USER: genes 2 Torsion [CB]-CA--N-[C] |==|  0.24349
USER: genes 3 Torsion [N]-C--CA-[N] |==|  0.49892
USER: genes 4 Torsion [C]-CA--CB-[CG] |==|  0.26673
USER: genes 5 Torsion [CA]-CB--CG-[ND2] |==|  0.38703
USER: genes 6 Torsion [C]-CA--N-[C] |==|  0.77949
USER: genes 7 Torsion [N]-C--CA-[N] |==|  0.28620
USER: genes 8 Torsion [C]-CA--CB-[CG] |==|  0.62872
USER: genes 9 Torsion [CA]-CB--CG-[CD] |==|  0.47551
USER: genes 10 Torsion [CB]-CG--CD-[NE] |==|  0.26114
USER: genes 11 Torsion [CG]-CD--NE-[HE] |==|  0.78178
USER: genes 12 Torsion [N]-CA--CB-[CG] |==|  0.76890
USER: genes 13 Torsion [CA]-CB--CG-[CD2] |==|  0.87771
USER: genes 14 Torsion [N]-CA--C-[N] |==|  0.82672
USER: genes 15 Torsion [C]-N--CA-[C] |==|  0.64573
USER: genes 16 Torsion [N]-CA--CB-[CG] |==|  0.86585
USER: genes 17 Torsion [CA]-CB--CG-[CD2] |==|  0.78206
USER: genes 18 Torsion [N]-CA--C-[N] |==|  0.00447
USER: genes 19 Torsion [C]-N--CA-[C] |==|  0.24734
USER: genes 20 Torsion [N]-CA--C-[N] |==|  0.45561
USER: genes 21 Torsion [N]-CA--C-[OXT] |==|  0.42702
ROOT
ATOM      1  CA  LEU E  32      14.270 151.230  71.095  1.00142.86 LIG 0.18  C 
ENDROOT
BRANCH 1 2
ATOM      2  N   LEU E  32      12.860 151.429  70.764  1.00142.97 LIG-0.35  N 
ATOM      3 H    LEU E  32      12.719 151.682  69.954  1.00142.97 LIG 0.16  HD
ATOM      4  C   ASN E  31      11.892 151.229  71.655  1.00143.13 LIG 0.24  C 
ATOM      5 O    ASN E  31      12.116 150.951  72.830  1.00142.70 LIG-0.27  OA
BRANCH 4 6
ATOM      6  CA  ASN E  31      10.454 151.359  71.142  1.00143.53 LIG 0.18  C 
BRANCH 6 7
ATOM      7  CB  ASN E  31      10.216 152.758  70.567  1.00143.35 LIG 0.14  C 
BRANCH 7 8
ATOM      8  CG  ASN E  31      10.392 152.814  69.067  1.00142.31 LIG 0.22  C 
ATOM      9  ND2 ASN E  31       9.514 153.549  68.397  1.00140.74 LIG-0.37  N 
ATOM     10 21HD ASN E  31       9.597 153.649  67.547  1.00140.74 LIG 0.16  HD
ATOM     11 22HD ASN E  31       8.862 153.926  68.813  1.00140.74 LIG 0.16  HD
ATOM     12 OD1  ASN E  31      11.340 152.254  68.522  1.00141.61 LIG-0.27  OA
ENDBRANCH 7 8
ENDBRANCH 6 7
BRANCH 6 13
ATOM     13  N   ASN E  31       9.487 151.111  72.204  1.00144.28 LIG-0.34  N 
ATOM     14  C   ARG E  30       9.165 149.883  72.598  1.00145.24 LIG 0.26  C 
ATOM     15 O    ARG E  30       9.462 148.880  71.954  1.00145.16 LIG-0.27  OA
ATOM     16 H    ASN E  31       9.149 151.825  72.546  1.00144.28 LIG 0.16  HD
BRANCH 14 17
ATOM     17  CA  ARG E  30       8.337 149.780  73.883  1.00146.00 LIG 0.40  C 
ATOM     18  N   ARG E  30       6.900 149.495  73.608  1.00146.11 LIG 0.61  N 
BRANCH 17 19
ATOM     19  CB  ARG E  30       8.926 148.694  74.785  1.00146.54 LIG 0.05  C 
BRANCH 19 20
ATOM     20  CG  ARG E  30       7.880 147.748  75.361  1.00147.66 LIG 0.02  C 
BRANCH 20 21
ATOM     21  CD  ARG E  30       8.460 146.546  76.082  1.00149.13 LIG 0.14  C 
BRANCH 21 22
ATOM     22  NE  ARG E  30       8.591 146.772  77.520  1.00150.31 LIG-0.23  N 
ATOM     23 HE   ARG E  30       9.258 147.241  77.793  1.00150.31 LIG 0.18  HD
ATOM     24  CZ  ARG E  30       7.752 146.302  78.433  1.00151.12 LIG 0.67  C 
ATOM     25  NH1 ARG E  30       6.694 145.593  78.065  1.00151.59 LIG-0.23  N 
ATOM     26  NH2 ARG E  30       7.966 146.543  79.719  1.00151.52 LIG-0.23  N 
ATOM     27 1HH1 ARG E  30       6.550 145.436  77.232  1.00151.59 LIG 0.17  HD
ATOM     28 2HH1 ARG E  30       6.152 145.289  78.659  1.00151.59 LIG 0.17  HD
ATOM     29 1HH2 ARG E  30       8.649 147.005  79.961  1.00151.52 LIG 0.17  HD
ATOM     30 2HH2 ARG E  30       7.422 146.237  80.310  1.00151.52 LIG 0.17  HD
ENDBRANCH 21 22
ENDBRANCH 20 21
ENDBRANCH 19 20
ENDBRANCH 17 19
ENDBRANCH 14 17
ENDBRANCH 6 13
ENDBRANCH 4 6
ENDBRANCH 1 2
BRANCH 1 31
ATOM     31  CB  LEU E  32      14.668 149.771  70.857  1.00142.51 LIG 0.04  C 
BRANCH 31 32
ATOM     32  CG  LEU E  32      14.355 148.780  71.976  1.00140.78 LIG-0.02  C 
ATOM     33  CD1 LEU E  32      15.088 147.479  71.735  1.00139.49 LIG 0.01  C 
ATOM     34  CD2 LEU E  32      14.723 149.357  73.327  1.00139.97 LIG 0.01  C 
ENDBRANCH 31 32
ENDBRANCH 1 31
BRANCH 1 35
ATOM     35  C   LEU E  32      15.220 152.149  70.319  1.00143.34 LIG 0.24  C 
ATOM     36  N   PHE E  33      15.237 152.011  68.995  1.00143.72 LIG-0.35  N 
ATOM     37 H    PHE E  33      14.674 151.532  68.555  1.00143.72 LIG 0.16  HD
ATOM     38 O    LEU E  32      15.960 152.929  70.914  1.00143.58 LIG-0.27  OA
BRANCH 36 39
ATOM     39  CA  PHE E  33      16.237 152.679  68.164  1.00144.11 LIG 0.18  C 
BRANCH 39 40
ATOM     40  CB  PHE E  33      17.206 151.656  67.587  1.00143.74 LIG 0.07  C 
BRANCH 40 41
ATOM     41  CG  PHE E  33      17.736 150.702  68.602  1.00143.08 LIG-0.06  A 
ATOM     42  CD2 PHE E  33      18.747 151.080  69.464  1.00142.72 LIG 0.01  A 
ATOM     43  CE2 PHE E  33      19.229 150.202  70.410  1.00141.76 LIG 0.00  A 
ATOM     44  CZ  PHE E  33      18.690 148.942  70.515  1.00141.29 LIG 0.00  A 
ATOM     45  CE1 PHE E  33      17.672 148.558  69.671  1.00141.79 LIG 0.00  A 
ATOM     46  CD1 PHE E  33      17.198 149.435  68.723  1.00142.36 LIG 0.01  A 
ENDBRANCH 40 41
ENDBRANCH 39 40
BRANCH 39 47
ATOM     47  C   PHE E  33      15.632 153.488  67.026  1.00145.05 LIG 0.24  C 
ATOM     48 O    PHE E  33      16.359 154.056  66.212  1.00145.07 LIG-0.27  OA
ATOM     49  N   GLY E  34      14.307 153.515  66.948  1.00146.17 LIG-0.35  N 
ATOM     50 H    GLY E  34      13.785 153.064  67.462  1.00146.17 LIG 0.16  HD
BRANCH 49 51
ATOM     51  CA  GLY E  34      13.622 154.330  65.960  1.00147.07 LIG 0.23  C 
BRANCH 51 52
ATOM     52  C   GLY E  34      13.417 153.562  64.667  1.00147.85 LIG 0.24  C 
ATOM     53  N   PRO E  35      12.531 154.058  63.809  1.00148.70 LIG-0.34  N 
ATOM     54  CA  PRO E  35      12.249 153.395  62.532  1.00149.01 LIG 0.19  C 
ATOM     55  CD  PRO E  35      11.772 155.314  63.958  1.00148.94 LIG 0.13  C 
ATOM     56  CB  PRO E  35      11.312 154.385  61.820  1.00149.16 LIG 0.04  C 
ATOM     57  CG  PRO E  35      11.519 155.692  62.528  1.00149.11 LIG 0.02  C 
ATOM     58 O    GLY E  34      14.067 152.540  64.435  1.00147.94 LIG-0.27  OA
BRANCH 54 59
ATOM     59  C   PRO E  35      13.525 153.163  61.719  1.00149.03 LIG 0.20  C 
ATOM     60 OXT  PRO E  35      13.612 152.251  60.897  1.00149.10 LIG-0.65  OA
ATOM     61 O    PRO E  35      14.505 153.905  61.810  1.00148.99 LIG-0.65  OA
ENDBRANCH 54 59
ENDBRANCH 51 52
ENDBRANCH 49 51
ENDBRANCH 39 47
ENDBRANCH 36 39
ENDBRANCH 1 35
TORSDOF 20
ENDMDL
MODEL 6
USER: ADFR SOLUTION from run 133
USER: SCORE 17.071373 LL:  -4.194 LR: -14.828 RR:   0.000 FEB:  -8.862
USER: RMSD 5.543828
USER: SEED 132
USER: STATUS no improvement in best in 9 clusters for 5 generations
USER: GENES 22
USER: genes 0 Translation |==|  0.57770 0.40841 0.47006
USER: genes 1 Rotation |==|  0.40182 0.36142 0.45617 0.96822
USER: genes 2 Torsion [CB]-CA--N-[C] |==|  0.39016
USER: genes 3 Torsion [N]-C--CA-[N] |==|  0.39989
USER: genes 4 Torsion [C]-CA--CB-[CG] |==|  0.24592
USER: genes 5 Torsion [CA]-CB--CG-[ND2] |==|  0.50866
USER: genes 6 Torsion [C]-CA--N-[C] |==|  0.83348
USER: genes 7 Torsion [N]-C--CA-[N] |==|  0.62555
USER: genes 8 Torsion [C]-CA--CB-[CG] |==|  0.30109
USER: genes 9 Torsion [CA]-CB--CG-[CD] |==|  0.39064
USER: genes 10 Torsion [CB]-CG--CD-[NE] |==|  0.80228
USER: genes 11 Torsion [CG]-CD--NE-[HE] |==|  0.92653
USER: genes 12 Torsion [N]-CA--CB-[CG] |==|  0.88666
USER: genes 13 Torsion [CA]-CB--CG-[CD2] |==|  0.78993
USER: genes 14 Torsion [N]-CA--C-[N] |==|  0.93667
USER: genes 15 Torsion [C]-N--CA-[C] |==|  0.63350
USER: genes 16 Torsion [N]-CA--CB-[CG] |==|  0.95464
USER: genes 17 Torsion [CA]-CB--CG-[CD2] |==|  0.73365
USER: genes 18 Torsion [N]-CA--C-[N] |==|  0.03622
USER: genes 19 Torsion [C]-N--CA-[C] |==|  0.86662
USER: genes 20 Torsion [N]-CA--C-[N] |==|  0.85073
USER: genes 21 Torsion [N]-CA--C-[OXT] |==|  0.84404
ROOT
ATOM      1  CA  LEU E  32      15.164 151.900  70.718  1.00142.86 LIG 0.18  C 
ENDROOT
BRANCH 1 2
ATOM      2  N   LEU E  32      14.272 151.743  69.570  1.00142.97 LIG-0.35  N 
ATOM      3 H    LEU E  32      14.439 151.053  69.085  1.00142.97 LIG 0.16  HD
ATOM      4  C   ASN E  31      13.292 152.606  69.316  1.00143.13 LIG 0.24  C 
ATOM      5 O    ASN E  31      13.123 153.632  69.970  1.00142.70 LIG-0.27  OA
BRANCH 4 6
ATOM      6  CA  ASN E  31      12.360 152.257  68.152  1.00143.53 LIG 0.18  C 
BRANCH 6 7
ATOM      7  CB  ASN E  31      12.830 152.943  66.867  1.00143.35 LIG 0.14  C 
BRANCH 7 8
ATOM      8  CG  ASN E  31      13.828 152.115  66.090  1.00142.31 LIG 0.22  C 
ATOM      9  ND2 ASN E  31      14.331 152.671  64.995  1.00140.74 LIG-0.37  N 
ATOM     10 21HD ASN E  31      14.935 152.259  64.542  1.00140.74 LIG 0.16  HD
ATOM     11 22HD ASN E  31      14.053 153.444  64.738  1.00140.74 LIG 0.16  HD
ATOM     12 OD1  ASN E  31      14.189 151.015  66.500  1.00141.61 LIG-0.27  OA
ENDBRANCH 7 8
ENDBRANCH 6 7
BRANCH 6 13
ATOM     13  N   ASN E  31      10.987 152.661  68.431  1.00144.28 LIG-0.34  N 
ATOM     14  C   ARG E  30      10.305 152.186  69.469  1.00145.24 LIG 0.26  C 
ATOM     15 O    ARG E  30      10.677 151.213  70.118  1.00145.16 LIG-0.27  OA
ATOM     16 H    ASN E  31      10.666 153.226  67.868  1.00144.28 LIG 0.16  HD
BRANCH 14 17
ATOM     17  CA  ARG E  30       8.978 152.884  69.783  1.00146.00 LIG 0.40  C 
ATOM     18  N   ARG E  30       8.814 153.161  71.239  1.00146.11 LIG 0.61  N 
BRANCH 17 19
ATOM     19  CB  ARG E  30       8.884 154.186  68.986  1.00146.54 LIG 0.05  C 
BRANCH 19 20
ATOM     20  CG  ARG E  30       7.872 154.131  67.848  1.00147.66 LIG 0.02  C 
BRANCH 20 21
ATOM     21  CD  ARG E  30       7.071 155.407  67.668  1.00149.13 LIG 0.14  C 
BRANCH 21 22
ATOM     22  NE  ARG E  30       6.106 155.613  68.745  1.00150.31 LIG-0.23  N 
ATOM     23 HE   ARG E  30       5.812 154.919  69.159  1.00150.31 LIG 0.18  HD
ATOM     24  CZ  ARG E  30       5.652 156.799  69.130  1.00151.12 LIG 0.67  C 
ATOM     25  NH1 ARG E  30       6.091 157.903  68.543  1.00151.59 LIG-0.23  N 
ATOM     26  NH2 ARG E  30       4.760 156.883  70.107  1.00151.52 LIG-0.23  N 
ATOM     27 1HH1 ARG E  30       6.671 157.854  67.911  1.00151.59 LIG 0.17  HD
ATOM     28 2HH1 ARG E  30       5.794 158.671  68.794  1.00151.59 LIG 0.17  HD
ATOM     29 1HH2 ARG E  30       4.475 156.170  70.492  1.00151.52 LIG 0.17  HD
ATOM     30 2HH2 ARG E  30       4.466 157.653  70.355  1.00151.52 LIG 0.17  HD
ENDBRANCH 21 22
ENDBRANCH 20 21
ENDBRANCH 19 20
ENDBRANCH 17 19
ENDBRANCH 14 17
ENDBRANCH 6 13
ENDBRANCH 4 6
ENDBRANCH 1 2
BRANCH 1 31
ATOM     31  CB  LEU E  32      15.456 150.538  71.351  1.00142.51 LIG 0.04  C 
BRANCH 31 32
ATOM     32  CG  LEU E  32      14.283 149.566  71.466  1.00140.78 LIG-0.02  C 
ATOM     33  CD1 LEU E  32      14.796 148.159  71.677  1.00139.49 LIG 0.01  C 
ATOM     34  CD2 LEU E  32      13.355 149.970  72.592  1.00139.97 LIG 0.01  C 
ENDBRANCH 31 32
ENDBRANCH 1 31
BRANCH 1 35
ATOM     35  C   LEU E  32      16.487 152.596  70.379  1.00143.34 LIG 0.24  C 
ATOM     36  N   PHE E  33      16.880 152.549  69.107  1.00143.72 LIG-0.35  N 
ATOM     37 H    PHE E  33      16.387 152.260  68.464  1.00143.72 LIG 0.16  HD
ATOM     38 O    LEU E  32      17.163 153.119  71.262  1.00143.58 LIG-0.27  OA
BRANCH 36 39
ATOM     39  CA  PHE E  33      18.209 152.994  68.695  1.00144.11 LIG 0.18  C 
BRANCH 39 40
ATOM     40  CB  PHE E  33      19.089 151.791  68.379  1.00143.74 LIG 0.07  C 
BRANCH 40 41
ATOM     41  CG  PHE E  33      18.555 150.508  68.917  1.00143.08 LIG-0.06  A 
ATOM     42  CD2 PHE E  33      18.995 150.015  70.131  1.00142.72 LIG 0.01  A 
ATOM     43  CE2 PHE E  33      18.493 148.835  70.633  1.00141.76 LIG 0.00  A 
ATOM     44  CZ  PHE E  33      17.531 148.145  69.935  1.00141.29 LIG 0.00  A 
ATOM     45  CE1 PHE E  33      17.073 148.634  68.731  1.00141.79 LIG 0.00  A 
ATOM     46  CD1 PHE E  33      17.582 149.809  68.229  1.00142.36 LIG 0.01  A 
ENDBRANCH 40 41
ENDBRANCH 39 40
BRANCH 39 47
ATOM     47  C   PHE E  33      18.187 153.922  67.489  1.00145.05 LIG 0.24  C 
ATOM     48 O    PHE E  33      19.221 154.161  66.869  1.00145.07 LIG-0.27  OA
ATOM     49  N   GLY E  34      17.007 154.421  67.138  1.00146.17 LIG-0.35  N 
ATOM     50 H    GLY E  34      16.263 154.207  67.514  1.00146.17 LIG 0.16  HD
BRANCH 49 51
ATOM     51  CA  GLY E  34      16.882 155.390  66.064  1.00147.07 LIG 0.23  C 
BRANCH 51 52
ATOM     52  C   GLY E  34      17.898 156.508  66.218  1.00147.85 LIG 0.24  C 
ATOM     53  N   PRO E  35      17.916 157.144  67.386  1.00148.70 LIG-0.34  N 
ATOM     54  CA  PRO E  35      18.852 158.244  67.643  1.00149.01 LIG 0.19  C 
ATOM     55  CD  PRO E  35      17.092 156.833  68.568  1.00148.94 LIG 0.13  C 
ATOM     56  CB  PRO E  35      18.630 158.554  69.133  1.00149.16 LIG 0.04  C 
ATOM     57  CG  PRO E  35      17.959 157.332  69.687  1.00149.11 LIG 0.02  C 
ATOM     58 O    GLY E  34      18.674 156.782  65.299  1.00147.94 LIG-0.27  OA
BRANCH 54 59
ATOM     59  C   PRO E  35      20.302 157.829  67.376  1.00149.03 LIG 0.20  C 
ATOM     60 OXT  PRO E  35      20.811 156.861  67.938  1.00149.10 LIG-0.65  OA
ATOM     61 O    PRO E  35      21.009 158.411  66.550  1.00148.99 LIG-0.65  OA
ENDBRANCH 54 59
ENDBRANCH 51 52
ENDBRANCH 49 51
ENDBRANCH 39 47
ENDBRANCH 36 39
ENDBRANCH 1 35
TORSDOF 20
ENDMDL
MODEL 7
USER: ADFR SOLUTION from run 54
USER: SCORE 16.643968 LL:  -4.098 LR: -14.753 RR:   0.000 FEB:  -8.787
USER: RMSD 3.740068
USER: SEED 53
USER: STATUS no improvement in best in 12 clusters for 5 generations
USER: GENES 22
USER: genes 0 Translation |==|  0.51467 0.36299 0.51130
USER: genes 1 Rotation |==|  0.51653 0.60298 0.48638 0.98881
USER: genes 2 Torsion [CB]-CA--N-[C] |==|  0.22191
USER: genes 3 Torsion [N]-C--CA-[N] |==|  0.56772
USER: genes 4 Torsion [C]-CA--CB-[CG] |==|  0.25358
USER: genes 5 Torsion [CA]-CB--CG-[ND2] |==|  0.38317
USER: genes 6 Torsion [C]-CA--N-[C] |==|  0.69708
USER: genes 7 Torsion [N]-C--CA-[N] |==|  0.26832
USER: genes 8 Torsion [C]-CA--CB-[CG] |==|  0.75747
USER: genes 9 Torsion [CA]-CB--CG-[CD] |==|  0.54055
USER: genes 10 Torsion [CB]-CG--CD-[NE] |==|  0.12110
USER: genes 11 Torsion [CG]-CD--NE-[HE] |==|  0.85196
USER: genes 12 Torsion [N]-CA--CB-[CG] |==|  0.75946
USER: genes 13 Torsion [CA]-CB--CG-[CD2] |==|  0.89338
USER: genes 14 Torsion [N]-CA--C-[N] |==|  0.64393
USER: genes 15 Torsion [C]-N--CA-[C] |==|  0.68909
USER: genes 16 Torsion [N]-CA--CB-[CG] |==|  0.06923
USER: genes 17 Torsion [CA]-CB--CG-[CD2] |==|  0.67889
USER: genes 18 Torsion [N]-CA--C-[N] |==|  0.95360
USER: genes 19 Torsion [C]-N--CA-[C] |==|  0.84444
USER: genes 20 Torsion [N]-CA--C-[N] |==|  0.85682
USER: genes 21 Torsion [N]-CA--C-[OXT] |==|  0.86292
ROOT
ATOM      1  CA  LEU E  32      13.888 150.981  71.615  1.00142.86 LIG 0.18  C 
ENDROOT
BRANCH 1 2
ATOM      2  N   LEU E  32      12.430 151.054  71.696  1.00142.97 LIG-0.35  N 
ATOM      3 H    LEU E  32      12.061 151.479  71.046  1.00142.97 LIG 0.16  HD
ATOM      4  C   ASN E  31      11.751 150.503  72.700  1.00143.13 LIG 0.24  C 
ATOM      5 O    ASN E  31      12.300 149.975  73.663  1.00142.70 LIG-0.27  OA
BRANCH 4 6
ATOM      6  CA  ASN E  31      10.224 150.552  72.599  1.00143.53 LIG 0.18  C 
BRANCH 6 7
ATOM      7  CB  ASN E  31       9.775 151.845  71.914  1.00143.35 LIG 0.14  C 
BRANCH 7 8
ATOM      8  CG  ASN E  31       9.634 151.699  70.416  1.00142.31 LIG 0.22  C 
ATOM      9  ND2 ASN E  31       8.572 152.272  69.864  1.00140.74 LIG-0.37  N 
ATOM     10 21HD ASN E  31       8.469 152.255  69.010  1.00140.74 LIG 0.16  HD
ATOM     11 22HD ASN E  31       7.986 152.660  70.360  1.00140.74 LIG 0.16  HD
ATOM     12 OD1  ASN E  31      10.499 151.131  69.754  1.00141.61 LIG-0.27  OA
ENDBRANCH 7 8
ENDBRANCH 6 7
BRANCH 6 13
ATOM     13  N   ASN E  31       9.602 150.469  73.914  1.00144.28 LIG-0.34  N 
ATOM     14  C   ARG E  30       8.939 149.391  74.319  1.00145.24 LIG 0.26  C 
ATOM     15 O    ARG E  30       8.594 148.496  73.552  1.00145.16 LIG-0.27  OA
ATOM     16 H    ASN E  31       9.703 151.175  74.395  1.00144.28 LIG 0.16  HD
BRANCH 14 17
ATOM     17  CA  ARG E  30       8.562 149.346  75.804  1.00146.00 LIG 0.40  C 
ATOM     18  N   ARG E  30       7.167 149.812  76.048  1.00146.11 LIG 0.61  N 
BRANCH 17 19
ATOM     19  CB  ARG E  30       8.742 147.924  76.335  1.00146.54 LIG 0.05  C 
BRANCH 19 20
ATOM     20  CG  ARG E  30       7.515 147.042  76.143  1.00147.66 LIG 0.02  C 
BRANCH 20 21
ATOM     21  CD  ARG E  30       7.537 145.762  76.956  1.00149.13 LIG 0.14  C 
BRANCH 21 22
ATOM     22  NE  ARG E  30       7.990 145.984  78.328  1.00150.31 LIG-0.23  N 
ATOM     23 HE   ARG E  30       8.740 146.387  78.442  1.00150.31 LIG 0.18  HD
ATOM     24  CZ  ARG E  30       7.321 145.605  79.409  1.00151.12 LIG 0.67  C 
ATOM     25  NH1 ARG E  30       6.147 145.002  79.291  1.00151.59 LIG-0.23  N 
ATOM     26  NH2 ARG E  30       7.824 145.834  80.614  1.00151.52 LIG-0.23  N 
ATOM     27 1HH1 ARG E  30       5.815 144.854  78.511  1.00151.59 LIG 0.17  HD
ATOM     28 2HH1 ARG E  30       5.716 144.758  79.994  1.00151.59 LIG 0.17  HD
ATOM     29 1HH2 ARG E  30       8.584 146.227  80.696  1.00151.52 LIG 0.17  HD
ATOM     30 2HH2 ARG E  30       7.390 145.588  81.315  1.00151.52 LIG 0.17  HD
ENDBRANCH 21 22
ENDBRANCH 20 21
ENDBRANCH 19 20
ENDBRANCH 17 19
ENDBRANCH 14 17
ENDBRANCH 6 13
ENDBRANCH 4 6
ENDBRANCH 1 2
BRANCH 1 31
ATOM     31  CB  LEU E  32      14.319 149.617  71.070  1.00142.51 LIG 0.04  C 
BRANCH 31 32
ATOM     32  CG  LEU E  32      14.481 148.488  72.087  1.00140.78 LIG-0.02  C 
ATOM     33  CD1 LEU E  32      15.331 147.382  71.501  1.00139.49 LIG 0.01  C 
ATOM     34  CD2 LEU E  32      15.091 149.004  73.373  1.00139.97 LIG 0.01  C 
ENDBRANCH 31 32
ENDBRANCH 1 31
BRANCH 1 35
ATOM     35  C   LEU E  32      14.514 152.089  70.762  1.00143.34 LIG 0.24  C 
ATOM     36  N   PHE E  33      15.358 151.705  69.806  1.00143.72 LIG-0.35  N 
ATOM     37 H    PHE E  33      15.476 150.886  69.571  1.00143.72 LIG 0.16  HD
ATOM     38 O    LEU E  32      14.277 153.271  71.000  1.00143.58 LIG-0.27  OA
BRANCH 36 39
ATOM     39  CA  PHE E  33      16.170 152.667  69.064  1.00144.11 LIG 0.18  C 
BRANCH 39 40
ATOM     40  CB  PHE E  33      17.642 152.283  69.146  1.00143.74 LIG 0.07  C 
BRANCH 40 41
ATOM     41  CG  PHE E  33      17.863 150.831  69.397  1.00143.08 LIG-0.06  A 
ATOM     42  CD2 PHE E  33      18.463 150.401  70.565  1.00142.72 LIG 0.01  A 
ATOM     43  CE2 PHE E  33      18.657 149.058  70.802  1.00141.76 LIG 0.00  A 
ATOM     44  CZ  PHE E  33      18.235 148.130  69.881  1.00141.29 LIG 0.00  A 
ATOM     45  CE1 PHE E  33      17.622 148.544  68.719  1.00141.79 LIG 0.00  A 
ATOM     46  CD1 PHE E  33      17.436 149.887  68.482  1.00142.36 LIG 0.01  A 
ENDBRANCH 40 41
ENDBRANCH 39 40
BRANCH 39 47
ATOM     47  C   PHE E  33      15.770 152.790  67.601  1.00145.05 LIG 0.24  C 
ATOM     48 O    PHE E  33      16.164 153.741  66.926  1.00145.07 LIG-0.27  OA
ATOM     49  N   GLY E  34      15.017 151.818  67.101  1.00146.17 LIG-0.35  N 
ATOM     50 H    GLY E  34      14.794 151.110  67.535  1.00146.17 LIG 0.16  HD
BRANCH 49 51
ATOM     51  CA  GLY E  34      14.499 151.880  65.745  1.00147.07 LIG 0.23  C 
BRANCH 51 52
ATOM     52  C   GLY E  34      13.696 153.149  65.527  1.00147.85 LIG 0.24  C 
ATOM     53  N   PRO E  35      12.739 153.413  66.412  1.00148.70 LIG-0.34  N 
ATOM     54  CA  PRO E  35      11.897 154.609  66.295  1.00149.01 LIG 0.19  C 
ATOM     55  CD  PRO E  35      12.420 152.630  67.620  1.00148.94 LIG 0.13  C 
ATOM     56  CB  PRO E  35      11.069 154.584  67.591  1.00149.16 LIG 0.04  C 
ATOM     57  CG  PRO E  35      11.824 153.676  68.516  1.00149.11 LIG 0.02  C 
ATOM     58 O    GLY E  34      13.949 153.897  64.579  1.00147.94 LIG-0.27  OA
BRANCH 54 59
ATOM     59  C   PRO E  35      12.737 155.886  66.201  1.00149.03 LIG 0.20  C 
ATOM     60 OXT  PRO E  35      13.647 156.121  66.994  1.00149.10 LIG-0.65  OA
ATOM     61 O    PRO E  35      12.576 156.712  65.300  1.00148.99 LIG-0.65  OA
ENDBRANCH 54 59
ENDBRANCH 51 52
ENDBRANCH 49 51
ENDBRANCH 39 47
ENDBRANCH 36 39
ENDBRANCH 1 35
TORSDOF 20
ENDMDL
MODEL 8
USER: ADFR SOLUTION from run 134
USER: SCORE 15.838479 LL:  -3.188 LR: -14.603 RR:   0.000 FEB:  -8.637
USER: RMSD 3.983110
USER: SEED 133
USER: STATUS no improvement in best in 7 clusters for 5 generations
USER: GENES 22
USER: genes 0 Translation |==|  0.51198 0.36536 0.48718
USER: genes 1 Rotation |==|  0.43918 0.58180 0.46587 0.98831
USER: genes 2 Torsion [CB]-CA--N-[C] |==|  0.22530
USER: genes 3 Torsion [N]-C--CA-[N] |==|  0.50433
USER: genes 4 Torsion [C]-CA--CB-[CG] |==|  0.25365
USER: genes 5 Torsion [CA]-CB--CG-[ND2] |==|  0.41323
USER: genes 6 Torsion [C]-CA--N-[C] |==|  0.74969
USER: genes 7 Torsion [N]-C--CA-[N] |==|  0.17970
USER: genes 8 Torsion [C]-CA--CB-[CG] |==|  0.50176
USER: genes 9 Torsion [CA]-CB--CG-[CD] |==|  0.49819
USER: genes 10 Torsion [CB]-CG--CD-[NE] |==|  0.38275
USER: genes 11 Torsion [CG]-CD--NE-[HE] |==|  0.87149
USER: genes 12 Torsion [N]-CA--CB-[CG] |==|  0.73914
USER: genes 13 Torsion [CA]-CB--CG-[CD2] |==|  0.93631
USER: genes 14 Torsion [N]-CA--C-[N] |==|  0.76111
USER: genes 15 Torsion [C]-N--CA-[C] |==|  0.69502
USER: genes 16 Torsion [N]-CA--CB-[CG] |==|  0.85885
USER: genes 17 Torsion [CA]-CB--CG-[CD2] |==|  0.79348
USER: genes 18 Torsion [N]-CA--C-[N] |==|  0.36648
USER: genes 19 Torsion [C]-N--CA-[C] |==|  0.58489
USER: genes 20 Torsion [N]-CA--C-[N] |==|  0.42829
USER: genes 21 Torsion [N]-CA--C-[OXT] |==|  0.91832
ROOT
ATOM      1  CA  LEU E  32      13.834 151.029  71.090  1.00142.86 LIG 0.18  C 
ENDROOT
BRANCH 1 2
ATOM      2  N   LEU E  32      12.376 151.135  71.037  1.00142.97 LIG-0.35  N 
ATOM      3 H    LEU E  32      12.063 151.318  70.257  1.00142.97 LIG 0.16  HD
ATOM      4  C   ASN E  31      11.617 150.960  72.116  1.00143.13 LIG 0.24  C 
ATOM      5 O    ASN E  31      12.085 150.785  73.238  1.00142.70 LIG-0.27  OA
BRANCH 4 6
ATOM      6  CA  ASN E  31      10.101 150.983  71.894  1.00143.53 LIG 0.18  C 
BRANCH 6 7
ATOM      7  CB  ASN E  31       9.676 152.300  71.242  1.00143.35 LIG 0.14  C 
BRANCH 7 8
ATOM      8  CG  ASN E  31       9.658 152.230  69.732  1.00142.31 LIG 0.22  C 
ATOM      9  ND2 ASN E  31       8.761 152.990  69.117  1.00140.74 LIG-0.37  N 
ATOM     10 21HD ASN E  31       8.739 153.019  68.257  1.00140.74 LIG 0.16  HD
ATOM     11 22HD ASN E  31       8.201 153.453  69.577  1.00140.74 LIG 0.16  HD
ATOM     12 OD1  ASN E  31      10.479 151.549  69.123  1.00141.61 LIG-0.27  OA
ENDBRANCH 7 8
ENDBRANCH 6 7
BRANCH 6 13
ATOM     13  N   ASN E  31       9.379 150.818  73.150  1.00144.28 LIG-0.34  N 
ATOM     14  C   ARG E  30       9.030 149.624  73.616  1.00145.24 LIG 0.26  C 
ATOM     15 O    ARG E  30       9.069 148.606  72.930  1.00145.16 LIG-0.27  OA
ATOM     16 H    ASN E  31       9.203 151.557  73.553  1.00144.28 LIG 0.16  HD
BRANCH 14 17
ATOM     17  CA  ARG E  30       8.507 149.586  75.056  1.00146.00 LIG 0.40  C 
ATOM     18  N   ARG E  30       7.226 150.332  75.213  1.00146.11 LIG 0.61  N 
BRANCH 17 19
ATOM     19  CB  ARG E  30       8.328 148.133  75.497  1.00146.54 LIG 0.05  C 
BRANCH 19 20
ATOM     20  CG  ARG E  30       7.795 147.989  76.917  1.00147.66 LIG 0.02  C 
BRANCH 20 21
ATOM     21  CD  ARG E  30       7.598 146.553  77.363  1.00149.13 LIG 0.14  C 
BRANCH 21 22
ATOM     22  NE  ARG E  30       8.051 146.330  78.735  1.00150.31 LIG-0.23  N 
ATOM     23 HE   ARG E  30       8.817 146.648  78.960  1.00150.31 LIG 0.18  HD
ATOM     24  CZ  ARG E  30       7.360 145.672  79.656  1.00151.12 LIG 0.67  C 
ATOM     25  NH1 ARG E  30       6.161 145.183  79.369  1.00151.59 LIG-0.23  N 
ATOM     26  NH2 ARG E  30       7.864 145.504  80.870  1.00151.52 LIG-0.23  N 
ATOM     27 1HH1 ARG E  30       5.829 145.292  78.583  1.00151.59 LIG 0.17  HD
ATOM     28 2HH1 ARG E  30       5.716 144.756  79.968  1.00151.59 LIG 0.17  HD
ATOM     29 1HH2 ARG E  30       8.639 145.822  81.062  1.00151.52 LIG 0.17  HD
ATOM     30 2HH2 ARG E  30       7.415 145.077  81.467  1.00151.52 LIG 0.17  HD
ENDBRANCH 21 22
ENDBRANCH 20 21
ENDBRANCH 19 20
ENDBRANCH 17 19
ENDBRANCH 14 17
ENDBRANCH 6 13
ENDBRANCH 4 6
ENDBRANCH 1 2
BRANCH 1 31
ATOM     31  CB  LEU E  32      14.258 149.559  71.038  1.00142.51 LIG 0.04  C 
BRANCH 31 32
ATOM     32  CG  LEU E  32      14.484 148.859  72.377  1.00140.78 LIG-0.02  C 
ATOM     33  CD1 LEU E  32      15.609 147.855  72.252  1.00139.49 LIG 0.01  C 
ATOM     34  CD2 LEU E  32      14.786 149.865  73.468  1.00139.97 LIG 0.01  C 
ENDBRANCH 31 32
ENDBRANCH 1 31
BRANCH 1 35
ATOM     35  C   LEU E  32      14.549 151.804  69.978  1.00143.34 LIG 0.24  C 
ATOM     36  N   PHE E  33      14.711 151.173  68.817  1.00143.72 LIG-0.35  N 
ATOM     37 H    PHE E  33      14.341 150.420  68.625  1.00143.72 LIG 0.16  HD
ATOM     38 O    LEU E  32      14.992 152.931  70.187  1.00143.58 LIG-0.27  OA
BRANCH 36 39
ATOM     39  CA  PHE E  33      15.548 151.721  67.752  1.00144.11 LIG 0.18  C 
BRANCH 39 40
ATOM     40  CB  PHE E  33      16.557 150.678  67.290  1.00143.74 LIG 0.07  C 
BRANCH 40 41
ATOM     41  CG  PHE E  33      17.323 150.058  68.407  1.00143.08 LIG-0.06  A 
ATOM     42  CD2 PHE E  33      18.324 150.760  69.050  1.00142.72 LIG 0.01  A 
ATOM     43  CE2 PHE E  33      19.025 150.190  70.091  1.00141.76 LIG 0.00  A 
ATOM     44  CZ  PHE E  33      18.718 148.918  70.510  1.00141.29 LIG 0.00  A 
ATOM     45  CE1 PHE E  33      17.713 148.213  69.887  1.00141.79 LIG 0.00  A 
ATOM     46  CD1 PHE E  33      17.020 148.782  68.843  1.00142.36 LIG 0.01  A 
ENDBRANCH 40 41
ENDBRANCH 39 40
BRANCH 39 47
ATOM     47  C   PHE E  33      14.752 152.210  66.551  1.00145.05 LIG 0.24  C 
ATOM     48 O    PHE E  33      13.859 151.513  66.072  1.00145.07 LIG-0.27  OA
ATOM     49  N   GLY E  34      15.052 153.417  66.084  1.00146.17 LIG-0.35  N 
ATOM     50 H    GLY E  34      15.621 153.947  66.451  1.00146.17 LIG 0.16  HD
BRANCH 49 51
ATOM     51  CA  GLY E  34      14.422 153.944  64.886  1.00147.07 LIG 0.23  C 
BRANCH 51 52
ATOM     52  C   GLY E  34      15.358 154.884  64.148  1.00147.85 LIG 0.24  C 
ATOM     53  N   PRO E  35      15.163 155.019  62.839  1.00148.70 LIG-0.34  N 
ATOM     54  CA  PRO E  35      16.012 155.896  62.026  1.00149.01 LIG 0.19  C 
ATOM     55  CD  PRO E  35      14.091 154.394  62.042  1.00148.94 LIG 0.13  C 
ATOM     56  CB  PRO E  35      15.332 155.863  60.647  1.00149.16 LIG 0.04  C 
ATOM     57  CG  PRO E  35      13.940 155.370  60.912  1.00149.11 LIG 0.02  C 
ATOM     58 O    GLY E  34      16.236 155.501  64.756  1.00147.94 LIG-0.27  OA
BRANCH 54 59
ATOM     59  C   PRO E  35      16.055 157.320  62.585  1.00149.03 LIG 0.20  C 
ATOM     60 OXT  PRO E  35      15.110 157.799  63.210  1.00149.10 LIG-0.65  OA
ATOM     61 O    PRO E  35      17.054 158.035  62.482  1.00148.99 LIG-0.65  OA
ENDBRANCH 54 59
ENDBRANCH 51 52
ENDBRANCH 49 51
ENDBRANCH 39 47
ENDBRANCH 36 39
ENDBRANCH 1 35
TORSDOF 20
ENDMDL
MODEL 9
USER: ADFR SOLUTION from run 183
USER: SCORE 16.939019 LL:  -4.640 LR: -14.560 RR:   0.000 FEB:  -8.594
USER: RMSD 2.678364
USER: SEED 182
USER: STATUS no improvement in best in 4 clusters for 5 generations
USER: GENES 22
USER: genes 0 Translation |==|  0.53109 0.38056 0.48869
USER: genes 1 Rotation |==|  0.45914 0.58076 0.49704 0.99173
USER: genes 2 Torsion [CB]-CA--N-[C] |==|  0.28611
USER: genes 3 Torsion [N]-C--CA-[N] |==|  0.46498
USER: genes 4 Torsion [C]-CA--CB-[CG] |==|  0.25876
USER: genes 5 Torsion [CA]-CB--CG-[ND2] |==|  0.43718
USER: genes 6 Torsion [C]-CA--N-[C] |==|  0.69398
USER: genes 7 Torsion [N]-C--CA-[N] |==|  0.40132
USER: genes 8 Torsion [C]-CA--CB-[CG] |==|  0.18914
USER: genes 9 Torsion [CA]-CB--CG-[CD] |==|  0.56253
USER: genes 10 Torsion [CB]-CG--CD-[NE] |==|  0.79282
USER: genes 11 Torsion [CG]-CD--NE-[HE] |==|  0.04099
USER: genes 12 Torsion [N]-CA--CB-[CG] |==|  0.83641
USER: genes 13 Torsion [CA]-CB--CG-[CD2] |==|  0.84597
USER: genes 14 Torsion [N]-CA--C-[N] |==|  0.67039
USER: genes 15 Torsion [C]-N--CA-[C] |==|  0.72255
USER: genes 16 Torsion [N]-CA--CB-[CG] |==|  0.99753
USER: genes 17 Torsion [CA]-CB--CG-[CD2] |==|  0.72538
USER: genes 18 Torsion [N]-CA--C-[N] |==|  0.97404
USER: genes 19 Torsion [C]-N--CA-[C] |==|  0.82670
USER: genes 20 Torsion [N]-CA--C-[N] |==|  0.85369
USER: genes 21 Torsion [N]-CA--C-[OXT] |==|  0.90619
ROOT
ATOM      1  CA  LEU E  32      14.220 151.336  71.123  1.00142.86 LIG 0.18  C 
ENDROOT
BRANCH 1 2
ATOM      2  N   LEU E  32      12.760 151.287  71.077  1.00142.97 LIG-0.35  N 
ATOM      3 H    LEU E  32      12.433 151.215  70.285  1.00142.97 LIG 0.16  HD
ATOM      4  C   ASN E  31      12.018 151.349  72.180  1.00143.13 LIG 0.24  C 
ATOM      5 O    ASN E  31      12.498 151.537  73.295  1.00142.70 LIG-0.27  OA
BRANCH 4 6
ATOM      6  CA  ASN E  31      10.508 151.166  71.998  1.00143.53 LIG 0.18  C 
BRANCH 6 7
ATOM      7  CB  ASN E  31       9.901 152.392  71.311  1.00143.35 LIG 0.14  C 
BRANCH 7 8
ATOM      8  CG  ASN E  31       9.819 152.243  69.809  1.00142.31 LIG 0.22  C 
ATOM      9  ND2 ASN E  31       8.923 153.000  69.189  1.00140.74 LIG-0.37  N 
ATOM     10 21HD ASN E  31       8.867 152.985  68.331  1.00140.74 LIG 0.16  HD
ATOM     11 22HD ASN E  31       8.398 153.507  69.645  1.00140.74 LIG 0.16  HD
ATOM     12 OD1  ASN E  31      10.592 151.503  69.206  1.00141.61 LIG-0.27  OA
ENDBRANCH 7 8
ENDBRANCH 6 7
BRANCH 6 13
ATOM     13  N   ASN E  31       9.840 150.959  73.278  1.00144.28 LIG-0.34  N 
ATOM     14  C   ARG E  30       9.312 149.788  73.620  1.00145.24 LIG 0.26  C 
ATOM     15 O    ARG E  30       9.131 148.880  72.814  1.00145.16 LIG-0.27  OA
ATOM     16 H    ASN E  31       9.821 151.656  73.781  1.00144.28 LIG 0.16  HD
BRANCH 14 17
ATOM     17  CA  ARG E  30       8.874 149.646  75.082  1.00146.00 LIG 0.40  C 
ATOM     18  N   ARG E  30       7.644 148.816  75.225  1.00146.11 LIG 0.61  N 
BRANCH 17 19
ATOM     19  CB  ARG E  30      10.015 149.043  75.901  1.00146.54 LIG 0.05  C 
BRANCH 19 20
ATOM     20  CG  ARG E  30      11.214 149.971  76.050  1.00147.66 LIG 0.02  C 
BRANCH 20 21
ATOM     21  CD  ARG E  30      12.516 149.259  76.362  1.00149.13 LIG 0.14  C 
BRANCH 21 22
ATOM     22  NE  ARG E  30      12.577 148.794  77.746  1.00150.31 LIG-0.23  N 
ATOM     23 HE   ARG E  30      11.844 148.775  78.195  1.00150.31 LIG 0.18  HD
ATOM     24  CZ  ARG E  30      13.686 148.398  78.356  1.00151.12 LIG 0.67  C 
ATOM     25  NH1 ARG E  30      14.839 148.383  77.702  1.00151.59 LIG-0.23  N 
ATOM     26  NH2 ARG E  30      13.644 148.011  79.623  1.00151.52 LIG-0.23  N 
ATOM     27 1HH1 ARG E  30      14.871 148.631  76.879  1.00151.59 LIG 0.17  HD
ATOM     28 2HH1 ARG E  30      15.557 148.127  78.101  1.00151.59 LIG 0.17  HD
ATOM     29 1HH2 ARG E  30      12.898 148.016  80.050  1.00151.52 LIG 0.17  HD
ATOM     30 2HH2 ARG E  30      14.364 147.755  80.019  1.00151.52 LIG 0.17  HD
ENDBRANCH 21 22
ENDBRANCH 20 21
ENDBRANCH 19 20
ENDBRANCH 17 19
ENDBRANCH 14 17
ENDBRANCH 6 13
ENDBRANCH 4 6
ENDBRANCH 1 2
BRANCH 1 31
ATOM     31  CB  LEU E  32      14.803 149.935  70.926  1.00142.51 LIG 0.04  C 
BRANCH 31 32
ATOM     32  CG  LEU E  32      14.385 148.866  71.934  1.00140.78 LIG-0.02  C 
ATOM     33  CD1 LEU E  32      15.083 147.560  71.623  1.00139.49 LIG 0.01  C 
ATOM     34  CD2 LEU E  32      14.690 149.310  73.349  1.00139.97 LIG 0.01  C 
ENDBRANCH 31 32
ENDBRANCH 1 31
BRANCH 1 35
ATOM     35  C   LEU E  32      14.837 152.292  70.096  1.00143.34 LIG 0.24  C 
ATOM     36  N   PHE E  33      15.647 151.753  69.187  1.00143.72 LIG-0.35  N 
ATOM     37 H    PHE E  33      15.747 150.906  69.076  1.00143.72 LIG 0.16  HD
ATOM     38 O    LEU E  32      14.623 153.501  70.158  1.00143.58 LIG-0.27  OA
BRANCH 36 39
ATOM     39  CA  PHE E  33      16.451 152.576  68.286  1.00144.11 LIG 0.18  C 
BRANCH 39 40
ATOM     40  CB  PHE E  33      17.854 151.998  68.159  1.00143.74 LIG 0.07  C 
BRANCH 40 41
ATOM     41  CG  PHE E  33      18.067 150.774  68.982  1.00143.08 LIG-0.06  A 
ATOM     42  CD2 PHE E  33      18.697 150.851  70.210  1.00142.72 LIG 0.01  A 
ATOM     43  CE2 PHE E  33      18.883 149.721  70.976  1.00141.76 LIG 0.00  A 
ATOM     44  CZ  PHE E  33      18.426 148.505  70.528  1.00141.29 LIG 0.00  A 
ATOM     45  CE1 PHE E  33      17.784 148.417  69.313  1.00141.79 LIG 0.00  A 
ATOM     46  CD1 PHE E  33      17.605 149.547  68.547  1.00142.36 LIG 0.01  A 
ENDBRANCH 40 41
ENDBRANCH 39 40
BRANCH 39 47
ATOM     47  C   PHE E  33      15.845 152.718  66.898  1.00145.05 LIG 0.24  C 
ATOM     48 O    PHE E  33      16.335 153.496  66.081  1.00145.07 LIG-0.27  OA
ATOM     49  N   GLY E  34      14.801 151.946  66.617  1.00146.17 LIG-0.35  N 
ATOM     50 H    GLY E  34      14.491 151.344  67.148  1.00146.17 LIG 0.16  HD
BRANCH 49 51
ATOM     51  CA  GLY E  34      14.086 152.065  65.359  1.00147.07 LIG 0.23  C 
BRANCH 51 52
ATOM     52  C   GLY E  34      13.459 153.440  65.216  1.00147.85 LIG 0.24  C 
ATOM     53  N   PRO E  35      12.690 153.855  66.219  1.00148.70 LIG-0.34  N 
ATOM     54  CA  PRO E  35      12.029 155.163  66.184  1.00149.01 LIG 0.19  C 
ATOM     55  CD  PRO E  35      12.435 153.141  67.484  1.00148.94 LIG 0.13  C 
ATOM     56  CB  PRO E  35      11.402 155.278  67.584  1.00149.16 LIG 0.04  C 
ATOM     57  CG  PRO E  35      12.138 154.274  68.422  1.00149.11 LIG 0.02  C 
ATOM     58 O    GLY E  34      13.681 154.131  64.219  1.00147.94 LIG-0.27  OA
BRANCH 54 59
ATOM     59  C   PRO E  35      13.027 156.297  65.932  1.00149.03 LIG 0.20  C 
ATOM     60 OXT  PRO E  35      14.178 156.252  66.365  1.00149.10 LIG-0.65  OA
ATOM     61 O    PRO E  35      12.744 157.280  65.245  1.00148.99 LIG-0.65  OA
ENDBRANCH 54 59
ENDBRANCH 51 52
ENDBRANCH 49 51
ENDBRANCH 39 47
ENDBRANCH 36 39
ENDBRANCH 1 35
TORSDOF 20
ENDMDL
MODEL 10
USER: ADFR SOLUTION from run 139
USER: SCORE 15.891503 LL:  -3.799 LR: -14.518 RR:   0.000 FEB:  -8.552
USER: RMSD 3.284541
USER: SEED 138
USER: STATUS no improvement in best in 4 clusters for 5 generations
USER: GENES 22
USER: genes 0 Translation |==|  0.53049 0.37115 0.48669
USER: genes 1 Rotation |==|  0.47209 0.58926 0.46052 0.98959
USER: genes 2 Torsion [CB]-CA--N-[C] |==|  0.21511
USER: genes 3 Torsion [N]-C--CA-[N] |==|  0.54026
USER: genes 4 Torsion [C]-CA--CB-[CG] |==|  0.27790
USER: genes 5 Torsion [CA]-CB--CG-[ND2] |==|  0.39077
USER: genes 6 Torsion [C]-CA--N-[C] |==|  0.73555
USER: genes 7 Torsion [N]-C--CA-[N] |==|  0.35632
USER: genes 8 Torsion [C]-CA--CB-[CG] |==|  0.15989
USER: genes 9 Torsion [CA]-CB--CG-[CD] |==|  0.44374
USER: genes 10 Torsion [CB]-CG--CD-[NE] |==|  0.39834
USER: genes 11 Torsion [CG]-CD--NE-[HE] |==|  0.03502
USER: genes 12 Torsion [N]-CA--CB-[CG] |==|  0.77544
USER: genes 13 Torsion [CA]-CB--CG-[CD2] |==|  0.89910
USER: genes 14 Torsion [N]-CA--C-[N] |==|  0.75256
USER: genes 15 Torsion [C]-N--CA-[C] |==|  0.66472
USER: genes 16 Torsion [N]-CA--CB-[CG] |==|  0.90719
USER: genes 17 Torsion [CA]-CB--CG-[CD2] |==|  0.79575
USER: genes 18 Torsion [N]-CA--C-[N] |==|  0.22925
USER: genes 19 Torsion [C]-N--CA-[C] |==|  0.77483
USER: genes 20 Torsion [N]-CA--C-[N] |==|  0.37778
USER: genes 21 Torsion [N]-CA--C-[OXT] |==|  0.84021
ROOT
ATOM      1  CA  LEU E  32      14.208 151.146  71.080  1.00142.86 LIG 0.18  C 
ENDROOT
BRANCH 1 2
ATOM      2  N   LEU E  32      12.757 151.323  71.069  1.00142.97 LIG-0.35  N 
ATOM      3 H    LEU E  32      12.448 151.664  70.342  1.00142.97 LIG 0.16  HD
ATOM      4  C   ASN E  31      11.997 150.979  72.105  1.00143.13 LIG 0.24  C 
ATOM      5 O    ASN E  31      12.464 150.573  73.167  1.00142.70 LIG-0.27  OA
BRANCH 4 6
ATOM      6  CA  ASN E  31      10.483 151.108  71.915  1.00143.53 LIG 0.18  C 
BRANCH 6 7
ATOM      7  CB  ASN E  31      10.142 152.433  71.229  1.00143.35 LIG 0.14  C 
BRANCH 7 8
ATOM      8  CG  ASN E  31       9.878 152.278  69.749  1.00142.31 LIG 0.22  C 
ATOM      9  ND2 ASN E  31       8.889 153.007  69.246  1.00140.74 LIG-0.37  N 
ATOM     10 21HD ASN E  31       8.727 152.987  68.401  1.00140.74 LIG 0.16  HD
ATOM     11 22HD ASN E  31       8.410 153.499  69.765  1.00140.74 LIG 0.16  HD
ATOM     12 OD1  ASN E  31      10.590 151.559  69.053  1.00141.61 LIG-0.27  OA
ENDBRANCH 7 8
ENDBRANCH 6 7
BRANCH 6 13
ATOM     13  N   ASN E  31       9.779 151.037  73.189  1.00144.28 LIG-0.34  N 
ATOM     14  C   ARG E  30       9.266 149.903  73.655  1.00145.24 LIG 0.26  C 
ATOM     15 O    ARG E  30       9.131 148.900  72.958  1.00145.16 LIG-0.27  OA
ATOM     16 H    ASN E  31       9.728 151.789  73.604  1.00144.28 LIG 0.16  HD
BRANCH 14 17
ATOM     17  CA  ARG E  30       8.784 149.925  75.109  1.00146.00 LIG 0.40  C 
ATOM     18  N   ARG E  30       7.387 149.423  75.250  1.00146.11 LIG 0.61  N 
BRANCH 17 19
ATOM     19  CB  ARG E  30       9.732 149.094  75.974  1.00146.54 LIG 0.05  C 
BRANCH 19 20
ATOM     20  CG  ARG E  30      11.179 149.566  75.917  1.00147.66 LIG 0.02  C 
BRANCH 20 21
ATOM     21  CD  ARG E  30      12.029 149.106  77.087  1.00149.13 LIG 0.14  C 
BRANCH 21 22
ATOM     22  NE  ARG E  30      13.398 148.789  76.687  1.00150.31 LIG-0.23  N 
ATOM     23 HE   ARG E  30      13.655 149.035  75.905  1.00150.31 LIG 0.18  HD
ATOM     24  CZ  ARG E  30      14.272 148.145  77.450  1.00151.12 LIG 0.67  C 
ATOM     25  NH1 ARG E  30      13.937 147.764  78.674  1.00151.59 LIG-0.23  N 
ATOM     26  NH2 ARG E  30      15.489 147.885  76.991  1.00151.52 LIG-0.23  N 
ATOM     27 1HH1 ARG E  30      13.150 147.933  78.977  1.00151.59 LIG 0.17  HD
ATOM     28 2HH1 ARG E  30      14.505 147.346  79.166  1.00151.59 LIG 0.17  HD
ATOM     29 1HH2 ARG E  30      15.711 148.133  76.199  1.00151.52 LIG 0.17  HD
ATOM     30 2HH2 ARG E  30      16.054 147.467  77.486  1.00151.52 LIG 0.17  HD
ENDBRANCH 21 22
ENDBRANCH 20 21
ENDBRANCH 19 20
ENDBRANCH 17 19
ENDBRANCH 14 17
ENDBRANCH 6 13
ENDBRANCH 4 6
ENDBRANCH 1 2
BRANCH 1 31
ATOM     31  CB  LEU E  32      14.563 149.678  70.833  1.00142.51 LIG 0.04  C 
BRANCH 31 32
ATOM     32  CG  LEU E  32      14.474 148.736  72.033  1.00140.78 LIG-0.02  C 
ATOM     33  CD1 LEU E  32      15.315 147.503  71.786  1.00139.49 LIG 0.01  C 
ATOM     34  CD2 LEU E  32      14.913 149.435  73.302  1.00139.97 LIG 0.01  C 
ENDBRANCH 31 32
ENDBRANCH 1 31
BRANCH 1 35
ATOM     35  C   LEU E  32      14.944 152.024  70.061  1.00143.34 LIG 0.24  C 
ATOM     36  N   PHE E  33      15.115 151.513  68.843  1.00143.72 LIG-0.35  N 
ATOM     37 H    PHE E  33      14.742 150.788  68.571  1.00143.72 LIG 0.16  HD
ATOM     38 O    LEU E  32      15.393 153.120  70.389  1.00143.58 LIG-0.27  OA
BRANCH 36 39
ATOM     39  CA  PHE E  33      15.971 152.160  67.851  1.00144.11 LIG 0.18  C 
BRANCH 39 40
ATOM     40  CB  PHE E  33      17.139 151.251  67.494  1.00143.74 LIG 0.07  C 
BRANCH 40 41
ATOM     41  CG  PHE E  33      17.612 150.418  68.636  1.00143.08 LIG-0.06  A 
ATOM     42  CD2 PHE E  33      18.331 150.983  69.671  1.00142.72 LIG 0.01  A 
ATOM     43  CE2 PHE E  33      18.757 150.214  70.732  1.00141.76 LIG 0.00  A 
ATOM     44  CZ  PHE E  33      18.453 148.875  70.776  1.00141.29 LIG 0.00  A 
ATOM     45  CE1 PHE E  33      17.725 148.302  69.757  1.00141.79 LIG 0.00  A 
ATOM     46  CD1 PHE E  33      17.306 149.071  68.696  1.00142.36 LIG 0.01  A 
ENDBRANCH 40 41
ENDBRANCH 39 40
BRANCH 39 47
ATOM     47  C   PHE E  33      15.232 152.542  66.576  1.00145.05 LIG 0.24  C 
ATOM     48 O    PHE E  33      15.253 151.797  65.598  1.00145.07 LIG-0.27  OA
ATOM     49  N   GLY E  34      14.554 153.685  66.595  1.00146.17 LIG-0.35  N 
ATOM     50 H    GLY E  34      14.467 154.181  67.292  1.00146.17 LIG 0.16  HD
BRANCH 49 51
ATOM     51  CA  GLY E  34      13.891 154.193  65.407  1.00147.07 LIG 0.23  C 
BRANCH 51 52
ATOM     52  C   GLY E  34      14.875 154.904  64.497  1.00147.85 LIG 0.24  C 
ATOM     53  N   PRO E  35      14.787 154.641  63.196  1.00148.70 LIG-0.34  N 
ATOM     54  CA  PRO E  35      15.692 155.267  62.226  1.00149.01 LIG 0.19  C 
ATOM     55  CD  PRO E  35      13.789 153.776  62.541  1.00148.94 LIG 0.13  C 
ATOM     56  CB  PRO E  35      15.127 154.808  60.872  1.00149.16 LIG 0.04  C 
ATOM     57  CG  PRO E  35      13.722 154.371  61.165  1.00149.11 LIG 0.02  C 
ATOM     58 O    GLY E  34      15.697 155.700  64.960  1.00147.94 LIG-0.27  OA
BRANCH 54 59
ATOM     59  C   PRO E  35      15.677 156.794  62.341  1.00149.03 LIG 0.20  C 
ATOM     60 OXT  PRO E  35      14.639 157.442  62.217  1.00149.10 LIG-0.65  OA
ATOM     61 O    PRO E  35      16.691 157.441  62.611  1.00148.99 LIG-0.65  OA
ENDBRANCH 54 59
ENDBRANCH 51 52
ENDBRANCH 49 51
ENDBRANCH 39 47
ENDBRANCH 36 39
ENDBRANCH 1 35
TORSDOF 20
ENDMDL
MODEL 11
USER: ADFR SOLUTION from run 2
USER: SCORE 16.228326 LL:  -3.856 LR: -14.326 RR:   0.000 FEB:  -8.360
USER: RMSD 3.316711
USER: SEED 560657
USER: STATUS no improvement in best in 14 clusters for 5 generations
USER: GENES 22
USER: genes 0 Translation |==|  0.53060 0.40219 0.47835
USER: genes 1 Rotation |==|  0.44322 0.49479 0.50394 0.99672
USER: genes 2 Torsion [CB]-CA--N-[C] |==|  0.47007
USER: genes 3 Torsion [N]-C--CA-[N] |==|  0.27937
USER: genes 4 Torsion [C]-CA--CB-[CG] |==|  0.62419
USER: genes 5 Torsion [CA]-CB--CG-[ND2] |==|  0.70025
USER: genes 6 Torsion [C]-CA--N-[C] |==|  0.70914
USER: genes 7 Torsion [N]-C--CA-[N] |==|  0.33917
USER: genes 8 Torsion [C]-CA--CB-[CG] |==|  0.09226
USER: genes 9 Torsion [CA]-CB--CG-[CD] |==|  0.36892
USER: genes 10 Torsion [CB]-CG--CD-[NE] |==|  0.00179
USER: genes 11 Torsion [CG]-CD--NE-[HE] |==|  0.82320
USER: genes 12 Torsion [N]-CA--CB-[CG] |==|  0.84520
USER: genes 13 Torsion [CA]-CB--CG-[CD2] |==|  0.78882
USER: genes 14 Torsion [N]-CA--C-[N] |==|  0.81773
USER: genes 15 Torsion [C]-N--CA-[C] |==|  0.68711
USER: genes 16 Torsion [N]-CA--CB-[CG] |==|  0.92679
USER: genes 17 Torsion [CA]-CB--CG-[CD2] |==|  0.79262
USER: genes 18 Torsion [N]-CA--C-[N] |==|  0.02711
USER: genes 19 Torsion [C]-N--CA-[C] |==|  0.23163
USER: genes 20 Torsion [N]-CA--C-[N] |==|  0.43644
USER: genes 21 Torsion [N]-CA--C-[OXT] |==|  0.44296
ROOT
ATOM      1  CA  LEU E  32      14.211 151.774  70.898  1.00142.86 LIG 0.18  C 
ENDROOT
BRANCH 1 2
ATOM      2  N   LEU E  32      12.855 151.614  70.374  1.00142.97 LIG-0.35  N 
ATOM      3 H    LEU E  32      12.686 150.829  70.065  1.00142.97 LIG 0.16  HD
ATOM      4  C   ASN E  31      11.973 152.611  70.384  1.00143.13 LIG 0.24  C 
ATOM      5 O    ASN E  31      12.258 153.748  70.750  1.00142.70 LIG-0.27  OA
BRANCH 4 6
ATOM      6  CA  ASN E  31      10.555 152.272  69.915  1.00143.53 LIG 0.18  C 
BRANCH 6 7
ATOM      7  CB  ASN E  31      10.006 153.389  69.025  1.00143.35 LIG 0.14  C 
BRANCH 7 8
ATOM      8  CG  ASN E  31       8.581 153.764  69.363  1.00142.31 LIG 0.22  C 
ATOM      9  ND2 ASN E  31       7.650 153.390  68.494  1.00140.74 LIG-0.37  N 
ATOM     10 21HD ASN E  31       6.820 153.540  68.662  1.00140.74 LIG 0.16  HD
ATOM     11 22HD ASN E  31       7.877 152.997  67.763  1.00140.74 LIG 0.16  HD
ATOM     12 OD1  ASN E  31       8.312 154.327  70.421  1.00141.61 LIG-0.27  OA
ENDBRANCH 7 8
ENDBRANCH 6 7
BRANCH 6 13
ATOM     13  N   ASN E  31       9.654 152.077  71.044  1.00144.28 LIG-0.34  N 
ATOM     14  C   ARG E  30       9.248 150.871  71.429  1.00145.24 LIG 0.26  C 
ATOM     15 O    ARG E  30       9.397 149.869  70.736  1.00145.16 LIG-0.27  OA
ATOM     16 H    ASN E  31       9.414 152.807  71.431  1.00144.28 LIG 0.16  HD
BRANCH 14 17
ATOM     17  CA  ARG E  30       8.516 150.801  72.773  1.00146.00 LIG 0.40  C 
ATOM     18  N   ARG E  30       7.150 150.219  72.643  1.00146.11 LIG 0.61  N 
BRANCH 17 19
ATOM     19  CB  ARG E  30       9.346 149.983  73.764  1.00146.54 LIG 0.05  C 
BRANCH 19 20
ATOM     20  CG  ARG E  30      10.849 150.131  73.567  1.00147.66 LIG 0.02  C 
BRANCH 20 21
ATOM     21  CD  ARG E  30      11.620 150.388  74.847  1.00149.13 LIG 0.14  C 
BRANCH 21 22
ATOM     22  NE  ARG E  30      10.751 150.427  76.021  1.00150.31 LIG-0.23  N 
ATOM     23 HE   ARG E  30      10.160 151.051  76.062  1.00150.31 LIG 0.18  HD
ATOM     24  CZ  ARG E  30      10.811 149.566  77.028  1.00151.12 LIG 0.67  C 
ATOM     25  NH1 ARG E  30      11.686 148.571  77.005  1.00151.59 LIG-0.23  N 
ATOM     26  NH2 ARG E  30       9.991 149.695  78.062  1.00151.52 LIG-0.23  N 
ATOM     27 1HH1 ARG E  30      12.219 148.482  76.335  1.00151.59 LIG 0.17  HD
ATOM     28 2HH1 ARG E  30      11.723 148.015  77.659  1.00151.59 LIG 0.17  HD
ATOM     29 1HH2 ARG E  30       9.419 150.337  78.080  1.00151.52 LIG 0.17  HD
ATOM     30 2HH2 ARG E  30      10.031 149.137  78.714  1.00151.52 LIG 0.17  HD
ENDBRANCH 21 22
ENDBRANCH 20 21
ENDBRANCH 19 20
ENDBRANCH 17 19
ENDBRANCH 14 17
ENDBRANCH 6 13
ENDBRANCH 4 6
ENDBRANCH 1 2
BRANCH 1 31
ATOM     31  CB  LEU E  32      14.901 150.413  71.002  1.00142.51 LIG 0.04  C 
BRANCH 31 32
ATOM     32  CG  LEU E  32      14.190 149.340  71.825  1.00140.78 LIG-0.02  C 
ATOM     33  CD1 LEU E  32      14.728 147.972  71.466  1.00139.49 LIG 0.01  C 
ATOM     34  CD2 LEU E  32      14.349 149.603  73.308  1.00139.97 LIG 0.01  C 
ENDBRANCH 31 32
ENDBRANCH 1 31
BRANCH 1 35
ATOM     35  C   LEU E  32      15.082 152.725  70.070  1.00143.34 LIG 0.24  C 
ATOM     36  N   PHE E  33      15.381 152.337  68.832  1.00143.72 LIG-0.35  N 
ATOM     37 H    PHE E  33      15.024 151.658  68.442  1.00143.72 LIG 0.16  HD
ATOM     38 O    LEU E  32      15.518 153.763  70.562  1.00143.58 LIG-0.27  OA
BRANCH 36 39
ATOM     39  CA  PHE E  33      16.363 153.049  68.017  1.00144.11 LIG 0.18  C 
BRANCH 39 40
ATOM     40  CB  PHE E  33      17.440 152.087  67.534  1.00143.74 LIG 0.07  C 
BRANCH 40 41
ATOM     41  CG  PHE E  33      17.628 150.910  68.427  1.00143.08 LIG-0.06  A 
ATOM     42  CD2 PHE E  33      18.278 151.041  69.640  1.00142.72 LIG 0.01  A 
ATOM     43  CE2 PHE E  33      18.441 149.954  70.471  1.00141.76 LIG 0.00  A 
ATOM     44  CZ  PHE E  33      17.939 148.729  70.105  1.00141.29 LIG 0.00  A 
ATOM     45  CE1 PHE E  33      17.276 148.588  68.906  1.00141.79 LIG 0.00  A 
ATOM     46  CD1 PHE E  33      17.121 149.673  68.075  1.00142.36 LIG 0.01  A 
ENDBRANCH 40 41
ENDBRANCH 39 40
BRANCH 39 47
ATOM     47  C   PHE E  33      15.751 153.754  66.815  1.00145.05 LIG 0.24  C 
ATOM     48 O    PHE E  33      16.471 154.217  65.932  1.00145.07 LIG-0.27  OA
ATOM     49  N   GLY E  34      14.425 153.810  66.764  1.00146.17 LIG-0.35  N 
ATOM     50 H    GLY E  34      13.905 153.429  67.333  1.00146.17 LIG 0.16  HD
BRANCH 49 51
ATOM     51  CA  GLY E  34      13.737 154.539  65.714  1.00147.07 LIG 0.23  C 
BRANCH 51 52
ATOM     52  C   GLY E  34      13.604 153.693  64.460  1.00147.85 LIG 0.24  C 
ATOM     53  N   PRO E  35      12.629 154.019  63.617  1.00148.70 LIG-0.34  N 
ATOM     54  CA  PRO E  35      12.406 153.267  62.378  1.00149.01 LIG 0.19  C 
ATOM     55  CD  PRO E  35      11.702 155.159  63.745  1.00148.94 LIG 0.13  C 
ATOM     56  CB  PRO E  35      11.314 154.081  61.664  1.00149.16 LIG 0.04  C 
ATOM     57  CG  PRO E  35      11.353 155.434  62.311  1.00149.11 LIG 0.02  C 
ATOM     58 O    GLY E  34      14.388 152.765  64.244  1.00147.94 LIG-0.27  OA
BRANCH 54 59
ATOM     59  C   PRO E  35      13.676 153.183  61.528  1.00149.03 LIG 0.20  C 
ATOM     60 OXT  PRO E  35      13.822 152.317  60.667  1.00149.10 LIG-0.65  OA
ATOM     61 O    PRO E  35      14.588 154.006  61.629  1.00148.99 LIG-0.65  OA
ENDBRANCH 54 59
ENDBRANCH 51 52
ENDBRANCH 49 51
ENDBRANCH 39 47
ENDBRANCH 36 39
ENDBRANCH 1 35
TORSDOF 20
ENDMDL
MODEL 12
USER: ADFR SOLUTION from run 122
USER: SCORE 17.412336 LL:  -5.264 LR: -14.253 RR:   0.000 FEB:  -8.287
USER: RMSD 4.458634
USER: SEED 121
USER: STATUS no improvement in best in 3 clusters for 5 generations
USER: GENES 22
USER: genes 0 Translation |==|  0.58965 0.40060 0.48182
USER: genes 1 Rotation |==|  0.41596 0.35658 0.46503 0.97026
USER: genes 2 Torsion [CB]-CA--N-[C] |==|  0.49705
USER: genes 3 Torsion [N]-C--CA-[N] |==|  0.36551
USER: genes 4 Torsion [C]-CA--CB-[CG] |==|  0.18434
USER: genes 5 Torsion [CA]-CB--CG-[ND2] |==|  0.60705
USER: genes 6 Torsion [C]-CA--N-[C] |==|  0.76270
USER: genes 7 Torsion [N]-C--CA-[N] |==|  0.13559
USER: genes 8 Torsion [C]-CA--CB-[CG] |==|  0.27064
USER: genes 9 Torsion [CA]-CB--CG-[CD] |==|  0.65039
USER: genes 10 Torsion [CB]-CG--CD-[NE] |==|  0.09917
USER: genes 11 Torsion [CG]-CD--NE-[HE] |==|  0.05949
USER: genes 12 Torsion [N]-CA--CB-[CG] |==|  0.92550
USER: genes 13 Torsion [CA]-CB--CG-[CD2] |==|  0.83276
USER: genes 14 Torsion [N]-CA--C-[N] |==|  0.96225
USER: genes 15 Torsion [C]-N--CA-[C] |==|  0.62937
USER: genes 16 Torsion [N]-CA--CB-[CG] |==|  0.95893
USER: genes 17 Torsion [CA]-CB--CG-[CD2] |==|  0.73925
USER: genes 18 Torsion [N]-CA--C-[N] |==|  0.99422
USER: genes 19 Torsion [C]-N--CA-[C] |==|  0.21708
USER: genes 20 Torsion [N]-CA--C-[N] |==|  0.43098
USER: genes 21 Torsion [N]-CA--C-[OXT] |==|  0.40182
ROOT
ATOM      1  CA  LEU E  32      15.406 151.742  70.974  1.00142.86 LIG 0.18  C 
ENDROOT
BRANCH 1 2
ATOM      2  N   LEU E  32      14.539 151.588  69.807  1.00142.97 LIG-0.35  N 
ATOM      3 H    LEU E  32      14.363 150.771  69.602  1.00142.97 LIG 0.16  HD
ATOM      4  C   ASN E  31      14.070 152.636  69.133  1.00143.13 LIG 0.24  C 
ATOM      5 O    ASN E  31      14.400 153.791  69.388  1.00142.70 LIG-0.27  OA
BRANCH 4 6
ATOM      6  CA  ASN E  31      13.078 152.334  68.006  1.00143.53 LIG 0.18  C 
BRANCH 6 7
ATOM      7  CB  ASN E  31      13.742 152.536  66.642  1.00143.35 LIG 0.14  C 
BRANCH 7 8
ATOM      8  CG  ASN E  31      14.844 151.537  66.371  1.00142.31 LIG 0.22  C 
ATOM      9  ND2 ASN E  31      15.918 151.999  65.744  1.00140.74 LIG-0.37  N 
ATOM     10 21HD ASN E  31      16.591 151.482  65.605  1.00140.74 LIG 0.16  HD
ATOM     11 22HD ASN E  31      15.942 152.817  65.476  1.00140.74 LIG 0.16  HD
ATOM     12 OD1  ASN E  31      14.758 150.380  66.774  1.00141.61 LIG-0.27  OA
ENDBRANCH 7 8
ENDBRANCH 6 7
BRANCH 6 13
ATOM     13  N   ASN E  31      11.900 153.189  68.093  1.00144.28 LIG-0.34  N 
ATOM     14  C   ARG E  30      10.856 152.883  68.856  1.00145.24 LIG 0.26  C 
ATOM     15 O    ARG E  30      10.696 151.768  69.346  1.00145.16 LIG-0.27  OA
ATOM     16 H    ASN E  31      11.946 153.899  67.610  1.00144.28 LIG 0.16  HD
BRANCH 14 17
ATOM     17  CA  ARG E  30       9.810 153.987  69.046  1.00146.00 LIG 0.40  C 
ATOM     18  N   ARG E  30       9.403 154.609  67.754  1.00146.11 LIG 0.61  N 
BRANCH 17 19
ATOM     19  CB  ARG E  30       8.588 153.414  69.764  1.00146.54 LIG 0.05  C 
BRANCH 19 20
ATOM     20  CG  ARG E  30       8.587 153.673  71.265  1.00147.66 LIG 0.02  C 
BRANCH 20 21
ATOM     21  CD  ARG E  30       8.429 152.424  72.111  1.00149.13 LIG 0.14  C 
BRANCH 21 22
ATOM     22  NE  ARG E  30       9.104 151.268  71.525  1.00150.31 LIG-0.23  N 
ATOM     23 HE   ARG E  30       9.735 151.416  70.960  1.00150.31 LIG 0.18  HD
ATOM     24  CZ  ARG E  30       8.810 150.005  71.806  1.00151.12 LIG 0.67  C 
ATOM     25  NH1 ARG E  30       7.863 149.720  72.688  1.00151.59 LIG-0.23  N 
ATOM     26  NH2 ARG E  30       9.467 149.022  71.207  1.00151.52 LIG-0.23  N 
ATOM     27 1HH1 ARG E  30       7.436 150.355  73.081  1.00151.59 LIG 0.17  HD
ATOM     28 2HH1 ARG E  30       7.674 148.901  72.868  1.00151.59 LIG 0.17  HD
ATOM     29 1HH2 ARG E  30      10.084 149.202  70.637  1.00151.52 LIG 0.17  HD
ATOM     30 2HH2 ARG E  30       9.275 148.203  71.389  1.00151.52 LIG 0.17  HD
ENDBRANCH 21 22
ENDBRANCH 20 21
ENDBRANCH 19 20
ENDBRANCH 17 19
ENDBRANCH 14 17
ENDBRANCH 6 13
ENDBRANCH 4 6
ENDBRANCH 1 2
BRANCH 1 31
ATOM     31  CB  LEU E  32      15.762 150.371  71.553  1.00142.51 LIG 0.04  C 
BRANCH 31 32
ATOM     32  CG  LEU E  32      14.763 149.241  71.313  1.00140.78 LIG-0.02  C 
ATOM     33  CD1 LEU E  32      15.298 147.947  71.886  1.00139.49 LIG 0.01  C 
ATOM     34  CD2 LEU E  32      13.415 149.575  71.918  1.00139.97 LIG 0.01  C 
ENDBRANCH 31 32
ENDBRANCH 1 31
BRANCH 1 35
ATOM     35  C   LEU E  32      16.694 152.521  70.684  1.00143.34 LIG 0.24  C 
ATOM     36  N   PHE E  33      17.004 152.712  69.403  1.00143.72 LIG-0.35  N 
ATOM     37 H    PHE E  33      16.475 152.530  68.750  1.00143.72 LIG 0.16  HD
ATOM     38 O    LEU E  32      17.418 152.896  71.604  1.00143.58 LIG-0.27  OA
BRANCH 36 39
ATOM     39  CA  PHE E  33      18.297 153.257  68.996  1.00144.11 LIG 0.18  C 
BRANCH 39 40
ATOM     40  CB  PHE E  33      19.185 152.147  68.451  1.00143.74 LIG 0.07  C 
BRANCH 40 41
ATOM     41  CG  PHE E  33      18.693 150.779  68.778  1.00143.08 LIG-0.06  A 
ATOM     42  CD2 PHE E  33      19.154 150.112  69.897  1.00142.72 LIG 0.01  A 
ATOM     43  CE2 PHE E  33      18.689 148.852  70.204  1.00141.76 LIG 0.00  A 
ATOM     44  CZ  PHE E  33      17.745 148.254  69.405  1.00141.29 LIG 0.00  A 
ATOM     45  CE1 PHE E  33      17.267 148.914  68.295  1.00141.79 LIG 0.00  A 
ATOM     46  CD1 PHE E  33      17.738 150.169  67.986  1.00142.36 LIG 0.01  A 
ENDBRANCH 40 41
ENDBRANCH 39 40
BRANCH 39 47
ATOM     47  C   PHE E  33      18.185 154.360  67.955  1.00145.05 LIG 0.24  C 
ATOM     48 O    PHE E  33      19.195 154.918  67.528  1.00145.07 LIG-0.27  OA
ATOM     49  N   GLY E  34      16.964 154.655  67.522  1.00146.17 LIG-0.35  N 
ATOM     50 H    GLY E  34      16.255 154.226  67.753  1.00146.17 LIG 0.16  HD
BRANCH 49 51
ATOM     51  CA  GLY E  34      16.730 155.752  66.600  1.00147.07 LIG 0.23  C 
BRANCH 51 52
ATOM     52  C   GLY E  34      17.099 155.360  65.181  1.00147.85 LIG 0.24  C 
ATOM     53  N   PRO E  35      16.493 156.021  64.199  1.00148.70 LIG-0.34  N 
ATOM     54  CA  PRO E  35      16.769 155.720  62.791  1.00149.01 LIG 0.19  C 
ATOM     55  CD  PRO E  35      15.546 157.141  64.349  1.00148.94 LIG 0.13  C 
ATOM     56  CB  PRO E  35      15.990 156.812  62.038  1.00149.16 LIG 0.04  C 
ATOM     57  CG  PRO E  35      15.740 157.883  63.059  1.00149.11 LIG 0.02  C 
ATOM     58 O    GLY E  34      17.939 154.480  64.971  1.00147.94 LIG-0.27  OA
BRANCH 54 59
ATOM     59  C   PRO E  35      18.266 155.795  62.477  1.00149.03 LIG 0.20  C 
ATOM     60 OXT  PRO E  35      18.795 155.034  61.668  1.00149.10 LIG-0.65  OA
ATOM     61 O    PRO E  35      18.999 156.650  62.977  1.00148.99 LIG-0.65  OA
ENDBRANCH 54 59
ENDBRANCH 51 52
ENDBRANCH 49 51
ENDBRANCH 39 47
ENDBRANCH 36 39
ENDBRANCH 1 35
TORSDOF 20
ENDMDL
MODEL 13
USER: ADFR SOLUTION from run 157
USER: SCORE 15.254372 LL:  -3.668 LR: -14.230 RR:   0.000 FEB:  -8.264
USER: RMSD 3.371145
USER: SEED 156
USER: STATUS no improvement in best in 9 clusters for 5 generations
USER: GENES 22
USER: genes 0 Translation |==|  0.52890 0.40479 0.46690
USER: genes 1 Rotation |==|  0.47440 0.49077 0.47500 0.99863
USER: genes 2 Torsion [CB]-CA--N-[C] |==|  0.29679
USER: genes 3 Torsion [N]-C--CA-[N] |==|  0.45262
USER: genes 4 Torsion [C]-CA--CB-[CG] |==|  0.60673
USER: genes 5 Torsion [CA]-CB--CG-[ND2] |==|  0.72477
USER: genes 6 Torsion [C]-CA--N-[C] |==|  0.76964
USER: genes 7 Torsion [N]-C--CA-[N] |==|  0.30077
USER: genes 8 Torsion [C]-CA--CB-[CG] |==|  0.08475
USER: genes 9 Torsion [CA]-CB--CG-[CD] |==|  0.27279
USER: genes 10 Torsion [CB]-CG--CD-[NE] |==|  0.12183
USER: genes 11 Torsion [CG]-CD--NE-[HE] |==|  0.73727
USER: genes 12 Torsion [N]-CA--CB-[CG] |==|  0.79528
USER: genes 13 Torsion [CA]-CB--CG-[CD2] |==|  0.84087
USER: genes 14 Torsion [N]-CA--C-[N] |==|  0.70074
USER: genes 15 Torsion [C]-N--CA-[C] |==|  0.76153
USER: genes 16 Torsion [N]-CA--CB-[CG] |==|  0.97920
USER: genes 17 Torsion [CA]-CB--CG-[CD2] |==|  0.73738
USER: genes 18 Torsion [N]-CA--C-[N] |==|  0.28676
USER: genes 19 Torsion [C]-N--CA-[C] |==|  0.68101
USER: genes 20 Torsion [N]-CA--C-[N] |==|  0.82511
USER: genes 21 Torsion [N]-CA--C-[OXT] |==|  0.31933
ROOT
ATOM      1  CA  LEU E  32      14.176 151.827  70.649  1.00142.86 LIG 0.18  C 
ENDROOT
BRANCH 1 2
ATOM      2  N   LEU E  32      12.830 151.887  70.081  1.00142.97 LIG-0.35  N 
ATOM      3 H    LEU E  32      12.804 151.813  69.224  1.00142.97 LIG 0.16  HD
ATOM      4  C   ASN E  31      11.750 152.044  70.842  1.00143.13 LIG 0.24  C 
ATOM      5 O    ASN E  31      11.812 152.233  72.054  1.00142.70 LIG-0.27  OA
BRANCH 4 6
ATOM      6  CA  ASN E  31      10.396 151.971  70.130  1.00143.53 LIG 0.18  C 
BRANCH 6 7
ATOM      7  CB  ASN E  31      10.131 153.263  69.353  1.00143.35 LIG 0.14  C 
BRANCH 7 8
ATOM      8  CG  ASN E  31       8.686 153.700  69.415  1.00142.31 LIG 0.22  C 
ATOM      9  ND2 ASN E  31       7.930 153.392  68.369  1.00140.74 LIG-0.37  N 
ATOM     10 21HD ASN E  31       7.091 153.581  68.375  1.00140.74 LIG 0.16  HD
ATOM     11 22HD ASN E  31       8.280 153.005  67.685  1.00140.74 LIG 0.16  HD
ATOM     12 OD1  ASN E  31       8.238 154.254  70.416  1.00141.61 LIG-0.27  OA
ENDBRANCH 7 8
ENDBRANCH 6 7
BRANCH 6 13
ATOM     13  N   ASN E  31       9.309 151.754  71.076  1.00144.28 LIG-0.34  N 
ATOM     14  C   ARG E  30       8.991 150.544  71.526  1.00145.24 LIG 0.26  C 
ATOM     15 O    ARG E  30       9.412 149.512  71.011  1.00145.16 LIG-0.27  OA
ATOM     16 H    ASN E  31       8.900 152.473  71.311  1.00144.28 LIG 0.16  HD
BRANCH 14 17
ATOM     17  CA  ARG E  30       8.005 150.496  72.698  1.00146.00 LIG 0.40  C 
ATOM     18  N   ARG E  30       6.662 149.996  72.289  1.00146.11 LIG 0.61  N 
BRANCH 17 19
ATOM     19  CB  ARG E  30       8.578 149.618  73.811  1.00146.54 LIG 0.05  C 
BRANCH 19 20
ATOM     20  CG  ARG E  30      10.099 149.630  73.875  1.00147.66 LIG 0.02  C 
BRANCH 20 21
ATOM     21  CD  ARG E  30      10.670 150.574  74.916  1.00149.13 LIG 0.14  C 
BRANCH 21 22
ATOM     22  NE  ARG E  30       9.955 150.494  76.188  1.00150.31 LIG-0.23  N 
ATOM     23 HE   ARG E  30       9.321 151.058  76.328  1.00150.31 LIG 0.18  HD
ATOM     24  CZ  ARG E  30      10.217 149.611  77.142  1.00151.12 LIG 0.67  C 
ATOM     25  NH1 ARG E  30      11.167 148.703  76.969  1.00151.59 LIG-0.23  N 
ATOM     26  NH2 ARG E  30       9.525 149.630  78.273  1.00151.52 LIG-0.23  N 
ATOM     27 1HH1 ARG E  30      11.617 148.685  76.236  1.00151.59 LIG 0.17  HD
ATOM     28 2HH1 ARG E  30      11.335 148.132  77.590  1.00151.59 LIG 0.17  HD
ATOM     29 1HH2 ARG E  30       8.906 150.215  78.388  1.00151.52 LIG 0.17  HD
ATOM     30 2HH2 ARG E  30       9.696 149.057  78.891  1.00151.52 LIG 0.17  HD
ENDBRANCH 21 22
ENDBRANCH 20 21
ENDBRANCH 19 20
ENDBRANCH 17 19
ENDBRANCH 14 17
ENDBRANCH 6 13
ENDBRANCH 4 6
ENDBRANCH 1 2
BRANCH 1 31
ATOM     31  CB  LEU E  32      14.709 150.394  70.594  1.00142.51 LIG 0.04  C 
BRANCH 31 32
ATOM     32  CG  LEU E  32      14.114 149.397  71.587  1.00140.78 LIG-0.02  C 
ATOM     33  CD1 LEU E  32      14.748 148.037  71.399  1.00139.49 LIG 0.01  C 
ATOM     34  CD2 LEU E  32      14.298 149.879  73.011  1.00139.97 LIG 0.01  C 
ENDBRANCH 31 32
ENDBRANCH 1 31
BRANCH 1 35
ATOM     35  C   LEU E  32      15.175 152.768  69.967  1.00143.34 LIG 0.24  C 
ATOM     36  N   PHE E  33      16.099 152.201  69.193  1.00143.72 LIG-0.35  N 
ATOM     37 H    PHE E  33      16.091 151.371  68.967  1.00143.72 LIG 0.16  HD
ATOM     38 O    LEU E  32      15.142 153.977  70.181  1.00143.58 LIG-0.27  OA
BRANCH 36 39
ATOM     39  CA  PHE E  33      17.224 152.961  68.653  1.00144.11 LIG 0.18  C 
BRANCH 39 40
ATOM     40  CB  PHE E  33      18.420 152.044  68.436  1.00143.74 LIG 0.07  C 
BRANCH 40 41
ATOM     41  CG  PHE E  33      18.220 150.670  68.979  1.00143.08 LIG-0.06  A 
ATOM     42  CD2 PHE E  33      18.665 150.341  70.245  1.00142.72 LIG 0.01  A 
ATOM     43  CE2 PHE E  33      18.470 149.075  70.751  1.00141.76 LIG 0.00  A 
ATOM     44  CZ  PHE E  33      17.811 148.130  70.002  1.00141.29 LIG 0.00  A 
ATOM     45  CE1 PHE E  33      17.350 148.449  68.744  1.00141.79 LIG 0.00  A 
ATOM     46  CD1 PHE E  33      17.553 149.713  68.239  1.00142.36 LIG 0.01  A 
ENDBRANCH 40 41
ENDBRANCH 39 40
BRANCH 39 47
ATOM     47  C   PHE E  33      16.900 153.672  67.347  1.00145.05 LIG 0.24  C 
ATOM     48 O    PHE E  33      16.822 153.038  66.296  1.00145.07 LIG-0.27  OA
ATOM     49  N   GLY E  34      16.680 154.980  67.415  1.00146.17 LIG-0.35  N 
ATOM     50 H    GLY E  34      16.657 155.427  68.150  1.00146.17 LIG 0.16  HD
BRANCH 49 51
ATOM     51  CA  GLY E  34      16.456 155.775  66.220  1.00147.07 LIG 0.23  C 
BRANCH 51 52
ATOM     52  C   GLY E  34      17.576 156.778  66.014  1.00147.85 LIG 0.24  C 
ATOM     53  N   PRO E  35      17.730 157.706  66.953  1.00148.70 LIG-0.34  N 
ATOM     54  CA  PRO E  35      18.776 158.729  66.854  1.00149.01 LIG 0.19  C 
ATOM     55  CD  PRO E  35      16.961 157.824  68.207  1.00148.94 LIG 0.13  C 
ATOM     56  CB  PRO E  35      18.683 159.461  68.203  1.00149.16 LIG 0.04  C 
ATOM     57  CG  PRO E  35      17.943 158.518  69.105  1.00149.11 LIG 0.02  C 
ATOM     58 O    GLY E  34      18.311 156.704  65.026  1.00147.94 LIG-0.27  OA
BRANCH 54 59
ATOM     59  C   PRO E  35      20.161 158.106  66.659  1.00149.03 LIG 0.20  C 
ATOM     60 OXT  PRO E  35      20.807 158.277  65.626  1.00149.10 LIG-0.65  OA
ATOM     61 O    PRO E  35      20.716 157.451  67.543  1.00148.99 LIG-0.65  OA
ENDBRANCH 54 59
ENDBRANCH 51 52
ENDBRANCH 49 51
ENDBRANCH 39 47
ENDBRANCH 36 39
ENDBRANCH 1 35
TORSDOF 20
ENDMDL
MODEL 14
USER: ADFR SOLUTION from run 136
USER: SCORE 16.193677 LL:  -3.816 LR: -14.235 RR:   0.000 FEB:  -8.269
USER: RMSD 3.923910
USER: SEED 135
USER: STATUS searching
USER: GENES 22
USER: genes 0 Translation |==|  0.49151 0.32255 0.52258
USER: genes 1 Rotation |==|  0.49544 0.55265 0.48353 0.99693
USER: genes 2 Torsion [CB]-CA--N-[C] |==|  0.40527
USER: genes 3 Torsion [N]-C--CA-[N] |==|  0.37009
USER: genes 4 Torsion [C]-CA--CB-[CG] |==|  0.20715
USER: genes 5 Torsion [CA]-CB--CG-[ND2] |==|  0.43879
USER: genes 6 Torsion [C]-CA--N-[C] |==|  0.74222
USER: genes 7 Torsion [N]-C--CA-[N] |==|  0.23693
USER: genes 8 Torsion [C]-CA--CB-[CG] |==|  0.67690
USER: genes 9 Torsion [CA]-CB--CG-[CD] |==|  0.49646
USER: genes 10 Torsion [CB]-CG--CD-[NE] |==|  0.20432
USER: genes 11 Torsion [CG]-CD--NE-[HE] |==|  0.81927
USER: genes 12 Torsion [N]-CA--CB-[CG] |==|  0.59482
USER: genes 13 Torsion [CA]-CB--CG-[CD2] |==|  0.07621
USER: genes 14 Torsion [N]-CA--C-[N] |==|  0.91123
USER: genes 15 Torsion [C]-N--CA-[C] |==|  0.61374
USER: genes 16 Torsion [N]-CA--CB-[CG] |==|  0.74585
USER: genes 17 Torsion [CA]-CB--CG-[CD2] |==|  0.82129
USER: genes 18 Torsion [N]-CA--C-[N] |==|  0.32171
USER: genes 19 Torsion [C]-N--CA-[C] |==|  0.81937
USER: genes 20 Torsion [N]-CA--C-[N] |==|  0.85556
USER: genes 21 Torsion [N]-CA--C-[OXT] |==|  0.91021
ROOT
ATOM      1  CA  LEU E  32      13.419 150.162  71.860  1.00142.86 LIG 0.18  C 
ENDROOT
BRANCH 1 2
ATOM      2  N   LEU E  32      11.975 150.228  71.642  1.00142.97 LIG-0.35  N 
ATOM      3 H    LEU E  32      11.693 149.742  70.991  1.00142.97 LIG 0.16  HD
ATOM      4  C   ASN E  31      11.182 150.984  72.397  1.00143.13 LIG 0.24  C 
ATOM      5 O    ASN E  31      11.612 151.737  73.267  1.00142.70 LIG-0.27  OA
BRANCH 4 6
ATOM      6  CA  ASN E  31       9.677 150.868  72.136  1.00143.53 LIG 0.18  C 
BRANCH 6 7
ATOM      7  CB  ASN E  31       9.168 152.104  71.389  1.00143.35 LIG 0.14  C 
BRANCH 7 8
ATOM      8  CG  ASN E  31       9.566 152.113  69.931  1.00142.31 LIG 0.22  C 
ATOM      9  ND2 ASN E  31       8.826 152.862  69.122  1.00140.74 LIG-0.37  N 
ATOM     10 21HD ASN E  31       9.037 152.936  68.292  1.00140.74 LIG 0.16  HD
ATOM     11 22HD ASN E  31       8.135 153.273  69.429  1.00140.74 LIG 0.16  HD
ATOM     12 OD1  ASN E  31      10.561 151.505  69.544  1.00141.61 LIG-0.27  OA
ENDBRANCH 7 8
ENDBRANCH 6 7
BRANCH 6 13
ATOM     13  N   ASN E  31       8.931 150.724  73.380  1.00144.28 LIG-0.34  N 
ATOM     14  C   ARG E  30       8.619 149.536  73.887  1.00145.24 LIG 0.26  C 
ATOM     15 O    ARG E  30       8.715 148.494  73.244  1.00145.16 LIG-0.27  OA
ATOM     16 H    ASN E  31       8.716 151.471  73.749  1.00144.28 LIG 0.16  HD
BRANCH 14 17
ATOM     17  CA  ARG E  30       8.063 149.534  75.315  1.00146.00 LIG 0.40  C 
ATOM     18  N   ARG E  30       6.592 149.769  75.350  1.00146.11 LIG 0.61  N 
BRANCH 17 19
ATOM     19  CB  ARG E  30       8.401 148.205  75.993  1.00146.54 LIG 0.05  C 
BRANCH 19 20
ATOM     20  CG  ARG E  30       7.174 147.380  76.358  1.00147.66 LIG 0.02  C 
BRANCH 20 21
ATOM     21  CD  ARG E  30       7.494 146.045  77.004  1.00149.13 LIG 0.14  C 
BRANCH 21 22
ATOM     22  NE  ARG E  30       7.957 146.192  78.382  1.00150.31 LIG-0.23  N 
ATOM     23 HE   ARG E  30       8.703 146.598  78.513  1.00150.31 LIG 0.18  HD
ATOM     24  CZ  ARG E  30       7.305 145.742  79.446  1.00151.12 LIG 0.67  C 
ATOM     25  NH1 ARG E  30       6.137 145.130  79.303  1.00151.59 LIG-0.23  N 
ATOM     26  NH2 ARG E  30       7.816 145.906  80.658  1.00151.52 LIG-0.23  N 
ATOM     27 1HH1 ARG E  30       5.800 145.024  78.519  1.00151.59 LIG 0.17  HD
ATOM     28 2HH1 ARG E  30       5.717 144.839  79.994  1.00151.59 LIG 0.17  HD
ATOM     29 1HH2 ARG E  30       8.571 146.305  80.755  1.00151.52 LIG 0.17  HD
ATOM     30 2HH2 ARG E  30       7.393 145.613  81.346  1.00151.52 LIG 0.17  HD
ENDBRANCH 21 22
ENDBRANCH 20 21
ENDBRANCH 19 20
ENDBRANCH 17 19
ENDBRANCH 14 17
ENDBRANCH 6 13
ENDBRANCH 4 6
ENDBRANCH 1 2
BRANCH 1 31
ATOM     31  CB  LEU E  32      13.938 148.758  71.539  1.00142.51 LIG 0.04  C 
BRANCH 31 32
ATOM     32  CG  LEU E  32      15.099 148.241  72.386  1.00140.78 LIG-0.02  C 
ATOM     33  CD1 LEU E  32      16.412 148.507  71.682  1.00139.49 LIG 0.01  C 
ATOM     34  CD2 LEU E  32      15.091 148.880  73.759  1.00139.97 LIG 0.01  C 
ENDBRANCH 31 32
ENDBRANCH 1 31
BRANCH 1 35
ATOM     35  C   LEU E  32      14.212 151.194  71.052  1.00143.34 LIG 0.24  C 
ATOM     36  N   PHE E  33      13.715 151.535  69.864  1.00143.72 LIG-0.35  N 
ATOM     37 H    PHE E  33      12.935 151.303  69.586  1.00143.72 LIG 0.16  HD
ATOM     38 O    LEU E  32      15.280 151.633  71.474  1.00143.58 LIG-0.27  OA
BRANCH 36 39
ATOM     39  CA  PHE E  33      14.474 152.349  68.917  1.00144.11 LIG 0.18  C 
BRANCH 39 40
ATOM     40  CB  PHE E  33      15.135 151.458  67.873  1.00143.74 LIG 0.07  C 
BRANCH 40 41
ATOM     41  CG  PHE E  33      16.514 151.031  68.245  1.00143.08 LIG-0.06  A 
ATOM     42  CD2 PHE E  33      17.528 151.961  68.374  1.00142.72 LIG 0.01  A 
ATOM     43  CE2 PHE E  33      18.800 151.568  68.729  1.00141.76 LIG 0.00  A 
ATOM     44  CZ  PHE E  33      19.065 150.242  68.977  1.00141.29 LIG 0.00  A 
ATOM     45  CE1 PHE E  33      18.060 149.308  68.866  1.00141.79 LIG 0.00  A 
ATOM     46  CD1 PHE E  33      16.792 149.703  68.504  1.00142.36 LIG 0.01  A 
ENDBRANCH 40 41
ENDBRANCH 39 40
BRANCH 39 47
ATOM     47  C   PHE E  33      13.628 153.397  68.210  1.00145.05 LIG 0.24  C 
ATOM     48 O    PHE E  33      12.696 153.057  67.482  1.00145.07 LIG-0.27  OA
ATOM     49  N   GLY E  34      13.928 154.669  68.446  1.00146.17 LIG-0.35  N 
ATOM     50 H    GLY E  34      14.526 154.926  69.007  1.00146.17 LIG 0.16  HD
BRANCH 49 51
ATOM     51  CA  GLY E  34      13.248 155.750  67.753  1.00147.07 LIG 0.23  C 
BRANCH 51 52
ATOM     52  C   GLY E  34      13.550 155.718  66.266  1.00147.85 LIG 0.24  C 
ATOM     53  N   PRO E  35      14.832 155.672  65.915  1.00148.70 LIG-0.34  N 
ATOM     54  CA  PRO E  35      15.239 155.645  64.506  1.00149.01 LIG 0.19  C 
ATOM     55  CD  PRO E  35      15.989 155.585  66.825  1.00148.94 LIG 0.13  C 
ATOM     56  CB  PRO E  35      16.760 155.431  64.583  1.00149.16 LIG 0.04  C 
ATOM     57  CG  PRO E  35      17.007 154.897  65.964  1.00149.11 LIG 0.02  C 
ATOM     58 O    GLY E  34      12.634 155.716  65.439  1.00147.94 LIG-0.27  OA
BRANCH 54 59
ATOM     59  C   PRO E  35      14.560 154.505  63.742  1.00149.03 LIG 0.20  C 
ATOM     60 OXT  PRO E  35      14.279 153.439  64.287  1.00149.10 LIG-0.65  OA
ATOM     61 O    PRO E  35      14.219 154.618  62.563  1.00148.99 LIG-0.65  OA
ENDBRANCH 54 59
ENDBRANCH 51 52
ENDBRANCH 49 51
ENDBRANCH 39 47
ENDBRANCH 36 39
ENDBRANCH 1 35
TORSDOF 20
ENDMDL
MODEL 15
USER: ADFR SOLUTION from run 54
USER: SCORE 16.001204 LL:  -3.674 LR: -14.229 RR:   0.000 FEB:  -8.263
USER: RMSD 4.479835
USER: SEED 53
USER: STATUS no improvement in best in 12 clusters for 5 generations
USER: GENES 22
USER: genes 0 Translation |==|  0.50938 0.33730 0.51155
USER: genes 1 Rotation |==|  0.56976 0.62973 0.60874 0.96527
USER: genes 2 Torsion [CB]-CA--N-[C] |==|  0.50983
USER: genes 3 Torsion [N]-C--CA-[N] |==|  0.37873
USER: genes 4 Torsion [C]-CA--CB-[CG] |==|  0.04887
USER: genes 5 Torsion [CA]-CB--CG-[ND2] |==|  0.26501
USER: genes 6 Torsion [C]-CA--N-[C] |==|  0.54446
USER: genes 7 Torsion [N]-C--CA-[N] |==|  0.32056
USER: genes 8 Torsion [C]-CA--CB-[CG] |==|  0.81837
USER: genes 9 Torsion [CA]-CB--CG-[CD] |==|  0.60838
USER: genes 10 Torsion [CB]-CG--CD-[NE] |==|  0.02032
USER: genes 11 Torsion [CG]-CD--NE-[HE] |==|  0.90504
USER: genes 12 Torsion [N]-CA--CB-[CG] |==|  0.75479
USER: genes 13 Torsion [CA]-CB--CG-[CD2] |==|  0.97345
USER: genes 14 Torsion [N]-CA--C-[N] |==|  0.81653
USER: genes 15 Torsion [C]-N--CA-[C] |==|  0.56614
USER: genes 16 Torsion [N]-CA--CB-[CG] |==|  0.13848
USER: genes 17 Torsion [CA]-CB--CG-[CD2] |==|  0.69366
USER: genes 18 Torsion [N]-CA--C-[N] |==|  0.42747
USER: genes 19 Torsion [C]-N--CA-[C] |==|  0.82211
USER: genes 20 Torsion [N]-CA--C-[N] |==|  0.44983
USER: genes 21 Torsion [N]-CA--C-[OXT] |==|  0.86706
ROOT
ATOM      1  CA  LEU E  32      13.781 150.460  71.620  1.00142.86 LIG 0.18  C 
ENDROOT
BRANCH 1 2
ATOM      2  N   LEU E  32      12.453 149.866  71.764  1.00142.97 LIG-0.35  N 
ATOM      3 H    LEU E  32      12.347 149.128  71.335  1.00142.97 LIG 0.16  HD
ATOM      4  C   ASN E  31      11.502 150.435  72.501  1.00143.13 LIG 0.24  C 
ATOM      5 O    ASN E  31      11.642 151.532  73.037  1.00142.70 LIG-0.27  OA
BRANCH 4 6
ATOM      6  CA  ASN E  31      10.199 149.646  72.661  1.00143.53 LIG 0.18  C 
BRANCH 6 7
ATOM      7  CB  ASN E  31       9.113 150.218  71.746  1.00143.35 LIG 0.14  C 
BRANCH 7 8
ATOM      8  CG  ASN E  31       9.672 151.089  70.644  1.00142.31 LIG 0.22  C 
ATOM      9  ND2 ASN E  31       9.880 150.499  69.474  1.00140.74 LIG-0.37  N 
ATOM     10 21HD ASN E  31      10.156 150.961  68.802  1.00140.74 LIG 0.16  HD
ATOM     11 22HD ASN E  31       9.739 149.654  69.386  1.00140.74 LIG 0.16  HD
ATOM     12 OD1  ASN E  31       9.857 152.290  70.823  1.00141.61 LIG-0.27  OA
ENDBRANCH 7 8
ENDBRANCH 6 7
BRANCH 6 13
ATOM     13  N   ASN E  31       9.724 149.679  74.039  1.00144.28 LIG-0.34  N 
ATOM     14  C   ARG E  30       8.807 148.832  74.494  1.00145.24 LIG 0.26  C 
ATOM     15 O    ARG E  30       8.123 148.132  73.751  1.00145.16 LIG-0.27  OA
ATOM     16 H    ASN E  31      10.090 150.290  74.522  1.00144.28 LIG 0.16  HD
BRANCH 14 17
ATOM     17  CA  ARG E  30       8.594 148.815  76.011  1.00146.00 LIG 0.40  C 
ATOM     18  N   ARG E  30       7.229 149.275  76.396  1.00146.11 LIG 0.61  N 
BRANCH 17 19
ATOM     19  CB  ARG E  30       8.846 147.406  76.547  1.00146.54 LIG 0.05  C 
BRANCH 19 20
ATOM     20  CG  ARG E  30       7.841 146.376  76.047  1.00147.66 LIG 0.02  C 
BRANCH 20 21
ATOM     21  CD  ARG E  30       7.420 145.360  77.092  1.00149.13 LIG 0.14  C 
BRANCH 21 22
ATOM     22  NE  ARG E  30       7.939 145.682  78.420  1.00150.31 LIG-0.23  N 
ATOM     23 HE   ARG E  30       8.713 146.053  78.468  1.00150.31 LIG 0.18  HD
ATOM     24  CZ  ARG E  30       7.298 145.440  79.555  1.00151.12 LIG 0.67  C 
ATOM     25  NH1 ARG E  30       6.091 144.892  79.536  1.00151.59 LIG-0.23  N 
ATOM     26  NH2 ARG E  30       7.860 145.750  80.715  1.00151.52 LIG-0.23  N 
ATOM     27 1HH1 ARG E  30       5.721 144.691  78.786  1.00151.59 LIG 0.17  HD
ATOM     28 2HH1 ARG E  30       5.678 144.736  80.274  1.00151.59 LIG 0.17  HD
ATOM     29 1HH2 ARG E  30       8.642 146.109  80.731  1.00151.52 LIG 0.17  HD
ATOM     30 2HH2 ARG E  30       7.444 145.593  81.450  1.00151.52 LIG 0.17  HD
ENDBRANCH 21 22
ENDBRANCH 20 21
ENDBRANCH 19 20
ENDBRANCH 17 19
ENDBRANCH 14 17
ENDBRANCH 6 13
ENDBRANCH 4 6
ENDBRANCH 1 2
BRANCH 1 31
ATOM     31  CB  LEU E  32      14.627 149.634  70.649  1.00142.51 LIG 0.04  C 
BRANCH 31 32
ATOM     32  CG  LEU E  32      15.429 148.478  71.245  1.00140.78 LIG-0.02  C 
ATOM     33  CD1 LEU E  32      16.854 148.521  70.738  1.00139.49 LIG 0.01  C 
ATOM     34  CD2 LEU E  32      15.400 148.524  72.758  1.00139.97 LIG 0.01  C 
ENDBRANCH 31 32
ENDBRANCH 1 31
BRANCH 1 35
ATOM     35  C   LEU E  32      13.755 151.921  71.156  1.00143.34 LIG 0.24  C 
ATOM     36  N   PHE E  33      13.298 152.150  69.927  1.00143.72 LIG-0.35  N 
ATOM     37 H    PHE E  33      12.916 151.554  69.438  1.00143.72 LIG 0.16  HD
ATOM     38 O    LEU E  32      14.191 152.815  71.878  1.00143.58 LIG-0.27  OA
BRANCH 36 39
ATOM     39  CA  PHE E  33      13.410 153.463  69.295  1.00144.11 LIG 0.18  C 
BRANCH 39 40
ATOM     40  CB  PHE E  33      14.804 153.645  68.709  1.00143.74 LIG 0.07  C 
BRANCH 40 41
ATOM     41  CG  PHE E  33      15.242 152.503  67.857  1.00143.08 LIG-0.06  A 
ATOM     42  CD2 PHE E  33      16.249 151.655  68.277  1.00142.72 LIG 0.01  A 
ATOM     43  CE2 PHE E  33      16.645 150.593  67.494  1.00141.76 LIG 0.00  A 
ATOM     44  CZ  PHE E  33      16.025 150.359  66.290  1.00141.29 LIG 0.00  A 
ATOM     45  CE1 PHE E  33      15.011 151.188  65.866  1.00141.79 LIG 0.00  A 
ATOM     46  CD1 PHE E  33      14.622 152.252  66.648  1.00142.36 LIG 0.01  A 
ENDBRANCH 40 41
ENDBRANCH 39 40
BRANCH 39 47
ATOM     47  C   PHE E  33      12.378 153.697  68.203  1.00145.05 LIG 0.24  C 
ATOM     48 O    PHE E  33      11.870 152.745  67.612  1.00145.07 LIG-0.27  OA
ATOM     49  N   GLY E  34      12.042 154.958  67.954  1.00146.17 LIG-0.35  N 
ATOM     50 H    GLY E  34      12.330 155.631  68.406  1.00146.17 LIG 0.16  HD
BRANCH 49 51
ATOM     51  CA  GLY E  34      11.139 155.303  66.870  1.00147.07 LIG 0.23  C 
BRANCH 51 52
ATOM     52  C   GLY E  34      11.739 154.940  65.524  1.00147.85 LIG 0.24  C 
ATOM     53  N   PRO E  35      10.899 154.853  64.497  1.00148.70 LIG-0.34  N 
ATOM     54  CA  PRO E  35      11.368 154.502  63.153  1.00149.01 LIG 0.19  C 
ATOM     55  CD  PRO E  35       9.452 155.136  64.520  1.00148.94 LIG 0.13  C 
ATOM     56  CB  PRO E  35      10.112 154.680  62.284  1.00149.16 LIG 0.04  C 
ATOM     57  CG  PRO E  35       9.196 155.545  63.099  1.00149.11 LIG 0.02  C 
ATOM     58 O    GLY E  34      12.954 154.757  65.407  1.00147.94 LIG-0.27  OA
BRANCH 54 59
ATOM     59  C   PRO E  35      12.497 155.427  62.687  1.00149.03 LIG 0.20  C 
ATOM     60 OXT  PRO E  35      12.414 156.650  62.789  1.00149.10 LIG-0.65  OA
ATOM     61 O    PRO E  35      13.558 154.991  62.237  1.00148.99 LIG-0.65  OA
ENDBRANCH 54 59
ENDBRANCH 51 52
ENDBRANCH 49 51
ENDBRANCH 39 47
ENDBRANCH 36 39
ENDBRANCH 1 35
TORSDOF 20
ENDMDL
MODEL 16
USER: ADFR SOLUTION from run 136
USER: SCORE 16.129373 LL:  -4.142 LR: -14.128 RR:   0.000 FEB:  -8.162
USER: RMSD 3.411145
USER: SEED 135
USER: STATUS searching
USER: GENES 22
USER: genes 0 Translation |==|  0.49859 0.31467 0.52445
USER: genes 1 Rotation |==|  0.52573 0.57408 0.48759 0.99366
USER: genes 2 Torsion [CB]-CA--N-[C] |==|  0.41810
USER: genes 3 Torsion [N]-C--CA-[N] |==|  0.38711
USER: genes 4 Torsion [C]-CA--CB-[CG] |==|  0.20604
USER: genes 5 Torsion [CA]-CB--CG-[ND2] |==|  0.43097
USER: genes 6 Torsion [C]-CA--N-[C] |==|  0.72212
USER: genes 7 Torsion [N]-C--CA-[N] |==|  0.46537
USER: genes 8 Torsion [C]-CA--CB-[CG] |==|  0.83831
USER: genes 9 Torsion [CA]-CB--CG-[CD] |==|  0.42434
USER: genes 10 Torsion [CB]-CG--CD-[NE] |==|  0.26835
USER: genes 11 Torsion [CG]-CD--NE-[HE] |==|  0.87550
USER: genes 12 Torsion [N]-CA--CB-[CG] |==|  0.58320
USER: genes 13 Torsion [CA]-CB--CG-[CD2] |==|  0.08791
USER: genes 14 Torsion [N]-CA--C-[N] |==|  0.90539
USER: genes 15 Torsion [C]-N--CA-[C] |==|  0.62256
USER: genes 16 Torsion [N]-CA--CB-[CG] |==|  0.74588
USER: genes 17 Torsion [CA]-CB--CG-[CD2] |==|  0.82100
USER: genes 18 Torsion [N]-CA--C-[N] |==|  0.97778
USER: genes 19 Torsion [C]-N--CA-[C] |==|  0.22517
USER: genes 20 Torsion [N]-CA--C-[N] |==|  0.39298
USER: genes 21 Torsion [N]-CA--C-[OXT] |==|  0.88538
ROOT
ATOM      1  CA  LEU E  32      13.563 150.002  71.901  1.00142.86 LIG 0.18  C 
ENDROOT
BRANCH 1 2
ATOM      2  N   LEU E  32      12.105 150.085  71.812  1.00142.97 LIG-0.35  N 
ATOM      3 H    LEU E  32      11.764 149.629  71.167  1.00142.97 LIG 0.16  HD
ATOM      4  C   ASN E  31      11.387 150.809  72.667  1.00143.13 LIG 0.24  C 
ATOM      5 O    ASN E  31      11.897 151.521  73.528  1.00142.70 LIG-0.27  OA
BRANCH 4 6
ATOM      6  CA  ASN E  31       9.864 150.712  72.532  1.00143.53 LIG 0.18  C 
BRANCH 6 7
ATOM      7  CB  ASN E  31       9.319 151.911  71.753  1.00143.35 LIG 0.14  C 
BRANCH 7 8
ATOM      8  CG  ASN E  31       9.607 151.829  70.272  1.00142.31 LIG 0.22  C 
ATOM      9  ND2 ASN E  31       8.785 152.498  69.473  1.00140.74 LIG-0.37  N 
ATOM     10 21HD ASN E  31       8.931 152.518  68.625  1.00140.74 LIG 0.16  HD
ATOM     11 22HD ASN E  31       8.105 152.910  69.802  1.00140.74 LIG 0.16  HD
ATOM     12 OD1  ASN E  31      10.591 151.224  69.853  1.00141.61 LIG-0.27  OA
ENDBRANCH 7 8
ENDBRANCH 6 7
BRANCH 6 13
ATOM     13  N   ASN E  31       9.218 150.660  73.838  1.00144.28 LIG-0.34  N 
ATOM     14  C   ARG E  30       8.800 149.519  74.377  1.00145.24 LIG 0.26  C 
ATOM     15 O    ARG E  30       8.703 148.477  73.735  1.00145.16 LIG-0.27  OA
ATOM     16 H    ASN E  31       9.135 151.426  74.219  1.00144.28 LIG 0.16  HD
BRANCH 14 17
ATOM     17  CA  ARG E  30       8.376 149.582  75.849  1.00146.00 LIG 0.40  C 
ATOM     18  N   ARG E  30       7.651 148.354  76.282  1.00146.11 LIG 0.61  N 
BRANCH 17 19
ATOM     19  CB  ARG E  30       9.608 149.804  76.726  1.00146.54 LIG 0.05  C 
BRANCH 19 20
ATOM     20  CG  ARG E  30      10.671 148.724  76.568  1.00147.66 LIG 0.02  C 
BRANCH 20 21
ATOM     21  CD  ARG E  30      12.082 149.194  76.865  1.00149.13 LIG 0.14  C 
BRANCH 21 22
ATOM     22  NE  ARG E  30      12.496 148.880  78.231  1.00150.31 LIG-0.23  N 
ATOM     23 HE   ARG E  30      11.937 149.038  78.865  1.00150.31 LIG 0.18  HD
ATOM     24  CZ  ARG E  30      13.674 148.368  78.560  1.00151.12 LIG 0.67  C 
ATOM     25  NH1 ARG E  30      14.564 148.082  77.619  1.00151.59 LIG-0.23  N 
ATOM     26  NH2 ARG E  30      13.966 148.135  79.832  1.00151.52 LIG-0.23  N 
ATOM     27 1HH1 ARG E  30      14.378 148.229  76.792  1.00151.59 LIG 0.17  HD
ATOM     28 2HH1 ARG E  30      15.327 147.751  77.835  1.00151.59 LIG 0.17  HD
ATOM     29 1HH2 ARG E  30      13.391 148.316  80.445  1.00151.52 LIG 0.17  HD
ATOM     30 2HH2 ARG E  30      14.731 147.804  80.044  1.00151.52 LIG 0.17  HD
ENDBRANCH 21 22
ENDBRANCH 20 21
ENDBRANCH 19 20
ENDBRANCH 17 19
ENDBRANCH 14 17
ENDBRANCH 6 13
ENDBRANCH 4 6
ENDBRANCH 1 2
BRANCH 1 31
ATOM     31  CB  LEU E  32      14.049 148.654  71.365  1.00142.51 LIG 0.04  C 
BRANCH 31 32
ATOM     32  CG  LEU E  32      15.331 148.091  71.976  1.00140.78 LIG-0.02  C 
ATOM     33  CD1 LEU E  32      16.530 148.550  71.177  1.00139.49 LIG 0.01  C 
ATOM     34  CD2 LEU E  32      15.466 148.507  73.426  1.00139.97 LIG 0.01  C 
ENDBRANCH 31 32
ENDBRANCH 1 31
BRANCH 1 35
ATOM     35  C   LEU E  32      14.289 151.133  71.165  1.00143.34 LIG 0.24  C 
ATOM     36  N   PHE E  33      13.719 151.586  70.050  1.00143.72 LIG-0.35  N 
ATOM     37 H    PHE E  33      12.928 151.366  69.793  1.00143.72 LIG 0.16  HD
ATOM     38 O    LEU E  32      15.372 151.550  71.572  1.00143.58 LIG-0.27  OA
BRANCH 36 39
ATOM     39  CA  PHE E  33      14.407 152.513  69.154  1.00144.11 LIG 0.18  C 
BRANCH 39 40
ATOM     40  CB  PHE E  33      14.955 151.765  67.947  1.00143.74 LIG 0.07  C 
BRANCH 40 41
ATOM     41  CG  PHE E  33      16.352 151.281  68.132  1.00143.08 LIG-0.06  A 
ATOM     42  CD2 PHE E  33      17.393 152.176  68.290  1.00142.72 LIG 0.01  A 
ATOM     43  CE2 PHE E  33      18.683 151.728  68.473  1.00141.76 LIG 0.00  A 
ATOM     44  CZ  PHE E  33      18.942 150.379  68.519  1.00141.29 LIG 0.00  A 
ATOM     45  CE1 PHE E  33      17.911 149.477  68.378  1.00141.79 LIG 0.00  A 
ATOM     46  CD1 PHE E  33      16.625 149.927  68.188  1.00142.36 LIG 0.01  A 
ENDBRANCH 40 41
ENDBRANCH 39 40
BRANCH 39 47
ATOM     47  C   PHE E  33      13.523 153.654  68.673  1.00145.05 LIG 0.24  C 
ATOM     48 O    PHE E  33      13.999 154.573  68.010  1.00145.07 LIG-0.27  OA
ATOM     49  N   GLY E  34      12.231 153.581  68.976  1.00146.17 LIG-0.35  N 
ATOM     50 H    GLY E  34      11.868 152.911  69.374  1.00146.17 LIG 0.16  HD
BRANCH 49 51
ATOM     51  CA  GLY E  34      11.314 154.658  68.650  1.00147.07 LIG 0.23  C 
BRANCH 51 52
ATOM     52  C   GLY E  34      10.877 154.580  67.198  1.00147.85 LIG 0.24  C 
ATOM     53  N   PRO E  35       9.608 154.879  66.937  1.00148.70 LIG-0.34  N 
ATOM     54  CA  PRO E  35       9.077 154.830  65.571  1.00149.01 LIG 0.19  C 
ATOM     55  CD  PRO E  35       8.596 155.338  67.906  1.00148.94 LIG 0.13  C 
ATOM     56  CB  PRO E  35       7.655 155.396  65.726  1.00149.16 LIG 0.04  C 
ATOM     57  CG  PRO E  35       7.672 156.134  67.032  1.00149.11 LIG 0.02  C 
ATOM     58 O    GLY E  34      11.683 154.273  66.316  1.00147.94 LIG-0.27  OA
BRANCH 54 59
ATOM     59  C   PRO E  35       9.908 155.683  64.608  1.00149.03 LIG 0.20  C 
ATOM     60 OXT  PRO E  35      10.335 156.791  64.931  1.00149.10 LIG-0.65  OA
ATOM     61 O    PRO E  35      10.231 155.283  63.489  1.00148.99 LIG-0.65  OA
ENDBRANCH 54 59
ENDBRANCH 51 52
ENDBRANCH 49 51
ENDBRANCH 39 47
ENDBRANCH 36 39
ENDBRANCH 1 35
TORSDOF 20
ENDMDL
MODEL 17
USER: ADFR SOLUTION from run 40
USER: SCORE 16.366025 LL:  -4.344 LR: -14.080 RR:   0.000 FEB:  -8.114
USER: RMSD 4.003109
USER: SEED 39
USER: STATUS no improvement in best in 7 clusters for 5 generations
USER: GENES 22
USER: genes 0 Translation |==|  0.48668 0.34210 0.51626
USER: genes 1 Rotation |==|  0.49952 0.58439 0.54367 0.99089
USER: genes 2 Torsion [CB]-CA--N-[C] |==|  0.37676
USER: genes 3 Torsion [N]-C--CA-[N] |==|  0.42907
USER: genes 4 Torsion [C]-CA--CB-[CG] |==|  0.17087
USER: genes 5 Torsion [CA]-CB--CG-[ND2] |==|  0.58705
USER: genes 6 Torsion [C]-CA--N-[C] |==|  0.66993
USER: genes 7 Torsion [N]-C--CA-[N] |==|  0.28051
USER: genes 8 Torsion [C]-CA--CB-[CG] |==|  0.81784
USER: genes 9 Torsion [CA]-CB--CG-[CD] |==|  0.62800
USER: genes 10 Torsion [CB]-CG--CD-[NE] |==|  0.97591
USER: genes 11 Torsion [CG]-CD--NE-[HE] |==|  0.90789
USER: genes 12 Torsion [N]-CA--CB-[CG] |==|  0.70947
USER: genes 13 Torsion [CA]-CB--CG-[CD2] |==|  0.96810
USER: genes 14 Torsion [N]-CA--C-[N] |==|  0.71060
USER: genes 15 Torsion [C]-N--CA-[C] |==|  0.77221
USER: genes 16 Torsion [N]-CA--CB-[CG] |==|  0.86701
USER: genes 17 Torsion [CA]-CB--CG-[CD2] |==|  0.80819
USER: genes 18 Torsion [N]-CA--C-[N] |==|  0.01039
USER: genes 19 Torsion [C]-N--CA-[C] |==|  0.72591
USER: genes 20 Torsion [N]-CA--C-[N] |==|  0.58500
USER: genes 21 Torsion [N]-CA--C-[OXT] |==|  0.38615
ROOT
ATOM      1  CA  LEU E  32      13.321 150.558  71.723  1.00142.86 LIG 0.18  C 
ENDROOT
BRANCH 1 2
ATOM      2  N   LEU E  32      11.885 150.287  71.689  1.00142.97 LIG-0.35  N 
ATOM      3 H    LEU E  32      11.617 149.886  70.977  1.00142.97 LIG 0.16  HD
ATOM      4  C   ASN E  31      11.078 150.642  72.686  1.00143.13 LIG 0.24  C 
ATOM      5 O    ASN E  31      11.463 151.290  73.656  1.00142.70 LIG-0.27  OA
BRANCH 4 6
ATOM      6  CA  ASN E  31       9.617 150.192  72.575  1.00143.53 LIG 0.18  C 
BRANCH 6 7
ATOM      7  CB  ASN E  31       8.818 151.181  71.722  1.00143.35 LIG 0.14  C 
BRANCH 7 8
ATOM      8  CG  ASN E  31       9.333 151.284  70.305  1.00142.31 LIG 0.22  C 
ATOM      9  ND2 ASN E  31       9.193 152.463  69.711  1.00140.74 LIG-0.37  N 
ATOM     10 21HD ASN E  31       9.509 152.586  68.920  1.00140.74 LIG 0.16  HD
ATOM     11 22HD ASN E  31       8.787 153.104  70.116  1.00140.74 LIG 0.16  HD
ATOM     12 OD1  ASN E  31       9.903 150.337  69.771  1.00141.61 LIG-0.27  OA
ENDBRANCH 7 8
ENDBRANCH 6 7
BRANCH 6 13
ATOM     13  N   ASN E  31       8.993 150.084  73.888  1.00144.28 LIG-0.34  N 
ATOM     14  C   ARG E  30       8.511 148.936  74.351  1.00145.24 LIG 0.26  C 
ATOM     15 O    ARG E  30       8.333 147.953  73.636  1.00145.16 LIG-0.27  OA
ATOM     16 H    ASN E  31       8.968 150.823  74.327  1.00144.28 LIG 0.16  HD
BRANCH 14 17
ATOM     17  CA  ARG E  30       8.119 148.915  75.832  1.00146.00 LIG 0.40  C 
ATOM     18  N   ARG E  30       6.648 149.051  76.031  1.00146.11 LIG 0.61  N 
BRANCH 17 19
ATOM     19  CB  ARG E  30       8.620 147.621  76.475  1.00146.54 LIG 0.05  C 
BRANCH 19 20
ATOM     20  CG  ARG E  30       7.947 146.369  75.927  1.00147.66 LIG 0.02  C 
BRANCH 20 21
ATOM     21  CD  ARG E  30       7.493 145.390  76.994  1.00149.13 LIG 0.14  C 
BRANCH 21 22
ATOM     22  NE  ARG E  30       7.976 145.756  78.324  1.00150.31 LIG-0.23  N 
ATOM     23 HE   ARG E  30       8.744 146.138  78.380  1.00150.31 LIG 0.18  HD
ATOM     24  CZ  ARG E  30       7.311 145.537  79.450  1.00151.12 LIG 0.67  C 
ATOM     25  NH1 ARG E  30       6.112 144.972  79.418  1.00151.59 LIG-0.23  N 
ATOM     26  NH2 ARG E  30       7.842 145.887  80.614  1.00151.52 LIG-0.23  N 
ATOM     27 1HH1 ARG E  30       5.763 144.746  78.666  1.00151.59 LIG 0.17  HD
ATOM     28 2HH1 ARG E  30       5.683 144.831  80.150  1.00151.59 LIG 0.17  HD
ATOM     29 1HH2 ARG E  30       8.617 146.256  80.638  1.00151.52 LIG 0.17  HD
ATOM     30 2HH2 ARG E  30       7.410 145.744  81.343  1.00151.52 LIG 0.17  HD
ENDBRANCH 21 22
ENDBRANCH 20 21
ENDBRANCH 19 20
ENDBRANCH 17 19
ENDBRANCH 14 17
ENDBRANCH 6 13
ENDBRANCH 4 6
ENDBRANCH 1 2
BRANCH 1 31
ATOM     31  CB  LEU E  32      14.101 149.327  71.255  1.00142.51 LIG 0.04  C 
BRANCH 31 32
ATOM     32  CG  LEU E  32      14.801 148.503  72.335  1.00140.78 LIG-0.02  C 
ATOM     33  CD1 LEU E  32      16.212 148.173  71.900  1.00139.49 LIG 0.01  C 
ATOM     34  CD2 LEU E  32      14.809 149.241  73.657  1.00139.97 LIG 0.01  C 
ENDBRANCH 31 32
ENDBRANCH 1 31
BRANCH 1 35
ATOM     35  C   LEU E  32      13.739 151.772  70.886  1.00143.34 LIG 0.24  C 
ATOM     36  N   PHE E  33      14.330 151.521  69.720  1.00143.72 LIG-0.35  N 
ATOM     37 H    PHE E  33      14.381 150.738  69.367  1.00143.72 LIG 0.16  HD
ATOM     38 O    LEU E  32      13.577 152.912  71.315  1.00143.58 LIG-0.27  OA
BRANCH 36 39
ATOM     39  CA  PHE E  33      14.954 152.579  68.929  1.00144.11 LIG 0.18  C 
BRANCH 39 40
ATOM     40  CB  PHE E  33      16.026 151.992  68.020  1.00143.74 LIG 0.07  C 
BRANCH 40 41
ATOM     41  CG  PHE E  33      16.955 151.062  68.723  1.00143.08 LIG-0.06  A 
ATOM     42  CD2 PHE E  33      17.854 151.538  69.659  1.00142.72 LIG 0.01  A 
ATOM     43  CE2 PHE E  33      18.704 150.676  70.316  1.00141.76 LIG 0.00  A 
ATOM     44  CZ  PHE E  33      18.651 149.328  70.058  1.00141.29 LIG 0.00  A 
ATOM     45  CE1 PHE E  33      17.750 148.840  69.138  1.00141.79 LIG 0.00  A 
ATOM     46  CD1 PHE E  33      16.907 149.703  68.477  1.00142.36 LIG 0.01  A 
ENDBRANCH 40 41
ENDBRANCH 39 40
BRANCH 39 47
ATOM     47  C   PHE E  33      13.962 153.364  68.083  1.00145.05 LIG 0.24  C 
ATOM     48 O    PHE E  33      14.357 154.221  67.294  1.00145.07 LIG-0.27  OA
ATOM     49  N   GLY E  34      12.678 153.053  68.222  1.00146.17 LIG-0.35  N 
ATOM     50 H    GLY E  34      12.389 152.408  68.713  1.00146.17 LIG 0.16  HD
BRANCH 49 51
ATOM     51  CA  GLY E  34      11.638 153.800  67.536  1.00147.07 LIG 0.23  C 
BRANCH 51 52
ATOM     52  C   GLY E  34      11.006 154.826  68.459  1.00147.85 LIG 0.24  C 
ATOM     53  N   PRO E  35       9.728 155.121  68.243  1.00148.70 LIG-0.34  N 
ATOM     54  CA  PRO E  35       9.019 156.103  69.069  1.00149.01 LIG 0.19  C 
ATOM     55  CD  PRO E  35       8.843 154.504  67.237  1.00148.94 LIG 0.13  C 
ATOM     56  CB  PRO E  35       7.566 155.996  68.575  1.00149.16 LIG 0.04  C 
ATOM     57  CG  PRO E  35       7.493 154.674  67.870  1.00149.11 LIG 0.02  C 
ATOM     58 O    GLY E  34      11.661 155.336  69.373  1.00147.94 LIG-0.27  OA
BRANCH 54 59
ATOM     59  C   PRO E  35       9.119 155.768  70.560  1.00149.03 LIG 0.20  C 
ATOM     60 OXT  PRO E  35       9.302 156.640  71.408  1.00149.10 LIG-0.65  OA
ATOM     61 O    PRO E  35       8.970 154.621  70.986  1.00148.99 LIG-0.65  OA
ENDBRANCH 54 59
ENDBRANCH 51 52
ENDBRANCH 49 51
ENDBRANCH 39 47
ENDBRANCH 36 39
ENDBRANCH 1 35
TORSDOF 20
ENDMDL
MODEL 18
USER: ADFR SOLUTION from run 111
USER: SCORE 15.212191 LL:  -3.367 LR: -14.001 RR:   0.000 FEB:  -8.035
USER: RMSD 3.744044
USER: SEED 110
USER: STATUS no improvement in best in 11 clusters for 5 generations
USER: GENES 22
USER: genes 0 Translation |==|  0.52331 0.38109 0.50196
USER: genes 1 Rotation |==|  0.53281 0.51724 0.48704 0.99846
USER: genes 2 Torsion [CB]-CA--N-[C] |==|  0.28787
USER: genes 3 Torsion [N]-C--CA-[N] |==|  0.48313
USER: genes 4 Torsion [C]-CA--CB-[CG] |==|  0.26801
USER: genes 5 Torsion [CA]-CB--CG-[ND2] |==|  0.40108
USER: genes 6 Torsion [C]-CA--N-[C] |==|  0.79057
USER: genes 7 Torsion [N]-C--CA-[N] |==|  0.25590
USER: genes 8 Torsion [C]-CA--CB-[CG] |==|  0.60552
USER: genes 9 Torsion [CA]-CB--CG-[CD] |==|  0.48135
USER: genes 10 Torsion [CB]-CG--CD-[NE] |==|  0.24671
USER: genes 11 Torsion [CG]-CD--NE-[HE] |==|  0.79629
USER: genes 12 Torsion [N]-CA--CB-[CG] |==|  0.76568
USER: genes 13 Torsion [CA]-CB--CG-[CD2] |==|  0.85120
USER: genes 14 Torsion [N]-CA--C-[N] |==|  0.68826
USER: genes 15 Torsion [C]-N--CA-[C] |==|  0.71612
USER: genes 16 Torsion [N]-CA--CB-[CG] |==|  0.04803
USER: genes 17 Torsion [CA]-CB--CG-[CD2] |==|  0.69629
USER: genes 18 Torsion [N]-CA--C-[N] |==|  0.32701
USER: genes 19 Torsion [C]-N--CA-[C] |==|  0.74081
USER: genes 20 Torsion [N]-CA--C-[N] |==|  0.48349
USER: genes 21 Torsion [N]-CA--C-[OXT] |==|  0.27518
ROOT
ATOM      1  CA  LEU E  32      14.063 151.347  71.412  1.00142.86 LIG 0.18  C 
ENDROOT
BRANCH 1 2
ATOM      2  N   LEU E  32      12.665 151.460  70.997  1.00142.97 LIG-0.35  N 
ATOM      3 H    LEU E  32      12.557 151.630  70.161  1.00142.97 LIG 0.16  HD
ATOM      4  C   ASN E  31      11.661 151.310  71.857  1.00143.13 LIG 0.24  C 
ATOM      5 O    ASN E  31      11.836 151.153  73.063  1.00142.70 LIG-0.27  OA
BRANCH 4 6
ATOM      6  CA  ASN E  31      10.248 151.335  71.268  1.00143.53 LIG 0.18  C 
BRANCH 6 7
ATOM      7  CB  ASN E  31       9.942 152.713  70.673  1.00143.35 LIG 0.14  C 
BRANCH 7 8
ATOM      8  CG  ASN E  31      10.183 152.776  69.183  1.00142.31 LIG 0.22  C 
ATOM      9  ND2 ASN E  31       9.349 153.532  68.481  1.00140.74 LIG-0.37  N 
ATOM     10 21HD ASN E  31       9.470 153.636  67.636  1.00140.74 LIG 0.16  HD
ATOM     11 22HD ASN E  31       8.687 153.919  68.872  1.00140.74 LIG 0.16  HD
ATOM     12 OD1  ASN E  31      11.143 152.202  68.674  1.00141.61 LIG-0.27  OA
ENDBRANCH 7 8
ENDBRANCH 6 7
BRANCH 6 13
ATOM     13  N   ASN E  31       9.245 151.020  72.278  1.00144.28 LIG-0.34  N 
ATOM     14  C   ARG E  30       9.045 149.782  72.717  1.00145.24 LIG 0.26  C 
ATOM     15 O    ARG E  30       9.503 148.794  72.149  1.00145.16 LIG-0.27  OA
ATOM     16 H    ASN E  31       8.802 151.703  72.557  1.00144.28 LIG 0.16  HD
BRANCH 14 17
ATOM     17  CA  ARG E  30       8.147 149.638  73.950  1.00146.00 LIG 0.40  C 
ATOM     18  N   ARG E  30       6.717 149.423  73.587  1.00146.11 LIG 0.61  N 
BRANCH 17 19
ATOM     19  CB  ARG E  30       8.650 148.483  74.816  1.00146.54 LIG 0.05  C 
BRANCH 19 20
ATOM     20  CG  ARG E  30       7.532 147.664  75.448  1.00147.66 LIG 0.02  C 
BRANCH 20 21
ATOM     21  CD  ARG E  30       8.007 146.422  76.178  1.00149.13 LIG 0.14  C 
BRANCH 21 22
ATOM     22  NE  ARG E  30       8.328 146.690  77.578  1.00150.31 LIG-0.23  N 
ATOM     23 HE   ARG E  30       9.048 147.126  77.748  1.00150.31 LIG 0.18  HD
ATOM     24  CZ  ARG E  30       7.582 146.305  78.605  1.00151.12 LIG 0.67  C 
ATOM     25  NH1 ARG E  30       6.448 145.651  78.399  1.00151.59 LIG-0.23  N 
ATOM     26  NH2 ARG E  30       7.966 146.578  79.844  1.00151.52 LIG-0.23  N 
ATOM     27 1HH1 ARG E  30       6.193 145.474  77.597  1.00151.59 LIG 0.17  HD
ATOM     28 2HH1 ARG E  30       5.966 145.402  79.067  1.00151.59 LIG 0.17  HD
ATOM     29 1HH2 ARG E  30       8.699 147.005  79.983  1.00151.52 LIG 0.17  HD
ATOM     30 2HH2 ARG E  30       7.482 146.328  80.510  1.00151.52 LIG 0.17  HD
ENDBRANCH 21 22
ENDBRANCH 20 21
ENDBRANCH 19 20
ENDBRANCH 17 19
ENDBRANCH 14 17
ENDBRANCH 6 13
ENDBRANCH 4 6
ENDBRANCH 1 2
BRANCH 1 31
ATOM     31  CB  LEU E  32      14.638 149.999  70.969  1.00142.51 LIG 0.04  C 
BRANCH 31 32
ATOM     32  CG  LEU E  32      14.386 148.807  71.890  1.00140.78 LIG-0.02  C 
ATOM     33  CD1 LEU E  32      15.095 147.582  71.356  1.00139.49 LIG 0.01  C 
ATOM     34  CD2 LEU E  32      14.838 149.111  73.303  1.00139.97 LIG 0.01  C 
ENDBRANCH 31 32
ENDBRANCH 1 31
BRANCH 1 35
ATOM     35  C   LEU E  32      14.955 152.477  70.885  1.00143.34 LIG 0.24  C 
ATOM     36  N   PHE E  33      15.877 152.142  69.985  1.00143.72 LIG-0.35  N 
ATOM     37 H    PHE E  33      15.920 151.371  69.606  1.00143.72 LIG 0.16  HD
ATOM     38 O    LEU E  32      14.843 153.619  71.326  1.00143.58 LIG-0.27  OA
BRANCH 36 39
ATOM     39  CA  PHE E  33      16.915 153.079  69.560  1.00144.11 LIG 0.18  C 
BRANCH 39 40
ATOM     40  CB  PHE E  33      18.267 152.380  69.518  1.00143.74 LIG 0.07  C 
BRANCH 40 41
ATOM     41  CG  PHE E  33      18.165 150.893  69.505  1.00143.08 LIG-0.06  A 
ATOM     42  CD2 PHE E  33      18.539 150.152  70.610  1.00142.72 LIG 0.01  A 
ATOM     43  CE2 PHE E  33      18.434 148.778  70.602  1.00141.76 LIG 0.00  A 
ATOM     44  CZ  PHE E  33      17.937 148.134  69.494  1.00141.29 LIG 0.00  A 
ATOM     45  CE1 PHE E  33      17.548 148.862  68.392  1.00141.79 LIG 0.00  A 
ATOM     46  CD1 PHE E  33      17.660 150.234  68.401  1.00142.36 LIG 0.01  A 
ENDBRANCH 40 41
ENDBRANCH 39 40
BRANCH 39 47
ATOM     47  C   PHE E  33      16.639 153.709  68.202  1.00145.05 LIG 0.24  C 
ATOM     48 O    PHE E  33      16.540 153.004  67.199  1.00145.07 LIG-0.27  OA
ATOM     49  N   GLY E  34      16.483 155.027  68.173  1.00146.17 LIG-0.35  N 
ATOM     50 H    GLY E  34      16.474 155.527  68.873  1.00146.17 LIG 0.16  HD
BRANCH 49 51
ATOM     51  CA  GLY E  34      16.309 155.743  66.921  1.00147.07 LIG 0.23  C 
BRANCH 51 52
ATOM     52  C   GLY E  34      17.640 156.245  66.392  1.00147.85 LIG 0.24  C 
ATOM     53  N   PRO E  35      17.632 156.811  65.189  1.00148.70 LIG-0.34  N 
ATOM     54  CA  PRO E  35      18.862 157.325  64.577  1.00149.01 LIG 0.19  C 
ATOM     55  CD  PRO E  35      16.450 157.057  64.342  1.00148.94 LIG 0.13  C 
ATOM     56  CB  PRO E  35      18.357 158.018  63.300  1.00149.16 LIG 0.04  C 
ATOM     57  CG  PRO E  35      16.892 158.242  63.534  1.00149.11 LIG 0.02  C 
ATOM     58 O    GLY E  34      18.665 156.141  67.071  1.00147.94 LIG-0.27  OA
BRANCH 54 59
ATOM     59  C   PRO E  35      19.580 158.318  65.496  1.00149.03 LIG 0.20  C 
ATOM     60 OXT  PRO E  35      20.536 157.980  66.192  1.00149.10 LIG-0.65  OA
ATOM     61 O    PRO E  35      19.270 159.510  65.543  1.00148.99 LIG-0.65  OA
ENDBRANCH 54 59
ENDBRANCH 51 52
ENDBRANCH 49 51
ENDBRANCH 39 47
ENDBRANCH 36 39
ENDBRANCH 1 35
TORSDOF 20
ENDMDL
MODEL 19
USER: ADFR SOLUTION from run 136
USER: SCORE 16.272922 LL:  -4.173 LR: -13.966 RR:   0.000 FEB:  -8.000
USER: RMSD 3.315154
USER: SEED 135
USER: STATUS searching
USER: GENES 22
USER: genes 0 Translation |==|  0.49671 0.31192 0.52231
USER: genes 1 Rotation |==|  0.51777 0.57366 0.47825 0.99375
USER: genes 2 Torsion [CB]-CA--N-[C] |==|  0.41530
USER: genes 3 Torsion [N]-C--CA-[N] |==|  0.38224
USER: genes 4 Torsion [C]-CA--CB-[CG] |==|  0.20594
USER: genes 5 Torsion [CA]-CB--CG-[ND2] |==|  0.43056
USER: genes 6 Torsion [C]-CA--N-[C] |==|  0.72935
USER: genes 7 Torsion [N]-C--CA-[N] |==|  0.46043
USER: genes 8 Torsion [C]-CA--CB-[CG] |==|  0.83794
USER: genes 9 Torsion [CA]-CB--CG-[CD] |==|  0.42430
USER: genes 10 Torsion [CB]-CG--CD-[NE] |==|  0.26994
USER: genes 11 Torsion [CG]-CD--NE-[HE] |==|  0.88066
USER: genes 12 Torsion [N]-CA--CB-[CG] |==|  0.57689
USER: genes 13 Torsion [CA]-CB--CG-[CD2] |==|  0.08556
USER: genes 14 Torsion [N]-CA--C-[N] |==|  0.90652
USER: genes 15 Torsion [C]-N--CA-[C] |==|  0.60934
USER: genes 16 Torsion [N]-CA--CB-[CG] |==|  0.71724
USER: genes 17 Torsion [CA]-CB--CG-[CD2] |==|  0.82046
USER: genes 18 Torsion [N]-CA--C-[N] |==|  0.33073
USER: genes 19 Torsion [C]-N--CA-[C] |==|  0.81937
USER: genes 20 Torsion [N]-CA--C-[N] |==|  0.85556
USER: genes 21 Torsion [N]-CA--C-[OXT] |==|  0.90189
ROOT
ATOM      1  CA  LEU E  32      13.524 149.946  71.854  1.00142.86 LIG 0.18  C 
ENDROOT
BRANCH 1 2
ATOM      2  N   LEU E  32      12.071 150.073  71.763  1.00142.97 LIG-0.35  N 
ATOM      3 H    LEU E  32      11.715 149.615  71.127  1.00142.97 LIG 0.16  HD
ATOM      4  C   ASN E  31      11.375 150.835  72.603  1.00143.13 LIG 0.24  C 
ATOM      5 O    ASN E  31      11.907 151.548  73.451  1.00142.70 LIG-0.27  OA
BRANCH 4 6
ATOM      6  CA  ASN E  31       9.850 150.783  72.470  1.00143.53 LIG 0.18  C 
BRANCH 6 7
ATOM      7  CB  ASN E  31       9.339 152.006  71.705  1.00143.35 LIG 0.14  C 
BRANCH 7 8
ATOM      8  CG  ASN E  31       9.624 151.932  70.222  1.00142.31 LIG 0.22  C 
ATOM      9  ND2 ASN E  31       8.818 152.630  69.431  1.00140.74 LIG-0.37  N 
ATOM     10 21HD ASN E  31       8.964 152.656  68.584  1.00140.74 LIG 0.16  HD
ATOM     11 22HD ASN E  31       8.149 153.056  69.766  1.00140.74 LIG 0.16  HD
ATOM     12 OD1  ASN E  31      10.591 151.307  69.796  1.00141.61 LIG-0.27  OA
ENDBRANCH 7 8
ENDBRANCH 6 7
BRANCH 6 13
ATOM     13  N   ASN E  31       9.204 150.735  73.776  1.00144.28 LIG-0.34  N 
ATOM     14  C   ARG E  30       8.800 149.595  74.326  1.00145.24 LIG 0.26  C 
ATOM     15 O    ARG E  30       8.716 148.546  73.693  1.00145.16 LIG-0.27  OA
ATOM     16 H    ASN E  31       9.112 151.504  74.150  1.00144.28 LIG 0.16  HD
BRANCH 14 17
ATOM     17  CA  ARG E  30       8.375 149.666  75.796  1.00146.00 LIG 0.40  C 
ATOM     18  N   ARG E  30       7.628 148.451  76.229  1.00146.11 LIG 0.61  N 
BRANCH 17 19
ATOM     19  CB  ARG E  30       9.609 149.867  76.676  1.00146.54 LIG 0.05  C 
BRANCH 19 20
ATOM     20  CG  ARG E  30      10.651 148.767  76.523  1.00147.66 LIG 0.02  C 
BRANCH 20 21
ATOM     21  CD  ARG E  30      12.071 149.210  76.821  1.00149.13 LIG 0.14  C 
BRANCH 21 22
ATOM     22  NE  ARG E  30      12.480 148.880  78.184  1.00150.31 LIG-0.23  N 
ATOM     23 HE   ARG E  30      11.916 149.021  78.817  1.00150.31 LIG 0.18  HD
ATOM     24  CZ  ARG E  30      13.664 148.379  78.512  1.00151.12 LIG 0.67  C 
ATOM     25  NH1 ARG E  30      14.562 148.120  77.572  1.00151.59 LIG-0.23  N 
ATOM     26  NH2 ARG E  30      13.951 148.130  79.782  1.00151.52 LIG-0.23  N 
ATOM     27 1HH1 ARG E  30      14.379 148.277  76.747  1.00151.59 LIG 0.17  HD
ATOM     28 2HH1 ARG E  30      15.329 147.795  77.788  1.00151.59 LIG 0.17  HD
ATOM     29 1HH2 ARG E  30      13.370 148.293  80.394  1.00151.52 LIG 0.17  HD
ATOM     30 2HH2 ARG E  30      14.719 147.806  79.993  1.00151.52 LIG 0.17  HD
ENDBRANCH 21 22
ENDBRANCH 20 21
ENDBRANCH 19 20
ENDBRANCH 17 19
ENDBRANCH 14 17
ENDBRANCH 6 13
ENDBRANCH 4 6
ENDBRANCH 1 2
BRANCH 1 31
ATOM     31  CB  LEU E  32      13.966 148.564  71.369  1.00142.51 LIG 0.04  C 
BRANCH 31 32
ATOM     32  CG  LEU E  32      15.260 148.006  71.961  1.00140.78 LIG-0.02  C 
ATOM     33  CD1 LEU E  32      16.434 148.385  71.085  1.00139.49 LIG 0.01  C 
ATOM     34  CD2 LEU E  32      15.466 148.506  73.375  1.00139.97 LIG 0.01  C 
ENDBRANCH 31 32
ENDBRANCH 1 31
BRANCH 1 35
ATOM     35  C   LEU E  32      14.286 151.025  71.077  1.00143.34 LIG 0.24  C 
ATOM     36  N   PHE E  33      13.725 151.461  69.950  1.00143.72 LIG-0.35  N 
ATOM     37 H    PHE E  33      12.925 151.261  69.705  1.00143.72 LIG 0.16  HD
ATOM     38 O    LEU E  32      15.385 151.416  71.463  1.00143.58 LIG-0.27  OA
BRANCH 36 39
ATOM     39  CA  PHE E  33      14.439 152.332  69.020  1.00144.11 LIG 0.18  C 
BRANCH 39 40
ATOM     40  CB  PHE E  33      15.052 151.507  67.896  1.00143.74 LIG 0.07  C 
BRANCH 40 41
ATOM     41  CG  PHE E  33      16.514 151.270  68.064  1.00143.08 LIG-0.06  A 
ATOM     42  CD2 PHE E  33      17.408 152.323  68.032  1.00142.72 LIG 0.01  A 
ATOM     43  CE2 PHE E  33      18.758 152.105  68.199  1.00141.76 LIG 0.00  A 
ATOM     44  CZ  PHE E  33      19.225 150.831  68.418  1.00141.29 LIG 0.00  A 
ATOM     45  CE1 PHE E  33      18.343 149.775  68.467  1.00141.79 LIG 0.00  A 
ATOM     46  CD1 PHE E  33      16.996 149.995  68.293  1.00142.36 LIG 0.01  A 
ENDBRANCH 40 41
ENDBRANCH 39 40
BRANCH 39 47
ATOM     47  C   PHE E  33      13.561 153.419  68.417  1.00145.05 LIG 0.24  C 
ATOM     48 O    PHE E  33      12.563 153.120  67.763  1.00145.07 LIG-0.27  OA
ATOM     49  N   GLY E  34      13.911 154.677  68.661  1.00146.17 LIG-0.35  N 
ATOM     50 H    GLY E  34      14.561 154.904  69.176  1.00146.17 LIG 0.16  HD
BRANCH 49 51
ATOM     51  CA  GLY E  34      13.201 155.791  68.058  1.00147.07 LIG 0.23  C 
BRANCH 51 52
ATOM     52  C   GLY E  34      13.375 155.797  66.550  1.00147.85 LIG 0.24  C 
ATOM     53  N   PRO E  35      14.621 155.733  66.090  1.00148.70 LIG-0.34  N 
ATOM     54  CA  PRO E  35      14.906 155.738  64.651  1.00149.01 LIG 0.19  C 
ATOM     55  CD  PRO E  35      15.849 155.594  66.895  1.00148.94 LIG 0.13  C 
ATOM     56  CB  PRO E  35      16.423 155.489  64.592  1.00149.16 LIG 0.04  C 
ATOM     57  CG  PRO E  35      16.773 154.910  65.932  1.00149.11 LIG 0.02  C 
ATOM     58 O    GLY E  34      12.393 155.838  65.805  1.00147.94 LIG-0.27  OA
BRANCH 54 59
ATOM     59  C   PRO E  35      14.138 154.635  63.917  1.00149.03 LIG 0.20  C 
ATOM     60 OXT  PRO E  35      13.925 153.540  64.436  1.00149.10 LIG-0.65  OA
ATOM     61 O    PRO E  35      13.654 154.808  62.797  1.00148.99 LIG-0.65  OA
ENDBRANCH 54 59
ENDBRANCH 51 52
ENDBRANCH 49 51
ENDBRANCH 39 47
ENDBRANCH 36 39
ENDBRANCH 1 35
TORSDOF 20
ENDMDL
MODEL 20
USER: ADFR SOLUTION from run 101
USER: SCORE 16.360659 LL:  -4.512 LR: -13.886 RR:   0.000 FEB:  -7.920
USER: RMSD 3.356468
USER: SEED 100
USER: STATUS searching
USER: GENES 22
USER: genes 0 Translation |==|  0.48657 0.32655 0.52254
USER: genes 1 Rotation |==|  0.50153 0.58580 0.53674 0.99121
USER: genes 2 Torsion [CB]-CA--N-[C] |==|  0.44679
USER: genes 3 Torsion [N]-C--CA-[N] |==|  0.36412
USER: genes 4 Torsion [C]-CA--CB-[CG] |==|  0.15331
USER: genes 5 Torsion [CA]-CB--CG-[ND2] |==|  0.52400
USER: genes 6 Torsion [C]-CA--N-[C] |==|  0.67910
USER: genes 7 Torsion [N]-C--CA-[N] |==|  0.38095
USER: genes 8 Torsion [C]-CA--CB-[CG] |==|  0.12601
USER: genes 9 Torsion [CA]-CB--CG-[CD] |==|  0.40613
USER: genes 10 Torsion [CB]-CG--CD-[NE] |==|  0.39624
USER: genes 11 Torsion [CG]-CD--NE-[HE] |==|  0.09431
USER: genes 12 Torsion [N]-CA--CB-[CG] |==|  0.65980
USER: genes 13 Torsion [CA]-CB--CG-[CD2] |==|  0.01326
USER: genes 14 Torsion [N]-CA--C-[N] |==|  0.71829
USER: genes 15 Torsion [C]-N--CA-[C] |==|  0.77269
USER: genes 16 Torsion [N]-CA--CB-[CG] |==|  0.83896
USER: genes 17 Torsion [CA]-CB--CG-[CD2] |==|  0.83916
USER: genes 18 Torsion [N]-CA--C-[N] |==|  0.98759
USER: genes 19 Torsion [C]-N--CA-[C] |==|  0.73341
USER: genes 20 Torsion [N]-CA--C-[N] |==|  0.56411
USER: genes 21 Torsion [N]-CA--C-[OXT] |==|  0.80258
ROOT
ATOM      1  CA  LEU E  32      13.319 150.243  71.859  1.00142.86 LIG 0.18  C 
ENDROOT
BRANCH 1 2
ATOM      2  N   LEU E  32      11.875 150.014  71.834  1.00142.97 LIG-0.35  N 
ATOM      3 H    LEU E  32      11.630 149.357  71.336  1.00142.97 LIG 0.16  HD
ATOM      4  C   ASN E  31      11.029 150.770  72.530  1.00143.13 LIG 0.24  C 
ATOM      5 O    ASN E  31      11.389 151.756  73.168  1.00142.70 LIG-0.27  OA
BRANCH 4 6
ATOM      6  CA  ASN E  31       9.557 150.347  72.506  1.00143.53 LIG 0.18  C 
BRANCH 6 7
ATOM      7  CB  ASN E  31       8.736 151.317  71.653  1.00143.35 LIG 0.14  C 
BRANCH 7 8
ATOM      8  CG  ASN E  31       9.277 151.468  70.250  1.00142.31 LIG 0.22  C 
ATOM      9  ND2 ASN E  31       8.730 152.421  69.506  1.00140.74 LIG-0.37  N 
ATOM     10 21HD ASN E  31       9.032 152.576  68.716  1.00140.74 LIG 0.16  HD
ATOM     11 22HD ASN E  31       8.073 152.883  69.814  1.00140.74 LIG 0.16  HD
ATOM     12 OD1  ASN E  31      10.216 150.779  69.859  1.00141.61 LIG-0.27  OA
ENDBRANCH 7 8
ENDBRANCH 6 7
BRANCH 6 13
ATOM     13  N   ASN E  31       8.996 150.303  73.851  1.00144.28 LIG-0.34  N 
ATOM     14  C   ARG E  30       8.574 149.172  74.407  1.00145.24 LIG 0.26  C 
ATOM     15 O    ARG E  30       8.399 148.141  73.764  1.00145.16 LIG-0.27  OA
ATOM     16 H    ASN E  31       8.964 151.068  74.243  1.00144.28 LIG 0.16  HD
BRANCH 14 17
ATOM     17  CA  ARG E  30       8.249 149.234  75.903  1.00146.00 LIG 0.40  C 
ATOM     18  N   ARG E  30       6.990 148.510  76.239  1.00146.11 LIG 0.61  N 
BRANCH 17 19
ATOM     19  CB  ARG E  30       9.417 148.660  76.704  1.00146.54 LIG 0.05  C 
BRANCH 19 20
ATOM     20  CG  ARG E  30      10.779 149.162  76.241  1.00147.66 LIG 0.02  C 
BRANCH 20 21
ATOM     21  CD  ARG E  30      11.795 149.319  77.355  1.00149.13 LIG 0.14  C 
BRANCH 21 22
ATOM     22  NE  ARG E  30      13.143 148.941  76.935  1.00150.31 LIG-0.23  N 
ATOM     23 HE   ARG E  30      13.368 149.100  76.120  1.00150.31 LIG 0.18  HD
ATOM     24  CZ  ARG E  30      14.043 148.370  77.724  1.00151.12 LIG 0.67  C 
ATOM     25  NH1 ARG E  30      13.757 148.126  78.995  1.00151.59 LIG-0.23  N 
ATOM     26  NH2 ARG E  30      15.236 148.046  77.245  1.00151.52 LIG-0.23  N 
ATOM     27 1HH1 ARG E  30      12.986 148.337  79.311  1.00151.59 LIG 0.17  HD
ATOM     28 2HH1 ARG E  30      14.343 147.755  79.504  1.00151.59 LIG 0.17  HD
ATOM     29 1HH2 ARG E  30      15.426 148.205  76.422  1.00151.52 LIG 0.17  HD
ATOM     30 2HH2 ARG E  30      15.818 147.675  77.757  1.00151.52 LIG 0.17  HD
ENDBRANCH 21 22
ENDBRANCH 20 21
ENDBRANCH 19 20
ENDBRANCH 17 19
ENDBRANCH 14 17
ENDBRANCH 6 13
ENDBRANCH 4 6
ENDBRANCH 1 2
BRANCH 1 31
ATOM     31  CB  LEU E  32      14.061 148.991  71.384  1.00142.51 LIG 0.04  C 
BRANCH 31 32
ATOM     32  CG  LEU E  32      15.076 148.383  72.349  1.00140.78 LIG-0.02  C 
ATOM     33  CD1 LEU E  32      16.460 148.424  71.738  1.00139.49 LIG 0.01  C 
ATOM     34  CD2 LEU E  32      15.059 149.108  73.678  1.00139.97 LIG 0.01  C 
ENDBRANCH 31 32
ENDBRANCH 1 31
BRANCH 1 35
ATOM     35  C   LEU E  32      13.767 151.447  71.024  1.00143.34 LIG 0.24  C 
ATOM     36  N   PHE E  33      14.291 151.184  69.828  1.00143.72 LIG-0.35  N 
ATOM     37 H    PHE E  33      14.283 150.406  69.461  1.00143.72 LIG 0.16  HD
ATOM     38 O    LEU E  32      13.687 152.587  71.476  1.00143.58 LIG-0.27  OA
BRANCH 36 39
ATOM     39  CA  PHE E  33      14.938 152.221  69.026  1.00144.11 LIG 0.18  C 
BRANCH 39 40
ATOM     40  CB  PHE E  33      15.932 151.591  68.059  1.00143.74 LIG 0.07  C 
BRANCH 40 41
ATOM     41  CG  PHE E  33      16.986 150.784  68.735  1.00143.08 LIG-0.06  A 
ATOM     42  CD2 PHE E  33      17.813 151.356  69.683  1.00142.72 LIG 0.01  A 
ATOM     43  CE2 PHE E  33      18.781 150.607  70.315  1.00141.76 LIG 0.00  A 
ATOM     44  CZ  PHE E  33      18.918 149.272  70.019  1.00141.29 LIG 0.00  A 
ATOM     45  CE1 PHE E  33      18.091 148.686  69.087  1.00141.79 LIG 0.00  A 
ATOM     46  CD1 PHE E  33      17.130 149.439  68.451  1.00142.36 LIG 0.01  A 
ENDBRANCH 40 41
ENDBRANCH 39 40
BRANCH 39 47
ATOM     47  C   PHE E  33      13.954 153.076  68.241  1.00145.05 LIG 0.24  C 
ATOM     48 O    PHE E  33      14.354 154.022  67.564  1.00145.07 LIG-0.27  OA
ATOM     49  N   GLY E  34      12.674 152.728  68.304  1.00146.17 LIG-0.35  N 
ATOM     50 H    GLY E  34      12.385 152.027  68.710  1.00146.17 LIG 0.16  HD
BRANCH 49 51
ATOM     51  CA  GLY E  34      11.639 153.527  67.671  1.00147.07 LIG 0.23  C 
BRANCH 51 52
ATOM     52  C   GLY E  34      11.003 154.480  68.667  1.00147.85 LIG 0.24  C 
ATOM     53  N   PRO E  35       9.778 154.913  68.384  1.00148.70 LIG-0.34  N 
ATOM     54  CA  PRO E  35       9.071 155.842  69.271  1.00149.01 LIG 0.19  C 
ATOM     55  CD  PRO E  35       8.949 154.512  67.232  1.00148.94 LIG 0.13  C 
ATOM     56  CB  PRO E  35       7.669 155.930  68.644  1.00149.16 LIG 0.04  C 
ATOM     57  CG  PRO E  35       7.561 154.720  67.764  1.00149.11 LIG 0.02  C 
ATOM     58 O    GLY E  34      11.603 154.809  69.693  1.00147.94 LIG-0.27  OA
BRANCH 54 59
ATOM     59  C   PRO E  35       9.000 155.312  70.706  1.00149.03 LIG 0.20  C 
ATOM     60 OXT  PRO E  35       8.285 154.359  71.009  1.00149.10 LIG-0.65  OA
ATOM     61 O    PRO E  35       9.692 155.780  71.613  1.00148.99 LIG-0.65  OA
ENDBRANCH 54 59
ENDBRANCH 51 52
ENDBRANCH 49 51
ENDBRANCH 39 47
ENDBRANCH 36 39
ENDBRANCH 1 35
TORSDOF 20
ENDMDL
