MODEL 1
USER: ADFR SOLUTION from run 116
USER: SCORE 11.155113 LL:  -1.253 LR:  -9.908 RR:   0.000 FEB:  -7.820
USER: RMSD 1.253219
USER: SEED 115
USER: STATUS no improvement in best in 2 clusters for 5 generations
USER: GENES 9
USER: genes 0 Translation |==|  0.56255 0.47381 0.43791
USER: genes 1 Rotation |==|  0.57463 0.50894 0.54673 0.99210
USER: genes 2 Torsion [N]-CA--C-[N] |==|  0.38685
USER: genes 3 Torsion [C]-N--CA-[CB] |==|  0.34886
USER: genes 4 Torsion [N]-CA--C-[O] |==|  0.86400
USER: genes 5 Torsion [C]-CA--CB-[CG1] |==|  0.91815
USER: genes 6 Torsion [C]-CA--N-[C] |==|  0.81298
USER: genes 7 Torsion [N]-C--CA-[N] |==|  0.22631
USER: genes 8 Torsion [C]-CA--N-[H2] |==|  0.70299
ROOT
ATOM      1  CA  VAL C   2      59.092  30.153 100.764  1.00 18.98 LIG 0.18  C 
ENDROOT
BRANCH 1 2
ATOM      2  C   VAL C   2      58.951  29.039 101.797  1.00 19.28 LIG 0.24  C 
ATOM      3  N   ALA C   3      57.777  28.433 101.926  1.00 19.49 LIG-0.35  N 
ATOM      4 H    ALA C   3      57.086  28.660 101.466  1.00 19.49 LIG 0.16  HD
ATOM      5 O    VAL C   2      59.925  28.728 102.469  1.00 19.03 LIG-0.27  OA
BRANCH 3 6
ATOM      6  CA  ALA C   3      57.514  27.332 102.843  1.00 19.91 LIG 0.16  C 
ATOM      7  CB  ALA C   3      56.338  27.637 103.748  1.00 20.02 LIG 0.04  C 
BRANCH 6 8
ATOM      8  C   ALA C   3      57.174  26.033 102.125  1.00 20.51 LIG 0.22  C 
ATOM      9 O    ALA C   3      56.326  26.019 101.227  1.00 21.40 LIG-0.29  OA
ENDBRANCH 6 8
ENDBRANCH 3 6
ENDBRANCH 1 2
BRANCH 1 10
ATOM     10  CB  VAL C   2      59.693  29.530  99.503  1.00 18.88 LIG 0.01  C 
ATOM     11  CG2 VAL C   2      58.552  29.099  98.607  1.00 18.45 LIG 0.01  C 
ATOM     12  CG1 VAL C   2      60.575  28.355  99.823  1.00 18.43 LIG 0.01  C 
ENDBRANCH 1 10
BRANCH 1 13
ATOM     13  N   VAL C   2      59.864  31.329 101.144  1.00 19.26 LIG-0.35  N 
ATOM     14  C   ALA C   1      59.516  32.208 102.065  1.00 19.51 LIG 0.25  C 
ATOM     15 O    ALA C   1      58.433  32.208 102.657  1.00 19.32 LIG-0.27  OA
ATOM     16 H    VAL C   2      60.595  31.403 100.697  1.00 19.26 LIG 0.16  HD
BRANCH 14 17
ATOM     17  CA  ALA C   1      60.465  33.393 102.285  1.00 19.89 LIG 0.27  C 
ATOM     18  CB  ALA C   1      60.190  33.980 103.670  1.00 20.07 LIG 0.05  C 
BRANCH 17 19
ATOM     19  N   ALA C   1      60.150  34.355 101.241  1.00 19.80 LIG-0.07  N 
ATOM     20 H2   ALA C   1      60.800  34.357 100.633  1.00 19.80 LIG 0.28  HD
ATOM     21 H3   ALA C   1      59.382  34.131 100.852  1.00 19.80 LIG 0.28  HD
ATOM     22 H1   ALA C   1      60.076  35.167 101.597  1.00 19.80 LIG 0.28  HD
ENDBRANCH 17 19
ENDBRANCH 14 17
ENDBRANCH 1 13
TORSDOF 7
ENDMDL
MODEL 2
USER: ADFR SOLUTION from run 61
USER: SCORE 9.644965 LL:  -1.435 LR:  -8.222 RR:   0.000 FEB:  -6.134
USER: RMSD 2.716852
USER: SEED 60
USER: STATUS no improvement in best in 2 clusters for 5 generations
USER: GENES 9
USER: genes 0 Translation |==|  0.55432 0.47123 0.51248
USER: genes 1 Rotation |==|  0.46389 0.54076 0.53287 0.99594
USER: genes 2 Torsion [N]-CA--C-[N] |==|  0.91670
USER: genes 3 Torsion [C]-N--CA-[CB] |==|  0.14729
USER: genes 4 Torsion [N]-CA--C-[O] |==|  0.02433
USER: genes 5 Torsion [C]-CA--CB-[CG1] |==|  0.15665
USER: genes 6 Torsion [C]-CA--N-[C] |==|  0.82115
USER: genes 7 Torsion [N]-C--CA-[N] |==|  0.36470
USER: genes 8 Torsion [C]-CA--N-[H2] |==|  0.93558
ROOT
ATOM      1  CA  VAL C   2      58.975  30.109 101.771  1.00 18.98 LIG 0.18  C 
ENDROOT
BRANCH 1 2
ATOM      2  C   VAL C   2      58.925  29.567 103.196  1.00 19.28 LIG 0.24  C 
ATOM      3  N   ALA C   3      59.982  29.740 103.982  1.00 19.49 LIG-0.35  N 
ATOM      4 H    ALA C   3      60.702  30.125 103.711  1.00 19.49 LIG 0.16  HD
ATOM      5 O    VAL C   2      57.912  28.999 103.578  1.00 19.03 LIG-0.27  OA
BRANCH 3 6
ATOM      6  CA  ALA C   3      60.054  29.309 105.371  1.00 19.91 LIG 0.16  C 
ATOM      7  CB  ALA C   3      59.701  27.842 105.512  1.00 20.02 LIG 0.04  C 
BRANCH 6 8
ATOM      8  C   ALA C   3      61.445  29.471 105.970  1.00 20.51 LIG 0.22  C 
ATOM      9 O    ALA C   3      62.326  30.074 105.348  1.00 21.40 LIG-0.29  OA
ENDBRANCH 6 8
ENDBRANCH 3 6
ENDBRANCH 1 2
BRANCH 1 10
ATOM     10  CB  VAL C   2      59.447  28.969 100.868  1.00 18.88 LIG 0.01  C 
ATOM     11  CG2 VAL C   2      59.451  29.474  99.441  1.00 18.45 LIG 0.01  C 
ATOM     12  CG1 VAL C   2      58.565  27.756 100.987  1.00 18.43 LIG 0.01  C 
ENDBRANCH 1 10
BRANCH 1 13
ATOM     13  N   VAL C   2      59.788  31.293 101.529  1.00 19.26 LIG-0.35  N 
ATOM     14  C   ALA C   1      59.567  32.490 102.039  1.00 19.51 LIG 0.25  C 
ATOM     15 O    ALA C   1      58.576  32.793 102.708  1.00 19.32 LIG-0.27  OA
ATOM     16 H    VAL C   2      60.451  31.137 101.004  1.00 19.26 LIG 0.16  HD
BRANCH 14 17
ATOM     17  CA  ALA C   1      60.535  33.607 101.626  1.00 19.89 LIG 0.27  C 
ATOM     18  CB  ALA C   1      61.397  33.970 102.836  1.00 20.07 LIG 0.05  C 
BRANCH 17 19
ATOM     19  N   ALA C   1      59.701  34.730 101.227  1.00 19.80 LIG-0.07  N 
ATOM     20 H2   ALA C   1      58.896  34.433 100.990  1.00 19.80 LIG 0.28  HD
ATOM     21 H3   ALA C   1      59.619  35.296 101.909  1.00 19.80 LIG 0.28  HD
ATOM     22 H1   ALA C   1      60.077  35.149 100.538  1.00 19.80 LIG 0.28  HD
ENDBRANCH 17 19
ENDBRANCH 14 17
ENDBRANCH 1 13
TORSDOF 7
ENDMDL
