MODEL 1
USER: ADFR SOLUTION from run 40
USER: SCORE 15.872726 LL:  -4.400 LR: -12.744 RR:   0.000 FEB:  -7.077
USER: RMSD 4.497317
USER: SEED 39
USER: STATUS no improvement in best in 10 clusters for 5 generations
USER: GENES 21
USER: genes 0 Translation |==|  0.54122 0.42928 0.42978
USER: genes 1 Rotation |==|  0.51462 0.53384 0.72576 0.94461
USER: genes 2 Torsion [N]-CA--C-[N] |==|  0.43120
USER: genes 3 Torsion [C]-N--CA-[C] |==|  0.52974
USER: genes 4 Torsion [N]-CA--C-[N] |==|  0.53889
USER: genes 5 Torsion [C]-N--CA-[CB] |==|  0.39549
USER: genes 6 Torsion [N]-CA--CB-[CG1] |==|  0.91221
USER: genes 7 Torsion [CA]-CB--CG1-[CD1] |==|  0.25800
USER: genes 8 Torsion [N]-CA--C-[OXT] |==|  0.42420
USER: genes 9 Torsion [N]-CA--CB-[CG] |==|  0.69403
USER: genes 10 Torsion [CA]-CB--CG-[CD2] |==|  0.95682
USER: genes 11 Torsion [C]-CA--CB-[CG] |==|  0.81656
USER: genes 12 Torsion [CA]-CB--CG-[CD1] |==|  0.30057
USER: genes 13 Torsion [C]-CA--N-[C] |==|  0.82710
USER: genes 14 Torsion [N]-C--CA-[N] |==|  0.21412
USER: genes 15 Torsion [C]-CA--CB-[CG] |==|  0.31198
USER: genes 16 Torsion [CA]-CB--CG-[CD2] |==|  0.40293
USER: genes 17 Torsion [C]-CA--N-[C] |==|  0.56869
USER: genes 18 Torsion [N]-C--CA-[N] |==|  0.64680
USER: genes 19 Torsion [C]-CA--CB-[CG] |==|  0.76137
USER: genes 20 Torsion [CA]-CB--CG-[OD1] |==|  0.30480
ROOT
ATOM      1  CA  LEU D  11      19.586   5.703  61.311  1.00 47.89 LIG 0.18  C 
ENDROOT
BRANCH 1 2
ATOM      2  C   LEU D  11      18.774   4.471  60.933  1.00 48.14 LIG 0.24  C 
ATOM      3 O    LEU D  11      18.767   3.478  61.649  1.00 47.13 LIG-0.27  OA
ATOM      4  N   HIS D  12      18.122   4.529  59.778  1.00 49.28 LIG-0.35  N 
ATOM      5 H    HIS D  12      18.105   5.218  59.264  1.00 49.28 LIG 0.16  HD
BRANCH 4 6
ATOM      6  CA  HIS D  12      17.362   3.382  59.293  1.00 50.49 LIG 0.18  C 
BRANCH 6 7
ATOM      7  C   HIS D  12      16.915   3.569  57.844  1.00 51.38 LIG 0.24  C 
ATOM      8  N   ILE D  13      15.990   2.715  57.440  1.00 53.16 LIG-0.34  N 
ATOM      9 H    ILE D  13      15.700   2.092  57.957  1.00 53.16 LIG 0.16  HD
ATOM     10 O    HIS D  12      17.387   4.453  57.144  1.00 51.57 LIG-0.27  OA
BRANCH 8 11
ATOM     11  CA  ILE D  13      15.338   2.683  56.120  1.00 55.12 LIG 0.19  C 
BRANCH 11 12
ATOM     12  CB  ILE D  13      15.067   1.232  55.582  1.00 55.01 LIG 0.01  C 
ATOM     13  CG2 ILE D  13      14.957   1.176  54.047  1.00 56.15 LIG 0.01  C 
BRANCH 12 14
ATOM     14  CG1 ILE D  13      16.152   0.274  56.084  1.00 55.50 LIG 0.00  C 
ATOM     15  CD1 ILE D  13      15.796  -0.459  57.405  1.00 55.45 LIG 0.01  C 
ENDBRANCH 12 14
ENDBRANCH 11 12
BRANCH 11 16
ATOM     16  C   ILE D  13      14.174   3.640  55.848  1.00 55.63 LIG 0.20  C 
ATOM     17 O    ILE D  13      13.442   4.032  56.760  1.00 56.94 LIG-0.65  OA
ATOM     18 OXT  ILE D  13      13.974   3.988  54.676  1.00 55.86 LIG-0.65  OA
ENDBRANCH 11 16
ENDBRANCH 8 11
ENDBRANCH 6 7
BRANCH 6 19
ATOM     19  CB  HIS D  12      16.152   3.100  60.185  1.00 50.55 LIG 0.10  C 
BRANCH 19 20
ATOM     20  CG  HIS D  12      16.273   1.843  60.987  1.00 49.61 LIG 0.06  A 
ATOM     21  CD2 HIS D  12      17.112   0.786  60.871  1.00 48.49 LIG 0.14  A 
ATOM     22 NE2  HIS D  12      16.794  -0.095  61.874  1.00 48.62 LIG-0.25  NA
ATOM     23  CE1 HIS D  12      15.812   0.412  62.597  1.00 49.12 LIG 0.23  A 
ATOM     24 ND1  HIS D  12      15.476   1.580  62.080  1.00 49.92 LIG-0.24  NA
ENDBRANCH 19 20
ENDBRANCH 6 19
ENDBRANCH 4 6
ENDBRANCH 1 2
BRANCH 1 25
ATOM     25  CB  LEU D  11      20.935   5.605  60.607  1.00 47.69 LIG 0.04  C 
BRANCH 25 26
ATOM     26  CG  LEU D  11      21.907   4.487  61.003  1.00 48.05 LIG-0.02  C 
ATOM     27  CD1 LEU D  11      21.983   3.445  59.896  1.00 46.53 LIG 0.01  C 
ATOM     28  CD2 LEU D  11      23.282   5.004  61.352  1.00 50.43 LIG 0.01  C 
ENDBRANCH 25 26
ENDBRANCH 1 25
BRANCH 1 29
ATOM     29  N   LEU D  11      19.795   5.842  62.745  1.00 47.51 LIG-0.35  N 
ATOM     30  C   LEU D  10      18.793   6.001  63.610  1.00 47.80 LIG 0.24  C 
ATOM     31 O    LEU D  10      17.595   5.968  63.291  1.00 47.07 LIG-0.27  OA
ATOM     32 H    LEU D  11      20.621   5.812  62.980  1.00 47.51 LIG 0.16  HD
BRANCH 30 33
ATOM     33  CA  LEU D  10      19.206   6.239  65.057  1.00 47.63 LIG 0.18  C 
BRANCH 33 34
ATOM     34  CB  LEU D  10      18.076   5.886  66.019  1.00 47.29 LIG 0.04  C 
BRANCH 34 35
ATOM     35  CG  LEU D  10      18.367   4.663  66.896  1.00 46.92 LIG-0.02  C 
ATOM     36  CD1 LEU D  10      19.865   4.395  67.026  1.00 46.83 LIG 0.01  C 
ATOM     37  CD2 LEU D  10      17.773   4.818  68.257  1.00 45.50 LIG 0.01  C 
ENDBRANCH 34 35
ENDBRANCH 33 34
BRANCH 33 38
ATOM     38  N   LEU D  10      19.651   7.612  65.225  1.00 47.82 LIG-0.35  N 
ATOM     39 H    LEU D  10      19.331   8.170  64.654  1.00 47.82 LIG 0.16  HD
ATOM     40  C   ASP D   9      20.490   7.934  66.202  1.00 48.63 LIG 0.26  C 
ATOM     41 O    ASP D   9      20.945   7.117  66.998  1.00 48.10 LIG-0.27  OA
BRANCH 40 42
ATOM     42  CA  ASP D   9      20.878   9.387  66.286  1.00 49.27 LIG 0.41  C 
ATOM     43  N   ASP D   9      22.362   9.456  66.302  1.00 49.86 LIG 0.61  N 
BRANCH 42 44
ATOM     44  CB  ASP D   9      20.320  10.116  65.072  1.00 50.02 LIG 0.16  C 
BRANCH 44 45
ATOM     45  CG  ASP D   9      21.230  10.039  63.882  1.00 50.84 LIG 0.17  C 
ATOM     46 OD1  ASP D   9      20.878   9.344  62.913  1.00 53.44 LIG-0.65  OA
ATOM     47 OD2  ASP D   9      22.313  10.663  63.810  1.00 53.75 LIG-0.65  OA
ENDBRANCH 44 45
ENDBRANCH 42 44
ENDBRANCH 40 42
ENDBRANCH 33 38
ENDBRANCH 30 33
ENDBRANCH 1 29
TORSDOF 19
ENDMDL
MODEL 2
USER: ADFR SOLUTION from run 10
USER: SCORE 16.217709 LL:  -4.259 LR: -12.743 RR:   0.000 FEB:  -7.075
USER: RMSD 4.498896
USER: SEED 733827
USER: STATUS no improvement in best in 9 clusters for 5 generations
USER: GENES 21
USER: genes 0 Translation |==|  0.59306 0.38392 0.42760
USER: genes 1 Rotation |==|  0.50161 0.45719 0.71041 0.95155
USER: genes 2 Torsion [N]-CA--C-[N] |==|  0.16521
USER: genes 3 Torsion [C]-N--CA-[C] |==|  0.74444
USER: genes 4 Torsion [N]-CA--C-[N] |==|  0.51537
USER: genes 5 Torsion [C]-N--CA-[CB] |==|  0.46327
USER: genes 6 Torsion [N]-CA--CB-[CG1] |==|  0.91734
USER: genes 7 Torsion [CA]-CB--CG1-[CD1] |==|  0.42550
USER: genes 8 Torsion [N]-CA--C-[OXT] |==|  0.95972
USER: genes 9 Torsion [N]-CA--CB-[CG] |==|  0.83828
USER: genes 10 Torsion [CA]-CB--CG-[CD2] |==|  0.61379
USER: genes 11 Torsion [C]-CA--CB-[CG] |==|  0.43154
USER: genes 12 Torsion [CA]-CB--CG-[CD1] |==|  0.72466
USER: genes 13 Torsion [C]-CA--N-[C] |==|  0.73968
USER: genes 14 Torsion [N]-C--CA-[N] |==|  0.41160
USER: genes 15 Torsion [C]-CA--CB-[CG] |==|  0.45214
USER: genes 16 Torsion [CA]-CB--CG-[CD2] |==|  0.26013
USER: genes 17 Torsion [C]-CA--N-[C] |==|  0.64732
USER: genes 18 Torsion [N]-C--CA-[N] |==|  0.31386
USER: genes 19 Torsion [C]-CA--CB-[CG] |==|  0.72583
USER: genes 20 Torsion [CA]-CB--CG-[OD1] |==|  0.81977
ROOT
ATOM      1  CA  LEU D  11      20.597   4.853  61.262  1.00 47.89 LIG 0.18  C 
ENDROOT
BRANCH 1 2
ATOM      2  C   LEU D  11      19.862   3.725  60.548  1.00 48.14 LIG 0.24  C 
ATOM      3 O    LEU D  11      20.470   2.908  59.870  1.00 47.13 LIG-0.27  OA
ATOM      4  N   HIS D  12      18.540   3.714  60.675  1.00 49.28 LIG-0.35  N 
ATOM      5 H    HIS D  12      18.093   4.271  61.153  1.00 49.28 LIG 0.16  HD
BRANCH 4 6
ATOM      6  CA  HIS D  12      17.735   2.713  59.983  1.00 50.49 LIG 0.18  C 
BRANCH 6 7
ATOM      7  C   HIS D  12      17.266   3.208  58.617  1.00 51.38 LIG 0.24  C 
ATOM      8  N   ILE D  13      16.436   2.389  57.991  1.00 53.16 LIG-0.34  N 
ATOM      9 H    ILE D  13      16.215   1.631  58.330  1.00 53.16 LIG 0.16  HD
ATOM     10 O    HIS D  12      17.638   4.282  58.169  1.00 51.57 LIG-0.27  OA
BRANCH 8 11
ATOM     11  CA  ILE D  13      15.787   2.620  56.689  1.00 55.12 LIG 0.19  C 
BRANCH 11 12
ATOM     12  CB  ILE D  13      15.127   1.334  56.073  1.00 55.01 LIG 0.01  C 
ATOM     13  CG2 ILE D  13      15.033   1.389  54.537  1.00 56.15 LIG 0.01  C 
BRANCH 12 14
ATOM     14  CG1 ILE D  13      15.890   0.084  56.526  1.00 55.50 LIG 0.00  C 
ATOM     15  CD1 ILE D  13      15.032  -1.210  56.561  1.00 55.45 LIG 0.01  C 
ENDBRANCH 12 14
ENDBRANCH 11 12
BRANCH 11 16
ATOM     16  C   ILE D  13      14.924   3.872  56.506  1.00 55.63 LIG 0.20  C 
ATOM     17 O    ILE D  13      14.600   4.266  55.383  1.00 56.94 LIG-0.65  OA
ATOM     18 OXT  ILE D  13      14.582   4.491  57.523  1.00 55.86 LIG-0.65  OA
ENDBRANCH 11 16
ENDBRANCH 8 11
ENDBRANCH 6 7
BRANCH 6 19
ATOM     19  CB  HIS D  12      16.533   2.286  60.829  1.00 50.55 LIG 0.10  C 
BRANCH 19 20
ATOM     20  CG  HIS D  12      16.905   1.725  62.165  1.00 49.61 LIG 0.06  A 
ATOM     21  CD2 HIS D  12      16.414   0.671  62.859  1.00 48.49 LIG 0.14  A 
ATOM     22 NE2  HIS D  12      17.122   0.595  64.032  1.00 48.62 LIG-0.25  NA
ATOM     23  CE1 HIS D  12      18.032   1.551  64.049  1.00 49.12 LIG 0.23  A 
ATOM     24 ND1  HIS D  12      17.920   2.250  62.935  1.00 49.92 LIG-0.24  NA
ENDBRANCH 19 20
ENDBRANCH 6 19
ENDBRANCH 4 6
ENDBRANCH 1 2
BRANCH 1 25
ATOM     25  CB  LEU D  11      22.085   4.695  60.973  1.00 47.69 LIG 0.04  C 
BRANCH 25 26
ATOM     26  CG  LEU D  11      22.998   5.925  61.050  1.00 48.05 LIG-0.02  C 
ATOM     27  CD1 LEU D  11      23.250   6.478  59.655  1.00 46.53 LIG 0.01  C 
ATOM     28  CD2 LEU D  11      22.458   6.997  61.966  1.00 50.43 LIG 0.01  C 
ENDBRANCH 25 26
ENDBRANCH 1 25
BRANCH 1 29
ATOM     29  N   LEU D  11      20.380   4.864  62.701  1.00 47.51 LIG-0.35  N 
ATOM     30  C   LEU D  10      19.428   5.595  63.284  1.00 47.80 LIG 0.24  C 
ATOM     31 O    LEU D  10      18.595   6.266  62.659  1.00 47.07 LIG-0.27  OA
ATOM     32 H    LEU D  11      20.922   4.359  63.139  1.00 47.51 LIG 0.16  HD
BRANCH 30 33
ATOM     33  CA  LEU D  10      19.421   5.568  64.807  1.00 47.63 LIG 0.18  C 
BRANCH 33 34
ATOM     34  CB  LEU D  10      18.596   4.397  65.334  1.00 47.29 LIG 0.04  C 
BRANCH 34 35
ATOM     35  CG  LEU D  10      18.872   4.054  66.802  1.00 46.92 LIG-0.02  C 
ATOM     36  CD1 LEU D  10      20.301   4.404  67.212  1.00 46.83 LIG 0.01  C 
ATOM     37  CD2 LEU D  10      17.912   4.747  67.711  1.00 45.50 LIG 0.01  C 
ENDBRANCH 34 35
ENDBRANCH 33 34
BRANCH 33 38
ATOM     38  N   LEU D  10      18.946   6.841  65.323  1.00 47.82 LIG-0.35  N 
ATOM     39 H    LEU D  10      18.190   7.101  65.007  1.00 47.82 LIG 0.16  HD
ATOM     40  C   ASP D   9      19.660   7.516  66.215  1.00 48.63 LIG 0.26  C 
ATOM     41 O    ASP D   9      20.746   7.131  66.641  1.00 48.10 LIG-0.27  OA
BRANCH 40 42
ATOM     42  CA  ASP D   9      19.069   8.819  66.684  1.00 49.27 LIG 0.41  C 
ATOM     43  N   ASP D   9      18.716   8.661  68.119  1.00 49.86 LIG 0.61  N 
BRANCH 42 44
ATOM     44  CB  ASP D   9      20.102   9.922  66.504  1.00 50.02 LIG 0.16  C 
BRANCH 44 45
ATOM     45  CG  ASP D   9      20.835  10.242  67.774  1.00 50.84 LIG 0.17  C 
ATOM     46 OD1  ASP D   9      20.191  10.724  68.722  1.00 53.44 LIG-0.65  OA
ATOM     47 OD2  ASP D   9      22.057  10.022  67.929  1.00 53.75 LIG-0.65  OA
ENDBRANCH 44 45
ENDBRANCH 42 44
ENDBRANCH 40 42
ENDBRANCH 33 38
ENDBRANCH 30 33
ENDBRANCH 1 29
TORSDOF 19
ENDMDL
MODEL 3
USER: ADFR SOLUTION from run 28
USER: SCORE 15.546630 LL:  -3.937 LR: -12.729 RR:   0.000 FEB:  -7.062
USER: RMSD 3.622176
USER: SEED 27
USER: STATUS no improvement in best in 7 clusters for 5 generations
USER: GENES 21
USER: genes 0 Translation |==|  0.53921 0.39283 0.44234
USER: genes 1 Rotation |==|  0.48087 0.52896 0.63839 0.97921
USER: genes 2 Torsion [N]-CA--C-[N] |==|  0.37281
USER: genes 3 Torsion [C]-N--CA-[C] |==|  0.67400
USER: genes 4 Torsion [N]-CA--C-[N] |==|  0.59739
USER: genes 5 Torsion [C]-N--CA-[CB] |==|  0.17117
USER: genes 6 Torsion [N]-CA--CB-[CG1] |==|  0.41923
USER: genes 7 Torsion [CA]-CB--CG1-[CD1] |==|  0.57149
USER: genes 8 Torsion [N]-CA--C-[OXT] |==|  0.32228
USER: genes 9 Torsion [N]-CA--CB-[CG] |==|  0.67512
USER: genes 10 Torsion [CA]-CB--CG-[CD2] |==|  0.99348
USER: genes 11 Torsion [C]-CA--CB-[CG] |==|  0.43122
USER: genes 12 Torsion [CA]-CB--CG-[CD1] |==|  0.00047
USER: genes 13 Torsion [C]-CA--N-[C] |==|  0.82222
USER: genes 14 Torsion [N]-C--CA-[N] |==|  0.28908
USER: genes 15 Torsion [C]-CA--CB-[CG] |==|  0.30811
USER: genes 16 Torsion [CA]-CB--CG-[CD2] |==|  0.40068
USER: genes 17 Torsion [C]-CA--N-[C] |==|  0.57909
USER: genes 18 Torsion [N]-C--CA-[N] |==|  0.26729
USER: genes 19 Torsion [C]-CA--CB-[CG] |==|  0.63165
USER: genes 20 Torsion [CA]-CB--CG-[OD1] |==|  0.85854
ROOT
ATOM      1  CA  LEU D  11      19.547   5.020  61.594  1.00 47.89 LIG 0.18  C 
ENDROOT
BRANCH 1 2
ATOM      2  C   LEU D  11      18.364   4.110  61.289  1.00 48.14 LIG 0.24  C 
ATOM      3 O    LEU D  11      18.189   3.073  61.914  1.00 47.13 LIG-0.27  OA
ATOM      4  N   HIS D  12      17.573   4.490  60.292  1.00 49.28 LIG-0.35  N 
ATOM      5 H    HIS D  12      17.670   5.218  59.845  1.00 49.28 LIG 0.16  HD
BRANCH 4 6
ATOM      6  CA  HIS D  12      16.445   3.661  59.878  1.00 50.49 LIG 0.18  C 
BRANCH 6 7
ATOM      7  C   HIS D  12      16.598   3.174  58.439  1.00 51.38 LIG 0.24  C 
ATOM      8  N   ILE D  13      15.463   3.085  57.765  1.00 53.16 LIG-0.34  N 
ATOM      9 H    ILE D  13      14.708   3.262  58.136  1.00 53.16 LIG 0.16  HD
ATOM     10 O    HIS D  12      17.696   2.904  57.973  1.00 51.57 LIG-0.27  OA
BRANCH 8 11
ATOM     11  CA  ILE D  13      15.305   2.692  56.355  1.00 55.12 LIG 0.19  C 
BRANCH 11 12
ATOM     12  CB  ILE D  13      15.802   1.234  56.044  1.00 55.01 LIG 0.01  C 
ATOM     13  CG2 ILE D  13      15.733   0.306  57.271  1.00 56.15 LIG 0.01  C 
BRANCH 12 14
ATOM     14  CG1 ILE D  13      15.007   0.646  54.874  1.00 55.50 LIG 0.00  C 
ATOM     15  CD1 ILE D  13      14.932  -0.905  54.867  1.00 55.45 LIG 0.01  C 
ENDBRANCH 12 14
ENDBRANCH 11 12
BRANCH 11 16
ATOM     16  C   ILE D  13      13.999   3.036  55.634  1.00 55.63 LIG 0.20  C 
ATOM     17 O    ILE D  13      12.928   2.529  55.975  1.00 56.94 LIG-0.65  OA
ATOM     18 OXT  ILE D  13      14.057   3.823  54.678  1.00 55.86 LIG-0.65  OA
ENDBRANCH 11 16
ENDBRANCH 8 11
ENDBRANCH 6 7
BRANCH 6 19
ATOM     19  CB  HIS D  12      15.119   4.406  60.044  1.00 50.55 LIG 0.10  C 
BRANCH 19 20
ATOM     20  CG  HIS D  12      14.191   3.772  61.031  1.00 49.61 LIG 0.06  A 
ATOM     21  CD2 HIS D  12      14.304   2.641  61.765  1.00 48.49 LIG 0.14  A 
ATOM     22 NE2  HIS D  12      13.160   2.529  62.515  1.00 48.62 LIG-0.25  NA
ATOM     23  CE1 HIS D  12      12.382   3.567  62.270  1.00 49.12 LIG 0.23  A 
ATOM     24 ND1  HIS D  12      12.978   4.331  61.373  1.00 49.92 LIG-0.24  NA
ENDBRANCH 19 20
ENDBRANCH 6 19
ENDBRANCH 4 6
ENDBRANCH 1 2
BRANCH 1 25
ATOM     25  CB  LEU D  11      20.802   4.349  61.047  1.00 47.69 LIG 0.04  C 
BRANCH 25 26
ATOM     26  CG  LEU D  11      22.015   5.214  60.683  1.00 48.05 LIG-0.02  C 
ATOM     27  CD1 LEU D  11      21.715   6.680  60.960  1.00 46.53 LIG 0.01  C 
ATOM     28  CD2 LEU D  11      23.276   4.779  61.391  1.00 50.43 LIG 0.01  C 
ENDBRANCH 25 26
ENDBRANCH 1 25
BRANCH 1 29
ATOM     29  N   LEU D  11      19.719   5.289  63.013  1.00 47.51 LIG-0.35  N 
ATOM     30  C   LEU D  10      18.815   5.949  63.740  1.00 47.80 LIG 0.24  C 
ATOM     31 O    LEU D  10      17.719   6.324  63.300  1.00 47.07 LIG-0.27  OA
ATOM     32 H    LEU D  11      20.455   4.985  63.338  1.00 47.51 LIG 0.16  HD
BRANCH 30 33
ATOM     33  CA  LEU D  10      19.214   6.235  65.182  1.00 47.63 LIG 0.18  C 
BRANCH 33 34
ATOM     34  CB  LEU D  10      18.101   5.843  66.149  1.00 47.29 LIG 0.04  C 
BRANCH 34 35
ATOM     35  CG  LEU D  10      18.437   4.632  67.026  1.00 46.92 LIG-0.02  C 
ATOM     36  CD1 LEU D  10      19.944   4.404  67.133  1.00 46.83 LIG 0.01  C 
ATOM     37  CD2 LEU D  10      17.861   4.777  68.395  1.00 45.50 LIG 0.01  C 
ENDBRANCH 34 35
ENDBRANCH 33 34
BRANCH 33 38
ATOM     38  N   LEU D  10      19.591   7.631  65.325  1.00 47.82 LIG-0.35  N 
ATOM     39 H    LEU D  10      19.205   8.168  64.775  1.00 47.82 LIG 0.16  HD
ATOM     40  C   ASP D   9      20.467   8.002  66.250  1.00 48.63 LIG 0.26  C 
ATOM     41 O    ASP D   9      21.016   7.212  67.015  1.00 48.10 LIG-0.27  OA
BRANCH 40 42
ATOM     42  CA  ASP D   9      20.777   9.474  66.312  1.00 49.27 LIG 0.41  C 
ATOM     43  N   ASP D   9      19.918  10.070  67.368  1.00 49.86 LIG 0.61  N 
BRANCH 42 44
ATOM     44  CB  ASP D   9      22.250   9.653  66.654  1.00 50.02 LIG 0.16  C 
BRANCH 44 45
ATOM     45  CG  ASP D   9      22.473  10.658  67.746  1.00 50.84 LIG 0.17  C 
ATOM     46 OD1  ASP D   9      21.941  11.776  67.637  1.00 53.44 LIG-0.65  OA
ATOM     47 OD2  ASP D   9      23.147  10.412  68.771  1.00 53.75 LIG-0.65  OA
ENDBRANCH 44 45
ENDBRANCH 42 44
ENDBRANCH 40 42
ENDBRANCH 33 38
ENDBRANCH 30 33
ENDBRANCH 1 29
TORSDOF 19
ENDMDL
MODEL 4
USER: ADFR SOLUTION from run 10
USER: SCORE 15.849928 LL:  -4.561 LR: -12.460 RR:   0.000 FEB:  -6.793
USER: RMSD 4.455439
USER: SEED 733827
USER: STATUS no improvement in best in 9 clusters for 5 generations
USER: GENES 21
USER: genes 0 Translation |==|  0.59771 0.38732 0.43359
USER: genes 1 Rotation |==|  0.51036 0.44816 0.70242 0.95413
USER: genes 2 Torsion [N]-CA--C-[N] |==|  0.16199
USER: genes 3 Torsion [C]-N--CA-[C] |==|  0.74958
USER: genes 4 Torsion [N]-CA--C-[N] |==|  0.77222
USER: genes 5 Torsion [C]-N--CA-[CB] |==|  0.78523
USER: genes 6 Torsion [N]-CA--CB-[CG1] |==|  0.23668
USER: genes 7 Torsion [CA]-CB--CG1-[CD1] |==|  0.44132
USER: genes 8 Torsion [N]-CA--C-[OXT] |==|  0.99675
USER: genes 9 Torsion [N]-CA--CB-[CG] |==|  0.82995
USER: genes 10 Torsion [CA]-CB--CG-[CD2] |==|  0.61367
USER: genes 11 Torsion [C]-CA--CB-[CG] |==|  0.39707
USER: genes 12 Torsion [CA]-CB--CG-[CD1] |==|  0.73178
USER: genes 13 Torsion [C]-CA--N-[C] |==|  0.75414
USER: genes 14 Torsion [N]-C--CA-[N] |==|  0.40988
USER: genes 15 Torsion [C]-CA--CB-[CG] |==|  0.46497
USER: genes 16 Torsion [CA]-CB--CG-[CD2] |==|  0.24555
USER: genes 17 Torsion [C]-CA--N-[C] |==|  0.65213
USER: genes 18 Torsion [N]-C--CA-[N] |==|  0.33359
USER: genes 19 Torsion [C]-CA--CB-[CG] |==|  0.73271
USER: genes 20 Torsion [CA]-CB--CG-[OD1] |==|  0.81745
ROOT
ATOM      1  CA  LEU D  11      20.687   4.916  61.397  1.00 47.89 LIG 0.18  C 
ENDROOT
BRANCH 1 2
ATOM      2  C   LEU D  11      19.932   3.849  60.616  1.00 48.14 LIG 0.24  C 
ATOM      3 O    LEU D  11      20.526   3.060  59.892  1.00 47.13 LIG-0.27  OA
ATOM      4  N   HIS D  12      18.610   3.856  60.739  1.00 49.28 LIG-0.35  N 
ATOM      5 H    HIS D  12      18.172   4.394  61.249  1.00 49.28 LIG 0.16  HD
BRANCH 4 6
ATOM      6  CA  HIS D  12      17.786   2.915  59.988  1.00 50.49 LIG 0.18  C 
BRANCH 6 7
ATOM      7  C   HIS D  12      17.369   3.483  58.633  1.00 51.38 LIG 0.24  C 
ATOM      8  N   ILE D  13      16.322   4.290  58.674  1.00 53.16 LIG-0.34  N 
ATOM      9 H    ILE D  13      15.906   4.446  59.411  1.00 53.16 LIG 0.16  HD
ATOM     10 O    HIS D  12      17.979   3.201  57.612  1.00 51.57 LIG-0.27  OA
BRANCH 8 11
ATOM     11  CA  ILE D  13      15.727   5.017  57.541  1.00 55.12 LIG 0.19  C 
BRANCH 11 12
ATOM     12  CB  ILE D  13      16.537   6.294  57.111  1.00 55.01 LIG 0.01  C 
ATOM     13  CG2 ILE D  13      17.103   7.073  58.313  1.00 56.15 LIG 0.01  C 
BRANCH 12 14
ATOM     14  CG1 ILE D  13      17.656   5.904  56.141  1.00 55.50 LIG 0.00  C 
ATOM     15  CD1 ILE D  13      18.178   7.074  55.264  1.00 55.45 LIG 0.01  C 
ENDBRANCH 12 14
ENDBRANCH 11 12
BRANCH 11 16
ATOM     16  C   ILE D  13      15.206   4.218  56.343  1.00 55.63 LIG 0.20  C 
ATOM     17 O    ILE D  13      14.657   4.779  55.391  1.00 56.94 LIG-0.65  OA
ATOM     18 OXT  ILE D  13      15.330   2.986  56.373  1.00 55.86 LIG-0.65  OA
ENDBRANCH 11 16
ENDBRANCH 8 11
ENDBRANCH 6 7
BRANCH 6 19
ATOM     19  CB  HIS D  12      16.550   2.499  60.788  1.00 50.55 LIG 0.10  C 
BRANCH 19 20
ATOM     20  CG  HIS D  12      16.869   1.806  62.074  1.00 49.61 LIG 0.06  A 
ATOM     21  CD2 HIS D  12      16.302   0.733  62.676  1.00 48.49 LIG 0.14  A 
ATOM     22 NE2  HIS D  12      16.990   0.514  63.843  1.00 48.62 LIG-0.25  NA
ATOM     23  CE1 HIS D  12      17.960   1.404  63.944  1.00 49.12 LIG 0.23  A 
ATOM     24 ND1  HIS D  12      17.906   2.199  62.892  1.00 49.92 LIG-0.24  NA
ENDBRANCH 19 20
ENDBRANCH 6 19
ENDBRANCH 4 6
ENDBRANCH 1 2
BRANCH 1 25
ATOM     25  CB  LEU D  11      22.175   4.727  61.124  1.00 47.69 LIG 0.04  C 
BRANCH 25 26
ATOM     26  CG  LEU D  11      23.076   5.962  60.995  1.00 48.05 LIG-0.02  C 
ATOM     27  CD1 LEU D  11      23.261   6.323  59.528  1.00 46.53 LIG 0.01  C 
ATOM     28  CD2 LEU D  11      22.563   7.144  61.781  1.00 50.43 LIG 0.01  C 
ENDBRANCH 25 26
ENDBRANCH 1 25
BRANCH 1 29
ATOM     29  N   LEU D  11      20.446   4.864  62.831  1.00 47.51 LIG-0.35  N 
ATOM     30  C   LEU D  10      19.442   5.516  63.421  1.00 47.80 LIG 0.24  C 
ATOM     31 O    LEU D  10      18.582   6.158  62.803  1.00 47.07 LIG-0.27  OA
ATOM     32 H    LEU D  11      21.009   4.376  63.261  1.00 47.51 LIG 0.16  HD
BRANCH 30 33
ATOM     33  CA  LEU D  10      19.410   5.434  64.941  1.00 47.63 LIG 0.18  C 
BRANCH 33 34
ATOM     34  CB  LEU D  10      18.635   4.207  65.411  1.00 47.29 LIG 0.04  C 
BRANCH 34 35
ATOM     35  CG  LEU D  10      18.815   3.891  66.900  1.00 46.92 LIG-0.02  C 
ATOM     36  CD1 LEU D  10      20.221   4.231  67.391  1.00 46.83 LIG 0.01  C 
ATOM     37  CD2 LEU D  10      17.812   4.615  67.734  1.00 45.50 LIG 0.01  C 
ENDBRANCH 34 35
ENDBRANCH 33 34
BRANCH 33 38
ATOM     38  N   LEU D  10      18.865   6.663  65.492  1.00 47.82 LIG-0.35  N 
ATOM     39 H    LEU D  10      18.092   6.885  65.188  1.00 47.82 LIG 0.16  HD
ATOM     40  C   ASP D   9      19.546   7.358  66.395  1.00 48.63 LIG 0.26  C 
ATOM     41 O    ASP D   9      20.657   7.028  66.804  1.00 48.10 LIG-0.27  OA
BRANCH 40 42
ATOM     42  CA  ASP D   9      18.882   8.611  66.902  1.00 49.27 LIG 0.41  C 
ATOM     43  N   ASP D   9      18.710   8.466  68.371  1.00 49.86 LIG 0.61  N 
BRANCH 42 44
ATOM     44  CB  ASP D   9      19.772   9.803  66.581  1.00 50.02 LIG 0.16  C 
BRANCH 44 45
ATOM     45  CG  ASP D   9      20.649  10.198  67.733  1.00 50.84 LIG 0.17  C 
ATOM     46 OD1  ASP D   9      20.110  10.639  68.762  1.00 53.44 LIG-0.65  OA
ATOM     47 OD2  ASP D   9      21.895  10.078  67.713  1.00 53.75 LIG-0.65  OA
ENDBRANCH 44 45
ENDBRANCH 42 44
ENDBRANCH 40 42
ENDBRANCH 33 38
ENDBRANCH 30 33
ENDBRANCH 1 29
TORSDOF 19
ENDMDL
MODEL 5
USER: ADFR SOLUTION from run 60
USER: SCORE 16.471115 LL:  -4.321 LR: -12.440 RR:   0.000 FEB:  -6.772
USER: RMSD 5.252764
USER: SEED 59
USER: STATUS no improvement in best in 9 clusters for 5 generations
USER: GENES 21
USER: genes 0 Translation |==|  0.51077 0.49166 0.67154
USER: genes 1 Rotation |==|  0.27774 0.32295 0.20706 0.78886
USER: genes 2 Torsion [N]-CA--C-[N] |==|  0.38171
USER: genes 3 Torsion [C]-N--CA-[C] |==|  0.62793
USER: genes 4 Torsion [N]-CA--C-[N] |==|  0.43763
USER: genes 5 Torsion [C]-N--CA-[CB] |==|  0.21097
USER: genes 6 Torsion [N]-CA--CB-[CG1] |==|  0.58659
USER: genes 7 Torsion [CA]-CB--CG1-[CD1] |==|  0.40980
USER: genes 8 Torsion [N]-CA--C-[OXT] |==|  0.81554
USER: genes 9 Torsion [N]-CA--CB-[CG] |==|  0.30338
USER: genes 10 Torsion [CA]-CB--CG-[CD2] |==|  0.25620
USER: genes 11 Torsion [C]-CA--CB-[CG] |==|  0.30492
USER: genes 12 Torsion [CA]-CB--CG-[CD1] |==|  0.49935
USER: genes 13 Torsion [C]-CA--N-[C] |==|  0.76361
USER: genes 14 Torsion [N]-C--CA-[N] |==|  0.45579
USER: genes 15 Torsion [C]-CA--CB-[CG] |==|  0.26559
USER: genes 16 Torsion [CA]-CB--CG-[CD2] |==|  0.02974
USER: genes 17 Torsion [C]-CA--N-[C] |==|  0.55172
USER: genes 18 Torsion [N]-C--CA-[N] |==|  0.49671
USER: genes 19 Torsion [C]-CA--CB-[CG] |==|  0.80031
USER: genes 20 Torsion [CA]-CB--CG-[OD1] |==|  0.03699
ROOT
ATOM      1  CA  LEU D  11      18.992   6.873  66.751  1.00 47.89 LIG 0.18  C 
ENDROOT
BRANCH 1 2
ATOM      2  C   LEU D  11      18.725   6.933  65.252  1.00 48.14 LIG 0.24  C 
ATOM      3 O    LEU D  11      17.974   7.777  64.780  1.00 47.13 LIG-0.27  OA
ATOM      4  N   HIS D  12      19.317   6.003  64.512  1.00 49.28 LIG-0.35  N 
ATOM      5 H    HIS D  12      19.855   5.407  64.820  1.00 49.28 LIG 0.16  HD
BRANCH 4 6
ATOM      6  CA  HIS D  12      19.081   5.933  63.074  1.00 50.49 LIG 0.18  C 
BRANCH 6 7
ATOM      7  C   HIS D  12      18.806   4.503  62.613  1.00 51.38 LIG 0.24  C 
ATOM      8  N   ILE D  13      18.144   4.412  61.472  1.00 53.16 LIG-0.34  N 
ATOM      9 H    ILE D  13      17.873   5.114  61.055  1.00 53.16 LIG 0.16  HD
ATOM     10 O    HIS D  12      19.187   3.542  63.264  1.00 51.57 LIG-0.27  OA
BRANCH 8 11
ATOM     11  CA  ILE D  13      17.780   3.174  60.762  1.00 55.12 LIG 0.19  C 
BRANCH 11 12
ATOM     12  CB  ILE D  13      16.572   2.405  61.410  1.00 55.01 LIG 0.01  C 
ATOM     13  CG2 ILE D  13      15.206   2.898  60.897  1.00 56.15 LIG 0.01  C 
BRANCH 12 14
ATOM     14  CG1 ILE D  13      16.726   0.898  61.182  1.00 55.50 LIG 0.00  C 
ATOM     15  CD1 ILE D  13      16.157   0.017  62.327  1.00 55.45 LIG 0.01  C 
ENDBRANCH 12 14
ENDBRANCH 11 12
BRANCH 11 16
ATOM     16  C   ILE D  13      17.716   3.191  59.232  1.00 55.63 LIG 0.20  C 
ATOM     17 O    ILE D  13      18.528   2.560  58.552  1.00 56.94 LIG-0.65  OA
ATOM     18 OXT  ILE D  13      16.836   3.881  58.699  1.00 55.86 LIG-0.65  OA
ENDBRANCH 11 16
ENDBRANCH 8 11
ENDBRANCH 6 7
BRANCH 6 19
ATOM     19  CB  HIS D  12      20.256   6.522  62.290  1.00 50.55 LIG 0.10  C 
BRANCH 19 20
ATOM     20  CG  HIS D  12      21.067   5.499  61.559  1.00 49.61 LIG 0.06  A 
ATOM     21  CD2 HIS D  12      20.976   5.026  60.294  1.00 48.49 LIG 0.14  A 
ATOM     22 NE2  HIS D  12      21.975   4.097  60.138  1.00 48.62 LIG-0.25  NA
ATOM     23  CE1 HIS D  12      22.670   4.020  61.258  1.00 49.12 LIG 0.23  A 
ATOM     24 ND1  HIS D  12      22.139   4.853  62.134  1.00 49.92 LIG-0.24  NA
ENDBRANCH 19 20
ENDBRANCH 6 19
ENDBRANCH 4 6
ENDBRANCH 1 2
BRANCH 1 25
ATOM     25  CB  LEU D  11      17.780   6.228  67.414  1.00 47.69 LIG 0.04  C 
BRANCH 25 26
ATOM     26  CG  LEU D  11      17.910   4.819  68.004  1.00 48.05 LIG-0.02  C 
ATOM     27  CD1 LEU D  11      16.586   4.383  68.615  1.00 46.53 LIG 0.01  C 
ATOM     28  CD2 LEU D  11      18.398   3.806  66.996  1.00 50.43 LIG 0.01  C 
ENDBRANCH 25 26
ENDBRANCH 1 25
BRANCH 1 29
ATOM     29  N   LEU D  11      19.237   8.177  67.348  1.00 47.51 LIG-0.35  N 
ATOM     30  C   LEU D  10      20.439   8.753  67.361  1.00 47.80 LIG 0.24  C 
ATOM     31 O    LEU D  10      21.438   8.276  66.803  1.00 47.07 LIG-0.27  OA
ATOM     32 H    LEU D  11      18.536   8.539  67.692  1.00 47.51 LIG 0.16  HD
BRANCH 30 33
ATOM     33  CA  LEU D  10      20.530  10.067  68.126  1.00 47.63 LIG 0.18  C 
BRANCH 33 34
ATOM     34  CB  LEU D  10      19.810  11.189  67.383  1.00 47.29 LIG 0.04  C 
BRANCH 34 35
ATOM     35  CG  LEU D  10      18.370  11.422  67.855  1.00 46.92 LIG-0.02  C 
ATOM     36  CD1 LEU D  10      17.349  11.035  66.786  1.00 46.83 LIG 0.01  C 
ATOM     37  CD2 LEU D  10      18.081  10.668  69.110  1.00 45.50 LIG 0.01  C 
ENDBRANCH 34 35
ENDBRANCH 33 34
BRANCH 33 38
ATOM     38  N   LEU D  10      21.921  10.395  68.386  1.00 47.82 LIG-0.35  N 
ATOM     39 H    LEU D  10      22.489   9.984  67.888  1.00 47.82 LIG 0.16  HD
ATOM     40  C   ASP D   9      22.244  11.270  69.330  1.00 48.63 LIG 0.26  C 
ATOM     41 O    ASP D   9      21.414  11.834  70.040  1.00 48.10 LIG-0.27  OA
BRANCH 40 42
ATOM     42  CA  ASP D   9      23.715  11.538  69.507  1.00 49.27 LIG 0.41  C 
ATOM     43  N   ASP D   9      23.861  12.555  70.581  1.00 49.86 LIG 0.61  N 
BRANCH 42 44
ATOM     44  CB  ASP D   9      24.408  10.241  69.899  1.00 50.02 LIG 0.16  C 
BRANCH 44 45
ATOM     45  CG  ASP D   9      24.091   9.817  71.303  1.00 50.84 LIG 0.17  C 
ATOM     46 OD1  ASP D   9      23.150  10.376  71.891  1.00 53.44 LIG-0.65  OA
ATOM     47 OD2  ASP D   9      24.715   8.909  71.898  1.00 53.75 LIG-0.65  OA
ENDBRANCH 44 45
ENDBRANCH 42 44
ENDBRANCH 40 42
ENDBRANCH 33 38
ENDBRANCH 30 33
ENDBRANCH 1 29
TORSDOF 19
ENDMDL
MODEL 6
USER: ADFR SOLUTION from run 10
USER: SCORE 16.276162 LL:  -4.517 LR: -12.405 RR:   0.000 FEB:  -6.737
USER: RMSD 3.880072
USER: SEED 733827
USER: STATUS no improvement in best in 9 clusters for 5 generations
USER: GENES 21
USER: genes 0 Translation |==|  0.47797 0.30136 0.48594
USER: genes 1 Rotation |==|  0.36752 0.45451 0.26820 0.92030
USER: genes 2 Torsion [N]-CA--C-[N] |==|  0.40555
USER: genes 3 Torsion [C]-N--CA-[C] |==|  0.57601
USER: genes 4 Torsion [N]-CA--C-[N] |==|  0.39368
USER: genes 5 Torsion [C]-N--CA-[CB] |==|  0.23377
USER: genes 6 Torsion [N]-CA--CB-[CG1] |==|  0.93580
USER: genes 7 Torsion [CA]-CB--CG1-[CD1] |==|  0.53231
USER: genes 8 Torsion [N]-CA--C-[OXT] |==|  0.53507
USER: genes 9 Torsion [N]-CA--CB-[CG] |==|  0.40093
USER: genes 10 Torsion [CA]-CB--CG-[CD2] |==|  0.25460
USER: genes 11 Torsion [C]-CA--CB-[CG] |==|  0.10621
USER: genes 12 Torsion [CA]-CB--CG-[CD1] |==|  0.20001
USER: genes 13 Torsion [C]-CA--N-[C] |==|  0.85243
USER: genes 14 Torsion [N]-C--CA-[N] |==|  0.49993
USER: genes 15 Torsion [C]-CA--CB-[CG] |==|  0.27903
USER: genes 16 Torsion [CA]-CB--CG-[CD2] |==|  0.40014
USER: genes 17 Torsion [C]-CA--N-[C] |==|  0.56837
USER: genes 18 Torsion [N]-C--CA-[N] |==|  0.20684
USER: genes 19 Torsion [C]-CA--CB-[CG] |==|  0.68880
USER: genes 20 Torsion [CA]-CB--CG-[OD1] |==|  0.64685
ROOT
ATOM      1  CA  LEU D  11      18.352   3.304  62.575  1.00 47.89 LIG 0.18  C 
ENDROOT
BRANCH 1 2
ATOM      2  C   LEU D  11      17.412   4.032  61.623  1.00 48.14 LIG 0.24  C 
ATOM      3 O    LEU D  11      16.475   4.694  62.048  1.00 47.13 LIG-0.27  OA
ATOM      4  N   HIS D  12      17.648   3.870  60.326  1.00 49.28 LIG-0.35  N 
ATOM      5 H    HIS D  12      18.306   3.418  60.005  1.00 49.28 LIG 0.16  HD
BRANCH 4 6
ATOM      6  CA  HIS D  12      16.772   4.474  59.328  1.00 50.49 LIG 0.18  C 
BRANCH 6 7
ATOM      7  C   HIS D  12      16.772   3.684  58.021  1.00 51.38 LIG 0.24  C 
ATOM      8  N   ILE D  13      15.592   3.604  57.428  1.00 53.16 LIG-0.34  N 
ATOM      9 H    ILE D  13      14.889   3.950  57.782  1.00 53.16 LIG 0.16  HD
ATOM     10 O    HIS D  12      17.797   3.185  57.580  1.00 51.57 LIG-0.27  OA
BRANCH 8 11
ATOM     11  CA  ILE D  13      15.296   2.952  56.141  1.00 55.12 LIG 0.19  C 
BRANCH 11 12
ATOM     12  CB  ILE D  13      15.050   1.404  56.258  1.00 55.01 LIG 0.01  C 
ATOM     13  CG2 ILE D  13      15.525   0.629  55.015  1.00 56.15 LIG 0.01  C 
BRANCH 12 14
ATOM     14  CG1 ILE D  13      15.718   0.859  57.525  1.00 55.50 LIG 0.00  C 
ATOM     15  CD1 ILE D  13      15.784  -0.690  57.596  1.00 55.45 LIG 0.01  C 
ENDBRANCH 12 14
ENDBRANCH 11 12
BRANCH 11 16
ATOM     16  C   ILE D  13      14.324   3.632  55.174  1.00 55.63 LIG 0.20  C 
ATOM     17 O    ILE D  13      13.950   4.794  55.355  1.00 56.94 LIG-0.65  OA
ATOM     18 OXT  ILE D  13      13.904   2.969  54.216  1.00 55.86 LIG-0.65  OA
ENDBRANCH 11 16
ENDBRANCH 8 11
ENDBRANCH 6 7
BRANCH 6 19
ATOM     19  CB  HIS D  12      17.156   5.931  59.062  1.00 50.55 LIG 0.10  C 
BRANCH 19 20
ATOM     20  CG  HIS D  12      16.978   6.352  57.638  1.00 49.61 LIG 0.06  A 
ATOM     21  CD2 HIS D  12      15.928   6.918  56.997  1.00 48.49 LIG 0.14  A 
ATOM     22 NE2  HIS D  12      16.303   7.100  55.690  1.00 48.62 LIG-0.25  NA
ATOM     23  CE1 HIS D  12      17.546   6.684  55.536  1.00 49.12 LIG 0.23  A 
ATOM     24 ND1  HIS D  12      17.976   6.223  56.696  1.00 49.92 LIG-0.24  NA
ENDBRANCH 19 20
ENDBRANCH 6 19
ENDBRANCH 4 6
ENDBRANCH 1 2
BRANCH 1 25
ATOM     25  CB  LEU D  11      17.729   1.952  62.901  1.00 47.69 LIG 0.04  C 
BRANCH 25 26
ATOM     26  CG  LEU D  11      16.997   1.179  61.798  1.00 48.05 LIG-0.02  C 
ATOM     27  CD1 LEU D  11      17.998   0.622  60.796  1.00 46.53 LIG 0.01  C 
ATOM     28  CD2 LEU D  11      16.111   0.083  62.341  1.00 50.43 LIG 0.01  C 
ENDBRANCH 25 26
ENDBRANCH 1 25
BRANCH 1 29
ATOM     29  N   LEU D  11      18.605   4.033  63.809  1.00 47.51 LIG-0.35  N 
ATOM     30  C   LEU D  10      19.031   5.297  63.829  1.00 47.80 LIG 0.24  C 
ATOM     31 O    LEU D  10      19.176   5.991  62.812  1.00 47.07 LIG-0.27  OA
ATOM     32 H    LEU D  11      18.456   3.575  64.521  1.00 47.51 LIG 0.16  HD
BRANCH 30 33
ATOM     33  CA  LEU D  10      19.347   5.862  65.208  1.00 47.63 LIG 0.18  C 
BRANCH 33 34
ATOM     34  CB  LEU D  10      18.149   5.735  66.144  1.00 47.29 LIG 0.04  C 
BRANCH 34 35
ATOM     35  CG  LEU D  10      18.243   4.553  67.116  1.00 46.92 LIG-0.02  C 
ATOM     36  CD1 LEU D  10      19.683   4.083  67.307  1.00 46.83 LIG 0.01  C 
ATOM     37  CD2 LEU D  10      17.653   4.895  68.443  1.00 45.50 LIG 0.01  C 
ENDBRANCH 34 35
ENDBRANCH 33 34
BRANCH 33 38
ATOM     38  N   LEU D  10      19.798   7.238  65.088  1.00 47.82 LIG-0.35  N 
ATOM     39 H    LEU D  10      19.526   7.649  64.383  1.00 47.82 LIG 0.16  HD
ATOM     40  C   ASP D   9      20.569   7.779  66.023  1.00 48.63 LIG 0.26  C 
ATOM     41 O    ASP D   9      20.956   7.167  67.016  1.00 48.10 LIG-0.27  OA
BRANCH 40 42
ATOM     42  CA  ASP D   9      20.970   9.214  65.799  1.00 49.27 LIG 0.41  C 
ATOM     43  N   ASP D   9      19.783  10.061  66.084  1.00 49.86 LIG 0.61  N 
BRANCH 42 44
ATOM     44  CB  ASP D   9      22.114   9.558  66.743  1.00 50.02 LIG 0.16  C 
BRANCH 44 45
ATOM     45  CG  ASP D   9      21.715  10.546  67.800  1.00 50.84 LIG 0.17  C 
ATOM     46 OD1  ASP D   9      22.405  11.570  67.941  1.00 53.44 LIG-0.65  OA
ATOM     47 OD2  ASP D   9      20.706  10.397  68.525  1.00 53.75 LIG-0.65  OA
ENDBRANCH 44 45
ENDBRANCH 42 44
ENDBRANCH 40 42
ENDBRANCH 33 38
ENDBRANCH 30 33
ENDBRANCH 1 29
TORSDOF 19
ENDMDL
MODEL 7
USER: ADFR SOLUTION from run 128
USER: SCORE 15.560901 LL:  -4.377 LR: -12.264 RR:   0.000 FEB:  -6.596
USER: RMSD 4.445687
USER: SEED 127
USER: STATUS no improvement in best in 7 clusters for 5 generations
USER: GENES 21
USER: genes 0 Translation |==|  0.52912 0.41081 0.43226
USER: genes 1 Rotation |==|  0.52355 0.53611 0.79306 0.90281
USER: genes 2 Torsion [N]-CA--C-[N] |==|  0.19762
USER: genes 3 Torsion [C]-N--CA-[C] |==|  0.71345
USER: genes 4 Torsion [N]-CA--C-[N] |==|  0.36641
USER: genes 5 Torsion [C]-N--CA-[CB] |==|  0.18771
USER: genes 6 Torsion [N]-CA--CB-[CG1] |==|  0.04368
USER: genes 7 Torsion [CA]-CB--CG1-[CD1] |==|  0.65753
USER: genes 8 Torsion [N]-CA--C-[OXT] |==|  0.73601
USER: genes 9 Torsion [N]-CA--CB-[CG] |==|  0.88335
USER: genes 10 Torsion [CA]-CB--CG-[CD2] |==|  0.09262
USER: genes 11 Torsion [C]-CA--CB-[CG] |==|  0.73570
USER: genes 12 Torsion [CA]-CB--CG-[CD1] |==|  0.25214
USER: genes 13 Torsion [C]-CA--N-[C] |==|  0.71373
USER: genes 14 Torsion [N]-C--CA-[N] |==|  0.29229
USER: genes 15 Torsion [C]-CA--CB-[CG] |==|  0.32772
USER: genes 16 Torsion [CA]-CB--CG-[CD2] |==|  0.39646
USER: genes 17 Torsion [C]-CA--N-[C] |==|  0.57107
USER: genes 18 Torsion [N]-C--CA-[N] |==|  0.34977
USER: genes 19 Torsion [C]-CA--CB-[CG] |==|  0.64800
USER: genes 20 Torsion [CA]-CB--CG-[OD1] |==|  0.37114
ROOT
ATOM      1  CA  LEU D  11      19.350   5.357  61.367  1.00 47.89 LIG 0.18  C 
ENDROOT
BRANCH 1 2
ATOM      2  C   LEU D  11      18.945   3.953  60.938  1.00 48.14 LIG 0.24  C 
ATOM      3 O    LEU D  11      19.707   3.247  60.292  1.00 47.13 LIG-0.27  OA
ATOM      4  N   HIS D  12      17.718   3.568  61.271  1.00 49.28 LIG-0.35  N 
ATOM      5 H    HIS D  12      17.168   4.043  61.733  1.00 49.28 LIG 0.16  HD
BRANCH 4 6
ATOM      6  CA  HIS D  12      17.207   2.265  60.858  1.00 50.49 LIG 0.18  C 
BRANCH 6 7
ATOM      7  C   HIS D  12      16.238   2.382  59.684  1.00 51.38 LIG 0.24  C 
ATOM      8  N   ILE D  13      16.474   1.540  58.691  1.00 53.16 LIG-0.34  N 
ATOM      9 H    ILE D  13      17.143   1.000  58.712  1.00 53.16 LIG 0.16  HD
ATOM     10 O    HIS D  12      15.323   3.192  59.694  1.00 51.57 LIG-0.27  OA
BRANCH 8 11
ATOM     11  CA  ILE D  13      15.684   1.391  57.458  1.00 55.12 LIG 0.19  C 
BRANCH 11 12
ATOM     12  CB  ILE D  13      15.760   2.636  56.502  1.00 55.01 LIG 0.01  C 
ATOM     13  CG2 ILE D  13      14.447   3.441  56.466  1.00 56.15 LIG 0.01  C 
BRANCH 12 14
ATOM     14  CG1 ILE D  13      16.936   3.533  56.900  1.00 55.50 LIG 0.00  C 
ATOM     15  CD1 ILE D  13      16.541   5.000  57.220  1.00 55.45 LIG 0.01  C 
ENDBRANCH 12 14
ENDBRANCH 11 12
BRANCH 11 16
ATOM     16  C   ILE D  13      15.741   0.061  56.700  1.00 55.63 LIG 0.20  C 
ATOM     17 O    ILE D  13      15.030  -0.892  57.027  1.00 56.94 LIG-0.65  OA
ATOM     18 OXT  ILE D  13      16.546  -0.035  55.763  1.00 55.86 LIG-0.65  OA
ENDBRANCH 11 16
ENDBRANCH 8 11
ENDBRANCH 6 7
BRANCH 6 19
ATOM     19  CB  HIS D  12      16.536   1.538  62.025  1.00 50.55 LIG 0.10  C 
BRANCH 19 20
ATOM     20  CG  HIS D  12      17.280   1.653  63.317  1.00 49.61 LIG 0.06  A 
ATOM     21  CD2 HIS D  12      18.032   2.656  63.829  1.00 48.49 LIG 0.14  A 
ATOM     22 NE2  HIS D  12      18.482   2.239  65.056  1.00 48.62 LIG-0.25  NA
ATOM     23  CE1 HIS D  12      18.004   1.033  65.302  1.00 49.12 LIG 0.23  A 
ATOM     24 ND1  HIS D  12      17.279   0.654  64.266  1.00 49.92 LIG-0.24  NA
ENDBRANCH 19 20
ENDBRANCH 6 19
ENDBRANCH 4 6
ENDBRANCH 1 2
BRANCH 1 25
ATOM     25  CB  LEU D  11      20.638   5.714  60.633  1.00 47.69 LIG 0.04  C 
BRANCH 25 26
ATOM     26  CG  LEU D  11      21.985   5.484  61.329  1.00 48.05 LIG-0.02  C 
ATOM     27  CD1 LEU D  11      22.510   4.093  61.007  1.00 46.53 LIG 0.01  C 
ATOM     28  CD2 LEU D  11      23.008   6.540  60.983  1.00 50.43 LIG 0.01  C 
ENDBRANCH 25 26
ENDBRANCH 1 25
BRANCH 1 29
ATOM     29  N   LEU D  11      19.556   5.487  62.802  1.00 47.51 LIG-0.35  N 
ATOM     30  C   LEU D  10      18.666   6.061  63.612  1.00 47.80 LIG 0.24  C 
ATOM     31 O    LEU D  10      17.555   6.465  63.239  1.00 47.07 LIG-0.27  OA
ATOM     32 H    LEU D  11      20.303   5.162  63.077  1.00 47.51 LIG 0.16  HD
BRANCH 30 33
ATOM     33  CA  LEU D  10      19.099   6.208  65.065  1.00 47.63 LIG 0.18  C 
BRANCH 33 34
ATOM     34  CB  LEU D  10      18.027   5.684  66.015  1.00 47.29 LIG 0.04  C 
BRANCH 34 35
ATOM     35  CG  LEU D  10      18.485   4.501  66.876  1.00 46.92 LIG-0.02  C 
ATOM     36  CD1 LEU D  10      20.007   4.412  66.963  1.00 46.83 LIG 0.01  C 
ATOM     37  CD2 LEU D  10      17.915   4.580  68.253  1.00 45.50 LIG 0.01  C 
ENDBRANCH 34 35
ENDBRANCH 33 34
BRANCH 33 38
ATOM     38  N   LEU D  10      19.440   7.593  65.343  1.00 47.82 LIG-0.35  N 
ATOM     39 H    LEU D  10      19.052   8.170  64.837  1.00 47.82 LIG 0.16  HD
ATOM     40  C   ASP D   9      20.290   7.896  66.316  1.00 48.63 LIG 0.26  C 
ATOM     41 O    ASP D   9      20.843   7.052  67.017  1.00 48.10 LIG-0.27  OA
BRANCH 40 42
ATOM     42  CA  ASP D   9      20.564   9.363  66.520  1.00 49.27 LIG 0.41  C 
ATOM     43  N   ASP D   9      20.292   9.677  67.946  1.00 49.86 LIG 0.61  N 
BRANCH 42 44
ATOM     44  CB  ASP D   9      22.020   9.644  66.176  1.00 50.02 LIG 0.16  C 
BRANCH 44 45
ATOM     45  CG  ASP D   9      22.749  10.350  67.281  1.00 50.84 LIG 0.17  C 
ATOM     46 OD1  ASP D   9      23.873   9.933  67.609  1.00 53.44 LIG-0.65  OA
ATOM     47 OD2  ASP D   9      22.289  11.356  67.867  1.00 53.75 LIG-0.65  OA
ENDBRANCH 44 45
ENDBRANCH 42 44
ENDBRANCH 40 42
ENDBRANCH 33 38
ENDBRANCH 30 33
ENDBRANCH 1 29
TORSDOF 19
ENDMDL
MODEL 8
USER: ADFR SOLUTION from run 200
USER: SCORE 14.627894 LL:  -4.177 LR: -12.195 RR:   0.000 FEB:  -6.527
USER: RMSD 3.363462
USER: SEED 199
USER: STATUS no improvement in best in 8 clusters for 5 generations
USER: GENES 21
USER: genes 0 Translation |==|  0.53357 0.37453 0.49000
USER: genes 1 Rotation |==|  0.45539 0.51191 0.71265 0.95016
USER: genes 2 Torsion [N]-CA--C-[N] |==|  0.44963
USER: genes 3 Torsion [C]-N--CA-[C] |==|  0.48952
USER: genes 4 Torsion [N]-CA--C-[N] |==|  0.59408
USER: genes 5 Torsion [C]-N--CA-[CB] |==|  0.89175
USER: genes 6 Torsion [N]-CA--CB-[CG1] |==|  0.88671
USER: genes 7 Torsion [CA]-CB--CG1-[CD1] |==|  0.53121
USER: genes 8 Torsion [N]-CA--C-[OXT] |==|  0.22182
USER: genes 9 Torsion [N]-CA--CB-[CG] |==|  0.16630
USER: genes 10 Torsion [CA]-CB--CG-[CD2] |==|  0.97265
USER: genes 11 Torsion [C]-CA--CB-[CG] |==|  0.25311
USER: genes 12 Torsion [CA]-CB--CG-[CD1] |==|  0.26418
USER: genes 13 Torsion [C]-CA--N-[C] |==|  0.68749
USER: genes 14 Torsion [N]-C--CA-[N] |==|  0.37072
USER: genes 15 Torsion [C]-CA--CB-[CG] |==|  0.26910
USER: genes 16 Torsion [CA]-CB--CG-[CD2] |==|  0.35737
USER: genes 17 Torsion [C]-CA--N-[C] |==|  0.68045
USER: genes 18 Torsion [N]-C--CA-[N] |==|  0.22199
USER: genes 19 Torsion [C]-CA--CB-[CG] |==|  0.63511
USER: genes 20 Torsion [CA]-CB--CG-[OD1] |==|  0.85990
ROOT
ATOM      1  CA  LEU D  11      19.437   4.677  62.666  1.00 47.89 LIG 0.18  C 
ENDROOT
BRANCH 1 2
ATOM      2  C   LEU D  11      18.635   3.419  62.358  1.00 48.14 LIG 0.24  C 
ATOM      3 O    LEU D  11      18.337   2.629  63.244  1.00 47.13 LIG-0.27  OA
ATOM      4  N   HIS D  12      18.322   3.220  61.083  1.00 49.28 LIG-0.35  N 
ATOM      5 H    HIS D  12      18.512   3.765  60.445  1.00 49.28 LIG 0.16  HD
BRANCH 4 6
ATOM      6  CA  HIS D  12      17.607   2.017  60.670  1.00 50.49 LIG 0.18  C 
BRANCH 6 7
ATOM      7  C   HIS D  12      17.272   2.040  59.180  1.00 51.38 LIG 0.24  C 
ATOM      8  N   ILE D  13      16.128   1.454  58.866  1.00 53.16 LIG-0.34  N 
ATOM      9 H    ILE D  13      15.642   1.071  59.463  1.00 53.16 LIG 0.16  HD
ATOM     10 O    HIS D  12      18.016   2.571  58.369  1.00 51.57 LIG-0.27  OA
BRANCH 8 11
ATOM     11  CA  ILE D  13      15.525   1.364  57.525  1.00 55.12 LIG 0.19  C 
BRANCH 11 12
ATOM     12  CB  ILE D  13      15.693   2.669  56.666  1.00 55.01 LIG 0.01  C 
ATOM     13  CG2 ILE D  13      14.763   2.699  55.439  1.00 56.15 LIG 0.01  C 
BRANCH 12 14
ATOM     14  CG1 ILE D  13      15.477   3.907  57.542  1.00 55.50 LIG 0.00  C 
ATOM     15  CD1 ILE D  13      15.347   5.235  56.749  1.00 55.45 LIG 0.01  C 
ENDBRANCH 12 14
ENDBRANCH 11 12
BRANCH 11 16
ATOM     16  C   ILE D  13      15.734   0.087  56.706  1.00 55.63 LIG 0.20  C 
ATOM     17 O    ILE D  13      16.564   0.041  55.795  1.00 56.94 LIG-0.65  OA
ATOM     18 OXT  ILE D  13      15.023  -0.893  56.972  1.00 55.86 LIG-0.65  OA
ENDBRANCH 11 16
ENDBRANCH 8 11
ENDBRANCH 6 7
BRANCH 6 19
ATOM     19  CB  HIS D  12      16.333   1.818  61.494  1.00 50.55 LIG 0.10  C 
BRANCH 19 20
ATOM     20  CG  HIS D  12      15.359   2.947  61.380  1.00 49.61 LIG 0.06  A 
ATOM     21  CD2 HIS D  12      15.476   4.176  60.824  1.00 48.49 LIG 0.14  A 
ATOM     22 NE2  HIS D  12      14.272   4.813  60.994  1.00 48.62 LIG-0.25  NA
ATOM     23  CE1 HIS D  12      13.437   3.997  61.609  1.00 49.12 LIG 0.23  A 
ATOM     24 ND1  HIS D  12      14.069   2.865  61.858  1.00 49.92 LIG-0.24  NA
ENDBRANCH 19 20
ENDBRANCH 6 19
ENDBRANCH 4 6
ENDBRANCH 1 2
BRANCH 1 25
ATOM     25  CB  LEU D  11      20.882   4.420  62.254  1.00 47.69 LIG 0.04  C 
BRANCH 25 26
ATOM     26  CG  LEU D  11      21.333   4.787  60.835  1.00 48.05 LIG-0.02  C 
ATOM     27  CD1 LEU D  11      21.964   6.172  60.828  1.00 46.53 LIG 0.01  C 
ATOM     28  CD2 LEU D  11      22.270   3.765  60.237  1.00 50.43 LIG 0.01  C 
ENDBRANCH 25 26
ENDBRANCH 1 25
BRANCH 1 29
ATOM     29  N   LEU D  11      19.393   5.062  64.069  1.00 47.51 LIG-0.35  N 
ATOM     30  C   LEU D  10      18.785   6.170  64.496  1.00 47.80 LIG 0.24  C 
ATOM     31 O    LEU D  10      18.140   6.930  63.760  1.00 47.07 LIG-0.27  OA
ATOM     32 H    LEU D  11      19.794   4.511  64.594  1.00 47.51 LIG 0.16  HD
BRANCH 30 33
ATOM     33  CA  LEU D  10      18.935   6.469  65.982  1.00 47.63 LIG 0.18  C 
BRANCH 33 34
ATOM     34  CB  LEU D  10      17.673   6.089  66.751  1.00 47.29 LIG 0.04  C 
BRANCH 34 35
ATOM     35  CG  LEU D  10      17.741   4.708  67.413  1.00 46.92 LIG-0.02  C 
ATOM     36  CD1 LEU D  10      19.123   4.075  67.273  1.00 46.83 LIG 0.01  C 
ATOM     37  CD2 LEU D  10      17.374   4.780  68.857  1.00 45.50 LIG 0.01  C 
ENDBRANCH 34 35
ENDBRANCH 33 34
BRANCH 33 38
ATOM     38  N   LEU D  10      19.286   7.866  66.174  1.00 47.82 LIG-0.35  N 
ATOM     39 H    LEU D  10      18.682   8.428  65.930  1.00 47.82 LIG 0.16  HD
ATOM     40  C   ASP D   9      20.462   8.201  66.690  1.00 48.63 LIG 0.26  C 
ATOM     41 O    ASP D   9      21.315   7.379  67.017  1.00 48.10 LIG-0.27  OA
BRANCH 40 42
ATOM     42  CA  ASP D   9      20.716   9.677  66.849  1.00 49.27 LIG 0.41  C 
ATOM     43  N   ASP D   9      20.018  10.123  68.083  1.00 49.86 LIG 0.61  N 
BRANCH 42 44
ATOM     44  CB  ASP D   9      22.216   9.908  66.968  1.00 50.02 LIG 0.16  C 
BRANCH 44 45
ATOM     45  CG  ASP D   9      22.575  10.795  68.123  1.00 50.84 LIG 0.17  C 
ATOM     46 OD1  ASP D   9      21.978  11.879  68.244  1.00 53.44 LIG-0.65  OA
ATOM     47 OD2  ASP D   9      23.429  10.482  68.983  1.00 53.75 LIG-0.65  OA
ENDBRANCH 44 45
ENDBRANCH 42 44
ENDBRANCH 40 42
ENDBRANCH 33 38
ENDBRANCH 30 33
ENDBRANCH 1 29
TORSDOF 19
ENDMDL
MODEL 9
USER: ADFR SOLUTION from run 66
USER: SCORE 15.563595 LL:  -4.009 LR: -12.105 RR:   0.000 FEB:  -6.438
USER: RMSD 3.664130
USER: SEED 65
USER: STATUS no improvement in best in 16 clusters for 5 generations
USER: GENES 21
USER: genes 0 Translation |==|  0.55615 0.46768 0.51206
USER: genes 1 Rotation |==|  0.52330 0.50072 0.74353 0.93606
USER: genes 2 Torsion [N]-CA--C-[N] |==|  0.41905
USER: genes 3 Torsion [C]-N--CA-[C] |==|  0.54530
USER: genes 4 Torsion [N]-CA--C-[N] |==|  0.51488
USER: genes 5 Torsion [C]-N--CA-[CB] |==|  0.54730
USER: genes 6 Torsion [N]-CA--CB-[CG1] |==|  0.85470
USER: genes 7 Torsion [CA]-CB--CG1-[CD1] |==|  0.66357
USER: genes 8 Torsion [N]-CA--C-[OXT] |==|  0.22589
USER: genes 9 Torsion [N]-CA--CB-[CG] |==|  0.66226
USER: genes 10 Torsion [CA]-CB--CG-[CD2] |==|  0.20937
USER: genes 11 Torsion [C]-CA--CB-[CG] |==|  0.03511
USER: genes 12 Torsion [CA]-CB--CG-[CD1] |==|  0.36362
USER: genes 13 Torsion [C]-CA--N-[C] |==|  0.62784
USER: genes 14 Torsion [N]-C--CA-[N] |==|  0.43003
USER: genes 15 Torsion [C]-CA--CB-[CG] |==|  0.17848
USER: genes 16 Torsion [CA]-CB--CG-[CD2] |==|  0.47294
USER: genes 17 Torsion [C]-CA--N-[C] |==|  0.77786
USER: genes 18 Torsion [N]-C--CA-[N] |==|  0.04456
USER: genes 19 Torsion [C]-CA--CB-[CG] |==|  0.65103
USER: genes 20 Torsion [CA]-CB--CG-[OD1] |==|  0.85470
ROOT
ATOM      1  CA  LEU D  11      19.877   6.423  63.162  1.00 47.89 LIG 0.18  C 
ENDROOT
BRANCH 1 2
ATOM      2  C   LEU D  11      19.204   5.183  62.589  1.00 48.14 LIG 0.24  C 
ATOM      3 O    LEU D  11      19.270   4.106  63.167  1.00 47.13 LIG-0.27  OA
ATOM      4  N   HIS D  12      18.587   5.336  61.423  1.00 49.28 LIG-0.35  N 
ATOM      5 H    HIS D  12      18.520   6.084  61.003  1.00 49.28 LIG 0.16  HD
BRANCH 4 6
ATOM      6  CA  HIS D  12      17.961   4.199  60.756  1.00 50.49 LIG 0.18  C 
BRANCH 6 7
ATOM      7  C   HIS D  12      17.671   4.493  59.286  1.00 51.38 LIG 0.24  C 
ATOM      8  N   ILE D  13      17.002   3.540  58.657  1.00 53.16 LIG-0.34  N 
ATOM      9 H    ILE D  13      16.786   2.809  59.054  1.00 53.16 LIG 0.16  HD
ATOM     10 O    HIS D  12      18.032   5.537  58.764  1.00 51.57 LIG-0.27  OA
BRANCH 8 11
ATOM     11  CA  ILE D  13      16.543   3.565  57.258  1.00 55.12 LIG 0.19  C 
BRANCH 11 12
ATOM     12  CB  ILE D  13      15.435   2.497  56.937  1.00 55.01 LIG 0.01  C 
ATOM     13  CG2 ILE D  13      15.032   2.485  55.451  1.00 56.15 LIG 0.01  C 
BRANCH 12 14
ATOM     14  CG1 ILE D  13      15.898   1.107  57.385  1.00 55.50 LIG 0.00  C 
ATOM     15  CD1 ILE D  13      15.958   0.055  56.245  1.00 55.45 LIG 0.01  C 
ENDBRANCH 12 14
ENDBRANCH 11 12
BRANCH 11 16
ATOM     16  C   ILE D  13      16.269   4.917  56.594  1.00 55.63 LIG 0.20  C 
ATOM     17 O    ILE D  13      15.121   5.354  56.484  1.00 56.94 LIG-0.65  OA
ATOM     18 OXT  ILE D  13      17.238   5.547  56.146  1.00 55.86 LIG-0.65  OA
ENDBRANCH 11 16
ENDBRANCH 8 11
ENDBRANCH 6 7
BRANCH 6 19
ATOM     19  CB  HIS D  12      16.677   3.774  61.472  1.00 50.55 LIG 0.10  C 
BRANCH 19 20
ATOM     20  CG  HIS D  12      16.690   2.354  61.942  1.00 49.61 LIG 0.06  A 
ATOM     21  CD2 HIS D  12      17.317   1.764  62.986  1.00 48.49 LIG 0.14  A 
ATOM     22 NE2  HIS D  12      16.981   0.433  62.960  1.00 48.62 LIG-0.25  NA
ATOM     23  CE1 HIS D  12      16.157   0.217  61.952  1.00 49.12 LIG 0.23  A 
ATOM     24 ND1  HIS D  12      15.968   1.360  61.318  1.00 49.92 LIG-0.24  NA
ENDBRANCH 19 20
ENDBRANCH 6 19
ENDBRANCH 4 6
ENDBRANCH 1 2
BRANCH 1 25
ATOM     25  CB  LEU D  11      21.292   6.487  62.598  1.00 47.69 LIG 0.04  C 
BRANCH 25 26
ATOM     26  CG  LEU D  11      21.672   5.578  61.423  1.00 48.05 LIG-0.02  C 
ATOM     27  CD1 LEU D  11      22.355   6.390  60.333  1.00 46.53 LIG 0.01  C 
ATOM     28  CD2 LEU D  11      22.531   4.409  61.843  1.00 50.43 LIG 0.01  C 
ENDBRANCH 25 26
ENDBRANCH 1 25
BRANCH 1 29
ATOM     29  N   LEU D  11      19.933   6.431  64.617  1.00 47.51 LIG-0.35  N 
ATOM     30  C   LEU D  10      19.610   7.499  65.347  1.00 47.80 LIG 0.24  C 
ATOM     31 O    LEU D  10      19.161   8.551  64.869  1.00 47.07 LIG-0.27  OA
ATOM     32 H    LEU D  11      20.193   5.687  64.959  1.00 47.51 LIG 0.16  HD
BRANCH 30 33
ATOM     33  CA  LEU D  10      19.834   7.361  66.848  1.00 47.63 LIG 0.18  C 
BRANCH 33 34
ATOM     34  CB  LEU D  10      18.688   6.599  67.508  1.00 47.29 LIG 0.04  C 
BRANCH 34 35
ATOM     35  CG  LEU D  10      18.560   5.144  67.044  1.00 46.92 LIG-0.02  C 
ATOM     36  CD1 LEU D  10      19.905   4.420  67.057  1.00 46.83 LIG 0.01  C 
ATOM     37  CD2 LEU D  10      17.585   4.391  67.886  1.00 45.50 LIG 0.01  C 
ENDBRANCH 34 35
ENDBRANCH 33 34
BRANCH 33 38
ATOM     38  N   LEU D  10      20.028   8.672  67.443  1.00 47.82 LIG-0.35  N 
ATOM     39 H    LEU D  10      19.335   8.999  67.833  1.00 47.82 LIG 0.16  HD
ATOM     40  C   ASP D   9      21.205   9.280  67.367  1.00 48.63 LIG 0.26  C 
ATOM     41 O    ASP D   9      22.178   8.797  66.792  1.00 48.10 LIG-0.27  OA
BRANCH 40 42
ATOM     42  CA  ASP D   9      21.294  10.631  68.026  1.00 49.27 LIG 0.41  C 
ATOM     43  N   ASP D   9      20.126  10.766  68.934  1.00 49.86 LIG 0.61  N 
BRANCH 42 44
ATOM     44  CB  ASP D   9      22.596  10.711  68.810  1.00 50.02 LIG 0.16  C 
BRANCH 44 45
ATOM     45  CG  ASP D   9      22.383  11.083  70.248  1.00 50.84 LIG 0.17  C 
ATOM     46 OD1  ASP D   9      21.713  12.098  70.503  1.00 53.44 LIG-0.65  OA
ATOM     47 OD2  ASP D   9      22.828  10.404  71.201  1.00 53.75 LIG-0.65  OA
ENDBRANCH 44 45
ENDBRANCH 42 44
ENDBRANCH 40 42
ENDBRANCH 33 38
ENDBRANCH 30 33
ENDBRANCH 1 29
TORSDOF 19
ENDMDL
MODEL 10
USER: ADFR SOLUTION from run 66
USER: SCORE 15.839821 LL:  -4.996 LR: -11.974 RR:   0.000 FEB:  -6.307
USER: RMSD 4.324007
USER: SEED 65
USER: STATUS no improvement in best in 16 clusters for 5 generations
USER: GENES 21
USER: genes 0 Translation |==|  0.47337 0.31020 0.47816
USER: genes 1 Rotation |==|  0.36750 0.44313 0.28621 0.92838
USER: genes 2 Torsion [N]-CA--C-[N] |==|  0.36699
USER: genes 3 Torsion [C]-N--CA-[C] |==|  0.63256
USER: genes 4 Torsion [N]-CA--C-[N] |==|  0.40033
USER: genes 5 Torsion [C]-N--CA-[CB] |==|  0.22342
USER: genes 6 Torsion [N]-CA--CB-[CG1] |==|  0.93859
USER: genes 7 Torsion [CA]-CB--CG1-[CD1] |==|  0.56719
USER: genes 8 Torsion [N]-CA--C-[OXT] |==|  0.02713
USER: genes 9 Torsion [N]-CA--CB-[CG] |==|  0.92661
USER: genes 10 Torsion [CA]-CB--CG-[CD2] |==|  0.77041
USER: genes 11 Torsion [C]-CA--CB-[CG] |==|  0.07693
USER: genes 12 Torsion [CA]-CB--CG-[CD1] |==|  0.22226
USER: genes 13 Torsion [C]-CA--N-[C] |==|  0.73887
USER: genes 14 Torsion [N]-C--CA-[N] |==|  0.61111
USER: genes 15 Torsion [C]-CA--CB-[CG] |==|  0.28364
USER: genes 16 Torsion [CA]-CB--CG-[CD2] |==|  0.39945
USER: genes 17 Torsion [C]-CA--N-[C] |==|  0.59064
USER: genes 18 Torsion [N]-C--CA-[N] |==|  0.61157
USER: genes 19 Torsion [C]-CA--CB-[CG] |==|  0.74027
USER: genes 20 Torsion [CA]-CB--CG-[OD1] |==|  0.27675
ROOT
ATOM      1  CA  LEU D  11      18.263   3.470  62.400  1.00 47.89 LIG 0.18  C 
ENDROOT
BRANCH 1 2
ATOM      2  C   LEU D  11      17.279   4.095  61.419  1.00 48.14 LIG 0.24  C 
ATOM      3 O    LEU D  11      16.168   4.455  61.786  1.00 47.13 LIG-0.27  OA
ATOM      4  N   HIS D  12      17.684   4.184  60.158  1.00 49.28 LIG-0.35  N 
ATOM      5 H    HIS D  12      18.462   3.947  59.879  1.00 49.28 LIG 0.16  HD
BRANCH 4 6
ATOM      6  CA  HIS D  12      16.797   4.712  59.126  1.00 50.49 LIG 0.18  C 
BRANCH 6 7
ATOM      7  C   HIS D  12      16.773   3.819  57.887  1.00 51.38 LIG 0.24  C 
ATOM      8  N   ILE D  13      15.596   3.738  57.290  1.00 53.16 LIG-0.34  N 
ATOM      9 H    ILE D  13      14.905   4.140  57.608  1.00 53.16 LIG 0.16  HD
ATOM     10 O    HIS D  12      17.780   3.245  57.499  1.00 51.57 LIG-0.27  OA
BRANCH 8 11
ATOM     11  CA  ILE D  13      15.284   2.996  56.057  1.00 55.12 LIG 0.19  C 
BRANCH 11 12
ATOM     12  CB  ILE D  13      15.064   1.457  56.283  1.00 55.01 LIG 0.01  C 
ATOM     13  CG2 ILE D  13      15.547   0.605  55.095  1.00 56.15 LIG 0.01  C 
BRANCH 12 14
ATOM     14  CG1 ILE D  13      15.746   1.013  57.582  1.00 55.50 LIG 0.00  C 
ATOM     15  CD1 ILE D  13      16.115  -0.494  57.627  1.00 55.45 LIG 0.01  C 
ENDBRANCH 12 14
ENDBRANCH 11 12
BRANCH 11 16
ATOM     16  C   ILE D  13      14.280   3.596  55.068  1.00 55.63 LIG 0.20  C 
ATOM     17 O    ILE D  13      13.871   2.949  54.101  1.00 56.94 LIG-0.65  OA
ATOM     18 OXT  ILE D  13      13.913   4.765  55.255  1.00 55.86 LIG-0.65  OA
ENDBRANCH 11 16
ENDBRANCH 8 11
ENDBRANCH 6 7
BRANCH 6 19
ATOM     19  CB  HIS D  12      17.184   6.140  58.738  1.00 50.55 LIG 0.10  C 
BRANCH 19 20
ATOM     20  CG  HIS D  12      17.886   6.891  59.825  1.00 49.61 LIG 0.06  A 
ATOM     21  CD2 HIS D  12      17.408   7.570  60.895  1.00 48.49 LIG 0.14  A 
ATOM     22 NE2  HIS D  12      18.492   8.067  61.575  1.00 48.62 LIG-0.25  NA
ATOM     23  CE1 HIS D  12      19.597   7.688  60.960  1.00 49.12 LIG 0.23  A 
ATOM     24 ND1  HIS D  12      19.260   6.980  59.898  1.00 49.92 LIG-0.24  NA
ENDBRANCH 19 20
ENDBRANCH 6 19
ENDBRANCH 4 6
ENDBRANCH 1 2
BRANCH 1 25
ATOM     25  CB  LEU D  11      17.754   2.075  62.743  1.00 47.69 LIG 0.04  C 
BRANCH 25 26
ATOM     26  CG  LEU D  11      16.898   1.316  61.721  1.00 48.05 LIG-0.02  C 
ATOM     27  CD1 LEU D  11      17.787   0.688  60.658  1.00 46.53 LIG 0.01  C 
ATOM     28  CD2 LEU D  11      16.007   0.279  62.361  1.00 50.43 LIG 0.01  C 
ENDBRANCH 25 26
ENDBRANCH 1 25
BRANCH 1 29
ATOM     29  N   LEU D  11      18.430   4.241  63.623  1.00 47.51 LIG-0.35  N 
ATOM     30  C   LEU D  10      19.400   5.143  63.783  1.00 47.80 LIG 0.24  C 
ATOM     31 O    LEU D  10      20.196   5.465  62.889  1.00 47.07 LIG-0.27  OA
ATOM     32 H    LEU D  11      17.848   4.061  64.230  1.00 47.51 LIG 0.16  HD
BRANCH 30 33
ATOM     33  CA  LEU D  10      19.488   5.773  65.167  1.00 47.63 LIG 0.18  C 
BRANCH 33 34
ATOM     34  CB  LEU D  10      18.215   5.520  65.970  1.00 47.29 LIG 0.04  C 
BRANCH 34 35
ATOM     35  CG  LEU D  10      18.352   4.409  67.016  1.00 46.92 LIG-0.02  C 
ATOM     36  CD1 LEU D  10      19.810   4.151  67.391  1.00 46.83 LIG 0.01  C 
ATOM     37  CD2 LEU D  10      17.573   4.726  68.249  1.00 45.50 LIG 0.01  C 
ENDBRANCH 34 35
ENDBRANCH 33 34
BRANCH 33 38
ATOM     38  N   LEU D  10      19.781   7.191  65.048  1.00 47.82 LIG-0.35  N 
ATOM     39 H    LEU D  10      19.450   7.573  64.352  1.00 47.82 LIG 0.16  HD
ATOM     40  C   ASP D   9      20.510   7.809  65.969  1.00 48.63 LIG 0.26  C 
ATOM     41 O    ASP D   9      20.985   7.239  66.949  1.00 48.10 LIG-0.27  OA
BRANCH 40 42
ATOM     42  CA  ASP D   9      20.744   9.280  65.748  1.00 49.27 LIG 0.41  C 
ATOM     43  N   ASP D   9      22.152   9.573  66.124  1.00 49.86 LIG 0.61  N 
BRANCH 42 44
ATOM     44  CB  ASP D   9      20.504   9.601  64.280  1.00 50.02 LIG 0.16  C 
BRANCH 44 45
ATOM     45  CG  ASP D   9      21.761   9.551  63.463  1.00 50.84 LIG 0.17  C 
ATOM     46 OD1  ASP D   9      21.989   8.530  62.791  1.00 53.44 LIG-0.65  OA
ATOM     47 OD2  ASP D   9      22.576  10.500  63.407  1.00 53.75 LIG-0.65  OA
ENDBRANCH 44 45
ENDBRANCH 42 44
ENDBRANCH 40 42
ENDBRANCH 33 38
ENDBRANCH 30 33
ENDBRANCH 1 29
TORSDOF 19
ENDMDL
MODEL 11
USER: ADFR SOLUTION from run 172
USER: SCORE 15.659891 LL:  -4.471 LR: -11.937 RR:   0.000 FEB:  -6.269
USER: RMSD 4.863887
USER: SEED 171
USER: STATUS no improvement in best in 11 clusters for 5 generations
USER: GENES 21
USER: genes 0 Translation |==|  0.53634 0.42840 0.42992
USER: genes 1 Rotation |==|  0.56117 0.55728 0.75736 0.92041
USER: genes 2 Torsion [N]-CA--C-[N] |==|  0.42156
USER: genes 3 Torsion [C]-N--CA-[C] |==|  0.58258
USER: genes 4 Torsion [N]-CA--C-[N] |==|  0.53333
USER: genes 5 Torsion [C]-N--CA-[CB] |==|  0.36896
USER: genes 6 Torsion [N]-CA--CB-[CG1] |==|  0.39692
USER: genes 7 Torsion [CA]-CB--CG1-[CD1] |==|  0.31316
USER: genes 8 Torsion [N]-CA--C-[OXT] |==|  0.35279
USER: genes 9 Torsion [N]-CA--CB-[CG] |==|  0.72937
USER: genes 10 Torsion [CA]-CB--CG-[CD2] |==|  0.22132
USER: genes 11 Torsion [C]-CA--CB-[CG] |==|  0.75037
USER: genes 12 Torsion [CA]-CB--CG-[CD1] |==|  0.23835
USER: genes 13 Torsion [C]-CA--N-[C] |==|  0.79878
USER: genes 14 Torsion [N]-C--CA-[N] |==|  0.37448
USER: genes 15 Torsion [C]-CA--CB-[CG] |==|  0.78750
USER: genes 16 Torsion [CA]-CB--CG-[CD2] |==|  0.73725
USER: genes 17 Torsion [C]-CA--N-[C] |==|  0.58597
USER: genes 18 Torsion [N]-C--CA-[N] |==|  0.77596
USER: genes 19 Torsion [C]-CA--CB-[CG] |==|  0.73737
USER: genes 20 Torsion [CA]-CB--CG-[OD1] |==|  0.29665
ROOT
ATOM      1  CA  LEU D  11      19.491   5.687  61.314  1.00 47.89 LIG 0.18  C 
ENDROOT
BRANCH 1 2
ATOM      2  C   LEU D  11      18.797   4.397  60.894  1.00 48.14 LIG 0.24  C 
ATOM      3 O    LEU D  11      19.095   3.327  61.406  1.00 47.13 LIG-0.27  OA
ATOM      4  N   HIS D  12      17.893   4.505  59.927  1.00 49.28 LIG-0.35  N 
ATOM      5 H    HIS D  12      17.661   5.247  59.559  1.00 49.28 LIG 0.16  HD
BRANCH 4 6
ATOM      6  CA  HIS D  12      17.213   3.323  59.408  1.00 50.49 LIG 0.18  C 
BRANCH 6 7
ATOM      7  C   HIS D  12      16.822   3.492  57.941  1.00 51.38 LIG 0.24  C 
ATOM      8  N   ILE D  13      15.990   2.570  57.485  1.00 53.16 LIG-0.34  N 
ATOM      9 H    ILE D  13      15.728   1.920  57.982  1.00 53.16 LIG 0.16  HD
ATOM     10 O    HIS D  12      17.252   4.420  57.272  1.00 51.57 LIG-0.27  OA
BRANCH 8 11
ATOM     11  CA  ILE D  13      15.407   2.503  56.134  1.00 55.12 LIG 0.19  C 
BRANCH 11 12
ATOM     12  CB  ILE D  13      15.498   1.079  55.476  1.00 55.01 LIG 0.01  C 
ATOM     13  CG2 ILE D  13      15.747  -0.040  56.505  1.00 56.15 LIG 0.01  C 
BRANCH 12 14
ATOM     14  CG1 ILE D  13      14.233   0.795  54.660  1.00 55.50 LIG 0.00  C 
ATOM     15  CD1 ILE D  13      14.466   0.710  53.128  1.00 55.45 LIG 0.01  C 
ENDBRANCH 12 14
ENDBRANCH 11 12
BRANCH 11 16
ATOM     16  C   ILE D  13      14.062   3.188  55.875  1.00 55.63 LIG 0.20  C 
ATOM     17 O    ILE D  13      13.072   2.933  56.566  1.00 56.94 LIG-0.65  OA
ATOM     18 OXT  ILE D  13      13.993   3.987  54.931  1.00 55.86 LIG-0.65  OA
ENDBRANCH 11 16
ENDBRANCH 8 11
ENDBRANCH 6 7
BRANCH 6 19
ATOM     19  CB  HIS D  12      15.979   2.981  60.246  1.00 50.55 LIG 0.10  C 
BRANCH 19 20
ATOM     20  CG  HIS D  12      16.222   1.918  61.270  1.00 49.61 LIG 0.06  A 
ATOM     21  CD2 HIS D  12      16.798   1.972  62.494  1.00 48.49 LIG 0.14  A 
ATOM     22 NE2  HIS D  12      16.758   0.703  63.015  1.00 48.62 LIG-0.25  NA
ATOM     23  CE1 HIS D  12      16.157  -0.097  62.155  1.00 49.12 LIG 0.23  A 
ATOM     24 ND1  HIS D  12      15.827   0.610  61.090  1.00 49.92 LIG-0.24  NA
ENDBRANCH 19 20
ENDBRANCH 6 19
ENDBRANCH 4 6
ENDBRANCH 1 2
BRANCH 1 25
ATOM     25  CB  LEU D  11      20.693   5.887  60.398  1.00 47.69 LIG 0.04  C 
BRANCH 25 26
ATOM     26  CG  LEU D  11      22.049   5.293  60.801  1.00 48.05 LIG-0.02  C 
ATOM     27  CD1 LEU D  11      22.145   3.847  60.336  1.00 46.53 LIG 0.01  C 
ATOM     28  CD2 LEU D  11      23.216   6.102  60.289  1.00 50.43 LIG 0.01  C 
ENDBRANCH 25 26
ENDBRANCH 1 25
BRANCH 1 29
ATOM     29  N   LEU D  11      19.932   5.682  62.701  1.00 47.51 LIG-0.35  N 
ATOM     30  C   LEU D  10      19.088   5.775  63.730  1.00 47.80 LIG 0.24  C 
ATOM     31 O    LEU D  10      17.855   5.797  63.609  1.00 47.07 LIG-0.27  OA
ATOM     32 H    LEU D  11      20.784   5.613  62.794  1.00 47.51 LIG 0.16  HD
BRANCH 30 33
ATOM     33  CA  LEU D  10      19.737   5.864  65.105  1.00 47.63 LIG 0.18  C 
BRANCH 33 34
ATOM     34  CB  LEU D  10      19.705   4.516  65.818  1.00 47.29 LIG 0.04  C 
BRANCH 34 35
ATOM     35  CG  LEU D  10      18.334   4.153  66.399  1.00 46.92 LIG-0.02  C 
ATOM     36  CD1 LEU D  10      18.032   2.662  66.265  1.00 46.83 LIG 0.01  C 
ATOM     37  CD2 LEU D  10      18.230   4.551  67.834  1.00 45.50 LIG 0.01  C 
ENDBRANCH 34 35
ENDBRANCH 33 34
BRANCH 33 38
ATOM     38  N   LEU D  10      19.096   6.907  65.888  1.00 47.82 LIG-0.35  N 
ATOM     39 H    LEU D  10      18.263   7.032  65.714  1.00 47.82 LIG 0.16  HD
ATOM     40  C   ASP D   9      19.785   7.590  66.794  1.00 48.63 LIG 0.26  C 
ATOM     41 O    ASP D   9      20.979   7.404  67.016  1.00 48.10 LIG-0.27  OA
BRANCH 40 42
ATOM     42  CA  ASP D   9      19.018   8.642  67.552  1.00 49.27 LIG 0.41  C 
ATOM     43  N   ASP D   9      18.938   9.849  66.689  1.00 49.86 LIG 0.61  N 
BRANCH 42 44
ATOM     44  CB  ASP D   9      17.625   8.109  67.859  1.00 50.02 LIG 0.16  C 
BRANCH 44 45
ATOM     45  CG  ASP D   9      16.609   8.521  66.836  1.00 50.84 LIG 0.17  C 
ATOM     46 OD1  ASP D   9      16.193   7.664  66.038  1.00 53.44 LIG-0.65  OA
ATOM     47 OD2  ASP D   9      16.143   9.680  66.767  1.00 53.75 LIG-0.65  OA
ENDBRANCH 44 45
ENDBRANCH 42 44
ENDBRANCH 40 42
ENDBRANCH 33 38
ENDBRANCH 30 33
ENDBRANCH 1 29
TORSDOF 19
ENDMDL
MODEL 12
USER: ADFR SOLUTION from run 87
USER: SCORE 15.799787 LL:  -4.267 LR: -11.780 RR:   0.000 FEB:  -6.113
USER: RMSD 3.240978
USER: SEED 86
USER: STATUS no improvement in best in 11 clusters for 5 generations
USER: GENES 21
USER: genes 0 Translation |==|  0.54418 0.41050 0.41137
USER: genes 1 Rotation |==|  0.50708 0.48647 0.52471 0.99916
USER: genes 2 Torsion [N]-CA--C-[N] |==|  0.35069
USER: genes 3 Torsion [C]-N--CA-[C] |==|  0.79488
USER: genes 4 Torsion [N]-CA--C-[N] |==|  0.43170
USER: genes 5 Torsion [C]-N--CA-[CB] |==|  0.23820
USER: genes 6 Torsion [N]-CA--CB-[CG1] |==|  0.96509
USER: genes 7 Torsion [CA]-CB--CG1-[CD1] |==|  0.51477
USER: genes 8 Torsion [N]-CA--C-[OXT] |==|  0.20307
USER: genes 9 Torsion [N]-CA--CB-[CG] |==|  0.22439
USER: genes 10 Torsion [CA]-CB--CG-[CD2] |==|  0.30096
USER: genes 11 Torsion [C]-CA--CB-[CG] |==|  0.46309
USER: genes 12 Torsion [CA]-CB--CG-[CD1] |==|  0.84031
USER: genes 13 Torsion [C]-CA--N-[C] |==|  0.76332
USER: genes 14 Torsion [N]-C--CA-[N] |==|  0.44444
USER: genes 15 Torsion [C]-CA--CB-[CG] |==|  0.39442
USER: genes 16 Torsion [CA]-CB--CG-[CD2] |==|  0.65578
USER: genes 17 Torsion [C]-CA--N-[C] |==|  0.55552
USER: genes 18 Torsion [N]-C--CA-[N] |==|  0.34108
USER: genes 19 Torsion [C]-CA--CB-[CG] |==|  0.59764
USER: genes 20 Torsion [CA]-CB--CG-[OD1] |==|  0.41677
ROOT
ATOM      1  CA  LEU D  11      19.643   5.351  60.897  1.00 47.89 LIG 0.18  C 
ENDROOT
BRANCH 1 2
ATOM      2  C   LEU D  11      18.259   5.105  60.311  1.00 48.14 LIG 0.24  C 
ATOM      3 O    LEU D  11      17.602   4.125  60.638  1.00 47.13 LIG-0.27  OA
ATOM      4  N   HIS D  12      17.838   5.985  59.410  1.00 49.28 LIG-0.35  N 
ATOM      5 H    HIS D  12      18.278   6.685  59.172  1.00 49.28 LIG 0.16  HD
BRANCH 4 6
ATOM      6  CA  HIS D  12      16.552   5.811  58.743  1.00 50.49 LIG 0.18  C 
BRANCH 6 7
ATOM      7  C   HIS D  12      16.600   4.694  57.703  1.00 51.38 LIG 0.24  C 
ATOM      8  N   ILE D  13      15.428   4.140  57.437  1.00 53.16 LIG-0.34  N 
ATOM      9 H    ILE D  13      14.715   4.383  57.851  1.00 53.16 LIG 0.16  HD
ATOM     10 O    HIS D  12      17.650   4.367  57.170  1.00 51.57 LIG-0.27  OA
BRANCH 8 11
ATOM     11  CA  ILE D  13      15.160   3.079  56.451  1.00 55.12 LIG 0.19  C 
BRANCH 11 12
ATOM     12  CB  ILE D  13      15.390   1.627  57.005  1.00 55.01 LIG 0.01  C 
ATOM     13  CG2 ILE D  13      16.131   0.718  56.006  1.00 56.15 LIG 0.01  C 
BRANCH 12 14
ATOM     14  CG1 ILE D  13      16.137   1.686  58.341  1.00 55.50 LIG 0.00  C 
ATOM     15  CD1 ILE D  13      16.532   0.298  58.914  1.00 55.45 LIG 0.01  C 
ENDBRANCH 12 14
ENDBRANCH 11 12
BRANCH 11 16
ATOM     16  C   ILE D  13      13.908   3.185  55.575  1.00 55.63 LIG 0.20  C 
ATOM     17 O    ILE D  13      12.942   2.438  55.749  1.00 56.94 LIG-0.65  OA
ATOM     18 OXT  ILE D  13      13.908   4.029  54.669  1.00 55.86 LIG-0.65  OA
ENDBRANCH 11 16
ENDBRANCH 8 11
ENDBRANCH 6 7
BRANCH 6 19
ATOM     19  CB  HIS D  12      16.083   7.114  58.094  1.00 50.55 LIG 0.10  C 
BRANCH 19 20
ATOM     20  CG  HIS D  12      16.717   7.391  56.768  1.00 49.61 LIG 0.06  A 
ATOM     21  CD2 HIS D  12      16.215   7.352  55.511  1.00 48.49 LIG 0.14  A 
ATOM     22 NE2  HIS D  12      17.232   7.701  54.658  1.00 48.62 LIG-0.25  NA
ATOM     23  CE1 HIS D  12      18.313   7.970  55.365  1.00 49.12 LIG 0.23  A 
ATOM     24 ND1  HIS D  12      18.032   7.786  56.642  1.00 49.92 LIG-0.24  NA
ENDBRANCH 19 20
ENDBRANCH 6 19
ENDBRANCH 4 6
ENDBRANCH 1 2
BRANCH 1 25
ATOM     25  CB  LEU D  11      20.560   4.233  60.411  1.00 47.69 LIG 0.04  C 
BRANCH 25 26
ATOM     26  CG  LEU D  11      22.077   4.380  60.584  1.00 48.05 LIG-0.02  C 
ATOM     27  CD1 LEU D  11      22.563   5.645  59.893  1.00 46.53 LIG 0.01  C 
ATOM     28  CD2 LEU D  11      22.504   4.358  62.032  1.00 50.43 LIG 0.01  C 
ENDBRANCH 25 26
ENDBRANCH 1 25
BRANCH 1 29
ATOM     29  N   LEU D  11      19.658   5.392  62.352  1.00 47.51 LIG-0.35  N 
ATOM     30  C   LEU D  10      19.390   6.498  63.047  1.00 47.80 LIG 0.24  C 
ATOM     31 O    LEU D  10      19.030   7.566  62.531  1.00 47.07 LIG-0.27  OA
ATOM     32 H    LEU D  11      19.855   4.640  62.719  1.00 47.51 LIG 0.16  HD
BRANCH 30 33
ATOM     33  CA  LEU D  10      19.560   6.383  64.556  1.00 47.63 LIG 0.18  C 
BRANCH 33 34
ATOM     34  CB  LEU D  10      18.405   5.607  65.183  1.00 47.29 LIG 0.04  C 
BRANCH 34 35
ATOM     35  CG  LEU D  10      18.828   4.682  66.330  1.00 46.92 LIG-0.02  C 
ATOM     36  CD1 LEU D  10      18.265   5.143  67.673  1.00 46.83 LIG 0.01  C 
ATOM     37  CD2 LEU D  10      18.407   3.274  66.074  1.00 45.50 LIG 0.01  C 
ENDBRANCH 34 35
ENDBRANCH 33 34
BRANCH 33 38
ATOM     38  N   LEU D  10      19.706   7.704  65.141  1.00 47.82 LIG-0.35  N 
ATOM     39 H    LEU D  10      19.418   8.351  64.653  1.00 47.82 LIG 0.16  HD
ATOM     40  C   ASP D   9      20.250   7.854  66.343  1.00 48.63 LIG 0.26  C 
ATOM     41 O    ASP D   9      20.668   6.915  67.016  1.00 48.10 LIG-0.27  OA
BRANCH 40 42
ATOM     42  CA  ASP D   9      20.345   9.268  66.853  1.00 49.27 LIG 0.41  C 
ATOM     43  N   ASP D   9      19.624   9.327  68.151  1.00 49.86 LIG 0.61  N 
BRANCH 42 44
ATOM     44  CB  ASP D   9      21.813   9.627  67.037  1.00 50.02 LIG 0.16  C 
BRANCH 44 45
ATOM     45  CG  ASP D   9      22.045  10.526  68.216  1.00 50.84 LIG 0.17  C 
ATOM     46 OD1  ASP D   9      23.132  10.448  68.813  1.00 53.44 LIG-0.65  OA
ATOM     47 OD2  ASP D   9      21.205  11.368  68.606  1.00 53.75 LIG-0.65  OA
ENDBRANCH 44 45
ENDBRANCH 42 44
ENDBRANCH 40 42
ENDBRANCH 33 38
ENDBRANCH 30 33
ENDBRANCH 1 29
TORSDOF 19
ENDMDL
MODEL 13
USER: ADFR SOLUTION from run 172
USER: SCORE 15.405520 LL:  -3.991 LR: -11.695 RR:   0.000 FEB:  -6.028
USER: RMSD 3.506971
USER: SEED 171
USER: STATUS no improvement in best in 11 clusters for 5 generations
USER: GENES 21
USER: genes 0 Translation |==|  0.56133 0.41263 0.49100
USER: genes 1 Rotation |==|  0.50081 0.50311 0.60527 0.98878
USER: genes 2 Torsion [N]-CA--C-[N] |==|  0.38654
USER: genes 3 Torsion [C]-N--CA-[C] |==|  0.62386
USER: genes 4 Torsion [N]-CA--C-[N] |==|  0.45136
USER: genes 5 Torsion [C]-N--CA-[CB] |==|  0.44911
USER: genes 6 Torsion [N]-CA--CB-[CG1] |==|  0.87465
USER: genes 7 Torsion [CA]-CB--CG1-[CD1] |==|  0.56891
USER: genes 8 Torsion [N]-CA--C-[OXT] |==|  0.15838
USER: genes 9 Torsion [N]-CA--CB-[CG] |==|  0.63081
USER: genes 10 Torsion [CA]-CB--CG-[CD2] |==|  0.00613
USER: genes 11 Torsion [C]-CA--CB-[CG] |==|  0.24297
USER: genes 12 Torsion [CA]-CB--CG-[CD1] |==|  0.27960
USER: genes 13 Torsion [C]-CA--N-[C] |==|  0.82333
USER: genes 14 Torsion [N]-C--CA-[N] |==|  0.47747
USER: genes 15 Torsion [C]-CA--CB-[CG] |==|  0.84803
USER: genes 16 Torsion [CA]-CB--CG-[CD2] |==|  0.69965
USER: genes 17 Torsion [C]-CA--N-[C] |==|  0.65899
USER: genes 18 Torsion [N]-C--CA-[N] |==|  0.23821
USER: genes 19 Torsion [C]-CA--CB-[CG] |==|  0.75216
USER: genes 20 Torsion [CA]-CB--CG-[OD1] |==|  0.33077
ROOT
ATOM      1  CA  LEU D  11      19.978   5.391  62.689  1.00 47.89 LIG 0.18  C 
ENDROOT
BRANCH 1 2
ATOM      2  C   LEU D  11      18.717   4.690  62.200  1.00 48.14 LIG 0.24  C 
ATOM      3 O    LEU D  11      18.300   3.683  62.757  1.00 47.13 LIG-0.27  OA
ATOM      4  N   HIS D  12      18.134   5.212  61.127  1.00 49.28 LIG-0.35  N 
ATOM      5 H    HIS D  12      18.403   5.923  60.725  1.00 49.28 LIG 0.16  HD
BRANCH 4 6
ATOM      6  CA  HIS D  12      16.954   4.584  60.541  1.00 50.49 LIG 0.18  C 
BRANCH 6 7
ATOM      7  C   HIS D  12      17.051   4.506  59.018  1.00 51.38 LIG 0.24  C 
ATOM      8  N   ILE D  13      16.216   3.646  58.458  1.00 53.16 LIG-0.34  N 
ATOM      9 H    ILE D  13      15.692   3.157  58.934  1.00 53.16 LIG 0.16  HD
ATOM     10 O    HIS D  12      17.839   5.203  58.396  1.00 51.57 LIG-0.27  OA
BRANCH 8 11
ATOM     11  CA  ILE D  13      16.051   3.392  57.017  1.00 55.12 LIG 0.19  C 
BRANCH 11 12
ATOM     12  CB  ILE D  13      15.338   2.030  56.692  1.00 55.01 LIG 0.01  C 
ATOM     13  CG2 ILE D  13      15.407   1.662  55.198  1.00 56.15 LIG 0.01  C 
BRANCH 12 14
ATOM     14  CG1 ILE D  13      15.927   0.909  57.555  1.00 55.50 LIG 0.00  C 
ATOM     15  CD1 ILE D  13      15.776  -0.512  56.947  1.00 55.45 LIG 0.01  C 
ENDBRANCH 12 14
ENDBRANCH 11 12
BRANCH 11 16
ATOM     16  C   ILE D  13      15.577   4.536  56.115  1.00 55.63 LIG 0.20  C 
ATOM     17 O    ILE D  13      14.577   4.416  55.403  1.00 56.94 LIG-0.65  OA
ATOM     18 OXT  ILE D  13      16.247   5.578  56.105  1.00 55.86 LIG-0.65  OA
ENDBRANCH 11 16
ENDBRANCH 8 11
ENDBRANCH 6 7
BRANCH 6 19
ATOM     19  CB  HIS D  12      15.675   5.316  60.951  1.00 50.55 LIG 0.10  C 
BRANCH 19 20
ATOM     20  CG  HIS D  12      14.583   4.406  61.417  1.00 49.61 LIG 0.06  A 
ATOM     21  CD2 HIS D  12      14.545   3.062  61.574  1.00 48.49 LIG 0.14  A 
ATOM     22 NE2  HIS D  12      13.292   2.744  62.035  1.00 48.62 LIG-0.25  NA
ATOM     23  CE1 HIS D  12      12.593   3.853  62.181  1.00 49.12 LIG 0.23  A 
ATOM     24 ND1  HIS D  12      13.346   4.871  61.810  1.00 49.92 LIG-0.24  NA
ENDBRANCH 19 20
ENDBRANCH 6 19
ENDBRANCH 4 6
ENDBRANCH 1 2
BRANCH 1 25
ATOM     25  CB  LEU D  11      21.177   4.602  62.174  1.00 47.69 LIG 0.04  C 
BRANCH 25 26
ATOM     26  CG  LEU D  11      21.744   4.923  60.785  1.00 48.05 LIG-0.02  C 
ATOM     27  CD1 LEU D  11      22.989   5.790  60.916  1.00 46.53 LIG 0.01  C 
ATOM     28  CD2 LEU D  11      22.033   3.684  59.971  1.00 50.43 LIG 0.01  C 
ENDBRANCH 25 26
ENDBRANCH 1 25
BRANCH 1 29
ATOM     29  N   LEU D  11      20.055   5.501  64.138  1.00 47.51 LIG-0.35  N 
ATOM     30  C   LEU D  10      19.181   6.206  64.858  1.00 47.80 LIG 0.24  C 
ATOM     31 O    LEU D  10      18.185   6.765  64.377  1.00 47.07 LIG-0.27  OA
ATOM     32 H    LEU D  11      20.714   5.071  64.485  1.00 47.51 LIG 0.16  HD
BRANCH 30 33
ATOM     33  CA  LEU D  10      19.482   6.299  66.348  1.00 47.63 LIG 0.18  C 
BRANCH 33 34
ATOM     34  CB  LEU D  10      19.426   4.924  67.009  1.00 47.29 LIG 0.04  C 
BRANCH 34 35
ATOM     35  CG  LEU D  10      18.106   4.178  66.779  1.00 46.92 LIG-0.02  C 
ATOM     36  CD1 LEU D  10      18.335   2.758  66.266  1.00 46.83 LIG 0.01  C 
ATOM     37  CD2 LEU D  10      17.288   4.128  68.026  1.00 45.50 LIG 0.01  C 
ENDBRANCH 34 35
ENDBRANCH 33 34
BRANCH 33 38
ATOM     38  N   LEU D  10      18.573   7.241  66.979  1.00 47.82 LIG-0.35  N 
ATOM     39 H    LEU D  10      17.738   7.061  66.880  1.00 47.82 LIG 0.16  HD
ATOM     40  C   ASP D   9      19.043   8.286  67.649  1.00 48.63 LIG 0.26  C 
ATOM     41 O    ASP D   9      20.242   8.530  67.764  1.00 48.10 LIG-0.27  OA
BRANCH 40 42
ATOM     42  CA  ASP D   9      18.011   9.192  68.267  1.00 49.27 LIG 0.41  C 
ATOM     43  N   ASP D   9      17.659   8.630  69.597  1.00 49.86 LIG 0.61  N 
BRANCH 42 44
ATOM     44  CB  ASP D   9      18.605  10.586  68.415  1.00 50.02 LIG 0.16  C 
BRANCH 44 45
ATOM     45  CG  ASP D   9      19.312  10.778  69.724  1.00 50.84 LIG 0.17  C 
ATOM     46 OD1  ASP D   9      20.526  11.047  69.706  1.00 53.44 LIG-0.65  OA
ATOM     47 OD2  ASP D   9      18.730  10.706  70.830  1.00 53.75 LIG-0.65  OA
ENDBRANCH 44 45
ENDBRANCH 42 44
ENDBRANCH 40 42
ENDBRANCH 33 38
ENDBRANCH 30 33
ENDBRANCH 1 29
TORSDOF 19
ENDMDL
MODEL 14
USER: ADFR SOLUTION from run 22
USER: SCORE 15.382376 LL:  -4.158 LR: -11.677 RR:   0.000 FEB:  -6.009
USER: RMSD 4.321667
USER: SEED 21
USER: STATUS searching
USER: GENES 21
USER: genes 0 Translation |==|  0.51561 0.42245 0.42972
USER: genes 1 Rotation |==|  0.57261 0.50878 0.67055 0.96429
USER: genes 2 Torsion [N]-CA--C-[N] |==|  0.26924
USER: genes 3 Torsion [C]-N--CA-[C] |==|  0.81561
USER: genes 4 Torsion [N]-CA--C-[N] |==|  0.46111
USER: genes 5 Torsion [C]-N--CA-[CB] |==|  0.29451
USER: genes 6 Torsion [N]-CA--CB-[CG1] |==|  0.36057
USER: genes 7 Torsion [CA]-CB--CG1-[CD1] |==|  0.45216
USER: genes 8 Torsion [N]-CA--C-[OXT] |==|  0.35425
USER: genes 9 Torsion [N]-CA--CB-[CG] |==|  0.69335
USER: genes 10 Torsion [CA]-CB--CG-[CD2] |==|  0.50730
USER: genes 11 Torsion [C]-CA--CB-[CG] |==|  0.71737
USER: genes 12 Torsion [CA]-CB--CG-[CD1] |==|  0.40340
USER: genes 13 Torsion [C]-CA--N-[C] |==|  0.74742
USER: genes 14 Torsion [N]-C--CA-[N] |==|  0.45478
USER: genes 15 Torsion [C]-CA--CB-[CG] |==|  0.50999
USER: genes 16 Torsion [CA]-CB--CG-[CD2] |==|  0.22966
USER: genes 17 Torsion [C]-CA--N-[C] |==|  0.67223
USER: genes 18 Torsion [N]-C--CA-[N] |==|  0.76868
USER: genes 19 Torsion [C]-CA--CB-[CG] |==|  0.73666
USER: genes 20 Torsion [CA]-CB--CG-[OD1] |==|  0.78691
ROOT
ATOM      1  CA  LEU D  11      19.086   5.575  61.310  1.00 47.89 LIG 0.18  C 
ENDROOT
BRANCH 1 2
ATOM      2  C   LEU D  11      17.999   4.702  60.698  1.00 48.14 LIG 0.24  C 
ATOM      3 O    LEU D  11      18.252   3.578  60.285  1.00 47.13 LIG-0.27  OA
ATOM      4  N   HIS D  12      16.791   5.247  60.606  1.00 49.28 LIG-0.35  N 
ATOM      5 H    HIS D  12      16.588   6.030  60.897  1.00 49.28 LIG 0.16  HD
BRANCH 4 6
ATOM      6  CA  HIS D  12      15.691   4.519  59.982  1.00 50.49 LIG 0.18  C 
BRANCH 6 7
ATOM      7  C   HIS D  12      15.927   4.307  58.488  1.00 51.38 LIG 0.24  C 
ATOM      8  N   ILE D  13      15.126   3.417  57.926  1.00 53.16 LIG-0.34  N 
ATOM      9 H    ILE D  13      14.547   2.982  58.389  1.00 53.16 LIG 0.16  HD
ATOM     10 O    HIS D  12      16.789   4.932  57.886  1.00 51.57 LIG-0.27  OA
BRANCH 8 11
ATOM     11  CA  ILE D  13      15.090   3.041  56.503  1.00 55.12 LIG 0.19  C 
BRANCH 11 12
ATOM     12  CB  ILE D  13      15.716   1.632  56.203  1.00 55.01 LIG 0.01  C 
ATOM     13  CG2 ILE D  13      16.117   0.873  57.482  1.00 56.15 LIG 0.01  C 
BRANCH 12 14
ATOM     14  CG1 ILE D  13      14.750   0.796  55.357  1.00 55.50 LIG 0.00  C 
ATOM     15  CD1 ILE D  13      15.406  -0.422  54.653  1.00 55.45 LIG 0.01  C 
ENDBRANCH 12 14
ENDBRANCH 11 12
BRANCH 11 16
ATOM     16  C   ILE D  13      13.809   3.300  55.703  1.00 55.63 LIG 0.20  C 
ATOM     17 O    ILE D  13      12.718   2.873  56.089  1.00 56.94 LIG-0.65  OA
ATOM     18 OXT  ILE D  13      13.909   3.930  54.641  1.00 55.86 LIG-0.65  OA
ENDBRANCH 11 16
ENDBRANCH 8 11
ENDBRANCH 6 7
BRANCH 6 19
ATOM     19  CB  HIS D  12      14.356   5.231  60.208  1.00 50.55 LIG 0.10  C 
BRANCH 19 20
ATOM     20  CG  HIS D  12      13.433   4.503  61.132  1.00 49.61 LIG 0.06  A 
ATOM     21  CD2 HIS D  12      12.170   4.780  61.536  1.00 48.49 LIG 0.14  A 
ATOM     22 NE2  HIS D  12      11.788   3.775  62.388  1.00 48.62 LIG-0.25  NA
ATOM     23  CE1 HIS D  12      12.770   2.898  62.487  1.00 49.12 LIG 0.23  A 
ATOM     24 ND1  HIS D  12      13.777   3.316  61.742  1.00 49.92 LIG-0.24  NA
ENDBRANCH 19 20
ENDBRANCH 6 19
ENDBRANCH 4 6
ENDBRANCH 1 2
BRANCH 1 25
ATOM     25  CB  LEU D  11      20.378   5.317  60.541  1.00 47.69 LIG 0.04  C 
BRANCH 25 26
ATOM     26  CG  LEU D  11      21.447   4.405  61.157  1.00 48.05 LIG-0.02  C 
ATOM     27  CD1 LEU D  11      22.149   3.611  60.065  1.00 46.53 LIG 0.01  C 
ATOM     28  CD2 LEU D  11      22.445   5.162  62.001  1.00 50.43 LIG 0.01  C 
ENDBRANCH 25 26
ENDBRANCH 1 25
BRANCH 1 29
ATOM     29  N   LEU D  11      19.305   5.320  62.726  1.00 47.51 LIG-0.35  N 
ATOM     30  C   LEU D  10      18.660   5.981  63.688  1.00 47.80 LIG 0.24  C 
ATOM     31 O    LEU D  10      17.765   6.812  63.473  1.00 47.07 LIG-0.27  OA
ATOM     32 H    LEU D  11      19.887   4.707  62.883  1.00 47.51 LIG 0.16  HD
BRANCH 30 33
ATOM     33  CA  LEU D  10      19.096   5.659  65.112  1.00 47.63 LIG 0.18  C 
BRANCH 33 34
ATOM     34  CB  LEU D  10      18.631   4.267  65.529  1.00 47.29 LIG 0.04  C 
BRANCH 34 35
ATOM     35  CG  LEU D  10      18.961   3.912  66.983  1.00 46.92 LIG-0.02  C 
ATOM     36  CD1 LEU D  10      20.349   4.403  67.391  1.00 46.83 LIG 0.01  C 
ATOM     37  CD2 LEU D  10      17.944   4.470  67.922  1.00 45.50 LIG 0.01  C 
ENDBRANCH 34 35
ENDBRANCH 33 34
BRANCH 33 38
ATOM     38  N   LEU D  10      18.616   6.686  66.021  1.00 47.82 LIG-0.35  N 
ATOM     39 H    LEU D  10      17.761   6.761  66.065  1.00 47.82 LIG 0.16  HD
ATOM     40  C   ASP D   9      19.473   7.428  66.712  1.00 48.63 LIG 0.26  C 
ATOM     41 O    ASP D   9      20.693   7.312  66.622  1.00 48.10 LIG-0.27  OA
BRANCH 40 42
ATOM     42  CA  ASP D   9      18.864   8.457  67.629  1.00 49.27 LIG 0.41  C 
ATOM     43  N   ASP D   9      18.555   9.660  66.814  1.00 49.86 LIG 0.61  N 
BRANCH 42 44
ATOM     44  CB  ASP D   9      17.594   7.881  68.240  1.00 50.02 LIG 0.16  C 
BRANCH 44 45
ATOM     45  CG  ASP D   9      16.360   8.265  67.478  1.00 50.84 LIG 0.17  C 
ATOM     46 OD1  ASP D   9      15.912   9.416  67.620  1.00 53.44 LIG-0.65  OA
ATOM     47 OD2  ASP D   9      15.779   7.489  66.687  1.00 53.75 LIG-0.65  OA
ENDBRANCH 44 45
ENDBRANCH 42 44
ENDBRANCH 40 42
ENDBRANCH 33 38
ENDBRANCH 30 33
ENDBRANCH 1 29
TORSDOF 19
ENDMDL
MODEL 15
USER: ADFR SOLUTION from run 51
USER: SCORE 14.819079 LL:  -4.518 LR: -11.664 RR:   0.000 FEB:  -5.996
USER: RMSD 3.733360
USER: SEED 50
USER: STATUS no improvement in best in 9 clusters for 5 generations
USER: GENES 21
USER: genes 0 Translation |==|  0.53431 0.38160 0.47494
USER: genes 1 Rotation |==|  0.46988 0.50085 0.68933 0.96179
USER: genes 2 Torsion [N]-CA--C-[N] |==|  0.42195
USER: genes 3 Torsion [C]-N--CA-[C] |==|  0.54444
USER: genes 4 Torsion [N]-CA--C-[N] |==|  0.61621
USER: genes 5 Torsion [C]-N--CA-[CB] |==|  0.29964
USER: genes 6 Torsion [N]-CA--CB-[CG1] |==|  0.91068
USER: genes 7 Torsion [CA]-CB--CG1-[CD1] |==|  0.36702
USER: genes 8 Torsion [N]-CA--C-[OXT] |==|  0.43840
USER: genes 9 Torsion [N]-CA--CB-[CG] |==|  0.13118
USER: genes 10 Torsion [CA]-CB--CG-[CD2] |==|  0.32073
USER: genes 11 Torsion [C]-CA--CB-[CG] |==|  0.21406
USER: genes 12 Torsion [CA]-CB--CG-[CD1] |==|  0.31125
USER: genes 13 Torsion [C]-CA--N-[C] |==|  0.73217
USER: genes 14 Torsion [N]-C--CA-[N] |==|  0.35063
USER: genes 15 Torsion [C]-CA--CB-[CG] |==|  0.30825
USER: genes 16 Torsion [CA]-CB--CG-[CD2] |==|  0.35198
USER: genes 17 Torsion [C]-CA--N-[C] |==|  0.66443
USER: genes 18 Torsion [N]-C--CA-[N] |==|  0.75342
USER: genes 19 Torsion [C]-CA--CB-[CG] |==|  0.72867
USER: genes 20 Torsion [CA]-CB--CG-[OD1] |==|  0.30693
ROOT
ATOM      1  CA  LEU D  11      19.451   4.809  62.327  1.00 47.89 LIG 0.18  C 
ENDROOT
BRANCH 1 2
ATOM      2  C   LEU D  11      18.536   3.665  61.910  1.00 48.14 LIG 0.24  C 
ATOM      3 O    LEU D  11      18.282   2.749  62.681  1.00 47.13 LIG-0.27  OA
ATOM      4  N   HIS D  12      18.076   3.706  60.665  1.00 49.28 LIG-0.35  N 
ATOM      5 H    HIS D  12      18.233   4.343  60.109  1.00 49.28 LIG 0.16  HD
BRANCH 4 6
ATOM      6  CA  HIS D  12      17.240   2.629  60.144  1.00 50.49 LIG 0.18  C 
BRANCH 6 7
ATOM      7  C   HIS D  12      17.149   2.669  58.620  1.00 51.38 LIG 0.24  C 
ATOM      8  N   ILE D  13      15.939   2.436  58.136  1.00 53.16 LIG-0.34  N 
ATOM      9 H    ILE D  13      15.279   2.250  58.654  1.00 53.16 LIG 0.16  HD
ATOM     10 O    HIS D  12      18.129   2.907  57.931  1.00 51.57 LIG-0.27  OA
BRANCH 8 11
ATOM     11  CA  ILE D  13      15.540   2.456  56.719  1.00 55.12 LIG 0.19  C 
BRANCH 11 12
ATOM     12  CB  ILE D  13      15.252   1.031  56.123  1.00 55.01 LIG 0.01  C 
ATOM     13  CG2 ILE D  13      15.407   0.983  54.591  1.00 56.15 LIG 0.01  C 
BRANCH 12 14
ATOM     14  CG1 ILE D  13      16.152  -0.012  56.793  1.00 55.50 LIG 0.00  C 
ATOM     15  CD1 ILE D  13      15.406  -1.286  57.272  1.00 55.45 LIG 0.01  C 
ENDBRANCH 12 14
ENDBRANCH 11 12
BRANCH 11 16
ATOM     16  C   ILE D  13      14.530   3.507  56.251  1.00 55.63 LIG 0.20  C 
ATOM     17 O    ILE D  13      13.740   4.031  57.041  1.00 56.94 LIG-0.65  OA
ATOM     18 OXT  ILE D  13      14.514   3.796  55.046  1.00 55.86 LIG-0.65  OA
ENDBRANCH 11 16
ENDBRANCH 8 11
ENDBRANCH 6 7
BRANCH 6 19
ATOM     19  CB  HIS D  12      15.839   2.668  60.757  1.00 50.55 LIG 0.10  C 
BRANCH 19 20
ATOM     20  CG  HIS D  12      15.217   4.028  60.756  1.00 49.61 LIG 0.06  A 
ATOM     21  CD2 HIS D  12      14.122   4.510  60.121  1.00 48.49 LIG 0.14  A 
ATOM     22 NE2  HIS D  12      13.999   5.830  60.473  1.00 48.62 LIG-0.25  NA
ATOM     23  CE1 HIS D  12      14.967   6.144  61.313  1.00 49.12 LIG 0.23  A 
ATOM     24 ND1  HIS D  12      15.720   5.075  61.497  1.00 49.92 LIG-0.24  NA
ENDBRANCH 19 20
ENDBRANCH 6 19
ENDBRANCH 4 6
ENDBRANCH 1 2
BRANCH 1 25
ATOM     25  CB  LEU D  11      20.874   4.436  61.928  1.00 47.69 LIG 0.04  C 
BRANCH 25 26
ATOM     26  CG  LEU D  11      21.297   4.559  60.458  1.00 48.05 LIG-0.02  C 
ATOM     27  CD1 LEU D  11      22.319   5.675  60.299  1.00 46.53 LIG 0.01  C 
ATOM     28  CD2 LEU D  11      21.821   3.262  59.891  1.00 50.43 LIG 0.01  C 
ENDBRANCH 25 26
ENDBRANCH 1 25
BRANCH 1 29
ATOM     29  N   LEU D  11      19.406   5.096  63.753  1.00 47.51 LIG-0.35  N 
ATOM     30  C   LEU D  10      18.640   6.055  64.275  1.00 47.80 LIG 0.24  C 
ATOM     31 O    LEU D  10      17.842   6.735  63.614  1.00 47.07 LIG-0.27  OA
ATOM     32 H    LEU D  11      19.918   4.592  64.226  1.00 47.51 LIG 0.16  HD
BRANCH 30 33
ATOM     33  CA  LEU D  10      18.804   6.285  65.772  1.00 47.63 LIG 0.18  C 
BRANCH 33 34
ATOM     34  CB  LEU D  10      17.577   5.805  66.542  1.00 47.29 LIG 0.04  C 
BRANCH 34 35
ATOM     35  CG  LEU D  10      17.832   4.567  67.408  1.00 46.92 LIG-0.02  C 
ATOM     36  CD1 LEU D  10      19.299   4.142  67.381  1.00 46.83 LIG 0.01  C 
ATOM     37  CD2 LEU D  10      17.410   4.797  68.821  1.00 45.50 LIG 0.01  C 
ENDBRANCH 34 35
ENDBRANCH 33 34
BRANCH 33 38
ATOM     38  N   LEU D  10      19.092   7.685  66.029  1.00 47.82 LIG-0.35  N 
ATOM     39 H    LEU D  10      18.491   8.236  65.755  1.00 47.82 LIG 0.16  HD
ATOM     40  C   ASP D   9      20.212   8.042  66.646  1.00 48.63 LIG 0.26  C 
ATOM     41 O    ASP D   9      21.064   7.237  67.016  1.00 48.10 LIG-0.27  OA
BRANCH 40 42
ATOM     42  CA  ASP D   9      20.403   9.519  66.866  1.00 49.27 LIG 0.41  C 
ATOM     43  N   ASP D   9      21.089  10.068  65.668  1.00 49.86 LIG 0.61  N 
BRANCH 42 44
ATOM     44  CB  ASP D   9      19.039  10.170  67.048  1.00 50.02 LIG 0.16  C 
BRANCH 44 45
ATOM     45  CG  ASP D   9      18.522  10.794  65.786  1.00 50.84 LIG 0.17  C 
ATOM     46 OD1  ASP D   9      17.547  10.267  65.222  1.00 53.44 LIG-0.65  OA
ATOM     47 OD2  ASP D   9      19.011  11.834  65.290  1.00 53.75 LIG-0.65  OA
ENDBRANCH 44 45
ENDBRANCH 42 44
ENDBRANCH 40 42
ENDBRANCH 33 38
ENDBRANCH 30 33
ENDBRANCH 1 29
TORSDOF 19
ENDMDL
MODEL 16
USER: ADFR SOLUTION from run 150
USER: SCORE 14.705840 LL:  -3.918 LR: -11.621 RR:   0.000 FEB:  -5.953
USER: RMSD 3.698493
USER: SEED 149
USER: STATUS no improvement in best in 14 clusters for 5 generations
USER: GENES 21
USER: genes 0 Translation |==|  0.57974 0.41693 0.49661
USER: genes 1 Rotation |==|  0.48652 0.44649 0.61959 0.98234
USER: genes 2 Torsion [N]-CA--C-[N] |==|  0.35551
USER: genes 3 Torsion [C]-N--CA-[C] |==|  0.50630
USER: genes 4 Torsion [N]-CA--C-[N] |==|  0.52222
USER: genes 5 Torsion [C]-N--CA-[CB] |==|  0.03684
USER: genes 6 Torsion [N]-CA--CB-[CG1] |==|  0.56873
USER: genes 7 Torsion [CA]-CB--CG1-[CD1] |==|  0.60936
USER: genes 8 Torsion [N]-CA--C-[OXT] |==|  0.44176
USER: genes 9 Torsion [N]-CA--CB-[CG] |==|  0.69010
USER: genes 10 Torsion [CA]-CB--CG-[CD2] |==|  0.44721
USER: genes 11 Torsion [C]-CA--CB-[CG] |==|  0.21548
USER: genes 12 Torsion [CA]-CB--CG-[CD1] |==|  0.75195
USER: genes 13 Torsion [C]-CA--N-[C] |==|  0.80768
USER: genes 14 Torsion [N]-C--CA-[N] |==|  0.33385
USER: genes 15 Torsion [C]-CA--CB-[CG] |==|  0.30799
USER: genes 16 Torsion [CA]-CB--CG-[CD2] |==|  0.78818
USER: genes 17 Torsion [C]-CA--N-[C] |==|  0.76731
USER: genes 18 Torsion [N]-C--CA-[N] |==|  0.15598
USER: genes 19 Torsion [C]-CA--CB-[CG] |==|  0.65452
USER: genes 20 Torsion [CA]-CB--CG-[OD1] |==|  0.36859
ROOT
ATOM      1  CA  LEU D  11      20.337   5.471  62.815  1.00 47.89 LIG 0.18  C 
ENDROOT
BRANCH 1 2
ATOM      2  C   LEU D  11      19.268   4.694  62.058  1.00 48.14 LIG 0.24  C 
ATOM      3 O    LEU D  11      18.940   3.569  62.411  1.00 47.13 LIG-0.27  OA
ATOM      4  N   HIS D  12      18.754   5.291  60.989  1.00 49.28 LIG-0.35  N 
ATOM      5 H    HIS D  12      18.962   6.084  60.728  1.00 49.28 LIG 0.16  HD
BRANCH 4 6
ATOM      6  CA  HIS D  12      17.767   4.610  60.158  1.00 50.49 LIG 0.18  C 
BRANCH 6 7
ATOM      7  C   HIS D  12      17.357   5.457  58.955  1.00 51.38 LIG 0.24  C 
ATOM      8  N   ILE D  13      16.345   4.967  58.257  1.00 53.16 LIG-0.34  N 
ATOM      9 H    ILE D  13      15.982   4.215  58.464  1.00 53.16 LIG 0.16  HD
ATOM     10 O    HIS D  12      17.931   6.503  58.690  1.00 51.57 LIG-0.27  OA
BRANCH 8 11
ATOM     11  CA  ILE D  13      15.706   5.584  57.083  1.00 55.12 LIG 0.19  C 
BRANCH 11 12
ATOM     12  CB  ILE D  13      16.526   6.776  56.469  1.00 55.01 LIG 0.01  C 
ATOM     13  CG2 ILE D  13      17.677   6.303  55.562  1.00 56.15 LIG 0.01  C 
BRANCH 12 14
ATOM     14  CG1 ILE D  13      15.590   7.722  55.710  1.00 55.50 LIG 0.00  C 
ATOM     15  CD1 ILE D  13      16.179   8.278  54.386  1.00 55.45 LIG 0.01  C 
ENDBRANCH 12 14
ENDBRANCH 11 12
BRANCH 11 16
ATOM     16  C   ILE D  13      15.094   4.676  56.013  1.00 55.63 LIG 0.20  C 
ATOM     17 O    ILE D  13      15.459   3.504  55.884  1.00 56.94 LIG-0.65  OA
ATOM     18 OXT  ILE D  13      14.239   5.164  55.261  1.00 55.86 LIG-0.65  OA
ENDBRANCH 11 16
ENDBRANCH 8 11
ENDBRANCH 6 7
BRANCH 6 19
ATOM     19  CB  HIS D  12      16.532   4.219  60.972  1.00 50.55 LIG 0.10  C 
BRANCH 19 20
ATOM     20  CG  HIS D  12      16.375   2.743  61.160  1.00 49.61 LIG 0.06  A 
ATOM     21  CD2 HIS D  12      15.656   2.028  62.057  1.00 48.49 LIG 0.14  A 
ATOM     22 NE2  HIS D  12      15.867   0.701  61.778  1.00 48.62 LIG-0.25  NA
ATOM     23  CE1 HIS D  12      16.666   0.603  60.732  1.00 49.12 LIG 0.23  A 
ATOM     24 ND1  HIS D  12      16.992   1.821  60.342  1.00 49.92 LIG-0.24  NA
ENDBRANCH 19 20
ENDBRANCH 6 19
ENDBRANCH 4 6
ENDBRANCH 1 2
BRANCH 1 25
ATOM     25  CB  LEU D  11      21.668   4.758  62.603  1.00 47.69 LIG 0.04  C 
BRANCH 25 26
ATOM     26  CG  LEU D  11      22.411   4.939  61.274  1.00 48.05 LIG-0.02  C 
ATOM     27  CD1 LEU D  11      21.962   3.883  60.275  1.00 46.53 LIG 0.01  C 
ATOM     28  CD2 LEU D  11      22.253   6.327  60.700  1.00 50.43 LIG 0.01  C 
ENDBRANCH 25 26
ENDBRANCH 1 25
BRANCH 1 29
ATOM     29  N   LEU D  11      20.069   5.587  64.241  1.00 47.51 LIG-0.35  N 
ATOM     30  C   LEU D  10      19.074   6.327  64.733  1.00 47.80 LIG 0.24  C 
ATOM     31 O    LEU D  10      18.243   6.919  64.030  1.00 47.07 LIG-0.27  OA
ATOM     32 H    LEU D  11      20.610   5.136  64.734  1.00 47.51 LIG 0.16  HD
BRANCH 30 33
ATOM     33  CA  LEU D  10      19.013   6.417  66.252  1.00 47.63 LIG 0.18  C 
BRANCH 33 34
ATOM     34  CB  LEU D  10      17.742   5.768  66.792  1.00 47.29 LIG 0.04  C 
BRANCH 34 35
ATOM     35  CG  LEU D  10      17.991   4.471  67.572  1.00 46.92 LIG-0.02  C 
ATOM     36  CD1 LEU D  10      16.809   4.109  68.469  1.00 46.83 LIG 0.01  C 
ATOM     37  CD2 LEU D  10      18.280   3.333  66.651  1.00 45.50 LIG 0.01  C 
ENDBRANCH 34 35
ENDBRANCH 33 34
BRANCH 33 38
ATOM     38  N   LEU D  10      19.134   7.803  66.671  1.00 47.82 LIG-0.35  N 
ATOM     39 H    LEU D  10      18.387   8.203  66.822  1.00 47.82 LIG 0.16  HD
ATOM     40  C   ASP D   9      20.328   8.368  66.800  1.00 48.63 LIG 0.26  C 
ATOM     41 O    ASP D   9      21.381   7.780  66.565  1.00 48.10 LIG-0.27  OA
BRANCH 40 42
ATOM     42  CA  ASP D   9      20.334   9.806  67.247  1.00 49.27 LIG 0.41  C 
ATOM     43  N   ASP D   9      19.592   9.880  68.532  1.00 49.86 LIG 0.61  N 
BRANCH 42 44
ATOM     44  CB  ASP D   9      21.776  10.257  67.433  1.00 50.02 LIG 0.16  C 
BRANCH 44 45
ATOM     45  CG  ASP D   9      22.040  10.799  68.807  1.00 50.84 LIG 0.17  C 
ATOM     46 OD1  ASP D   9      23.048  10.402  69.415  1.00 53.44 LIG-0.65  OA
ATOM     47 OD2  ASP D   9      21.305  11.651  69.356  1.00 53.75 LIG-0.65  OA
ENDBRANCH 44 45
ENDBRANCH 42 44
ENDBRANCH 40 42
ENDBRANCH 33 38
ENDBRANCH 30 33
ENDBRANCH 1 29
TORSDOF 19
ENDMDL
MODEL 17
USER: ADFR SOLUTION from run 59
USER: SCORE 14.978233 LL:  -4.159 LR: -11.602 RR:   0.000 FEB:  -5.935
USER: RMSD 4.522763
USER: SEED 58
USER: STATUS no improvement in best in 13 clusters for 5 generations
USER: GENES 21
USER: genes 0 Translation |==|  0.56140 0.37566 0.41945
USER: genes 1 Rotation |==|  0.52646 0.48075 0.67021 0.96900
USER: genes 2 Torsion [N]-CA--C-[N] |==|  0.20177
USER: genes 3 Torsion [C]-N--CA-[C] |==|  0.67255
USER: genes 4 Torsion [N]-CA--C-[N] |==|  0.52020
USER: genes 5 Torsion [C]-N--CA-[CB] |==|  0.77424
USER: genes 6 Torsion [N]-CA--CB-[CG1] |==|  0.97335
USER: genes 7 Torsion [CA]-CB--CG1-[CD1] |==|  0.58534
USER: genes 8 Torsion [N]-CA--C-[OXT] |==|  0.46682
USER: genes 9 Torsion [N]-CA--CB-[CG] |==|  0.84539
USER: genes 10 Torsion [CA]-CB--CG-[CD2] |==|  0.11795
USER: genes 11 Torsion [C]-CA--CB-[CG] |==|  0.40929
USER: genes 12 Torsion [CA]-CB--CG-[CD1] |==|  0.96847
USER: genes 13 Torsion [C]-CA--N-[C] |==|  0.75726
USER: genes 14 Torsion [N]-C--CA-[N] |==|  0.44698
USER: genes 15 Torsion [C]-CA--CB-[CG] |==|  0.50688
USER: genes 16 Torsion [CA]-CB--CG-[CD2] |==|  0.23871
USER: genes 17 Torsion [C]-CA--N-[C] |==|  0.66348
USER: genes 18 Torsion [N]-C--CA-[N] |==|  0.27718
USER: genes 19 Torsion [C]-CA--CB-[CG] |==|  0.64925
USER: genes 20 Torsion [CA]-CB--CG-[OD1] |==|  0.84871
ROOT
ATOM      1  CA  LEU D  11      19.979   4.698  61.079  1.00 47.89 LIG 0.18  C 
ENDROOT
BRANCH 1 2
ATOM      2  C   LEU D  11      18.980   3.759  60.415  1.00 48.14 LIG 0.24  C 
ATOM      3 O    LEU D  11      19.357   2.764  59.811  1.00 47.13 LIG-0.27  OA
ATOM      4  N   HIS D  12      17.701   4.108  60.499  1.00 49.28 LIG-0.35  N 
ATOM      5 H    HIS D  12      17.413   4.797  60.926  1.00 49.28 LIG 0.16  HD
BRANCH 4 6
ATOM      6  CA  HIS D  12      16.667   3.312  59.847  1.00 50.49 LIG 0.18  C 
BRANCH 6 7
ATOM      7  C   HIS D  12      15.923   4.113  58.781  1.00 51.38 LIG 0.24  C 
ATOM      8  N   ILE D  13      14.875   3.494  58.261  1.00 53.16 LIG-0.34  N 
ATOM      9 H    ILE D  13      14.666   2.694  58.496  1.00 53.16 LIG 0.16  HD
ATOM     10 O    HIS D  12      16.285   5.236  58.462  1.00 51.57 LIG-0.27  OA
BRANCH 8 11
ATOM     11  CA  ILE D  13      13.946   4.033  57.254  1.00 55.12 LIG 0.19  C 
BRANCH 11 12
ATOM     12  CB  ILE D  13      12.837   4.971  57.855  1.00 55.01 LIG 0.01  C 
ATOM     13  CG2 ILE D  13      11.430   4.652  57.315  1.00 56.15 LIG 0.01  C 
BRANCH 12 14
ATOM     14  CG1 ILE D  13      12.860   4.900  59.385  1.00 55.50 LIG 0.00  C 
ATOM     15  CD1 ILE D  13      11.477   5.118  60.056  1.00 55.45 LIG 0.01  C 
ENDBRANCH 12 14
ENDBRANCH 11 12
BRANCH 11 16
ATOM     16  C   ILE D  13      14.512   4.560  55.933  1.00 55.63 LIG 0.20  C 
ATOM     17 O    ILE D  13      15.720   4.767  55.792  1.00 56.94 LIG-0.65  OA
ATOM     18 OXT  ILE D  13      13.713   4.797  55.016  1.00 55.86 LIG-0.65  OA
ENDBRANCH 11 16
ENDBRANCH 8 11
ENDBRANCH 6 7
BRANCH 6 19
ATOM     19  CB  HIS D  12      15.677   2.746  60.868  1.00 50.55 LIG 0.10  C 
BRANCH 19 20
ATOM     20  CG  HIS D  12      16.322   1.940  61.951  1.00 49.61 LIG 0.06  A 
ATOM     21  CD2 HIS D  12      17.448   2.151  62.671  1.00 48.49 LIG 0.14  A 
ATOM     22 NE2  HIS D  12      17.575   1.097  63.541  1.00 48.62 LIG-0.25  NA
ATOM     23  CE1 HIS D  12      16.552   0.279  63.378  1.00 49.12 LIG 0.23  A 
ATOM     24 ND1  HIS D  12      15.782   0.763  62.421  1.00 49.92 LIG-0.24  NA
ENDBRANCH 19 20
ENDBRANCH 6 19
ENDBRANCH 4 6
ENDBRANCH 1 2
BRANCH 1 25
ATOM     25  CB  LEU D  11      21.371   4.325  60.579  1.00 47.69 LIG 0.04  C 
BRANCH 25 26
ATOM     26  CG  LEU D  11      22.429   5.424  60.419  1.00 48.05 LIG-0.02  C 
ATOM     27  CD1 LEU D  11      21.781   6.795  60.544  1.00 46.53 LIG 0.01  C 
ATOM     28  CD2 LEU D  11      23.574   5.277  61.392  1.00 50.43 LIG 0.01  C 
ENDBRANCH 25 26
ENDBRANCH 1 25
BRANCH 1 29
ATOM     29  N   LEU D  11      19.953   4.637  62.533  1.00 47.51 LIG-0.35  N 
ATOM     30  C   LEU D  10      19.130   5.381  63.273  1.00 47.80 LIG 0.24  C 
ATOM     31 O    LEU D  10      18.264   6.130  62.799  1.00 47.07 LIG-0.27  OA
ATOM     32 H    LEU D  11      20.516   4.080  62.868  1.00 47.51 LIG 0.16  HD
BRANCH 30 33
ATOM     33  CA  LEU D  10      19.319   5.266  64.780  1.00 47.63 LIG 0.18  C 
BRANCH 33 34
ATOM     34  CB  LEU D  10      18.766   3.945  65.306  1.00 47.29 LIG 0.04  C 
BRANCH 34 35
ATOM     35  CG  LEU D  10      18.869   3.790  66.828  1.00 46.92 LIG-0.02  C 
ATOM     36  CD1 LEU D  10      20.157   4.399  67.378  1.00 46.83 LIG 0.01  C 
ATOM     37  CD2 LEU D  10      17.697   4.405  67.517  1.00 45.50 LIG 0.01  C 
ENDBRANCH 34 35
ENDBRANCH 33 34
BRANCH 33 38
ATOM     38  N   LEU D  10      18.715   6.409  65.444  1.00 47.82 LIG-0.35  N 
ATOM     39 H    LEU D  10      17.873   6.510  65.299  1.00 47.82 LIG 0.16  HD
ATOM     40  C   ASP D   9      19.448   7.211  66.207  1.00 48.63 LIG 0.26  C 
ATOM     41 O    ASP D   9      20.653   7.055  66.388  1.00 48.10 LIG-0.27  OA
BRANCH 40 42
ATOM     42  CA  ASP D   9      18.716   8.359  66.851  1.00 49.27 LIG 0.41  C 
ATOM     43  N   ASP D   9      18.422   7.974  68.256  1.00 49.86 LIG 0.61  N 
BRANCH 42 44
ATOM     44  CB  ASP D   9      19.605   9.594  66.808  1.00 50.02 LIG 0.16  C 
BRANCH 44 45
ATOM     45  CG  ASP D   9      19.794  10.219  68.159  1.00 50.84 LIG 0.17  C 
ATOM     46 OD1  ASP D   9      18.783  10.527  68.814  1.00 53.44 LIG-0.65  OA
ATOM     47 OD2  ASP D   9      20.921  10.418  68.666  1.00 53.75 LIG-0.65  OA
ENDBRANCH 44 45
ENDBRANCH 42 44
ENDBRANCH 40 42
ENDBRANCH 33 38
ENDBRANCH 30 33
ENDBRANCH 1 29
TORSDOF 19
ENDMDL
MODEL 18
USER: ADFR SOLUTION from run 137
USER: SCORE 15.110704 LL:  -4.212 LR: -11.573 RR:   0.000 FEB:  -5.905
USER: RMSD 4.315478
USER: SEED 136
USER: STATUS no improvement in best in 11 clusters for 5 generations
USER: GENES 21
USER: genes 0 Translation |==|  0.60523 0.40141 0.43031
USER: genes 1 Rotation |==|  0.53102 0.43320 0.67852 0.96120
USER: genes 2 Torsion [N]-CA--C-[N] |==|  0.22588
USER: genes 3 Torsion [C]-N--CA-[C] |==|  0.55021
USER: genes 4 Torsion [N]-CA--C-[N] |==|  0.38959
USER: genes 5 Torsion [C]-N--CA-[CB] |==|  0.22796
USER: genes 6 Torsion [N]-CA--CB-[CG1] |==|  0.08435
USER: genes 7 Torsion [CA]-CB--CG1-[CD1] |==|  0.65617
USER: genes 8 Torsion [N]-CA--C-[OXT] |==|  0.51929
USER: genes 9 Torsion [N]-CA--CB-[CG] |==|  0.54990
USER: genes 10 Torsion [CA]-CB--CG-[CD2] |==|  0.46796
USER: genes 11 Torsion [C]-CA--CB-[CG] |==|  0.37307
USER: genes 12 Torsion [CA]-CB--CG-[CD1] |==|  0.78834
USER: genes 13 Torsion [C]-CA--N-[C] |==|  0.76653
USER: genes 14 Torsion [N]-C--CA-[N] |==|  0.42301
USER: genes 15 Torsion [C]-CA--CB-[CG] |==|  0.48571
USER: genes 16 Torsion [CA]-CB--CG-[CD2] |==|  0.24672
USER: genes 17 Torsion [C]-CA--N-[C] |==|  0.67044
USER: genes 18 Torsion [N]-C--CA-[N] |==|  0.32517
USER: genes 19 Torsion [C]-CA--CB-[CG] |==|  0.73270
USER: genes 20 Torsion [CA]-CB--CG-[OD1] |==|  0.32333
ROOT
ATOM      1  CA  LEU D  11      20.834   5.180  61.323  1.00 47.89 LIG 0.18  C 
ENDROOT
BRANCH 1 2
ATOM      2  C   LEU D  11      20.002   4.277  60.422  1.00 48.14 LIG 0.24  C 
ATOM      3 O    LEU D  11      20.478   3.256  59.942  1.00 47.13 LIG-0.27  OA
ATOM      4  N   HIS D  12      18.765   4.683  60.164  1.00 49.28 LIG-0.35  N 
ATOM      5 H    HIS D  12      18.406   5.391  60.497  1.00 49.28 LIG 0.16  HD
BRANCH 4 6
ATOM      6  CA  HIS D  12      17.903   3.923  59.265  1.00 50.49 LIG 0.18  C 
BRANCH 6 7
ATOM      7  C   HIS D  12      16.728   4.760  58.764  1.00 51.38 LIG 0.24  C 
ATOM      8  N   ILE D  13      16.423   4.571  57.490  1.00 53.16 LIG-0.34  N 
ATOM      9 H    ILE D  13      16.882   4.039  56.995  1.00 53.16 LIG 0.16  HD
ATOM     10 O    HIS D  12      16.132   5.527  59.506  1.00 51.57 LIG-0.27  OA
BRANCH 8 11
ATOM     11  CA  ILE D  13      15.317   5.199  56.748  1.00 55.12 LIG 0.19  C 
BRANCH 11 12
ATOM     12  CB  ILE D  13      15.643   6.646  56.228  1.00 55.01 LIG 0.01  C 
ATOM     13  CG2 ILE D  13      15.180   7.747  57.200  1.00 56.15 LIG 0.01  C 
BRANCH 12 14
ATOM     14  CG1 ILE D  13      17.142   6.774  55.937  1.00 55.50 LIG 0.00  C 
ATOM     15  CD1 ILE D  13      17.844   7.930  56.699  1.00 55.45 LIG 0.01  C 
ENDBRANCH 12 14
ENDBRANCH 11 12
BRANCH 11 16
ATOM     16  C   ILE D  13      14.547   4.363  55.722  1.00 55.63 LIG 0.20  C 
ATOM     17 O    ILE D  13      14.771   3.158  55.582  1.00 56.94 LIG-0.65  OA
ATOM     18 OXT  ILE D  13      13.710   4.943  55.016  1.00 55.86 LIG-0.65  OA
ENDBRANCH 11 16
ENDBRANCH 8 11
ENDBRANCH 6 7
BRANCH 6 19
ATOM     19  CB  HIS D  12      17.392   2.646  59.935  1.00 50.55 LIG 0.10  C 
BRANCH 19 20
ATOM     20  CG  HIS D  12      16.871   1.627  58.971  1.00 49.61 LIG 0.06  A 
ATOM     21  CD2 HIS D  12      16.535   0.326  59.141  1.00 48.49 LIG 0.14  A 
ATOM     22 NE2  HIS D  12      16.108  -0.143  57.924  1.00 48.62 LIG-0.25  NA
ATOM     23  CE1 HIS D  12      16.156   0.839  57.043  1.00 49.12 LIG 0.23  A 
ATOM     24 ND1  HIS D  12      16.618   1.917  57.648  1.00 49.92 LIG-0.24  NA
ENDBRANCH 19 20
ENDBRANCH 6 19
ENDBRANCH 4 6
ENDBRANCH 1 2
BRANCH 1 25
ATOM     25  CB  LEU D  11      22.304   4.886  61.048  1.00 47.69 LIG 0.04  C 
BRANCH 25 26
ATOM     26  CG  LEU D  11      23.281   6.055  60.865  1.00 48.05 LIG-0.02  C 
ATOM     27  CD1 LEU D  11      23.103   6.675  59.487  1.00 46.53 LIG 0.01  C 
ATOM     28  CD2 LEU D  11      23.150   7.100  61.948  1.00 50.43 LIG 0.01  C 
ENDBRANCH 25 26
ENDBRANCH 1 25
BRANCH 1 29
ATOM     29  N   LEU D  11      20.559   4.997  62.740  1.00 47.51 LIG-0.35  N 
ATOM     30  C   LEU D  10      19.551   5.605  63.367  1.00 47.80 LIG 0.24  C 
ATOM     31 O    LEU D  10      18.714   6.317  62.795  1.00 47.07 LIG-0.27  OA
ATOM     32 H    LEU D  11      21.105   4.461  63.134  1.00 47.51 LIG 0.16  HD
BRANCH 30 33
ATOM     33  CA  LEU D  10      19.483   5.380  64.872  1.00 47.63 LIG 0.18  C 
BRANCH 33 34
ATOM     34  CB  LEU D  10      18.781   4.067  65.202  1.00 47.29 LIG 0.04  C 
BRANCH 34 35
ATOM     35  CG  LEU D  10      18.787   3.717  66.695  1.00 46.92 LIG-0.02  C 
ATOM     36  CD1 LEU D  10      20.065   4.186  67.387  1.00 46.83 LIG 0.01  C 
ATOM     37  CD2 LEU D  10      17.604   4.299  67.393  1.00 45.50 LIG 0.01  C 
ENDBRANCH 34 35
ENDBRANCH 33 34
BRANCH 33 38
ATOM     38  N   LEU D  10      18.840   6.515  65.514  1.00 47.82 LIG-0.35  N 
ATOM     39 H    LEU D  10      18.028   6.658  65.268  1.00 47.82 LIG 0.16  HD
ATOM     40  C   ASP D   9      19.495   7.245  66.407  1.00 48.63 LIG 0.26  C 
ATOM     41 O    ASP D   9      20.661   7.030  66.731  1.00 48.10 LIG-0.27  OA
BRANCH 40 42
ATOM     42  CA  ASP D   9      18.729   8.391  67.013  1.00 49.27 LIG 0.41  C 
ATOM     43  N   ASP D   9      18.606   8.130  68.470  1.00 49.86 LIG 0.61  N 
BRANCH 42 44
ATOM     44  CB  ASP D   9      19.494   9.683  66.762  1.00 50.02 LIG 0.16  C 
BRANCH 44 45
ATOM     45  CG  ASP D   9      20.358  10.079  67.923  1.00 50.84 LIG 0.17  C 
ATOM     46 OD1  ASP D   9      21.589  10.114  67.759  1.00 53.44 LIG-0.65  OA
ATOM     47 OD2  ASP D   9      19.892  10.400  69.040  1.00 53.75 LIG-0.65  OA
ENDBRANCH 44 45
ENDBRANCH 42 44
ENDBRANCH 40 42
ENDBRANCH 33 38
ENDBRANCH 30 33
ENDBRANCH 1 29
TORSDOF 19
ENDMDL
MODEL 19
USER: ADFR SOLUTION from run 151
USER: SCORE 16.137672 LL:  -4.751 LR: -11.573 RR:   0.000 FEB:  -5.905
USER: RMSD 2.987165
USER: SEED 150
USER: STATUS no improvement in best in 6 clusters for 5 generations
USER: GENES 21
USER: genes 0 Translation |==|  0.55606 0.47378 0.52434
USER: genes 1 Rotation |==|  0.52231 0.49305 0.65325 0.97536
USER: genes 2 Torsion [N]-CA--C-[N] |==|  0.38256
USER: genes 3 Torsion [C]-N--CA-[C] |==|  0.82048
USER: genes 4 Torsion [N]-CA--C-[N] |==|  0.40863
USER: genes 5 Torsion [C]-N--CA-[CB] |==|  0.34371
USER: genes 6 Torsion [N]-CA--CB-[CG1] |==|  0.03275
USER: genes 7 Torsion [CA]-CB--CG1-[CD1] |==|  0.69527
USER: genes 8 Torsion [N]-CA--C-[OXT] |==|  0.17870
USER: genes 9 Torsion [N]-CA--CB-[CG] |==|  0.30946
USER: genes 10 Torsion [CA]-CB--CG-[CD2] |==|  0.28167
USER: genes 11 Torsion [C]-CA--CB-[CG] |==|  0.06853
USER: genes 12 Torsion [CA]-CB--CG-[CD1] |==|  0.22300
USER: genes 13 Torsion [C]-CA--N-[C] |==|  0.69444
USER: genes 14 Torsion [N]-C--CA-[N] |==|  0.43227
USER: genes 15 Torsion [C]-CA--CB-[CG] |==|  0.16777
USER: genes 16 Torsion [CA]-CB--CG-[CD2] |==|  0.49231
USER: genes 17 Torsion [C]-CA--N-[C] |==|  0.78902
USER: genes 18 Torsion [N]-C--CA-[N] |==|  0.03367
USER: genes 19 Torsion [C]-CA--CB-[CG] |==|  0.65564
USER: genes 20 Torsion [CA]-CB--CG-[OD1] |==|  0.84694
ROOT
ATOM      1  CA  LEU D  11      19.875   6.537  63.439  1.00 47.89 LIG 0.18  C 
ENDROOT
BRANCH 1 2
ATOM      2  C   LEU D  11      18.784   5.653  62.850  1.00 48.14 LIG 0.24  C 
ATOM      3 O    LEU D  11      18.586   4.525  63.283  1.00 47.13 LIG-0.27  OA
ATOM      4  N   HIS D  12      18.102   6.162  61.830  1.00 49.28 LIG-0.35  N 
ATOM      5 H    HIS D  12      18.217   6.954  61.516  1.00 49.28 LIG 0.16  HD
BRANCH 4 6
ATOM      6  CA  HIS D  12      17.075   5.376  61.155  1.00 50.49 LIG 0.18  C 
BRANCH 6 7
ATOM      7  C   HIS D  12      17.665   4.154  60.454  1.00 51.38 LIG 0.24  C 
ATOM      8  N   ILE D  13      16.869   3.098  60.426  1.00 53.16 LIG-0.34  N 
ATOM      9 H    ILE D  13      16.097   3.111  60.805  1.00 53.16 LIG 0.16  HD
ATOM     10 O    HIS D  12      18.783   4.184  59.961  1.00 51.57 LIG-0.27  OA
BRANCH 8 11
ATOM     11  CA  ILE D  13      17.146   1.803  59.784  1.00 55.12 LIG 0.19  C 
BRANCH 11 12
ATOM     12  CB  ILE D  13      17.046   0.576  60.761  1.00 55.01 LIG 0.01  C 
ATOM     13  CG2 ILE D  13      18.408  -0.096  61.016  1.00 56.15 LIG 0.01  C 
BRANCH 12 14
ATOM     14  CG1 ILE D  13      16.397   1.007  62.080  1.00 55.50 LIG 0.00  C 
ATOM     15  CD1 ILE D  13      17.369   1.037  63.290  1.00 55.45 LIG 0.01  C 
ENDBRANCH 12 14
ENDBRANCH 11 12
BRANCH 11 16
ATOM     16  C   ILE D  13      16.535   1.514  58.409  1.00 55.63 LIG 0.20  C 
ATOM     17 O    ILE D  13      15.731   0.593  58.249  1.00 56.94 LIG-0.65  OA
ATOM     18 OXT  ILE D  13      16.895   2.221  57.457  1.00 55.86 LIG-0.65  OA
ENDBRANCH 11 16
ENDBRANCH 8 11
ENDBRANCH 6 7
BRANCH 6 19
ATOM     19  CB  HIS D  12      16.292   6.229  60.155  1.00 50.55 LIG 0.10  C 
BRANCH 19 20
ATOM     20  CG  HIS D  12      16.539   5.864  58.726  1.00 49.61 LIG 0.06  A 
ATOM     21  CD2 HIS D  12      15.806   5.139  57.849  1.00 48.49 LIG 0.14  A 
ATOM     22 NE2  HIS D  12      16.498   5.117  56.664  1.00 48.62 LIG-0.25  NA
ATOM     23  CE1 HIS D  12      17.605   5.823  56.799  1.00 49.12 LIG 0.23  A 
ATOM     24 ND1  HIS D  12      17.657   6.281  58.036  1.00 49.92 LIG-0.24  NA
ENDBRANCH 19 20
ENDBRANCH 6 19
ENDBRANCH 4 6
ENDBRANCH 1 2
BRANCH 1 25
ATOM     25  CB  LEU D  11      21.213   6.052  62.891  1.00 47.69 LIG 0.04  C 
BRANCH 25 26
ATOM     26  CG  LEU D  11      21.246   5.298  61.555  1.00 48.05 LIG-0.02  C 
ATOM     27  CD1 LEU D  11      21.180   6.282  60.397  1.00 46.53 LIG 0.01  C 
ATOM     28  CD2 LEU D  11      22.448   4.393  61.426  1.00 50.43 LIG 0.01  C 
ENDBRANCH 25 26
ENDBRANCH 1 25
BRANCH 1 29
ATOM     29  N   LEU D  11      19.912   6.522  64.893  1.00 47.51 LIG-0.35  N 
ATOM     30  C   LEU D  10      19.555   7.569  65.638  1.00 47.80 LIG 0.24  C 
ATOM     31 O    LEU D  10      19.088   8.619  65.172  1.00 47.07 LIG-0.27  OA
ATOM     32 H    LEU D  11      20.185   5.777  65.227  1.00 47.51 LIG 0.16  HD
BRANCH 30 33
ATOM     33  CA  LEU D  10      19.762   7.410  67.139  1.00 47.63 LIG 0.18  C 
BRANCH 33 34
ATOM     34  CB  LEU D  10      18.636   6.594  67.767  1.00 47.29 LIG 0.04  C 
BRANCH 34 35
ATOM     35  CG  LEU D  10      18.510   5.173  67.206  1.00 46.92 LIG-0.02  C 
ATOM     36  CD1 LEU D  10      19.825   4.403  67.300  1.00 46.83 LIG 0.01  C 
ATOM     37  CD2 LEU D  10      17.437   4.408  67.906  1.00 45.50 LIG 0.01  C 
ENDBRANCH 34 35
ENDBRANCH 33 34
BRANCH 33 38
ATOM     38  N   LEU D  10      19.899   8.715  67.761  1.00 47.82 LIG-0.35  N 
ATOM     39 H    LEU D  10      19.206   8.986  68.193  1.00 47.82 LIG 0.16  HD
ATOM     40  C   ASP D   9      21.029   9.402  67.647  1.00 48.63 LIG 0.26  C 
ATOM     41 O    ASP D   9      22.002   9.000  67.013  1.00 48.10 LIG-0.27  OA
BRANCH 40 42
ATOM     42  CA  ASP D   9      21.062  10.739  68.340  1.00 49.27 LIG 0.41  C 
ATOM     43  N   ASP D   9      19.879  10.810  69.235  1.00 49.86 LIG 0.61  N 
BRANCH 42 44
ATOM     44  CB  ASP D   9      22.350  10.846  69.143  1.00 50.02 LIG 0.16  C 
BRANCH 44 45
ATOM     45  CG  ASP D   9      22.105  11.135  70.594  1.00 50.84 LIG 0.17  C 
ATOM     46 OD1  ASP D   9      21.425  12.132  70.891  1.00 53.44 LIG-0.65  OA
ATOM     47 OD2  ASP D   9      22.532  10.404  71.516  1.00 53.75 LIG-0.65  OA
ENDBRANCH 44 45
ENDBRANCH 42 44
ENDBRANCH 40 42
ENDBRANCH 33 38
ENDBRANCH 30 33
ENDBRANCH 1 29
TORSDOF 19
ENDMDL
MODEL 20
USER: ADFR SOLUTION from run 6
USER: SCORE 15.817160 LL:  -4.551 LR: -11.451 RR:   0.000 FEB:  -5.784
USER: RMSD 4.048752
USER: SEED 427002
USER: STATUS no improvement in best in 6 clusters for 5 generations
USER: GENES 21
USER: genes 0 Translation |==|  0.54277 0.40751 0.42213
USER: genes 1 Rotation |==|  0.55058 0.49541 0.54938 0.99496
USER: genes 2 Torsion [N]-CA--C-[N] |==|  0.37973
USER: genes 3 Torsion [C]-N--CA-[C] |==|  0.79004
USER: genes 4 Torsion [N]-CA--C-[N] |==|  0.44395
USER: genes 5 Torsion [C]-N--CA-[CB] |==|  0.23732
USER: genes 6 Torsion [N]-CA--CB-[CG1] |==|  0.90249
USER: genes 7 Torsion [CA]-CB--CG1-[CD1] |==|  0.27684
USER: genes 8 Torsion [N]-CA--C-[OXT] |==|  0.20153
USER: genes 9 Torsion [N]-CA--CB-[CG] |==|  0.24483
USER: genes 10 Torsion [CA]-CB--CG-[CD2] |==|  0.37006
USER: genes 11 Torsion [C]-CA--CB-[CG] |==|  0.44475
USER: genes 12 Torsion [CA]-CB--CG-[CD1] |==|  0.87164
USER: genes 13 Torsion [C]-CA--N-[C] |==|  0.83216
USER: genes 14 Torsion [N]-C--CA-[N] |==|  0.45547
USER: genes 15 Torsion [C]-CA--CB-[CG] |==|  0.51463
USER: genes 16 Torsion [CA]-CB--CG-[CD2] |==|  0.22977
USER: genes 17 Torsion [C]-CA--N-[C] |==|  0.66903
USER: genes 18 Torsion [N]-C--CA-[N] |==|  0.79102
USER: genes 19 Torsion [C]-CA--CB-[CG] |==|  0.72430
USER: genes 20 Torsion [CA]-CB--CG-[OD1] |==|  0.14331
ROOT
ATOM      1  CA  LEU D  11      19.616   5.295  61.139  1.00 47.89 LIG 0.18  C 
ENDROOT
BRANCH 1 2
ATOM      2  C   LEU D  11      18.235   5.002  60.567  1.00 48.14 LIG 0.24  C 
ATOM      3 O    LEU D  11      17.617   3.999  60.896  1.00 47.13 LIG-0.27  OA
ATOM      4  N   HIS D  12      17.774   5.870  59.674  1.00 49.28 LIG-0.35  N 
ATOM      5 H    HIS D  12      18.186   6.586  59.434  1.00 49.28 LIG 0.16  HD
BRANCH 4 6
ATOM      6  CA  HIS D  12      16.489   5.653  59.019  1.00 50.49 LIG 0.18  C 
BRANCH 6 7
ATOM      7  C   HIS D  12      16.575   4.572  57.944  1.00 51.38 LIG 0.24  C 
ATOM      8  N   ILE D  13      15.414   4.033  57.611  1.00 53.16 LIG-0.34  N 
ATOM      9 H    ILE D  13      14.684   4.266  58.003  1.00 53.16 LIG 0.16  HD
ATOM     10 O    HIS D  12      17.645   4.258  57.443  1.00 51.57 LIG-0.27  OA
BRANCH 8 11
ATOM     11  CA  ILE D  13      15.182   3.009  56.579  1.00 55.12 LIG 0.19  C 
BRANCH 11 12
ATOM     12  CB  ILE D  13      15.392   1.537  57.090  1.00 55.01 LIG 0.01  C 
ATOM     13  CG2 ILE D  13      15.648   0.540  55.944  1.00 56.15 LIG 0.01  C 
BRANCH 12 14
ATOM     14  CG1 ILE D  13      16.532   1.493  58.113  1.00 55.50 LIG 0.00  C 
ATOM     15  CD1 ILE D  13      16.062   1.466  59.592  1.00 55.45 LIG 0.01  C 
ENDBRANCH 12 14
ENDBRANCH 11 12
BRANCH 11 16
ATOM     16  C   ILE D  13      13.964   3.146  55.662  1.00 55.63 LIG 0.20  C 
ATOM     17 O    ILE D  13      12.996   2.388  55.766  1.00 56.94 LIG-0.65  OA
ATOM     18 OXT  ILE D  13      13.992   4.029  54.793  1.00 55.86 LIG-0.65  OA
ENDBRANCH 11 16
ENDBRANCH 8 11
ENDBRANCH 6 7
BRANCH 6 19
ATOM     19  CB  HIS D  12      15.946   6.951  58.417  1.00 50.55 LIG 0.10  C 
BRANCH 19 20
ATOM     20  CG  HIS D  12      16.413   7.211  57.020  1.00 49.61 LIG 0.06  A 
ATOM     21  CD2 HIS D  12      15.739   7.590  55.909  1.00 48.49 LIG 0.14  A 
ATOM     22 NE2  HIS D  12      16.657   7.687  54.893  1.00 48.62 LIG-0.25  NA
ATOM     23  CE1 HIS D  12      17.855   7.402  55.367  1.00 49.12 LIG 0.23  A 
ATOM     24 ND1  HIS D  12      17.736   7.106  56.648  1.00 49.92 LIG-0.24  NA
ENDBRANCH 19 20
ENDBRANCH 6 19
ENDBRANCH 4 6
ENDBRANCH 1 2
BRANCH 1 25
ATOM     25  CB  LEU D  11      20.614   4.379  60.439  1.00 47.69 LIG 0.04  C 
BRANCH 25 26
ATOM     26  CG  LEU D  11      22.104   4.742  60.456  1.00 48.05 LIG-0.02  C 
ATOM     27  CD1 LEU D  11      22.288   6.214  60.116  1.00 46.53 LIG 0.01  C 
ATOM     28  CD2 LEU D  11      22.772   4.404  61.768  1.00 50.43 LIG 0.01  C 
ENDBRANCH 25 26
ENDBRANCH 1 25
BRANCH 1 29
ATOM     29  N   LEU D  11      19.700   5.095  62.578  1.00 47.51 LIG-0.35  N 
ATOM     30  C   LEU D  10      18.953   5.776  63.449  1.00 47.80 LIG 0.24  C 
ATOM     31 O    LEU D  10      18.070   6.579  63.117  1.00 47.07 LIG-0.27  OA
ATOM     32 H    LEU D  11      20.275   4.500  62.813  1.00 47.51 LIG 0.16  HD
BRANCH 30 33
ATOM     33  CA  LEU D  10      19.255   5.513  64.919  1.00 47.63 LIG 0.18  C 
BRANCH 33 34
ATOM     34  CB  LEU D  10      18.782   4.125  65.339  1.00 47.29 LIG 0.04  C 
BRANCH 34 35
ATOM     35  CG  LEU D  10      18.939   3.843  66.838  1.00 46.92 LIG-0.02  C 
ATOM     36  CD1 LEU D  10      20.250   4.399  67.390  1.00 46.83 LIG 0.01  C 
ATOM     37  CD2 LEU D  10      17.797   4.404  67.617  1.00 45.50 LIG 0.01  C 
ENDBRANCH 34 35
ENDBRANCH 33 34
BRANCH 33 38
ATOM     38  N   LEU D  10      18.667   6.558  65.739  1.00 47.82 LIG-0.35  N 
ATOM     39 H    LEU D  10      17.811   6.623  65.685  1.00 47.82 LIG 0.16  HD
ATOM     40  C   ASP D   9      19.433   7.330  66.500  1.00 48.63 LIG 0.26  C 
ATOM     41 O    ASP D   9      20.657   7.227  66.550  1.00 48.10 LIG-0.27  OA
BRANCH 40 42
ATOM     42  CA  ASP D   9      18.716   8.375  67.314  1.00 49.27 LIG 0.41  C 
ATOM     43  N   ASP D   9      18.314   9.466  66.390  1.00 49.86 LIG 0.61  N 
BRANCH 42 44
ATOM     44  CB  ASP D   9      17.492   7.740  67.960  1.00 50.02 LIG 0.16  C 
BRANCH 44 45
ATOM     45  CG  ASP D   9      16.226   8.029  67.209  1.00 50.84 LIG 0.17  C 
ATOM     46 OD1  ASP D   9      16.197   7.798  65.988  1.00 53.44 LIG-0.65  OA
ATOM     47 OD2  ASP D   9      15.191   8.467  67.761  1.00 53.75 LIG-0.65  OA
ENDBRANCH 44 45
ENDBRANCH 42 44
ENDBRANCH 40 42
ENDBRANCH 33 38
ENDBRANCH 30 33
ENDBRANCH 1 29
TORSDOF 19
ENDMDL
MODEL 21
USER: ADFR SOLUTION from run 141
USER: SCORE 15.336197 LL:  -4.631 LR: -11.374 RR:   0.000 FEB:  -5.707
USER: RMSD 3.423641
USER: SEED 140
USER: STATUS no improvement in best in 8 clusters for 5 generations
USER: GENES 21
USER: genes 0 Translation |==|  0.56337 0.45693 0.51873
USER: genes 1 Rotation |==|  0.50405 0.47492 0.55796 0.99598
USER: genes 2 Torsion [N]-CA--C-[N] |==|  0.56622
USER: genes 3 Torsion [C]-N--CA-[C] |==|  0.83251
USER: genes 4 Torsion [N]-CA--C-[N] |==|  0.92612
USER: genes 5 Torsion [C]-N--CA-[CB] |==|  0.23021
USER: genes 6 Torsion [N]-CA--CB-[CG1] |==|  0.03980
USER: genes 7 Torsion [CA]-CB--CG1-[CD1] |==|  0.72211
USER: genes 8 Torsion [N]-CA--C-[OXT] |==|  0.58839
USER: genes 9 Torsion [N]-CA--CB-[CG] |==|  0.70898
USER: genes 10 Torsion [CA]-CB--CG-[CD2] |==|  0.62103
USER: genes 11 Torsion [C]-CA--CB-[CG] |==|  0.23352
USER: genes 12 Torsion [CA]-CB--CG-[CD1] |==|  0.20511
USER: genes 13 Torsion [C]-CA--N-[C] |==|  0.74397
USER: genes 14 Torsion [N]-C--CA-[N] |==|  0.43157
USER: genes 15 Torsion [C]-CA--CB-[CG] |==|  0.19529
USER: genes 16 Torsion [CA]-CB--CG-[CD2] |==|  0.45984
USER: genes 17 Torsion [C]-CA--N-[C] |==|  0.79900
USER: genes 18 Torsion [N]-C--CA-[N] |==|  0.04446
USER: genes 19 Torsion [C]-CA--CB-[CG] |==|  0.65208
USER: genes 20 Torsion [CA]-CB--CG-[OD1] |==|  0.85808
ROOT
ATOM      1  CA  LEU D  11      20.018   6.221  63.312  1.00 47.89 LIG 0.18  C 
ENDROOT
BRANCH 1 2
ATOM      2  C   LEU D  11      18.709   5.789  62.665  1.00 48.14 LIG 0.24  C 
ATOM      3 O    LEU D  11      17.645   5.905  63.258  1.00 47.13 LIG-0.27  OA
ATOM      4  N   HIS D  12      18.802   5.249  61.455  1.00 49.28 LIG-0.35  N 
ATOM      5 H    HIS D  12      19.537   5.165  61.016  1.00 49.28 LIG 0.16  HD
BRANCH 4 6
ATOM      6  CA  HIS D  12      17.617   4.746  60.770  1.00 50.49 LIG 0.18  C 
BRANCH 6 7
ATOM      7  C   HIS D  12      16.936   3.630  61.560  1.00 51.38 LIG 0.24  C 
ATOM      8  N   ILE D  13      17.744   2.949  62.356  1.00 53.16 LIG-0.34  N 
ATOM      9 H    ILE D  13      18.587   3.117  62.387  1.00 53.16 LIG 0.16  HD
ATOM     10 O    HIS D  12      15.738   3.415  61.451  1.00 51.57 LIG-0.27  OA
BRANCH 8 11
ATOM     11  CA  ILE D  13      17.365   1.856  63.267  1.00 55.12 LIG 0.19  C 
BRANCH 11 12
ATOM     12  CB  ILE D  13      17.260   0.454  62.564  1.00 55.01 LIG 0.01  C 
ATOM     13  CG2 ILE D  13      15.810  -0.053  62.458  1.00 56.15 LIG 0.01  C 
BRANCH 12 14
ATOM     14  CG1 ILE D  13      17.919   0.507  61.182  1.00 55.50 LIG 0.00  C 
ATOM     15  CD1 ILE D  13      16.921   0.667  60.004  1.00 55.45 LIG 0.01  C 
ENDBRANCH 12 14
ENDBRANCH 11 12
BRANCH 11 16
ATOM     16  C   ILE D  13      18.032   1.777  64.644  1.00 55.63 LIG 0.20  C 
ATOM     17 O    ILE D  13      18.407   2.795  65.231  1.00 56.94 LIG-0.65  OA
ATOM     18 OXT  ILE D  13      18.206   0.654  65.137  1.00 55.86 LIG-0.65  OA
ENDBRANCH 11 16
ENDBRANCH 8 11
ENDBRANCH 6 7
BRANCH 6 19
ATOM     19  CB  HIS D  12      17.955   4.261  59.359  1.00 50.55 LIG 0.10  C 
BRANCH 19 20
ATOM     20  CG  HIS D  12      17.514   5.196  58.278  1.00 49.61 LIG 0.06  A 
ATOM     21  CD2 HIS D  12      16.907   4.965  57.090  1.00 48.49 LIG 0.14  A 
ATOM     22 NE2  HIS D  12      16.723   6.184  56.486  1.00 48.62 LIG-0.25  NA
ATOM     23  CE1 HIS D  12      17.177   7.132  57.284  1.00 49.12 LIG 0.23  A 
ATOM     24 ND1  HIS D  12      17.664   6.562  58.371  1.00 49.92 LIG-0.24  NA
ENDBRANCH 19 20
ENDBRANCH 6 19
ENDBRANCH 4 6
ENDBRANCH 1 2
BRANCH 1 25
ATOM     25  CB  LEU D  11      21.096   5.230  62.889  1.00 47.69 LIG 0.04  C 
BRANCH 25 26
ATOM     26  CG  LEU D  11      21.808   5.427  61.545  1.00 48.05 LIG-0.02  C 
ATOM     27  CD1 LEU D  11      22.784   6.591  61.635  1.00 46.53 LIG 0.01  C 
ATOM     28  CD2 LEU D  11      22.505   4.176  61.064  1.00 50.43 LIG 0.01  C 
ENDBRANCH 25 26
ENDBRANCH 1 25
BRANCH 1 29
ATOM     29  N   LEU D  11      19.954   6.279  64.765  1.00 47.51 LIG-0.35  N 
ATOM     30  C   LEU D  10      19.638   7.389  65.433  1.00 47.80 LIG 0.24  C 
ATOM     31 O    LEU D  10      19.295   8.447  64.886  1.00 47.07 LIG-0.27  OA
ATOM     32 H    LEU D  11      20.140   5.533  65.151  1.00 47.51 LIG 0.16  HD
BRANCH 30 33
ATOM     33  CA  LEU D  10      19.728   7.292  66.950  1.00 47.63 LIG 0.18  C 
BRANCH 33 34
ATOM     34  CB  LEU D  10      18.494   6.611  67.534  1.00 47.29 LIG 0.04  C 
BRANCH 34 35
ATOM     35  CG  LEU D  10      18.408   5.111  67.226  1.00 46.92 LIG-0.02  C 
ATOM     36  CD1 LEU D  10      19.758   4.416  67.390  1.00 46.83 LIG 0.01  C 
ATOM     37  CD2 LEU D  10      17.396   4.438  68.091  1.00 45.50 LIG 0.01  C 
ENDBRANCH 34 35
ENDBRANCH 33 34
BRANCH 33 38
ATOM     38  N   LEU D  10      19.939   8.612  67.520  1.00 47.82 LIG-0.35  N 
ATOM     39 H    LEU D  10      19.259   8.943  67.929  1.00 47.82 LIG 0.16  HD
ATOM     40  C   ASP D   9      21.111   9.222  67.393  1.00 48.63 LIG 0.26  C 
ATOM     41 O    ASP D   9      22.064   8.734  66.790  1.00 48.10 LIG-0.27  OA
BRANCH 40 42
ATOM     42  CA  ASP D   9      21.219  10.583  68.029  1.00 49.27 LIG 0.41  C 
ATOM     43  N   ASP D   9      20.083  10.728  68.976  1.00 49.86 LIG 0.61  N 
BRANCH 42 44
ATOM     44  CB  ASP D   9      22.548  10.678  68.766  1.00 50.02 LIG 0.16  C 
BRANCH 44 45
ATOM     45  CG  ASP D   9      22.384  11.061  70.207  1.00 50.84 LIG 0.17  C 
ATOM     46 OD1  ASP D   9      21.698  12.060  70.479  1.00 53.44 LIG-0.65  OA
ATOM     47 OD2  ASP D   9      22.885  10.404  71.148  1.00 53.75 LIG-0.65  OA
ENDBRANCH 44 45
ENDBRANCH 42 44
ENDBRANCH 40 42
ENDBRANCH 33 38
ENDBRANCH 30 33
ENDBRANCH 1 29
TORSDOF 19
ENDMDL
MODEL 22
USER: ADFR SOLUTION from run 98
USER: SCORE 15.600524 LL:  -4.930 LR: -11.235 RR:   0.000 FEB:  -5.567
USER: RMSD 3.745657
USER: SEED 97
USER: STATUS no improvement in best in 9 clusters for 5 generations
USER: GENES 21
USER: genes 0 Translation |==|  0.58674 0.40855 0.50283
USER: genes 1 Rotation |==|  0.51905 0.45166 0.59174 0.98876
USER: genes 2 Torsion [N]-CA--C-[N] |==|  0.39657
USER: genes 3 Torsion [C]-N--CA-[C] |==|  0.84394
USER: genes 4 Torsion [N]-CA--C-[N] |==|  0.38855
USER: genes 5 Torsion [C]-N--CA-[CB] |==|  0.27127
USER: genes 6 Torsion [N]-CA--CB-[CG1] |==|  0.11029
USER: genes 7 Torsion [CA]-CB--CG1-[CD1] |==|  0.66243
USER: genes 8 Torsion [N]-CA--C-[OXT] |==|  0.49554
USER: genes 9 Torsion [N]-CA--CB-[CG] |==|  0.49752
USER: genes 10 Torsion [CA]-CB--CG-[CD2] |==|  0.26045
USER: genes 11 Torsion [C]-CA--CB-[CG] |==|  0.21451
USER: genes 12 Torsion [CA]-CB--CG-[CD1] |==|  0.70481
USER: genes 13 Torsion [C]-CA--N-[C] |==|  0.77598
USER: genes 14 Torsion [N]-C--CA-[N] |==|  0.53589
USER: genes 15 Torsion [C]-CA--CB-[CG] |==|  0.79487
USER: genes 16 Torsion [CA]-CB--CG-[CD2] |==|  0.73140
USER: genes 17 Torsion [C]-CA--N-[C] |==|  0.72222
USER: genes 18 Torsion [N]-C--CA-[N] |==|  0.22820
USER: genes 19 Torsion [C]-CA--CB-[CG] |==|  0.75031
USER: genes 20 Torsion [CA]-CB--CG-[OD1] |==|  0.80539
ROOT
ATOM      1  CA  LEU D  11      20.473   5.314  62.955  1.00 47.89 LIG 0.18  C 
ENDROOT
BRANCH 1 2
ATOM      2  C   LEU D  11      19.298   4.753  62.166  1.00 48.14 LIG 0.24  C 
ATOM      3 O    LEU D  11      18.700   3.757  62.551  1.00 47.13 LIG-0.27  OA
ATOM      4  N   HIS D  12      18.996   5.381  61.035  1.00 49.28 LIG-0.35  N 
ATOM      5 H    HIS D  12      19.396   6.087  60.750  1.00 49.28 LIG 0.16  HD
BRANCH 4 6
ATOM      6  CA  HIS D  12      17.926   4.890  60.173  1.00 50.49 LIG 0.18  C 
BRANCH 6 7
ATOM      7  C   HIS D  12      18.149   3.436  59.764  1.00 51.38 LIG 0.24  C 
ATOM      8  N   ILE D  13      17.054   2.693  59.754  1.00 53.16 LIG-0.34  N 
ATOM      9 H    ILE D  13      16.294   3.016  59.992  1.00 53.16 LIG 0.16  HD
ATOM     10 O    HIS D  12      19.261   3.023  59.466  1.00 51.57 LIG-0.27  OA
BRANCH 8 11
ATOM     11  CA  ILE D  13      16.954   1.278  59.359  1.00 55.12 LIG 0.19  C 
BRANCH 11 12
ATOM     12  CB  ILE D  13      16.978   0.279  60.572  1.00 55.01 LIG 0.01  C 
ATOM     13  CG2 ILE D  13      18.407  -0.071  61.028  1.00 56.15 LIG 0.01  C 
BRANCH 12 14
ATOM     14  CG1 ILE D  13      16.160   0.846  61.736  1.00 55.50 LIG 0.00  C 
ATOM     15  CD1 ILE D  13      16.962   1.025  63.053  1.00 55.45 LIG 0.01  C 
ENDBRANCH 12 14
ENDBRANCH 11 12
BRANCH 11 16
ATOM     16  C   ILE D  13      15.935   0.881  58.287  1.00 55.63 LIG 0.20  C 
ATOM     17 O    ILE D  13      15.168   1.712  57.796  1.00 56.94 LIG-0.65  OA
ATOM     18 OXT  ILE D  13      15.889  -0.310  57.948  1.00 55.86 LIG-0.65  OA
ENDBRANCH 11 16
ENDBRANCH 8 11
ENDBRANCH 6 7
BRANCH 6 19
ATOM     19  CB  HIS D  12      17.768   5.769  58.931  1.00 50.55 LIG 0.10  C 
BRANCH 19 20
ATOM     20  CG  HIS D  12      16.697   5.303  57.995  1.00 49.61 LIG 0.06  A 
ATOM     21  CD2 HIS D  12      15.393   5.649  57.887  1.00 48.49 LIG 0.14  A 
ATOM     22 NE2  HIS D  12      14.866   4.919  56.852  1.00 48.62 LIG-0.25  NA
ATOM     23  CE1 HIS D  12      15.816   4.169  56.326  1.00 49.12 LIG 0.23  A 
ATOM     24 ND1  HIS D  12      16.931   4.378  57.001  1.00 49.92 LIG-0.24  NA
ENDBRANCH 19 20
ENDBRANCH 6 19
ENDBRANCH 4 6
ENDBRANCH 1 2
BRANCH 1 25
ATOM     25  CB  LEU D  11      21.713   4.511  62.576  1.00 47.69 LIG 0.04  C 
BRANCH 25 26
ATOM     26  CG  LEU D  11      22.408   4.792  61.238  1.00 48.05 LIG-0.02  C 
ATOM     27  CD1 LEU D  11      22.122   3.667  60.254  1.00 46.53 LIG 0.01  C 
ATOM     28  CD2 LEU D  11      22.027   6.131  60.651  1.00 50.43 LIG 0.01  C 
ENDBRANCH 25 26
ENDBRANCH 1 25
BRANCH 1 29
ATOM     29  N   LEU D  11      20.282   5.261  64.397  1.00 47.51 LIG-0.35  N 
ATOM     30  C   LEU D  10      19.561   6.163  65.065  1.00 47.80 LIG 0.24  C 
ATOM     31 O    LEU D  10      18.927   7.078  64.520  1.00 47.07 LIG-0.27  OA
ATOM     32 H    LEU D  11      20.676   4.597  64.776  1.00 47.51 LIG 0.16  HD
BRANCH 30 33
ATOM     33  CA  LEU D  10      19.561   6.011  66.580  1.00 47.63 LIG 0.18  C 
BRANCH 33 34
ATOM     34  CB  LEU D  10      19.418   4.548  66.988  1.00 47.29 LIG 0.04  C 
BRANCH 34 35
ATOM     35  CG  LEU D  10      18.007   3.983  66.792  1.00 46.92 LIG-0.02  C 
ATOM     36  CD1 LEU D  10      18.033   2.549  66.265  1.00 46.83 LIG 0.01  C 
ATOM     37  CD2 LEU D  10      17.223   4.029  68.061  1.00 45.50 LIG 0.01  C 
ENDBRANCH 34 35
ENDBRANCH 33 34
BRANCH 33 38
ATOM     38  N   LEU D  10      18.518   6.840  67.161  1.00 47.82 LIG-0.35  N 
ATOM     39 H    LEU D  10      17.727   6.505  67.125  1.00 47.82 LIG 0.16  HD
ATOM     40  C   ASP D   9      18.813   8.017  67.698  1.00 48.63 LIG 0.26  C 
ATOM     41 O    ASP D   9      19.951   8.481  67.726  1.00 48.10 LIG-0.27  OA
BRANCH 40 42
ATOM     42  CA  ASP D   9      17.656   8.787  68.277  1.00 49.27 LIG 0.41  C 
ATOM     43  N   ASP D   9      17.400   8.256  69.641  1.00 49.86 LIG 0.61  N 
BRANCH 42 44
ATOM     44  CB  ASP D   9      18.027  10.262  68.337  1.00 50.02 LIG 0.16  C 
BRANCH 44 45
ATOM     45  CG  ASP D   9      18.686  10.642  69.630  1.00 50.84 LIG 0.17  C 
ATOM     46 OD1  ASP D   9      17.996  10.654  70.664  1.00 53.44 LIG-0.65  OA
ATOM     47 OD2  ASP D   9      19.903  10.920  69.718  1.00 53.75 LIG-0.65  OA
ENDBRANCH 44 45
ENDBRANCH 42 44
ENDBRANCH 40 42
ENDBRANCH 33 38
ENDBRANCH 30 33
ENDBRANCH 1 29
TORSDOF 19
ENDMDL
MODEL 23
USER: ADFR SOLUTION from run 152
USER: SCORE 15.090127 LL:  -4.256 LR: -11.228 RR:   0.000 FEB:  -5.560
USER: RMSD 2.746377
USER: SEED 151
USER: STATUS no improvement in best in 5 clusters for 5 generations
USER: GENES 21
USER: genes 0 Translation |==|  0.53617 0.41084 0.46932
USER: genes 1 Rotation |==|  0.48203 0.49592 0.57777 0.99357
USER: genes 2 Torsion [N]-CA--C-[N] |==|  0.34972
USER: genes 3 Torsion [C]-N--CA-[C] |==|  0.68522
USER: genes 4 Torsion [N]-CA--C-[N] |==|  0.44444
USER: genes 5 Torsion [C]-N--CA-[CB] |==|  0.27723
USER: genes 6 Torsion [N]-CA--CB-[CG1] |==|  0.40869
USER: genes 7 Torsion [CA]-CB--CG1-[CD1] |==|  0.56172
USER: genes 8 Torsion [N]-CA--C-[OXT] |==|  0.32778
USER: genes 9 Torsion [N]-CA--CB-[CG] |==|  0.95970
USER: genes 10 Torsion [CA]-CB--CG-[CD2] |==|  0.72656
USER: genes 11 Torsion [C]-CA--CB-[CG] |==|  0.29362
USER: genes 12 Torsion [CA]-CB--CG-[CD1] |==|  0.23238
USER: genes 13 Torsion [C]-CA--N-[C] |==|  0.80458
USER: genes 14 Torsion [N]-C--CA-[N] |==|  0.35022
USER: genes 15 Torsion [C]-CA--CB-[CG] |==|  0.29367
USER: genes 16 Torsion [CA]-CB--CG-[CD2] |==|  0.37713
USER: genes 17 Torsion [C]-CA--N-[C] |==|  0.65855
USER: genes 18 Torsion [N]-C--CA-[N] |==|  0.21956
USER: genes 19 Torsion [C]-CA--CB-[CG] |==|  0.63667
USER: genes 20 Torsion [CA]-CB--CG-[OD1] |==|  0.86382
ROOT
ATOM      1  CA  LEU D  11      19.487   5.357  62.201  1.00 47.89 LIG 0.18  C 
ENDROOT
BRANCH 1 2
ATOM      2  C   LEU D  11      18.176   4.766  61.700  1.00 48.14 LIG 0.24  C 
ATOM      3 O    LEU D  11      17.750   3.710  62.148  1.00 47.13 LIG-0.27  OA
ATOM      4  N   HIS D  12      17.559   5.440  60.735  1.00 49.28 LIG-0.35  N 
ATOM      5 H    HIS D  12      17.835   6.187  60.412  1.00 49.28 LIG 0.16  HD
BRANCH 4 6
ATOM      6  CA  HIS D  12      16.327   4.931  60.142  1.00 50.49 LIG 0.18  C 
BRANCH 6 7
ATOM      7  C   HIS D  12      16.522   4.537  58.680  1.00 51.38 LIG 0.24  C 
ATOM      8  N   ILE D  13      15.608   3.705  58.208  1.00 53.16 LIG-0.34  N 
ATOM      9 H    ILE D  13      14.980   3.399  58.710  1.00 53.16 LIG 0.16  HD
ATOM     10 O    HIS D  12      17.453   4.978  58.022  1.00 51.57 LIG-0.27  OA
BRANCH 8 11
ATOM     11  CA  ILE D  13      15.512   3.193  56.831  1.00 55.12 LIG 0.19  C 
BRANCH 11 12
ATOM     12  CB  ILE D  13      16.091   1.743  56.652  1.00 55.01 LIG 0.01  C 
ATOM     13  CG2 ILE D  13      16.120   0.946  57.970  1.00 56.15 LIG 0.01  C 
BRANCH 12 14
ATOM     14  CG1 ILE D  13      15.299   0.989  55.579  1.00 55.50 LIG 0.00  C 
ATOM     15  CD1 ILE D  13      15.394  -0.557  55.683  1.00 55.45 LIG 0.01  C 
ENDBRANCH 12 14
ENDBRANCH 11 12
BRANCH 11 16
ATOM     16  C   ILE D  13      14.211   3.409  56.051  1.00 55.63 LIG 0.20  C 
ATOM     17 O    ILE D  13      13.150   2.904  56.426  1.00 56.94 LIG-0.65  OA
ATOM     18 OXT  ILE D  13      14.264   4.087  55.016  1.00 55.86 LIG-0.65  OA
ENDBRANCH 11 16
ENDBRANCH 8 11
ENDBRANCH 6 7
BRANCH 6 19
ATOM     19  CB  HIS D  12      15.190   5.947  60.267  1.00 50.55 LIG 0.10  C 
BRANCH 19 20
ATOM     20  CG  HIS D  12      15.471   7.050  61.237  1.00 49.61 LIG 0.06  A 
ATOM     21  CD2 HIS D  12      15.097   7.222  62.527  1.00 48.49 LIG 0.14  A 
ATOM     22 NE2  HIS D  12      15.634   8.412  62.949  1.00 48.62 LIG-0.25  NA
ATOM     23  CE1 HIS D  12      16.334   8.941  61.963  1.00 49.12 LIG 0.23  A 
ATOM     24 ND1  HIS D  12      16.248   8.141  60.916  1.00 49.92 LIG-0.24  NA
ENDBRANCH 19 20
ENDBRANCH 6 19
ENDBRANCH 4 6
ENDBRANCH 1 2
BRANCH 1 25
ATOM     25  CB  LEU D  11      20.610   4.408  61.796  1.00 47.69 LIG 0.04  C 
BRANCH 25 26
ATOM     26  CG  LEU D  11      21.541   4.798  60.641  1.00 48.05 LIG-0.02  C 
ATOM     27  CD1 LEU D  11      22.652   5.706  61.149  1.00 46.53 LIG 0.01  C 
ATOM     28  CD2 LEU D  11      22.111   3.600  59.920  1.00 50.43 LIG 0.01  C 
ENDBRANCH 25 26
ENDBRANCH 1 25
BRANCH 1 29
ATOM     29  N   LEU D  11      19.518   5.560  63.642  1.00 47.51 LIG-0.35  N 
ATOM     30  C   LEU D  10      18.795   6.497  64.257  1.00 47.80 LIG 0.24  C 
ATOM     31 O    LEU D  10      17.977   7.226  63.678  1.00 47.07 LIG-0.27  OA
ATOM     32 H    LEU D  11      20.045   5.022  64.057  1.00 47.51 LIG 0.16  HD
BRANCH 30 33
ATOM     33  CA  LEU D  10      19.037   6.636  65.754  1.00 47.63 LIG 0.18  C 
BRANCH 33 34
ATOM     34  CB  LEU D  10      17.841   6.132  66.555  1.00 47.29 LIG 0.04  C 
BRANCH 34 35
ATOM     35  CG  LEU D  10      18.074   4.776  67.232  1.00 46.92 LIG-0.02  C 
ATOM     36  CD1 LEU D  10      19.548   4.377  67.221  1.00 46.83 LIG 0.01  C 
ATOM     37  CD2 LEU D  10      17.572   4.779  68.638  1.00 45.50 LIG 0.01  C 
ENDBRANCH 34 35
ENDBRANCH 33 34
BRANCH 33 38
ATOM     38  N   LEU D  10      19.364   8.014  66.077  1.00 47.82 LIG-0.35  N 
ATOM     39 H    LEU D  10      18.773   8.592  65.840  1.00 47.82 LIG 0.16  HD
ATOM     40  C   ASP D   9      20.502   8.311  66.693  1.00 48.63 LIG 0.26  C 
ATOM     41 O    ASP D   9      21.338   7.468  67.010  1.00 48.10 LIG-0.27  OA
BRANCH 40 42
ATOM     42  CA  ASP D   9      20.733   9.771  66.985  1.00 49.27 LIG 0.41  C 
ATOM     43  N   ASP D   9      19.936  10.120  68.189  1.00 49.86 LIG 0.61  N 
BRANCH 42 44
ATOM     44  CB  ASP D   9      22.217   9.992  67.240  1.00 50.02 LIG 0.16  C 
BRANCH 44 45
ATOM     45  CG  ASP D   9      22.478  10.777  68.492  1.00 50.84 LIG 0.17  C 
ATOM     46 OD1  ASP D   9      21.845  11.832  68.671  1.00 53.44 LIG-0.65  OA
ATOM     47 OD2  ASP D   9      23.284  10.404  69.374  1.00 53.75 LIG-0.65  OA
ENDBRANCH 44 45
ENDBRANCH 42 44
ENDBRANCH 40 42
ENDBRANCH 33 38
ENDBRANCH 30 33
ENDBRANCH 1 29
TORSDOF 19
ENDMDL
MODEL 24
USER: ADFR SOLUTION from run 63
USER: SCORE 14.764468 LL:  -4.575 LR: -11.202 RR:   0.000 FEB:  -5.534
USER: RMSD 2.988119
USER: SEED 62
USER: STATUS no improvement in best in 7 clusters for 5 generations
USER: GENES 21
USER: genes 0 Translation |==|  0.52721 0.43510 0.52126
USER: genes 1 Rotation |==|  0.50864 0.52547 0.79138 0.90543
USER: genes 2 Torsion [N]-CA--C-[N] |==|  0.43753
USER: genes 3 Torsion [C]-N--CA-[C] |==|  0.58635
USER: genes 4 Torsion [N]-CA--C-[N] |==|  0.83078
USER: genes 5 Torsion [C]-N--CA-[CB] |==|  0.25518
USER: genes 6 Torsion [N]-CA--CB-[CG1] |==|  0.22810
USER: genes 7 Torsion [CA]-CB--CG1-[CD1] |==|  0.46817
USER: genes 8 Torsion [N]-CA--C-[OXT] |==|  0.05640
USER: genes 9 Torsion [N]-CA--CB-[CG] |==|  0.15864
USER: genes 10 Torsion [CA]-CB--CG-[CD2] |==|  0.84634
USER: genes 11 Torsion [C]-CA--CB-[CG] |==|  0.02924
USER: genes 12 Torsion [CA]-CB--CG-[CD1] |==|  0.35331
USER: genes 13 Torsion [C]-CA--N-[C] |==|  0.69385
USER: genes 14 Torsion [N]-C--CA-[N] |==|  0.30569
USER: genes 15 Torsion [C]-CA--CB-[CG] |==|  0.16107
USER: genes 16 Torsion [CA]-CB--CG-[CD2] |==|  0.44618
USER: genes 17 Torsion [C]-CA--N-[C] |==|  0.76667
USER: genes 18 Torsion [N]-C--CA-[N] |==|  0.10625
USER: genes 19 Torsion [C]-CA--CB-[CG] |==|  0.64377
USER: genes 20 Torsion [CA]-CB--CG-[OD1] |==|  0.37436
ROOT
ATOM      1  CA  LEU D  11      19.313   5.812  63.369  1.00 47.89 LIG 0.18  C 
ENDROOT
BRANCH 1 2
ATOM      2  C   LEU D  11      18.924   4.401  62.947  1.00 48.14 LIG 0.24  C 
ATOM      3 O    LEU D  11      19.154   3.442  63.671  1.00 47.13 LIG-0.27  OA
ATOM      4  N   HIS D  12      18.367   4.280  61.747  1.00 49.28 LIG-0.35  N 
ATOM      5 H    HIS D  12      18.187   4.940  61.226  1.00 49.28 LIG 0.16  HD
BRANCH 4 6
ATOM      6  CA  HIS D  12      18.011   2.967  61.221  1.00 50.49 LIG 0.18  C 
BRANCH 6 7
ATOM      7  C   HIS D  12      18.121   2.918  59.698  1.00 51.38 LIG 0.24  C 
ATOM      8  N   ILE D  13      17.327   3.765  59.063  1.00 53.16 LIG-0.34  N 
ATOM      9 H    ILE D  13      16.779   4.271  59.491  1.00 53.16 LIG 0.16  HD
ATOM     10 O    HIS D  12      18.895   2.154  59.141  1.00 51.57 LIG-0.27  OA
BRANCH 8 11
ATOM     11  CA  ILE D  13      17.249   3.974  57.608  1.00 55.12 LIG 0.19  C 
BRANCH 11 12
ATOM     12  CB  ILE D  13      16.170   3.080  56.896  1.00 55.01 LIG 0.01  C 
ATOM     13  CG2 ILE D  13      16.157   1.632  57.420  1.00 56.15 LIG 0.01  C 
BRANCH 12 14
ATOM     14  CG1 ILE D  13      14.785   3.719  57.031  1.00 55.50 LIG 0.00  C 
ATOM     15  CD1 ILE D  13      13.694   3.074  56.134  1.00 55.45 LIG 0.01  C 
ENDBRANCH 12 14
ENDBRANCH 11 12
BRANCH 11 16
ATOM     16  C   ILE D  13      17.279   5.406  57.065  1.00 55.63 LIG 0.20  C 
ATOM     17 O    ILE D  13      16.879   5.667  55.927  1.00 56.94 LIG-0.65  OA
ATOM     18 OXT  ILE D  13      17.743   6.292  57.797  1.00 55.86 LIG-0.65  OA
ENDBRANCH 11 16
ENDBRANCH 8 11
ENDBRANCH 6 7
BRANCH 6 19
ATOM     19  CB  HIS D  12      16.605   2.555  61.661  1.00 50.55 LIG 0.10  C 
BRANCH 19 20
ATOM     20  CG  HIS D  12      15.540   3.528  61.267  1.00 49.61 LIG 0.06  A 
ATOM     21  CD2 HIS D  12      15.409   4.854  61.504  1.00 48.49 LIG 0.14  A 
ATOM     22 NE2  HIS D  12      14.240   5.258  60.909  1.00 48.62 LIG-0.25  NA
ATOM     23  CE1 HIS D  12      13.684   4.224  60.306  1.00 49.12 LIG 0.23  A 
ATOM     24 ND1  HIS D  12      14.446   3.165  60.511  1.00 49.92 LIG-0.24  NA
ENDBRANCH 19 20
ENDBRANCH 6 19
ENDBRANCH 4 6
ENDBRANCH 1 2
BRANCH 1 25
ATOM     25  CB  LEU D  11      20.652   6.140  62.719  1.00 47.69 LIG 0.04  C 
BRANCH 25 26
ATOM     26  CG  LEU D  11      21.211   5.203  61.641  1.00 48.05 LIG-0.02  C 
ATOM     27  CD1 LEU D  11      21.557   5.994  60.388  1.00 46.53 LIG 0.01  C 
ATOM     28  CD2 LEU D  11      22.400   4.405  62.120  1.00 50.43 LIG 0.01  C 
ENDBRANCH 25 26
ENDBRANCH 1 25
BRANCH 1 29
ATOM     29  N   LEU D  11      19.420   5.976  64.812  1.00 47.51 LIG-0.35  N 
ATOM     30  C   LEU D  10      18.553   6.696  65.525  1.00 47.80 LIG 0.24  C 
ATOM     31 O    LEU D  10      17.539   7.225  65.047  1.00 47.07 LIG-0.27  OA
ATOM     32 H    LEU D  11      20.093   5.567  65.159  1.00 47.51 LIG 0.16  HD
BRANCH 30 33
ATOM     33  CA  LEU D  10      18.885   6.847  67.004  1.00 47.63 LIG 0.18  C 
BRANCH 33 34
ATOM     34  CB  LEU D  10      17.720   6.395  67.880  1.00 47.29 LIG 0.04  C 
BRANCH 34 35
ATOM     35  CG  LEU D  10      17.291   4.943  67.642  1.00 46.92 LIG-0.02  C 
ATOM     36  CD1 LEU D  10      18.486   4.028  67.384  1.00 46.83 LIG 0.01  C 
ATOM     37  CD2 LEU D  10      16.504   4.415  68.795  1.00 45.50 LIG 0.01  C 
ENDBRANCH 34 35
ENDBRANCH 33 34
BRANCH 33 38
ATOM     38  N   LEU D  10      19.277   8.217  67.287  1.00 47.82 LIG-0.35  N 
ATOM     39 H    LEU D  10      18.646   8.720  67.584  1.00 47.82 LIG 0.16  HD
ATOM     40  C   ASP D   9      20.526   8.617  67.086  1.00 48.63 LIG 0.26  C 
ATOM     41 O    ASP D   9      21.408   7.882  66.647  1.00 48.10 LIG-0.27  OA
BRANCH 40 42
ATOM     42  CA  ASP D   9      20.821  10.056  67.420  1.00 49.27 LIG 0.41  C 
ATOM     43  N   ASP D   9      20.055  10.398  68.647  1.00 49.86 LIG 0.61  N 
BRANCH 42 44
ATOM     44  CB  ASP D   9      22.316  10.209  67.661  1.00 50.02 LIG 0.16  C 
BRANCH 44 45
ATOM     45  CG  ASP D   9      22.626  10.888  68.962  1.00 50.84 LIG 0.17  C 
ATOM     46 OD1  ASP D   9      23.515  10.404  69.684  1.00 53.44 LIG-0.65  OA
ATOM     47 OD2  ASP D   9      22.050  11.932  69.340  1.00 53.75 LIG-0.65  OA
ENDBRANCH 44 45
ENDBRANCH 42 44
ENDBRANCH 40 42
ENDBRANCH 33 38
ENDBRANCH 30 33
ENDBRANCH 1 29
TORSDOF 19
ENDMDL
MODEL 25
USER: ADFR SOLUTION from run 25
USER: SCORE 15.177548 LL:  -4.474 LR: -11.179 RR:   0.000 FEB:  -5.511
USER: RMSD 4.523995
USER: SEED 24
USER: STATUS no improvement in best in 16 clusters for 5 generations
USER: GENES 21
USER: genes 0 Translation |==|  0.57268 0.43805 0.49657
USER: genes 1 Rotation |==|  0.46669 0.49116 0.69975 0.95707
USER: genes 2 Torsion [N]-CA--C-[N] |==|  0.38603
USER: genes 3 Torsion [C]-N--CA-[C] |==|  0.54445
USER: genes 4 Torsion [N]-CA--C-[N] |==|  0.50323
USER: genes 5 Torsion [C]-N--CA-[CB] |==|  0.42605
USER: genes 6 Torsion [N]-CA--CB-[CG1] |==|  0.41591
USER: genes 7 Torsion [CA]-CB--CG1-[CD1] |==|  0.48062
USER: genes 8 Torsion [N]-CA--C-[OXT] |==|  0.86152
USER: genes 9 Torsion [N]-CA--CB-[CG] |==|  0.67969
USER: genes 10 Torsion [CA]-CB--CG-[CD2] |==|  0.69111
USER: genes 11 Torsion [C]-CA--CB-[CG] |==|  0.21393
USER: genes 12 Torsion [CA]-CB--CG-[CD1] |==|  0.74095
USER: genes 13 Torsion [C]-CA--N-[C] |==|  0.83096
USER: genes 14 Torsion [N]-C--CA-[N] |==|  0.44561
USER: genes 15 Torsion [C]-CA--CB-[CG] |==|  0.81893
USER: genes 16 Torsion [CA]-CB--CG-[CD2] |==|  0.66463
USER: genes 17 Torsion [C]-CA--N-[C] |==|  0.55404
USER: genes 18 Torsion [N]-C--CA-[N] |==|  0.37545
USER: genes 19 Torsion [C]-CA--CB-[CG] |==|  0.72548
USER: genes 20 Torsion [CA]-CB--CG-[OD1] |==|  0.80331
ROOT
ATOM      1  CA  LEU D  11      20.199   5.867  62.814  1.00 47.89 LIG 0.18  C 
ENDROOT
BRANCH 1 2
ATOM      2  C   LEU D  11      19.357   4.682  62.361  1.00 48.14 LIG 0.24  C 
ATOM      3 O    LEU D  11      19.309   3.654  63.024  1.00 47.13 LIG-0.27  OA
ATOM      4  N   HIS D  12      18.724   4.820  61.202  1.00 49.28 LIG-0.35  N 
ATOM      5 H    HIS D  12      18.735   5.536  60.724  1.00 49.28 LIG 0.16  HD
BRANCH 4 6
ATOM      6  CA  HIS D  12      17.938   3.723  60.647  1.00 50.49 LIG 0.18  C 
BRANCH 6 7
ATOM      7  C   HIS D  12      17.629   3.940  59.167  1.00 51.38 LIG 0.24  C 
ATOM      8  N   ILE D  13      16.897   2.987  58.614  1.00 53.16 LIG-0.34  N 
ATOM      9 H    ILE D  13      16.651   2.295  59.061  1.00 53.16 LIG 0.16  HD
ATOM     10 O    HIS D  12      18.032   4.928  58.572  1.00 51.57 LIG-0.27  OA
BRANCH 8 11
ATOM     11  CA  ILE D  13      16.406   2.948  57.226  1.00 55.12 LIG 0.19  C 
BRANCH 11 12
ATOM     12  CB  ILE D  13      16.164   1.494  56.680  1.00 55.01 LIG 0.01  C 
ATOM     13  CG2 ILE D  13      15.875   0.477  57.800  1.00 56.15 LIG 0.01  C 
BRANCH 12 14
ATOM     14  CG1 ILE D  13      15.031   1.502  55.649  1.00 55.50 LIG 0.00  C 
ATOM     15  CD1 ILE D  13      14.821   0.148  54.920  1.00 55.45 LIG 0.01  C 
ENDBRANCH 12 14
ENDBRANCH 11 12
BRANCH 11 16
ATOM     16  C   ILE D  13      15.308   3.928  56.803  1.00 55.63 LIG 0.20  C 
ATOM     17 O    ILE D  13      15.432   4.633  55.799  1.00 56.94 LIG-0.65  OA
ATOM     18 OXT  ILE D  13      14.299   4.008  57.519  1.00 55.86 LIG-0.65  OA
ENDBRANCH 11 16
ENDBRANCH 8 11
ENDBRANCH 6 7
BRANCH 6 19
ATOM     19  CB  HIS D  12      16.641   3.518  61.431  1.00 50.55 LIG 0.10  C 
BRANCH 19 20
ATOM     20  CG  HIS D  12      16.564   2.200  62.135  1.00 49.61 LIG 0.06  A 
ATOM     21  CD2 HIS D  12      15.783   1.116  61.919  1.00 48.49 LIG 0.14  A 
ATOM     22 NE2  HIS D  12      16.127   0.176  62.857  1.00 48.62 LIG-0.25  NA
ATOM     23  CE1 HIS D  12      17.102   0.654  63.608  1.00 49.12 LIG 0.23  A 
ATOM     24 ND1  HIS D  12      17.381   1.877  63.197  1.00 49.92 LIG-0.24  NA
ENDBRANCH 19 20
ENDBRANCH 6 19
ENDBRANCH 4 6
ENDBRANCH 1 2
BRANCH 1 25
ATOM     25  CB  LEU D  11      21.653   5.565  62.468  1.00 47.69 LIG 0.04  C 
BRANCH 25 26
ATOM     26  CG  LEU D  11      22.124   5.710  61.016  1.00 48.05 LIG-0.02  C 
ATOM     27  CD1 LEU D  11      22.017   4.375  60.295  1.00 46.53 LIG 0.01  C 
ATOM     28  CD2 LEU D  11      21.380   6.790  60.266  1.00 50.43 LIG 0.01  C 
ENDBRANCH 25 26
ENDBRANCH 1 25
BRANCH 1 29
ATOM     29  N   LEU D  11      20.087   6.148  64.237  1.00 47.51 LIG-0.35  N 
ATOM     30  C   LEU D  10      18.932   6.471  64.822  1.00 47.80 LIG 0.24  C 
ATOM     31 O    LEU D  10      17.842   6.489  64.233  1.00 47.07 LIG-0.27  OA
ATOM     32 H    LEU D  11      20.831   6.086  64.664  1.00 47.51 LIG 0.16  HD
BRANCH 30 33
ATOM     33  CA  LEU D  10      19.024   6.838  66.298  1.00 47.63 LIG 0.18  C 
BRANCH 33 34
ATOM     34  CB  LEU D  10      19.222   5.597  67.163  1.00 47.29 LIG 0.04  C 
BRANCH 34 35
ATOM     35  CG  LEU D  10      18.033   4.630  67.143  1.00 46.92 LIG-0.02  C 
ATOM     36  CD1 LEU D  10      18.407   3.276  66.543  1.00 46.83 LIG 0.01  C 
ATOM     37  CD2 LEU D  10      17.476   4.427  68.512  1.00 45.50 LIG 0.01  C 
ENDBRANCH 34 35
ENDBRANCH 33 34
BRANCH 33 38
ATOM     38  N   LEU D  10      17.848   7.594  66.695  1.00 47.82 LIG-0.35  N 
ATOM     39 H    LEU D  10      17.171   7.511  66.172  1.00 47.82 LIG 0.16  HD
ATOM     40  C   ASP D   9      17.865   8.341  67.791  1.00 48.63 LIG 0.26  C 
ATOM     41 O    ASP D   9      18.851   8.455  68.516  1.00 48.10 LIG-0.27  OA
BRANCH 40 42
ATOM     42  CA  ASP D   9      16.589   9.075  68.110  1.00 49.27 LIG 0.41  C 
ATOM     43  N   ASP D   9      16.322   8.904  69.562  1.00 49.86 LIG 0.61  N 
BRANCH 42 44
ATOM     44  CB  ASP D   9      16.769  10.547  67.767  1.00 50.02 LIG 0.16  C 
BRANCH 44 45
ATOM     45  CG  ASP D   9      17.093  11.386  68.968  1.00 50.84 LIG 0.17  C 
ATOM     46 OD1  ASP D   9      16.199  11.584  69.809  1.00 53.44 LIG-0.65  OA
ATOM     47 OD2  ASP D   9      18.228  11.871  69.174  1.00 53.75 LIG-0.65  OA
ENDBRANCH 44 45
ENDBRANCH 42 44
ENDBRANCH 40 42
ENDBRANCH 33 38
ENDBRANCH 30 33
ENDBRANCH 1 29
TORSDOF 19
ENDMDL
MODEL 26
USER: ADFR SOLUTION from run 66
USER: SCORE 15.182508 LL:  -4.328 LR: -11.152 RR:   0.000 FEB:  -5.485
USER: RMSD 2.742245
USER: SEED 65
USER: STATUS no improvement in best in 16 clusters for 5 generations
USER: GENES 21
USER: genes 0 Translation |==|  0.56512 0.42196 0.47368
USER: genes 1 Rotation |==|  0.48895 0.46148 0.56356 0.99432
USER: genes 2 Torsion [N]-CA--C-[N] |==|  0.42778
USER: genes 3 Torsion [C]-N--CA-[C] |==|  0.81393
USER: genes 4 Torsion [N]-CA--C-[N] |==|  0.33890
USER: genes 5 Torsion [C]-N--CA-[CB] |==|  0.86236
USER: genes 6 Torsion [N]-CA--CB-[CG1] |==|  0.89279
USER: genes 7 Torsion [CA]-CB--CG1-[CD1] |==|  0.57989
USER: genes 8 Torsion [N]-CA--C-[OXT] |==|  0.78780
USER: genes 9 Torsion [N]-CA--CB-[CG] |==|  0.52341
USER: genes 10 Torsion [CA]-CB--CG-[CD2] |==|  0.54974
USER: genes 11 Torsion [C]-CA--CB-[CG] |==|  0.23742
USER: genes 12 Torsion [CA]-CB--CG-[CD1] |==|  0.28389
USER: genes 13 Torsion [C]-CA--N-[C] |==|  0.82191
USER: genes 14 Torsion [N]-C--CA-[N] |==|  0.34913
USER: genes 15 Torsion [C]-CA--CB-[CG] |==|  0.30437
USER: genes 16 Torsion [CA]-CB--CG-[CD2] |==|  0.36751
USER: genes 17 Torsion [C]-CA--N-[C] |==|  0.68866
USER: genes 18 Torsion [N]-C--CA-[N] |==|  0.23197
USER: genes 19 Torsion [C]-CA--CB-[CG] |==|  0.64815
USER: genes 20 Torsion [CA]-CB--CG-[OD1] |==|  0.85488
ROOT
ATOM      1  CA  LEU D  11      20.052   5.566  62.299  1.00 47.89 LIG 0.18  C 
ENDROOT
BRANCH 1 2
ATOM      2  C   LEU D  11      18.793   5.071  61.599  1.00 48.14 LIG 0.24  C 
ATOM      3 O    LEU D  11      17.983   4.364  62.185  1.00 47.13 LIG-0.27  OA
ATOM      4  N   HIS D  12      18.656   5.417  60.324  1.00 49.28 LIG-0.35  N 
ATOM      5 H    HIS D  12      19.206   5.919  59.895  1.00 49.28 LIG 0.16  HD
BRANCH 4 6
ATOM      6  CA  HIS D  12      17.517   4.946  59.543  1.00 50.49 LIG 0.18  C 
BRANCH 6 7
ATOM      7  C   HIS D  12      17.565   3.435  59.323  1.00 51.38 LIG 0.24  C 
ATOM      8  N   ILE D  13      16.507   2.780  59.773  1.00 53.16 LIG-0.34  N 
ATOM      9 H    ILE D  13      15.869   3.188  60.181  1.00 53.16 LIG 0.16  HD
ATOM     10 O    HIS D  12      18.515   2.905  58.765  1.00 51.57 LIG-0.27  OA
BRANCH 8 11
ATOM     11  CA  ILE D  13      16.255   1.334  59.661  1.00 55.12 LIG 0.19  C 
BRANCH 11 12
ATOM     12  CB  ILE D  13      16.450   0.768  58.208  1.00 55.01 LIG 0.01  C 
ATOM     13  CG2 ILE D  13      15.793  -0.611  58.012  1.00 56.15 LIG 0.01  C 
BRANCH 12 14
ATOM     14  CG1 ILE D  13      15.924   1.772  57.177  1.00 55.50 LIG 0.00  C 
ATOM     15  CD1 ILE D  13      15.409   1.127  55.862  1.00 55.45 LIG 0.01  C 
ENDBRANCH 12 14
ENDBRANCH 11 12
BRANCH 11 16
ATOM     16  C   ILE D  13      16.815   0.400  60.738  1.00 55.63 LIG 0.20  C 
ATOM     17 O    ILE D  13      16.093  -0.055  61.627  1.00 56.94 LIG-0.65  OA
ATOM     18 OXT  ILE D  13      18.026   0.139  60.702  1.00 55.86 LIG-0.65  OA
ENDBRANCH 11 16
ENDBRANCH 8 11
ENDBRANCH 6 7
BRANCH 6 19
ATOM     19  CB  HIS D  12      17.428   5.671  58.198  1.00 50.55 LIG 0.10  C 
BRANCH 19 20
ATOM     20  CG  HIS D  12      16.174   5.380  57.437  1.00 49.61 LIG 0.06  A 
ATOM     21  CD2 HIS D  12      15.862   5.548  56.130  1.00 48.49 LIG 0.14  A 
ATOM     22 NE2  HIS D  12      14.572   5.111  55.963  1.00 48.62 LIG-0.25  NA
ATOM     23  CE1 HIS D  12      14.115   4.666  57.118  1.00 49.12 LIG 0.23  A 
ATOM     24 ND1  HIS D  12      15.061   4.821  58.027  1.00 49.92 LIG-0.24  NA
ENDBRANCH 19 20
ENDBRANCH 6 19
ENDBRANCH 4 6
ENDBRANCH 1 2
BRANCH 1 25
ATOM     25  CB  LEU D  11      21.172   4.576  61.997  1.00 47.69 LIG 0.04  C 
BRANCH 25 26
ATOM     26  CG  LEU D  11      21.983   4.735  60.704  1.00 48.05 LIG-0.02  C 
ATOM     27  CD1 LEU D  11      23.332   5.369  61.008  1.00 46.53 LIG 0.01  C 
ATOM     28  CD2 LEU D  11      22.155   3.432  59.959  1.00 50.43 LIG 0.01  C 
ENDBRANCH 25 26
ENDBRANCH 1 25
BRANCH 1 29
ATOM     29  N   LEU D  11      19.898   5.700  63.740  1.00 47.51 LIG-0.35  N 
ATOM     30  C   LEU D  10      19.052   6.566  64.300  1.00 47.80 LIG 0.24  C 
ATOM     31 O    LEU D  10      18.267   7.277  63.656  1.00 47.07 LIG-0.27  OA
ATOM     32 H    LEU D  11      20.402   5.172  64.194  1.00 47.51 LIG 0.16  HD
BRANCH 30 33
ATOM     33  CA  LEU D  10      19.105   6.646  65.820  1.00 47.63 LIG 0.18  C 
BRANCH 33 34
ATOM     34  CB  LEU D  10      17.849   6.049  66.448  1.00 47.29 LIG 0.04  C 
BRANCH 34 35
ATOM     35  CG  LEU D  10      18.089   4.720  67.173  1.00 46.92 LIG-0.02  C 
ATOM     36  CD1 LEU D  10      19.577   4.402  67.307  1.00 46.83 LIG 0.01  C 
ATOM     37  CD2 LEU D  10      17.459   4.719  68.526  1.00 45.50 LIG 0.01  C 
ENDBRANCH 34 35
ENDBRANCH 33 34
BRANCH 33 38
ATOM     38  N   LEU D  10      19.318   8.021  66.237  1.00 47.82 LIG-0.35  N 
ATOM     39 H    LEU D  10      18.661   8.554  66.080  1.00 47.82 LIG 0.16  HD
ATOM     40  C   ASP D   9      20.458   8.383  66.813  1.00 48.63 LIG 0.26  C 
ATOM     41 O    ASP D   9      21.389   7.607  67.014  1.00 48.10 LIG-0.27  OA
BRANCH 40 42
ATOM     42  CA  ASP D   9      20.566   9.832  67.211  1.00 49.27 LIG 0.41  C 
ATOM     43  N   ASP D   9      19.910   9.985  68.535  1.00 49.86 LIG 0.61  N 
BRANCH 42 44
ATOM     44  CB  ASP D   9      22.038  10.210  67.294  1.00 50.02 LIG 0.16  C 
BRANCH 44 45
ATOM     45  CG  ASP D   9      22.402  10.829  68.611  1.00 50.84 LIG 0.17  C 
ATOM     46 OD1  ASP D   9      21.729  11.791  69.019  1.00 53.44 LIG-0.65  OA
ATOM     47 OD2  ASP D   9      23.336  10.404  69.329  1.00 53.75 LIG-0.65  OA
ENDBRANCH 44 45
ENDBRANCH 42 44
ENDBRANCH 40 42
ENDBRANCH 33 38
ENDBRANCH 30 33
ENDBRANCH 1 29
TORSDOF 19
ENDMDL
MODEL 27
USER: ADFR SOLUTION from run 173
USER: SCORE 14.642062 LL:  -3.991 LR: -11.121 RR:   0.000 FEB:  -5.454
USER: RMSD 2.559351
USER: SEED 172
USER: STATUS no improvement in best in 11 clusters for 5 generations
USER: GENES 21
USER: genes 0 Translation |==|  0.54620 0.49679 0.50878
USER: genes 1 Rotation |==|  0.53568 0.52085 0.65372 0.97399
USER: genes 2 Torsion [N]-CA--C-[N] |==|  0.43617
USER: genes 3 Torsion [C]-N--CA-[C] |==|  0.61963
USER: genes 4 Torsion [N]-CA--C-[N] |==|  0.49444
USER: genes 5 Torsion [C]-N--CA-[CB] |==|  0.29264
USER: genes 6 Torsion [N]-CA--CB-[CG1] |==|  0.35509
USER: genes 7 Torsion [CA]-CB--CG1-[CD1] |==|  0.53883
USER: genes 8 Torsion [N]-CA--C-[OXT] |==|  0.93806
USER: genes 9 Torsion [N]-CA--CB-[CG] |==|  0.58680
USER: genes 10 Torsion [CA]-CB--CG-[CD2] |==|  0.04555
USER: genes 11 Torsion [C]-CA--CB-[CG] |==|  0.93255
USER: genes 12 Torsion [CA]-CB--CG-[CD1] |==|  0.27465
USER: genes 13 Torsion [C]-CA--N-[C] |==|  0.68819
USER: genes 14 Torsion [N]-C--CA-[N] |==|  0.42769
USER: genes 15 Torsion [C]-CA--CB-[CG] |==|  0.18307
USER: genes 16 Torsion [CA]-CB--CG-[CD2] |==|  0.47916
USER: genes 17 Torsion [C]-CA--N-[C] |==|  0.75700
USER: genes 18 Torsion [N]-C--CA-[N] |==|  0.83779
USER: genes 19 Torsion [C]-CA--CB-[CG] |==|  0.29255
USER: genes 20 Torsion [CA]-CB--CG-[OD1] |==|  0.04625
ROOT
ATOM      1  CA  LEU D  11      19.683   6.969  63.088  1.00 47.89 LIG 0.18  C 
ENDROOT
BRANCH 1 2
ATOM      2  C   LEU D  11      18.535   6.083  62.622  1.00 48.14 LIG 0.24  C 
ATOM      3 O    LEU D  11      18.183   5.112  63.278  1.00 47.13 LIG-0.27  OA
ATOM      4  N   HIS D  12      17.980   6.406  61.459  1.00 49.28 LIG-0.35  N 
ATOM      5 H    HIS D  12      18.204   7.088  60.986  1.00 49.28 LIG 0.16  HD
BRANCH 4 6
ATOM      6  CA  HIS D  12      16.913   5.589  60.892  1.00 50.49 LIG 0.18  C 
BRANCH 6 7
ATOM      7  C   HIS D  12      17.103   5.370  59.392  1.00 51.38 LIG 0.24  C 
ATOM      8  N   ILE D  13      16.186   4.600  58.829  1.00 53.16 LIG-0.34  N 
ATOM      9 H    ILE D  13      15.560   4.237  59.293  1.00 53.16 LIG 0.16  HD
ATOM     10 O    HIS D  12      18.032   5.886  58.788  1.00 51.57 LIG-0.27  OA
BRANCH 8 11
ATOM     11  CA  ILE D  13      16.085   4.254  57.401  1.00 55.12 LIG 0.19  C 
BRANCH 11 12
ATOM     12  CB  ILE D  13      16.534   2.784  57.072  1.00 55.01 LIG 0.01  C 
ATOM     13  CG2 ILE D  13      16.907   1.979  58.331  1.00 56.15 LIG 0.01  C 
BRANCH 12 14
ATOM     14  CG1 ILE D  13      15.442   2.067  56.272  1.00 55.50 LIG 0.00  C 
ATOM     15  CD1 ILE D  13      15.620   0.527  56.186  1.00 55.45 LIG 0.01  C 
ENDBRANCH 12 14
ENDBRANCH 11 12
BRANCH 11 16
ATOM     16  C   ILE D  13      14.833   4.675  56.626  1.00 55.63 LIG 0.20  C 
ATOM     17 O    ILE D  13      14.856   4.812  55.400  1.00 56.94 LIG-0.65  OA
ATOM     18 OXT  ILE D  13      13.801   4.901  57.274  1.00 55.86 LIG-0.65  OA
ENDBRANCH 11 16
ENDBRANCH 8 11
ENDBRANCH 6 7
BRANCH 6 19
ATOM     19  CB  HIS D  12      15.538   6.204  61.164  1.00 50.55 LIG 0.10  C 
BRANCH 19 20
ATOM     20  CG  HIS D  12      14.444   5.194  61.309  1.00 49.61 LIG 0.06  A 
ATOM     21  CD2 HIS D  12      14.483   3.859  61.530  1.00 48.49 LIG 0.14  A 
ATOM     22 NE2  HIS D  12      13.184   3.420  61.581  1.00 48.62 LIG-0.25  NA
ATOM     23  CE1 HIS D  12      12.374   4.450  61.423  1.00 49.12 LIG 0.23  A 
ATOM     24 ND1  HIS D  12      13.109   5.534  61.252  1.00 49.92 LIG-0.24  NA
ENDBRANCH 19 20
ENDBRANCH 6 19
ENDBRANCH 4 6
ENDBRANCH 1 2
BRANCH 1 25
ATOM     25  CB  LEU D  11      20.948   6.506  62.374  1.00 47.69 LIG 0.04  C 
BRANCH 25 26
ATOM     26  CG  LEU D  11      21.032   5.064  61.857  1.00 48.05 LIG-0.02  C 
ATOM     27  CD1 LEU D  11      20.715   5.022  60.370  1.00 46.53 LIG 0.01  C 
ATOM     28  CD2 LEU D  11      22.367   4.418  62.143  1.00 50.43 LIG 0.01  C 
ENDBRANCH 25 26
ENDBRANCH 1 25
BRANCH 1 29
ATOM     29  N   LEU D  11      19.897   6.930  64.528  1.00 47.51 LIG-0.35  N 
ATOM     30  C   LEU D  10      19.665   7.976  65.322  1.00 47.80 LIG 0.24  C 
ATOM     31 O    LEU D  10      19.178   9.045  64.929  1.00 47.07 LIG-0.27  OA
ATOM     32 H    LEU D  11      20.185   6.173  64.816  1.00 47.51 LIG 0.16  HD
BRANCH 30 33
ATOM     33  CA  LEU D  10      20.050   7.787  66.784  1.00 47.63 LIG 0.18  C 
BRANCH 33 34
ATOM     34  CB  LEU D  10      18.966   7.030  67.546  1.00 47.29 LIG 0.04  C 
BRANCH 34 35
ATOM     35  CG  LEU D  10      18.780   5.580  67.086  1.00 46.92 LIG-0.02  C 
ATOM     36  CD1 LEU D  10      20.107   4.828  67.016  1.00 46.83 LIG 0.01  C 
ATOM     37  CD2 LEU D  10      17.840   4.843  67.981  1.00 45.50 LIG 0.01  C 
ENDBRANCH 34 35
ENDBRANCH 33 34
BRANCH 33 38
ATOM     38  N   LEU D  10      20.340   9.075  67.391  1.00 47.82 LIG-0.35  N 
ATOM     39 H    LEU D  10      19.671   9.452  67.778  1.00 47.82 LIG 0.16  HD
ATOM     40  C   ASP D   9      21.561   9.591  67.327  1.00 48.63 LIG 0.26  C 
ATOM     41 O    ASP D   9      22.498   9.039  66.755  1.00 48.10 LIG-0.27  OA
BRANCH 40 42
ATOM     42  CA  ASP D   9      21.749  10.927  67.996  1.00 49.27 LIG 0.41  C 
ATOM     43  N   ASP D   9      20.801  11.883  67.366  1.00 49.86 LIG 0.61  N 
BRANCH 42 44
ATOM     44  CB  ASP D   9      21.453  10.779  69.482  1.00 50.02 LIG 0.16  C 
BRANCH 44 45
ATOM     45  CG  ASP D   9      22.695  10.784  70.323  1.00 50.84 LIG 0.17  C 
ATOM     46 OD1  ASP D   9      23.748  11.210  69.818  1.00 53.44 LIG-0.65  OA
ATOM     47 OD2  ASP D   9      22.712  10.404  71.515  1.00 53.75 LIG-0.65  OA
ENDBRANCH 44 45
ENDBRANCH 42 44
ENDBRANCH 40 42
ENDBRANCH 33 38
ENDBRANCH 30 33
ENDBRANCH 1 29
TORSDOF 19
ENDMDL
MODEL 28
USER: ADFR SOLUTION from run 150
USER: SCORE 14.299156 LL:  -4.382 LR: -11.111 RR:   0.000 FEB:  -5.443
USER: RMSD 4.612263
USER: SEED 149
USER: STATUS no improvement in best in 14 clusters for 5 generations
USER: GENES 21
USER: genes 0 Translation |==|  0.58091 0.40565 0.50472
USER: genes 1 Rotation |==|  0.52520 0.47112 0.64396 0.97729
USER: genes 2 Torsion [N]-CA--C-[N] |==|  0.39575
USER: genes 3 Torsion [C]-N--CA-[C] |==|  0.50556
USER: genes 4 Torsion [N]-CA--C-[N] |==|  0.54239
USER: genes 5 Torsion [C]-N--CA-[CB] |==|  0.98768
USER: genes 6 Torsion [N]-CA--CB-[CG1] |==|  0.59995
USER: genes 7 Torsion [CA]-CB--CG1-[CD1] |==|  0.58206
USER: genes 8 Torsion [N]-CA--C-[OXT] |==|  0.46250
USER: genes 9 Torsion [N]-CA--CB-[CG] |==|  0.69413
USER: genes 10 Torsion [CA]-CB--CG-[CD2] |==|  0.52145
USER: genes 11 Torsion [C]-CA--CB-[CG] |==|  0.20878
USER: genes 12 Torsion [CA]-CB--CG-[CD1] |==|  0.72643
USER: genes 13 Torsion [C]-CA--N-[C] |==|  0.74585
USER: genes 14 Torsion [N]-C--CA-[N] |==|  0.51424
USER: genes 15 Torsion [C]-CA--CB-[CG] |==|  0.82454
USER: genes 16 Torsion [CA]-CB--CG-[CD2] |==|  0.72448
USER: genes 17 Torsion [C]-CA--N-[C] |==|  0.75452
USER: genes 18 Torsion [N]-C--CA-[N] |==|  0.70524
USER: genes 19 Torsion [C]-CA--CB-[CG] |==|  0.74437
USER: genes 20 Torsion [CA]-CB--CG-[OD1] |==|  0.31765
ROOT
ATOM      1  CA  LEU D  11      20.360   5.260  62.997  1.00 47.89 LIG 0.18  C 
ENDROOT
BRANCH 1 2
ATOM      2  C   LEU D  11      19.283   4.445  62.292  1.00 48.14 LIG 0.24  C 
ATOM      3 O    LEU D  11      18.947   3.347  62.715  1.00 47.13 LIG-0.27  OA
ATOM      4  N   HIS D  12      18.774   4.977  61.187  1.00 49.28 LIG-0.35  N 
ATOM      5 H    HIS D  12      18.988   5.750  60.876  1.00 49.28 LIG 0.16  HD
BRANCH 4 6
ATOM      6  CA  HIS D  12      17.780   4.254  60.401  1.00 50.49 LIG 0.18  C 
BRANCH 6 7
ATOM      7  C   HIS D  12      17.371   5.029  59.151  1.00 51.38 LIG 0.24  C 
ATOM      8  N   ILE D  13      16.265   4.594  58.571  1.00 53.16 LIG-0.34  N 
ATOM      9 H    ILE D  13      15.842   3.908  58.873  1.00 53.16 LIG 0.16  HD
ATOM     10 O    HIS D  12      18.029   5.978  58.748  1.00 51.57 LIG-0.27  OA
BRANCH 8 11
ATOM     11  CA  ILE D  13      15.607   5.169  57.386  1.00 55.12 LIG 0.19  C 
BRANCH 11 12
ATOM     12  CB  ILE D  13      16.281   6.490  56.866  1.00 55.01 LIG 0.01  C 
ATOM     13  CG2 ILE D  13      17.356   6.229  55.795  1.00 56.15 LIG 0.01  C 
BRANCH 12 14
ATOM     14  CG1 ILE D  13      15.213   7.454  56.340  1.00 55.50 LIG 0.00  C 
ATOM     15  CD1 ILE D  13      15.704   8.394  55.206  1.00 55.45 LIG 0.01  C 
ENDBRANCH 12 14
ENDBRANCH 11 12
BRANCH 11 16
ATOM     16  C   ILE D  13      15.185   4.235  56.249  1.00 55.63 LIG 0.20  C 
ATOM     17 O    ILE D  13      15.616   3.082  56.176  1.00 56.94 LIG-0.65  OA
ATOM     18 OXT  ILE D  13      14.415   4.685  55.388  1.00 55.86 LIG-0.65  OA
ENDBRANCH 11 16
ENDBRANCH 8 11
ENDBRANCH 6 7
BRANCH 6 19
ATOM     19  CB  HIS D  12      16.546   3.920  61.241  1.00 50.55 LIG 0.10  C 
BRANCH 19 20
ATOM     20  CG  HIS D  12      16.400   2.463  61.546  1.00 49.61 LIG 0.06  A 
ATOM     21  CD2 HIS D  12      15.394   1.768  62.128  1.00 48.49 LIG 0.14  A 
ATOM     22 NE2  HIS D  12      15.778   0.451  62.159  1.00 48.62 LIG-0.25  NA
ATOM     23  CE1 HIS D  12      16.965   0.335  61.594  1.00 49.12 LIG 0.23  A 
ATOM     24 ND1  HIS D  12      17.366   1.535  61.220  1.00 49.92 LIG-0.24  NA
ENDBRANCH 19 20
ENDBRANCH 6 19
ENDBRANCH 4 6
ENDBRANCH 1 2
BRANCH 1 25
ATOM     25  CB  LEU D  11      21.716   4.738  62.535  1.00 47.69 LIG 0.04  C 
BRANCH 25 26
ATOM     26  CG  LEU D  11      22.221   5.102  61.133  1.00 48.05 LIG-0.02  C 
ATOM     27  CD1 LEU D  11      21.946   3.960  60.166  1.00 46.53 LIG 0.01  C 
ATOM     28  CD2 LEU D  11      21.637   6.396  60.620  1.00 50.43 LIG 0.01  C 
ENDBRANCH 25 26
ENDBRANCH 1 25
BRANCH 1 29
ATOM     29  N   LEU D  11      20.281   5.190  64.449  1.00 47.51 LIG-0.35  N 
ATOM     30  C   LEU D  10      19.587   6.064  65.179  1.00 47.80 LIG 0.24  C 
ATOM     31 O    LEU D  10      18.886   6.963  64.694  1.00 47.07 LIG-0.27  OA
ATOM     32 H    LEU D  11      20.723   4.535  64.790  1.00 47.51 LIG 0.16  HD
BRANCH 30 33
ATOM     33  CA  LEU D  10      19.708   5.900  66.689  1.00 47.63 LIG 0.18  C 
BRANCH 33 34
ATOM     34  CB  LEU D  10      19.450   4.457  67.109  1.00 47.29 LIG 0.04  C 
BRANCH 34 35
ATOM     35  CG  LEU D  10      18.031   3.964  66.801  1.00 46.92 LIG-0.02  C 
ATOM     36  CD1 LEU D  10      18.028   2.540  66.248  1.00 46.83 LIG 0.01  C 
ATOM     37  CD2 LEU D  10      17.161   4.025  68.012  1.00 45.50 LIG 0.01  C 
ENDBRANCH 34 35
ENDBRANCH 33 34
BRANCH 33 38
ATOM     38  N   LEU D  10      18.815   6.829  67.361  1.00 47.82 LIG-0.35  N 
ATOM     39 H    LEU D  10      18.033   6.517  67.536  1.00 47.82 LIG 0.16  HD
ATOM     40  C   ASP D   9      19.220   8.056  67.662  1.00 48.63 LIG 0.26  C 
ATOM     41 O    ASP D   9      20.339   8.484  67.389  1.00 48.10 LIG-0.27  OA
BRANCH 40 42
ATOM     42  CA  ASP D   9      18.214   8.930  68.365  1.00 49.27 LIG 0.41  C 
ATOM     43  N   ASP D   9      17.722   9.929  67.381  1.00 49.86 LIG 0.61  N 
BRANCH 42 44
ATOM     44  CB  ASP D   9      17.069   8.058  68.863  1.00 50.02 LIG 0.16  C 
BRANCH 44 45
ATOM     45  CG  ASP D   9      15.945   7.960  67.875  1.00 50.84 LIG 0.17  C 
ATOM     46 OD1  ASP D   9      15.706   6.854  67.360  1.00 53.44 LIG-0.65  OA
ATOM     47 OD2  ASP D   9      15.221   8.933  67.567  1.00 53.75 LIG-0.65  OA
ENDBRANCH 44 45
ENDBRANCH 42 44
ENDBRANCH 40 42
ENDBRANCH 33 38
ENDBRANCH 30 33
ENDBRANCH 1 29
TORSDOF 19
ENDMDL
MODEL 29
USER: ADFR SOLUTION from run 96
USER: SCORE 15.223081 LL:  -4.517 LR: -11.053 RR:   0.000 FEB:  -5.385
USER: RMSD 3.168435
USER: SEED 95
USER: STATUS no improvement in best in 6 clusters for 5 generations
USER: GENES 21
USER: genes 0 Translation |==|  0.58357 0.48104 0.51879
USER: genes 1 Rotation |==|  0.52355 0.44382 0.49583 0.99626
USER: genes 2 Torsion [N]-CA--C-[N] |==|  0.43041
USER: genes 3 Torsion [C]-N--CA-[C] |==|  0.76114
USER: genes 4 Torsion [N]-CA--C-[N] |==|  0.17085
USER: genes 5 Torsion [C]-N--CA-[CB] |==|  0.55631
USER: genes 6 Torsion [N]-CA--CB-[CG1] |==|  0.87574
USER: genes 7 Torsion [CA]-CB--CG1-[CD1] |==|  0.54153
USER: genes 8 Torsion [N]-CA--C-[OXT] |==|  0.28350
USER: genes 9 Torsion [N]-CA--CB-[CG] |==|  0.01231
USER: genes 10 Torsion [CA]-CB--CG-[CD2] |==|  0.64973
USER: genes 11 Torsion [C]-CA--CB-[CG] |==|  0.17113
USER: genes 12 Torsion [CA]-CB--CG-[CD1] |==|  0.35799
USER: genes 13 Torsion [C]-CA--N-[C] |==|  0.78983
USER: genes 14 Torsion [N]-C--CA-[N] |==|  0.42550
USER: genes 15 Torsion [C]-CA--CB-[CG] |==|  0.29593
USER: genes 16 Torsion [CA]-CB--CG-[CD2] |==|  0.78751
USER: genes 17 Torsion [C]-CA--N-[C] |==|  0.81208
USER: genes 18 Torsion [N]-C--CA-[N] |==|  0.04838
USER: genes 19 Torsion [C]-CA--CB-[CG] |==|  0.64151
USER: genes 20 Torsion [CA]-CB--CG-[OD1] |==|  0.84677
ROOT
ATOM      1  CA  LEU D  11      20.412   6.674  63.314  1.00 47.89 LIG 0.18  C 
ENDROOT
BRANCH 1 2
ATOM      2  C   LEU D  11      19.128   6.637  62.495  1.00 48.14 LIG 0.24  C 
ATOM      3 O    LEU D  11      18.120   6.096  62.928  1.00 47.13 LIG-0.27  OA
ATOM      4  N   HIS D  12      19.187   7.186  61.287  1.00 49.28 LIG-0.35  N 
ATOM      5 H    HIS D  12      19.881   7.579  60.965  1.00 49.28 LIG 0.16  HD
BRANCH 4 6
ATOM      6  CA  HIS D  12      18.031   7.152  60.396  1.00 50.49 LIG 0.18  C 
BRANCH 6 7
ATOM      7  C   HIS D  12      17.980   5.860  59.583  1.00 51.38 LIG 0.24  C 
ATOM      8  N   ILE D  13      17.869   4.759  60.308  1.00 53.16 LIG-0.34  N 
ATOM      9 H    ILE D  13      17.860   4.788  61.167  1.00 53.16 LIG 0.16  HD
ATOM     10 O    HIS D  12      18.030   5.876  58.362  1.00 51.57 LIG-0.27  OA
BRANCH 8 11
ATOM     11  CA  ILE D  13      17.750   3.381  59.802  1.00 55.12 LIG 0.19  C 
BRANCH 11 12
ATOM     12  CB  ILE D  13      17.143   2.374  60.844  1.00 55.01 LIG 0.01  C 
ATOM     13  CG2 ILE D  13      17.276   0.905  60.401  1.00 56.15 LIG 0.01  C 
BRANCH 12 14
ATOM     14  CG1 ILE D  13      17.787   2.587  62.218  1.00 55.50 LIG 0.00  C 
ATOM     15  CD1 ILE D  13      17.543   1.431  63.224  1.00 55.45 LIG 0.01  C 
ENDBRANCH 12 14
ENDBRANCH 11 12
BRANCH 11 16
ATOM     16  C   ILE D  13      17.213   3.159  58.385  1.00 55.63 LIG 0.20  C 
ATOM     17 O    ILE D  13      16.004   3.205  58.145  1.00 56.94 LIG-0.65  OA
ATOM     18 OXT  ILE D  13      18.032   2.904  57.491  1.00 55.86 LIG-0.65  OA
ENDBRANCH 11 16
ENDBRANCH 8 11
ENDBRANCH 6 7
BRANCH 6 19
ATOM     19  CB  HIS D  12      18.016   8.363  59.462  1.00 50.55 LIG 0.10  C 
BRANCH 19 20
ATOM     20  CG  HIS D  12      19.220   9.241  59.592  1.00 49.61 LIG 0.06  A 
ATOM     21  CD2 HIS D  12      19.336  10.570  59.824  1.00 48.49 LIG 0.14  A 
ATOM     22 NE2  HIS D  12      20.677  10.860  59.852  1.00 48.62 LIG-0.25  NA
ATOM     23  CE1 HIS D  12      21.362   9.746  59.668  1.00 49.12 LIG 0.23  A 
ATOM     24 ND1  HIS D  12      20.506   8.755  59.503  1.00 49.92 LIG-0.24  NA
ENDBRANCH 19 20
ENDBRANCH 6 19
ENDBRANCH 4 6
ENDBRANCH 1 2
BRANCH 1 25
ATOM     25  CB  LEU D  11      21.270   5.489  62.886  1.00 47.69 LIG 0.04  C 
BRANCH 25 26
ATOM     26  CG  LEU D  11      21.752   5.399  61.432  1.00 48.05 LIG-0.02  C 
ATOM     27  CD1 LEU D  11      23.256   5.167  61.393  1.00 46.53 LIG 0.01  C 
ATOM     28  CD2 LEU D  11      21.023   4.341  60.639  1.00 50.43 LIG 0.01  C 
ENDBRANCH 25 26
ENDBRANCH 1 25
BRANCH 1 29
ATOM     29  N   LEU D  11      20.184   6.615  64.750  1.00 47.51 LIG-0.35  N 
ATOM     30  C   LEU D  10      19.744   7.657  65.457  1.00 47.80 LIG 0.24  C 
ATOM     31 O    LEU D  10      19.415   8.741  64.953  1.00 47.07 LIG-0.27  OA
ATOM     32 H    LEU D  11      20.360   5.848  65.099  1.00 47.51 LIG 0.16  HD
BRANCH 30 33
ATOM     33  CA  LEU D  10      19.669   7.444  66.963  1.00 47.63 LIG 0.18  C 
BRANCH 33 34
ATOM     34  CB  LEU D  10      18.385   6.720  67.355  1.00 47.29 LIG 0.04  C 
BRANCH 34 35
ATOM     35  CG  LEU D  10      18.595   5.258  67.762  1.00 46.92 LIG-0.02  C 
ATOM     36  CD1 LEU D  10      17.422   4.716  68.576  1.00 46.83 LIG 0.01  C 
ATOM     37  CD2 LEU D  10      18.813   4.388  66.569  1.00 45.50 LIG 0.01  C 
ENDBRANCH 34 35
ENDBRANCH 33 34
BRANCH 33 38
ATOM     38  N   LEU D  10      19.805   8.717  67.650  1.00 47.82 LIG-0.35  N 
ATOM     39 H    LEU D  10      19.099   8.985  68.061  1.00 47.82 LIG 0.16  HD
ATOM     40  C   ASP D   9      20.954   9.381  67.620  1.00 48.63 LIG 0.26  C 
ATOM     41 O    ASP D   9      21.947   8.984  67.015  1.00 48.10 LIG-0.27  OA
BRANCH 40 42
ATOM     42  CA  ASP D   9      20.984  10.685  68.373  1.00 49.27 LIG 0.41  C 
ATOM     43  N   ASP D   9      19.831  10.689  69.311  1.00 49.86 LIG 0.61  N 
BRANCH 42 44
ATOM     44  CB  ASP D   9      22.297  10.782  69.137  1.00 50.02 LIG 0.16  C 
BRANCH 44 45
ATOM     45  CG  ASP D   9      22.100  11.119  70.586  1.00 50.84 LIG 0.17  C 
ATOM     46 OD1  ASP D   9      21.454  12.142  70.872  1.00 53.44 LIG-0.65  OA
ATOM     47 OD2  ASP D   9      22.534  10.404  71.517  1.00 53.75 LIG-0.65  OA
ENDBRANCH 44 45
ENDBRANCH 42 44
ENDBRANCH 40 42
ENDBRANCH 33 38
ENDBRANCH 30 33
ENDBRANCH 1 29
TORSDOF 19
ENDMDL
MODEL 30
USER: ADFR SOLUTION from run 36
USER: SCORE 15.116648 LL:  -4.710 LR: -10.987 RR:   0.000 FEB:  -5.320
USER: RMSD 5.497634
USER: SEED 35
USER: STATUS no improvement in best in 7 clusters for 5 generations
USER: GENES 21
USER: genes 0 Translation |==|  0.50914 0.49389 0.69652
USER: genes 1 Rotation |==|  0.16722 0.34571 0.24065 0.71951
USER: genes 2 Torsion [N]-CA--C-[N] |==|  0.87268
USER: genes 3 Torsion [C]-N--CA-[C] |==|  0.77911
USER: genes 4 Torsion [N]-CA--C-[N] |==|  0.31142
USER: genes 5 Torsion [C]-N--CA-[CB] |==|  0.27207
USER: genes 6 Torsion [N]-CA--CB-[CG1] |==|  0.35968
USER: genes 7 Torsion [CA]-CB--CG1-[CD1] |==|  0.46721
USER: genes 8 Torsion [N]-CA--C-[OXT] |==|  0.34982
USER: genes 9 Torsion [N]-CA--CB-[CG] |==|  0.95842
USER: genes 10 Torsion [CA]-CB--CG-[CD2] |==|  0.27005
USER: genes 11 Torsion [C]-CA--CB-[CG] |==|  0.20064
USER: genes 12 Torsion [CA]-CB--CG-[CD1] |==|  0.68502
USER: genes 13 Torsion [C]-CA--N-[C] |==|  0.83294
USER: genes 14 Torsion [N]-C--CA-[N] |==|  0.31203
USER: genes 15 Torsion [C]-CA--CB-[CG] |==|  0.07529
USER: genes 16 Torsion [CA]-CB--CG-[CD2] |==|  0.56190
USER: genes 17 Torsion [C]-CA--N-[C] |==|  0.60744
USER: genes 18 Torsion [N]-C--CA-[N] |==|  0.22905
USER: genes 19 Torsion [C]-CA--CB-[CG] |==|  0.33035
USER: genes 20 Torsion [CA]-CB--CG-[OD1] |==|  0.72574
ROOT
ATOM      1  CA  LEU D  11      18.960   6.914  67.313  1.00 47.89 LIG 0.18  C 
ENDROOT
BRANCH 1 2
ATOM      2  C   LEU D  11      18.254   6.574  66.007  1.00 48.14 LIG 0.24  C 
ATOM      3 O    LEU D  11      18.375   5.469  65.496  1.00 47.13 LIG-0.27  OA
ATOM      4  N   HIS D  12      17.547   7.551  65.450  1.00 49.28 LIG-0.35  N 
ATOM      5 H    HIS D  12      17.441   8.332  65.795  1.00 49.28 LIG 0.16  HD
BRANCH 4 6
ATOM      6  CA  HIS D  12      16.880   7.350  64.168  1.00 50.49 LIG 0.18  C 
BRANCH 6 7
ATOM      7  C   HIS D  12      17.852   7.479  62.997  1.00 51.38 LIG 0.24  C 
ATOM      8  N   ILE D  13      18.079   6.350  62.345  1.00 53.16 LIG-0.34  N 
ATOM      9 H    ILE D  13      17.722   5.609  62.596  1.00 53.16 LIG 0.16  HD
ATOM     10 O    HIS D  12      18.357   8.553  62.705  1.00 51.57 LIG-0.27  OA
BRANCH 8 11
ATOM     11  CA  ILE D  13      18.927   6.178  61.154  1.00 55.12 LIG 0.19  C 
BRANCH 11 12
ATOM     12  CB  ILE D  13      20.373   5.651  61.476  1.00 55.01 LIG 0.01  C 
ATOM     13  CG2 ILE D  13      20.562   5.302  62.964  1.00 56.15 LIG 0.01  C 
BRANCH 12 14
ATOM     14  CG1 ILE D  13      20.703   4.447  60.589  1.00 55.50 LIG 0.00  C 
ATOM     15  CD1 ILE D  13      22.198   4.026  60.614  1.00 55.45 LIG 0.01  C 
ENDBRANCH 12 14
ENDBRANCH 11 12
BRANCH 11 16
ATOM     16  C   ILE D  13      18.325   5.523  59.907  1.00 55.63 LIG 0.20  C 
ATOM     17 O    ILE D  13      17.800   4.408  59.961  1.00 56.94 LIG-0.65  OA
ATOM     18 OXT  ILE D  13      18.407   6.139  58.835  1.00 55.86 LIG-0.65  OA
ENDBRANCH 11 16
ENDBRANCH 8 11
ENDBRANCH 6 7
BRANCH 6 19
ATOM     19  CB  HIS D  12      15.712   8.323  63.992  1.00 50.55 LIG 0.10  C 
BRANCH 19 20
ATOM     20  CG  HIS D  12      15.290   8.994  65.260  1.00 49.61 LIG 0.06  A 
ATOM     21  CD2 HIS D  12      15.598  10.208  65.774  1.00 48.49 LIG 0.14  A 
ATOM     22 NE2  HIS D  12      14.930  10.323  66.968  1.00 48.62 LIG-0.25  NA
ATOM     23  CE1 HIS D  12      14.218   9.230  67.169  1.00 49.12 LIG 0.23  A 
ATOM     24 ND1  HIS D  12      14.421   8.409  66.155  1.00 49.92 LIG-0.24  NA
ENDBRANCH 19 20
ENDBRANCH 6 19
ENDBRANCH 4 6
ENDBRANCH 1 2
BRANCH 1 25
ATOM     25  CB  LEU D  11      17.909   6.944  68.416  1.00 47.69 LIG 0.04  C 
BRANCH 25 26
ATOM     26  CG  LEU D  11      17.297   5.624  68.903  1.00 48.05 LIG-0.02  C 
ATOM     27  CD1 LEU D  11      15.821   5.564  68.536  1.00 46.53 LIG 0.01  C 
ATOM     28  CD2 LEU D  11      18.032   4.412  68.383  1.00 50.43 LIG 0.01  C 
ENDBRANCH 25 26
ENDBRANCH 1 25
BRANCH 1 29
ATOM     29  N   LEU D  11      19.662   8.189  67.277  1.00 47.51 LIG-0.35  N 
ATOM     30  C   LEU D  10      20.647   8.449  66.416  1.00 47.80 LIG 0.24  C 
ATOM     31 O    LEU D  10      21.005   7.668  65.522  1.00 47.07 LIG-0.27  OA
ATOM     32 H    LEU D  11      19.384   8.756  67.860  1.00 47.51 LIG 0.16  HD
BRANCH 30 33
ATOM     33  CA  LEU D  10      21.339   9.794  66.596  1.00 47.63 LIG 0.18  C 
BRANCH 33 34
ATOM     34  CB  LEU D  10      21.276  10.623  65.317  1.00 47.29 LIG 0.04  C 
BRANCH 34 35
ATOM     35  CG  LEU D  10      20.070  10.299  64.427  1.00 46.92 LIG-0.02  C 
ATOM     36  CD1 LEU D  10      18.793  10.969  64.929  1.00 46.83 LIG 0.01  C 
ATOM     37  CD2 LEU D  10      20.318  10.704  63.012  1.00 45.50 LIG 0.01  C 
ENDBRANCH 34 35
ENDBRANCH 33 34
BRANCH 33 38
ATOM     38  N   LEU D  10      22.707   9.591  67.044  1.00 47.82 LIG-0.35  N 
ATOM     39 H    LEU D  10      23.111   8.924  66.682  1.00 47.82 LIG 0.16  HD
ATOM     40  C   ASP D   9      23.249  10.402  67.944  1.00 48.63 LIG 0.26  C 
ATOM     41 O    ASP D   9      22.646  11.341  68.457  1.00 48.10 LIG-0.27  OA
BRANCH 40 42
ATOM     42  CA  ASP D   9      24.675  10.102  68.328  1.00 49.27 LIG 0.41  C 
ATOM     43  N   ASP D   9      25.555  10.708  67.296  1.00 49.86 LIG 0.61  N 
BRANCH 42 44
ATOM     44  CB  ASP D   9      24.954  10.710  69.695  1.00 50.02 LIG 0.16  C 
BRANCH 44 45
ATOM     45  CG  ASP D   9      25.328   9.681  70.721  1.00 50.84 LIG 0.17  C 
ATOM     46 OD1  ASP D   9      24.450   9.279  71.503  1.00 53.44 LIG-0.65  OA
ATOM     47 OD2  ASP D   9      26.477   9.191  70.806  1.00 53.75 LIG-0.65  OA
ENDBRANCH 44 45
ENDBRANCH 42 44
ENDBRANCH 40 42
ENDBRANCH 33 38
ENDBRANCH 30 33
ENDBRANCH 1 29
TORSDOF 19
ENDMDL
MODEL 31
USER: ADFR SOLUTION from run 182
USER: SCORE 15.724675 LL:  -5.186 LR: -10.942 RR:   0.000 FEB:  -5.275
USER: RMSD 3.447188
USER: SEED 181
USER: STATUS no improvement in best in 16 clusters for 5 generations
USER: GENES 21
USER: genes 0 Translation |==|  0.58344 0.42486 0.45879
USER: genes 1 Rotation |==|  0.42760 0.45878 0.52306 0.99247
USER: genes 2 Torsion [N]-CA--C-[N] |==|  0.15170
USER: genes 3 Torsion [C]-N--CA-[C] |==|  0.84427
USER: genes 4 Torsion [N]-CA--C-[N] |==|  0.41111
USER: genes 5 Torsion [C]-N--CA-[CB] |==|  0.28830
USER: genes 6 Torsion [N]-CA--CB-[CG1] |==|  0.37727
USER: genes 7 Torsion [CA]-CB--CG1-[CD1] |==|  0.51168
USER: genes 8 Torsion [N]-CA--C-[OXT] |==|  0.36618
USER: genes 9 Torsion [N]-CA--CB-[CG] |==|  0.90990
USER: genes 10 Torsion [CA]-CB--CG-[CD2] |==|  0.38886
USER: genes 11 Torsion [C]-CA--CB-[CG] |==|  0.28507
USER: genes 12 Torsion [CA]-CB--CG-[CD1] |==|  0.69789
USER: genes 13 Torsion [C]-CA--N-[C] |==|  0.14571
USER: genes 14 Torsion [N]-C--CA-[N] |==|  0.06424
USER: genes 15 Torsion [C]-CA--CB-[CG] |==|  0.24799
USER: genes 16 Torsion [CA]-CB--CG-[CD2] |==|  0.36611
USER: genes 17 Torsion [C]-CA--N-[C] |==|  0.67545
USER: genes 18 Torsion [N]-C--CA-[N] |==|  0.61251
USER: genes 19 Torsion [C]-CA--CB-[CG] |==|  0.81887
USER: genes 20 Torsion [CA]-CB--CG-[OD1] |==|  0.38105
ROOT
ATOM      1  CA  LEU D  11      20.409   5.620  61.964  1.00 47.89 LIG 0.18  C 
ENDROOT
BRANCH 1 2
ATOM      2  C   LEU D  11      19.099   5.199  61.310  1.00 48.14 LIG 0.24  C 
ATOM      3 O    LEU D  11      18.977   4.094  60.799  1.00 47.13 LIG-0.27  OA
ATOM      4  N   HIS D  12      18.132   6.109  61.296  1.00 49.28 LIG-0.35  N 
ATOM      5 H    HIS D  12      18.192   6.888  61.656  1.00 49.28 LIG 0.16  HD
BRANCH 4 6
ATOM      6  CA  HIS D  12      16.857   5.831  60.642  1.00 50.49 LIG 0.18  C 
BRANCH 6 7
ATOM      7  C   HIS D  12      17.045   5.436  59.178  1.00 51.38 LIG 0.24  C 
ATOM      8  N   ILE D  13      16.149   4.578  58.722  1.00 53.16 LIG-0.34  N 
ATOM      9 H    ILE D  13      15.536   4.256  59.232  1.00 53.16 LIG 0.16  HD
ATOM     10 O    HIS D  12      17.955   5.901  58.507  1.00 51.57 LIG-0.27  OA
BRANCH 8 11
ATOM     11  CA  ILE D  13      16.049   4.057  57.348  1.00 55.12 LIG 0.19  C 
BRANCH 11 12
ATOM     12  CB  ILE D  13      16.576   2.585  57.189  1.00 55.01 LIG 0.01  C 
ATOM     13  CG2 ILE D  13      16.823   1.891  58.541  1.00 56.15 LIG 0.01  C 
BRANCH 12 14
ATOM     14  CG1 ILE D  13      15.606   1.769  56.329  1.00 55.50 LIG 0.00  C 
ATOM     15  CD1 ILE D  13      15.979   0.268  56.193  1.00 55.45 LIG 0.01  C 
ENDBRANCH 12 14
ENDBRANCH 11 12
BRANCH 11 16
ATOM     16  C   ILE D  13      14.767   4.314  56.551  1.00 55.63 LIG 0.20  C 
ATOM     17 O    ILE D  13      13.657   4.076  57.034  1.00 56.94 LIG-0.65  OA
ATOM     18 OXT  ILE D  13      14.882   4.744  55.395  1.00 55.86 LIG-0.65  OA
ENDBRANCH 11 16
ENDBRANCH 8 11
ENDBRANCH 6 7
BRANCH 6 19
ATOM     19  CB  HIS D  12      15.907   7.026  60.747  1.00 50.55 LIG 0.10  C 
BRANCH 19 20
ATOM     20  CG  HIS D  12      16.071   7.817  62.006  1.00 49.61 LIG 0.06  A 
ATOM     21  CD2 HIS D  12      16.046   9.152  62.231  1.00 48.49 LIG 0.14  A 
ATOM     22 NE2  HIS D  12      16.246   9.339  63.576  1.00 48.62 LIG-0.25  NA
ATOM     23  CE1 HIS D  12      16.365   8.161  64.161  1.00 49.12 LIG 0.23  A 
ATOM     24 ND1  HIS D  12      16.268   7.226  63.235  1.00 49.92 LIG-0.24  NA
ENDBRANCH 19 20
ENDBRANCH 6 19
ENDBRANCH 4 6
ENDBRANCH 1 2
BRANCH 1 25
ATOM     25  CB  LEU D  11      21.338   4.411  61.964  1.00 47.69 LIG 0.04  C 
BRANCH 25 26
ATOM     26  CG  LEU D  11      22.469   4.336  60.930  1.00 48.05 LIG-0.02  C 
ATOM     27  CD1 LEU D  11      22.157   3.268  59.891  1.00 46.53 LIG 0.01  C 
ATOM     28  CD2 LEU D  11      22.747   5.665  60.269  1.00 50.43 LIG 0.01  C 
ENDBRANCH 25 26
ENDBRANCH 1 25
BRANCH 1 29
ATOM     29  N   LEU D  11      20.246   6.107  63.325  1.00 47.51 LIG-0.35  N 
ATOM     30  C   LEU D  10      19.603   5.418  64.269  1.00 47.80 LIG 0.24  C 
ATOM     31 O    LEU D  10      19.155   4.275  64.102  1.00 47.07 LIG-0.27  OA
ATOM     32 H    LEU D  11      20.602   6.878  63.464  1.00 47.51 LIG 0.16  HD
BRANCH 30 33
ATOM     33  CA  LEU D  10      19.436   6.132  65.604  1.00 47.63 LIG 0.18  C 
BRANCH 33 34
ATOM     34  CB  LEU D  10      18.134   5.724  66.288  1.00 47.29 LIG 0.04  C 
BRANCH 34 35
ATOM     35  CG  LEU D  10      18.268   4.497  67.198  1.00 46.92 LIG-0.02  C 
ATOM     36  CD1 LEU D  10      19.726   4.086  67.391  1.00 46.83 LIG 0.01  C 
ATOM     37  CD2 LEU D  10      17.641   4.740  68.530  1.00 45.50 LIG 0.01  C 
ENDBRANCH 34 35
ENDBRANCH 33 34
BRANCH 33 38
ATOM     38  N   LEU D  10      19.519   7.569  65.412  1.00 47.82 LIG-0.35  N 
ATOM     39 H    LEU D  10      18.901   7.906  64.918  1.00 47.82 LIG 0.16  HD
ATOM     40  C   ASP D   9      20.495   8.270  65.976  1.00 48.63 LIG 0.26  C 
ATOM     41 O    ASP D   9      21.378   7.764  66.666  1.00 48.10 LIG-0.27  OA
BRANCH 40 42
ATOM     42  CA  ASP D   9      20.480   9.753  65.714  1.00 49.27 LIG 0.41  C 
ATOM     43  N   ASP D   9      21.883  10.185  65.490  1.00 49.86 LIG 0.61  N 
BRANCH 42 44
ATOM     44  CB  ASP D   9      19.630  10.026  64.481  1.00 50.02 LIG 0.16  C 
BRANCH 44 45
ATOM     45  CG  ASP D   9      20.222   9.444  63.231  1.00 50.84 LIG 0.17  C 
ATOM     46 OD1  ASP D   9      19.464   8.869  62.431  1.00 53.44 LIG-0.65  OA
ATOM     47 OD2  ASP D   9      21.437   9.535  62.946  1.00 53.75 LIG-0.65  OA
ENDBRANCH 44 45
ENDBRANCH 42 44
ENDBRANCH 40 42
ENDBRANCH 33 38
ENDBRANCH 30 33
ENDBRANCH 1 29
TORSDOF 19
ENDMDL
MODEL 32
USER: ADFR SOLUTION from run 137
USER: SCORE 14.253942 LL:  -4.027 LR: -10.931 RR:   0.000 FEB:  -5.263
USER: RMSD 2.822658
USER: SEED 136
USER: STATUS no improvement in best in 11 clusters for 5 generations
USER: GENES 21
USER: genes 0 Translation |==|  0.56494 0.41766 0.48973
USER: genes 1 Rotation |==|  0.48496 0.45509 0.62206 0.98255
USER: genes 2 Torsion [N]-CA--C-[N] |==|  0.33895
USER: genes 3 Torsion [C]-N--CA-[C] |==|  0.54726
USER: genes 4 Torsion [N]-CA--C-[N] |==|  0.53317
USER: genes 5 Torsion [C]-N--CA-[CB] |==|  0.99583
USER: genes 6 Torsion [N]-CA--CB-[CG1] |==|  0.56285
USER: genes 7 Torsion [CA]-CB--CG1-[CD1] |==|  0.47766
USER: genes 8 Torsion [N]-CA--C-[OXT] |==|  0.92997
USER: genes 9 Torsion [N]-CA--CB-[CG] |==|  0.17617
USER: genes 10 Torsion [CA]-CB--CG-[CD2] |==|  0.33686
USER: genes 11 Torsion [C]-CA--CB-[CG] |==|  0.21660
USER: genes 12 Torsion [CA]-CB--CG-[CD1] |==|  0.33650
USER: genes 13 Torsion [C]-CA--N-[C] |==|  0.78186
USER: genes 14 Torsion [N]-C--CA-[N] |==|  0.34643
USER: genes 15 Torsion [C]-CA--CB-[CG] |==|  0.30258
USER: genes 16 Torsion [CA]-CB--CG-[CD2] |==|  0.32662
USER: genes 17 Torsion [C]-CA--N-[C] |==|  0.73922
USER: genes 18 Torsion [N]-C--CA-[N] |==|  0.17156
USER: genes 19 Torsion [C]-CA--CB-[CG] |==|  0.63616
USER: genes 20 Torsion [CA]-CB--CG-[OD1] |==|  0.37906
ROOT
ATOM      1  CA  LEU D  11      20.048   5.485  62.660  1.00 47.89 LIG 0.18  C 
ENDROOT
BRANCH 1 2
ATOM      2  C   LEU D  11      18.962   4.688  61.950  1.00 48.14 LIG 0.24  C 
ATOM      3 O    LEU D  11      18.729   3.527  62.260  1.00 47.13 LIG-0.27  OA
ATOM      4  N   HIS D  12      18.325   5.312  60.966  1.00 49.28 LIG-0.35  N 
ATOM      5 H    HIS D  12      18.465   6.129  60.737  1.00 49.28 LIG 0.16  HD
BRANCH 4 6
ATOM      6  CA  HIS D  12      17.308   4.620  60.181  1.00 50.49 LIG 0.18  C 
BRANCH 6 7
ATOM      7  C   HIS D  12      17.009   5.348  58.872  1.00 51.38 LIG 0.24  C 
ATOM      8  N   ILE D  13      15.932   4.917  58.237  1.00 53.16 LIG-0.34  N 
ATOM      9 H    ILE D  13      15.469   4.258  58.538  1.00 53.16 LIG 0.16  HD
ATOM     10 O    HIS D  12      17.721   6.259  58.475  1.00 51.57 LIG-0.27  OA
BRANCH 8 11
ATOM     11  CA  ILE D  13      15.374   5.455  56.985  1.00 55.12 LIG 0.19  C 
BRANCH 11 12
ATOM     12  CB  ILE D  13      16.167   6.687  56.416  1.00 55.01 LIG 0.01  C 
ATOM     13  CG2 ILE D  13      17.462   6.279  55.689  1.00 56.15 LIG 0.01  C 
BRANCH 12 14
ATOM     14  CG1 ILE D  13      15.264   7.514  55.495  1.00 55.50 LIG 0.00  C 
ATOM     15  CD1 ILE D  13      15.883   8.860  55.034  1.00 55.45 LIG 0.01  C 
ENDBRANCH 12 14
ENDBRANCH 11 12
BRANCH 11 16
ATOM     16  C   ILE D  13      14.939   4.477  55.889  1.00 55.63 LIG 0.20  C 
ATOM     17 O    ILE D  13      14.063   4.779  55.075  1.00 56.94 LIG-0.65  OA
ATOM     18 OXT  ILE D  13      15.477   3.362  55.864  1.00 55.86 LIG-0.65  OA
ENDBRANCH 11 16
ENDBRANCH 8 11
ENDBRANCH 6 7
BRANCH 6 19
ATOM     19  CB  HIS D  12      16.019   4.432  60.985  1.00 50.55 LIG 0.10  C 
BRANCH 19 20
ATOM     20  CG  HIS D  12      15.355   5.716  61.369  1.00 49.61 LIG 0.06  A 
ATOM     21  CD2 HIS D  12      14.117   6.196  61.103  1.00 48.49 LIG 0.14  A 
ATOM     22 NE2  HIS D  12      14.024   7.427  61.702  1.00 48.62 LIG-0.25  NA
ATOM     23  CE1 HIS D  12      15.154   7.685  62.334  1.00 49.12 LIG 0.23  A 
ATOM     24 ND1  HIS D  12      15.977   6.670  62.145  1.00 49.92 LIG-0.24  NA
ENDBRANCH 19 20
ENDBRANCH 6 19
ENDBRANCH 4 6
ENDBRANCH 1 2
BRANCH 1 25
ATOM     25  CB  LEU D  11      21.377   4.779  62.417  1.00 47.69 LIG 0.04  C 
BRANCH 25 26
ATOM     26  CG  LEU D  11      22.081   4.952  61.065  1.00 48.05 LIG-0.02  C 
ATOM     27  CD1 LEU D  11      23.467   5.547  61.269  1.00 46.53 LIG 0.01  C 
ATOM     28  CD2 LEU D  11      22.157   3.667  60.276  1.00 50.43 LIG 0.01  C 
ENDBRANCH 25 26
ENDBRANCH 1 25
BRANCH 1 29
ATOM     29  N   LEU D  11      19.825   5.621  64.092  1.00 47.51 LIG-0.35  N 
ATOM     30  C   LEU D  10      18.962   6.495  64.610  1.00 47.80 LIG 0.24  C 
ATOM     31 O    LEU D  10      18.218   7.215  63.929  1.00 47.07 LIG-0.27  OA
ATOM     32 H    LEU D  11      20.300   5.086  64.570  1.00 47.51 LIG 0.16  HD
BRANCH 30 33
ATOM     33  CA  LEU D  10      18.941   6.574  66.132  1.00 47.63 LIG 0.18  C 
BRANCH 33 34
ATOM     34  CB  LEU D  10      17.639   6.012  66.695  1.00 47.29 LIG 0.04  C 
BRANCH 34 35
ATOM     35  CG  LEU D  10      17.802   4.669  67.415  1.00 46.92 LIG-0.02  C 
ATOM     36  CD1 LEU D  10      19.225   4.127  67.299  1.00 46.83 LIG 0.01  C 
ATOM     37  CD2 LEU D  10      17.431   4.779  68.857  1.00 45.50 LIG 0.01  C 
ENDBRANCH 34 35
ENDBRANCH 33 34
BRANCH 33 38
ATOM     38  N   LEU D  10      19.172   7.943  66.561  1.00 47.82 LIG-0.35  N 
ATOM     39 H    LEU D  10      18.467   8.434  66.600  1.00 47.82 LIG 0.16  HD
ATOM     40  C   ASP D   9      20.396   8.359  66.859  1.00 48.63 LIG 0.26  C 
ATOM     41 O    ASP D   9      21.391   7.642  66.781  1.00 48.10 LIG-0.27  OA
BRANCH 40 42
ATOM     42  CA  ASP D   9      20.516   9.795  67.299  1.00 49.27 LIG 0.41  C 
ATOM     43  N   ASP D   9      19.719   9.951  68.544  1.00 49.86 LIG 0.61  N 
BRANCH 42 44
ATOM     44  CB  ASP D   9      21.983  10.109  67.558  1.00 50.02 LIG 0.16  C 
BRANCH 44 45
ATOM     45  CG  ASP D   9      22.206  10.783  68.879  1.00 50.84 LIG 0.17  C 
ATOM     46 OD1  ASP D   9      23.159  10.404  69.582  1.00 53.44 LIG-0.65  OA
ATOM     47 OD2  ASP D   9      21.493  11.725  69.293  1.00 53.75 LIG-0.65  OA
ENDBRANCH 44 45
ENDBRANCH 42 44
ENDBRANCH 40 42
ENDBRANCH 33 38
ENDBRANCH 30 33
ENDBRANCH 1 29
TORSDOF 19
ENDMDL
MODEL 33
USER: ADFR SOLUTION from run 121
USER: SCORE 14.391742 LL:  -4.038 LR: -10.880 RR:   0.000 FEB:  -5.213
USER: RMSD 4.608348
USER: SEED 120
USER: STATUS no improvement in best in 11 clusters for 5 generations
USER: GENES 21
USER: genes 0 Translation |==|  0.57050 0.43400 0.50138
USER: genes 1 Rotation |==|  0.42795 0.48566 0.57472 0.98890
USER: genes 2 Torsion [N]-CA--C-[N] |==|  0.34205
USER: genes 3 Torsion [C]-N--CA-[C] |==|  0.62060
USER: genes 4 Torsion [N]-CA--C-[N] |==|  0.45850
USER: genes 5 Torsion [C]-N--CA-[CB] |==|  0.32280
USER: genes 6 Torsion [N]-CA--CB-[CG1] |==|  0.38009
USER: genes 7 Torsion [CA]-CB--CG1-[CD1] |==|  0.49768
USER: genes 8 Torsion [N]-CA--C-[OXT] |==|  0.39830
USER: genes 9 Torsion [N]-CA--CB-[CG] |==|  0.59459
USER: genes 10 Torsion [CA]-CB--CG-[CD2] |==|  0.02229
USER: genes 11 Torsion [C]-CA--CB-[CG] |==|  0.29761
USER: genes 12 Torsion [CA]-CB--CG-[CD1] |==|  0.72706
USER: genes 13 Torsion [C]-CA--N-[C] |==|  0.73944
USER: genes 14 Torsion [N]-C--CA-[N] |==|  0.89778
USER: genes 15 Torsion [C]-CA--CB-[CG] |==|  0.28001
USER: genes 16 Torsion [CA]-CB--CG-[CD2] |==|  0.68615
USER: genes 17 Torsion [C]-CA--N-[C] |==|  0.70728
USER: genes 18 Torsion [N]-C--CA-[N] |==|  0.44493
USER: genes 19 Torsion [C]-CA--CB-[CG] |==|  0.21723
USER: genes 20 Torsion [CA]-CB--CG-[OD1] |==|  0.48176
ROOT
ATOM      1  CA  LEU D  11      20.157   5.791  62.922  1.00 47.89 LIG 0.18  C 
ENDROOT
BRANCH 1 2
ATOM      2  C   LEU D  11      18.876   5.112  62.457  1.00 48.14 LIG 0.24  C 
ATOM      3 O    LEU D  11      18.427   4.141  63.050  1.00 47.13 LIG-0.27  OA
ATOM      4  N   HIS D  12      18.312   5.609  61.361  1.00 49.28 LIG-0.35  N 
ATOM      5 H    HIS D  12      18.604   6.295  60.933  1.00 49.28 LIG 0.16  HD
BRANCH 4 6
ATOM      6  CA  HIS D  12      17.115   4.996  60.796  1.00 50.49 LIG 0.18  C 
BRANCH 6 7
ATOM      7  C   HIS D  12      17.201   4.882  59.275  1.00 51.38 LIG 0.24  C 
ATOM      8  N   ILE D  13      16.308   4.069  58.734  1.00 53.16 LIG-0.34  N 
ATOM      9 H    ILE D  13      15.754   3.627  59.219  1.00 53.16 LIG 0.16  HD
ATOM     10 O    HIS D  12      18.032   5.512  58.637  1.00 51.57 LIG-0.27  OA
BRANCH 8 11
ATOM     11  CA  ILE D  13      16.121   3.800  57.298  1.00 55.12 LIG 0.19  C 
BRANCH 11 12
ATOM     12  CB  ILE D  13      16.410   2.309  56.891  1.00 55.01 LIG 0.01  C 
ATOM     13  CG2 ILE D  13      16.527   1.371  58.106  1.00 56.15 LIG 0.01  C 
BRANCH 12 14
ATOM     14  CG1 ILE D  13      15.332   1.811  55.923  1.00 55.50 LIG 0.00  C 
ATOM     15  CD1 ILE D  13      15.534   0.349  55.439  1.00 55.45 LIG 0.01  C 
ENDBRANCH 12 14
ENDBRANCH 11 12
BRANCH 11 16
ATOM     16  C   ILE D  13      14.890   4.376  56.593  1.00 55.63 LIG 0.20  C 
ATOM     17 O    ILE D  13      13.795   4.425  57.157  1.00 56.94 LIG-0.65  OA
ATOM     18 OXT  ILE D  13      15.025   4.768  55.425  1.00 55.86 LIG-0.65  OA
ENDBRANCH 11 16
ENDBRANCH 8 11
ENDBRANCH 6 7
BRANCH 6 19
ATOM     19  CB  HIS D  12      15.855   5.765  61.196  1.00 50.55 LIG 0.10  C 
BRANCH 19 20
ATOM     20  CG  HIS D  12      14.653   4.896  61.391  1.00 49.61 LIG 0.06  A 
ATOM     21  CD2 HIS D  12      14.519   3.549  61.414  1.00 48.49 LIG 0.14  A 
ATOM     22 NE2  HIS D  12      13.192   3.279  61.633  1.00 48.62 LIG-0.25  NA
ATOM     23  CE1 HIS D  12      12.537   4.417  61.765  1.00 49.12 LIG 0.23  A 
ATOM     24 ND1  HIS D  12      13.395   5.410  61.619  1.00 49.92 LIG-0.24  NA
ENDBRANCH 19 20
ENDBRANCH 6 19
ENDBRANCH 4 6
ENDBRANCH 1 2
BRANCH 1 25
ATOM     25  CB  LEU D  11      21.289   4.777  62.807  1.00 47.69 LIG 0.04  C 
BRANCH 25 26
ATOM     26  CG  LEU D  11      22.329   4.938  61.691  1.00 48.05 LIG-0.02  C 
ATOM     27  CD1 LEU D  11      21.982   4.030  60.519  1.00 46.53 LIG 0.01  C 
ATOM     28  CD2 LEU D  11      22.481   6.370  61.236  1.00 50.43 LIG 0.01  C 
ENDBRANCH 25 26
ENDBRANCH 1 25
BRANCH 1 29
ATOM     29  N   LEU D  11      20.085   6.288  64.288  1.00 47.51 LIG-0.35  N 
ATOM     30  C   LEU D  10      19.736   7.540  64.586  1.00 47.80 LIG 0.24  C 
ATOM     31 O    LEU D  10      19.368   8.371  63.744  1.00 47.07 LIG-0.27  OA
ATOM     32 H    LEU D  11      20.289   5.700  64.883  1.00 47.51 LIG 0.16  HD
BRANCH 30 33
ATOM     33  CA  LEU D  10      19.823   7.913  66.061  1.00 47.63 LIG 0.18  C 
BRANCH 33 34
ATOM     34  CB  LEU D  10      21.218   8.414  66.422  1.00 47.29 LIG 0.04  C 
BRANCH 34 35
ATOM     35  CG  LEU D  10      21.325   9.940  66.515  1.00 46.92 LIG-0.02  C 
ATOM     36  CD1 LEU D  10      21.862  10.394  67.870  1.00 46.83 LIG 0.01  C 
ATOM     37  CD2 LEU D  10      22.191  10.490  65.431  1.00 45.50 LIG 0.01  C 
ENDBRANCH 34 35
ENDBRANCH 33 34
BRANCH 33 38
ATOM     38  N   LEU D  10      19.424   6.782  66.882  1.00 47.82 LIG-0.35  N 
ATOM     39 H    LEU D  10      20.004   6.150  66.935  1.00 47.82 LIG 0.16  HD
ATOM     40  C   ASP D   9      18.242   6.771  67.486  1.00 48.63 LIG 0.26  C 
ATOM     41 O    ASP D   9      17.423   7.682  67.384  1.00 48.10 LIG-0.27  OA
BRANCH 40 42
ATOM     42  CA  ASP D   9      17.937   5.553  68.317  1.00 49.27 LIG 0.41  C 
ATOM     43  N   ASP D   9      16.853   5.916  69.266  1.00 49.86 LIG 0.61  N 
BRANCH 42 44
ATOM     44  CB  ASP D   9      17.490   4.428  67.395  1.00 50.02 LIG 0.16  C 
BRANCH 44 45
ATOM     45  CG  ASP D   9      18.637   3.763  66.694  1.00 50.84 LIG 0.17  C 
ATOM     46 OD1  ASP D   9      18.406   2.750  66.011  1.00 53.44 LIG-0.65  OA
ATOM     47 OD2  ASP D   9      19.810   4.196  66.745  1.00 53.75 LIG-0.65  OA
ENDBRANCH 44 45
ENDBRANCH 42 44
ENDBRANCH 40 42
ENDBRANCH 33 38
ENDBRANCH 30 33
ENDBRANCH 1 29
TORSDOF 19
ENDMDL
MODEL 34
USER: ADFR SOLUTION from run 87
USER: SCORE 14.773944 LL:  -4.378 LR: -10.861 RR:   0.000 FEB:  -5.193
USER: RMSD 4.265988
USER: SEED 86
USER: STATUS no improvement in best in 11 clusters for 5 generations
USER: GENES 21
USER: genes 0 Translation |==|  0.51705 0.46036 0.65796
USER: genes 1 Rotation |==|  0.22948 0.39469 0.21109 0.78680
USER: genes 2 Torsion [N]-CA--C-[N] |==|  0.35387
USER: genes 3 Torsion [C]-N--CA-[C] |==|  0.55000
USER: genes 4 Torsion [N]-CA--C-[N] |==|  0.43633
USER: genes 5 Torsion [C]-N--CA-[CB] |==|  0.25285
USER: genes 6 Torsion [N]-CA--CB-[CG1] |==|  0.80026
USER: genes 7 Torsion [CA]-CB--CG1-[CD1] |==|  0.39909
USER: genes 8 Torsion [N]-CA--C-[OXT] |==|  0.35807
USER: genes 9 Torsion [N]-CA--CB-[CG] |==|  0.52473
USER: genes 10 Torsion [CA]-CB--CG-[CD2] |==|  0.24657
USER: genes 11 Torsion [C]-CA--CB-[CG] |==|  0.28728
USER: genes 12 Torsion [CA]-CB--CG-[CD1] |==|  0.54948
USER: genes 13 Torsion [C]-CA--N-[C] |==|  0.84781
USER: genes 14 Torsion [N]-C--CA-[N] |==|  0.43960
USER: genes 15 Torsion [C]-CA--CB-[CG] |==|  0.10972
USER: genes 16 Torsion [CA]-CB--CG-[CD2] |==|  0.59571
USER: genes 17 Torsion [C]-CA--N-[C] |==|  0.53432
USER: genes 18 Torsion [N]-C--CA-[N] |==|  0.35724
USER: genes 19 Torsion [C]-CA--CB-[CG] |==|  0.69212
USER: genes 20 Torsion [CA]-CB--CG-[OD1] |==|  0.34129
ROOT
ATOM      1  CA  LEU D  11      19.115   6.286  66.445  1.00 47.89 LIG 0.18  C 
ENDROOT
BRANCH 1 2
ATOM      2  C   LEU D  11      18.464   6.504  65.086  1.00 48.14 LIG 0.24  C 
ATOM      3 O    LEU D  11      17.649   7.401  64.914  1.00 47.13 LIG-0.27  OA
ATOM      4  N   HIS D  12      18.802   5.648  64.128  1.00 49.28 LIG-0.35  N 
ATOM      5 H    HIS D  12      19.379   5.016  64.223  1.00 49.28 LIG 0.16  HD
BRANCH 4 6
ATOM      6  CA  HIS D  12      18.193   5.730  62.805  1.00 50.49 LIG 0.18  C 
BRANCH 6 7
ATOM      7  C   HIS D  12      18.372   4.434  62.017  1.00 51.38 LIG 0.24  C 
ATOM      8  N   ILE D  13      17.482   4.249  61.055  1.00 53.16 LIG-0.34  N 
ATOM      9 H    ILE D  13      16.844   4.810  60.922  1.00 53.16 LIG 0.16  HD
ATOM     10 O    HIS D  12      19.279   3.656  62.272  1.00 51.57 LIG-0.27  OA
BRANCH 8 11
ATOM     11  CA  ILE D  13      17.433   3.123  60.108  1.00 55.12 LIG 0.19  C 
BRANCH 11 12
ATOM     12  CB  ILE D  13      16.556   1.917  60.603  1.00 55.01 LIG 0.01  C 
ATOM     13  CG2 ILE D  13      16.191   0.940  59.469  1.00 56.15 LIG 0.01  C 
BRANCH 12 14
ATOM     14  CG1 ILE D  13      17.267   1.183  61.744  1.00 55.50 LIG 0.00  C 
ATOM     15  CD1 ILE D  13      16.318   0.646  62.848  1.00 55.45 LIG 0.01  C 
ENDBRANCH 12 14
ENDBRANCH 11 12
BRANCH 11 16
ATOM     16  C   ILE D  13      17.241   3.420  58.617  1.00 55.63 LIG 0.20  C 
ATOM     17 O    ILE D  13      16.311   4.127  58.221  1.00 56.94 LIG-0.65  OA
ATOM     18 OXT  ILE D  13      18.036   2.904  57.819  1.00 55.86 LIG-0.65  OA
ENDBRANCH 11 16
ENDBRANCH 8 11
ENDBRANCH 6 7
BRANCH 6 19
ATOM     19  CB  HIS D  12      18.751   6.912  62.010  1.00 50.55 LIG 0.10  C 
BRANCH 19 20
ATOM     20  CG  HIS D  12      18.020   7.178  60.732  1.00 49.61 LIG 0.06  A 
ATOM     21  CD2 HIS D  12      16.939   7.949  60.465  1.00 48.49 LIG 0.14  A 
ATOM     22 NE2  HIS D  12      16.686   7.837  59.120  1.00 48.62 LIG-0.25  NA
ATOM     23  CE1 HIS D  12      17.592   7.047  58.576  1.00 49.12 LIG 0.23  A 
ATOM     24 ND1  HIS D  12      18.407   6.631  59.528  1.00 49.92 LIG-0.24  NA
ENDBRANCH 19 20
ENDBRANCH 6 19
ENDBRANCH 4 6
ENDBRANCH 1 2
BRANCH 1 25
ATOM     25  CB  LEU D  11      18.029   5.826  67.412  1.00 47.69 LIG 0.04  C 
BRANCH 25 26
ATOM     26  CG  LEU D  11      17.950   4.343  67.799  1.00 48.05 LIG-0.02  C 
ATOM     27  CD1 LEU D  11      16.584   4.029  68.391  1.00 46.53 LIG 0.01  C 
ATOM     28  CD2 LEU D  11      18.263   3.421  66.646  1.00 50.43 LIG 0.01  C 
ENDBRANCH 25 26
ENDBRANCH 1 25
BRANCH 1 29
ATOM     29  N   LEU D  11      19.764   7.476  66.974  1.00 47.51 LIG-0.35  N 
ATOM     30  C   LEU D  10      20.691   8.156  66.298  1.00 47.80 LIG 0.24  C 
ATOM     31 O    LEU D  10      21.030   7.889  65.137  1.00 47.07 LIG-0.27  OA
ATOM     32 H    LEU D  11      19.494   7.699  67.760  1.00 47.51 LIG 0.16  HD
BRANCH 30 33
ATOM     33  CA  LEU D  10      21.339   9.310  67.053  1.00 47.63 LIG 0.18  C 
BRANCH 33 34
ATOM     34  CB  LEU D  10      20.417  10.525  67.100  1.00 47.29 LIG 0.04  C 
BRANCH 34 35
ATOM     35  CG  LEU D  10      18.940  10.176  67.319  1.00 46.92 LIG-0.02  C 
ATOM     36  CD1 LEU D  10      18.567  10.174  68.800  1.00 46.83 LIG 0.01  C 
ATOM     37  CD2 LEU D  10      18.046  11.118  66.584  1.00 45.50 LIG 0.01  C 
ENDBRANCH 34 35
ENDBRANCH 33 34
BRANCH 33 38
ATOM     38  N   LEU D  10      22.626   9.629  66.459  1.00 47.82 LIG-0.35  N 
ATOM     39 H    LEU D  10      22.773   9.265  65.694  1.00 47.82 LIG 0.16  HD
ATOM     40  C   ASP D   9      23.479  10.429  67.088  1.00 48.63 LIG 0.26  C 
ATOM     41 O    ASP D   9      23.252  10.927  68.188  1.00 48.10 LIG-0.27  OA
BRANCH 40 42
ATOM     42  CA  ASP D   9      24.779  10.697  66.376  1.00 49.27 LIG 0.41  C 
ATOM     43  N   ASP D   9      24.973  12.169  66.333  1.00 49.86 LIG 0.61  N 
BRANCH 42 44
ATOM     44  CB  ASP D   9      25.909  10.029  67.148  1.00 50.02 LIG 0.16  C 
BRANCH 44 45
ATOM     45  CG  ASP D   9      26.822  11.019  67.809  1.00 50.84 LIG 0.17  C 
ATOM     46 OD1  ASP D   9      26.983  10.946  69.039  1.00 53.44 LIG-0.65  OA
ATOM     47 OD2  ASP D   9      27.449  11.897  67.173  1.00 53.75 LIG-0.65  OA
ENDBRANCH 44 45
ENDBRANCH 42 44
ENDBRANCH 40 42
ENDBRANCH 33 38
ENDBRANCH 30 33
ENDBRANCH 1 29
TORSDOF 19
ENDMDL
MODEL 35
USER: ADFR SOLUTION from run 9
USER: SCORE 15.160101 LL:  -4.670 LR: -10.829 RR:   0.000 FEB:  -5.162
USER: RMSD 3.200950
USER: SEED 528928
USER: STATUS no improvement in best in 10 clusters for 5 generations
USER: GENES 21
USER: genes 0 Translation |==|  0.54976 0.42572 0.49930
USER: genes 1 Rotation |==|  0.48687 0.47307 0.58671 0.99151
USER: genes 2 Torsion [N]-CA--C-[N] |==|  0.35043
USER: genes 3 Torsion [C]-N--CA-[C] |==|  0.79442
USER: genes 4 Torsion [N]-CA--C-[N] |==|  0.47530
USER: genes 5 Torsion [C]-N--CA-[CB] |==|  0.26716
USER: genes 6 Torsion [N]-CA--CB-[CG1] |==|  0.83783
USER: genes 7 Torsion [CA]-CB--CG1-[CD1] |==|  0.27099
USER: genes 8 Torsion [N]-CA--C-[OXT] |==|  0.44206
USER: genes 9 Torsion [N]-CA--CB-[CG] |==|  0.28113
USER: genes 10 Torsion [CA]-CB--CG-[CD2] |==|  0.35259
USER: genes 11 Torsion [C]-CA--CB-[CG] |==|  0.23137
USER: genes 12 Torsion [CA]-CB--CG-[CD1] |==|  0.34761
USER: genes 13 Torsion [C]-CA--N-[C] |==|  0.84170
USER: genes 14 Torsion [N]-C--CA-[N] |==|  0.29319
USER: genes 15 Torsion [C]-CA--CB-[CG] |==|  0.27079
USER: genes 16 Torsion [CA]-CB--CG-[CD2] |==|  0.33174
USER: genes 17 Torsion [C]-CA--N-[C] |==|  0.72778
USER: genes 18 Torsion [N]-C--CA-[N] |==|  0.76123
USER: genes 19 Torsion [C]-CA--CB-[CG] |==|  0.73317
USER: genes 20 Torsion [CA]-CB--CG-[OD1] |==|  0.79026
ROOT
ATOM      1  CA  LEU D  11      19.752   5.636  62.875  1.00 47.89 LIG 0.18  C 
ENDROOT
BRANCH 1 2
ATOM      2  C   LEU D  11      18.514   5.013  62.245  1.00 48.14 LIG 0.24  C 
ATOM      3 O    LEU D  11      18.092   3.929  62.624  1.00 47.13 LIG-0.27  OA
ATOM      4  N   HIS D  12      17.958   5.692  61.248  1.00 49.28 LIG-0.35  N 
ATOM      5 H    HIS D  12      18.230   6.459  60.971  1.00 49.28 LIG 0.16  HD
BRANCH 4 6
ATOM      6  CA  HIS D  12      16.803   5.156  60.535  1.00 50.49 LIG 0.18  C 
BRANCH 6 7
ATOM      7  C   HIS D  12      17.194   4.014  59.600  1.00 51.38 LIG 0.24  C 
ATOM      8  N   ILE D  13      16.172   3.366  59.066  1.00 53.16 LIG-0.34  N 
ATOM      9 H    ILE D  13      15.360   3.568  59.267  1.00 53.16 LIG 0.16  HD
ATOM     10 O    HIS D  12      18.366   3.749  59.376  1.00 51.57 LIG-0.27  OA
BRANCH 8 11
ATOM     11  CA  ILE D  13      16.240   2.258  58.098  1.00 55.12 LIG 0.19  C 
BRANCH 11 12
ATOM     12  CB  ILE D  13      16.148   0.835  58.757  1.00 55.01 LIG 0.01  C 
ATOM     13  CG2 ILE D  13      16.157  -0.304  57.721  1.00 56.15 LIG 0.01  C 
BRANCH 12 14
ATOM     14  CG1 ILE D  13      17.279   0.652  59.775  1.00 55.50 LIG 0.00  C 
ATOM     15  CD1 ILE D  13      16.865   0.925  61.246  1.00 55.45 LIG 0.01  C 
ENDBRANCH 12 14
ENDBRANCH 11 12
BRANCH 11 16
ATOM     16  C   ILE D  13      15.434   2.361  56.800  1.00 55.63 LIG 0.20  C 
ATOM     17 O    ILE D  13      14.452   3.102  56.714  1.00 56.94 LIG-0.65  OA
ATOM     18 OXT  ILE D  13      15.786   1.654  55.845  1.00 55.86 LIG-0.65  OA
ENDBRANCH 11 16
ENDBRANCH 8 11
ENDBRANCH 6 7
BRANCH 6 19
ATOM     19  CB  HIS D  12      16.077   6.252  59.752  1.00 50.55 LIG 0.10  C 
BRANCH 19 20
ATOM     20  CG  HIS D  12      16.389   6.256  58.289  1.00 49.61 LIG 0.06  A 
ATOM     21  CD2 HIS D  12      15.581   6.229  57.203  1.00 48.49 LIG 0.14  A 
ATOM     22 NE2  HIS D  12      16.391   6.254  56.096  1.00 48.62 LIG-0.25  NA
ATOM     23  CE1 HIS D  12      17.651   6.318  56.485  1.00 49.12 LIG 0.23  A 
ATOM     24 ND1  HIS D  12      17.678   6.317  57.805  1.00 49.92 LIG-0.24  NA
ENDBRANCH 19 20
ENDBRANCH 6 19
ENDBRANCH 4 6
ENDBRANCH 1 2
BRANCH 1 25
ATOM     25  CB  LEU D  11      20.943   4.746  62.540  1.00 47.69 LIG 0.04  C 
BRANCH 25 26
ATOM     26  CG  LEU D  11      21.647   4.912  61.187  1.00 48.05 LIG-0.02  C 
ATOM     27  CD1 LEU D  11      23.134   5.157  61.397  1.00 46.53 LIG 0.01  C 
ATOM     28  CD2 LEU D  11      21.418   3.741  60.262  1.00 50.43 LIG 0.01  C 
ENDBRANCH 25 26
ENDBRANCH 1 25
BRANCH 1 29
ATOM     29  N   LEU D  11      19.652   5.790  64.319  1.00 47.51 LIG-0.35  N 
ATOM     30  C   LEU D  10      18.672   6.478  64.907  1.00 47.80 LIG 0.24  C 
ATOM     31 O    LEU D  10      17.720   6.981  64.294  1.00 47.07 LIG-0.27  OA
ATOM     32 H    LEU D  11      20.281   5.399  64.755  1.00 47.51 LIG 0.16  HD
BRANCH 30 33
ATOM     33  CA  LEU D  10      18.789   6.625  66.419  1.00 47.63 LIG 0.18  C 
BRANCH 33 34
ATOM     34  CB  LEU D  10      17.488   6.236  67.113  1.00 47.29 LIG 0.04  C 
BRANCH 34 35
ATOM     35  CG  LEU D  10      17.476   4.801  67.652  1.00 46.92 LIG-0.02  C 
ATOM     36  CD1 LEU D  10      18.756   4.047  67.298  1.00 46.83 LIG 0.01  C 
ATOM     37  CD2 LEU D  10      17.282   4.779  69.132  1.00 45.50 LIG 0.01  C 
ENDBRANCH 34 35
ENDBRANCH 33 34
BRANCH 33 38
ATOM     38  N   LEU D  10      19.199   7.978  66.754  1.00 47.82 LIG-0.35  N 
ATOM     39 H    LEU D  10      18.563   8.557  66.770  1.00 47.82 LIG 0.16  HD
ATOM     40  C   ASP D   9      20.472   8.253  67.011  1.00 48.63 LIG 0.26  C 
ATOM     41 O    ASP D   9      21.367   7.411  66.969  1.00 48.10 LIG-0.27  OA
BRANCH 40 42
ATOM     42  CA  ASP D   9      20.781   9.687  67.355  1.00 49.27 LIG 0.41  C 
ATOM     43  N   ASP D   9      20.993  10.419  66.080  1.00 49.86 LIG 0.61  N 
BRANCH 42 44
ATOM     44  CB  ASP D   9      19.605  10.273  68.122  1.00 50.02 LIG 0.16  C 
BRANCH 44 45
ATOM     45  CG  ASP D   9      18.658  11.031  67.239  1.00 50.84 LIG 0.17  C 
ATOM     46 OD1  ASP D   9      18.995  12.160  66.843  1.00 53.44 LIG-0.65  OA
ATOM     47 OD2  ASP D   9      17.558  10.567  66.863  1.00 53.75 LIG-0.65  OA
ENDBRANCH 44 45
ENDBRANCH 42 44
ENDBRANCH 40 42
ENDBRANCH 33 38
ENDBRANCH 30 33
ENDBRANCH 1 29
TORSDOF 19
ENDMDL
MODEL 36
USER: ADFR SOLUTION from run 98
USER: SCORE 14.808331 LL:  -4.406 LR: -10.816 RR:   0.000 FEB:  -5.148
USER: RMSD 2.752963
USER: SEED 97
USER: STATUS no improvement in best in 9 clusters for 5 generations
USER: GENES 21
USER: genes 0 Translation |==|  0.55896 0.43422 0.49937
USER: genes 1 Rotation |==|  0.51862 0.49607 0.57335 0.99422
USER: genes 2 Torsion [N]-CA--C-[N] |==|  0.37289
USER: genes 3 Torsion [C]-N--CA-[C] |==|  0.69071
USER: genes 4 Torsion [N]-CA--C-[N] |==|  0.44788
USER: genes 5 Torsion [C]-N--CA-[CB] |==|  0.26057
USER: genes 6 Torsion [N]-CA--CB-[CG1] |==|  0.37425
USER: genes 7 Torsion [CA]-CB--CG1-[CD1] |==|  0.55003
USER: genes 8 Torsion [N]-CA--C-[OXT] |==|  0.89272
USER: genes 9 Torsion [N]-CA--CB-[CG] |==|  0.29173
USER: genes 10 Torsion [CA]-CB--CG-[CD2] |==|  0.30750
USER: genes 11 Torsion [C]-CA--CB-[CG] |==|  0.19393
USER: genes 12 Torsion [CA]-CB--CG-[CD1] |==|  0.24427
USER: genes 13 Torsion [C]-CA--N-[C] |==|  0.83764
USER: genes 14 Torsion [N]-C--CA-[N] |==|  0.48333
USER: genes 15 Torsion [C]-CA--CB-[CG] |==|  0.82293
USER: genes 16 Torsion [CA]-CB--CG-[CD2] |==|  0.72034
USER: genes 17 Torsion [C]-CA--N-[C] |==|  0.69456
USER: genes 18 Torsion [N]-C--CA-[N] |==|  0.21356
USER: genes 19 Torsion [C]-CA--CB-[CG] |==|  0.75925
USER: genes 20 Torsion [CA]-CB--CG-[OD1] |==|  0.80539
ROOT
ATOM      1  CA  LEU D  11      19.932   5.796  62.877  1.00 47.89 LIG 0.18  C 
ENDROOT
BRANCH 1 2
ATOM      2  C   LEU D  11      18.599   5.303  62.328  1.00 48.14 LIG 0.24  C 
ATOM      3 O    LEU D  11      18.090   4.270  62.743  1.00 47.13 LIG-0.27  OA
ATOM      4  N   HIS D  12      18.058   6.033  61.359  1.00 49.28 LIG-0.35  N 
ATOM      5 H    HIS D  12      18.392   6.766  61.058  1.00 49.28 LIG 0.16  HD
BRANCH 4 6
ATOM      6  CA  HIS D  12      16.813   5.618  60.721  1.00 50.49 LIG 0.18  C 
BRANCH 6 7
ATOM      7  C   HIS D  12      17.033   5.191  59.271  1.00 51.38 LIG 0.24  C 
ATOM      8  N   ILE D  13      16.061   4.452  58.763  1.00 53.16 LIG-0.34  N 
ATOM      9 H    ILE D  13      15.383   4.217  59.237  1.00 53.16 LIG 0.16  HD
ATOM     10 O    HIS D  12      18.033   5.529  58.655  1.00 51.57 LIG-0.27  OA
BRANCH 8 11
ATOM     11  CA  ILE D  13      15.975   3.938  57.385  1.00 55.12 LIG 0.19  C 
BRANCH 11 12
ATOM     12  CB  ILE D  13      16.550   2.485  57.215  1.00 55.01 LIG 0.01  C 
ATOM     13  CG2 ILE D  13      16.848   1.800  58.561  1.00 56.15 LIG 0.01  C 
BRANCH 12 14
ATOM     14  CG1 ILE D  13      15.591   1.636  56.374  1.00 55.50 LIG 0.00  C 
ATOM     15  CD1 ILE D  13      15.814   0.105  56.501  1.00 55.45 LIG 0.01  C 
ENDBRANCH 12 14
ENDBRANCH 11 12
BRANCH 11 16
ATOM     16  C   ILE D  13      14.682   4.158  56.594  1.00 55.63 LIG 0.20  C 
ATOM     17 O    ILE D  13      14.709   4.452  55.396  1.00 56.94 LIG-0.65  OA
ATOM     18 OXT  ILE D  13      13.608   4.057  57.203  1.00 55.86 LIG-0.65  OA
ENDBRANCH 11 16
ENDBRANCH 8 11
ENDBRANCH 6 7
BRANCH 6 19
ATOM     19  CB  HIS D  12      15.759   6.725  60.790  1.00 50.55 LIG 0.10  C 
BRANCH 19 20
ATOM     20  CG  HIS D  12      15.543   7.435  59.491  1.00 49.61 LIG 0.06  A 
ATOM     21  CD2 HIS D  12      14.492   7.439  58.639  1.00 48.49 LIG 0.14  A 
ATOM     22 NE2  HIS D  12      14.820   8.269  57.596  1.00 48.62 LIG-0.25  NA
ATOM     23  CE1 HIS D  12      16.019   8.777  57.811  1.00 49.12 LIG 0.23  A 
ATOM     24 ND1  HIS D  12      16.481   8.286  58.946  1.00 49.92 LIG-0.24  NA
ENDBRANCH 19 20
ENDBRANCH 6 19
ENDBRANCH 4 6
ENDBRANCH 1 2
BRANCH 1 25
ATOM     25  CB  LEU D  11      21.028   4.898  62.313  1.00 47.69 LIG 0.04  C 
BRANCH 25 26
ATOM     26  CG  LEU D  11      21.371   4.982  60.820  1.00 48.05 LIG-0.02  C 
ATOM     27  CD1 LEU D  11      22.422   6.056  60.585  1.00 46.53 LIG 0.01  C 
ATOM     28  CD2 LEU D  11      21.816   3.657  60.248  1.00 50.43 LIG 0.01  C 
ENDBRANCH 25 26
ENDBRANCH 1 25
BRANCH 1 29
ATOM     29  N   LEU D  11      19.997   5.788  64.331  1.00 47.51 LIG-0.35  N 
ATOM     30  C   LEU D  10      19.144   6.468  65.097  1.00 47.80 LIG 0.24  C 
ATOM     31 O    LEU D  10      18.176   7.104  64.655  1.00 47.07 LIG-0.27  OA
ATOM     32 H    LEU D  11      20.635   5.305  64.647  1.00 47.51 LIG 0.16  HD
BRANCH 30 33
ATOM     33  CA  LEU D  10      19.432   6.431  66.593  1.00 47.63 LIG 0.18  C 
BRANCH 33 34
ATOM     34  CB  LEU D  10      19.365   5.005  67.132  1.00 47.29 LIG 0.04  C 
BRANCH 34 35
ATOM     35  CG  LEU D  10      17.977   4.364  67.023  1.00 46.92 LIG-0.02  C 
ATOM     36  CD1 LEU D  10      18.050   2.920  66.530  1.00 46.83 LIG 0.01  C 
ATOM     37  CD2 LEU D  10      17.257   4.405  68.329  1.00 45.50 LIG 0.01  C 
ENDBRANCH 34 35
ENDBRANCH 33 34
BRANCH 33 38
ATOM     38  N   LEU D  10      18.522   7.319  67.295  1.00 47.82 LIG-0.35  N 
ATOM     39 H    LEU D  10      17.703   7.056  67.318  1.00 47.82 LIG 0.16  HD
ATOM     40  C   ASP D   9      18.965   8.442  67.846  1.00 48.63 LIG 0.26  C 
ATOM     41 O    ASP D   9      20.138   8.805  67.788  1.00 48.10 LIG-0.27  OA
BRANCH 40 42
ATOM     42  CA  ASP D   9      17.935   9.282  68.554  1.00 49.27 LIG 0.41  C 
ATOM     43  N   ASP D   9      17.657   8.641  69.865  1.00 49.86 LIG 0.61  N 
BRANCH 42 44
ATOM     44  CB  ASP D   9      18.494  10.684  68.751  1.00 50.02 LIG 0.16  C 
BRANCH 44 45
ATOM     45  CG  ASP D   9      19.303  10.814  70.008  1.00 50.84 LIG 0.17  C 
ATOM     46 OD1  ASP D   9      18.709  10.772  71.099  1.00 53.44 LIG-0.65  OA
ATOM     47 OD2  ASP D   9      20.549  10.936  70.007  1.00 53.75 LIG-0.65  OA
ENDBRANCH 44 45
ENDBRANCH 42 44
ENDBRANCH 40 42
ENDBRANCH 33 38
ENDBRANCH 30 33
ENDBRANCH 1 29
TORSDOF 19
ENDMDL
MODEL 37
USER: ADFR SOLUTION from run 111
USER: SCORE 14.615547 LL:  -4.461 LR: -10.757 RR:   0.000 FEB:  -5.090
USER: RMSD 4.589557
USER: SEED 110
USER: STATUS no improvement in best in 12 clusters for 5 generations
USER: GENES 21
USER: genes 0 Translation |==|  0.58498 0.40238 0.47462
USER: genes 1 Rotation |==|  0.48402 0.41110 0.60795 0.97978
USER: genes 2 Torsion [N]-CA--C-[N] |==|  0.03588
USER: genes 3 Torsion [C]-N--CA-[C] |==|  0.59142
USER: genes 4 Torsion [N]-CA--C-[N] |==|  0.53243
USER: genes 5 Torsion [C]-N--CA-[CB] |==|  0.84443
USER: genes 6 Torsion [N]-CA--CB-[CG1] |==|  0.70523
USER: genes 7 Torsion [CA]-CB--CG1-[CD1] |==|  0.68644
USER: genes 8 Torsion [N]-CA--C-[OXT] |==|  0.45033
USER: genes 9 Torsion [N]-CA--CB-[CG] |==|  0.12724
USER: genes 10 Torsion [CA]-CB--CG-[CD2] |==|  0.39165
USER: genes 11 Torsion [C]-CA--CB-[CG] |==|  0.23223
USER: genes 12 Torsion [CA]-CB--CG-[CD1] |==|  0.74590
USER: genes 13 Torsion [C]-CA--N-[C] |==|  0.68890
USER: genes 14 Torsion [N]-C--CA-[N] |==|  0.46938
USER: genes 15 Torsion [C]-CA--CB-[CG] |==|  0.34191
USER: genes 16 Torsion [CA]-CB--CG-[CD2] |==|  0.30899
USER: genes 17 Torsion [C]-CA--N-[C] |==|  0.76412
USER: genes 18 Torsion [N]-C--CA-[N] |==|  0.18587
USER: genes 19 Torsion [C]-CA--CB-[CG] |==|  0.62638
USER: genes 20 Torsion [CA]-CB--CG-[OD1] |==|  0.86731
ROOT
ATOM      1  CA  LEU D  11      20.439   5.199  62.320  1.00 47.89 LIG 0.18  C 
ENDROOT
BRANCH 1 2
ATOM      2  C   LEU D  11      19.459   4.486  61.397  1.00 48.14 LIG 0.24  C 
ATOM      3 O    LEU D  11      19.786   4.157  60.265  1.00 47.13 LIG-0.27  OA
ATOM      4  N   HIS D  12      18.238   4.287  61.879  1.00 49.28 LIG-0.35  N 
ATOM      5 H    HIS D  12      17.988   4.501  62.674  1.00 49.28 LIG 0.16  HD
BRANCH 4 6
ATOM      6  CA  HIS D  12      17.204   3.667  61.056  1.00 50.49 LIG 0.18  C 
BRANCH 6 7
ATOM      7  C   HIS D  12      15.816   4.214  61.383  1.00 51.38 LIG 0.24  C 
ATOM      8  N   ILE D  13      14.817   3.528  60.851  1.00 53.16 LIG-0.34  N 
ATOM      9 H    ILE D  13      14.961   2.851  60.341  1.00 53.16 LIG 0.16  HD
ATOM     10 O    HIS D  12      15.672   5.201  62.089  1.00 51.57 LIG-0.27  OA
BRANCH 8 11
ATOM     11  CA  ILE D  13      13.379   3.788  61.030  1.00 55.12 LIG 0.19  C 
BRANCH 11 12
ATOM     12  CB  ILE D  13      12.920   3.806  62.533  1.00 55.01 LIG 0.01  C 
ATOM     13  CG2 ILE D  13      12.096   5.057  62.891  1.00 56.15 LIG 0.01  C 
BRANCH 12 14
ATOM     14  CG1 ILE D  13      12.139   2.529  62.859  1.00 55.50 LIG 0.00  C 
ATOM     15  CD1 ILE D  13      10.635   2.762  63.167  1.00 55.45 LIG 0.01  C 
ENDBRANCH 12 14
ENDBRANCH 11 12
BRANCH 11 16
ATOM     16  C   ILE D  13      12.719   4.893  60.199  1.00 55.63 LIG 0.20  C 
ATOM     17 O    ILE D  13      13.391   5.780  59.667  1.00 56.94 LIG-0.65  OA
ATOM     18 OXT  ILE D  13      11.484   4.881  60.101  1.00 55.86 LIG-0.65  OA
ENDBRANCH 11 16
ENDBRANCH 8 11
ENDBRANCH 6 7
BRANCH 6 19
ATOM     19  CB  HIS D  12      17.218   2.144  61.201  1.00 50.55 LIG 0.10  C 
BRANCH 19 20
ATOM     20  CG  HIS D  12      17.319   1.674  62.618  1.00 49.61 LIG 0.06  A 
ATOM     21  CD2 HIS D  12      16.725   0.641  63.261  1.00 48.49 LIG 0.14  A 
ATOM     22 NE2  HIS D  12      17.174   0.660  64.558  1.00 48.62 LIG-0.25  NA
ATOM     23  CE1 HIS D  12      18.032   1.653  64.701  1.00 49.12 LIG 0.23  A 
ATOM     24 ND1  HIS D  12      18.134   2.284  63.546  1.00 49.92 LIG-0.24  NA
ENDBRANCH 19 20
ENDBRANCH 6 19
ENDBRANCH 4 6
ENDBRANCH 1 2
BRANCH 1 25
ATOM     25  CB  LEU D  11      21.759   4.436  62.275  1.00 47.69 LIG 0.04  C 
BRANCH 25 26
ATOM     26  CG  LEU D  11      22.752   4.724  61.142  1.00 48.05 LIG-0.02  C 
ATOM     27  CD1 LEU D  11      22.500   3.782  59.973  1.00 46.53 LIG 0.01  C 
ATOM     28  CD2 LEU D  11      22.720   6.165  60.689  1.00 50.43 LIG 0.01  C 
ENDBRANCH 25 26
ENDBRANCH 1 25
BRANCH 1 29
ATOM     29  N   LEU D  11      19.977   5.288  63.697  1.00 47.51 LIG-0.35  N 
ATOM     30  C   LEU D  10      19.640   6.442  64.274  1.00 47.80 LIG 0.24  C 
ATOM     31 O    LEU D  10      19.614   7.529  63.678  1.00 47.07 LIG-0.27  OA
ATOM     32 H    LEU D  11      19.942   4.530  64.102  1.00 47.51 LIG 0.16  HD
BRANCH 30 33
ATOM     33  CA  LEU D  10      19.285   6.358  65.753  1.00 47.63 LIG 0.18  C 
BRANCH 33 34
ATOM     34  CB  LEU D  10      18.002   5.561  65.967  1.00 47.29 LIG 0.04  C 
BRANCH 34 35
ATOM     35  CG  LEU D  10      18.167   4.359  66.904  1.00 46.92 LIG-0.02  C 
ATOM     36  CD1 LEU D  10      19.635   4.058  67.196  1.00 46.83 LIG 0.01  C 
ATOM     37  CD2 LEU D  10      17.441   4.571  68.191  1.00 45.50 LIG 0.01  C 
ENDBRANCH 34 35
ENDBRANCH 33 34
BRANCH 33 38
ATOM     38  N   LEU D  10      19.194   7.694  66.318  1.00 47.82 LIG-0.35  N 
ATOM     39 H    LEU D  10      18.400   8.024  66.341  1.00 47.82 LIG 0.16  HD
ATOM     40  C   ASP D   9      20.281   8.318  66.753  1.00 48.63 LIG 0.26  C 
ATOM     41 O    ASP D   9      21.407   7.830  66.697  1.00 48.10 LIG-0.27  OA
BRANCH 40 42
ATOM     42  CA  ASP D   9      20.067   9.695  67.325  1.00 49.27 LIG 0.41  C 
ATOM     43  N   ASP D   9      19.283   9.544  68.578  1.00 49.86 LIG 0.61  N 
BRANCH 42 44
ATOM     44  CB  ASP D   9      21.423  10.323  67.614  1.00 50.02 LIG 0.16  C 
BRANCH 44 45
ATOM     45  CG  ASP D   9      21.482  10.982  68.960  1.00 50.84 LIG 0.17  C 
ATOM     46 OD1  ASP D   9      20.554  11.742  69.287  1.00 53.44 LIG-0.65  OA
ATOM     47 OD2  ASP D   9      22.407  10.779  69.778  1.00 53.75 LIG-0.65  OA
ENDBRANCH 44 45
ENDBRANCH 42 44
ENDBRANCH 40 42
ENDBRANCH 33 38
ENDBRANCH 30 33
ENDBRANCH 1 29
TORSDOF 19
ENDMDL
