MODEL 1
USER: ADFR SOLUTION from run 17
USER: SCORE 19.362773 LL:  -7.141 LR: -14.959 RR:   0.000 FEB:  -7.501
USER: RMSD 1.454020
USER: SEED 16
USER: STATUS no improvement in best in 3 clusters for 5 generations
USER: GENES 27
USER: genes 0 Translation |==|  0.53065 0.44484 0.57551
USER: genes 1 Rotation |==|  0.50895 0.44617 0.55278 0.99420
USER: genes 2 Torsion [CB]-CA--N-[C] |==|  0.34095
USER: genes 3 Torsion [N]-C--CA-[N] |==|  0.89025
USER: genes 4 Torsion [C]-CA--CB-[CG] |==|  0.26321
USER: genes 5 Torsion [CA]-CB--CG-[CD] |==|  0.65270
USER: genes 6 Torsion [CB]-CG--CD-[NE2] |==|  0.31376
USER: genes 7 Torsion [C]-CA--N-[C] |==|  0.83472
USER: genes 8 Torsion [N]-C--CA-[N] |==|  0.92449
USER: genes 9 Torsion [N]-C--CA-[N] |==|  0.40582
USER: genes 10 Torsion [C]-CA--CB-[CG] |==|  0.17844
USER: genes 11 Torsion [CA]-CB--CG-[CD2] |==|  0.24201
USER: genes 12 Torsion [N]-CA--C-[N] |==|  0.00971
USER: genes 13 Torsion [C]-N--CA-[CB] |==|  0.45556
USER: genes 14 Torsion [N]-CA--CB-[CG] |==|  0.14562
USER: genes 15 Torsion [CA]-CB--CG-[CD] |==|  0.35160
USER: genes 16 Torsion [CB]-CG--CD-[OE1] |==|  0.63771
USER: genes 17 Torsion [N]-CA--C-[N] |==|  0.42804
USER: genes 18 Torsion [C]-N--CA-[CB] |==|  0.35142
USER: genes 19 Torsion [N]-CA--C-[O] |==|  0.57045
USER: genes 20 Torsion [N]-CA--CB-[CG] |==|  0.97076
USER: genes 21 Torsion [CA]-CB--CG-[CD] |==|  0.80953
USER: genes 22 Torsion [CB]-CG--CD-[CE] |==|  0.74847
USER: genes 23 Torsion [CG]-CD--CE-[NZ] |==|  0.35492
USER: genes 24 Torsion [CD]-CE--NZ-[HZ3] |==|  0.03176
USER: genes 25 Torsion [N]-CA--CB-[CG] |==|  0.96532
USER: genes 26 Torsion [CA]-CB--CG-[CD1] |==|  0.71231
ROOT
ATOM      1  CA  PHE G   7      -1.713   5.083   1.446  1.00 26.45 LIG 0.18  C 
ENDROOT
BRANCH 1 2
ATOM      2  N   PHE G   7      -1.362   3.702   1.183  1.00 22.76 LIG-0.35  N 
ATOM      3  C   GLN G   6      -1.963   2.694   1.812  1.00 25.23 LIG 0.24  C 
ATOM      4 O    GLN G   6      -2.949   2.787   2.538  1.00 25.88 LIG-0.27  OA
ATOM      5 H    PHE G   7      -0.742   3.599   0.595  1.00 22.76 LIG 0.16  HD
BRANCH 3 6
ATOM      6  CA  GLN G   6      -1.374   1.329   1.580  1.00 22.93 LIG 0.18  C 
BRANCH 6 7
ATOM      7  CB  GLN G   6      -0.205   1.105   2.545  1.00 23.17 LIG 0.04  C 
BRANCH 7 8
ATOM      8  CG  GLN G   6      -0.625   0.370   3.816  1.00 21.39 LIG 0.10  C 
BRANCH 8 9
ATOM      9  CD  GLN G   6      -0.271   1.099   5.143  1.00 22.17 LIG 0.21  C 
ATOM     10  NE2 GLN G   6      -1.297   1.529   5.847  1.00 17.24 LIG-0.37  N 
ATOM     11 21HE GLN G   6      -2.094   1.461   5.532  1.00 17.24 LIG 0.16  HD
ATOM     12 22HE GLN G   6      -1.170   1.878   6.623  1.00 17.24 LIG 0.16  HD
ATOM     13 OE1  GLN G   6       0.921   1.190   5.593  1.00 25.29 LIG-0.27  OA
ENDBRANCH 8 9
ENDBRANCH 7 8
ENDBRANCH 6 7
BRANCH 6 14
ATOM     14  N   GLN G   6      -0.972   1.176   0.195  1.00 22.68 LIG-0.35  N 
ATOM     15  C   PRO G   5      -1.873   1.297  -0.771  1.00 24.61 LIG 0.24  C 
ATOM     16 O    PRO G   5      -3.080   1.502  -0.582  1.00 25.71 LIG-0.27  OA
ATOM     17 H    GLN G   6      -0.138   1.008   0.070  1.00 22.68 LIG 0.16  HD
BRANCH 15 18
ATOM     18  CA  PRO G   5      -1.408   1.076  -2.183  1.00 27.09 LIG 0.18  C 
ATOM     19  CB  PRO G   5      -1.587  -0.415  -2.524  1.00 27.99 LIG 0.04  C 
ATOM     20  CG  PRO G   5      -0.353  -0.788  -3.119  1.00 29.73 LIG 0.02  C 
ATOM     21  CD  PRO G   5       0.728   0.234  -3.053  1.00 26.76 LIG 0.13  C 
ATOM     22  N   PRO G   5      -0.001   1.352  -2.451  1.00 24.34 LIG-0.34  N 
ATOM     23  C   HIS G   4       0.521   2.544  -2.153  1.00 27.57 LIG 0.26  C 
ATOM     24 O    HIS G   4      -0.130   3.415  -1.592  1.00 27.10 LIG-0.27  OA
BRANCH 23 25
ATOM     25  CA  HIS G   4       1.966   2.848  -2.487  1.00 26.03 LIG 0.41  C 
ATOM     26  N   HIS G   4       1.872   4.340  -2.817  1.00 28.06 LIG 0.61  N 
BRANCH 25 27
ATOM     27  CB  HIS G   4       2.876   2.508  -1.306  1.00 24.96 LIG 0.11  C 
BRANCH 27 28
ATOM     28  CG  HIS G   4       2.859   1.037  -1.012  1.00 22.46 LIG 0.06  A 
ATOM     29  CD2 HIS G   4       3.596   0.020  -1.517  1.00 23.95 LIG 0.14  A 
ATOM     30 NE2  HIS G   4       3.178  -1.129  -0.891  1.00 25.16 LIG-0.25  NA
ATOM     31  CE1 HIS G   4       2.233  -0.806  -0.029  1.00 26.12 LIG 0.23  A 
ATOM     32 ND1  HIS G   4       1.996   0.495  -0.081  1.00 23.55 LIG-0.24  NA
ENDBRANCH 27 28
ENDBRANCH 25 27
ENDBRANCH 23 25
ENDBRANCH 15 18
ENDBRANCH 6 14
ENDBRANCH 3 6
ENDBRANCH 1 2
BRANCH 1 33
ATOM     33  C   PHE G   7      -2.316   5.819   0.269  1.00 26.79 LIG 0.24  C 
ATOM     34  N   GLU G   8      -2.522   5.118  -0.838  1.00 28.87 LIG-0.35  N 
ATOM     35 H    GLU G   8      -2.422   4.268  -0.921  1.00 28.87 LIG 0.16  HD
ATOM     36 O    PHE G   7      -2.545   7.016   0.368  1.00 31.74 LIG-0.27  OA
BRANCH 34 37
ATOM     37  CA  GLU G   8      -2.964   5.841  -2.045  1.00 32.81 LIG 0.18  C 
BRANCH 37 38
ATOM     38  CB  GLU G   8      -2.770   4.981  -3.261  1.00 32.33 LIG 0.04  C 
BRANCH 38 39
ATOM     39  CG  GLU G   8      -3.393   3.617  -3.132  1.00 32.73 LIG 0.12  C 
BRANCH 39 40
ATOM     40  CD  GLU G   8      -4.316   3.359  -4.320  1.00 35.15 LIG 0.17  C 
ATOM     41 OE1  GLU G   8      -5.486   2.945  -4.096  1.00 38.54 LIG-0.65  OA
ATOM     42 OE2  GLU G   8      -3.877   3.604  -5.470  1.00 38.35 LIG-0.65  OA
ENDBRANCH 39 40
ENDBRANCH 38 39
ENDBRANCH 37 38
BRANCH 37 43
ATOM     43  C   GLU G   8      -4.417   6.247  -1.964  1.00 36.20 LIG 0.24  C 
ATOM     44  N   LYS G   9      -4.812   7.302  -2.669  1.00 41.18 LIG-0.35  N 
ATOM     45 H    LYS G   9      -4.306   7.756  -3.196  1.00 41.18 LIG 0.16  HD
ATOM     46 O    GLU G   8      -5.186   5.620  -1.253  1.00 35.28 LIG-0.27  OA
BRANCH 44 47
ATOM     47  CA  LYS G   9      -6.202   7.773  -2.582  1.00 46.03 LIG 0.16  C 
BRANCH 47 48
ATOM     48  C   LYS G   9      -6.942   7.492  -3.906  1.00 47.77 LIG 0.22  C 
ATOM     49 O    LYS G   9      -7.913   8.187  -4.225  1.00 48.68 LIG-0.29  OA
ENDBRANCH 47 48
BRANCH 47 50
ATOM     50  CB  LYS G   9      -6.226   9.271  -2.227  1.00 48.34 LIG 0.03  C 
BRANCH 50 51
ATOM     51  CG  LYS G   9      -4.858   9.821  -1.808  1.00 50.79 LIG 0.00  C 
BRANCH 51 52
ATOM     52  CD  LYS G   9      -4.288   9.328  -0.472  1.00 52.72 LIG 0.03  C 
BRANCH 52 53
ATOM     53  CE  LYS G   9      -4.697  10.227   0.714  1.00 54.14 LIG 0.23  C 
BRANCH 53 54
ATOM     54  NZ  LYS G   9      -5.324   9.542   1.905  1.00 55.34 LIG-0.08  N 
ATOM     55 HZ3  LYS G   9      -5.226   8.661   1.828  1.00 55.34 LIG 0.27  HD
ATOM     56 HZ1  LYS G   9      -4.926   9.820   2.650  1.00 55.34 LIG 0.27  HD
ATOM     57 HZ2  LYS G   9      -6.190   9.742   1.939  1.00 55.34 LIG 0.27  HD
ENDBRANCH 53 54
ENDBRANCH 52 53
ENDBRANCH 51 52
ENDBRANCH 50 51
ENDBRANCH 47 50
ENDBRANCH 44 47
ENDBRANCH 37 43
ENDBRANCH 34 37
ENDBRANCH 1 33
BRANCH 1 58
ATOM     58  CB  PHE G   7      -0.419   5.773   1.885  1.00 27.87 LIG 0.07  C 
BRANCH 58 59
ATOM     59  CG  PHE G   7       0.649   4.736   2.179  1.00 29.51 LIG-0.06  A 
ATOM     60  CD2 PHE G   7       1.471   4.084   1.302  1.00 31.96 LIG 0.01  A 
ATOM     61  CE2 PHE G   7       2.403   3.171   1.821  1.00 32.27 LIG 0.00  A 
ATOM     62  CZ  PHE G   7       2.530   3.017   3.193  1.00 29.14 LIG 0.00  A 
ATOM     63  CE1 PHE G   7       1.762   3.685   4.021  1.00 32.29 LIG 0.00  A 
ATOM     64  CD1 PHE G   7       0.834   4.548   3.511  1.00 29.45 LIG 0.01  A 
ENDBRANCH 58 59
ENDBRANCH 1 58
TORSDOF 25
ENDMDL
MODEL 2
USER: ADFR SOLUTION from run 17
USER: SCORE 18.578935 LL:  -7.365 LR: -14.657 RR:   0.000 FEB:  -7.200
USER: RMSD 2.297639
USER: SEED 16
USER: STATUS no improvement in best in 3 clusters for 5 generations
USER: GENES 27
USER: genes 0 Translation |==|  0.56553 0.44180 0.54094
USER: genes 1 Rotation |==|  0.49582 0.50963 0.51406 0.99969
USER: genes 2 Torsion [CB]-CA--N-[C] |==|  0.35355
USER: genes 3 Torsion [N]-C--CA-[N] |==|  0.90852
USER: genes 4 Torsion [C]-CA--CB-[CG] |==|  0.19615
USER: genes 5 Torsion [CA]-CB--CG-[CD] |==|  0.53805
USER: genes 6 Torsion [CB]-CG--CD-[NE2] |==|  0.86798
USER: genes 7 Torsion [C]-CA--N-[C] |==|  0.84015
USER: genes 8 Torsion [N]-C--CA-[N] |==|  0.90055
USER: genes 9 Torsion [N]-C--CA-[N] |==|  0.37985
USER: genes 10 Torsion [C]-CA--CB-[CG] |==|  0.18547
USER: genes 11 Torsion [CA]-CB--CG-[CD2] |==|  0.26115
USER: genes 12 Torsion [N]-CA--C-[N] |==|  0.11534
USER: genes 13 Torsion [C]-N--CA-[CB] |==|  0.43867
USER: genes 14 Torsion [N]-CA--CB-[CG] |==|  0.58531
USER: genes 15 Torsion [CA]-CB--CG-[CD] |==|  0.40767
USER: genes 16 Torsion [CB]-CG--CD-[OE1] |==|  0.12054
USER: genes 17 Torsion [N]-CA--C-[N] |==|  0.11490
USER: genes 18 Torsion [C]-N--CA-[CB] |==|  0.37912
USER: genes 19 Torsion [N]-CA--C-[O] |==|  0.02939
USER: genes 20 Torsion [N]-CA--CB-[CG] |==|  0.98166
USER: genes 21 Torsion [CA]-CB--CG-[CD] |==|  0.77399
USER: genes 22 Torsion [CB]-CG--CD-[CE] |==|  0.50223
USER: genes 23 Torsion [CG]-CD--CE-[NZ] |==|  0.34480
USER: genes 24 Torsion [CD]-CE--NZ-[HZ3] |==|  0.35851
USER: genes 25 Torsion [N]-CA--CB-[CG] |==|  0.90269
USER: genes 26 Torsion [CA]-CB--CG-[CD1] |==|  0.75465
ROOT
ATOM      1  CA  PHE G   7      -1.033   5.012   0.798  1.00 26.45 LIG 0.18  C 
ENDROOT
BRANCH 1 2
ATOM      2  N   PHE G   7      -0.966   3.583   0.570  1.00 22.76 LIG-0.35  N 
ATOM      3  C   GLN G   6      -1.604   2.717   1.356  1.00 25.23 LIG 0.24  C 
ATOM      4 O    GLN G   6      -2.418   3.007   2.230  1.00 25.88 LIG-0.27  OA
ATOM      5 H    PHE G   7      -0.486   3.353  -0.105  1.00 22.76 LIG 0.16  HD
BRANCH 3 6
ATOM      6  CA  GLN G   6      -1.299   1.264   1.118  1.00 22.93 LIG 0.18  C 
BRANCH 6 7
ATOM      7  CB  GLN G   6      -0.131   0.833   2.012  1.00 23.17 LIG 0.04  C 
BRANCH 7 8
ATOM      8  CG  GLN G   6      -0.515   0.764   3.488  1.00 21.39 LIG 0.10  C 
BRANCH 8 9
ATOM      9  CD  GLN G   6       0.684   0.662   4.474  1.00 22.17 LIG 0.21  C 
ATOM     10  NE2 GLN G   6       1.600  -0.233   4.166  1.00 17.24 LIG-0.37  N 
ATOM     11 21HE GLN G   6       1.478  -0.761   3.498  1.00 17.24 LIG 0.16  HD
ATOM     12 22HE GLN G   6       2.320  -0.289   4.633  1.00 17.24 LIG 0.16  HD
ATOM     13 OE1  GLN G   6       0.845   1.456   5.461  1.00 25.29 LIG-0.27  OA
ENDBRANCH 8 9
ENDBRANCH 7 8
ENDBRANCH 6 7
BRANCH 6 14
ATOM     14  N   GLN G   6      -1.028   1.023  -0.286  1.00 22.68 LIG-0.35  N 
ATOM     15  C   PRO G   5      -1.937   1.338  -1.198  1.00 24.61 LIG 0.24  C 
ATOM     16 O    PRO G   5      -3.055   1.805  -0.940  1.00 25.71 LIG-0.27  OA
ATOM     17 H    GLN G   6      -0.260   0.675  -0.457  1.00 22.68 LIG 0.16  HD
BRANCH 15 18
ATOM     18  CA  PRO G   5      -1.620   1.017  -2.632  1.00 27.09 LIG 0.18  C 
ATOM     19  CB  PRO G   5      -1.944  -0.468  -2.878  1.00 27.99 LIG 0.04  C 
ATOM     20  CG  PRO G   5      -0.802  -0.967  -3.558  1.00 29.73 LIG 0.02  C 
ATOM     21  CD  PRO G   5       0.357  -0.035  -3.638  1.00 26.76 LIG 0.13  C 
ATOM     22  N   PRO G   5      -0.226   1.165  -3.034  1.00 24.34 LIG-0.34  N 
ATOM     23  C   HIS G   4       0.411   2.322  -2.844  1.00 27.57 LIG 0.26  C 
ATOM     24 O    HIS G   4      -0.117   3.268  -2.275  1.00 27.10 LIG-0.27  OA
BRANCH 23 25
ATOM     25  CA  HIS G   4       1.840   2.492  -3.318  1.00 26.03 LIG 0.41  C 
ATOM     26  N   HIS G   4       1.768   3.890  -3.938  1.00 28.06 LIG 0.61  N 
BRANCH 25 27
ATOM     27  CB  HIS G   4       2.815   2.358  -2.148  1.00 24.96 LIG 0.11  C 
BRANCH 27 28
ATOM     28  CG  HIS G   4       2.819   0.961  -1.600  1.00 22.46 LIG 0.06  A 
ATOM     29  CD2 HIS G   4       3.613  -0.100  -1.875  1.00 23.95 LIG 0.14  A 
ATOM     30 NE2  HIS G   4       3.188  -1.137  -1.081  1.00 25.16 LIG-0.25  NA
ATOM     31  CE1 HIS G   4       2.183  -0.703  -0.344  1.00 26.12 LIG 0.23  A 
ATOM     32 ND1  HIS G   4       1.915   0.559  -0.638  1.00 23.55 LIG-0.24  NA
ENDBRANCH 27 28
ENDBRANCH 25 27
ENDBRANCH 23 25
ENDBRANCH 15 18
ENDBRANCH 6 14
ENDBRANCH 3 6
ENDBRANCH 1 2
BRANCH 1 33
ATOM     33  C   PHE G   7      -1.798   5.787  -0.254  1.00 26.79 LIG 0.24  C 
ATOM     34  N   GLU G   8      -2.924   5.246  -0.699  1.00 28.87 LIG-0.35  N 
ATOM     35 H    GLU G   8      -3.300   4.538  -0.386  1.00 28.87 LIG 0.16  HD
ATOM     36 O    PHE G   7      -1.338   6.838  -0.673  1.00 31.74 LIG-0.27  OA
BRANCH 34 37
ATOM     37  CA  GLU G   8      -3.610   5.900  -1.829  1.00 32.81 LIG 0.18  C 
BRANCH 37 38
ATOM     38  CB  GLU G   8      -4.506   4.918  -2.527  1.00 32.33 LIG 0.04  C 
BRANCH 38 39
ATOM     39  CG  GLU G   8      -4.659   5.191  -3.999  1.00 32.73 LIG 0.12  C 
BRANCH 39 40
ATOM     40  CD  GLU G   8      -4.819   3.874  -4.753  1.00 35.15 LIG 0.17  C 
ATOM     41 OE1  GLU G   8      -5.580   2.991  -4.269  1.00 38.54 LIG-0.65  OA
ATOM     42 OE2  GLU G   8      -4.208   3.740  -5.840  1.00 38.35 LIG-0.65  OA
ENDBRANCH 39 40
ENDBRANCH 38 39
ENDBRANCH 37 38
BRANCH 37 43
ATOM     43  C   GLU G   8      -4.438   7.082  -1.382  1.00 36.20 LIG 0.24  C 
ATOM     44  N   LYS G   9      -3.924   7.895  -0.465  1.00 41.18 LIG-0.35  N 
ATOM     45 H    LYS G   9      -3.137   7.815  -0.126  1.00 41.18 LIG 0.16  HD
ATOM     46 O    GLU G   8      -5.551   7.259  -1.851  1.00 35.28 LIG-0.27  OA
BRANCH 44 47
ATOM     47  CA  LYS G   9      -4.710   9.027   0.046  1.00 46.03 LIG 0.16  C 
BRANCH 47 48
ATOM     48  C   LYS G   9      -4.272  10.334  -0.647  1.00 47.77 LIG 0.22  C 
ATOM     49 O    LYS G   9      -3.522  10.287  -1.628  1.00 48.68 LIG-0.29  OA
ENDBRANCH 47 48
BRANCH 47 50
ATOM     50  CB  LYS G   9      -4.561   9.121   1.576  1.00 48.34 LIG 0.03  C 
BRANCH 50 51
ATOM     51  CG  LYS G   9      -3.787   7.947   2.186  1.00 50.79 LIG 0.00  C 
BRANCH 51 52
ATOM     52  CD  LYS G   9      -4.567   6.649   2.431  1.00 52.72 LIG 0.03  C 
BRANCH 52 53
ATOM     53  CE  LYS G   9      -3.694   5.546   3.065  1.00 54.14 LIG 0.23  C 
BRANCH 53 54
ATOM     54  NZ  LYS G   9      -4.182   4.950   4.364  1.00 55.34 LIG-0.08  N 
ATOM     55 HZ3  LYS G   9      -4.187   4.063   4.301  1.00 55.34 LIG 0.27  HD
ATOM     56 HZ1  LYS G   9      -3.641   5.197   5.025  1.00 55.34 LIG 0.27  HD
ATOM     57 HZ2  LYS G   9      -5.006   5.240   4.532  1.00 55.34 LIG 0.27  HD
ENDBRANCH 53 54
ENDBRANCH 52 53
ENDBRANCH 51 52
ENDBRANCH 50 51
ENDBRANCH 47 50
ENDBRANCH 44 47
ENDBRANCH 37 43
ENDBRANCH 34 37
ENDBRANCH 1 33
BRANCH 1 58
ATOM     58  CB  PHE G   7       0.417   5.501   0.852  1.00 27.87 LIG 0.07  C 
BRANCH 58 59
ATOM     59  CG  PHE G   7       1.297   4.447   1.500  1.00 29.51 LIG-0.06  A 
ATOM     60  CD2 PHE G   7       2.077   3.499   0.899  1.00 31.96 LIG 0.01  A 
ATOM     61  CE2 PHE G   7       2.824   2.638   1.718  1.00 32.27 LIG 0.00  A 
ATOM     62  CZ  PHE G   7       2.824   2.820   3.093  1.00 29.14 LIG 0.00  A 
ATOM     63  CE1 PHE G   7       2.103   3.764   3.649  1.00 32.29 LIG 0.00  A 
ATOM     64  CD1 PHE G   7       1.352   4.579   2.850  1.00 29.45 LIG 0.01  A 
ENDBRANCH 58 59
ENDBRANCH 1 58
TORSDOF 25
ENDMDL
MODEL 3
USER: ADFR SOLUTION from run 93
USER: SCORE 19.677145 LL:  -7.295 LR: -14.590 RR:   0.000 FEB:  -7.133
USER: RMSD 2.997992
USER: SEED 92
USER: STATUS no improvement in best in 5 clusters for 5 generations
USER: GENES 27
USER: genes 0 Translation |==|  0.49008 0.44161 0.59721
USER: genes 1 Rotation |==|  0.48912 0.42312 0.55556 0.99080
USER: genes 2 Torsion [CB]-CA--N-[C] |==|  0.42195
USER: genes 3 Torsion [N]-C--CA-[N] |==|  0.91129
USER: genes 4 Torsion [C]-CA--CB-[CG] |==|  0.71356
USER: genes 5 Torsion [CA]-CB--CG-[CD] |==|  0.41691
USER: genes 6 Torsion [CB]-CG--CD-[NE2] |==|  0.98590
USER: genes 7 Torsion [C]-CA--N-[C] |==|  0.79139
USER: genes 8 Torsion [N]-C--CA-[N] |==|  0.86022
USER: genes 9 Torsion [N]-C--CA-[N] |==|  0.37199
USER: genes 10 Torsion [C]-CA--CB-[CG] |==|  0.21357
USER: genes 11 Torsion [CA]-CB--CG-[CD2] |==|  0.33151
USER: genes 12 Torsion [N]-CA--C-[N] |==|  0.96491
USER: genes 13 Torsion [C]-N--CA-[CB] |==|  0.48131
USER: genes 14 Torsion [N]-CA--CB-[CG] |==|  0.16013
USER: genes 15 Torsion [CA]-CB--CG-[CD] |==|  0.32374
USER: genes 16 Torsion [CB]-CG--CD-[OE1] |==|  0.16664
USER: genes 17 Torsion [N]-CA--C-[N] |==|  0.44164
USER: genes 18 Torsion [C]-N--CA-[CB] |==|  0.28806
USER: genes 19 Torsion [N]-CA--C-[O] |==|  0.74438
USER: genes 20 Torsion [N]-CA--CB-[CG] |==|  0.05799
USER: genes 21 Torsion [CA]-CB--CG-[CD] |==|  0.73678
USER: genes 22 Torsion [CB]-CG--CD-[CE] |==|  0.81706
USER: genes 23 Torsion [CG]-CD--CE-[NZ] |==|  0.45581
USER: genes 24 Torsion [CD]-CE--NZ-[HZ3] |==|  0.06418
USER: genes 25 Torsion [N]-CA--CB-[CG] |==|  0.82140
USER: genes 26 Torsion [CA]-CB--CG-[CD1] |==|  0.91109
ROOT
ATOM      1  CA  PHE G   7      -2.504   5.008   1.853  1.00 26.45 LIG 0.18  C 
ENDROOT
BRANCH 1 2
ATOM      2  N   PHE G   7      -2.130   3.614   1.723  1.00 22.76 LIG-0.35  N 
ATOM      3  C   GLN G   6      -3.025   2.634   1.836  1.00 25.23 LIG 0.24  C 
ATOM      4 O    GLN G   6      -4.243   2.779   1.901  1.00 25.88 LIG-0.27  OA
ATOM      5 H    PHE G   7      -1.294   3.484   1.570  1.00 22.76 LIG 0.16  HD
BRANCH 3 6
ATOM      6  CA  GLN G   6      -2.469   1.237   1.865  1.00 22.93 LIG 0.18  C 
BRANCH 6 7
ATOM      7  CB  GLN G   6      -2.224   0.813   3.317  1.00 23.17 LIG 0.04  C 
BRANCH 7 8
ATOM      8  CG  GLN G   6      -0.749   0.871   3.705  1.00 21.39 LIG 0.10  C 
BRANCH 8 9
ATOM      9  CD  GLN G   6      -0.477   1.177   5.206  1.00 22.17 LIG 0.21  C 
ATOM     10  NE2 GLN G   6      -1.540   1.451   5.933  1.00 17.24 LIG-0.37  N 
ATOM     11 21HE GLN G   6      -2.311   1.519   5.559  1.00 17.24 LIG 0.16  HD
ATOM     12 22HE GLN G   6      -1.463   1.560   6.783  1.00 17.24 LIG 0.16  HD
ATOM     13 OE1  GLN G   6       0.678   1.070   5.741  1.00 25.29 LIG-0.27  OA
ENDBRANCH 8 9
ENDBRANCH 7 8
ENDBRANCH 6 7
BRANCH 6 14
ATOM     14  N   GLN G   6      -1.266   1.149   1.061  1.00 22.68 LIG-0.35  N 
ATOM     15  C   PRO G   5      -1.355   1.135  -0.262  1.00 24.61 LIG 0.24  C 
ATOM     16 O    PRO G   5      -2.421   1.154  -0.893  1.00 25.71 LIG-0.27  OA
ATOM     17 H    GLN G   6      -0.530   1.111   1.505  1.00 22.68 LIG 0.16  HD
BRANCH 15 18
ATOM     18  CA  PRO G   5      -0.077   0.990  -1.040  1.00 27.09 LIG 0.18  C 
ATOM     19  CB  PRO G   5       0.489  -0.418  -0.784  1.00 27.99 LIG 0.04  C 
ATOM     20  CG  PRO G   5       1.862  -0.197  -0.495  1.00 29.73 LIG 0.02  C 
ATOM     21  CD  PRO G   5       2.263   1.228  -0.336  1.00 26.76 LIG 0.13  C 
ATOM     22  N   PRO G   5       1.006   1.898  -0.678  1.00 24.34 LIG-0.34  N 
ATOM     23  C   HIS G   4       0.809   3.218  -0.678  1.00 27.57 LIG 0.26  C 
ATOM     24 O    HIS G   4      -0.286   3.710  -0.914  1.00 27.10 LIG-0.27  OA
BRANCH 23 25
ATOM     25  CA  HIS G   4       1.952   4.159  -0.360  1.00 26.03 LIG 0.41  C 
ATOM     26  N   HIS G   4       1.789   5.190  -1.480  1.00 28.06 LIG 0.61  N 
BRANCH 25 27
ATOM     27  CB  HIS G   4       1.811   4.720   1.055  1.00 24.96 LIG 0.11  C 
BRANCH 27 28
ATOM     28  CG  HIS G   4       2.218   3.709   2.085  1.00 22.46 LIG 0.06  A 
ATOM     29  CD2 HIS G   4       3.193   3.738   3.023  1.00 23.95 LIG 0.14  A 
ATOM     30 NE2  HIS G   4       3.125   2.551   3.711  1.00 25.16 LIG-0.25  NA
ATOM     31  CE1 HIS G   4       2.131   1.843   3.210  1.00 26.12 LIG 0.23  A 
ATOM     32 ND1  HIS G   4       1.564   2.500   2.211  1.00 23.55 LIG-0.24  NA
ENDBRANCH 27 28
ENDBRANCH 25 27
ENDBRANCH 23 25
ENDBRANCH 15 18
ENDBRANCH 6 14
ENDBRANCH 3 6
ENDBRANCH 1 2
BRANCH 1 33
ATOM     33  C   PHE G   7      -2.984   5.657   0.572  1.00 26.79 LIG 0.24  C 
ATOM     34  N   GLU G   8      -2.772   4.993  -0.555  1.00 28.87 LIG-0.35  N 
ATOM     35 H    GLU G   8      -2.462   4.193  -0.617  1.00 28.87 LIG 0.16  HD
ATOM     36 O    PHE G   7      -3.500   6.764   0.622  1.00 31.74 LIG-0.27  OA
BRANCH 34 37
ATOM     37  CA  GLU G   8      -3.089   5.667  -1.829  1.00 32.81 LIG 0.18  C 
BRANCH 37 38
ATOM     38  CB  GLU G   8      -2.631   4.825  -2.985  1.00 32.33 LIG 0.04  C 
BRANCH 38 39
ATOM     39  CG  GLU G   8      -3.236   3.447  -2.997  1.00 32.73 LIG 0.12  C 
BRANCH 39 40
ATOM     40  CD  GLU G   8      -4.099   3.275  -4.243  1.00 35.15 LIG 0.17  C 
ATOM     41 OE1  GLU G   8      -3.554   3.393  -5.374  1.00 38.54 LIG-0.65  OA
ATOM     42 OE2  GLU G   8      -5.311   2.990  -4.085  1.00 38.35 LIG-0.65  OA
ENDBRANCH 39 40
ENDBRANCH 38 39
ENDBRANCH 37 38
BRANCH 37 43
ATOM     43  C   GLU G   8      -4.569   5.933  -1.976  1.00 36.20 LIG 0.24  C 
ATOM     44  N   LYS G   9      -4.952   6.879  -2.828  1.00 41.18 LIG-0.35  N 
ATOM     45 H    LYS G   9      -4.419   7.333  -3.327  1.00 41.18 LIG 0.16  HD
ATOM     46 O    GLU G   8      -5.372   5.297  -1.312  1.00 35.28 LIG-0.27  OA
BRANCH 44 47
ATOM     47  CA  LYS G   9      -6.376   7.216  -2.969  1.00 46.03 LIG 0.16  C 
BRANCH 47 48
ATOM     48  C   LYS G   9      -6.760   7.292  -4.460  1.00 47.77 LIG 0.22  C 
ATOM     49 O    LYS G   9      -6.700   8.373  -5.055  1.00 48.68 LIG-0.29  OA
ENDBRANCH 47 48
BRANCH 47 50
ATOM     50  CB  LYS G   9      -6.677   8.538  -2.239  1.00 48.34 LIG 0.03  C 
BRANCH 50 51
ATOM     51  CG  LYS G   9      -5.433   9.404  -2.011  1.00 50.79 LIG 0.00  C 
BRANCH 51 52
ATOM     52  CD  LYS G   9      -4.723   9.264  -0.658  1.00 52.72 LIG 0.03  C 
BRANCH 52 53
ATOM     53  CE  LYS G   9      -5.590   9.757   0.519  1.00 54.14 LIG 0.23  C 
BRANCH 53 54
ATOM     54  NZ  LYS G   9      -5.163   9.335   1.905  1.00 55.34 LIG-0.08  N 
ATOM     55 HZ3  LYS G   9      -4.295   9.137   1.901  1.00 55.34 LIG 0.27  HD
ATOM     56 HZ1  LYS G   9      -5.312  10.000   2.476  1.00 55.34 LIG 0.27  HD
ATOM     57 HZ2  LYS G   9      -5.630   8.620   2.154  1.00 55.34 LIG 0.27  HD
ENDBRANCH 53 54
ENDBRANCH 52 53
ENDBRANCH 51 52
ENDBRANCH 50 51
ENDBRANCH 47 50
ENDBRANCH 44 47
ENDBRANCH 37 43
ENDBRANCH 34 37
ENDBRANCH 1 33
BRANCH 1 58
ATOM     58  CB  PHE G   7      -1.260   5.734   2.371  1.00 27.87 LIG 0.07  C 
BRANCH 58 59
ATOM     59  CG  PHE G   7      -0.906   5.232   3.759  1.00 29.51 LIG-0.06  A 
ATOM     60  CD2 PHE G   7       0.316   5.208   4.371  1.00 31.96 LIG 0.01  A 
ATOM     61  CE2 PHE G   7       0.392   4.708   5.681  1.00 32.27 LIG 0.00  A 
ATOM     62  CZ  PHE G   7      -0.767   4.337   6.347  1.00 29.14 LIG 0.00  A 
ATOM     63  CE1 PHE G   7      -1.936   4.408   5.757  1.00 32.29 LIG 0.00  A 
ATOM     64  CD1 PHE G   7      -2.001   4.865   4.471  1.00 29.45 LIG 0.01  A 
ENDBRANCH 58 59
ENDBRANCH 1 58
TORSDOF 25
ENDMDL
MODEL 4
USER: ADFR SOLUTION from run 195
USER: SCORE 18.983865 LL:  -6.761 LR: -14.556 RR:   0.000 FEB:  -7.099
USER: RMSD 2.801810
USER: SEED 194
USER: STATUS no improvement in best in 3 clusters for 5 generations
USER: GENES 27
USER: genes 0 Translation |==|  0.48458 0.49700 0.53755
USER: genes 1 Rotation |==|  0.44539 0.50660 0.51707 0.99667
USER: genes 2 Torsion [CB]-CA--N-[C] |==|  0.45992
USER: genes 3 Torsion [N]-C--CA-[N] |==|  0.86820
USER: genes 4 Torsion [C]-CA--CB-[CG] |==|  0.14800
USER: genes 5 Torsion [CA]-CB--CG-[CD] |==|  0.57643
USER: genes 6 Torsion [CB]-CG--CD-[NE2] |==|  0.80422
USER: genes 7 Torsion [C]-CA--N-[C] |==|  0.86655
USER: genes 8 Torsion [N]-C--CA-[N] |==|  0.99194
USER: genes 9 Torsion [N]-C--CA-[N] |==|  0.20564
USER: genes 10 Torsion [C]-CA--CB-[CG] |==|  0.23201
USER: genes 11 Torsion [CA]-CB--CG-[CD2] |==|  0.89683
USER: genes 12 Torsion [N]-CA--C-[N] |==|  0.90186
USER: genes 13 Torsion [C]-N--CA-[CB] |==|  0.48939
USER: genes 14 Torsion [N]-CA--CB-[CG] |==|  0.09858
USER: genes 15 Torsion [CA]-CB--CG-[CD] |==|  0.34491
USER: genes 16 Torsion [CB]-CG--CD-[OE1] |==|  0.15857
USER: genes 17 Torsion [N]-CA--C-[N] |==|  0.37525
USER: genes 18 Torsion [C]-N--CA-[CB] |==|  0.31831
USER: genes 19 Torsion [N]-CA--C-[O] |==|  0.08240
USER: genes 20 Torsion [N]-CA--CB-[CG] |==|  0.97925
USER: genes 21 Torsion [CA]-CB--CG-[CD] |==|  0.48273
USER: genes 22 Torsion [CB]-CG--CD-[CE] |==|  0.35616
USER: genes 23 Torsion [CG]-CD--CE-[NZ] |==|  0.95550
USER: genes 24 Torsion [CD]-CE--NZ-[HZ3] |==|  0.14812
USER: genes 25 Torsion [N]-CA--CB-[CG] |==|  0.90925
USER: genes 26 Torsion [CA]-CB--CG-[CD1] |==|  0.79829
ROOT
ATOM      1  CA  PHE G   7      -2.612   6.295   0.734  1.00 26.45 LIG 0.18  C 
ENDROOT
BRANCH 1 2
ATOM      2  N   PHE G   7      -2.519   4.851   0.799  1.00 22.76 LIG-0.35  N 
ATOM      3  C   GLN G   6      -3.570   4.095   1.114  1.00 25.23 LIG 0.24  C 
ATOM      4 O    GLN G   6      -4.728   4.488   1.228  1.00 25.88 LIG-0.27  OA
ATOM      5 H    PHE G   7      -1.740   4.536   0.617  1.00 22.76 LIG 0.16  HD
BRANCH 3 6
ATOM      6  CA  GLN G   6      -3.288   2.632   1.324  1.00 22.93 LIG 0.18  C 
BRANCH 6 7
ATOM      7  CB  GLN G   6      -2.630   2.430   2.693  1.00 23.17 LIG 0.04  C 
BRANCH 7 8
ATOM      8  CG  GLN G   6      -3.436   3.052   3.831  1.00 21.39 LIG 0.10  C 
BRANCH 8 9
ATOM      9  CD  GLN G   6      -2.598   3.486   5.068  1.00 22.17 LIG 0.21  C 
ATOM     10  NE2 GLN G   6      -2.105   2.504   5.794  1.00 17.24 LIG-0.37  N 
ATOM     11 21HE GLN G   6      -2.311   1.689   5.612  1.00 17.24 LIG 0.16  HD
ATOM     12 22HE GLN G   6      -1.577   2.678   6.450  1.00 17.24 LIG 0.16  HD
ATOM     13 OE1  GLN G   6      -2.306   4.703   5.320  1.00 25.29 LIG-0.27  OA
ENDBRANCH 8 9
ENDBRANCH 7 8
ENDBRANCH 6 7
BRANCH 6 14
ATOM     14  N   GLN G   6      -2.472   2.110   0.246  1.00 22.68 LIG-0.35  N 
ATOM     15  C   PRO G   5      -2.798   2.367  -1.014  1.00 24.61 LIG 0.24  C 
ATOM     16 O    PRO G   5      -3.799   3.009  -1.361  1.00 25.71 LIG-0.27  OA
ATOM     17 H    GLN G   6      -1.792   1.643   0.492  1.00 22.68 LIG 0.16  HD
BRANCH 15 18
ATOM     18  CA  PRO G   5      -1.944   1.755  -2.089  1.00 27.09 LIG 0.18  C 
ATOM     19  CB  PRO G   5      -2.805   0.752  -2.877  1.00 27.99 LIG 0.04  C 
ATOM     20  CG  PRO G   5      -1.993  -0.412  -2.964  1.00 29.73 LIG 0.02  C 
ATOM     21  CD  PRO G   5      -0.743  -0.384  -2.156  1.00 26.76 LIG 0.13  C 
ATOM     22  N   PRO G   5      -0.791   0.985  -1.638  1.00 24.34 LIG-0.34  N 
ATOM     23  C   HIS G   4       0.111   1.534  -0.823  1.00 27.57 LIG 0.26  C 
ATOM     24 O    HIS G   4      -0.022   2.665  -0.376  1.00 27.10 LIG-0.27  OA
BRANCH 23 25
ATOM     25  CA  HIS G   4       1.338   0.751  -0.404  1.00 26.03 LIG 0.41  C 
ATOM     26  N   HIS G   4       2.157   0.798  -1.697  1.00 28.06 LIG 0.61  N 
BRANCH 25 27
ATOM     27  CB  HIS G   4       2.008   1.403   0.805  1.00 24.96 LIG 0.11  C 
BRANCH 27 28
ATOM     28  CG  HIS G   4       1.354   0.976   2.086  1.00 22.46 LIG 0.06  A 
ATOM     29  CD2 HIS G   4       0.055   0.737   2.385  1.00 23.95 LIG 0.14  A 
ATOM     30 NE2  HIS G   4       0.009   0.364   3.706  1.00 25.16 LIG-0.25  NA
ATOM     31  CE1 HIS G   4       1.242   0.366   4.176  1.00 26.12 LIG 0.23  A 
ATOM     32 ND1  HIS G   4       2.087   0.747   3.232  1.00 23.55 LIG-0.24  NA
ENDBRANCH 27 28
ENDBRANCH 25 27
ENDBRANCH 23 25
ENDBRANCH 15 18
ENDBRANCH 6 14
ENDBRANCH 3 6
ENDBRANCH 1 2
BRANCH 1 33
ATOM     33  C   PHE G   7      -3.368   6.830  -0.463  1.00 26.79 LIG 0.24  C 
ATOM     34  N   GLU G   8      -3.241   6.162  -1.601  1.00 28.87 LIG-0.35  N 
ATOM     35 H    GLU G   8      -2.837   5.410  -1.701  1.00 28.87 LIG 0.16  HD
ATOM     36 O    PHE G   7      -4.019   7.858  -0.347  1.00 31.74 LIG-0.27  OA
BRANCH 34 37
ATOM     37  CA  GLU G   8      -3.841   6.743  -2.818  1.00 32.81 LIG 0.18  C 
BRANCH 37 38
ATOM     38  CB  GLU G   8      -3.512   5.892  -4.011  1.00 32.33 LIG 0.04  C 
BRANCH 38 39
ATOM     39  CG  GLU G   8      -3.471   4.420  -3.702  1.00 32.73 LIG 0.12  C 
BRANCH 39 40
ATOM     40  CD  GLU G   8      -4.431   3.674  -4.623  1.00 35.15 LIG 0.17  C 
ATOM     41 OE1  GLU G   8      -4.281   3.788  -5.870  1.00 38.54 LIG-0.65  OA
ATOM     42 OE2  GLU G   8      -5.311   2.952  -4.095  1.00 38.35 LIG-0.65  OA
ENDBRANCH 39 40
ENDBRANCH 38 39
ENDBRANCH 37 38
BRANCH 37 43
ATOM     43  C   GLU G   8      -5.343   6.866  -2.706  1.00 36.20 LIG 0.24  C 
ATOM     44  N   LYS G   9      -5.908   8.001  -3.104  1.00 41.18 LIG-0.35  N 
ATOM     45 H    LYS G   9      -5.484   8.664  -3.451  1.00 41.18 LIG 0.16  HD
ATOM     46 O    GLU G   8      -5.998   5.944  -2.248  1.00 35.28 LIG-0.27  OA
BRANCH 44 47
ATOM     47  CA  LYS G   9      -7.359   8.194  -2.966  1.00 46.03 LIG 0.16  C 
BRANCH 47 48
ATOM     48  C   LYS G   9      -7.990   8.490  -4.341  1.00 47.77 LIG 0.22  C 
ATOM     49 O    LYS G   9      -7.477   8.023  -5.365  1.00 48.68 LIG-0.29  OA
ENDBRANCH 47 48
BRANCH 47 50
ATOM     50  CB  LYS G   9      -7.644   9.323  -1.958  1.00 48.34 LIG 0.03  C 
BRANCH 50 51
ATOM     51  CG  LYS G   9      -6.390   9.823  -1.233  1.00 50.79 LIG 0.00  C 
BRANCH 51 52
ATOM     52  CD  LYS G   9      -6.552  11.045  -0.319  1.00 52.72 LIG 0.03  C 
BRANCH 52 53
ATOM     53  CE  LYS G   9      -5.987  10.804   1.096  1.00 54.14 LIG 0.23  C 
BRANCH 53 54
ATOM     54  NZ  LYS G   9      -5.722   9.370   1.491  1.00 55.34 LIG-0.08  N 
ATOM     55 HZ3  LYS G   9      -5.205   8.984   0.878  1.00 55.34 LIG 0.27  HD
ATOM     56 HZ1  LYS G   9      -5.311   9.351   2.280  1.00 55.34 LIG 0.27  HD
ATOM     57 HZ2  LYS G   9      -6.494   8.931   1.548  1.00 55.34 LIG 0.27  HD
ENDBRANCH 53 54
ENDBRANCH 52 53
ENDBRANCH 51 52
ENDBRANCH 50 51
ENDBRANCH 47 50
ENDBRANCH 44 47
ENDBRANCH 37 43
ENDBRANCH 34 37
ENDBRANCH 1 33
BRANCH 1 58
ATOM     58  CB  PHE G   7      -1.170   6.811   0.712  1.00 27.87 LIG 0.07  C 
BRANCH 58 59
ATOM     59  CG  PHE G   7      -0.277   5.891   1.524  1.00 29.51 LIG-0.06  A 
ATOM     60  CD2 PHE G   7       0.731   5.076   1.088  1.00 31.96 LIG 0.01  A 
ATOM     61  CE2 PHE G   7       1.435   4.325   2.043  1.00 32.27 LIG 0.00  A 
ATOM     62  CZ  PHE G   7       1.160   4.489   3.392  1.00 29.14 LIG 0.00  A 
ATOM     63  CE1 PHE G   7       0.219   5.310   3.793  1.00 32.29 LIG 0.00  A 
ATOM     64  CD1 PHE G   7      -0.487   6.014   2.860  1.00 29.45 LIG 0.01  A 
ENDBRANCH 58 59
ENDBRANCH 1 58
TORSDOF 25
ENDMDL
MODEL 5
USER: ADFR SOLUTION from run 44
USER: SCORE 19.486405 LL:  -6.850 LR: -14.553 RR:   0.000 FEB:  -7.096
USER: RMSD 2.499518
USER: SEED 43
USER: STATUS no improvement in best in 5 clusters for 5 generations
USER: GENES 27
USER: genes 0 Translation |==|  0.56276 0.45482 0.54030
USER: genes 1 Rotation |==|  0.48201 0.52440 0.48529 0.99886
USER: genes 2 Torsion [CB]-CA--N-[C] |==|  0.38107
USER: genes 3 Torsion [N]-C--CA-[N] |==|  0.91052
USER: genes 4 Torsion [C]-CA--CB-[CG] |==|  0.23688
USER: genes 5 Torsion [CA]-CB--CG-[CD] |==|  0.61655
USER: genes 6 Torsion [CB]-CG--CD-[NE2] |==|  0.44791
USER: genes 7 Torsion [C]-CA--N-[C] |==|  0.83282
USER: genes 8 Torsion [N]-C--CA-[N] |==|  0.88435
USER: genes 9 Torsion [N]-C--CA-[N] |==|  0.39679
USER: genes 10 Torsion [C]-CA--CB-[CG] |==|  0.20049
USER: genes 11 Torsion [CA]-CB--CG-[CD2] |==|  0.23746
USER: genes 12 Torsion [N]-CA--C-[N] |==|  0.95081
USER: genes 13 Torsion [C]-N--CA-[CB] |==|  0.50029
USER: genes 14 Torsion [N]-CA--CB-[CG] |==|  0.13885
USER: genes 15 Torsion [CA]-CB--CG-[CD] |==|  0.45357
USER: genes 16 Torsion [CB]-CG--CD-[OE1] |==|  0.59786
USER: genes 17 Torsion [N]-CA--C-[N] |==|  0.43416
USER: genes 18 Torsion [C]-N--CA-[CB] |==|  0.81227
USER: genes 19 Torsion [N]-CA--C-[O] |==|  0.48108
USER: genes 20 Torsion [N]-CA--CB-[CG] |==|  0.67534
USER: genes 21 Torsion [CA]-CB--CG-[CD] |==|  0.70221
USER: genes 22 Torsion [CB]-CG--CD-[CE] |==|  0.63034
USER: genes 23 Torsion [CG]-CD--CE-[NZ] |==|  0.31909
USER: genes 24 Torsion [CD]-CE--NZ-[HZ3] |==|  0.24025
USER: genes 25 Torsion [N]-CA--CB-[CG] |==|  0.85564
USER: genes 26 Torsion [CA]-CB--CG-[CD1] |==|  0.28946
ROOT
ATOM      1  CA  PHE G   7      -1.087   5.314   0.786  1.00 26.45 LIG 0.18  C 
ENDROOT
BRANCH 1 2
ATOM      2  N   PHE G   7      -1.195   3.877   0.644  1.00 22.76 LIG-0.35  N 
ATOM      3  C   GLN G   6      -2.030   3.159   1.394  1.00 25.23 LIG 0.24  C 
ATOM      4 O    GLN G   6      -2.887   3.613   2.148  1.00 25.88 LIG-0.27  OA
ATOM      5 H    PHE G   7      -0.680   3.539   0.044  1.00 22.76 LIG 0.16  HD
BRANCH 3 6
ATOM      6  CA  GLN G   6      -1.905   1.665   1.272  1.00 22.93 LIG 0.18  C 
BRANCH 6 7
ATOM      7  CB  GLN G   6      -0.928   1.145   2.331  1.00 23.17 LIG 0.04  C 
BRANCH 7 8
ATOM      8  CG  GLN G   6      -1.601   0.891   3.678  1.00 21.39 LIG 0.10  C 
BRANCH 8 9
ATOM      9  CD  GLN G   6      -0.784   1.354   4.918  1.00 22.17 LIG 0.21  C 
ATOM     10  NE2 GLN G   6      -1.473   1.504   6.030  1.00 17.24 LIG-0.37  N 
ATOM     11 21HE GLN G   6      -2.328   1.415   6.021  1.00 17.24 LIG 0.16  HD
ATOM     12 22HE GLN G   6      -1.067   1.691   6.765  1.00 17.24 LIG 0.16  HD
ATOM     13 OE1  GLN G   6       0.487   1.483   4.908  1.00 25.29 LIG-0.27  OA
ENDBRANCH 8 9
ENDBRANCH 7 8
ENDBRANCH 6 7
BRANCH 6 14
ATOM     14  N   GLN G   6      -1.501   1.295  -0.071  1.00 22.68 LIG-0.35  N 
ATOM     15  C   PRO G   5      -2.265   1.621  -1.104  1.00 24.61 LIG 0.24  C 
ATOM     16 O    PRO G   5      -3.354   2.204  -1.014  1.00 25.71 LIG-0.27  OA
ATOM     17 H    GLN G   6      -0.756   0.868  -0.125  1.00 22.68 LIG 0.16  HD
BRANCH 15 18
ATOM     18  CA  PRO G   5      -1.820   1.165  -2.465  1.00 27.09 LIG 0.18  C 
ATOM     19  CB  PRO G   5      -2.126  -0.338  -2.596  1.00 27.99 LIG 0.04  C 
ATOM     20  CG  PRO G   5      -0.928  -0.895  -3.118  1.00 29.73 LIG 0.02  C 
ATOM     21  CD  PRO G   5       0.236   0.032  -3.182  1.00 26.76 LIG 0.13  C 
ATOM     22  N   PRO G   5      -0.395   1.281  -2.752  1.00 24.34 LIG-0.34  N 
ATOM     23  C   HIS G   4       0.227   2.454  -2.617  1.00 27.57 LIG 0.26  C 
ATOM     24 O    HIS G   4      -0.348   3.448  -2.192  1.00 27.10 LIG-0.27  OA
BRANCH 23 25
ATOM     25  CA  HIS G   4       1.693   2.585  -2.972  1.00 26.03 LIG 0.41  C 
ATOM     26  N   HIS G   4       1.711   3.987  -3.587  1.00 28.06 LIG 0.61  N 
BRANCH 25 27
ATOM     27  CB  HIS G   4       2.566   2.418  -1.729  1.00 24.96 LIG 0.11  C 
BRANCH 27 28
ATOM     28  CG  HIS G   4       2.590   0.991  -1.268  1.00 22.46 LIG 0.06  A 
ATOM     29  CD2 HIS G   4       3.364  -0.053  -1.647  1.00 23.95 LIG 0.14  A 
ATOM     30 NE2  HIS G   4       2.973  -1.136  -0.897  1.00 25.16 LIG-0.25  NA
ATOM     31  CE1 HIS G   4       2.009  -0.746  -0.086  1.00 26.12 LIG 0.23  A 
ATOM     32 ND1  HIS G   4       1.733   0.532  -0.289  1.00 23.55 LIG-0.24  NA
ENDBRANCH 27 28
ENDBRANCH 25 27
ENDBRANCH 23 25
ENDBRANCH 15 18
ENDBRANCH 6 14
ENDBRANCH 3 6
ENDBRANCH 1 2
BRANCH 1 33
ATOM     33  C   PHE G   7      -1.822   6.113  -0.270  1.00 26.79 LIG 0.24  C 
ATOM     34  N   GLU G   8      -2.164   5.471  -1.379  1.00 28.87 LIG-0.35  N 
ATOM     35 H    GLU G   8      -2.080   4.627  -1.518  1.00 28.87 LIG 0.16  HD
ATOM     36 O    PHE G   7      -2.031   7.302  -0.081  1.00 31.74 LIG-0.27  OA
BRANCH 34 37
ATOM     37  CA  GLU G   8      -2.743   6.257  -2.485  1.00 32.81 LIG 0.18  C 
BRANCH 37 38
ATOM     38  CB  GLU G   8      -3.064   5.357  -3.644  1.00 32.33 LIG 0.04  C 
BRANCH 38 39
ATOM     39  CG  GLU G   8      -3.859   4.141  -3.252  1.00 32.73 LIG 0.12  C 
BRANCH 39 40
ATOM     40  CD  GLU G   8      -4.488   3.516  -4.494  1.00 35.15 LIG 0.17  C 
ATOM     41 OE1  GLU G   8      -5.630   2.990  -4.391  1.00 38.54 LIG-0.65  OA
ATOM     42 OE2  GLU G   8      -3.852   3.583  -5.573  1.00 38.35 LIG-0.65  OA
ENDBRANCH 39 40
ENDBRANCH 38 39
ENDBRANCH 37 38
BRANCH 37 43
ATOM     43  C   GLU G   8      -4.001   6.981  -2.068  1.00 36.20 LIG 0.24  C 
ATOM     44  N   LYS G   9      -4.357   8.063  -2.754  1.00 41.18 LIG-0.35  N 
ATOM     45 H    LYS G   9      -3.938   8.366  -3.442  1.00 41.18 LIG 0.16  HD
ATOM     46 O    GLU G   8      -4.651   6.578  -1.116  1.00 35.28 LIG-0.27  OA
BRANCH 44 47
ATOM     47  CA  LYS G   9      -5.542   8.836  -2.356  1.00 46.03 LIG 0.16  C 
BRANCH 47 48
ATOM     48  C   LYS G   9      -5.420   9.275  -0.883  1.00 47.77 LIG 0.22  C 
ATOM     49 O    LYS G   9      -6.260  10.043  -0.400  1.00 48.68 LIG-0.29  OA
ENDBRANCH 47 48
BRANCH 47 50
ATOM     50  CB  LYS G   9      -6.816   8.004  -2.595  1.00 48.34 LIG 0.03  C 
BRANCH 50 51
ATOM     51  CG  LYS G   9      -7.761   8.621  -3.633  1.00 50.79 LIG 0.00  C 
BRANCH 51 52
ATOM     52  CD  LYS G   9      -9.056   9.254  -3.108  1.00 52.72 LIG 0.03  C 
BRANCH 52 53
ATOM     53  CE  LYS G   9     -10.296   8.818  -3.916  1.00 54.14 LIG 0.23  C 
BRANCH 53 54
ATOM     54  NZ  LYS G   9     -11.332   7.996  -3.186  1.00 55.34 LIG-0.08  N 
ATOM     55 HZ3  LYS G   9     -11.903   8.537  -2.771  1.00 55.34 LIG 0.27  HD
ATOM     56 HZ1  LYS G   9     -11.774   7.490  -3.769  1.00 55.34 LIG 0.27  HD
ATOM     57 HZ2  LYS G   9     -10.930   7.475  -2.588  1.00 55.34 LIG 0.27  HD
ENDBRANCH 53 54
ENDBRANCH 52 53
ENDBRANCH 51 52
ENDBRANCH 50 51
ENDBRANCH 47 50
ENDBRANCH 44 47
ENDBRANCH 37 43
ENDBRANCH 34 37
ENDBRANCH 1 33
BRANCH 1 58
ATOM     58  CB  PHE G   7       0.409   5.634   0.732  1.00 27.87 LIG 0.07  C 
BRANCH 58 59
ATOM     59  CG  PHE G   7       1.161   4.774   1.732  1.00 29.51 LIG-0.06  A 
ATOM     60  CD2 PHE G   7       1.149   4.845   3.097  1.00 31.96 LIG 0.01  A 
ATOM     61  CE2 PHE G   7       1.921   3.918   3.815  1.00 32.27 LIG 0.00  A 
ATOM     62  CZ  PHE G   7       2.597   2.911   3.141  1.00 29.14 LIG 0.00  A 
ATOM     63  CE1 PHE G   7       2.560   2.834   1.832  1.00 32.29 LIG 0.00  A 
ATOM     64  CD1 PHE G   7       1.834   3.757   1.135  1.00 29.45 LIG 0.01  A 
ENDBRANCH 58 59
ENDBRANCH 1 58
TORSDOF 25
ENDMDL
MODEL 6
USER: ADFR SOLUTION from run 181
USER: SCORE 19.536320 LL:  -7.296 LR: -14.541 RR:   0.000 FEB:  -7.083
USER: RMSD 2.563299
USER: SEED 180
USER: STATUS no improvement in best in 6 clusters for 5 generations
USER: GENES 27
USER: genes 0 Translation |==|  0.53185 0.44213 0.57982
USER: genes 1 Rotation |==|  0.50631 0.46681 0.55382 0.99595
USER: genes 2 Torsion [CB]-CA--N-[C] |==|  0.34493
USER: genes 3 Torsion [N]-C--CA-[N] |==|  0.89522
USER: genes 4 Torsion [C]-CA--CB-[CG] |==|  0.25836
USER: genes 5 Torsion [CA]-CB--CG-[CD] |==|  0.66715
USER: genes 6 Torsion [CB]-CG--CD-[NE2] |==|  0.32592
USER: genes 7 Torsion [C]-CA--N-[C] |==|  0.85063
USER: genes 8 Torsion [N]-C--CA-[N] |==|  0.91024
USER: genes 9 Torsion [N]-C--CA-[N] |==|  0.40311
USER: genes 10 Torsion [C]-CA--CB-[CG] |==|  0.17616
USER: genes 11 Torsion [CA]-CB--CG-[CD2] |==|  0.24022
USER: genes 12 Torsion [N]-CA--C-[N] |==|  0.90985
USER: genes 13 Torsion [C]-N--CA-[CB] |==|  0.81840
USER: genes 14 Torsion [N]-CA--CB-[CG] |==|  0.84762
USER: genes 15 Torsion [CA]-CB--CG-[CD] |==|  0.71481
USER: genes 16 Torsion [CB]-CG--CD-[OE1] |==|  0.43431
USER: genes 17 Torsion [N]-CA--C-[N] |==|  0.11111
USER: genes 18 Torsion [C]-N--CA-[CB] |==|  0.32580
USER: genes 19 Torsion [N]-CA--C-[O] |==|  0.73744
USER: genes 20 Torsion [N]-CA--CB-[CG] |==|  0.87865
USER: genes 21 Torsion [CA]-CB--CG-[CD] |==|  0.71169
USER: genes 22 Torsion [CB]-CG--CD-[CE] |==|  0.29459
USER: genes 23 Torsion [CG]-CD--CE-[NZ] |==|  0.34901
USER: genes 24 Torsion [CD]-CE--NZ-[HZ3] |==|  0.30941
USER: genes 25 Torsion [N]-CA--CB-[CG] |==|  0.95679
USER: genes 26 Torsion [CA]-CB--CG-[CD1] |==|  0.72860
ROOT
ATOM      1  CA  PHE G   7      -1.690   5.020   1.527  1.00 26.45 LIG 0.18  C 
ENDROOT
BRANCH 1 2
ATOM      2  N   PHE G   7      -1.354   3.635   1.263  1.00 22.76 LIG-0.35  N 
ATOM      3  C   GLN G   6      -1.919   2.636   1.939  1.00 25.23 LIG 0.24  C 
ATOM      4 O    GLN G   6      -2.862   2.741   2.719  1.00 25.88 LIG-0.27  OA
ATOM      5 H    PHE G   7      -0.770   3.524   0.642  1.00 22.76 LIG 0.16  HD
BRANCH 3 6
ATOM      6  CA  GLN G   6      -1.345   1.268   1.693  1.00 22.93 LIG 0.18  C 
BRANCH 6 7
ATOM      7  CB  GLN G   6      -0.151   1.039   2.624  1.00 23.17 LIG 0.04  C 
BRANCH 7 8
ATOM      8  CG  GLN G   6      -0.544   0.346   3.926  1.00 21.39 LIG 0.10  C 
BRANCH 8 9
ATOM      9  CD  GLN G   6      -0.242   1.156   5.219  1.00 22.17 LIG 0.21  C 
ATOM     10  NE2 GLN G   6      -1.293   1.490   5.940  1.00 17.24 LIG-0.37  N 
ATOM     11 21HE GLN G   6      -2.085   1.319   5.652  1.00 17.24 LIG 0.16  HD
ATOM     12 22HE GLN G   6      -1.186   1.878   6.701  1.00 17.24 LIG 0.16  HD
ATOM     13 OE1  GLN G   6       0.942   1.400   5.629  1.00 25.29 LIG-0.27  OA
ENDBRANCH 8 9
ENDBRANCH 7 8
ENDBRANCH 6 7
BRANCH 6 14
ATOM     14  N   GLN G   6      -0.985   1.110   0.297  1.00 22.68 LIG-0.35  N 
ATOM     15  C   PRO G   5      -1.885   1.347  -0.648  1.00 24.61 LIG 0.24  C 
ATOM     16 O    PRO G   5      -3.061   1.668  -0.431  1.00 25.71 LIG-0.27  OA
ATOM     17 H    GLN G   6      -0.174   0.862   0.152  1.00 22.68 LIG 0.16  HD
BRANCH 15 18
ATOM     18  CA  PRO G   5      -1.468   1.115  -2.074  1.00 27.09 LIG 0.18  C 
ATOM     19  CB  PRO G   5      -1.684  -0.373  -2.405  1.00 27.99 LIG 0.04  C 
ATOM     20  CG  PRO G   5      -0.476  -0.768  -3.039  1.00 29.73 LIG 0.02  C 
ATOM     21  CD  PRO G   5       0.624   0.235  -3.009  1.00 26.76 LIG 0.13  C 
ATOM     22  N   PRO G   5      -0.067   1.367  -2.386  1.00 24.34 LIG-0.34  N 
ATOM     23  C   HIS G   4       0.485   2.550  -2.107  1.00 27.57 LIG 0.26  C 
ATOM     24 O    HIS G   4      -0.132   3.433  -1.528  1.00 27.10 LIG-0.27  OA
BRANCH 23 25
ATOM     25  CA  HIS G   4       1.925   2.828  -2.488  1.00 26.03 LIG 0.41  C 
ATOM     26  N   HIS G   4       1.840   4.315  -2.842  1.00 28.06 LIG 0.61  N 
BRANCH 25 27
ATOM     27  CB  HIS G   4       2.863   2.497  -1.327  1.00 24.96 LIG 0.11  C 
BRANCH 27 28
ATOM     28  CG  HIS G   4       2.820   1.035  -0.993  1.00 22.46 LIG 0.06  A 
ATOM     29  CD2 HIS G   4       3.509  -0.014  -1.501  1.00 23.95 LIG 0.14  A 
ATOM     30 NE2  HIS G   4       3.087  -1.135  -0.828  1.00 25.16 LIG-0.25  NA
ATOM     31  CE1 HIS G   4       2.189  -0.764   0.064  1.00 26.12 LIG 0.23  A 
ATOM     32 ND1  HIS G   4       1.984   0.541  -0.013  1.00 23.55 LIG-0.24  NA
ENDBRANCH 27 28
ENDBRANCH 25 27
ENDBRANCH 23 25
ENDBRANCH 15 18
ENDBRANCH 6 14
ENDBRANCH 3 6
ENDBRANCH 1 2
BRANCH 1 33
ATOM     33  C   PHE G   7      -2.389   5.731   0.388  1.00 26.79 LIG 0.24  C 
ATOM     34  N   GLU G   8      -2.063   5.361  -0.842  1.00 28.87 LIG-0.35  N 
ATOM     35 H    GLU G   8      -1.554   4.700  -1.051  1.00 28.87 LIG 0.16  HD
ATOM     36 O    PHE G   7      -3.179   6.628   0.641  1.00 31.74 LIG-0.27  OA
BRANCH 34 37
ATOM     37  CA  GLU G   8      -2.612   6.138  -1.970  1.00 32.81 LIG 0.18  C 
BRANCH 37 38
ATOM     38  CB  GLU G   8      -4.105   5.986  -2.022  1.00 32.33 LIG 0.04  C 
BRANCH 38 39
ATOM     39  CG  GLU G   8      -4.558   4.552  -2.081  1.00 32.73 LIG 0.12  C 
BRANCH 39 40
ATOM     40  CD  GLU G   8      -4.968   4.201  -3.508  1.00 35.15 LIG 0.17  C 
ATOM     41 OE1  GLU G   8      -4.940   2.990  -3.862  1.00 38.54 LIG-0.65  OA
ATOM     42 OE2  GLU G   8      -5.348   5.132  -4.257  1.00 38.35 LIG-0.65  OA
ENDBRANCH 39 40
ENDBRANCH 38 39
ENDBRANCH 37 38
BRANCH 37 43
ATOM     43  C   GLU G   8      -2.277   7.608  -1.862  1.00 36.20 LIG 0.24  C 
ATOM     44  N   LYS G   9      -1.061   7.942  -1.440  1.00 41.18 LIG-0.35  N 
ATOM     45 H    LYS G   9      -0.437   7.381  -1.252  1.00 41.18 LIG 0.16  HD
ATOM     46 O    GLU G   8      -3.116   8.448  -2.144  1.00 35.28 LIG-0.27  OA
BRANCH 44 47
ATOM     47  CA  LYS G   9      -0.701   9.356  -1.264  1.00 46.03 LIG 0.16  C 
BRANCH 47 48
ATOM     48  C   LYS G   9       0.482   9.722  -2.183  1.00 47.77 LIG 0.22  C 
ATOM     49 O    LYS G   9       1.637   9.676  -1.745  1.00 48.68 LIG-0.29  OA
ENDBRANCH 47 48
BRANCH 47 50
ATOM     50  CB  LYS G   9      -0.375   9.634   0.215  1.00 48.34 LIG 0.03  C 
BRANCH 50 51
ATOM     51  CG  LYS G   9      -1.365   8.986   1.189  1.00 50.79 LIG 0.00  C 
BRANCH 51 52
ATOM     52  CD  LYS G   9      -2.402   9.907   1.845  1.00 52.72 LIG 0.03  C 
BRANCH 52 53
ATOM     53  CE  LYS G   9      -3.816   9.718   1.258  1.00 54.14 LIG 0.23  C 
BRANCH 53 54
ATOM     54  NZ  LYS G   9      -4.927   9.415   2.235  1.00 55.34 LIG-0.08  N 
ATOM     55 HZ3  LYS G   9      -5.482  10.109   2.279  1.00 55.34 LIG 0.27  HD
ATOM     56 HZ1  LYS G   9      -5.374   8.695   1.963  1.00 55.34 LIG 0.27  HD
ATOM     57 HZ2  LYS G   9      -4.581   9.261   3.040  1.00 55.34 LIG 0.27  HD
ENDBRANCH 53 54
ENDBRANCH 52 53
ENDBRANCH 51 52
ENDBRANCH 50 51
ENDBRANCH 47 50
ENDBRANCH 44 47
ENDBRANCH 37 43
ENDBRANCH 34 37
ENDBRANCH 1 33
BRANCH 1 58
ATOM     58  CB  PHE G   7      -0.367   5.722   1.846  1.00 27.87 LIG 0.07  C 
BRANCH 58 59
ATOM     59  CG  PHE G   7       0.708   4.695   2.147  1.00 29.51 LIG-0.06  A 
ATOM     60  CD2 PHE G   7       1.547   4.057   1.276  1.00 31.96 LIG 0.01  A 
ATOM     61  CE2 PHE G   7       2.482   3.151   1.801  1.00 32.27 LIG 0.00  A 
ATOM     62  CZ  PHE G   7       2.594   2.989   3.174  1.00 29.14 LIG 0.00  A 
ATOM     63  CE1 PHE G   7       1.808   3.643   3.996  1.00 32.29 LIG 0.00  A 
ATOM     64  CD1 PHE G   7       0.878   4.500   3.480  1.00 29.45 LIG 0.01  A 
ENDBRANCH 58 59
ENDBRANCH 1 58
TORSDOF 25
ENDMDL
MODEL 7
USER: ADFR SOLUTION from run 177
USER: SCORE 19.146495 LL:  -5.379 LR: -14.234 RR:   0.000 FEB:  -6.777
USER: RMSD 2.481057
USER: SEED 176
USER: STATUS no improvement in best in 13 clusters for 5 generations
USER: GENES 27
USER: genes 0 Translation |==|  0.42560 0.38433 0.60015
USER: genes 1 Rotation |==|  0.53825 0.32831 0.60472 0.95617
USER: genes 2 Torsion [CB]-CA--N-[C] |==|  0.82026
USER: genes 3 Torsion [N]-C--CA-[N] |==|  0.32778
USER: genes 4 Torsion [C]-CA--CB-[CG] |==|  0.11020
USER: genes 5 Torsion [CA]-CB--CG-[CD] |==|  0.35715
USER: genes 6 Torsion [CB]-CG--CD-[NE2] |==|  0.99667
USER: genes 7 Torsion [C]-CA--N-[C] |==|  0.80545
USER: genes 8 Torsion [N]-C--CA-[N] |==|  0.96098
USER: genes 9 Torsion [N]-C--CA-[N] |==|  0.37456
USER: genes 10 Torsion [C]-CA--CB-[CG] |==|  0.17574
USER: genes 11 Torsion [CA]-CB--CG-[CD2] |==|  0.25914
USER: genes 12 Torsion [N]-CA--C-[N] |==|  0.96562
USER: genes 13 Torsion [C]-N--CA-[CB] |==|  0.55458
USER: genes 14 Torsion [N]-CA--CB-[CG] |==|  0.16229
USER: genes 15 Torsion [CA]-CB--CG-[CD] |==|  0.31142
USER: genes 16 Torsion [CB]-CG--CD-[OE1] |==|  0.64563
USER: genes 17 Torsion [N]-CA--C-[N] |==|  0.40636
USER: genes 18 Torsion [C]-N--CA-[CB] |==|  0.38534
USER: genes 19 Torsion [N]-CA--C-[O] |==|  0.51292
USER: genes 20 Torsion [N]-CA--CB-[CG] |==|  0.02442
USER: genes 21 Torsion [CA]-CB--CG-[CD] |==|  0.62493
USER: genes 22 Torsion [CB]-CG--CD-[CE] |==|  0.02695
USER: genes 23 Torsion [CG]-CD--CE-[NZ] |==|  0.28005
USER: genes 24 Torsion [CD]-CE--NZ-[HZ3] |==|  0.24795
USER: genes 25 Torsion [N]-CA--CB-[CG] |==|  0.34811
USER: genes 26 Torsion [CA]-CB--CG-[CD1] |==|  0.72578
ROOT
ATOM      1  CA  PHE G   7      -3.762   3.676   1.908  1.00 26.45 LIG 0.18  C 
ENDROOT
BRANCH 1 2
ATOM      2  N   PHE G   7      -2.996   2.460   1.723  1.00 22.76 LIG-0.35  N 
ATOM      3  C   GLN G   6      -1.760   2.479   1.225  1.00 25.23 LIG 0.24  C 
ATOM      4 O    GLN G   6      -1.085   3.485   1.019  1.00 25.88 LIG-0.27  OA
ATOM      5 H    PHE G   7      -3.406   1.742   1.961  1.00 22.76 LIG 0.16  HD
BRANCH 3 6
ATOM      6  CA  GLN G   6      -1.155   1.137   0.916  1.00 22.93 LIG 0.18  C 
BRANCH 6 7
ATOM      7  CB  GLN G   6       0.094   0.928   1.778  1.00 23.17 LIG 0.04  C 
BRANCH 7 8
ATOM      8  CG  GLN G   6      -0.080   1.446   3.203  1.00 21.39 LIG 0.10  C 
BRANCH 8 9
ATOM      9  CD  GLN G   6       0.284   0.428   4.321  1.00 22.17 LIG 0.21  C 
ATOM     10  NE2 GLN G   6       0.673  -0.760   3.904  1.00 17.24 LIG-0.37  N 
ATOM     11 21HE GLN G   6       0.647  -0.952   3.067  1.00 17.24 LIG 0.16  HD
ATOM     12 22HE GLN G   6       0.953  -1.343   4.471  1.00 17.24 LIG 0.16  HD
ATOM     13 OE1  GLN G   6       0.314   0.733   5.560  1.00 25.29 LIG-0.27  OA
ENDBRANCH 8 9
ENDBRANCH 7 8
ENDBRANCH 6 7
BRANCH 6 14
ATOM     14  N   GLN G   6      -0.866   1.022  -0.500  1.00 22.68 LIG-0.35  N 
ATOM     15  C   PRO G   5      -1.861   0.926  -1.372  1.00 24.61 LIG 0.24  C 
ATOM     16 O    PRO G   5      -3.060   0.888  -1.065  1.00 25.71 LIG-0.27  OA
ATOM     17 H    GLN G   6      -0.031   1.023  -0.706  1.00 22.68 LIG 0.16  HD
BRANCH 15 18
ATOM     18  CA  PRO G   5      -1.497   0.757  -2.821  1.00 27.09 LIG 0.18  C 
ATOM     19  CB  PRO G   5      -1.721  -0.716  -3.206  1.00 27.99 LIG 0.04  C 
ATOM     20  CG  PRO G   5      -0.536  -1.079  -3.901  1.00 29.73 LIG 0.02  C 
ATOM     21  CD  PRO G   5       0.561  -0.072  -3.869  1.00 26.76 LIG 0.13  C 
ATOM     22  N   PRO G   5      -0.109   1.029  -3.174  1.00 24.34 LIG-0.34  N 
ATOM     23  C   HIS G   4       0.449   2.201  -2.866  1.00 27.57 LIG 0.26  C 
ATOM     24 O    HIS G   4      -0.149   3.056  -2.228  1.00 27.10 LIG-0.27  OA
BRANCH 23 25
ATOM     25  CA  HIS G   4       1.872   2.503  -3.288  1.00 26.03 LIG 0.41  C 
ATOM     26  N   HIS G   4       1.711   3.926  -3.828  1.00 28.06 LIG 0.61  N 
BRANCH 25 27
ATOM     27  CB  HIS G   4       2.826   2.370  -2.101  1.00 24.96 LIG 0.11  C 
BRANCH 27 28
ATOM     28  CG  HIS G   4       2.856   0.963  -1.582  1.00 22.46 LIG 0.06  A 
ATOM     29  CD2 HIS G   4       3.676  -0.075  -1.871  1.00 23.95 LIG 0.14  A 
ATOM     30 NE2  HIS G   4       3.266  -1.137  -1.102  1.00 25.16 LIG-0.25  NA
ATOM     31  CE1 HIS G   4       2.245  -0.741  -0.366  1.00 26.12 LIG 0.23  A 
ATOM     32 ND1  HIS G   4       1.953   0.521  -0.637  1.00 23.55 LIG-0.24  NA
ENDBRANCH 27 28
ENDBRANCH 25 27
ENDBRANCH 23 25
ENDBRANCH 15 18
ENDBRANCH 6 14
ENDBRANCH 3 6
ENDBRANCH 1 2
BRANCH 1 33
ATOM     33  C   PHE G   7      -3.949   4.504   0.655  1.00 26.79 LIG 0.24  C 
ATOM     34  N   GLU G   8      -3.205   4.185  -0.394  1.00 28.87 LIG-0.35  N 
ATOM     35 H    GLU G   8      -2.686   3.501  -0.454  1.00 28.87 LIG 0.16  HD
ATOM     36 O    PHE G   7      -4.734   5.441   0.671  1.00 31.74 LIG-0.27  OA
BRANCH 34 37
ATOM     37  CA  GLU G   8      -3.254   5.067  -1.576  1.00 32.81 LIG 0.18  C 
BRANCH 37 38
ATOM     38  CB  GLU G   8      -2.760   4.332  -2.789  1.00 32.33 LIG 0.04  C 
BRANCH 38 39
ATOM     39  CG  GLU G   8      -3.546   3.086  -3.093  1.00 32.73 LIG 0.12  C 
BRANCH 39 40
ATOM     40  CD  GLU G   8      -4.325   3.274  -4.392  1.00 35.15 LIG 0.17  C 
ATOM     41 OE1  GLU G   8      -5.565   3.042  -4.390  1.00 38.54 LIG-0.65  OA
ATOM     42 OE2  GLU G   8      -3.699   3.683  -5.399  1.00 38.35 LIG-0.65  OA
ENDBRANCH 39 40
ENDBRANCH 38 39
ENDBRANCH 37 38
BRANCH 37 43
ATOM     43  C   GLU G   8      -4.653   5.570  -1.849  1.00 36.20 LIG 0.24  C 
ATOM     44  N   LYS G   9      -4.789   6.793  -2.352  1.00 41.18 LIG-0.35  N 
ATOM     45 H    LYS G   9      -4.137   7.311  -2.565  1.00 41.18 LIG 0.16  HD
ATOM     46 O    GLU G   8      -5.616   4.866  -1.593  1.00 35.28 LIG-0.27  OA
BRANCH 44 47
ATOM     47  CA  LYS G   9      -6.129   7.353  -2.585  1.00 46.03 LIG 0.16  C 
BRANCH 47 48
ATOM     48  C   LYS G   9      -6.529   7.178  -4.064  1.00 47.77 LIG 0.22  C 
ATOM     49 O    LYS G   9      -7.589   7.664  -4.475  1.00 48.68 LIG-0.29  OA
ENDBRANCH 47 48
BRANCH 47 50
ATOM     50  CB  LYS G   9      -6.159   8.833  -2.162  1.00 48.34 LIG 0.03  C 
BRANCH 50 51
ATOM     51  CG  LYS G   9      -4.775   9.397  -1.821  1.00 50.79 LIG 0.00  C 
BRANCH 51 52
ATOM     52  CD  LYS G   9      -4.662  10.247  -0.549  1.00 52.72 LIG 0.03  C 
BRANCH 52 53
ATOM     53  CE  LYS G   9      -5.940  10.194   0.314  1.00 54.14 LIG 0.23  C 
BRANCH 53 54
ATOM     54  NZ  LYS G   9      -5.914   9.282   1.518  1.00 55.34 LIG-0.08  N 
ATOM     55 HZ3  LYS G   9      -5.608   9.730   2.223  1.00 55.34 LIG 0.27  HD
ATOM     56 HZ1  LYS G   9      -6.737   8.991   1.687  1.00 55.34 LIG 0.27  HD
ATOM     57 HZ2  LYS G   9      -5.382   8.588   1.353  1.00 55.34 LIG 0.27  HD
ENDBRANCH 53 54
ENDBRANCH 52 53
ENDBRANCH 51 52
ENDBRANCH 50 51
ENDBRANCH 47 50
ENDBRANCH 44 47
ENDBRANCH 37 43
ENDBRANCH 34 37
ENDBRANCH 1 33
BRANCH 1 58
ATOM     58  CB  PHE G   7      -3.012   4.492   2.964  1.00 27.87 LIG 0.07  C 
BRANCH 58 59
ATOM     59  CG  PHE G   7      -2.709   5.880   2.430  1.00 29.51 LIG-0.06  A 
ATOM     60  CD2 PHE G   7      -3.496   6.998   2.463  1.00 31.96 LIG 0.01  A 
ATOM     61  CE2 PHE G   7      -2.984   8.185   1.914  1.00 32.27 LIG 0.00  A 
ATOM     62  CZ  PHE G   7      -1.681   8.221   1.440  1.00 29.14 LIG 0.00  A 
ATOM     63  CE1 PHE G   7      -0.926   7.148   1.457  1.00 32.29 LIG 0.00  A 
ATOM     64  CD1 PHE G   7      -1.439   5.988   1.962  1.00 29.45 LIG 0.01  A 
ENDBRANCH 58 59
ENDBRANCH 1 58
TORSDOF 25
ENDMDL
MODEL 8
USER: ADFR SOLUTION from run 93
USER: SCORE 18.950004 LL:  -7.229 LR: -13.968 RR:   0.000 FEB:  -6.510
USER: RMSD 2.987600
USER: SEED 92
USER: STATUS no improvement in best in 5 clusters for 5 generations
USER: GENES 27
USER: genes 0 Translation |==|  0.55036 0.44898 0.58328
USER: genes 1 Rotation |==|  0.47131 0.49353 0.50948 0.99904
USER: genes 2 Torsion [CB]-CA--N-[C] |==|  0.44343
USER: genes 3 Torsion [N]-C--CA-[N] |==|  0.92821
USER: genes 4 Torsion [C]-CA--CB-[CG] |==|  0.79506
USER: genes 5 Torsion [CA]-CB--CG-[CD] |==|  0.44616
USER: genes 6 Torsion [CB]-CG--CD-[NE2] |==|  0.93640
USER: genes 7 Torsion [C]-CA--N-[C] |==|  0.76832
USER: genes 8 Torsion [N]-C--CA-[N] |==|  0.77001
USER: genes 9 Torsion [N]-C--CA-[N] |==|  0.42688
USER: genes 10 Torsion [C]-CA--CB-[CG] |==|  0.67191
USER: genes 11 Torsion [CA]-CB--CG-[CD2] |==|  0.35479
USER: genes 12 Torsion [N]-CA--C-[N] |==|  0.95553
USER: genes 13 Torsion [C]-N--CA-[CB] |==|  0.47846
USER: genes 14 Torsion [N]-CA--CB-[CG] |==|  0.16393
USER: genes 15 Torsion [CA]-CB--CG-[CD] |==|  0.39000
USER: genes 16 Torsion [CB]-CG--CD-[OE1] |==|  0.14299
USER: genes 17 Torsion [N]-CA--C-[N] |==|  0.42495
USER: genes 18 Torsion [C]-N--CA-[CB] |==|  0.37958
USER: genes 19 Torsion [N]-CA--C-[O] |==|  0.03577
USER: genes 20 Torsion [N]-CA--CB-[CG] |==|  0.84841
USER: genes 21 Torsion [CA]-CB--CG-[CD] |==|  0.89238
USER: genes 22 Torsion [CB]-CG--CD-[CE] |==|  0.54529
USER: genes 23 Torsion [CG]-CD--CE-[NZ] |==|  0.36676
USER: genes 24 Torsion [CD]-CE--NZ-[HZ3] |==|  0.17150
USER: genes 25 Torsion [N]-CA--CB-[CG] |==|  0.94499
USER: genes 26 Torsion [CA]-CB--CG-[CD1] |==|  0.74199
ROOT
ATOM      1  CA  PHE G   7      -1.329   5.179   1.592  1.00 26.45 LIG 0.18  C 
ENDROOT
BRANCH 1 2
ATOM      2  N   PHE G   7      -1.274   3.733   1.507  1.00 22.76 LIG-0.35  N 
ATOM      3  C   GLN G   6      -2.328   2.974   1.801  1.00 25.23 LIG 0.24  C 
ATOM      4 O    GLN G   6      -3.467   3.380   2.014  1.00 25.88 LIG-0.27  OA
ATOM      5 H    PHE G   7      -0.513   3.421   1.255  1.00 22.76 LIG 0.16  HD
BRANCH 3 6
ATOM      6  CA  GLN G   6      -2.077   1.492   1.850  1.00 22.93 LIG 0.18  C 
BRANCH 6 7
ATOM      7  CB  GLN G   6      -1.871   1.055   3.304  1.00 23.17 LIG 0.04  C 
BRANCH 7 8
ATOM      8  CG  GLN G   6      -0.514   1.480   3.860  1.00 21.39 LIG 0.10  C 
BRANCH 8 9
ATOM      9  CD  GLN G   6      -0.418   1.500   5.412  1.00 22.17 LIG 0.21  C 
ATOM     10  NE2 GLN G   6      -1.563   1.618   6.052  1.00 17.24 LIG-0.37  N 
ATOM     11 21HE GLN G   6      -2.291   1.747   5.612  1.00 17.24 LIG 0.16  HD
ATOM     12 22HE GLN G   6      -1.583   1.566   6.911  1.00 17.24 LIG 0.16  HD
ATOM     13 OE1  GLN G   6       0.674   1.308   6.046  1.00 25.29 LIG-0.27  OA
ENDBRANCH 8 9
ENDBRANCH 7 8
ENDBRANCH 6 7
BRANCH 6 14
ATOM     14  N   GLN G   6      -0.949   1.137   1.010  1.00 22.68 LIG-0.35  N 
ATOM     15  C   PRO G   5      -1.126   0.954  -0.291  1.00 24.61 LIG 0.24  C 
ATOM     16 O    PRO G   5      -2.220   1.027  -0.866  1.00 25.71 LIG-0.27  OA
ATOM     17 H    GLN G   6      -0.196   1.063   1.419  1.00 22.68 LIG 0.16  HD
BRANCH 15 18
ATOM     18  CA  PRO G   5       0.070   0.538  -1.100  1.00 27.09 LIG 0.18  C 
ATOM     19  CB  PRO G   5       0.945  -0.385  -0.232  1.00 27.99 LIG 0.04  C 
ATOM     20  CG  PRO G   5       2.261   0.123  -0.399  1.00 29.73 LIG 0.02  C 
ATOM     21  CD  PRO G   5       2.364   1.412  -1.137  1.00 26.76 LIG 0.13  C 
ATOM     22  N   PRO G   5       0.966   1.606  -1.527  1.00 24.34 LIG-0.34  N 
ATOM     23  C   HIS G   4       0.493   2.648  -2.215  1.00 27.57 LIG 0.26  C 
ATOM     24 O    HIS G   4      -0.699   2.780  -2.455  1.00 27.10 LIG-0.27  OA
BRANCH 23 25
ATOM     25  CA  HIS G   4       1.436   3.726  -2.709  1.00 26.03 LIG 0.41  C 
ATOM     26  N   HIS G   4       0.658   4.249  -3.919  1.00 28.06 LIG 0.61  N 
BRANCH 25 27
ATOM     27  CB  HIS G   4       1.692   4.761  -1.613  1.00 24.96 LIG 0.11  C 
BRANCH 27 28
ATOM     28  CG  HIS G   4       1.217   6.122  -2.029  1.00 22.46 LIG 0.06  A 
ATOM     29  CD2 HIS G   4       0.398   7.006  -1.410  1.00 23.95 LIG 0.14  A 
ATOM     30 NE2  HIS G   4       0.303   8.105  -2.228  1.00 25.16 LIG-0.25  NA
ATOM     31  CE1 HIS G   4       1.053   7.891  -3.292  1.00 26.12 LIG 0.23  A 
ATOM     32 ND1  HIS G   4       1.612   6.694  -3.220  1.00 23.55 LIG-0.24  NA
ENDBRANCH 27 28
ENDBRANCH 25 27
ENDBRANCH 23 25
ENDBRANCH 15 18
ENDBRANCH 6 14
ENDBRANCH 3 6
ENDBRANCH 1 2
BRANCH 1 33
ATOM     33  C   PHE G   7      -2.008   5.857   0.421  1.00 26.79 LIG 0.24  C 
ATOM     34  N   GLU G   8      -2.179   5.134  -0.677  1.00 28.87 LIG-0.35  N 
ATOM     35 H    GLU G   8      -2.015   4.293  -0.756  1.00 28.87 LIG 0.16  HD
ATOM     36 O    PHE G   7      -2.328   7.033   0.517  1.00 31.74 LIG-0.27  OA
BRANCH 34 37
ATOM     37  CA  GLU G   8      -2.697   5.811  -1.881  1.00 32.81 LIG 0.18  C 
BRANCH 37 38
ATOM     38  CB  GLU G   8      -2.642   4.881  -3.059  1.00 32.33 LIG 0.04  C 
BRANCH 38 39
ATOM     39  CG  GLU G   8      -3.437   3.618  -2.859  1.00 32.73 LIG 0.12  C 
BRANCH 39 40
ATOM     40  CD  GLU G   8      -4.150   3.249  -4.156  1.00 35.15 LIG 0.17  C 
ATOM     41 OE1  GLU G   8      -3.473   3.188  -5.220  1.00 38.54 LIG-0.65  OA
ATOM     42 OE2  GLU G   8      -5.376   2.990  -4.101  1.00 38.35 LIG-0.65  OA
ENDBRANCH 39 40
ENDBRANCH 38 39
ENDBRANCH 37 38
BRANCH 37 43
ATOM     43  C   GLU G   8      -4.121   6.281  -1.698  1.00 36.20 LIG 0.24  C 
ATOM     44  N   LYS G   9      -4.529   7.328  -2.408  1.00 41.18 LIG-0.35  N 
ATOM     45 H    LYS G   9      -4.050   7.742  -2.990  1.00 41.18 LIG 0.16  HD
ATOM     46 O    GLU G   8      -4.855   5.713  -0.905  1.00 35.28 LIG-0.27  OA
BRANCH 44 47
ATOM     47  CA  LYS G   9      -5.887   7.861  -2.228  1.00 46.03 LIG 0.16  C 
BRANCH 47 48
ATOM     48  C   LYS G   9      -6.811   7.355  -3.354  1.00 47.77 LIG 0.22  C 
ATOM     49 O    LYS G   9      -6.437   6.432  -4.087  1.00 48.68 LIG-0.29  OA
ENDBRANCH 47 48
BRANCH 47 50
ATOM     50  CB  LYS G   9      -5.845   9.400  -2.181  1.00 48.34 LIG 0.03  C 
BRANCH 50 51
ATOM     51  CG  LYS G   9      -4.883   9.951  -1.122  1.00 50.79 LIG 0.00  C 
BRANCH 51 52
ATOM     52  CD  LYS G   9      -4.820   9.207   0.218  1.00 52.72 LIG 0.03  C 
BRANCH 52 53
ATOM     53  CE  LYS G   9      -4.152  10.045   1.328  1.00 54.14 LIG 0.23  C 
BRANCH 53 54
ATOM     54  NZ  LYS G   9      -4.870  10.117   2.655  1.00 55.34 LIG-0.08  N 
ATOM     55 HZ3  LYS G   9      -4.933   9.301   3.004  1.00 55.34 LIG 0.27  HD
ATOM     56 HZ1  LYS G   9      -4.415  10.642   3.211  1.00 55.34 LIG 0.27  HD
ATOM     57 HZ2  LYS G   9      -5.686  10.451   2.533  1.00 55.34 LIG 0.27  HD
ENDBRANCH 53 54
ENDBRANCH 52 53
ENDBRANCH 51 52
ENDBRANCH 50 51
ENDBRANCH 47 50
ENDBRANCH 44 47
ENDBRANCH 37 43
ENDBRANCH 34 37
ENDBRANCH 1 33
BRANCH 1 58
ATOM     58  CB  PHE G   7       0.124   5.652   1.697  1.00 27.87 LIG 0.07  C 
BRANCH 58 59
ATOM     59  CG  PHE G   7       1.010   4.511   2.160  1.00 29.51 LIG-0.06  A 
ATOM     60  CD2 PHE G   7       1.711   3.614   1.403  1.00 31.96 LIG 0.01  A 
ATOM     61  CE2 PHE G   7       2.484   2.648   2.067  1.00 32.27 LIG 0.00  A 
ATOM     62  CZ  PHE G   7       2.590   2.678   3.449  1.00 29.14 LIG 0.00  A 
ATOM     63  CE1 PHE G   7       1.944   3.574   4.156  1.00 32.29 LIG 0.00  A 
ATOM     64  CD1 PHE G   7       1.167   4.492   3.508  1.00 29.45 LIG 0.01  A 
ENDBRANCH 58 59
ENDBRANCH 1 58
TORSDOF 25
ENDMDL
MODEL 9
USER: ADFR SOLUTION from run 141
USER: SCORE 19.336274 LL:  -8.458 LR: -13.913 RR:   0.000 FEB:  -6.456
USER: RMSD 3.328909
USER: SEED 140
USER: STATUS no improvement in best in 5 clusters for 5 generations
USER: GENES 27
USER: genes 0 Translation |==|  0.52921 0.43676 0.64325
USER: genes 1 Rotation |==|  0.54390 0.53578 0.56851 0.99203
USER: genes 2 Torsion [CB]-CA--N-[C] |==|  0.37291
USER: genes 3 Torsion [N]-C--CA-[N] |==|  0.88459
USER: genes 4 Torsion [C]-CA--CB-[CG] |==|  0.23369
USER: genes 5 Torsion [CA]-CB--CG-[CD] |==|  0.73040
USER: genes 6 Torsion [CB]-CG--CD-[NE2] |==|  0.27878
USER: genes 7 Torsion [C]-CA--N-[C] |==|  0.85338
USER: genes 8 Torsion [N]-C--CA-[N] |==|  0.92834
USER: genes 9 Torsion [N]-C--CA-[N] |==|  0.37631
USER: genes 10 Torsion [C]-CA--CB-[CG] |==|  0.20148
USER: genes 11 Torsion [CA]-CB--CG-[CD2] |==|  0.23785
USER: genes 12 Torsion [N]-CA--C-[N] |==|  0.89506
USER: genes 13 Torsion [C]-N--CA-[CB] |==|  0.31296
USER: genes 14 Torsion [N]-CA--CB-[CG] |==|  0.95230
USER: genes 15 Torsion [CA]-CB--CG-[CD] |==|  0.25748
USER: genes 16 Torsion [CB]-CG--CD-[OE1] |==|  0.04785
USER: genes 17 Torsion [N]-CA--C-[N] |==|  0.60743
USER: genes 18 Torsion [C]-N--CA-[CB] |==|  0.44735
USER: genes 19 Torsion [N]-CA--C-[O] |==|  0.35672
USER: genes 20 Torsion [N]-CA--CB-[CG] |==|  0.90238
USER: genes 21 Torsion [CA]-CB--CG-[CD] |==|  0.82657
USER: genes 22 Torsion [CB]-CG--CD-[CE] |==|  0.69331
USER: genes 23 Torsion [CG]-CD--CE-[NZ] |==|  0.46587
USER: genes 24 Torsion [CD]-CE--NZ-[HZ3] |==|  0.46829
USER: genes 25 Torsion [N]-CA--CB-[CG] |==|  0.94537
USER: genes 26 Torsion [CA]-CB--CG-[CD1] |==|  0.75444
ROOT
ATOM      1  CA  PHE G   7      -1.741   4.895   2.716  1.00 26.45 LIG 0.18  C 
ENDROOT
BRANCH 1 2
ATOM      2  N   PHE G   7      -1.420   3.580   2.198  1.00 22.76 LIG-0.35  N 
ATOM      3  C   GLN G   6      -1.878   2.470   2.772  1.00 25.23 LIG 0.24  C 
ATOM      4 O    GLN G   6      -2.717   2.419   3.668  1.00 25.88 LIG-0.27  OA
ATOM      5 H    PHE G   7      -0.916   3.587   1.501  1.00 22.76 LIG 0.16  HD
BRANCH 3 6
ATOM      6  CA  GLN G   6      -1.318   1.177   2.244  1.00 22.93 LIG 0.18  C 
BRANCH 6 7
ATOM      7  CB  GLN G   6       0.035   0.898   2.907  1.00 23.17 LIG 0.04  C 
BRANCH 7 8
ATOM      8  CG  GLN G   6      -0.104   0.213   4.264  1.00 21.39 LIG 0.10  C 
BRANCH 8 9
ATOM      9  CD  GLN G   6      -0.041   1.166   5.491  1.00 22.17 LIG 0.21  C 
ATOM     10  NE2 GLN G   6      -1.202   1.488   6.022  1.00 17.24 LIG-0.37  N 
ATOM     11 21HE GLN G   6      -1.932   1.231   5.649  1.00 17.24 LIG 0.16  HD
ATOM     12 22HE GLN G   6      -1.229   1.956   6.744  1.00 17.24 LIG 0.16  HD
ATOM     13 OE1  GLN G   6       1.056   1.538   6.030  1.00 25.29 LIG-0.27  OA
ENDBRANCH 8 9
ENDBRANCH 7 8
ENDBRANCH 6 7
BRANCH 6 14
ATOM     14  N   GLN G   6      -1.218   1.217   0.798  1.00 22.68 LIG-0.35  N 
ATOM     15  C   PRO G   5      -2.279   1.541   0.072  1.00 24.61 LIG 0.24  C 
ATOM     16 O    PRO G   5      -3.400   1.786   0.539  1.00 25.71 LIG-0.27  OA
ATOM     17 H    GLN G   6      -0.444   1.021   0.478  1.00 22.68 LIG 0.16  HD
BRANCH 15 18
ATOM     18  CA  PRO G   5      -2.129   1.514  -1.424  1.00 27.09 LIG 0.18  C 
ATOM     19  CB  PRO G   5      -2.541   0.119  -1.926  1.00 27.99 LIG 0.04  C 
ATOM     20  CG  PRO G   5      -1.498  -0.254  -2.817  1.00 29.73 LIG 0.02  C 
ATOM     21  CD  PRO G   5      -0.315   0.651  -2.836  1.00 26.76 LIG 0.13  C 
ATOM     22  N   PRO G   5      -0.780   1.714  -1.941  1.00 24.34 LIG-0.34  N 
ATOM     23  C   HIS G   4      -0.077   2.794  -1.593  1.00 27.57 LIG 0.26  C 
ATOM     24 O    HIS G   4      -0.501   3.613  -0.790  1.00 27.10 LIG-0.27  OA
BRANCH 23 25
ATOM     25  CA  HIS G   4       1.300   3.027  -2.179  1.00 26.03 LIG 0.41  C 
ATOM     26  N   HIS G   4       1.212   4.516  -2.523  1.00 28.06 LIG 0.61  N 
BRANCH 25 27
ATOM     27  CB  HIS G   4       2.386   2.665  -1.166  1.00 24.96 LIG 0.11  C 
BRANCH 27 28
ATOM     28  CG  HIS G   4       2.493   1.179  -0.989  1.00 22.46 LIG 0.06  A 
ATOM     29  CD2 HIS G   4       3.186   0.248  -1.686  1.00 23.95 LIG 0.14  A 
ATOM     30 NE2  HIS G   4       2.936  -0.965  -1.093  1.00 25.16 LIG-0.25  NA
ATOM     31  CE1 HIS G   4       2.134  -0.762  -0.066  1.00 26.12 LIG 0.23  A 
ATOM     32 ND1  HIS G   4       1.827   0.521   0.024  1.00 23.55 LIG-0.24  NA
ENDBRANCH 27 28
ENDBRANCH 25 27
ENDBRANCH 23 25
ENDBRANCH 15 18
ENDBRANCH 6 14
ENDBRANCH 3 6
ENDBRANCH 1 2
BRANCH 1 33
ATOM     33  C   PHE G   7      -2.778   5.655   1.917  1.00 26.79 LIG 0.24  C 
ATOM     34  N   GLU G   8      -2.731   5.529   0.598  1.00 28.87 LIG-0.35  N 
ATOM     35 H    GLU G   8      -2.221   4.993   0.161  1.00 28.87 LIG 0.16  HD
ATOM     36 O    PHE G   7      -3.575   6.373   2.503  1.00 31.74 LIG-0.27  OA
BRANCH 34 37
ATOM     37  CA  GLU G   8      -3.628   6.376  -0.212  1.00 32.81 LIG 0.18  C 
BRANCH 37 38
ATOM     38  CB  GLU G   8      -2.825   7.367  -1.005  1.00 32.33 LIG 0.04  C 
BRANCH 38 39
ATOM     39  CG  GLU G   8      -1.419   7.540  -0.494  1.00 32.73 LIG 0.12  C 
BRANCH 39 40
ATOM     40  CD  GLU G   8      -0.483   6.592  -1.236  1.00 35.15 LIG 0.17  C 
ATOM     41 OE1  GLU G   8      -0.876   6.083  -2.321  1.00 38.54 LIG-0.65  OA
ATOM     42 OE2  GLU G   8       0.654   6.385  -0.747  1.00 38.35 LIG-0.65  OA
ENDBRANCH 39 40
ENDBRANCH 38 39
ENDBRANCH 37 38
BRANCH 37 43
ATOM     43  C   GLU G   8      -4.470   5.559  -1.166  1.00 36.20 LIG 0.24  C 
ATOM     44  N   LYS G   9      -4.691   6.050  -2.381  1.00 41.18 LIG-0.35  N 
ATOM     45 H    LYS G   9      -4.364   6.787  -2.678  1.00 41.18 LIG 0.16  HD
ATOM     46 O    GLU G   8      -4.936   4.490  -0.806  1.00 35.28 LIG-0.27  OA
BRANCH 44 47
ATOM     47  CA  LYS G   9      -5.548   5.322  -3.328  1.00 46.03 LIG 0.16  C 
BRANCH 47 48
ATOM     48  C   LYS G   9      -4.791   4.111  -3.909  1.00 47.77 LIG 0.22  C 
ATOM     49 O    LYS G   9      -5.311   2.990  -3.878  1.00 48.68 LIG-0.29  OA
ENDBRANCH 47 48
BRANCH 47 50
ATOM     50  CB  LYS G   9      -6.028   6.275  -4.439  1.00 48.34 LIG 0.03  C 
BRANCH 50 51
ATOM     51  CG  LYS G   9      -6.285   7.704  -3.947  1.00 50.79 LIG 0.00  C 
BRANCH 51 52
ATOM     52  CD  LYS G   9      -7.382   7.893  -2.892  1.00 52.72 LIG 0.03  C 
BRANCH 52 53
ATOM     53  CE  LYS G   9      -8.619   8.626  -3.450  1.00 54.14 LIG 0.23  C 
BRANCH 53 54
ATOM     54  NZ  LYS G   9      -9.864   8.615  -2.594  1.00 55.34 LIG-0.08  N 
ATOM     55 HZ3  LYS G   9     -10.455   9.194  -2.922  1.00 55.34 LIG 0.27  HD
ATOM     56 HZ1  LYS G   9     -10.217   7.799  -2.595  1.00 55.34 LIG 0.27  HD
ATOM     57 HZ2  LYS G   9      -9.653   8.846  -1.761  1.00 55.34 LIG 0.27  HD
ENDBRANCH 53 54
ENDBRANCH 52 53
ENDBRANCH 51 52
ENDBRANCH 50 51
ENDBRANCH 47 50
ENDBRANCH 44 47
ENDBRANCH 37 43
ENDBRANCH 34 37
ENDBRANCH 1 33
BRANCH 1 58
ATOM     58  CB  PHE G   7      -0.425   5.676   2.737  1.00 27.87 LIG 0.07  C 
BRANCH 58 59
ATOM     59  CG  PHE G   7       0.750   4.715   2.696  1.00 29.51 LIG-0.06  A 
ATOM     60  CD2 PHE G   7       1.487   4.313   1.617  1.00 31.96 LIG 0.01  A 
ATOM     61  CE2 PHE G   7       2.549   3.421   1.835  1.00 32.27 LIG 0.00  A 
ATOM     62  CZ  PHE G   7       2.880   3.043   3.128  1.00 29.14 LIG 0.00  A 
ATOM     63  CE1 PHE G   7       2.187   3.474   4.155  1.00 32.29 LIG 0.00  A 
ATOM     64  CD1 PHE G   7       1.134   4.316   3.936  1.00 29.45 LIG 0.01  A 
ENDBRANCH 58 59
ENDBRANCH 1 58
TORSDOF 25
ENDMDL
MODEL 10
USER: ADFR SOLUTION from run 177
USER: SCORE 18.710294 LL:  -5.911 LR: -13.708 RR:   0.000 FEB:  -6.250
USER: RMSD 2.474566
USER: SEED 176
USER: STATUS no improvement in best in 13 clusters for 5 generations
USER: GENES 27
USER: genes 0 Translation |==|  0.41669 0.40931 0.59101
USER: genes 1 Rotation |==|  0.52872 0.32064 0.63679 0.94530
USER: genes 2 Torsion [CB]-CA--N-[C] |==|  0.78810
USER: genes 3 Torsion [N]-C--CA-[N] |==|  0.34019
USER: genes 4 Torsion [C]-CA--CB-[CG] |==|  0.85704
USER: genes 5 Torsion [CA]-CB--CG-[CD] |==|  0.56678
USER: genes 6 Torsion [CB]-CG--CD-[NE2] |==|  0.75863
USER: genes 7 Torsion [C]-CA--N-[C] |==|  0.82551
USER: genes 8 Torsion [N]-C--CA-[N] |==|  0.97609
USER: genes 9 Torsion [N]-C--CA-[N] |==|  0.38423
USER: genes 10 Torsion [C]-CA--CB-[CG] |==|  0.17679
USER: genes 11 Torsion [CA]-CB--CG-[CD2] |==|  0.22503
USER: genes 12 Torsion [N]-CA--C-[N] |==|  0.02081
USER: genes 13 Torsion [C]-N--CA-[CB] |==|  0.51336
USER: genes 14 Torsion [N]-CA--CB-[CG] |==|  0.18404
USER: genes 15 Torsion [CA]-CB--CG-[CD] |==|  0.29111
USER: genes 16 Torsion [CB]-CG--CD-[OE1] |==|  0.61524
USER: genes 17 Torsion [N]-CA--C-[N] |==|  0.40159
USER: genes 18 Torsion [C]-N--CA-[CB] |==|  0.30686
USER: genes 19 Torsion [N]-CA--C-[O] |==|  0.55949
USER: genes 20 Torsion [N]-CA--CB-[CG] |==|  0.07067
USER: genes 21 Torsion [CA]-CB--CG-[CD] |==|  0.77518
USER: genes 22 Torsion [CB]-CG--CD-[CE] |==|  0.64207
USER: genes 23 Torsion [CG]-CD--CE-[NZ] |==|  0.35446
USER: genes 24 Torsion [CD]-CE--NZ-[HZ3] |==|  0.29711
USER: genes 25 Torsion [N]-CA--CB-[CG] |==|  0.94785
USER: genes 26 Torsion [CA]-CB--CG-[CD1] |==|  0.78605
ROOT
ATOM      1  CA  PHE G   7      -3.936   4.256   1.737  1.00 26.45 LIG 0.18  C 
ENDROOT
BRANCH 1 2
ATOM      2  N   PHE G   7      -3.032   3.125   1.684  1.00 22.76 LIG-0.35  N 
ATOM      3  C   GLN G   6      -1.861   3.193   1.053  1.00 25.23 LIG 0.24  C 
ATOM      4 O    GLN G   6      -1.350   4.212   0.596  1.00 25.88 LIG-0.27  OA
ATOM      5 H    PHE G   7      -3.318   2.423   2.090  1.00 22.76 LIG 0.16  HD
BRANCH 3 6
ATOM      6  CA  GLN G   6      -1.111   1.896   0.919  1.00 22.93 LIG 0.18  C 
BRANCH 6 7
ATOM      7  CB  GLN G   6       0.177   1.962   1.747  1.00 23.17 LIG 0.04  C 
BRANCH 7 8
ATOM      8  CG  GLN G   6       1.008   3.205   1.444  1.00 21.39 LIG 0.10  C 
BRANCH 8 9
ATOM      9  CD  GLN G   6       2.525   3.075   1.763  1.00 22.17 LIG 0.21  C 
ATOM     10  NE2 GLN G   6       2.874   3.366   2.999  1.00 17.24 LIG-0.37  N 
ATOM     11 21HE GLN G   6       2.290   3.675   3.549  1.00 17.24 LIG 0.16  HD
ATOM     12 22HE GLN G   6       3.686   3.247   3.255  1.00 17.24 LIG 0.16  HD
ATOM     13 OE1  GLN G   6       3.376   2.615   0.929  1.00 25.29 LIG-0.27  OA
ENDBRANCH 8 9
ENDBRANCH 7 8
ENDBRANCH 6 7
BRANCH 6 14
ATOM     14  N   GLN G   6      -0.847   1.600  -0.476  1.00 22.68 LIG-0.35  N 
ATOM     15  C   PRO G   5      -1.857   1.403  -1.311  1.00 24.61 LIG 0.24  C 
ATOM     16 O    PRO G   5      -3.051   1.414  -0.983  1.00 25.71 LIG-0.27  OA
ATOM     17 H    GLN G   6      -0.015   1.569  -0.694  1.00 22.68 LIG 0.16  HD
BRANCH 15 18
ATOM     18  CA  PRO G   5      -1.520   1.049  -2.733  1.00 27.09 LIG 0.18  C 
ATOM     19  CB  PRO G   5      -1.888  -0.428  -2.964  1.00 27.99 LIG 0.04  C 
ATOM     20  CG  PRO G   5      -0.748  -0.975  -3.612  1.00 29.73 LIG 0.02  C 
ATOM     21  CD  PRO G   5       0.442  -0.082  -3.680  1.00 26.76 LIG 0.13  C 
ATOM     22  N   PRO G   5      -0.114   1.146  -3.107  1.00 24.34 LIG-0.34  N 
ATOM     23  C   HIS G   4       0.557   2.284  -2.920  1.00 27.57 LIG 0.26  C 
ATOM     24 O    HIS G   4       0.049   3.255  -2.377  1.00 27.10 LIG-0.27  OA
BRANCH 23 25
ATOM     25  CA  HIS G   4       2.001   2.400  -3.365  1.00 26.03 LIG 0.41  C 
ATOM     26  N   HIS G   4       1.998   3.806  -3.970  1.00 28.06 LIG 0.61  N 
BRANCH 25 27
ATOM     27  CB  HIS G   4       2.947   2.213  -2.179  1.00 24.96 LIG 0.11  C 
BRANCH 27 28
ATOM     28  CG  HIS G   4       2.828   0.834  -1.599  1.00 22.46 LIG 0.06  A 
ATOM     29  CD2 HIS G   4       3.367  -0.345  -1.989  1.00 23.95 LIG 0.14  A 
ATOM     30 NE2  HIS G   4       2.940  -1.297  -1.096  1.00 25.16 LIG-0.25  NA
ATOM     31  CE1 HIS G   4       2.184  -0.702  -0.193  1.00 26.12 LIG 0.23  A 
ATOM     32 ND1  HIS G   4       2.076   0.587  -0.469  1.00 23.55 LIG-0.24  NA
ENDBRANCH 27 28
ENDBRANCH 25 27
ENDBRANCH 23 25
ENDBRANCH 15 18
ENDBRANCH 6 14
ENDBRANCH 3 6
ENDBRANCH 1 2
BRANCH 1 33
ATOM     33  C   PHE G   7      -4.131   4.975   0.418  1.00 26.79 LIG 0.24  C 
ATOM     34  N   GLU G   8      -3.592   4.416  -0.656  1.00 28.87 LIG-0.35  N 
ATOM     35 H    GLU G   8      -3.213   3.645  -0.686  1.00 28.87 LIG 0.16  HD
ATOM     36 O    PHE G   7      -4.730   6.040   0.402  1.00 31.74 LIG-0.27  OA
BRANCH 34 37
ATOM     37  CA  GLU G   8      -3.634   5.168  -1.925  1.00 32.81 LIG 0.18  C 
BRANCH 37 38
ATOM     38  CB  GLU G   8      -3.083   4.327  -3.041  1.00 32.33 LIG 0.04  C 
BRANCH 38 39
ATOM     39  CG  GLU G   8      -3.931   3.124  -3.356  1.00 32.73 LIG 0.12  C 
BRANCH 39 40
ATOM     40  CD  GLU G   8      -4.705   3.365  -4.648  1.00 35.15 LIG 0.17  C 
ATOM     41 OE1  GLU G   8      -5.911   2.997  -4.705  1.00 38.54 LIG-0.65  OA
ATOM     42 OE2  GLU G   8      -4.115   3.950  -5.588  1.00 38.35 LIG-0.65  OA
ENDBRANCH 39 40
ENDBRANCH 38 39
ENDBRANCH 37 38
BRANCH 37 43
ATOM     43  C   GLU G   8      -5.038   5.594  -2.285  1.00 36.20 LIG 0.24  C 
ATOM     44  N   LYS G   9      -5.200   6.768  -2.887  1.00 41.18 LIG-0.35  N 
ATOM     45 H    LYS G   9      -4.559   7.293  -3.116  1.00 41.18 LIG 0.16  HD
ATOM     46 O    GLU G   8      -5.984   4.874  -2.008  1.00 35.28 LIG-0.27  OA
BRANCH 44 47
ATOM     47  CA  LYS G   9      -6.549   7.256  -3.208  1.00 46.03 LIG 0.16  C 
BRANCH 47 48
ATOM     48  C   LYS G   9      -6.642   7.616  -4.705  1.00 47.77 LIG 0.22  C 
ATOM     49 O    LYS G   9      -7.520   8.392  -5.097  1.00 48.68 LIG-0.29  OA
ENDBRANCH 47 48
BRANCH 47 50
ATOM     50  CB  LYS G   9      -6.898   8.460  -2.315  1.00 48.34 LIG 0.03  C 
BRANCH 50 51
ATOM     51  CG  LYS G   9      -5.667   9.222  -1.811  1.00 50.79 LIG 0.00  C 
BRANCH 51 52
ATOM     52  CD  LYS G   9      -4.932   8.638  -0.599  1.00 52.72 LIG 0.03  C 
BRANCH 52 53
ATOM     53  CE  LYS G   9      -4.707   9.681   0.516  1.00 54.14 LIG 0.23  C 
BRANCH 53 54
ATOM     54  NZ  LYS G   9      -5.166   9.306   1.905  1.00 55.34 LIG-0.08  N 
ATOM     55 HZ3  LYS G   9      -4.458   9.131   2.415  1.00 55.34 LIG 0.27  HD
ATOM     56 HZ1  LYS G   9      -5.625   9.981   2.258  1.00 55.34 LIG 0.27  HD
ATOM     57 HZ2  LYS G   9      -5.686   8.585   1.861  1.00 55.34 LIG 0.27  HD
ENDBRANCH 53 54
ENDBRANCH 52 53
ENDBRANCH 51 52
ENDBRANCH 50 51
ENDBRANCH 47 50
ENDBRANCH 44 47
ENDBRANCH 37 43
ENDBRANCH 34 37
ENDBRANCH 1 33
BRANCH 1 58
ATOM     58  CB  PHE G   7      -3.348   5.220   2.772  1.00 27.87 LIG 0.07  C 
BRANCH 58 59
ATOM     59  CG  PHE G   7      -2.365   4.486   3.665  1.00 29.51 LIG-0.06  A 
ATOM     60  CD2 PHE G   7      -1.002   4.587   3.698  1.00 31.96 LIG 0.01  A 
ATOM     61  CE2 PHE G   7      -0.303   3.811   4.636  1.00 32.27 LIG 0.00  A 
ATOM     62  CZ  PHE G   7      -1.000   3.039   5.553  1.00 29.14 LIG 0.00  A 
ATOM     63  CE1 PHE G   7      -2.311   2.990   5.534  1.00 32.29 LIG 0.00  A 
ATOM     64  CD1 PHE G   7      -2.987   3.721   4.599  1.00 29.45 LIG 0.01  A 
ENDBRANCH 58 59
ENDBRANCH 1 58
TORSDOF 25
ENDMDL
MODEL 11
USER: ADFR SOLUTION from run 80
USER: SCORE 18.705377 LL:  -6.937 LR: -13.657 RR:   0.000 FEB:  -6.199
USER: RMSD 1.824351
USER: SEED 79
USER: STATUS no improvement in best in 4 clusters for 5 generations
USER: GENES 27
USER: genes 0 Translation |==|  0.59220 0.45619 0.52815
USER: genes 1 Rotation |==|  0.47024 0.48255 0.44189 0.99541
USER: genes 2 Torsion [CB]-CA--N-[C] |==|  0.30827
USER: genes 3 Torsion [N]-C--CA-[N] |==|  0.95826
USER: genes 4 Torsion [C]-CA--CB-[CG] |==|  0.25548
USER: genes 5 Torsion [CA]-CB--CG-[CD] |==|  0.61346
USER: genes 6 Torsion [CB]-CG--CD-[NE2] |==|  0.39559
USER: genes 7 Torsion [C]-CA--N-[C] |==|  0.81166
USER: genes 8 Torsion [N]-C--CA-[N] |==|  0.88802
USER: genes 9 Torsion [N]-C--CA-[N] |==|  0.39022
USER: genes 10 Torsion [C]-CA--CB-[CG] |==|  0.20364
USER: genes 11 Torsion [CA]-CB--CG-[CD2] |==|  0.24073
USER: genes 12 Torsion [N]-CA--C-[N] |==|  0.00384
USER: genes 13 Torsion [C]-N--CA-[CB] |==|  0.51156
USER: genes 14 Torsion [N]-CA--CB-[CG] |==|  0.10770
USER: genes 15 Torsion [CA]-CB--CG-[CD] |==|  0.51941
USER: genes 16 Torsion [CB]-CG--CD-[OE1] |==|  0.52111
USER: genes 17 Torsion [N]-CA--C-[N] |==|  0.43333
USER: genes 18 Torsion [C]-N--CA-[CB] |==|  0.33706
USER: genes 19 Torsion [N]-CA--C-[O] |==|  0.49202
USER: genes 20 Torsion [N]-CA--CB-[CG] |==|  0.97528
USER: genes 21 Torsion [CA]-CB--CG-[CD] |==|  0.75997
USER: genes 22 Torsion [CB]-CG--CD-[CE] |==|  0.49771
USER: genes 23 Torsion [CG]-CD--CE-[NZ] |==|  0.31763
USER: genes 24 Torsion [CD]-CE--NZ-[HZ3] |==|  0.16092
USER: genes 25 Torsion [N]-CA--CB-[CG] |==|  0.88559
USER: genes 26 Torsion [CA]-CB--CG-[CD1] |==|  0.78261
ROOT
ATOM      1  CA  PHE G   7      -0.513   5.346   0.558  1.00 26.45 LIG 0.18  C 
ENDROOT
BRANCH 1 2
ATOM      2  N   PHE G   7      -0.838   3.937   0.466  1.00 22.76 LIG-0.35  N 
ATOM      3  C   GLN G   6      -1.519   3.312   1.425  1.00 25.23 LIG 0.24  C 
ATOM      4 O    GLN G   6      -2.071   3.850   2.381  1.00 25.88 LIG-0.27  OA
ATOM      5 H    PHE G   7      -0.555   3.554  -0.249  1.00 22.76 LIG 0.16  HD
BRANCH 3 6
ATOM      6  CA  GLN G   6      -1.624   1.818   1.288  1.00 22.93 LIG 0.18  C 
BRANCH 6 7
ATOM      7  CB  GLN G   6      -0.761   1.144   2.360  1.00 23.17 LIG 0.04  C 
BRANCH 7 8
ATOM      8  CG  GLN G   6      -1.540   0.838   3.636  1.00 21.39 LIG 0.10  C 
BRANCH 8 9
ATOM      9  CD  GLN G   6      -0.769   1.115   4.959  1.00 22.17 LIG 0.21  C 
ATOM     10  NE2 GLN G   6      -1.488   1.608   5.945  1.00 17.24 LIG-0.37  N 
ATOM     11 21HE GLN G   6      -2.311   1.820   5.813  1.00 17.24 LIG 0.16  HD
ATOM     12 22HE GLN G   6      -1.135   1.718   6.721  1.00 17.24 LIG 0.16  HD
ATOM     13 OE1  GLN G   6       0.455   0.793   5.133  1.00 25.29 LIG-0.27  OA
ENDBRANCH 8 9
ENDBRANCH 7 8
ENDBRANCH 6 7
BRANCH 6 14
ATOM     14  N   GLN G   6      -1.255   1.400  -0.051  1.00 22.68 LIG-0.35  N 
ATOM     15  C   PRO G   5      -2.026   1.724  -1.079  1.00 24.61 LIG 0.24  C 
ATOM     16 O    PRO G   5      -3.094   2.344  -0.987  1.00 25.71 LIG-0.27  OA
ATOM     17 H    GLN G   6      -0.526   0.948  -0.106  1.00 22.68 LIG 0.16  HD
BRANCH 15 18
ATOM     18  CA  PRO G   5      -1.619   1.219  -2.436  1.00 27.09 LIG 0.18  C 
ATOM     19  CB  PRO G   5      -2.005  -0.268  -2.534  1.00 27.99 LIG 0.04  C 
ATOM     20  CG  PRO G   5      -0.843  -0.898  -3.055  1.00 29.73 LIG 0.02  C 
ATOM     21  CD  PRO G   5       0.368  -0.036  -3.147  1.00 26.76 LIG 0.13  C 
ATOM     22  N   PRO G   5      -0.193   1.254  -2.736  1.00 24.34 LIG-0.34  N 
ATOM     23  C   HIS G   4       0.492   2.395  -2.630  1.00 27.57 LIG 0.26  C 
ATOM     24 O    HIS G   4      -0.025   3.425  -2.220  1.00 27.10 LIG-0.27  OA
BRANCH 23 25
ATOM     25  CA  HIS G   4       1.960   2.440  -3.001  1.00 26.03 LIG 0.41  C 
ATOM     26  N   HIS G   4       2.032   3.801  -3.698  1.00 28.06 LIG 0.61  N 
BRANCH 25 27
ATOM     27  CB  HIS G   4       2.835   2.310  -1.754  1.00 24.96 LIG 0.11  C 
BRANCH 27 28
ATOM     28  CG  HIS G   4       2.823   0.906  -1.225  1.00 22.46 LIG 0.06  A 
ATOM     29  CD2 HIS G   4       3.580  -0.171  -1.542  1.00 23.95 LIG 0.14  A 
ATOM     30 NE2  HIS G   4       3.156  -1.208  -0.747  1.00 25.16 LIG-0.25  NA
ATOM     31  CE1 HIS G   4       2.189  -0.760   0.030  1.00 26.12 LIG 0.23  A 
ATOM     32 ND1  HIS G   4       1.943   0.512  -0.238  1.00 23.55 LIG-0.24  NA
ENDBRANCH 27 28
ENDBRANCH 25 27
ENDBRANCH 23 25
ENDBRANCH 15 18
ENDBRANCH 6 14
ENDBRANCH 3 6
ENDBRANCH 1 2
BRANCH 1 33
ATOM     33  C   PHE G   7      -0.918   6.170  -0.646  1.00 26.79 LIG 0.24  C 
ATOM     34  N   GLU G   8      -1.541   5.534  -1.628  1.00 28.87 LIG-0.35  N 
ATOM     35 H    GLU G   8      -1.809   4.717  -1.608  1.00 28.87 LIG 0.16  HD
ATOM     36 O    PHE G   7      -0.624   7.356  -0.683  1.00 31.74 LIG-0.27  OA
BRANCH 34 37
ATOM     37  CA  GLU G   8      -1.811   6.275  -2.875  1.00 32.81 LIG 0.18  C 
BRANCH 37 38
ATOM     38  CB  GLU G   8      -2.608   5.422  -3.819  1.00 32.33 LIG 0.04  C 
BRANCH 38 39
ATOM     39  CG  GLU G   8      -3.658   4.590  -3.132  1.00 32.73 LIG 0.12  C 
BRANCH 39 40
ATOM     40  CD  GLU G   8      -4.295   3.635  -4.135  1.00 35.15 LIG 0.17  C 
ATOM     41 OE1  GLU G   8      -5.298   2.960  -3.772  1.00 38.54 LIG-0.65  OA
ATOM     42 OE2  GLU G   8      -3.811   3.587  -5.292  1.00 38.35 LIG-0.65  OA
ENDBRANCH 39 40
ENDBRANCH 38 39
ENDBRANCH 37 38
BRANCH 37 43
ATOM     43  C   GLU G   8      -2.569   7.557  -2.619  1.00 36.20 LIG 0.24  C 
ATOM     44  N   LYS G   9      -2.463   8.534  -3.514  1.00 41.18 LIG-0.35  N 
ATOM     45 H    LYS G   9      -2.017   8.480  -4.248  1.00 41.18 LIG 0.16  HD
ATOM     46 O    GLU G   8      -3.241   7.678  -1.608  1.00 35.28 LIG-0.27  OA
BRANCH 44 47
ATOM     47  CA  LYS G   9      -3.135   9.822  -3.288  1.00 46.03 LIG 0.16  C 
BRANCH 47 48
ATOM     48  C   LYS G   9      -4.221  10.051  -4.358  1.00 47.77 LIG 0.22  C 
ATOM     49 O    LYS G   9      -4.934  11.060  -4.304  1.00 48.68 LIG-0.29  OA
ENDBRANCH 47 48
BRANCH 47 50
ATOM     50  CB  LYS G   9      -2.098  10.960  -3.281  1.00 48.34 LIG 0.03  C 
BRANCH 50 51
ATOM     51  CG  LYS G   9      -0.648  10.463  -3.289  1.00 50.79 LIG 0.00  C 
BRANCH 51 52
ATOM     52  CD  LYS G   9      -0.011  10.144  -1.930  1.00 52.72 LIG 0.03  C 
BRANCH 52 53
ATOM     53  CE  LYS G   9       1.439   9.635  -2.062  1.00 54.14 LIG 0.23  C 
BRANCH 53 54
ATOM     54  NZ  LYS G   9       2.526  10.514  -1.490  1.00 55.34 LIG-0.08  N 
ATOM     55 HZ3  LYS G   9       2.373  10.651  -0.624  1.00 55.34 LIG 0.27  HD
ATOM     56 HZ1  LYS G   9       3.315  10.115  -1.592  1.00 55.34 LIG 0.27  HD
ATOM     57 HZ2  LYS G   9       2.532  11.294  -1.917  1.00 55.34 LIG 0.27  HD
ENDBRANCH 53 54
ENDBRANCH 52 53
ENDBRANCH 51 52
ENDBRANCH 50 51
ENDBRANCH 47 50
ENDBRANCH 44 47
ENDBRANCH 37 43
ENDBRANCH 34 37
ENDBRANCH 1 33
BRANCH 1 58
ATOM     58  CB  PHE G   7       1.004   5.420   0.752  1.00 27.87 LIG 0.07  C 
BRANCH 58 59
ATOM     59  CG  PHE G   7       1.457   4.340   1.718  1.00 29.51 LIG-0.06  A 
ATOM     60  CD2 PHE G   7       2.140   3.187   1.450  1.00 31.96 LIG 0.01  A 
ATOM     61  CE2 PHE G   7       2.466   2.344   2.525  1.00 32.27 LIG 0.00  A 
ATOM     62  CZ  PHE G   7       2.173   2.735   3.823  1.00 29.14 LIG 0.00  A 
ATOM     63  CE1 PHE G   7       1.556   3.867   4.063  1.00 32.29 LIG 0.00  A 
ATOM     64  CD1 PHE G   7       1.211   4.669   3.013  1.00 29.45 LIG 0.01  A 
ENDBRANCH 58 59
ENDBRANCH 1 58
TORSDOF 25
ENDMDL
MODEL 12
USER: ADFR SOLUTION from run 20
USER: SCORE 17.739818 LL:  -5.960 LR: -13.619 RR:   0.000 FEB:  -6.162
USER: RMSD 1.844736
USER: SEED 19
USER: STATUS no improvement in best in 3 clusters for 5 generations
USER: GENES 27
USER: genes 0 Translation |==|  0.49773 0.41480 0.60158
USER: genes 1 Rotation |==|  0.54242 0.48354 0.61185 0.98520
USER: genes 2 Torsion [CB]-CA--N-[C] |==|  0.34642
USER: genes 3 Torsion [N]-C--CA-[N] |==|  0.89440
USER: genes 4 Torsion [C]-CA--CB-[CG] |==|  0.20445
USER: genes 5 Torsion [CA]-CB--CG-[CD] |==|  0.52108
USER: genes 6 Torsion [CB]-CG--CD-[NE2] |==|  0.87827
USER: genes 7 Torsion [C]-CA--N-[C] |==|  0.85569
USER: genes 8 Torsion [N]-C--CA-[N] |==|  0.94510
USER: genes 9 Torsion [N]-C--CA-[N] |==|  0.38442
USER: genes 10 Torsion [C]-CA--CB-[CG] |==|  0.16409
USER: genes 11 Torsion [CA]-CB--CG-[CD2] |==|  0.23388
USER: genes 12 Torsion [N]-CA--C-[N] |==|  0.78343
USER: genes 13 Torsion [C]-N--CA-[CB] |==|  0.85556
USER: genes 14 Torsion [N]-CA--CB-[CG] |==|  0.80054
USER: genes 15 Torsion [CA]-CB--CG-[CD] |==|  0.57757
USER: genes 16 Torsion [CB]-CG--CD-[OE1] |==|  0.54233
USER: genes 17 Torsion [N]-CA--C-[N] |==|  0.36944
USER: genes 18 Torsion [C]-N--CA-[CB] |==|  0.33491
USER: genes 19 Torsion [N]-CA--C-[O] |==|  0.37564
USER: genes 20 Torsion [N]-CA--CB-[CG] |==|  0.92195
USER: genes 21 Torsion [CA]-CB--CG-[CD] |==|  0.73610
USER: genes 22 Torsion [CB]-CG--CD-[CE] |==|  0.50190
USER: genes 23 Torsion [CG]-CD--CE-[NZ] |==|  0.12702
USER: genes 24 Torsion [CD]-CE--NZ-[HZ3] |==|  0.18186
USER: genes 25 Torsion [N]-CA--CB-[CG] |==|  0.94557
USER: genes 26 Torsion [CA]-CB--CG-[CD1] |==|  0.73659
ROOT
ATOM      1  CA  PHE G   7      -2.355   4.384   1.935  1.00 26.45 LIG 0.18  C 
ENDROOT
BRANCH 1 2
ATOM      2  N   PHE G   7      -1.725   3.164   1.475  1.00 22.76 LIG-0.35  N 
ATOM      3  C   GLN G   6      -1.980   1.986   2.042  1.00 25.23 LIG 0.24  C 
ATOM      4 O    GLN G   6      -2.854   1.766   2.877  1.00 25.88 LIG-0.27  OA
ATOM      5 H    PHE G   7      -1.183   3.271   0.815  1.00 22.76 LIG 0.16  HD
BRANCH 3 6
ATOM      6  CA  GLN G   6      -1.121   0.838   1.588  1.00 22.93 LIG 0.18  C 
BRANCH 6 7
ATOM      7  CB  GLN G   6       0.170   0.807   2.414  1.00 23.17 LIG 0.04  C 
BRANCH 7 8
ATOM      8  CG  GLN G   6      -0.056   0.308   3.839  1.00 21.39 LIG 0.10  C 
BRANCH 8 9
ATOM      9  CD  GLN G   6       1.178   0.429   4.779  1.00 22.17 LIG 0.21  C 
ATOM     10  NE2 GLN G   6       2.329   0.059   4.258  1.00 17.24 LIG-0.37  N 
ATOM     11 21HE GLN G   6       2.354  -0.289   3.472  1.00 17.24 LIG 0.16  HD
ATOM     12 22HE GLN G   6       3.057   0.167   4.703  1.00 17.24 LIG 0.16  HD
ATOM     13 OE1  GLN G   6       1.119   0.948   5.944  1.00 25.29 LIG-0.27  OA
ENDBRANCH 8 9
ENDBRANCH 7 8
ENDBRANCH 6 7
BRANCH 6 14
ATOM     14  N   GLN G   6      -0.855   0.930   0.166  1.00 22.68 LIG-0.35  N 
ATOM     15  C   PRO G   5      -1.861   1.079  -0.685  1.00 24.61 LIG 0.24  C 
ATOM     16 O    PRO G   5      -3.056   1.110  -0.360  1.00 25.71 LIG-0.27  OA
ATOM     17 H    GLN G   6      -0.026   0.882  -0.057  1.00 22.68 LIG 0.16  HD
BRANCH 15 18
ATOM     18  CA  PRO G   5      -1.528   1.116  -2.151  1.00 27.09 LIG 0.18  C 
ATOM     19  CB  PRO G   5      -1.767  -0.287  -2.737  1.00 27.99 LIG 0.04  C 
ATOM     20  CG  PRO G   5      -0.598  -0.551  -3.500  1.00 29.73 LIG 0.02  C 
ATOM     21  CD  PRO G   5       0.505   0.438  -3.349  1.00 26.76 LIG 0.13  C 
ATOM     22  N   PRO G   5      -0.145   1.431  -2.491  1.00 24.34 LIG-0.34  N 
ATOM     23  C   HIS G   4       0.425   2.547  -2.031  1.00 27.57 LIG 0.26  C 
ATOM     24 O    HIS G   4      -0.155   3.304  -1.266  1.00 27.10 LIG-0.27  OA
BRANCH 23 25
ATOM     25  CA  HIS G   4       1.841   2.901  -2.435  1.00 26.03 LIG 0.41  C 
ATOM     26  N   HIS G   4       1.698   4.406  -2.675  1.00 28.06 LIG 0.61  N 
BRANCH 25 27
ATOM     27  CB  HIS G   4       2.828   2.518  -1.333  1.00 24.96 LIG 0.11  C 
BRANCH 27 28
ATOM     28  CG  HIS G   4       2.768   1.049  -1.035  1.00 22.46 LIG 0.06  A 
ATOM     29  CD2 HIS G   4       3.373  -0.006  -1.630  1.00 23.95 LIG 0.14  A 
ATOM     30 NE2  HIS G   4       2.977  -1.132  -0.951  1.00 25.16 LIG-0.25  NA
ATOM     31  CE1 HIS G   4       2.174  -0.760   0.028  1.00 26.12 LIG 0.23  A 
ATOM     32 ND1  HIS G   4       2.006   0.552   0.004  1.00 23.55 LIG-0.24  NA
ENDBRANCH 27 28
ENDBRANCH 25 27
ENDBRANCH 23 25
ENDBRANCH 15 18
ENDBRANCH 6 14
ENDBRANCH 3 6
ENDBRANCH 1 2
BRANCH 1 33
ATOM     33  C   PHE G   7      -3.303   5.022   0.942  1.00 26.79 LIG 0.24  C 
ATOM     34  N   GLU G   8      -2.760   5.711  -0.051  1.00 28.87 LIG-0.35  N 
ATOM     35 H    GLU G   8      -1.920   5.760  -0.229  1.00 28.87 LIG 0.16  HD
ATOM     36 O    PHE G   7      -4.509   4.914   1.114  1.00 31.74 LIG-0.27  OA
BRANCH 34 37
ATOM     37  CA  GLU G   8      -3.657   6.469  -0.944  1.00 32.81 LIG 0.18  C 
BRANCH 37 38
ATOM     38  CB  GLU G   8      -4.745   5.573  -1.462  1.00 32.33 LIG 0.04  C 
BRANCH 38 39
ATOM     39  CG  GLU G   8      -4.260   4.568  -2.472  1.00 32.73 LIG 0.12  C 
BRANCH 39 40
ATOM     40  CD  GLU G   8      -5.397   4.203  -3.422  1.00 35.15 LIG 0.17  C 
ATOM     41 OE1  GLU G   8      -5.274   3.176  -4.143  1.00 38.54 LIG-0.65  OA
ATOM     42 OE2  GLU G   8      -6.422   4.928  -3.419  1.00 38.35 LIG-0.65  OA
ENDBRANCH 39 40
ENDBRANCH 38 39
ENDBRANCH 37 38
BRANCH 37 43
ATOM     43  C   GLU G   8      -4.291   7.648  -0.242  1.00 36.20 LIG 0.24  C 
ATOM     44  N   LYS G   9      -4.285   8.822  -0.865  1.00 41.18 LIG-0.35  N 
ATOM     45 H    LYS G   9      -3.973   8.956  -1.655  1.00 41.18 LIG 0.16  HD
ATOM     46 O    GLU G   8      -4.775   7.508   0.869  1.00 35.28 LIG-0.27  OA
BRANCH 44 47
ATOM     47  CA  LYS G   9      -4.838  10.013  -0.204  1.00 46.03 LIG 0.16  C 
BRANCH 47 48
ATOM     48  C   LYS G   9      -6.063  10.533  -0.984  1.00 47.77 LIG 0.22  C 
ATOM     49 O    LYS G   9      -7.086  10.863  -0.372  1.00 48.68 LIG-0.29  OA
ENDBRANCH 47 48
BRANCH 47 50
ATOM     50  CB  LYS G   9      -3.750  11.095  -0.075  1.00 48.34 LIG 0.03  C 
BRANCH 50 51
ATOM     51  CG  LYS G   9      -2.330  10.523   0.010  1.00 50.79 LIG 0.00  C 
BRANCH 51 52
ATOM     52  CD  LYS G   9      -1.744  10.316   1.413  1.00 52.72 LIG 0.03  C 
BRANCH 52 53
ATOM     53  CE  LYS G   9      -0.308   9.754   1.377  1.00 54.14 LIG 0.23  C 
BRANCH 53 54
ATOM     54  NZ  LYS G   9       0.654  10.397   0.406  1.00 55.34 LIG-0.08  N 
ATOM     55 HZ3  LYS G   9       0.801  11.241   0.649  1.00 55.34 LIG 0.27  HD
ATOM     56 HZ1  LYS G   9       1.422   9.950   0.409  1.00 55.34 LIG 0.27  HD
ATOM     57 HZ2  LYS G   9       0.305  10.381  -0.412  1.00 55.34 LIG 0.27  HD
ENDBRANCH 53 54
ENDBRANCH 52 53
ENDBRANCH 51 52
ENDBRANCH 50 51
ENDBRANCH 47 50
ENDBRANCH 44 47
ENDBRANCH 37 43
ENDBRANCH 34 37
ENDBRANCH 1 33
BRANCH 1 58
ATOM     58  CB  PHE G   7      -1.215   5.353   2.261  1.00 27.87 LIG 0.07  C 
BRANCH 58 59
ATOM     59  CG  PHE G   7       0.079   4.584   2.460  1.00 29.51 LIG-0.06  A 
ATOM     60  CD2 PHE G   7       1.028   4.256   1.532  1.00 31.96 LIG 0.01  A 
ATOM     61  CE2 PHE G   7       2.161   3.549   1.964  1.00 32.27 LIG 0.00  A 
ATOM     62  CZ  PHE G   7       2.334   3.280   3.313  1.00 29.14 LIG 0.00  A 
ATOM     63  CE1 PHE G   7       1.433   3.641   4.195  1.00 32.29 LIG 0.00  A 
ATOM     64  CD1 PHE G   7       0.316   4.301   3.766  1.00 29.45 LIG 0.01  A 
ENDBRANCH 58 59
ENDBRANCH 1 58
TORSDOF 25
ENDMDL
MODEL 13
USER: ADFR SOLUTION from run 65
USER: SCORE 18.155101 LL:  -7.063 LR: -13.200 RR:   0.000 FEB:  -5.742
USER: RMSD 2.659693
USER: SEED 64
USER: STATUS no improvement in best in 6 clusters for 5 generations
USER: GENES 27
USER: genes 0 Translation |==|  0.53069 0.45024 0.54761
USER: genes 1 Rotation |==|  0.47976 0.49207 0.50620 0.99949
USER: genes 2 Torsion [CB]-CA--N-[C] |==|  0.42052
USER: genes 3 Torsion [N]-C--CA-[N] |==|  0.87314
USER: genes 4 Torsion [C]-CA--CB-[CG] |==|  0.16828
USER: genes 5 Torsion [CA]-CB--CG-[CD] |==|  0.60577
USER: genes 6 Torsion [CB]-CG--CD-[NE2] |==|  0.59861
USER: genes 7 Torsion [C]-CA--N-[C] |==|  0.85434
USER: genes 8 Torsion [N]-C--CA-[N] |==|  0.91431
USER: genes 9 Torsion [N]-C--CA-[N] |==|  0.22310
USER: genes 10 Torsion [C]-CA--CB-[CG] |==|  0.16877
USER: genes 11 Torsion [CA]-CB--CG-[CD2] |==|  0.06945
USER: genes 12 Torsion [N]-CA--C-[N] |==|  0.93332
USER: genes 13 Torsion [C]-N--CA-[CB] |==|  0.48333
USER: genes 14 Torsion [N]-CA--CB-[CG] |==|  0.11019
USER: genes 15 Torsion [CA]-CB--CG-[CD] |==|  0.31300
USER: genes 16 Torsion [CB]-CG--CD-[OE1] |==|  0.64030
USER: genes 17 Torsion [N]-CA--C-[N] |==|  0.43596
USER: genes 18 Torsion [C]-N--CA-[CB] |==|  0.29768
USER: genes 19 Torsion [N]-CA--C-[O] |==|  0.12067
USER: genes 20 Torsion [N]-CA--CB-[CG] |==|  0.90346
USER: genes 21 Torsion [CA]-CB--CG-[CD] |==|  0.65835
USER: genes 22 Torsion [CB]-CG--CD-[CE] |==|  0.48991
USER: genes 23 Torsion [CG]-CD--CE-[NZ] |==|  0.44366
USER: genes 24 Torsion [CD]-CE--NZ-[HZ3] |==|  0.34927
USER: genes 25 Torsion [N]-CA--CB-[CG] |==|  0.30421
USER: genes 26 Torsion [CA]-CB--CG-[CD1] |==|  0.73875
ROOT
ATOM      1  CA  PHE G   7      -1.713   5.208   0.923  1.00 26.45 LIG 0.18  C 
ENDROOT
BRANCH 1 2
ATOM      2  N   PHE G   7      -1.675   3.766   0.789  1.00 22.76 LIG-0.35  N 
ATOM      3  C   GLN G   6      -2.681   2.998   1.203  1.00 25.23 LIG 0.24  C 
ATOM      4 O    GLN G   6      -3.779   3.396   1.582  1.00 25.88 LIG-0.27  OA
ATOM      5 H    PHE G   7      -0.957   3.462   0.426  1.00 22.76 LIG 0.16  HD
BRANCH 3 6
ATOM      6  CA  GLN G   6      -2.431   1.515   1.173  1.00 22.93 LIG 0.18  C 
BRANCH 6 7
ATOM      7  CB  GLN G   6      -1.578   1.115   2.381  1.00 23.17 LIG 0.04  C 
BRANCH 7 8
ATOM      8  CG  GLN G   6      -2.254   1.437   3.712  1.00 21.39 LIG 0.10  C 
BRANCH 8 9
ATOM      9  CD  GLN G   6      -1.299   1.951   4.827  1.00 22.17 LIG 0.21  C 
ATOM     10  NE2 GLN G   6      -1.594   1.566   6.051  1.00 17.24 LIG-0.37  N 
ATOM     11 21HE GLN G   6      -2.315   1.121   6.200  1.00 17.24 LIG 0.16  HD
ATOM     12 22HE GLN G   6      -1.066   1.759   6.702  1.00 17.24 LIG 0.16  HD
ATOM     13 OE1  GLN G   6      -0.234   2.612   4.583  1.00 25.29 LIG-0.27  OA
ENDBRANCH 8 9
ENDBRANCH 7 8
ENDBRANCH 6 7
BRANCH 6 14
ATOM     14  N   GLN G   6      -1.815   1.126  -0.081  1.00 22.68 LIG-0.35  N 
ATOM     15  C   PRO G   5      -2.372   1.485  -1.229  1.00 24.61 LIG 0.24  C 
ATOM     16 O    PRO G   5      -3.434   2.116  -1.326  1.00 25.71 LIG-0.27  OA
ATOM     17 H    GLN G   6      -1.092   0.666  -0.008  1.00 22.68 LIG 0.16  HD
BRANCH 15 18
ATOM     18  CA  PRO G   5      -1.717   1.008  -2.495  1.00 27.09 LIG 0.18  C 
ATOM     19  CB  PRO G   5      -2.275  -0.386  -2.834  1.00 27.99 LIG 0.04  C 
ATOM     20  CG  PRO G   5      -1.122  -1.162  -3.128  1.00 29.73 LIG 0.02  C 
ATOM     21  CD  PRO G   5       0.184  -0.505  -2.843  1.00 26.76 LIG 0.13  C 
ATOM     22  N   PRO G   5      -0.271   0.829  -2.446  1.00 24.34 LIG-0.34  N 
ATOM     23  C   HIS G   4       0.521   1.834  -2.065  1.00 27.57 LIG 0.26  C 
ATOM     24 O    HIS G   4       0.071   2.906  -1.685  1.00 27.10 LIG-0.27  OA
BRANCH 23 25
ATOM     25  CA  HIS G   4       2.026   1.663  -2.073  1.00 26.03 LIG 0.41  C 
ATOM     26  N   HIS G   4       2.328   1.886  -3.557  1.00 28.06 LIG 0.61  N 
BRANCH 25 27
ATOM     27  CB  HIS G   4       2.687   2.664  -1.125  1.00 24.96 LIG 0.11  C 
BRANCH 27 28
ATOM     28  CG  HIS G   4       2.222   2.466   0.287  1.00 22.46 LIG 0.06  A 
ATOM     29  CD2 HIS G   4       1.728   1.373   0.916  1.00 23.95 LIG 0.14  A 
ATOM     30 NE2  HIS G   4       1.467   1.741   2.214  1.00 25.16 LIG-0.25  NA
ATOM     31  CE1 HIS G   4       1.809   3.007   2.358  1.00 26.12 LIG 0.23  A 
ATOM     32 ND1  HIS G   4       2.256   3.490   1.211  1.00 23.55 LIG-0.24  NA
ENDBRANCH 27 28
ENDBRANCH 25 27
ENDBRANCH 23 25
ENDBRANCH 15 18
ENDBRANCH 6 14
ENDBRANCH 3 6
ENDBRANCH 1 2
BRANCH 1 33
ATOM     33  C   PHE G   7      -2.376   5.935  -0.228  1.00 26.79 LIG 0.24  C 
ATOM     34  N   GLU G   8      -2.403   5.311  -1.397  1.00 28.87 LIG-0.35  N 
ATOM     35 H    GLU G   8      -2.152   4.501  -1.541  1.00 28.87 LIG 0.16  HD
ATOM     36 O    PHE G   7      -2.815   7.061  -0.048  1.00 31.74 LIG-0.27  OA
BRANCH 34 37
ATOM     37  CA  GLU G   8      -2.904   6.054  -2.569  1.00 32.81 LIG 0.18  C 
BRANCH 37 38
ATOM     38  CB  GLU G   8      -2.720   5.235  -3.815  1.00 32.33 LIG 0.04  C 
BRANCH 38 39
ATOM     39  CG  GLU G   8      -3.013   3.772  -3.617  1.00 32.73 LIG 0.12  C 
BRANCH 39 40
ATOM     40  CD  GLU G   8      -4.261   3.387  -4.407  1.00 35.15 LIG 0.17  C 
ATOM     41 OE1  GLU G   8      -5.180   2.760  -3.812  1.00 38.54 LIG-0.65  OA
ATOM     42 OE2  GLU G   8      -4.329   3.741  -5.608  1.00 38.35 LIG-0.65  OA
ENDBRANCH 39 40
ENDBRANCH 38 39
ENDBRANCH 37 38
BRANCH 37 43
ATOM     43  C   GLU G   8      -4.366   6.409  -2.432  1.00 36.20 LIG 0.24  C 
ATOM     44  N   LYS G   9      -4.828   7.436  -3.138  1.00 41.18 LIG-0.35  N 
ATOM     45 H    LYS G   9      -4.362   7.897  -3.695  1.00 41.18 LIG 0.16  HD
ATOM     46 O    GLU G   8      -5.081   5.770  -1.678  1.00 35.28 LIG-0.27  OA
BRANCH 44 47
ATOM     47  CA  LYS G   9      -6.229   7.859  -3.000  1.00 46.03 LIG 0.16  C 
BRANCH 47 48
ATOM     48  C   LYS G   9      -6.887   7.985  -4.390  1.00 47.77 LIG 0.22  C 
ATOM     49 O    LYS G   9      -6.689   7.113  -5.243  1.00 48.68 LIG-0.29  OA
ENDBRANCH 47 48
BRANCH 47 50
ATOM     50  CB  LYS G   9      -6.302   9.184  -2.218  1.00 48.34 LIG 0.03  C 
BRANCH 50 51
ATOM     51  CG  LYS G   9      -5.235   9.305  -1.124  1.00 50.79 LIG 0.00  C 
BRANCH 51 52
ATOM     52  CD  LYS G   9      -5.728   9.548   0.308  1.00 52.72 LIG 0.03  C 
BRANCH 52 53
ATOM     53  CE  LYS G   9      -4.577   9.564   1.335  1.00 54.14 LIG 0.23  C 
BRANCH 53 54
ATOM     54  NZ  LYS G   9      -4.849  10.243   2.656  1.00 55.34 LIG-0.08  N 
ATOM     55 HZ3  LYS G   9      -4.670   9.681   3.322  1.00 55.34 LIG 0.27  HD
ATOM     56 HZ1  LYS G   9      -4.334  10.964   2.731  1.00 55.34 LIG 0.27  HD
ATOM     57 HZ2  LYS G   9      -5.705  10.485   2.695  1.00 55.34 LIG 0.27  HD
ENDBRANCH 53 54
ENDBRANCH 52 53
ENDBRANCH 51 52
ENDBRANCH 50 51
ENDBRANCH 47 50
ENDBRANCH 44 47
ENDBRANCH 37 43
ENDBRANCH 34 37
ENDBRANCH 1 33
BRANCH 1 58
ATOM     58  CB  PHE G   7      -0.255   5.660   1.053  1.00 27.87 LIG 0.07  C 
BRANCH 58 59
ATOM     59  CG  PHE G   7       0.176   6.391  -0.205  1.00 29.51 LIG-0.06  A 
ATOM     60  CD2 PHE G   7       0.117   7.730  -0.477  1.00 31.96 LIG 0.01  A 
ATOM     61  CE2 PHE G   7       0.599   8.177  -1.717  1.00 32.27 LIG 0.00  A 
ATOM     62  CZ  PHE G   7       1.197   7.280  -2.590  1.00 29.14 LIG 0.00  A 
ATOM     63  CE1 PHE G   7       1.284   6.005  -2.293  1.00 32.29 LIG 0.00  A 
ATOM     64  CD1 PHE G   7       0.784   5.569  -1.099  1.00 29.45 LIG 0.01  A 
ENDBRANCH 58 59
ENDBRANCH 1 58
TORSDOF 25
ENDMDL
MODEL 14
USER: ADFR SOLUTION from run 177
USER: SCORE 19.167345 LL:  -7.911 LR: -13.028 RR:   0.000 FEB:  -5.571
USER: RMSD 3.757224
USER: SEED 176
USER: STATUS no improvement in best in 13 clusters for 5 generations
USER: GENES 27
USER: genes 0 Translation |==|  0.40845 0.42265 0.57108
USER: genes 1 Rotation |==|  0.52816 0.28268 0.61564 0.93429
USER: genes 2 Torsion [CB]-CA--N-[C] |==|  0.29913
USER: genes 3 Torsion [N]-C--CA-[N] |==|  0.90891
USER: genes 4 Torsion [C]-CA--CB-[CG] |==|  0.92311
USER: genes 5 Torsion [CA]-CB--CG-[CD] |==|  0.56335
USER: genes 6 Torsion [CB]-CG--CD-[NE2] |==|  0.79917
USER: genes 7 Torsion [C]-CA--N-[C] |==|  0.81627
USER: genes 8 Torsion [N]-C--CA-[N] |==|  0.96265
USER: genes 9 Torsion [N]-C--CA-[N] |==|  0.33171
USER: genes 10 Torsion [C]-CA--CB-[CG] |==|  0.20602
USER: genes 11 Torsion [CA]-CB--CG-[CD2] |==|  0.37837
USER: genes 12 Torsion [N]-CA--C-[N] |==|  0.02107
USER: genes 13 Torsion [C]-N--CA-[CB] |==|  0.51667
USER: genes 14 Torsion [N]-CA--CB-[CG] |==|  0.10693
USER: genes 15 Torsion [CA]-CB--CG-[CD] |==|  0.27704
USER: genes 16 Torsion [CB]-CG--CD-[OE1] |==|  0.66342
USER: genes 17 Torsion [N]-CA--C-[N] |==|  0.43152
USER: genes 18 Torsion [C]-N--CA-[CB] |==|  0.82827
USER: genes 19 Torsion [N]-CA--C-[O] |==|  0.48132
USER: genes 20 Torsion [N]-CA--CB-[CG] |==|  0.91078
USER: genes 21 Torsion [CA]-CB--CG-[CD] |==|  0.82661
USER: genes 22 Torsion [CB]-CG--CD-[CE] |==|  0.32801
USER: genes 23 Torsion [CG]-CD--CE-[NZ] |==|  0.24822
USER: genes 24 Torsion [CD]-CE--NZ-[HZ3] |==|  0.24269
USER: genes 25 Torsion [N]-CA--CB-[CG] |==|  0.24696
USER: genes 26 Torsion [CA]-CB--CG-[CD1] |==|  0.76969
ROOT
ATOM      1  CA  PHE G   7      -4.096   4.567   1.363  1.00 26.45 LIG 0.18  C 
ENDROOT
BRANCH 1 2
ATOM      2  N   PHE G   7      -3.273   3.375   1.353  1.00 22.76 LIG-0.35  N 
ATOM      3  C   GLN G   6      -3.754   2.188   1.720  1.00 25.23 LIG 0.24  C 
ATOM      4 O    GLN G   6      -4.933   1.931   1.948  1.00 25.88 LIG-0.27  OA
ATOM      5 H    PHE G   7      -2.463   3.504   1.093  1.00 22.76 LIG 0.16  HD
BRANCH 3 6
ATOM      6  CA  GLN G   6      -2.745   1.078   1.838  1.00 22.93 LIG 0.18  C 
BRANCH 6 7
ATOM      7  CB  GLN G   6      -2.210   1.024   3.273  1.00 23.17 LIG 0.04  C 
BRANCH 7 8
ATOM      8  CG  GLN G   6      -2.260   2.380   3.971  1.00 21.39 LIG 0.10  C 
BRANCH 8 9
ATOM      9  CD  GLN G   6      -1.269   2.544   5.160  1.00 22.17 LIG 0.21  C 
ATOM     10  NE2 GLN G   6      -1.574   1.873   6.251  1.00 17.24 LIG-0.37  N 
ATOM     11 21HE GLN G   6      -2.315   1.440   6.297  1.00 17.24 LIG 0.16  HD
ATOM     12 22HE GLN G   6      -1.030   1.867   6.918  1.00 17.24 LIG 0.16  HD
ATOM     13 OE1  GLN G   6      -0.174   3.193   5.070  1.00 25.29 LIG-0.27  OA
ENDBRANCH 8 9
ENDBRANCH 7 8
ENDBRANCH 6 7
BRANCH 6 14
ATOM     14  N   GLN G   6      -1.682   1.249   0.867  1.00 22.68 LIG-0.35  N 
ATOM     15  C   PRO G   5      -1.948   1.144  -0.428  1.00 24.61 LIG 0.24  C 
ATOM     16 O    PRO G   5      -3.061   0.867  -0.895  1.00 25.71 LIG-0.27  OA
ATOM     17 H    GLN G   6      -0.906   1.416   1.197  1.00 22.68 LIG 0.16  HD
BRANCH 15 18
ATOM     18  CA  PRO G   5      -0.795   1.279  -1.384  1.00 27.09 LIG 0.18  C 
ATOM     19  CB  PRO G   5      -0.428  -0.124  -1.900  1.00 27.99 LIG 0.04  C 
ATOM     20  CG  PRO G   5       0.986  -0.184  -1.772  1.00 29.73 LIG 0.02  C 
ATOM     21  CD  PRO G   5       1.614   0.954  -1.045  1.00 26.76 LIG 0.13  C 
ATOM     22  N   PRO G   5       0.445   1.809  -0.830  1.00 24.34 LIG-0.34  N 
ATOM     23  C   HIS G   4       0.452   2.982  -0.193  1.00 27.57 LIG 0.26  C 
ATOM     24 O    HIS G   4      -0.573   3.618   0.007  1.00 27.10 LIG-0.27  OA
BRANCH 23 25
ATOM     25  CA  HIS G   4       1.753   3.558   0.329  1.00 26.03 LIG 0.41  C 
ATOM     26  N   HIS G   4       1.814   4.872  -0.455  1.00 28.06 LIG 0.61  N 
BRANCH 25 27
ATOM     27  CB  HIS G   4       1.701   3.718   1.848  1.00 24.96 LIG 0.11  C 
BRANCH 27 28
ATOM     28  CG  HIS G   4       1.818   2.392   2.540  1.00 22.46 LIG 0.06  A 
ATOM     29  CD2 HIS G   4       2.541   2.013   3.620  1.00 23.95 LIG 0.14  A 
ATOM     30 NE2  HIS G   4       2.274   0.683   3.836  1.00 25.16 LIG-0.25  NA
ATOM     31  CE1 HIS G   4       1.408   0.285   2.923  1.00 26.12 LIG 0.23  A 
ATOM     32 ND1  HIS G   4       1.117   1.285   2.107  1.00 23.55 LIG-0.24  NA
ENDBRANCH 27 28
ENDBRANCH 25 27
ENDBRANCH 23 25
ENDBRANCH 15 18
ENDBRANCH 6 14
ENDBRANCH 3 6
ENDBRANCH 1 2
BRANCH 1 33
ATOM     33  C   PHE G   7      -4.044   5.384   0.090  1.00 26.79 LIG 0.24  C 
ATOM     34  N   GLU G   8      -3.392   4.858  -0.937  1.00 28.87 LIG-0.35  N 
ATOM     35 H    GLU G   8      -3.067   4.062  -0.972  1.00 28.87 LIG 0.16  HD
ATOM     36 O    PHE G   7      -4.560   6.492   0.071  1.00 31.74 LIG-0.27  OA
BRANCH 34 37
ATOM     37  CA  GLU G   8      -3.194   5.693  -2.136  1.00 32.81 LIG 0.18  C 
BRANCH 37 38
ATOM     38  CB  GLU G   8      -2.569   4.880  -3.234  1.00 32.33 LIG 0.04  C 
BRANCH 38 39
ATOM     39  CG  GLU G   8      -3.093   3.471  -3.305  1.00 32.73 LIG 0.12  C 
BRANCH 39 40
ATOM     40  CD  GLU G   8      -4.141   3.367  -4.408  1.00 35.15 LIG 0.17  C 
ATOM     41 OE1  GLU G   8      -5.305   2.990  -4.100  1.00 38.54 LIG-0.65  OA
ATOM     42 OE2  GLU G   8      -3.805   3.693  -5.572  1.00 38.35 LIG-0.65  OA
ENDBRANCH 39 40
ENDBRANCH 38 39
ENDBRANCH 37 38
BRANCH 37 43
ATOM     43  C   GLU G   8      -4.493   6.276  -2.642  1.00 36.20 LIG 0.24  C 
ATOM     44  N   LYS G   9      -4.440   7.395  -3.358  1.00 41.18 LIG-0.35  N 
ATOM     45 H    LYS G   9      -3.714   7.798  -3.582  1.00 41.18 LIG 0.16  HD
ATOM     46 O    GLU G   8      -5.551   5.728  -2.377  1.00 35.28 LIG-0.27  OA
BRANCH 44 47
ATOM     47  CA  LYS G   9      -5.678   8.033  -3.827  1.00 46.03 LIG 0.16  C 
BRANCH 47 48
ATOM     48  C   LYS G   9      -6.549   8.453  -2.625  1.00 47.77 LIG 0.22  C 
ATOM     49 O    LYS G   9      -7.573   9.119  -2.812  1.00 48.68 LIG-0.29  OA
ENDBRANCH 47 48
BRANCH 47 50
ATOM     50  CB  LYS G   9      -6.436   7.079  -4.768  1.00 48.34 LIG 0.03  C 
BRANCH 50 51
ATOM     51  CG  LYS G   9      -5.512   6.169  -5.585  1.00 50.79 LIG 0.00  C 
BRANCH 51 52
ATOM     52  CD  LYS G   9      -4.544   6.850  -6.560  1.00 52.72 LIG 0.03  C 
BRANCH 52 53
ATOM     53  CE  LYS G   9      -3.066   6.579  -6.212  1.00 54.14 LIG 0.23  C 
BRANCH 53 54
ATOM     54  NZ  LYS G   9      -2.432   5.355  -6.830  1.00 55.34 LIG-0.08  N 
ATOM     55 HZ3  LYS G   9      -2.102   5.562  -7.629  1.00 55.34 LIG 0.27  HD
ATOM     56 HZ1  LYS G   9      -1.776   5.063  -6.304  1.00 55.34 LIG 0.27  HD
ATOM     57 HZ2  LYS G   9      -3.046   4.717  -6.919  1.00 55.34 LIG 0.27  HD
ENDBRANCH 53 54
ENDBRANCH 52 53
ENDBRANCH 51 52
ENDBRANCH 50 51
ENDBRANCH 47 50
ENDBRANCH 44 47
ENDBRANCH 37 43
ENDBRANCH 34 37
ENDBRANCH 1 33
BRANCH 1 58
ATOM     58  CB  PHE G   7      -3.606   5.410   2.543  1.00 27.87 LIG 0.07  C 
BRANCH 58 59
ATOM     59  CG  PHE G   7      -2.486   6.330   2.095  1.00 29.51 LIG-0.06  A 
ATOM     60  CD2 PHE G   7      -2.539   7.668   1.821  1.00 31.96 LIG 0.01  A 
ATOM     61  CE2 PHE G   7      -1.353   8.314   1.437  1.00 32.27 LIG 0.00  A 
ATOM     62  CZ  PHE G   7      -0.156   7.613   1.430  1.00 29.14 LIG 0.00  A 
ATOM     63  CE1 PHE G   7      -0.118   6.339   1.739  1.00 32.29 LIG 0.00  A 
ATOM     64  CD1 PHE G   7      -1.280   5.707   2.081  1.00 29.45 LIG 0.01  A 
ENDBRANCH 58 59
ENDBRANCH 1 58
TORSDOF 25
ENDMDL
