MODEL 1
USER: ADFR SOLUTION from run 100
USER: SCORE 15.381684 LL:  -2.739 LR: -13.155 RR:   0.000 FEB:  -7.487
USER: RMSD 4.099392
USER: SEED 99
USER: STATUS no improvement in best in 32 clusters for 5 generations
USER: GENES 21
USER: genes 0 Translation |==|  0.36938 0.44745 0.55461
USER: genes 1 Rotation |==|  0.39031 0.60794 0.52109 0.97526
USER: genes 2 Torsion [C]-CA--N-[C] |==|  0.72798
USER: genes 3 Torsion [N]-C--CA-[N] |==|  0.45150
USER: genes 4 Torsion [N]-C--CA-[N] |==|  0.35060
USER: genes 5 Torsion [C]-CA--CB-[CG] |==|  0.16973
USER: genes 6 Torsion [CA]-CB--CG-[OD1] |==|  0.26327
USER: genes 7 Torsion [C]-CA--N-[C] |==|  0.81059
USER: genes 8 Torsion [N]-C--CA-[N] |==|  0.64624
USER: genes 9 Torsion [C]-CA--CB-[OG] |==|  0.48458
USER: genes 10 Torsion [CA]-CB--OG-[HG] |==|  0.65152
USER: genes 11 Torsion [N]-CA--C-[N] |==|  0.14487
USER: genes 12 Torsion [C]-N--CA-[C] |==|  0.58687
USER: genes 13 Torsion [N]-CA--C-[O] |==|  0.86793
USER: genes 14 Torsion [N]-CA--CB-[CG] |==|  0.73507
USER: genes 15 Torsion [CA]-CB--CG-[CD] |==|  0.74091
USER: genes 16 Torsion [CB]-CG--CD-[CE] |==|  0.51783
USER: genes 17 Torsion [CG]-CD--CE-[NZ] |==|  0.66604
USER: genes 18 Torsion [CD]-CE--NZ-[HZ2] |==|  0.86158
USER: genes 19 Torsion [N]-CA--CB-[CG] |==|  0.79024
USER: genes 20 Torsion [CA]-CB--CG-[CD2] |==|  0.72085
ROOT
ATOM      1  CA  TRP P 344      23.601   7.242 -15.394  1.00 32.15 LIG 0.18  C 
ENDROOT
BRANCH 1 2
ATOM      2  N   TRP P 344      24.228   8.122 -16.361  1.00 31.29 LIG-0.35  N 
ATOM      3 H    TRP P 344      23.728   8.348 -17.023  1.00 31.29 LIG 0.16  HD
ATOM      4  C   PRO P 343      25.483   8.523 -16.195  1.00 32.37 LIG 0.24  C 
ATOM      5 O    PRO P 343      26.194   8.134 -15.268  1.00 31.41 LIG-0.27  OA
BRANCH 4 6
ATOM      6  CA  PRO P 343      26.026   9.495 -17.233  1.00 33.03 LIG 0.18  C 
ATOM      7  N   PRO P 343      27.232  10.203 -16.792  1.00 34.38 LIG-0.34  N 
ATOM      8  C   ASP P 342      27.232  11.021 -15.731  1.00 36.67 LIG 0.24  C 
ATOM      9  CD  PRO P 343      28.423   9.677 -17.485  1.00 33.21 LIG 0.13  C 
ATOM     10 O    ASP P 342      26.222  11.212 -15.054  1.00 37.60 LIG-0.27  OA
ATOM     11  CG  PRO P 343      27.902   8.385 -18.092  1.00 33.09 LIG 0.02  C 
ATOM     12  CB  PRO P 343      26.501   8.772 -18.480  1.00 32.10 LIG 0.04  C 
BRANCH 8 13
ATOM     13  CA  ASP P 342      28.550  11.705 -15.377  1.00 38.79 LIG 0.19  C 
BRANCH 13 14
ATOM     14  CB  ASP P 342      29.063  11.190 -14.031  1.00 38.78 LIG 0.15  C 
BRANCH 14 15
ATOM     15  CG  ASP P 342      29.333   9.700 -14.046  1.00 39.37 LIG 0.17  C 
ATOM     16 OD2  ASP P 342      28.386   8.918 -13.825  1.00 39.72 LIG-0.65  OA
ATOM     17 OD1  ASP P 342      30.494   9.308 -14.283  1.00 40.57 LIG-0.65  OA
ENDBRANCH 14 15
ENDBRANCH 13 14
BRANCH 13 18
ATOM     18  N   ASP P 342      28.299  13.135 -15.305  1.00 40.71 LIG-0.34  N 
ATOM     19 H    ASP P 342      28.359  13.470 -14.515  1.00 40.71 LIG 0.16  HD
ATOM     20  C   SER P 341      28.002  13.839 -16.390  1.00 42.75 LIG 0.26  C 
ATOM     21 O    SER P 341      27.947  13.339 -17.515  1.00 44.14 LIG-0.27  OA
BRANCH 20 22
ATOM     22  CA  SER P 341      27.744  15.334 -16.181  1.00 43.56 LIG 0.42  C 
ATOM     23  N   SER P 341      26.436  15.751 -16.775  1.00 43.48 LIG 0.62  N 
BRANCH 22 24
ATOM     24  CB  SER P 341      27.765  15.651 -14.681  1.00 43.44 LIG 0.21  C 
BRANCH 24 25
ATOM     25 OG   SER P 341      27.656  17.049 -14.458  1.00 45.13 LIG-0.40  OA
ATOM     26 HG   SER P 341      28.297  17.308 -13.981  1.00 45.13 LIG 0.21  HD
ENDBRANCH 24 25
ENDBRANCH 22 24
ENDBRANCH 20 22
ENDBRANCH 13 18
ENDBRANCH 8 13
ENDBRANCH 4 6
ENDBRANCH 1 2
BRANCH 1 27
ATOM     27  C   TRP P 344      23.585   5.768 -15.738  1.00 32.97 LIG 0.24  C 
ATOM     28 O    TRP P 344      22.530   5.144 -15.710  1.00 31.81 LIG-0.27  OA
ATOM     29  N   LYS P 345      24.742   5.205 -16.066  1.00 34.20 LIG-0.34  N 
ATOM     30 H    LYS P 345      25.495   5.617 -16.116  1.00 34.20 LIG 0.16  HD
BRANCH 29 31
ATOM     31  CA  LYS P 345      24.789   3.780 -16.374  1.00 35.76 LIG 0.18  C 
BRANCH 31 32
ATOM     32  C   LYS P 345      26.120   3.143 -15.991  1.00 35.89 LIG 0.20  C 
ATOM     33 O    LYS P 345      27.161   3.739 -16.343  1.00 35.39 LIG-0.65  OA
ATOM     34 OXT  LYS P 345      26.101   2.079 -15.328  1.00 36.91 LIG-0.65  OA
ENDBRANCH 31 32
BRANCH 31 35
ATOM     35  CB  LYS P 345      24.493   3.539 -17.857  1.00 34.89 LIG 0.04  C 
BRANCH 35 36
ATOM     36  CG  LYS P 345      23.025   3.205 -18.138  1.00 33.69 LIG 0.00  C 
BRANCH 36 37
ATOM     37  CD  LYS P 345      22.750   1.708 -18.159  1.00 29.41 LIG 0.03  C 
BRANCH 37 38
ATOM     38  CE  LYS P 345      21.317   1.410 -18.596  1.00 29.69 LIG 0.23  C 
BRANCH 38 39
ATOM     39  NZ  LYS P 345      20.506   0.668 -17.584  1.00 27.83 LIG-0.08  N 
ATOM     40 HZ3  LYS P 345      20.330   1.202 -16.894  1.00 27.83 LIG 0.27  HD
ATOM     41 HZ1  LYS P 345      19.743   0.400 -17.954  1.00 27.83 LIG 0.27  HD
ATOM     42 HZ2  LYS P 345      20.962  -0.042 -17.301  1.00 27.83 LIG 0.27  HD
ENDBRANCH 38 39
ENDBRANCH 37 38
ENDBRANCH 36 37
ENDBRANCH 35 36
ENDBRANCH 31 35
ENDBRANCH 29 31
ENDBRANCH 1 27
BRANCH 1 43
ATOM     43  CB  TRP P 344      22.183   7.726 -15.082  1.00 30.74 LIG 0.07  C 
BRANCH 43 44
ATOM     44  CG  TRP P 344      22.179   8.927 -14.187  1.00 29.17 LIG-0.03  A 
ATOM     45  CD2 TRP P 344      21.937   8.940 -12.774  1.00 26.66 LIG-0.00  A 
ATOM     46  CE3 TRP P 344      21.626   7.951 -11.832  1.00 26.53 LIG 0.01  A 
ATOM     47  CE2 TRP P 344      22.062  10.277 -12.342  1.00 26.53 LIG 0.04  A 
ATOM     48  CZ3 TRP P 344      21.451   8.325 -10.498  1.00 24.28 LIG 0.00  A 
ATOM     49  CH2 TRP P 344      21.581   9.668 -10.105  1.00 25.87 LIG 0.00  A 
ATOM     50  CZ2 TRP P 344      21.886  10.655 -11.011  1.00 24.89 LIG 0.03  A 
ATOM     51  NE1 TRP P 344      22.368  11.035 -13.442  1.00 27.39 LIG-0.36  N 
ATOM     52  CD1 TRP P 344      22.434  10.217 -14.545  1.00 29.08 LIG 0.10  A 
ATOM     53 HE1  TRP P 344      22.497  11.885 -13.442  1.00 27.39 LIG 0.17  HD
ENDBRANCH 43 44
ENDBRANCH 1 43
TORSDOF 19
ENDMDL
MODEL 2
USER: ADFR SOLUTION from run 137
USER: SCORE 15.051908 LL:  -2.627 LR: -13.008 RR:   0.000 FEB:  -7.340
USER: RMSD 5.219376
USER: SEED 136
USER: STATUS no improvement in best in 19 clusters for 5 generations
USER: GENES 21
USER: genes 0 Translation |==|  0.44514 0.48539 0.57274
USER: genes 1 Rotation |==|  0.46106 0.52896 0.57125 0.99251
USER: genes 2 Torsion [C]-CA--N-[C] |==|  0.79307
USER: genes 3 Torsion [N]-C--CA-[N] |==|  0.53087
USER: genes 4 Torsion [N]-C--CA-[N] |==|  0.30099
USER: genes 5 Torsion [C]-CA--CB-[CG] |==|  0.21269
USER: genes 6 Torsion [CA]-CB--CG-[OD1] |==|  0.07005
USER: genes 7 Torsion [C]-CA--N-[C] |==|  0.78954
USER: genes 8 Torsion [N]-C--CA-[N] |==|  0.42056
USER: genes 9 Torsion [C]-CA--CB-[OG] |==|  0.10204
USER: genes 10 Torsion [CA]-CB--OG-[HG] |==|  0.82742
USER: genes 11 Torsion [N]-CA--C-[N] |==|  0.50549
USER: genes 12 Torsion [C]-N--CA-[C] |==|  0.61098
USER: genes 13 Torsion [N]-CA--C-[O] |==|  0.44709
USER: genes 14 Torsion [N]-CA--CB-[CG] |==|  0.42953
USER: genes 15 Torsion [CA]-CB--CG-[CD] |==|  0.49400
USER: genes 16 Torsion [CB]-CG--CD-[CE] |==|  0.48132
USER: genes 17 Torsion [CG]-CD--CE-[NZ] |==|  0.54672
USER: genes 18 Torsion [CD]-CE--NZ-[HZ2] |==|  0.55740
USER: genes 19 Torsion [N]-CA--CB-[CG] |==|  0.82221
USER: genes 20 Torsion [CA]-CB--CG-[CD2] |==|  0.70903
ROOT
ATOM      1  CA  TRP P 344      24.851   8.181 -15.041  1.00 32.15 LIG 0.18  C 
ENDROOT
BRANCH 1 2
ATOM      2  N   TRP P 344      25.449   9.430 -15.471  1.00 31.29 LIG-0.35  N 
ATOM      3 H    TRP P 344      24.924   9.952 -15.907  1.00 31.29 LIG 0.16  HD
ATOM      4  C   PRO P 343      26.718   9.703 -15.189  1.00 32.37 LIG 0.24  C 
ATOM      5 O    PRO P 343      27.464   8.908 -14.615  1.00 31.41 LIG-0.27  OA
BRANCH 4 6
ATOM      6  CA  PRO P 343      27.232  11.066 -15.631  1.00 33.03 LIG 0.18  C 
ATOM      7  N   PRO P 343      28.688  11.202 -15.525  1.00 34.38 LIG-0.34  N 
ATOM      8  C   ASP P 342      29.329  11.115 -14.351  1.00 36.67 LIG 0.24  C 
ATOM      9  CD  PRO P 343      29.310  11.160 -16.861  1.00 33.21 LIG 0.13  C 
ATOM     10 O    ASP P 342      28.732  10.901 -13.296  1.00 37.60 LIG-0.27  OA
ATOM     11  CG  PRO P 343      28.180  10.638 -17.731  1.00 33.09 LIG 0.02  C 
ATOM     12  CB  PRO P 343      26.983  11.304 -17.109  1.00 32.10 LIG 0.04  C 
BRANCH 8 13
ATOM     13  CA  ASP P 342      30.846  11.281 -14.371  1.00 38.79 LIG 0.19  C 
BRANCH 13 14
ATOM     14  CB  ASP P 342      31.506  10.154 -13.574  1.00 38.78 LIG 0.15  C 
BRANCH 14 15
ATOM     15  CG  ASP P 342      31.531   8.845 -14.334  1.00 39.37 LIG 0.17  C 
ATOM     16 OD2  ASP P 342      31.578   7.779 -13.686  1.00 39.72 LIG-0.65  OA
ATOM     17 OD1  ASP P 342      31.499   8.879 -15.580  1.00 40.57 LIG-0.65  OA
ENDBRANCH 14 15
ENDBRANCH 13 14
BRANCH 13 18
ATOM     18  N   ASP P 342      31.157  12.569 -13.773  1.00 40.71 LIG-0.34  N 
ATOM     19 H    ASP P 342      31.465  12.526 -12.971  1.00 40.71 LIG 0.16  HD
ATOM     20  C   SER P 341      30.968  13.702 -14.437  1.00 42.75 LIG 0.26  C 
ATOM     21 O    SER P 341      30.548  13.734 -15.595  1.00 44.14 LIG-0.27  OA
BRANCH 20 22
ATOM     22  CA  SER P 341      31.319  14.993 -13.692  1.00 43.56 LIG 0.42  C 
ATOM     23  N   SER P 341      31.734  16.075 -14.639  1.00 43.48 LIG 0.62  N 
BRANCH 22 24
ATOM     24  CB  SER P 341      30.111  15.452 -12.867  1.00 43.44 LIG 0.21  C 
BRANCH 24 25
ATOM     25 OG   SER P 341      29.417  14.337 -12.325  1.00 45.13 LIG-0.40  OA
ATOM     26 HG   SER P 341      29.121  13.860 -12.950  1.00 45.13 LIG 0.21  HD
ENDBRANCH 24 25
ENDBRANCH 22 24
ENDBRANCH 20 22
ENDBRANCH 13 18
ENDBRANCH 8 13
ENDBRANCH 4 6
ENDBRANCH 1 2
BRANCH 1 27
ATOM     27  C   TRP P 344      25.257   6.941 -15.809  1.00 32.97 LIG 0.24  C 
ATOM     28 O    TRP P 344      26.081   7.024 -16.713  1.00 31.81 LIG-0.27  OA
ATOM     29  N   LYS P 345      24.691   5.793 -15.459  1.00 34.20 LIG-0.34  N 
ATOM     30 H    LYS P 345      24.126   5.696 -14.817  1.00 34.20 LIG 0.16  HD
BRANCH 29 31
ATOM     31  CA  LYS P 345      25.021   4.574 -16.187  1.00 35.76 LIG 0.18  C 
BRANCH 31 32
ATOM     32  C   LYS P 345      23.806   3.684 -16.419  1.00 35.89 LIG 0.20  C 
ATOM     33 O    LYS P 345      23.891   2.824 -17.323  1.00 35.39 LIG-0.65  OA
ATOM     34 OXT  LYS P 345      22.803   3.843 -15.683  1.00 36.91 LIG-0.65  OA
ENDBRANCH 31 32
BRANCH 31 35
ATOM     35  CB  LYS P 345      26.120   3.792 -15.462  1.00 34.89 LIG 0.04  C 
BRANCH 35 36
ATOM     36  CG  LYS P 345      26.102   2.291 -15.767  1.00 33.69 LIG 0.00  C 
BRANCH 36 37
ATOM     37  CD  LYS P 345      27.230   1.533 -15.082  1.00 29.41 LIG 0.03  C 
BRANCH 37 38
ATOM     38  CE  LYS P 345      27.084   0.024 -15.272  1.00 29.69 LIG 0.23  C 
BRANCH 38 39
ATOM     39  NZ  LYS P 345      27.897  -0.798 -14.326  1.00 27.83 LIG-0.08  N 
ATOM     40 HZ3  LYS P 345      28.692  -0.414 -14.207  1.00 27.83 LIG 0.27  HD
ATOM     41 HZ1  LYS P 345      27.475  -0.855 -13.545  1.00 27.83 LIG 0.27  HD
ATOM     42 HZ2  LYS P 345      28.009  -1.614 -14.662  1.00 27.83 LIG 0.27  HD
ENDBRANCH 38 39
ENDBRANCH 37 38
ENDBRANCH 36 37
ENDBRANCH 35 36
ENDBRANCH 31 35
ENDBRANCH 29 31
ENDBRANCH 1 27
BRANCH 1 43
ATOM     43  CB  TRP P 344      23.326   8.309 -15.014  1.00 30.74 LIG 0.07  C 
BRANCH 43 44
ATOM     44  CG  TRP P 344      22.861   9.315 -14.008  1.00 29.17 LIG-0.03  A 
ATOM     45  CD2 TRP P 344      22.263   9.037 -12.733  1.00 26.66 LIG-0.00  A 
ATOM     46  CE3 TRP P 344      21.916   7.860 -12.059  1.00 26.53 LIG 0.01  A 
ATOM     47  CE2 TRP P 344      22.013  10.278 -12.111  1.00 26.53 LIG 0.04  A 
ATOM     48  CZ3 TRP P 344      21.333   7.958 -10.793  1.00 24.28 LIG 0.00  A 
ATOM     49  CH2 TRP P 344      21.097   9.212 -10.206  1.00 25.87 LIG 0.00  A 
ATOM     50  CZ2 TRP P 344      21.430  10.380 -10.848  1.00 24.89 LIG 0.03  A 
ATOM     51  NE1 TRP P 344      22.441  11.259 -12.968  1.00 27.39 LIG-0.36  N 
ATOM     52  CD1 TRP P 344      22.945  10.671 -14.104  1.00 29.08 LIG 0.10  A 
ATOM     53 HE1  TRP P 344      22.400  12.104 -12.819  1.00 27.39 LIG 0.17  HD
ENDBRANCH 43 44
ENDBRANCH 1 43
TORSDOF 19
ENDMDL
MODEL 3
USER: ADFR SOLUTION from run 178
USER: SCORE 14.948819 LL:  -2.650 LR: -12.771 RR:   0.000 FEB:  -7.103
USER: RMSD 3.993192
USER: SEED 177
USER: STATUS no improvement in best in 19 clusters for 5 generations
USER: GENES 21
USER: genes 0 Translation |==|  0.43475 0.47685 0.57299
USER: genes 1 Rotation |==|  0.49214 0.54064 0.58270 0.99137
USER: genes 2 Torsion [C]-CA--N-[C] |==|  0.78273
USER: genes 3 Torsion [N]-C--CA-[N] |==|  0.72234
USER: genes 4 Torsion [N]-C--CA-[N] |==|  0.24578
USER: genes 5 Torsion [C]-CA--CB-[CG] |==|  0.14046
USER: genes 6 Torsion [CA]-CB--CG-[OD1] |==|  0.08797
USER: genes 7 Torsion [C]-CA--N-[C] |==|  0.69763
USER: genes 8 Torsion [N]-C--CA-[N] |==|  0.77744
USER: genes 9 Torsion [C]-CA--CB-[OG] |==|  0.17245
USER: genes 10 Torsion [CA]-CB--OG-[HG] |==|  0.97790
USER: genes 11 Torsion [N]-CA--C-[N] |==|  0.44645
USER: genes 12 Torsion [C]-N--CA-[C] |==|  0.64371
USER: genes 13 Torsion [N]-CA--C-[O] |==|  0.99841
USER: genes 14 Torsion [N]-CA--CB-[CG] |==|  0.27460
USER: genes 15 Torsion [CA]-CB--CG-[CD] |==|  0.39513
USER: genes 16 Torsion [CB]-CG--CD-[CE] |==|  0.58185
USER: genes 17 Torsion [CG]-CD--CE-[NZ] |==|  0.64435
USER: genes 18 Torsion [CD]-CE--NZ-[HZ2] |==|  0.28795
USER: genes 19 Torsion [N]-CA--CB-[CG] |==|  0.85564
USER: genes 20 Torsion [CA]-CB--CG-[CD2] |==|  0.69561
ROOT
ATOM      1  CA  TRP P 344      24.679   7.970 -15.036  1.00 32.15 LIG 0.18  C 
ENDROOT
BRANCH 1 2
ATOM      2  N   TRP P 344      25.208   9.282 -15.352  1.00 31.29 LIG-0.35  N 
ATOM      3 H    TRP P 344      24.651   9.815 -15.734  1.00 31.29 LIG 0.16  HD
ATOM      4  C   PRO P 343      26.464   9.594 -15.057  1.00 32.37 LIG 0.24  C 
ATOM      5 O    PRO P 343      27.257   8.790 -14.564  1.00 31.41 LIG-0.27  OA
BRANCH 4 6
ATOM      6  CA  PRO P 343      26.902  11.017 -15.374  1.00 33.03 LIG 0.18  C 
ATOM      7  N   PRO P 343      27.663  11.128 -16.622  1.00 34.38 LIG-0.34  N 
ATOM      8  C   ASP P 342      28.840  10.511 -16.798  1.00 36.67 LIG 0.24  C 
ATOM      9  CD  PRO P 343      26.839  11.746 -17.676  1.00 33.21 LIG 0.13  C 
ATOM     10 O    ASP P 342      29.341   9.802 -15.926  1.00 37.60 LIG-0.27  OA
ATOM     11  CG  PRO P 343      25.441  11.669 -17.086  1.00 33.09 LIG 0.02  C 
ATOM     12  CB  PRO P 343      25.712  11.923 -15.628  1.00 32.10 LIG 0.04  C 
BRANCH 8 13
ATOM     13  CA  ASP P 342      29.537  10.710 -18.141  1.00 38.79 LIG 0.19  C 
BRANCH 13 14
ATOM     14  CB  ASP P 342      30.399   9.489 -18.469  1.00 38.78 LIG 0.15  C 
BRANCH 14 15
ATOM     15  CG  ASP P 342      29.636   8.188 -18.334  1.00 39.37 LIG 0.17  C 
ATOM     16 OD2  ASP P 342      30.256   7.166 -17.975  1.00 39.72 LIG-0.65  OA
ATOM     17 OD1  ASP P 342      28.413   8.187 -18.582  1.00 40.57 LIG-0.65  OA
ENDBRANCH 14 15
ENDBRANCH 13 14
BRANCH 13 18
ATOM     18  N   ASP P 342      30.368  11.898 -18.034  1.00 40.71 LIG-0.34  N 
ATOM     19 H    ASP P 342      31.064  11.805 -17.535  1.00 40.71 LIG 0.16  HD
ATOM     20  C   SER P 341      30.052  13.021 -18.666  1.00 42.75 LIG 0.26  C 
ATOM     21 O    SER P 341      29.063  13.120 -19.395  1.00 44.14 LIG-0.27  OA
BRANCH 20 22
ATOM     22  CA  SER P 341      31.000  14.206 -18.461  1.00 43.56 LIG 0.42  C 
ATOM     23  N   SER P 341      30.735  14.897 -17.160  1.00 43.48 LIG 0.62  N 
BRANCH 22 24
ATOM     24  CB  SER P 341      32.451  13.715 -18.509  1.00 43.44 LIG 0.21  C 
BRANCH 24 25
ATOM     25 OG   SER P 341      32.753  13.155 -19.779  1.00 45.13 LIG-0.40  OA
ATOM     26 HG   SER P 341      32.048  13.097 -20.234  1.00 45.13 LIG 0.21  HD
ENDBRANCH 24 25
ENDBRANCH 22 24
ENDBRANCH 20 22
ENDBRANCH 13 18
ENDBRANCH 8 13
ENDBRANCH 4 6
ENDBRANCH 1 2
BRANCH 1 27
ATOM     27  C   TRP P 344      25.069   6.845 -15.971  1.00 32.97 LIG 0.24  C 
ATOM     28 O    TRP P 344      25.483   7.100 -17.097  1.00 31.81 LIG-0.27  OA
ATOM     29  N   LYS P 345      24.946   5.603 -15.518  1.00 34.20 LIG-0.34  N 
ATOM     30 H    LYS P 345      24.679   5.390 -14.728  1.00 34.20 LIG 0.16  HD
BRANCH 29 31
ATOM     31  CA  LYS P 345      25.276   4.481 -16.389  1.00 35.76 LIG 0.18  C 
BRANCH 31 32
ATOM     32  C   LYS P 345      24.158   3.447 -16.459  1.00 35.89 LIG 0.20  C 
ATOM     33 O    LYS P 345      23.132   3.668 -15.779  1.00 35.39 LIG-0.65  OA
ATOM     34 OXT  LYS P 345      24.313   2.452 -17.207  1.00 36.91 LIG-0.65  OA
ENDBRANCH 31 32
BRANCH 31 35
ATOM     35  CB  LYS P 345      26.582   3.819 -15.944  1.00 34.89 LIG 0.04  C 
BRANCH 35 36
ATOM     36  CG  LYS P 345      26.370   2.559 -15.099  1.00 33.69 LIG 0.00  C 
BRANCH 36 37
ATOM     37  CD  LYS P 345      27.386   1.466 -15.398  1.00 29.41 LIG 0.03  C 
BRANCH 37 38
ATOM     38  CE  LYS P 345      26.798   0.077 -15.155  1.00 29.69 LIG 0.23  C 
BRANCH 38 39
ATOM     39  NZ  LYS P 345      27.626  -0.796 -14.270  1.00 27.83 LIG-0.08  N 
ATOM     40 HZ3  LYS P 345      27.665  -1.616 -14.614  1.00 27.83 LIG 0.27  HD
ATOM     41 HZ1  LYS P 345      28.447  -0.461 -14.206  1.00 27.83 LIG 0.27  HD
ATOM     42 HZ2  LYS P 345      27.258  -0.832 -13.460  1.00 27.83 LIG 0.27  HD
ENDBRANCH 38 39
ENDBRANCH 37 38
ENDBRANCH 36 37
ENDBRANCH 35 36
ENDBRANCH 31 35
ENDBRANCH 29 31
ENDBRANCH 1 27
BRANCH 1 43
ATOM     43  CB  TRP P 344      23.157   8.034 -14.894  1.00 30.74 LIG 0.07  C 
BRANCH 43 44
ATOM     44  CG  TRP P 344      22.722   9.108 -13.947  1.00 29.17 LIG-0.03  A 
ATOM     45  CD2 TRP P 344      22.151   8.921 -12.644  1.00 26.66 LIG-0.00  A 
ATOM     46  CE3 TRP P 344      21.810   7.794 -11.886  1.00 26.53 LIG 0.01  A 
ATOM     47  CE2 TRP P 344      21.925  10.202 -12.100  1.00 26.53 LIG 0.04  A 
ATOM     48  CZ3 TRP P 344      21.256   7.980 -10.617  1.00 24.28 LIG 0.00  A 
ATOM     49  CH2 TRP P 344      21.043   9.272 -10.109  1.00 25.87 LIG 0.00  A 
ATOM     50  CZ2 TRP P 344      21.371  10.392 -10.834  1.00 24.89 LIG 0.03  A 
ATOM     51  NE1 TRP P 344      22.341  11.120 -13.028  1.00 27.39 LIG-0.36  N 
ATOM     52  CD1 TRP P 344      22.815  10.455 -14.134  1.00 29.08 LIG 0.10  A 
ATOM     53 HE1  TRP P 344      22.310  11.974 -12.934  1.00 27.39 LIG 0.17  HD
ENDBRANCH 43 44
ENDBRANCH 1 43
TORSDOF 19
ENDMDL
MODEL 4
USER: ADFR SOLUTION from run 8
USER: SCORE 16.489106 LL:  -3.936 LR: -12.650 RR:   0.000 FEB:  -6.982
USER: RMSD 3.939693
USER: SEED 932623
USER: STATUS searching
USER: GENES 21
USER: genes 0 Translation |==|  0.37891 0.44039 0.54491
USER: genes 1 Rotation |==|  0.37455 0.59317 0.51106 0.97483
USER: genes 2 Torsion [C]-CA--N-[C] |==|  0.16667
USER: genes 3 Torsion [N]-C--CA-[N] |==|  0.96491
USER: genes 4 Torsion [N]-C--CA-[N] |==|  0.39784
USER: genes 5 Torsion [C]-CA--CB-[CG] |==|  0.19451
USER: genes 6 Torsion [CA]-CB--CG-[OD1] |==|  0.72019
USER: genes 7 Torsion [C]-CA--N-[C] |==|  0.80983
USER: genes 8 Torsion [N]-C--CA-[N] |==|  0.41921
USER: genes 9 Torsion [C]-CA--CB-[OG] |==|  0.12579
USER: genes 10 Torsion [CA]-CB--OG-[HG] |==|  0.77813
USER: genes 11 Torsion [N]-CA--C-[N] |==|  0.12614
USER: genes 12 Torsion [C]-N--CA-[C] |==|  0.60887
USER: genes 13 Torsion [N]-CA--C-[O] |==|  0.83490
USER: genes 14 Torsion [N]-CA--CB-[CG] |==|  0.63766
USER: genes 15 Torsion [CA]-CB--CG-[CD] |==|  0.21416
USER: genes 16 Torsion [CB]-CG--CD-[CE] |==|  0.48694
USER: genes 17 Torsion [CG]-CD--CE-[NZ] |==|  0.30743
USER: genes 18 Torsion [CD]-CE--NZ-[HZ2] |==|  0.80126
USER: genes 19 Torsion [N]-CA--CB-[CG] |==|  0.78079
USER: genes 20 Torsion [CA]-CB--CG-[CD2] |==|  0.73529
ROOT
ATOM      1  CA  TRP P 344      23.758   7.068 -15.583  1.00 32.15 LIG 0.18  C 
ENDROOT
BRANCH 1 2
ATOM      2  N   TRP P 344      24.460   7.875 -16.561  1.00 31.29 LIG-0.35  N 
ATOM      3 H    TRP P 344      25.116   8.335 -16.249  1.00 31.29 LIG 0.16  HD
ATOM      4  C   PRO P 343      24.083   7.873 -17.835  1.00 32.37 LIG 0.24  C 
ATOM      5 O    PRO P 343      23.102   7.250 -18.243  1.00 31.41 LIG-0.27  OA
BRANCH 4 6
ATOM      6  CA  PRO P 343      24.924   8.706 -18.792  1.00 33.03 LIG 0.18  C 
ATOM      7  N   PRO P 343      25.850   9.617 -18.112  1.00 34.38 LIG-0.34  N 
ATOM      8  C   ASP P 342      25.423  10.602 -17.310  1.00 36.67 LIG 0.24  C 
ATOM      9  CD  PRO P 343      27.234   9.121 -18.218  1.00 33.21 LIG 0.13  C 
ATOM     10 O    ASP P 342      24.227  10.788 -17.086  1.00 37.60 LIG-0.27  OA
ATOM     11  CG  PRO P 343      27.034   7.691 -18.690  1.00 33.09 LIG 0.02  C 
ATOM     12  CB  PRO P 343      25.857   7.837 -19.615  1.00 32.10 LIG 0.04  C 
BRANCH 8 13
ATOM     13  CA  ASP P 342      26.486  11.487 -16.665  1.00 38.79 LIG 0.19  C 
BRANCH 13 14
ATOM     14  CB  ASP P 342      26.789  10.993 -15.249  1.00 38.78 LIG 0.15  C 
BRANCH 14 15
ATOM     15  CG  ASP P 342      27.527   9.671 -15.243  1.00 39.37 LIG 0.17  C 
ATOM     16 OD2  ASP P 342      28.756   9.671 -15.459  1.00 39.72 LIG-0.65  OA
ATOM     17 OD1  ASP P 342      26.878   8.629 -15.017  1.00 40.57 LIG-0.65  OA
ENDBRANCH 14 15
ENDBRANCH 13 14
BRANCH 13 18
ATOM     18  N   ASP P 342      25.963  12.844 -16.623  1.00 40.71 LIG-0.34  N 
ATOM     19 H    ASP P 342      25.789  13.135 -15.833  1.00 40.71 LIG 0.16  HD
ATOM     20  C   SER P 341      25.781  13.547 -17.733  1.00 42.75 LIG 0.26  C 
ATOM     21 O    SER P 341      26.063  13.114 -18.851  1.00 44.14 LIG-0.27  OA
BRANCH 20 22
ATOM     22  CA  SER P 341      25.211  14.958 -17.557  1.00 43.56 LIG 0.42  C 
ATOM     23  N   SER P 341      25.674  15.874 -18.646  1.00 43.48 LIG 0.62  N 
BRANCH 22 24
ATOM     24  CB  SER P 341      23.679  14.891 -17.541  1.00 43.44 LIG 0.21  C 
BRANCH 24 25
ATOM     25 OG   SER P 341      23.228  13.832 -16.710  1.00 45.13 LIG-0.40  OA
ATOM     26 HG   SER P 341      23.286  13.104 -17.128  1.00 45.13 LIG 0.21  HD
ENDBRANCH 24 25
ENDBRANCH 22 24
ENDBRANCH 20 22
ENDBRANCH 13 18
ENDBRANCH 8 13
ENDBRANCH 4 6
ENDBRANCH 1 2
BRANCH 1 27
ATOM     27  C   TRP P 344      23.745   5.574 -15.830  1.00 32.97 LIG 0.24  C 
ATOM     28 O    TRP P 344      22.701   4.942 -15.709  1.00 31.81 LIG-0.27  OA
ATOM     29  N   LYS P 345      24.892   5.002 -16.176  1.00 34.20 LIG-0.34  N 
ATOM     30 H    LYS P 345      25.637   5.418 -16.289  1.00 34.20 LIG 0.16  HD
BRANCH 29 31
ATOM     31  CA  LYS P 345      24.944   3.561 -16.393  1.00 35.76 LIG 0.18  C 
BRANCH 31 32
ATOM     32  C   LYS P 345      26.225   2.934 -15.856  1.00 35.89 LIG 0.20  C 
ATOM     33 O    LYS P 345      27.305   3.350 -16.328  1.00 35.39 LIG-0.65  OA
ATOM     34 OXT  LYS P 345      26.131   2.061 -14.961  1.00 36.91 LIG-0.65  OA
ENDBRANCH 31 32
BRANCH 31 35
ATOM     35  CB  LYS P 345      24.774   3.232 -17.878  1.00 34.89 LIG 0.04  C 
BRANCH 35 36
ATOM     36  CG  LYS P 345      23.719   2.154 -18.147  1.00 33.69 LIG 0.00  C 
BRANCH 36 37
ATOM     37  CD  LYS P 345      22.294   2.680 -18.048  1.00 29.41 LIG 0.03  C 
BRANCH 37 38
ATOM     38  CE  LYS P 345      21.276   1.609 -18.434  1.00 29.69 LIG 0.23  C 
BRANCH 38 39
ATOM     39  NZ  LYS P 345      20.451   1.105 -17.296  1.00 27.83 LIG-0.08  N 
ATOM     40 HZ3  LYS P 345      20.127   1.794 -16.835  1.00 27.83 LIG 0.27  HD
ATOM     41 HZ1  LYS P 345      19.777   0.616 -17.611  1.00 27.83 LIG 0.27  HD
ATOM     42 HZ2  LYS P 345      20.956   0.603 -16.763  1.00 27.83 LIG 0.27  HD
ENDBRANCH 38 39
ENDBRANCH 37 38
ENDBRANCH 36 37
ENDBRANCH 35 36
ENDBRANCH 31 35
ENDBRANCH 29 31
ENDBRANCH 1 27
BRANCH 1 43
ATOM     43  CB  TRP P 344      22.329   7.584 -15.400  1.00 30.74 LIG 0.07  C 
BRANCH 43 44
ATOM     44  CG  TRP P 344      22.274   8.795 -14.522  1.00 29.17 LIG-0.03  A 
ATOM     45  CD2 TRP P 344      22.012   8.819 -13.112  1.00 26.66 LIG-0.00  A 
ATOM     46  CE3 TRP P 344      21.720   7.832 -12.162  1.00 26.53 LIG 0.01  A 
ATOM     47  CE2 TRP P 344      22.088  10.164 -12.696  1.00 26.53 LIG 0.04  A 
ATOM     48  CZ3 TRP P 344      21.514   8.217 -10.835  1.00 24.28 LIG 0.00  A 
ATOM     49  CH2 TRP P 344      21.596   9.568 -10.458  1.00 25.87 LIG 0.00  A 
ATOM     50  CZ2 TRP P 344      21.881  10.553 -11.373  1.00 24.89 LIG 0.03  A 
ATOM     51  NE1 TRP P 344      22.384  10.918 -13.801  1.00 27.39 LIG-0.36  N 
ATOM     52  CD1 TRP P 344      22.491  10.088 -14.892  1.00 29.08 LIG 0.10  A 
ATOM     53 HE1  TRP P 344      22.485  11.771 -13.811  1.00 27.39 LIG 0.17  HD
ENDBRANCH 43 44
ENDBRANCH 1 43
TORSDOF 19
ENDMDL
MODEL 5
USER: ADFR SOLUTION from run 22
USER: SCORE 14.813024 LL:  -2.958 LR: -12.578 RR:   0.000 FEB:  -6.910
USER: RMSD 4.131403
USER: SEED 21
USER: STATUS no improvement in best in 21 clusters for 5 generations
USER: GENES 21
USER: genes 0 Translation |==|  0.41243 0.46755 0.55516
USER: genes 1 Rotation |==|  0.43352 0.58200 0.57054 0.98361
USER: genes 2 Torsion [C]-CA--N-[C] |==|  0.75701
USER: genes 3 Torsion [N]-C--CA-[N] |==|  0.72969
USER: genes 4 Torsion [N]-C--CA-[N] |==|  0.34981
USER: genes 5 Torsion [C]-CA--CB-[CG] |==|  0.80811
USER: genes 6 Torsion [CA]-CB--CG-[OD1] |==|  0.33374
USER: genes 7 Torsion [C]-CA--N-[C] |==|  0.81716
USER: genes 8 Torsion [N]-C--CA-[N] |==|  0.55270
USER: genes 9 Torsion [C]-CA--CB-[OG] |==|  0.22832
USER: genes 10 Torsion [CA]-CB--OG-[HG] |==|  0.70043
USER: genes 11 Torsion [N]-CA--C-[N] |==|  0.56588
USER: genes 12 Torsion [C]-N--CA-[C] |==|  0.19720
USER: genes 13 Torsion [N]-CA--C-[O] |==|  0.97881
USER: genes 14 Torsion [N]-CA--CB-[CG] |==|  0.63460
USER: genes 15 Torsion [CA]-CB--CG-[CD] |==|  0.10822
USER: genes 16 Torsion [CB]-CG--CD-[CE] |==|  0.51079
USER: genes 17 Torsion [CG]-CD--CE-[NZ] |==|  0.39601
USER: genes 18 Torsion [CD]-CE--NZ-[HZ2] |==|  0.68310
USER: genes 19 Torsion [N]-CA--CB-[CG] |==|  0.81560
USER: genes 20 Torsion [CA]-CB--CG-[CD2] |==|  0.68874
ROOT
ATOM      1  CA  TRP P 344      24.311   7.740 -15.383  1.00 32.15 LIG 0.18  C 
ENDROOT
BRANCH 1 2
ATOM      2  N   TRP P 344      24.807   8.903 -16.093  1.00 31.29 LIG-0.35  N 
ATOM      3 H    TRP P 344      24.243   9.269 -16.628  1.00 31.29 LIG 0.16  HD
ATOM      4  C   PRO P 343      26.048   9.333 -15.900  1.00 32.37 LIG 0.24  C 
ATOM      5 O    PRO P 343      26.854   8.752 -15.172  1.00 31.41 LIG-0.27  OA
BRANCH 4 6
ATOM      6  CA  PRO P 343      26.451  10.598 -16.646  1.00 33.03 LIG 0.18  C 
ATOM      7  N   PRO P 343      27.178  10.333 -17.891  1.00 34.38 LIG-0.34  N 
ATOM      8  C   ASP P 342      28.362   9.705 -17.906  1.00 36.67 LIG 0.24  C 
ATOM      9  CD  PRO P 343      26.316  10.594 -19.058  1.00 33.21 LIG 0.13  C 
ATOM     10 O    ASP P 342      28.899   9.300 -16.875  1.00 37.60 LIG-0.27  OA
ATOM     11  CG  PRO P 343      24.936  10.684 -18.431  1.00 33.09 LIG 0.02  C 
ATOM     12  CB  PRO P 343      25.237  11.372 -17.127  1.00 32.10 LIG 0.04  C 
BRANCH 8 13
ATOM     13  CA  ASP P 342      29.022   9.495 -19.266  1.00 38.79 LIG 0.19  C 
BRANCH 13 14
ATOM     14  CB  ASP P 342      29.084   8.002 -19.593  1.00 38.78 LIG 0.15  C 
BRANCH 14 15
ATOM     15  CG  ASP P 342      30.053   7.253 -18.702  1.00 39.37 LIG 0.17  C 
ATOM     16 OD2  ASP P 342      31.253   7.594 -18.706  1.00 39.72 LIG-0.65  OA
ATOM     17 OD1  ASP P 342      29.614   6.325 -17.993  1.00 40.57 LIG-0.65  OA
ENDBRANCH 14 15
ENDBRANCH 13 14
BRANCH 13 18
ATOM     18  N   ASP P 342      30.365  10.050 -19.194  1.00 40.71 LIG-0.34  N 
ATOM     19 H    ASP P 342      30.996   9.469 -19.262  1.00 40.71 LIG 0.16  HD
ATOM     20  C   SER P 341      30.566  11.351 -19.036  1.00 42.75 LIG 0.26  C 
ATOM     21 O    SER P 341      29.643  12.165 -18.966  1.00 44.14 LIG-0.27  OA
BRANCH 20 22
ATOM     22  CA  SER P 341      32.025  11.809 -18.960  1.00 43.56 LIG 0.42  C 
ATOM     23  N   SER P 341      32.140  13.166 -18.340  1.00 43.48 LIG 0.62  N 
BRANCH 22 24
ATOM     24  CB  SER P 341      32.838  10.791 -18.151  1.00 43.44 LIG 0.21  C 
BRANCH 24 25
ATOM     25 OG   SER P 341      33.223   9.692 -18.964  1.00 45.13 LIG-0.40  OA
ATOM     26 HG   SER P 341      32.776   9.014 -18.749  1.00 45.13 LIG 0.21  HD
ENDBRANCH 24 25
ENDBRANCH 22 24
ENDBRANCH 20 22
ENDBRANCH 13 18
ENDBRANCH 8 13
ENDBRANCH 4 6
ENDBRANCH 1 2
BRANCH 1 27
ATOM     27  C   TRP P 344      24.568   6.396 -16.032  1.00 32.97 LIG 0.24  C 
ATOM     28 O    TRP P 344      25.498   6.265 -16.822  1.00 31.81 LIG-0.27  OA
ATOM     29  N   LYS P 345      23.758   5.396 -15.708  1.00 34.20 LIG-0.34  N 
ATOM     30 H    LYS P 345      23.110   5.449 -15.144  1.00 34.20 LIG 0.16  HD
BRANCH 29 31
ATOM     31  CA  LYS P 345      23.939   4.089 -16.329  1.00 35.76 LIG 0.18  C 
BRANCH 31 32
ATOM     32  C   LYS P 345      25.193   3.377 -15.837  1.00 35.89 LIG 0.20  C 
ATOM     33 O    LYS P 345      25.970   4.028 -15.104  1.00 35.39 LIG-0.65  OA
ATOM     34 OXT  LYS P 345      25.367   2.180 -16.168  1.00 36.91 LIG-0.65  OA
ENDBRANCH 31 32
BRANCH 31 35
ATOM     35  CB  LYS P 345      23.966   4.216 -17.855  1.00 34.89 LIG 0.04  C 
BRANCH 35 36
ATOM     36  CG  LYS P 345      23.051   3.213 -18.565  1.00 33.69 LIG 0.00  C 
BRANCH 36 37
ATOM     37  CD  LYS P 345      21.731   2.997 -17.839  1.00 29.41 LIG 0.03  C 
BRANCH 37 38
ATOM     38  CE  LYS P 345      20.888   1.923 -18.524  1.00 29.69 LIG 0.23  C 
BRANCH 38 39
ATOM     39  NZ  LYS P 345      20.129   1.043 -17.584  1.00 27.83 LIG-0.08  N 
ATOM     40 HZ3  LYS P 345      20.225   1.345 -16.752  1.00 27.83 LIG 0.27  HD
ATOM     41 HZ1  LYS P 345      19.267   1.047 -17.804  1.00 27.83 LIG 0.27  HD
ATOM     42 HZ2  LYS P 345      20.443   0.212 -17.636  1.00 27.83 LIG 0.27  HD
ENDBRANCH 38 39
ENDBRANCH 37 38
ENDBRANCH 36 37
ENDBRANCH 35 36
ENDBRANCH 31 35
ENDBRANCH 29 31
ENDBRANCH 1 27
BRANCH 1 43
ATOM     43  CB  TRP P 344      22.820   7.903 -15.081  1.00 30.74 LIG 0.07  C 
BRANCH 43 44
ATOM     44  CG  TRP P 344      22.558   9.013 -14.112  1.00 29.17 LIG-0.03  A 
ATOM     45  CD2 TRP P 344      22.074   8.880 -12.768  1.00 26.66 LIG-0.00  A 
ATOM     46  CE3 TRP P 344      21.690   7.790 -11.977  1.00 26.53 LIG 0.01  A 
ATOM     47  CE2 TRP P 344      22.007  10.178 -12.219  1.00 26.53 LIG 0.04  A 
ATOM     48  CZ3 TRP P 344      21.255   8.027 -10.671  1.00 24.28 LIG 0.00  A 
ATOM     49  CH2 TRP P 344      21.199   9.334 -10.159  1.00 25.87 LIG 0.00  A 
ATOM     50  CZ2 TRP P 344      21.570  10.419 -10.916  1.00 24.89 LIG 0.03  A 
ATOM     51  NE1 TRP P 344      22.432  11.053 -13.183  1.00 27.39 LIG-0.36  N 
ATOM     52  CD1 TRP P 344      22.758  10.345 -14.316  1.00 29.08 LIG 0.10  A 
ATOM     53 HE1  TRP P 344      22.486  11.906 -13.095  1.00 27.39 LIG 0.17  HD
ENDBRANCH 43 44
ENDBRANCH 1 43
TORSDOF 19
ENDMDL
MODEL 6
USER: ADFR SOLUTION from run 17
USER: SCORE 14.670878 LL:  -3.114 LR: -12.441 RR:   0.000 FEB:  -6.773
USER: RMSD 3.645926
USER: SEED 16
USER: STATUS searching
USER: GENES 21
USER: genes 0 Translation |==|  0.44075 0.47884 0.55521
USER: genes 1 Rotation |==|  0.46020 0.56603 0.61347 0.98081
USER: genes 2 Torsion [C]-CA--N-[C] |==|  0.79743
USER: genes 3 Torsion [N]-C--CA-[N] |==|  0.02357
USER: genes 4 Torsion [N]-C--CA-[N] |==|  0.18469
USER: genes 5 Torsion [C]-CA--CB-[CG] |==|  0.33600
USER: genes 6 Torsion [CA]-CB--CG-[OD1] |==|  0.18911
USER: genes 7 Torsion [C]-CA--N-[C] |==|  0.66111
USER: genes 8 Torsion [N]-C--CA-[N] |==|  0.02988
USER: genes 9 Torsion [C]-CA--CB-[OG] |==|  0.19953
USER: genes 10 Torsion [CA]-CB--OG-[HG] |==|  0.79212
USER: genes 11 Torsion [N]-CA--C-[N] |==|  0.50536
USER: genes 12 Torsion [C]-N--CA-[C] |==|  0.61936
USER: genes 13 Torsion [N]-CA--C-[O] |==|  0.51052
USER: genes 14 Torsion [N]-CA--CB-[CG] |==|  0.28684
USER: genes 15 Torsion [CA]-CB--CG-[CD] |==|  0.37395
USER: genes 16 Torsion [CB]-CG--CD-[CE] |==|  0.56841
USER: genes 17 Torsion [CG]-CD--CE-[NZ] |==|  0.64044
USER: genes 18 Torsion [CD]-CE--NZ-[HZ2] |==|  0.30701
USER: genes 19 Torsion [N]-CA--CB-[CG] |==|  0.86684
USER: genes 20 Torsion [CA]-CB--CG-[CD2] |==|  0.69845
ROOT
ATOM      1  CA  TRP P 344      24.778   8.019 -15.382  1.00 32.15 LIG 0.18  C 
ENDROOT
BRANCH 1 2
ATOM      2  N   TRP P 344      25.091   9.333 -15.910  1.00 31.29 LIG-0.35  N 
ATOM      3 H    TRP P 344      24.421   9.760 -16.240  1.00 31.29 LIG 0.16  HD
ATOM      4  C   PRO P 343      26.333   9.800 -15.867  1.00 32.37 LIG 0.24  C 
ATOM      5 O    PRO P 343      27.283   9.141 -15.444  1.00 31.41 LIG-0.27  OA
BRANCH 4 6
ATOM      6  CA  PRO P 343      26.543  11.215 -16.391  1.00 33.03 LIG 0.18  C 
ATOM      7  N   PRO P 343      25.291  11.919 -16.684  1.00 34.38 LIG-0.34  N 
ATOM      8  C   ASP P 342      24.430  11.485 -17.615  1.00 36.67 LIG 0.24  C 
ATOM      9  CD  PRO P 343      25.021  12.942 -15.658  1.00 33.21 LIG 0.13  C 
ATOM     10 O    ASP P 342      24.634  10.461 -18.266  1.00 37.60 LIG-0.27  OA
ATOM     11  CG  PRO P 343      25.994  12.563 -14.555  1.00 33.09 LIG 0.02  C 
ATOM     12  CB  PRO P 343      27.189  12.106 -15.346  1.00 32.10 LIG 0.04  C 
BRANCH 8 13
ATOM     13  CA  ASP P 342      23.164  12.311 -17.832  1.00 38.79 LIG 0.19  C 
BRANCH 13 14
ATOM     14  CB  ASP P 342      22.228  11.588 -18.803  1.00 38.78 LIG 0.15  C 
BRANCH 14 15
ATOM     15  CG  ASP P 342      20.875  11.291 -18.190  1.00 39.37 LIG 0.17  C 
ATOM     16 OD2  ASP P 342      20.571  10.103 -17.961  1.00 39.72 LIG-0.65  OA
ATOM     17 OD1  ASP P 342      20.116  12.247 -17.933  1.00 40.57 LIG-0.65  OA
ENDBRANCH 14 15
ENDBRANCH 13 14
BRANCH 13 18
ATOM     18  N   ASP P 342      23.565  13.595 -18.383  1.00 40.71 LIG-0.34  N 
ATOM     19 H    ASP P 342      24.006  13.546 -19.120  1.00 40.71 LIG 0.16  HD
ATOM     20  C   SER P 341      23.260  14.733 -17.773  1.00 42.75 LIG 0.26  C 
ATOM     21 O    SER P 341      22.605  14.776 -16.730  1.00 44.14 LIG-0.27  OA
BRANCH 20 22
ATOM     22  CA  SER P 341      23.752  16.018 -18.446  1.00 43.56 LIG 0.42  C 
ATOM     23  N   SER P 341      24.276  15.747 -19.822  1.00 43.48 LIG 0.62  N 
BRANCH 22 24
ATOM     24  CB  SER P 341      22.606  17.033 -18.510  1.00 43.44 LIG 0.21  C 
BRANCH 24 25
ATOM     25 OG   SER P 341      22.320  17.554 -17.220  1.00 45.13 LIG-0.40  OA
ATOM     26 HG   SER P 341      21.908  16.976 -16.769  1.00 45.13 LIG 0.21  HD
ENDBRANCH 24 25
ENDBRANCH 22 24
ENDBRANCH 20 22
ENDBRANCH 13 18
ENDBRANCH 8 13
ENDBRANCH 4 6
ENDBRANCH 1 2
BRANCH 1 27
ATOM     27  C   TRP P 344      25.253   6.837 -16.200  1.00 32.97 LIG 0.24  C 
ATOM     28 O    TRP P 344      25.898   7.021 -17.227  1.00 31.81 LIG-0.27  OA
ATOM     29  N   LYS P 345      24.945   5.624 -15.756  1.00 34.20 LIG-0.34  N 
ATOM     30 H    LYS P 345      24.512   5.459 -15.031  1.00 34.20 LIG 0.16  HD
BRANCH 29 31
ATOM     31  CA  LYS P 345      25.348   4.451 -16.522  1.00 35.76 LIG 0.18  C 
BRANCH 31 32
ATOM     32  C   LYS P 345      24.245   3.402 -16.611  1.00 35.89 LIG 0.20  C 
ATOM     33 O    LYS P 345      24.523   2.328 -17.187  1.00 35.39 LIG-0.65  OA
ATOM     34 OXT  LYS P 345      23.136   3.660 -16.084  1.00 36.91 LIG-0.65  OA
ENDBRANCH 31 32
BRANCH 31 35
ATOM     35  CB  LYS P 345      26.620   3.834 -15.935  1.00 34.89 LIG 0.04  C 
BRANCH 35 36
ATOM     36  CG  LYS P 345      26.360   2.567 -15.114  1.00 33.69 LIG 0.00  C 
BRANCH 36 37
ATOM     37  CD  LYS P 345      27.333   1.442 -15.435  1.00 29.41 LIG 0.03  C 
BRANCH 37 38
ATOM     38  CE  LYS P 345      26.735   0.076 -15.106  1.00 29.69 LIG 0.23  C 
BRANCH 38 39
ATOM     39  NZ  LYS P 345      27.612  -0.797 -14.269  1.00 27.83 LIG-0.08  N 
ATOM     40 HZ3  LYS P 345      27.682  -1.599 -14.649  1.00 27.83 LIG 0.27  HD
ATOM     41 HZ1  LYS P 345      28.419  -0.428 -14.202  1.00 27.83 LIG 0.27  HD
ATOM     42 HZ2  LYS P 345      27.258  -0.883 -13.458  1.00 27.83 LIG 0.27  HD
ENDBRANCH 38 39
ENDBRANCH 37 38
ENDBRANCH 36 37
ENDBRANCH 35 36
ENDBRANCH 31 35
ENDBRANCH 29 31
ENDBRANCH 1 27
BRANCH 1 43
ATOM     43  CB  TRP P 344      23.277   7.903 -15.110  1.00 30.74 LIG 0.07  C 
BRANCH 43 44
ATOM     44  CG  TRP P 344      22.748   9.080 -14.352  1.00 29.17 LIG-0.03  A 
ATOM     45  CD2 TRP P 344      22.320   9.095 -12.983  1.00 26.66 LIG-0.00  A 
ATOM     46  CE3 TRP P 344      22.229   8.119 -11.983  1.00 26.53 LIG 0.01  A 
ATOM     47  CE2 TRP P 344      21.930  10.417 -12.682  1.00 26.53 LIG 0.04  A 
ATOM     48  CZ3 TRP P 344      21.755   8.489 -10.723  1.00 24.28 LIG 0.00  A 
ATOM     49  CH2 TRP P 344      21.373   9.816 -10.460  1.00 25.87 LIG 0.00  A 
ATOM     50  CZ2 TRP P 344      21.453  10.791 -11.426  1.00 24.89 LIG 0.03  A 
ATOM     51  NE1 TRP P 344      22.114  11.166 -13.815  1.00 27.39 LIG-0.36  N 
ATOM     52  CD1 TRP P 344      22.603  10.355 -14.812  1.00 29.08 LIG 0.10  A 
ATOM     53 HE1  TRP P 344      21.951  12.006 -13.890  1.00 27.39 LIG 0.17  HD
ENDBRANCH 43 44
ENDBRANCH 1 43
TORSDOF 19
ENDMDL
MODEL 7
USER: ADFR SOLUTION from run 76
USER: SCORE 15.039001 LL:  -3.502 LR: -12.336 RR:   0.000 FEB:  -6.668
USER: RMSD 3.067881
USER: SEED 75
USER: STATUS searching
USER: GENES 21
USER: genes 0 Translation |==|  0.35715 0.43410 0.56403
USER: genes 1 Rotation |==|  0.43442 0.58504 0.50229 0.98833
USER: genes 2 Torsion [C]-CA--N-[C] |==|  0.66333
USER: genes 3 Torsion [N]-C--CA-[N] |==|  0.15900
USER: genes 4 Torsion [N]-C--CA-[N] |==|  0.15573
USER: genes 5 Torsion [C]-CA--CB-[CG] |==|  0.26506
USER: genes 6 Torsion [CA]-CB--CG-[OD1] |==|  0.22436
USER: genes 7 Torsion [C]-CA--N-[C] |==|  0.64441
USER: genes 8 Torsion [N]-C--CA-[N] |==|  0.39967
USER: genes 9 Torsion [C]-CA--CB-[OG] |==|  0.20638
USER: genes 10 Torsion [CA]-CB--OG-[HG] |==|  0.62366
USER: genes 11 Torsion [N]-CA--C-[N] |==|  0.10412
USER: genes 12 Torsion [C]-N--CA-[C] |==|  0.63413
USER: genes 13 Torsion [N]-CA--C-[O] |==|  0.91251
USER: genes 14 Torsion [N]-CA--CB-[CG] |==|  0.64940
USER: genes 15 Torsion [CA]-CB--CG-[CD] |==|  0.02114
USER: genes 16 Torsion [CB]-CG--CD-[CE] |==|  0.48058
USER: genes 17 Torsion [CG]-CD--CE-[NZ] |==|  0.48144
USER: genes 18 Torsion [CD]-CE--NZ-[HZ2] |==|  0.79069
USER: genes 19 Torsion [N]-CA--CB-[CG] |==|  0.83633
USER: genes 20 Torsion [CA]-CB--CG-[CD2] |==|  0.73142
ROOT
ATOM      1  CA  TRP P 344      23.399   6.912 -15.210  1.00 32.15 LIG 0.18  C 
ENDROOT
BRANCH 1 2
ATOM      2  N   TRP P 344      24.203   7.869 -15.946  1.00 31.29 LIG-0.35  N 
ATOM      3 H    TRP P 344      23.947   8.011 -16.754  1.00 31.29 LIG 0.16  HD
ATOM      4  C   PRO P 343      25.246   8.456 -15.372  1.00 32.37 LIG 0.24  C 
ATOM      5 O    PRO P 343      25.624   8.187 -14.231  1.00 31.41 LIG-0.27  OA
BRANCH 4 6
ATOM      6  CA  PRO P 343      25.986   9.491 -16.209  1.00 33.03 LIG 0.18  C 
ATOM      7  N   PRO P 343      25.127  10.584 -16.676  1.00 34.38 LIG-0.34  N 
ATOM      8  C   ASP P 342      24.083  10.374 -17.491  1.00 36.67 LIG 0.24  C 
ATOM      9  CD  PRO P 343      25.406  11.819 -15.922  1.00 33.21 LIG 0.13  C 
ATOM     10 O    ASP P 342      23.777   9.247 -17.881  1.00 37.60 LIG-0.27  OA
ATOM     11  CG  PRO P 343      26.223  11.307 -14.747  1.00 33.09 LIG 0.02  C 
ATOM     12  CB  PRO P 343      27.038  10.220 -15.394  1.00 32.10 LIG 0.04  C 
BRANCH 8 13
ATOM     13  CA  ASP P 342      23.270  11.595 -17.911  1.00 38.79 LIG 0.19  C 
BRANCH 13 14
ATOM     14  CB  ASP P 342      22.185  11.183 -18.908  1.00 38.78 LIG 0.15  C 
BRANCH 14 15
ATOM     15  CG  ASP P 342      20.851  10.927 -18.240  1.00 39.37 LIG 0.17  C 
ATOM     16 OD2  ASP P 342      20.524   9.749 -17.990  1.00 39.72 LIG-0.65  OA
ATOM     17 OD1  ASP P 342      20.129  11.905 -17.958  1.00 40.57 LIG-0.65  OA
ENDBRANCH 14 15
ENDBRANCH 13 14
BRANCH 13 18
ATOM     18  N   ASP P 342      24.185  12.543 -18.526  1.00 40.71 LIG-0.34  N 
ATOM     19 H    ASP P 342      24.673  12.213 -19.153  1.00 40.71 LIG 0.16  HD
ATOM     20  C   SER P 341      24.238  13.808 -18.129  1.00 42.75 LIG 0.26  C 
ATOM     21 O    SER P 341      23.509  14.260 -17.245  1.00 44.14 LIG-0.27  OA
BRANCH 20 22
ATOM     22  CA  SER P 341      25.254  14.702 -18.846  1.00 43.56 LIG 0.42  C 
ATOM     23  N   SER P 341      24.728  16.092 -19.023  1.00 43.48 LIG 0.62  N 
BRANCH 22 24
ATOM     24  CB  SER P 341      26.562  14.733 -18.046  1.00 43.44 LIG 0.21  C 
BRANCH 24 25
ATOM     25 OG   SER P 341      27.274  13.513 -18.195  1.00 45.13 LIG-0.40  OA
ATOM     26 HG   SER P 341      27.557  13.260 -17.446  1.00 45.13 LIG 0.21  HD
ENDBRANCH 24 25
ENDBRANCH 22 24
ENDBRANCH 20 22
ENDBRANCH 13 18
ENDBRANCH 8 13
ENDBRANCH 4 6
ENDBRANCH 1 2
BRANCH 1 27
ATOM     27  C   TRP P 344      23.302   5.521 -15.801  1.00 32.97 LIG 0.24  C 
ATOM     28 O    TRP P 344      22.245   4.902 -15.739  1.00 31.81 LIG-0.27  OA
ATOM     29  N   LYS P 345      24.390   5.024 -16.377  1.00 34.20 LIG-0.34  N 
ATOM     30 H    LYS P 345      25.140   5.439 -16.455  1.00 34.20 LIG 0.16  HD
BRANCH 29 31
ATOM     31  CA  LYS P 345      24.362   3.676 -16.932  1.00 35.76 LIG 0.18  C 
BRANCH 31 32
ATOM     32  C   LYS P 345      25.556   2.838 -16.493  1.00 35.89 LIG 0.20  C 
ATOM     33 O    LYS P 345      26.632   3.440 -16.287  1.00 35.39 LIG-0.65  OA
ATOM     34 OXT  LYS P 345      25.393   1.604 -16.339  1.00 36.91 LIG-0.65  OA
ENDBRANCH 31 32
BRANCH 31 35
ATOM     35  CB  LYS P 345      24.280   3.724 -18.460  1.00 34.89 LIG 0.04  C 
BRANCH 35 36
ATOM     36  CG  LYS P 345      23.114   2.912 -19.033  1.00 33.69 LIG 0.00  C 
BRANCH 36 37
ATOM     37  CD  LYS P 345      22.176   2.380 -17.958  1.00 29.41 LIG 0.03  C 
BRANCH 37 38
ATOM     38  CE  LYS P 345      20.939   1.726 -18.571  1.00 29.69 LIG 0.23  C 
BRANCH 38 39
ATOM     39  NZ  LYS P 345      20.050   1.043 -17.584  1.00 27.83 LIG-0.08  N 
ATOM     40 HZ3  LYS P 345      19.941   1.566 -16.872  1.00 27.83 LIG 0.27  HD
ATOM     41 HZ1  LYS P 345      19.259   0.882 -17.958  1.00 27.83 LIG 0.27  HD
ATOM     42 HZ2  LYS P 345      20.421   0.274 -17.333  1.00 27.83 LIG 0.27  HD
ENDBRANCH 38 39
ENDBRANCH 37 38
ENDBRANCH 36 37
ENDBRANCH 35 36
ENDBRANCH 31 35
ENDBRANCH 29 31
ENDBRANCH 1 27
BRANCH 1 43
ATOM     43  CB  TRP P 344      21.999   7.479 -14.962  1.00 30.74 LIG 0.07  C 
BRANCH 43 44
ATOM     44  CG  TRP P 344      22.037   8.761 -14.192  1.00 29.17 LIG-0.03  A 
ATOM     45  CD2 TRP P 344      21.861   8.915 -12.777  1.00 26.66 LIG-0.00  A 
ATOM     46  CE3 TRP P 344      21.595   8.025 -11.728  1.00 26.53 LIG 0.01  A 
ATOM     47  CE2 TRP P 344      22.006  10.288 -12.485  1.00 26.53 LIG 0.04  A 
ATOM     48  CZ3 TRP P 344      21.482   8.530 -10.431  1.00 24.28 LIG 0.00  A 
ATOM     49  CH2 TRP P 344      21.631   9.904 -10.179  1.00 25.87 LIG 0.00  A 
ATOM     50  CZ2 TRP P 344      21.893  10.796 -11.191  1.00 24.89 LIG 0.03  A 
ATOM     51  NE1 TRP P 344      22.260  10.932 -13.667  1.00 27.39 LIG-0.36  N 
ATOM     52  CD1 TRP P 344      22.274  10.009 -14.686  1.00 29.08 LIG 0.10  A 
ATOM     53 HE1  TRP P 344      22.389  11.777 -13.758  1.00 27.39 LIG 0.17  HD
ENDBRANCH 43 44
ENDBRANCH 1 43
TORSDOF 19
ENDMDL
MODEL 8
USER: ADFR SOLUTION from run 172
USER: SCORE 14.679090 LL:  -2.697 LR: -12.148 RR:   0.000 FEB:  -6.481
USER: RMSD 4.505686
USER: SEED 171
USER: STATUS no improvement in best in 26 clusters for 5 generations
USER: GENES 21
USER: genes 0 Translation |==|  0.44531 0.50150 0.56876
USER: genes 1 Rotation |==|  0.38029 0.52642 0.56089 0.98090
USER: genes 2 Torsion [C]-CA--N-[C] |==|  0.82608
USER: genes 3 Torsion [N]-C--CA-[N] |==|  0.49202
USER: genes 4 Torsion [N]-C--CA-[N] |==|  0.31108
USER: genes 5 Torsion [C]-CA--CB-[CG] |==|  0.19276
USER: genes 6 Torsion [CA]-CB--CG-[OD1] |==|  0.62424
USER: genes 7 Torsion [C]-CA--N-[C] |==|  0.76708
USER: genes 8 Torsion [N]-C--CA-[N] |==|  0.52856
USER: genes 9 Torsion [C]-CA--CB-[OG] |==|  0.24873
USER: genes 10 Torsion [CA]-CB--OG-[HG] |==|  0.27341
USER: genes 11 Torsion [N]-CA--C-[N] |==|  0.92376
USER: genes 12 Torsion [C]-N--CA-[C] |==|  0.59056
USER: genes 13 Torsion [N]-CA--C-[O] |==|  0.75738
USER: genes 14 Torsion [N]-CA--CB-[CG] |==|  0.79519
USER: genes 15 Torsion [CA]-CB--CG-[CD] |==|  0.43636
USER: genes 16 Torsion [CB]-CG--CD-[CE] |==|  0.52796
USER: genes 17 Torsion [CG]-CD--CE-[NZ] |==|  0.56600
USER: genes 18 Torsion [CD]-CE--NZ-[HZ2] |==|  0.83725
USER: genes 19 Torsion [N]-CA--CB-[CG] |==|  0.75263
USER: genes 20 Torsion [CA]-CB--CG-[CD2] |==|  0.73951
ROOT
ATOM      1  CA  TRP P 344      24.854   8.580 -15.118  1.00 32.15 LIG 0.18  C 
ENDROOT
BRANCH 1 2
ATOM      2  N   TRP P 344      25.504   9.623 -15.888  1.00 31.29 LIG-0.35  N 
ATOM      3 H    TRP P 344      24.978  10.090 -16.383  1.00 31.29 LIG 0.16  HD
ATOM      4  C   PRO P 343      26.816   9.807 -15.802  1.00 32.37 LIG 0.24  C 
ATOM      5 O    PRO P 343      27.552   9.083 -15.130  1.00 31.41 LIG-0.27  OA
BRANCH 4 6
ATOM      6  CA  PRO P 343      27.391  10.968 -16.602  1.00 33.03 LIG 0.18  C 
ATOM      7  N   PRO P 343      28.832  11.151 -16.407  1.00 34.38 LIG-0.34  N 
ATOM      8  C   ASP P 342      29.359  11.450 -15.211  1.00 36.67 LIG 0.24  C 
ATOM      9  CD  PRO P 343      29.576  10.699 -17.597  1.00 33.21 LIG 0.13  C 
ATOM     10 O    ASP P 342      28.663  11.571 -14.204  1.00 37.60 LIG-0.27  OA
ATOM     11  CG  PRO P 343      28.524   9.912 -18.360  1.00 33.09 LIG 0.02  C 
ATOM     12  CB  PRO P 343      27.285  10.723 -18.096  1.00 32.10 LIG 0.04  C 
BRANCH 8 13
ATOM     13  CA  ASP P 342      30.874  11.622 -15.140  1.00 38.79 LIG 0.19  C 
BRANCH 13 14
ATOM     14  CB  ASP P 342      31.449  10.745 -14.027  1.00 38.78 LIG 0.15  C 
BRANCH 14 15
ATOM     15  CG  ASP P 342      31.366   9.268 -14.351  1.00 39.37 LIG 0.17  C 
ATOM     16 OD2  ASP P 342      31.698   8.888 -15.492  1.00 39.72 LIG-0.65  OA
ATOM     17 OD1  ASP P 342      30.972   8.485 -13.464  1.00 40.57 LIG-0.65  OA
ENDBRANCH 14 15
ENDBRANCH 13 14
BRANCH 13 18
ATOM     18  N   ASP P 342      31.145  13.024 -14.866  1.00 40.71 LIG-0.34  N 
ATOM     19 H    ASP P 342      31.275  13.208 -14.036  1.00 40.71 LIG 0.16  HD
ATOM     20  C   SER P 341      31.183  13.923 -15.842  1.00 42.75 LIG 0.26  C 
ATOM     21 O    SER P 341      31.019  13.628 -17.027  1.00 44.14 LIG-0.27  OA
BRANCH 20 22
ATOM     22  CA  SER P 341      31.463  15.369 -15.422  1.00 43.56 LIG 0.42  C 
ATOM     23  N   SER P 341      31.238  16.320 -16.556  1.00 43.48 LIG 0.62  N 
BRANCH 22 24
ATOM     24  CB  SER P 341      30.563  15.741 -14.238  1.00 43.44 LIG 0.21  C 
BRANCH 24 25
ATOM     25 OG   SER P 341      31.196  15.428 -13.005  1.00 45.13 LIG-0.40  OA
ATOM     26 HG   SER P 341      31.547  16.122 -12.687  1.00 45.13 LIG 0.21  HD
ENDBRANCH 24 25
ENDBRANCH 22 24
ENDBRANCH 20 22
ENDBRANCH 13 18
ENDBRANCH 8 13
ENDBRANCH 4 6
ENDBRANCH 1 2
BRANCH 1 27
ATOM     27  C   TRP P 344      25.271   7.158 -15.427  1.00 32.97 LIG 0.24  C 
ATOM     28 O    TRP P 344      25.190   6.294 -14.560  1.00 31.81 LIG-0.27  OA
ATOM     29  N   LYS P 345      25.715   6.904 -16.652  1.00 34.20 LIG-0.34  N 
ATOM     30 H    LYS P 345      25.765   7.481 -17.289  1.00 34.20 LIG 0.16  HD
BRANCH 29 31
ATOM     31  CA  LYS P 345      26.161   5.558 -16.994  1.00 35.76 LIG 0.18  C 
BRANCH 31 32
ATOM     32  C   LYS P 345      27.293   5.560 -18.014  1.00 35.89 LIG 0.20  C 
ATOM     33 O    LYS P 345      26.973   5.574 -19.223  1.00 35.39 LIG-0.65  OA
ATOM     34 OXT  LYS P 345      28.475   5.571 -17.593  1.00 36.91 LIG-0.65  OA
ENDBRANCH 31 32
BRANCH 31 35
ATOM     35  CB  LYS P 345      24.990   4.714 -17.502  1.00 34.89 LIG 0.04  C 
BRANCH 35 36
ATOM     36  CG  LYS P 345      24.026   4.279 -16.393  1.00 33.69 LIG 0.00  C 
BRANCH 36 37
ATOM     37  CD  LYS P 345      22.635   3.947 -16.912  1.00 29.41 LIG 0.03  C 
BRANCH 37 38
ATOM     38  CE  LYS P 345      21.642   3.760 -15.767  1.00 29.69 LIG 0.23  C 
BRANCH 38 39
ATOM     39  NZ  LYS P 345      20.457   2.917 -16.110  1.00 27.83 LIG-0.08  N 
ATOM     40 HZ3  LYS P 345      20.729   2.099 -16.332  1.00 27.83 LIG 0.27  HD
ATOM     41 HZ1  LYS P 345      19.914   2.869 -15.407  1.00 27.83 LIG 0.27  HD
ATOM     42 HZ2  LYS P 345      20.022   3.282 -16.795  1.00 27.83 LIG 0.27  HD
ENDBRANCH 38 39
ENDBRANCH 37 38
ENDBRANCH 36 37
ENDBRANCH 35 36
ENDBRANCH 31 35
ENDBRANCH 29 31
ENDBRANCH 1 27
BRANCH 1 43
ATOM     43  CB  TRP P 344      23.333   8.718 -15.222  1.00 30.74 LIG 0.07  C 
BRANCH 43 44
ATOM     44  CG  TRP P 344      22.772   9.610 -14.159  1.00 29.17 LIG-0.03  A 
ATOM     45  CD2 TRP P 344      22.253   9.203 -12.886  1.00 26.66 LIG-0.00  A 
ATOM     46  CE3 TRP P 344      22.078   7.962 -12.260  1.00 26.53 LIG 0.01  A 
ATOM     47  CE2 TRP P 344      21.864  10.373 -12.200  1.00 26.53 LIG 0.04  A 
ATOM     48  CZ3 TRP P 344      21.525   7.929 -10.977  1.00 24.28 LIG 0.00  A 
ATOM     49  CH2 TRP P 344      21.148   9.115 -10.326  1.00 25.87 LIG 0.00  A 
ATOM     50  CZ2 TRP P 344      21.310  10.343 -10.921  1.00 24.89 LIG 0.03  A 
ATOM     51  NE1 TRP P 344      22.138  11.437 -13.019  1.00 27.39 LIG-0.36  N 
ATOM     52  CD1 TRP P 344      22.680  10.969 -14.193  1.00 29.08 LIG 0.10  A 
ATOM     53 HE1  TRP P 344      21.994  12.263 -12.830  1.00 27.39 LIG 0.17  HD
ENDBRANCH 43 44
ENDBRANCH 1 43
TORSDOF 19
ENDMDL
MODEL 9
USER: ADFR SOLUTION from run 26
USER: SCORE 14.820626 LL:  -3.315 LR: -12.095 RR:   0.000 FEB:  -6.427
USER: RMSD 3.792386
USER: SEED 25
USER: STATUS no improvement in best in 18 clusters for 5 generations
USER: GENES 21
USER: genes 0 Translation |==|  0.35915 0.43927 0.57163
USER: genes 1 Rotation |==|  0.44843 0.53022 0.46008 0.99481
USER: genes 2 Torsion [C]-CA--N-[C] |==|  0.71011
USER: genes 3 Torsion [N]-C--CA-[N] |==|  0.91403
USER: genes 4 Torsion [N]-C--CA-[N] |==|  0.12897
USER: genes 5 Torsion [C]-CA--CB-[CG] |==|  0.82276
USER: genes 6 Torsion [CA]-CB--CG-[OD1] |==|  0.22740
USER: genes 7 Torsion [C]-CA--N-[C] |==|  0.62838
USER: genes 8 Torsion [N]-C--CA-[N] |==|  0.42697
USER: genes 9 Torsion [C]-CA--CB-[OG] |==|  0.29899
USER: genes 10 Torsion [CA]-CB--OG-[HG] |==|  0.01852
USER: genes 11 Torsion [N]-CA--C-[N] |==|  0.06961
USER: genes 12 Torsion [C]-N--CA-[C] |==|  0.61023
USER: genes 13 Torsion [N]-CA--C-[O] |==|  0.91655
USER: genes 14 Torsion [N]-CA--CB-[CG] |==|  0.70105
USER: genes 15 Torsion [CA]-CB--CG-[CD] |==|  0.94755
USER: genes 16 Torsion [CB]-CG--CD-[CE] |==|  0.53846
USER: genes 17 Torsion [CG]-CD--CE-[NZ] |==|  0.45983
USER: genes 18 Torsion [CD]-CE--NZ-[HZ2] |==|  0.05474
USER: genes 19 Torsion [N]-CA--CB-[CG] |==|  0.82650
USER: genes 20 Torsion [CA]-CB--CG-[CD2] |==|  0.77704
ROOT
ATOM      1  CA  TRP P 344      23.432   7.040 -15.062  1.00 32.15 LIG 0.18  C 
ENDROOT
BRANCH 1 2
ATOM      2  N   TRP P 344      24.515   7.876 -15.541  1.00 31.29 LIG-0.35  N 
ATOM      3 H    TRP P 344      24.375   8.250 -16.302  1.00 31.29 LIG 0.16  HD
ATOM      4  C   PRO P 343      25.622   8.024 -14.823  1.00 32.37 LIG 0.24  C 
ATOM      5 O    PRO P 343      25.819   7.427 -13.764  1.00 31.41 LIG-0.27  OA
BRANCH 4 6
ATOM      6  CA  PRO P 343      26.672   8.973 -15.385  1.00 33.03 LIG 0.18  C 
ATOM      7  N   PRO P 343      26.687   9.024 -16.850  1.00 34.38 LIG-0.34  N 
ATOM      8  C   ASP P 342      26.966   7.948 -17.599  1.00 36.67 LIG 0.24  C 
ATOM      9  CD  PRO P 343      26.101  10.288 -17.329  1.00 33.21 LIG 0.13  C 
ATOM     10 O    ASP P 342      27.211   6.850 -17.098  1.00 37.60 LIG-0.27  OA
ATOM     11  CG  PRO P 343      25.418  10.825 -16.082  1.00 33.09 LIG 0.02  C 
ATOM     12  CB  PRO P 343      26.383  10.413 -15.004  1.00 32.10 LIG 0.04  C 
BRANCH 8 13
ATOM     13  CA  ASP P 342      26.956   8.131 -19.114  1.00 38.79 LIG 0.19  C 
BRANCH 13 14
ATOM     14  CB  ASP P 342      27.609   6.925 -19.791  1.00 38.78 LIG 0.15  C 
BRANCH 14 15
ATOM     15  CG  ASP P 342      29.074   6.782 -19.433  1.00 39.37 LIG 0.17  C 
ATOM     16 OD2  ASP P 342      29.929   7.225 -20.227  1.00 39.72 LIG-0.65  OA
ATOM     17 OD1  ASP P 342      29.371   6.231 -18.355  1.00 40.57 LIG-0.65  OA
ENDBRANCH 14 15
ENDBRANCH 13 14
BRANCH 13 18
ATOM     18  N   ASP P 342      27.702   9.342 -19.416  1.00 40.71 LIG-0.34  N 
ATOM     19 H    ASP P 342      28.452   9.413 -19.002  1.00 40.71 LIG 0.16  HD
ATOM     20  C   SER P 341      27.234  10.246 -20.267  1.00 42.75 LIG 0.26  C 
ATOM     21 O    SER P 341      26.166  10.108 -20.867  1.00 44.14 LIG-0.27  OA
BRANCH 20 22
ATOM     22  CA  SER P 341      28.106  11.486 -20.488  1.00 43.56 LIG 0.42  C 
ATOM     23  N   SER P 341      27.863  12.091 -21.836  1.00 43.48 LIG 0.62  N 
BRANCH 22 24
ATOM     24  CB  SER P 341      27.819  12.516 -19.390  1.00 43.44 LIG 0.21  C 
BRANCH 24 25
ATOM     25 OG   SER P 341      28.902  12.594 -18.475  1.00 45.13 LIG-0.40  OA
ATOM     26 HG   SER P 341      29.541  12.125 -18.756  1.00 45.13 LIG 0.21  HD
ENDBRANCH 24 25
ENDBRANCH 22 24
ENDBRANCH 20 22
ENDBRANCH 13 18
ENDBRANCH 8 13
ENDBRANCH 4 6
ENDBRANCH 1 2
BRANCH 1 27
ATOM     27  C   TRP P 344      23.285   5.687 -15.725  1.00 32.97 LIG 0.24  C 
ATOM     28 O    TRP P 344      22.194   5.127 -15.739  1.00 31.81 LIG-0.27  OA
ATOM     29  N   LYS P 345      24.369   5.155 -16.277  1.00 34.20 LIG-0.34  N 
ATOM     30 H    LYS P 345      25.144   5.529 -16.303  1.00 34.20 LIG 0.16  HD
BRANCH 29 31
ATOM     31  CA  LYS P 345      24.291   3.839 -16.899  1.00 35.76 LIG 0.18  C 
BRANCH 31 32
ATOM     32  C   LYS P 345      25.523   2.986 -16.618  1.00 35.89 LIG 0.20  C 
ATOM     33 O    LYS P 345      26.607   3.585 -16.452  1.00 35.39 LIG-0.65  OA
ATOM     34 OXT  LYS P 345      25.381   1.742 -16.544  1.00 36.91 LIG-0.65  OA
ENDBRANCH 31 32
BRANCH 31 35
ATOM     35  CB  LYS P 345      24.068   3.968 -18.408  1.00 34.89 LIG 0.04  C 
BRANCH 35 36
ATOM     36  CG  LYS P 345      22.653   3.581 -18.849  1.00 33.69 LIG 0.00  C 
BRANCH 36 37
ATOM     37  CD  LYS P 345      21.920   2.735 -17.818  1.00 29.41 LIG 0.03  C 
BRANCH 37 38
ATOM     38  CE  LYS P 345      20.670   2.090 -18.413  1.00 29.69 LIG 0.23  C 
BRANCH 38 39
ATOM     39  NZ  LYS P 345      20.090   0.990 -17.584  1.00 27.83 LIG-0.08  N 
ATOM     40 HZ3  LYS P 345      19.202   1.048 -17.593  1.00 27.83 LIG 0.27  HD
ATOM     41 HZ1  LYS P 345      20.340   0.204 -17.917  1.00 27.83 LIG 0.27  HD
ATOM     42 HZ2  LYS P 345      20.384   1.063 -16.747  1.00 27.83 LIG 0.27  HD
ENDBRANCH 38 39
ENDBRANCH 37 38
ENDBRANCH 36 37
ENDBRANCH 35 36
ENDBRANCH 31 35
ENDBRANCH 29 31
ENDBRANCH 1 27
BRANCH 1 43
ATOM     43  CB  TRP P 344      22.107   7.805 -15.124  1.00 30.74 LIG 0.07  C 
BRANCH 43 44
ATOM     44  CG  TRP P 344      22.110   9.012 -14.240  1.00 29.17 LIG-0.03  A 
ATOM     45  CD2 TRP P 344      21.892   9.035 -12.823  1.00 26.66 LIG-0.00  A 
ATOM     46  CE3 TRP P 344      21.604   8.052 -11.868  1.00 26.53 LIG 0.01  A 
ATOM     47  CE2 TRP P 344      22.014  10.377 -12.404  1.00 26.53 LIG 0.04  A 
ATOM     48  CZ3 TRP P 344      21.449   8.436 -10.534  1.00 24.28 LIG 0.00  A 
ATOM     49  CH2 TRP P 344      21.576   9.783 -10.154  1.00 25.87 LIG 0.00  A 
ATOM     50  CZ2 TRP P 344      21.858  10.765 -11.074  1.00 24.89 LIG 0.03  A 
ATOM     51  NE1 TRP P 344      22.295  11.128 -13.515  1.00 27.39 LIG-0.36  N 
ATOM     52  CD1 TRP P 344      22.348  10.301 -14.612  1.00 29.08 LIG 0.10  A 
ATOM     53 HE1  TRP P 344      22.418  11.979 -13.525  1.00 27.39 LIG 0.17  HD
ENDBRANCH 43 44
ENDBRANCH 1 43
TORSDOF 19
ENDMDL
MODEL 10
USER: ADFR SOLUTION from run 92
USER: SCORE 15.371106 LL:  -3.349 LR: -12.058 RR:   0.000 FEB:  -6.390
USER: RMSD 3.708653
USER: SEED 91
USER: STATUS searching
USER: GENES 21
USER: genes 0 Translation |==|  0.41841 0.47413 0.55841
USER: genes 1 Rotation |==|  0.48351 0.57276 0.58243 0.98748
USER: genes 2 Torsion [C]-CA--N-[C] |==|  0.82295
USER: genes 3 Torsion [N]-C--CA-[N] |==|  0.99054
USER: genes 4 Torsion [N]-C--CA-[N] |==|  0.43307
USER: genes 5 Torsion [C]-CA--CB-[CG] |==|  0.74762
USER: genes 6 Torsion [CA]-CB--CG-[OD1] |==|  0.25140
USER: genes 7 Torsion [C]-CA--N-[C] |==|  0.78898
USER: genes 8 Torsion [N]-C--CA-[N] |==|  0.52852
USER: genes 9 Torsion [C]-CA--CB-[OG] |==|  0.86417
USER: genes 10 Torsion [CA]-CB--OG-[HG] |==|  0.91822
USER: genes 11 Torsion [N]-CA--C-[N] |==|  0.37499
USER: genes 12 Torsion [C]-N--CA-[C] |==|  0.72691
USER: genes 13 Torsion [N]-CA--C-[O] |==|  0.49519
USER: genes 14 Torsion [N]-CA--CB-[CG] |==|  0.27597
USER: genes 15 Torsion [CA]-CB--CG-[CD] |==|  0.38626
USER: genes 16 Torsion [CB]-CG--CD-[CE] |==|  0.58009
USER: genes 17 Torsion [CG]-CD--CE-[NZ] |==|  0.65358
USER: genes 18 Torsion [CD]-CE--NZ-[HZ2] |==|  0.63580
USER: genes 19 Torsion [N]-CA--CB-[CG] |==|  0.84895
USER: genes 20 Torsion [CA]-CB--CG-[CD2] |==|  0.68150
ROOT
ATOM      1  CA  TRP P 344      24.410   7.903 -15.320  1.00 32.15 LIG 0.18  C 
ENDROOT
BRANCH 1 2
ATOM      2  N   TRP P 344      24.888   9.195 -15.771  1.00 31.29 LIG-0.35  N 
ATOM      3 H    TRP P 344      24.273   9.775 -15.927  1.00 31.29 LIG 0.16  HD
ATOM      4  C   PRO P 343      26.189   9.420 -15.917  1.00 32.37 LIG 0.24  C 
ATOM      5 O    PRO P 343      27.044   8.550 -15.743  1.00 31.41 LIG-0.27  OA
BRANCH 4 6
ATOM      6  CA  PRO P 343      26.590  10.828 -16.334  1.00 33.03 LIG 0.18  C 
ATOM      7  N   PRO P 343      25.446  11.708 -16.589  1.00 34.38 LIG-0.34  N 
ATOM      8  C   ASP P 342      24.554  11.457 -17.558  1.00 36.67 LIG 0.24  C 
ATOM      9  CD  PRO P 343      25.290  12.683 -15.495  1.00 33.21 LIG 0.13  C 
ATOM     10 O    ASP P 342      24.636  10.463 -18.279  1.00 37.60 LIG-0.27  OA
ATOM     11  CG  PRO P 343      26.184  12.104 -14.412  1.00 33.09 LIG 0.02  C 
ATOM     12  CB  PRO P 343      27.325  11.552 -15.221  1.00 32.10 LIG 0.04  C 
BRANCH 8 13
ATOM     13  CA  ASP P 342      23.409  12.453 -17.728  1.00 38.79 LIG 0.19  C 
BRANCH 13 14
ATOM     14  CB  ASP P 342      22.281  12.126 -16.748  1.00 38.78 LIG 0.15  C 
BRANCH 14 15
ATOM     15  CG  ASP P 342      21.256  11.181 -17.340  1.00 39.37 LIG 0.17  C 
ATOM     16 OD2  ASP P 342      20.286  11.664 -17.960  1.00 39.72 LIG-0.65  OA
ATOM     17 OD1  ASP P 342      21.421   9.954 -17.190  1.00 40.57 LIG-0.65  OA
ENDBRANCH 14 15
ENDBRANCH 13 14
BRANCH 13 18
ATOM     18  N   ASP P 342      22.933  12.347 -19.097  1.00 40.71 LIG-0.34  N 
ATOM     19 H    ASP P 342      22.190  11.922 -19.186  1.00 40.71 LIG 0.16  HD
ATOM     20  C   SER P 341      23.613  12.875 -20.107  1.00 42.75 LIG 0.26  C 
ATOM     21 O    SER P 341      24.662  13.501 -19.949  1.00 44.14 LIG-0.27  OA
BRANCH 20 22
ATOM     22  CA  SER P 341      23.014  12.682 -21.503  1.00 43.56 LIG 0.42  C 
ATOM     23  N   SER P 341      23.977  13.096 -22.572  1.00 43.48 LIG 0.62  N 
BRANCH 22 24
ATOM     24  CB  SER P 341      22.619  11.213 -21.691  1.00 43.44 LIG 0.21  C 
BRANCH 24 25
ATOM     25 OG   SER P 341      23.681  10.351 -21.311  1.00 45.13 LIG-0.40  OA
ATOM     26 HG   SER P 341      24.416  10.739 -21.439  1.00 45.13 LIG 0.21  HD
ENDBRANCH 24 25
ENDBRANCH 22 24
ENDBRANCH 20 22
ENDBRANCH 13 18
ENDBRANCH 8 13
ENDBRANCH 4 6
ENDBRANCH 1 2
BRANCH 1 27
ATOM     27  C   TRP P 344      24.690   6.727 -16.232  1.00 32.97 LIG 0.24  C 
ATOM     28 O    TRP P 344      24.498   6.829 -17.439  1.00 31.81 LIG-0.27  OA
ATOM     29  N   LYS P 345      25.144   5.613 -15.671  1.00 34.20 LIG-0.34  N 
ATOM     30 H    LYS P 345      25.308   5.514 -14.832  1.00 34.20 LIG 0.16  HD
BRANCH 29 31
ATOM     31  CA  LYS P 345      25.398   4.439 -16.498  1.00 35.76 LIG 0.18  C 
BRANCH 31 32
ATOM     32  C   LYS P 345      24.251   3.436 -16.459  1.00 35.89 LIG 0.20  C 
ATOM     33 O    LYS P 345      24.364   2.411 -17.165  1.00 35.39 LIG-0.65  OA
ATOM     34 OXT  LYS P 345      23.275   3.678 -15.709  1.00 36.91 LIG-0.65  OA
ENDBRANCH 31 32
BRANCH 31 35
ATOM     35  CB  LYS P 345      26.708   3.763 -16.087  1.00 34.89 LIG 0.04  C 
BRANCH 35 36
ATOM     36  CG  LYS P 345      26.506   2.546 -15.178  1.00 33.69 LIG 0.00  C 
BRANCH 36 37
ATOM     37  CD  LYS P 345      27.427   1.385 -15.527  1.00 29.41 LIG 0.03  C 
BRANCH 37 38
ATOM     38  CE  LYS P 345      26.794   0.043 -15.164  1.00 29.69 LIG 0.23  C 
BRANCH 38 39
ATOM     39  NZ  LYS P 345      27.628  -0.807 -14.263  1.00 27.83 LIG-0.08  N 
ATOM     40 HZ3  LYS P 345      28.447  -0.462 -14.202  1.00 27.83 LIG 0.27  HD
ATOM     41 HZ1  LYS P 345      27.257  -0.836 -13.454  1.00 27.83 LIG 0.27  HD
ATOM     42 HZ2  LYS P 345      27.678  -1.631 -14.594  1.00 27.83 LIG 0.27  HD
ENDBRANCH 38 39
ENDBRANCH 37 38
ENDBRANCH 36 37
ENDBRANCH 35 36
ENDBRANCH 31 35
ENDBRANCH 29 31
ENDBRANCH 1 27
BRANCH 1 43
ATOM     43  CB  TRP P 344      22.915   7.976 -14.998  1.00 30.74 LIG 0.07  C 
BRANCH 43 44
ATOM     44  CG  TRP P 344      22.601   9.065 -14.021  1.00 29.17 LIG-0.03  A 
ATOM     45  CD2 TRP P 344      22.093   8.900 -12.690  1.00 26.66 LIG-0.00  A 
ATOM     46  CE3 TRP P 344      21.725   7.788 -11.921  1.00 26.53 LIG 0.01  A 
ATOM     47  CE2 TRP P 344      21.976  10.188 -12.125  1.00 26.53 LIG 0.04  A 
ATOM     48  CZ3 TRP P 344      21.256   7.995 -10.622  1.00 24.28 LIG 0.00  A 
ATOM     49  CH2 TRP P 344      21.151   9.293 -10.093  1.00 25.87 LIG 0.00  A 
ATOM     50  CZ2 TRP P 344      21.506  10.398 -10.829  1.00 24.89 LIG 0.03  A 
ATOM     51  NE1 TRP P 344      22.395  11.088 -13.069  1.00 27.39 LIG-0.36  N 
ATOM     52  CD1 TRP P 344      22.766  10.405 -14.204  1.00 29.08 LIG 0.10  A 
ATOM     53 HE1  TRP P 344      22.422  11.941 -12.969  1.00 27.39 LIG 0.17  HD
ENDBRANCH 43 44
ENDBRANCH 1 43
TORSDOF 19
ENDMDL
MODEL 11
USER: ADFR SOLUTION from run 122
USER: SCORE 14.666179 LL:  -3.161 LR: -11.991 RR:   0.000 FEB:  -6.323
USER: RMSD 3.306923
USER: SEED 121
USER: STATUS searching
USER: GENES 21
USER: genes 0 Translation |==|  0.44663 0.46581 0.58877
USER: genes 1 Rotation |==|  0.41803 0.55566 0.62920 0.97275
USER: genes 2 Torsion [C]-CA--N-[C] |==|  0.81488
USER: genes 3 Torsion [N]-C--CA-[N] |==|  0.02965
USER: genes 4 Torsion [N]-C--CA-[N] |==|  0.14297
USER: genes 5 Torsion [C]-CA--CB-[CG] |==|  0.35351
USER: genes 6 Torsion [CA]-CB--CG-[OD1] |==|  0.18233
USER: genes 7 Torsion [C]-CA--N-[C] |==|  0.62339
USER: genes 8 Torsion [N]-C--CA-[N] |==|  0.08073
USER: genes 9 Torsion [C]-CA--CB-[OG] |==|  0.17989
USER: genes 10 Torsion [CA]-CB--OG-[HG] |==|  0.80589
USER: genes 11 Torsion [N]-CA--C-[N] |==|  0.90077
USER: genes 12 Torsion [C]-N--CA-[C] |==|  0.63718
USER: genes 13 Torsion [N]-CA--C-[O] |==|  0.23031
USER: genes 14 Torsion [N]-CA--CB-[CG] |==|  0.82222
USER: genes 15 Torsion [CA]-CB--CG-[CD] |==|  0.38427
USER: genes 16 Torsion [CB]-CG--CD-[CE] |==|  0.59208
USER: genes 17 Torsion [CG]-CD--CE-[NZ] |==|  0.61660
USER: genes 18 Torsion [CD]-CE--NZ-[HZ2] |==|  0.78900
USER: genes 19 Torsion [N]-CA--CB-[CG] |==|  0.85697
USER: genes 20 Torsion [CA]-CB--CG-[CD2] |==|  0.68449
ROOT
ATOM      1  CA  TRP P 344      24.875   7.697 -14.728  1.00 32.15 LIG 0.18  C 
ENDROOT
BRANCH 1 2
ATOM      2  N   TRP P 344      25.110   8.946 -15.426  1.00 31.29 LIG-0.35  N 
ATOM      3 H    TRP P 344      24.412   9.297 -15.786  1.00 31.29 LIG 0.16  HD
ATOM      4  C   PRO P 343      26.328   9.470 -15.481  1.00 32.37 LIG 0.24  C 
ATOM      5 O    PRO P 343      27.320   8.913 -15.008  1.00 31.41 LIG-0.27  OA
BRANCH 4 6
ATOM      6  CA  PRO P 343      26.456  10.815 -16.184  1.00 33.03 LIG 0.18  C 
ATOM      7  N   PRO P 343      25.165  11.443 -16.479  1.00 34.38 LIG-0.34  N 
ATOM      8  C   ASP P 342      24.264  10.874 -17.293  1.00 36.67 LIG 0.24  C 
ATOM      9  CD  PRO P 343      24.921  12.576 -15.569  1.00 33.21 LIG 0.13  C 
ATOM     10 O    ASP P 342      24.464   9.783 -17.827  1.00 37.60 LIG-0.27  OA
ATOM     11  CG  PRO P 343      25.973  12.363 -14.493  1.00 33.09 LIG 0.02  C 
ATOM     12  CB  PRO P 343      27.133  11.845 -15.299  1.00 32.10 LIG 0.04  C 
BRANCH 8 13
ATOM     13  CA  ASP P 342      22.959  11.631 -17.526  1.00 38.79 LIG 0.19  C 
BRANCH 13 14
ATOM     14  CB  ASP P 342      22.149  10.949 -18.629  1.00 38.78 LIG 0.15  C 
BRANCH 14 15
ATOM     15  CG  ASP P 342      20.730  10.640 -18.199  1.00 39.37 LIG 0.17  C 
ATOM     16 OD2  ASP P 342      20.383   9.446 -18.096  1.00 39.72 LIG-0.65  OA
ATOM     17 OD1  ASP P 342      19.960  11.592 -17.959  1.00 40.57 LIG-0.65  OA
ENDBRANCH 14 15
ENDBRANCH 13 14
BRANCH 13 18
ATOM     18  N   ASP P 342      23.301  12.988 -17.919  1.00 40.71 LIG-0.34  N 
ATOM     19 H    ASP P 342      23.934  13.044 -18.500  1.00 40.71 LIG 0.16  HD
ATOM     20  C   SER P 341      22.670  14.036 -17.405  1.00 42.75 LIG 0.26  C 
ATOM     21 O    SER P 341      21.750  13.927 -16.593  1.00 44.14 LIG-0.27  OA
BRANCH 20 22
ATOM     22  CA  SER P 341      23.134  15.413 -17.889  1.00 43.56 LIG 0.42  C 
ATOM     23  N   SER P 341      23.676  15.348 -19.283  1.00 43.48 LIG 0.62  N 
BRANCH 22 24
ATOM     24  CB  SER P 341      21.961  16.398 -17.827  1.00 43.44 LIG 0.21  C 
BRANCH 24 25
ATOM     25 OG   SER P 341      21.545  16.604 -16.485  1.00 45.13 LIG-0.40  OA
ATOM     26 HG   SER P 341      21.177  15.906 -16.196  1.00 45.13 LIG 0.21  HD
ENDBRANCH 24 25
ENDBRANCH 22 24
ENDBRANCH 20 22
ENDBRANCH 13 18
ENDBRANCH 8 13
ENDBRANCH 4 6
ENDBRANCH 1 2
BRANCH 1 27
ATOM     27  C   TRP P 344      25.513   6.462 -15.328  1.00 32.97 LIG 0.24  C 
ATOM     28 O    TRP P 344      25.941   5.576 -14.596  1.00 31.81 LIG-0.27  OA
ATOM     29  N   LYS P 345      25.578   6.389 -16.652  1.00 34.20 LIG-0.34  N 
ATOM     30 H    LYS P 345      25.269   6.982 -17.195  1.00 34.20 LIG 0.16  HD
BRANCH 29 31
ATOM     31  CA  LYS P 345      26.212   5.237 -17.282  1.00 35.76 LIG 0.18  C 
BRANCH 31 32
ATOM     32  C   LYS P 345      27.231   5.638 -18.342  1.00 35.89 LIG 0.20  C 
ATOM     33 O    LYS P 345      28.379   5.936 -17.947  1.00 35.39 LIG-0.65  OA
ATOM     34 OXT  LYS P 345      26.876   5.623 -19.545  1.00 36.91 LIG-0.65  OA
ENDBRANCH 31 32
BRANCH 31 35
ATOM     35  CB  LYS P 345      25.158   4.305 -17.885  1.00 34.89 LIG 0.04  C 
BRANCH 35 36
ATOM     36  CG  LYS P 345      24.228   3.680 -16.840  1.00 33.69 LIG 0.00  C 
BRANCH 36 37
ATOM     37  CD  LYS P 345      22.773   3.647 -17.284  1.00 29.41 LIG 0.03  C 
BRANCH 37 38
ATOM     38  CE  LYS P 345      21.824   3.819 -16.099  1.00 29.69 LIG 0.23  C 
BRANCH 38 39
ATOM     39  NZ  LYS P 345      20.633   2.918 -16.128  1.00 27.83 LIG-0.08  N 
ATOM     40 HZ3  LYS P 345      20.888   2.096 -16.355  1.00 27.83 LIG 0.27  HD
ATOM     41 HZ1  LYS P 345      20.255   2.900 -15.323  1.00 27.83 LIG 0.27  HD
ATOM     42 HZ2  LYS P 345      20.046   3.221 -16.724  1.00 27.83 LIG 0.27  HD
ENDBRANCH 38 39
ENDBRANCH 37 38
ENDBRANCH 36 37
ENDBRANCH 35 36
ENDBRANCH 31 35
ENDBRANCH 29 31
ENDBRANCH 1 27
BRANCH 1 43
ATOM     43  CB  TRP P 344      23.373   7.474 -14.534  1.00 30.74 LIG 0.07  C 
BRANCH 43 44
ATOM     44  CG  TRP P 344      22.702   8.661 -13.916  1.00 29.17 LIG-0.03  A 
ATOM     45  CD2 TRP P 344      22.097   8.721 -12.617  1.00 26.66 LIG-0.00  A 
ATOM     46  CE3 TRP P 344      21.914   7.790 -11.586  1.00 26.53 LIG 0.01  A 
ATOM     47  CE2 TRP P 344      21.617  10.036 -12.441  1.00 26.53 LIG 0.04  A 
ATOM     48  CZ3 TRP P 344      21.262   8.198 -10.420  1.00 24.28 LIG 0.00  A 
ATOM     49  CH2 TRP P 344      20.796   9.516 -10.281  1.00 25.87 LIG 0.00  A 
ATOM     50  CZ2 TRP P 344      20.964  10.447 -11.279  1.00 24.89 LIG 0.03  A 
ATOM     51  NE1 TRP P 344      21.920  10.737 -13.578  1.00 27.39 LIG-0.36  N 
ATOM     52  CD1 TRP P 344      22.568   9.903 -14.458  1.00 29.08 LIG 0.10  A 
ATOM     53 HE1  TRP P 344      21.734  11.564 -13.719  1.00 27.39 LIG 0.17  HD
ENDBRANCH 43 44
ENDBRANCH 1 43
TORSDOF 19
ENDMDL
MODEL 12
USER: ADFR SOLUTION from run 8
USER: SCORE 14.806186 LL:  -3.611 LR: -11.727 RR:   0.000 FEB:  -6.059
USER: RMSD 3.388409
USER: SEED 932623
USER: STATUS searching
USER: GENES 21
USER: genes 0 Translation |==|  0.41257 0.46997 0.56211
USER: genes 1 Rotation |==|  0.45521 0.56572 0.57734 0.98754
USER: genes 2 Torsion [C]-CA--N-[C] |==|  0.79870
USER: genes 3 Torsion [N]-C--CA-[N] |==|  0.00859
USER: genes 4 Torsion [N]-C--CA-[N] |==|  0.44164
USER: genes 5 Torsion [C]-CA--CB-[CG] |==|  0.76127
USER: genes 6 Torsion [CA]-CB--CG-[OD1] |==|  0.68684
USER: genes 7 Torsion [C]-CA--N-[C] |==|  0.80015
USER: genes 8 Torsion [N]-C--CA-[N] |==|  0.44135
USER: genes 9 Torsion [C]-CA--CB-[OG] |==|  0.10595
USER: genes 10 Torsion [CA]-CB--OG-[HG] |==|  0.80816
USER: genes 11 Torsion [N]-CA--C-[N] |==|  0.52728
USER: genes 12 Torsion [C]-N--CA-[C] |==|  0.20227
USER: genes 13 Torsion [N]-CA--C-[O] |==|  0.81472
USER: genes 14 Torsion [N]-CA--CB-[CG] |==|  0.62114
USER: genes 15 Torsion [CA]-CB--CG-[CD] |==|  0.13624
USER: genes 16 Torsion [CB]-CG--CD-[CE] |==|  0.51347
USER: genes 17 Torsion [CG]-CD--CE-[NZ] |==|  0.46098
USER: genes 18 Torsion [CD]-CE--NZ-[HZ2] |==|  0.95648
USER: genes 19 Torsion [N]-CA--CB-[CG] |==|  0.83405
USER: genes 20 Torsion [CA]-CB--CG-[CD2] |==|  0.69860
ROOT
ATOM      1  CA  TRP P 344      24.313   7.800 -15.248  1.00 32.15 LIG 0.18  C 
ENDROOT
BRANCH 1 2
ATOM      2  N   TRP P 344      24.819   9.035 -15.813  1.00 31.29 LIG-0.35  N 
ATOM      3 H    TRP P 344      24.222   9.543 -16.167  1.00 31.29 LIG 0.16  HD
ATOM      4  C   PRO P 343      26.115   9.319 -15.765  1.00 32.37 LIG 0.24  C 
ATOM      5 O    PRO P 343      26.955   8.544 -15.306  1.00 31.41 LIG-0.27  OA
BRANCH 4 6
ATOM      6  CA  PRO P 343      26.535  10.669 -16.331  1.00 33.03 LIG 0.18  C 
ATOM      7  N   PRO P 343      25.405  11.487 -16.783  1.00 34.38 LIG-0.34  N 
ATOM      8  C   ASP P 342      24.593  11.096 -17.776  1.00 36.67 LIG 0.24  C 
ATOM      9  CD  PRO P 343      25.156  12.592 -15.840  1.00 33.21 LIG 0.13  C 
ATOM     10 O    ASP P 342      24.741  10.019 -18.353  1.00 37.60 LIG-0.27  OA
ATOM     11  CG  PRO P 343      25.969  12.175 -14.626  1.00 33.09 LIG 0.02  C 
ATOM     12  CB  PRO P 343      27.174  11.544 -15.269  1.00 32.10 LIG 0.04  C 
BRANCH 8 13
ATOM     13  CA  ASP P 342      23.457  12.040 -18.160  1.00 38.79 LIG 0.19  C 
BRANCH 13 14
ATOM     14  CB  ASP P 342      22.288  11.874 -17.188  1.00 38.78 LIG 0.15  C 
BRANCH 14 15
ATOM     15  CG  ASP P 342      21.353  10.753 -17.591  1.00 39.37 LIG 0.17  C 
ATOM     16 OD2  ASP P 342      21.770   9.578 -17.539  1.00 39.72 LIG-0.65  OA
ATOM     17 OD1  ASP P 342      20.196  11.046 -17.957  1.00 40.57 LIG-0.65  OA
ENDBRANCH 14 15
ENDBRANCH 13 14
BRANCH 13 18
ATOM     18  N   ASP P 342      23.039  11.700 -19.511  1.00 40.71 LIG-0.34  N 
ATOM     19 H    ASP P 342      22.275  11.307 -19.561  1.00 40.71 LIG 0.16  HD
ATOM     20  C   SER P 341      23.799  11.985 -20.560  1.00 42.75 LIG 0.26  C 
ATOM     21 O    SER P 341      24.879  12.570 -20.462  1.00 44.14 LIG-0.27  OA
BRANCH 20 22
ATOM     22  CA  SER P 341      23.255  11.562 -21.928  1.00 43.56 LIG 0.42  C 
ATOM     23  N   SER P 341      23.891  12.344 -23.034  1.00 43.48 LIG 0.62  N 
BRANCH 22 24
ATOM     24  CB  SER P 341      23.503  10.063 -22.135  1.00 43.44 LIG 0.21  C 
BRANCH 24 25
ATOM     25 OG   SER P 341      23.311   9.347 -20.923  1.00 45.13 LIG-0.40  OA
ATOM     26 HG   SER P 341      23.923   9.543 -20.382  1.00 45.13 LIG 0.21  HD
ENDBRANCH 24 25
ENDBRANCH 22 24
ENDBRANCH 20 22
ENDBRANCH 13 18
ENDBRANCH 8 13
ENDBRANCH 4 6
ENDBRANCH 1 2
BRANCH 1 27
ATOM     27  C   TRP P 344      24.630   6.532 -16.013  1.00 32.97 LIG 0.24  C 
ATOM     28 O    TRP P 344      25.428   6.562 -16.944  1.00 31.81 LIG-0.27  OA
ATOM     29  N   LYS P 345      24.016   5.419 -15.631  1.00 34.20 LIG-0.34  N 
ATOM     30 H    LYS P 345      23.467   5.359 -14.971  1.00 34.20 LIG 0.16  HD
BRANCH 29 31
ATOM     31  CA  LYS P 345      24.258   4.176 -16.355  1.00 35.76 LIG 0.18  C 
BRANCH 31 32
ATOM     32  C   LYS P 345      25.639   3.596 -16.074  1.00 35.89 LIG 0.20  C 
ATOM     33 O    LYS P 345      26.626   4.246 -16.483  1.00 35.39 LIG-0.65  OA
ATOM     34 OXT  LYS P 345      25.714   2.521 -15.432  1.00 36.91 LIG-0.65  OA
ENDBRANCH 31 32
BRANCH 31 35
ATOM     35  CB  LYS P 345      24.065   4.381 -17.859  1.00 34.89 LIG 0.04  C 
BRANCH 35 36
ATOM     36  CG  LYS P 345      23.280   3.251 -18.533  1.00 33.69 LIG 0.00  C 
BRANCH 36 37
ATOM     37  CD  LYS P 345      21.994   2.901 -17.798  1.00 29.41 LIG 0.03  C 
BRANCH 37 38
ATOM     38  CE  LYS P 345      21.302   1.694 -18.428  1.00 29.69 LIG 0.23  C 
BRANCH 38 39
ATOM     39  NZ  LYS P 345      20.228   1.089 -17.584  1.00 27.83 LIG-0.08  N 
ATOM     40 HZ3  LYS P 345      19.431   1.320 -17.907  1.00 27.83 LIG 0.27  HD
ATOM     41 HZ1  LYS P 345      20.307   0.203 -17.594  1.00 27.83 LIG 0.27  HD
ATOM     42 HZ2  LYS P 345      20.306   1.384 -16.748  1.00 27.83 LIG 0.27  HD
ENDBRANCH 38 39
ENDBRANCH 37 38
ENDBRANCH 36 37
ENDBRANCH 35 36
ENDBRANCH 31 35
ENDBRANCH 29 31
ENDBRANCH 1 27
BRANCH 1 43
ATOM     43  CB  TRP P 344      22.806   7.908 -15.006  1.00 30.74 LIG 0.07  C 
BRANCH 43 44
ATOM     44  CG  TRP P 344      22.463   9.019 -14.065  1.00 29.17 LIG-0.03  A 
ATOM     45  CD2 TRP P 344      21.998   8.885 -12.715  1.00 26.66 LIG-0.00  A 
ATOM     46  CE3 TRP P 344      21.706   7.789 -11.893  1.00 26.53 LIG 0.01  A 
ATOM     47  CE2 TRP P 344      21.832  10.187 -12.199  1.00 26.53 LIG 0.04  A 
ATOM     48  CZ3 TRP P 344      21.260   8.026 -10.590  1.00 24.28 LIG 0.00  A 
ATOM     49  CH2 TRP P 344      21.105   9.338 -10.111  1.00 25.87 LIG 0.00  A 
ATOM     50  CZ2 TRP P 344      21.385  10.428 -10.900  1.00 24.89 LIG 0.03  A 
ATOM     51  NE1 TRP P 344      22.182  11.067 -13.189  1.00 27.39 LIG-0.36  N 
ATOM     52  CD1 TRP P 344      22.556  10.357 -14.306  1.00 29.08 LIG 0.10  A 
ATOM     53 HE1  TRP P 344      22.169  11.924 -13.123  1.00 27.39 LIG 0.17  HD
ENDBRANCH 43 44
ENDBRANCH 1 43
TORSDOF 19
ENDMDL
MODEL 13
USER: ADFR SOLUTION from run 76
USER: SCORE 15.004927 LL:  -3.902 LR: -11.558 RR:   0.000 FEB:  -5.891
USER: RMSD 4.343856
USER: SEED 75
USER: STATUS searching
USER: GENES 21
USER: genes 0 Translation |==|  0.39877 0.43002 0.55681
USER: genes 1 Rotation |==|  0.42485 0.62112 0.57453 0.97342
USER: genes 2 Torsion [C]-CA--N-[C] |==|  0.75753
USER: genes 3 Torsion [N]-C--CA-[N] |==|  0.43486
USER: genes 4 Torsion [N]-C--CA-[N] |==|  0.31111
USER: genes 5 Torsion [C]-CA--CB-[CG] |==|  0.17530
USER: genes 6 Torsion [CA]-CB--CG-[OD1] |==|  0.23236
USER: genes 7 Torsion [C]-CA--N-[C] |==|  0.73228
USER: genes 8 Torsion [N]-C--CA-[N] |==|  0.35231
USER: genes 9 Torsion [C]-CA--CB-[OG] |==|  0.08165
USER: genes 10 Torsion [CA]-CB--OG-[HG] |==|  0.81178
USER: genes 11 Torsion [N]-CA--C-[N] |==|  0.16883
USER: genes 12 Torsion [C]-N--CA-[C] |==|  0.78324
USER: genes 13 Torsion [N]-CA--C-[O] |==|  0.92388
USER: genes 14 Torsion [N]-CA--CB-[CG] |==|  0.41327
USER: genes 15 Torsion [CA]-CB--CG-[CD] |==|  0.72127
USER: genes 16 Torsion [CB]-CG--CD-[CE] |==|  0.39892
USER: genes 17 Torsion [CG]-CD--CE-[NZ] |==|  0.78968
USER: genes 18 Torsion [CD]-CE--NZ-[HZ2] |==|  0.30981
USER: genes 19 Torsion [N]-CA--CB-[CG] |==|  0.85760
USER: genes 20 Torsion [CA]-CB--CG-[CD2] |==|  0.66111
ROOT
ATOM      1  CA  TRP P 344      24.086   6.811 -15.351  1.00 32.15 LIG 0.18  C 
ENDROOT
BRANCH 1 2
ATOM      2  N   TRP P 344      24.454   7.931 -16.195  1.00 31.29 LIG-0.35  N 
ATOM      3 H    TRP P 344      23.809   8.266 -16.655  1.00 31.29 LIG 0.16  HD
ATOM      4  C   PRO P 343      25.706   8.371 -16.224  1.00 32.37 LIG 0.24  C 
ATOM      5 O    PRO P 343      26.621   7.833 -15.600  1.00 31.41 LIG-0.27  OA
BRANCH 4 6
ATOM      6  CA  PRO P 343      25.975   9.591 -17.095  1.00 33.03 LIG 0.18  C 
ATOM      7  N   PRO P 343      27.166  10.344 -16.691  1.00 34.38 LIG-0.34  N 
ATOM      8  C   ASP P 342      27.268  10.928 -15.488  1.00 36.67 LIG 0.24  C 
ATOM      9  CD  PRO P 343      28.268  10.120 -17.644  1.00 33.21 LIG 0.13  C 
ATOM     10 O    ASP P 342      26.371  10.852 -14.648  1.00 37.60 LIG-0.27  OA
ATOM     11  CG  PRO P 343      27.776   8.919 -18.435  1.00 33.09 LIG 0.02  C 
ATOM     12  CB  PRO P 343      26.300   9.196 -18.524  1.00 32.10 LIG 0.04  C 
BRANCH 8 13
ATOM     13  CA  ASP P 342      28.557  11.689 -15.189  1.00 38.79 LIG 0.19  C 
BRANCH 13 14
ATOM     14  CB  ASP P 342      29.152  11.209 -13.864  1.00 38.78 LIG 0.15  C 
BRANCH 14 15
ATOM     15  CG  ASP P 342      29.554   9.749 -13.905  1.00 39.37 LIG 0.17  C 
ATOM     16 OD2  ASP P 342      28.755   8.897 -13.466  1.00 39.72 LIG-0.65  OA
ATOM     17 OD1  ASP P 342      30.668   9.452 -14.380  1.00 40.57 LIG-0.65  OA
ENDBRANCH 14 15
ENDBRANCH 13 14
BRANCH 13 18
ATOM     18  N   ASP P 342      28.225  13.102 -15.109  1.00 40.71 LIG-0.34  N 
ATOM     19 H    ASP P 342      27.927  13.357 -14.342  1.00 40.71 LIG 0.16  HD
ATOM     20  C   SER P 341      28.381  13.908 -16.151  1.00 42.75 LIG 0.26  C 
ATOM     21 O    SER P 341      28.834  13.523 -17.230  1.00 44.14 LIG-0.27  OA
BRANCH 20 22
ATOM     22  CA  SER P 341      27.981  15.372 -15.943  1.00 43.56 LIG 0.42  C 
ATOM     23  N   SER P 341      29.093  16.300 -16.321  1.00 43.48 LIG 0.62  N 
BRANCH 22 24
ATOM     24  CB  SER P 341      26.731  15.684 -16.775  1.00 43.44 LIG 0.21  C 
BRANCH 24 25
ATOM     25 OG   SER P 341      25.929  14.523 -16.935  1.00 45.13 LIG-0.40  OA
ATOM     26 HG   SER P 341      26.334  13.967 -17.418  1.00 45.13 LIG 0.21  HD
ENDBRANCH 24 25
ENDBRANCH 22 24
ENDBRANCH 20 22
ENDBRANCH 13 18
ENDBRANCH 8 13
ENDBRANCH 4 6
ENDBRANCH 1 2
BRANCH 1 27
ATOM     27  C   TRP P 344      24.253   5.432 -15.953  1.00 32.97 LIG 0.24  C 
ATOM     28 O    TRP P 344      23.279   4.700 -16.087  1.00 31.81 LIG-0.27  OA
ATOM     29  N   LYS P 345      25.477   5.070 -16.320  1.00 34.20 LIG-0.34  N 
ATOM     30 H    LYS P 345      26.177   5.566 -16.259  1.00 34.20 LIG 0.16  HD
BRANCH 29 31
ATOM     31  CA  LYS P 345      25.700   3.740 -16.875  1.00 35.76 LIG 0.18  C 
BRANCH 31 32
ATOM     32  C   LYS P 345      25.741   2.658 -15.802  1.00 35.89 LIG 0.20  C 
ATOM     33 O    LYS P 345      26.108   3.002 -14.658  1.00 35.39 LIG-0.65  OA
ATOM     34 OXT  LYS P 345      25.383   1.497 -16.113  1.00 36.91 LIG-0.65  OA
ENDBRANCH 31 32
BRANCH 31 35
ATOM     35  CB  LYS P 345      26.986   3.711 -17.706  1.00 34.89 LIG 0.04  C 
BRANCH 35 36
ATOM     36  CG  LYS P 345      27.694   2.353 -17.685  1.00 33.69 LIG 0.00  C 
BRANCH 36 37
ATOM     37  CD  LYS P 345      28.872   2.312 -16.722  1.00 29.41 LIG 0.03  C 
BRANCH 37 38
ATOM     38  CE  LYS P 345      28.989   0.949 -16.042  1.00 29.69 LIG 0.23  C 
BRANCH 38 39
ATOM     39  NZ  LYS P 345      27.985   0.711 -14.962  1.00 27.83 LIG-0.08  N 
ATOM     40 HZ3  LYS P 345      28.402   0.446 -14.222  1.00 27.83 LIG 0.27  HD
ATOM     41 HZ1  LYS P 345      27.540   1.464 -14.799  1.00 27.83 LIG 0.27  HD
ATOM     42 HZ2  LYS P 345      27.413   0.081 -15.222  1.00 27.83 LIG 0.27  HD
ENDBRANCH 38 39
ENDBRANCH 37 38
ENDBRANCH 36 37
ENDBRANCH 35 36
ENDBRANCH 31 35
ENDBRANCH 29 31
ENDBRANCH 1 27
BRANCH 1 43
ATOM     43  CB  TRP P 344      22.657   6.989 -14.831  1.00 30.74 LIG 0.07  C 
BRANCH 43 44
ATOM     44  CG  TRP P 344      22.448   8.332 -14.204  1.00 29.17 LIG-0.03  A 
ATOM     45  CD2 TRP P 344      22.018   8.592 -12.861  1.00 26.66 LIG-0.00  A 
ATOM     46  CE3 TRP P 344      21.656   7.776 -11.782  1.00 26.53 LIG 0.01  A 
ATOM     47  CE2 TRP P 344      21.987   9.993 -12.696  1.00 26.53 LIG 0.04  A 
ATOM     48  CZ3 TRP P 344      21.277   8.379 -10.580  1.00 24.28 LIG 0.00  A 
ATOM     49  CH2 TRP P 344      21.256   9.779 -10.454  1.00 25.87 LIG 0.00  A 
ATOM     50  CZ2 TRP P 344      21.608  10.599 -11.499  1.00 24.89 LIG 0.03  A 
ATOM     51  NE1 TRP P 344      22.382  10.552 -13.883  1.00 27.39 LIG-0.36  N 
ATOM     52  CD1 TRP P 344      22.654   9.549 -14.782  1.00 29.08 LIG 0.10  A 
ATOM     53 HE1  TRP P 344      22.449  11.395 -14.040  1.00 27.39 LIG 0.17  HD
ENDBRANCH 43 44
ENDBRANCH 1 43
TORSDOF 19
ENDMDL
MODEL 14
USER: ADFR SOLUTION from run 137
USER: SCORE 15.148430 LL:  -3.802 LR: -11.489 RR:   0.000 FEB:  -5.821
USER: RMSD 3.866899
USER: SEED 136
USER: STATUS no improvement in best in 19 clusters for 5 generations
USER: GENES 21
USER: genes 0 Translation |==|  0.44820 0.48108 0.57670
USER: genes 1 Rotation |==|  0.47250 0.49836 0.55033 0.99670
USER: genes 2 Torsion [C]-CA--N-[C] |==|  0.77374
USER: genes 3 Torsion [N]-C--CA-[N] |==|  0.86881
USER: genes 4 Torsion [N]-C--CA-[N] |==|  0.46430
USER: genes 5 Torsion [C]-CA--CB-[CG] |==|  0.87896
USER: genes 6 Torsion [CA]-CB--CG-[OD1] |==|  0.84959
USER: genes 7 Torsion [C]-CA--N-[C] |==|  0.78716
USER: genes 8 Torsion [N]-C--CA-[N] |==|  0.53813
USER: genes 9 Torsion [C]-CA--CB-[OG] |==|  0.88761
USER: genes 10 Torsion [CA]-CB--OG-[HG] |==|  0.16469
USER: genes 11 Torsion [N]-CA--C-[N] |==|  0.47213
USER: genes 12 Torsion [C]-N--CA-[C] |==|  0.63649
USER: genes 13 Torsion [N]-CA--C-[O] |==|  0.98802
USER: genes 14 Torsion [N]-CA--CB-[CG] |==|  0.52475
USER: genes 15 Torsion [CA]-CB--CG-[CD] |==|  0.51718
USER: genes 16 Torsion [CB]-CG--CD-[CE] |==|  0.31218
USER: genes 17 Torsion [CG]-CD--CE-[NZ] |==|  0.51184
USER: genes 18 Torsion [CD]-CE--NZ-[HZ2] |==|  0.61692
USER: genes 19 Torsion [N]-CA--CB-[CG] |==|  0.82462
USER: genes 20 Torsion [CA]-CB--CG-[CD2] |==|  0.74003
ROOT
ATOM      1  CA  TRP P 344      24.901   8.075 -14.963  1.00 32.15 LIG 0.18  C 
ENDROOT
BRANCH 1 2
ATOM      2  N   TRP P 344      25.639   9.292 -15.239  1.00 31.29 LIG-0.35  N 
ATOM      3 H    TRP P 344      25.250   9.838 -15.778  1.00 31.29 LIG 0.16  HD
ATOM      4  C   PRO P 343      26.825   9.504 -14.680  1.00 32.37 LIG 0.24  C 
ATOM      5 O    PRO P 343      27.385   8.677 -13.960  1.00 31.41 LIG-0.27  OA
BRANCH 4 6
ATOM      6  CA  PRO P 343      27.488  10.840 -14.985  1.00 33.03 LIG 0.18  C 
ATOM      7  N   PRO P 343      27.472  11.186 -16.409  1.00 34.38 LIG-0.34  N 
ATOM      8  C   ASP P 342      28.092  10.438 -17.333  1.00 36.67 LIG 0.24  C 
ATOM      9  CD  PRO P 343      26.490  12.253 -16.671  1.00 33.21 LIG 0.13  C 
ATOM     10 O    ASP P 342      28.697   9.407 -17.038  1.00 37.60 LIG-0.27  OA
ATOM     11  CG  PRO P 343      25.676  12.270 -15.388  1.00 33.09 LIG 0.02  C 
ATOM     12  CB  PRO P 343      26.733  11.995 -14.353  1.00 32.10 LIG 0.04  C 
BRANCH 8 13
ATOM     13  CA  ASP P 342      28.007  10.908 -18.783  1.00 38.79 LIG 0.19  C 
BRANCH 13 14
ATOM     14  CB  ASP P 342      26.599  10.668 -19.329  1.00 38.78 LIG 0.15  C 
BRANCH 14 15
ATOM     15  CG  ASP P 342      26.051   9.311 -18.944  1.00 39.37 LIG 0.17  C 
ATOM     16 OD2  ASP P 342      24.943   9.254 -18.372  1.00 39.72 LIG-0.65  OA
ATOM     17 OD1  ASP P 342      26.726   8.297 -19.215  1.00 40.57 LIG-0.65  OA
ENDBRANCH 14 15
ENDBRANCH 13 14
BRANCH 13 18
ATOM     18  N   ASP P 342      28.981  10.147 -19.550  1.00 40.71 LIG-0.34  N 
ATOM     19 H    ASP P 342      28.644   9.517 -20.030  1.00 40.71 LIG 0.16  HD
ATOM     20  C   SER P 341      30.276  10.426 -19.491  1.00 42.75 LIG 0.26  C 
ATOM     21 O    SER P 341      30.729  11.351 -18.814  1.00 44.14 LIG-0.27  OA
BRANCH 20 22
ATOM     22  CA  SER P 341      31.200   9.542 -20.334  1.00 43.56 LIG 0.42  C 
ATOM     23  N   SER P 341      32.634   9.724 -19.944  1.00 43.48 LIG 0.62  N 
BRANCH 22 24
ATOM     24  CB  SER P 341      30.793   8.073 -20.169  1.00 43.44 LIG 0.21  C 
BRANCH 24 25
ATOM     25 OG   SER P 341      30.455   7.792 -18.819  1.00 45.13 LIG-0.40  OA
ATOM     26 HG   SER P 341      29.819   8.286 -18.580  1.00 45.13 LIG 0.21  HD
ENDBRANCH 24 25
ENDBRANCH 22 24
ENDBRANCH 20 22
ENDBRANCH 13 18
ENDBRANCH 8 13
ENDBRANCH 4 6
ENDBRANCH 1 2
BRANCH 1 27
ATOM     27  C   TRP P 344      25.306   6.849 -15.755  1.00 32.97 LIG 0.24  C 
ATOM     28 O    TRP P 344      26.082   6.959 -16.699  1.00 31.81 LIG-0.27  OA
ATOM     29  N   LYS P 345      24.793   5.683 -15.382  1.00 34.20 LIG-0.34  N 
ATOM     30 H    LYS P 345      24.263   5.569 -14.714  1.00 34.20 LIG 0.16  HD
BRANCH 29 31
ATOM     31  CA  LYS P 345      25.123   4.476 -16.130  1.00 35.76 LIG 0.18  C 
BRANCH 31 32
ATOM     32  C   LYS P 345      23.889   3.661 -16.499  1.00 35.89 LIG 0.20  C 
ATOM     33 O    LYS P 345      22.789   4.060 -16.061  1.00 35.39 LIG-0.65  OA
ATOM     34 OXT  LYS P 345      24.038   2.657 -17.236  1.00 36.91 LIG-0.65  OA
ENDBRANCH 31 32
BRANCH 31 35
ATOM     35  CB  LYS P 345      26.116   3.612 -15.349  1.00 34.89 LIG 0.04  C 
BRANCH 35 36
ATOM     36  CG  LYS P 345      26.674   2.439 -16.162  1.00 33.69 LIG 0.00  C 
BRANCH 36 37
ATOM     37  CD  LYS P 345      27.541   1.502 -15.334  1.00 29.41 LIG 0.03  C 
BRANCH 37 38
ATOM     38  CE  LYS P 345      26.882   0.135 -15.164  1.00 29.69 LIG 0.23  C 
BRANCH 38 39
ATOM     39  NZ  LYS P 345      27.631  -0.805 -14.277  1.00 27.83 LIG-0.08  N 
ATOM     40 HZ3  LYS P 345      28.471  -0.523 -14.188  1.00 27.83 LIG 0.27  HD
ATOM     41 HZ1  LYS P 345      27.241  -0.834 -13.478  1.00 27.83 LIG 0.27  HD
ATOM     42 HZ2  LYS P 345      27.628  -1.618 -14.637  1.00 27.83 LIG 0.27  HD
ENDBRANCH 38 39
ENDBRANCH 37 38
ENDBRANCH 36 37
ENDBRANCH 35 36
ENDBRANCH 31 35
ENDBRANCH 29 31
ENDBRANCH 1 27
BRANCH 1 43
ATOM     43  CB  TRP P 344      23.398   8.324 -15.110  1.00 30.74 LIG 0.07  C 
BRANCH 43 44
ATOM     44  CG  TRP P 344      22.892   9.324 -14.118  1.00 29.17 LIG-0.03  A 
ATOM     45  CD2 TRP P 344      22.323   9.041 -12.832  1.00 26.66 LIG-0.00  A 
ATOM     46  CE3 TRP P 344      22.043   7.861 -12.132  1.00 26.53 LIG 0.01  A 
ATOM     47  CE2 TRP P 344      22.016  10.280 -12.231  1.00 26.53 LIG 0.04  A 
ATOM     48  CZ3 TRP P 344      21.469   7.953 -10.862  1.00 24.28 LIG 0.00  A 
ATOM     49  CH2 TRP P 344      21.175   9.205 -10.295  1.00 25.87 LIG 0.00  A 
ATOM     50  CZ2 TRP P 344      21.441  10.376 -10.964  1.00 24.89 LIG 0.03  A 
ATOM     51  NE1 TRP P 344      22.383  11.264 -13.110  1.00 27.39 LIG-0.36  N 
ATOM     52  CD1 TRP P 344      22.906  10.681 -14.240  1.00 29.08 LIG 0.10  A 
ATOM     53 HE1  TRP P 344      22.301  12.109 -12.977  1.00 27.39 LIG 0.17  HD
ENDBRANCH 43 44
ENDBRANCH 1 43
TORSDOF 19
ENDMDL
MODEL 15
USER: ADFR SOLUTION from run 10
USER: SCORE 14.054653 LL:  -3.049 LR: -11.392 RR:   0.000 FEB:  -5.725
USER: RMSD 3.617185
USER: SEED 115057
USER: STATUS no improvement in best in 28 clusters for 5 generations
USER: GENES 21
USER: genes 0 Translation |==|  0.43794 0.47371 0.57467
USER: genes 1 Rotation |==|  0.44978 0.50810 0.53853 0.99591
USER: genes 2 Torsion [C]-CA--N-[C] |==|  0.76320
USER: genes 3 Torsion [N]-C--CA-[N] |==|  0.88595
USER: genes 4 Torsion [N]-C--CA-[N] |==|  0.46067
USER: genes 5 Torsion [C]-CA--CB-[CG] |==|  0.92321
USER: genes 6 Torsion [CA]-CB--CG-[OD1] |==|  0.30077
USER: genes 7 Torsion [C]-CA--N-[C] |==|  0.79599
USER: genes 8 Torsion [N]-C--CA-[N] |==|  0.37792
USER: genes 9 Torsion [C]-CA--CB-[OG] |==|  0.13262
USER: genes 10 Torsion [CA]-CB--OG-[HG] |==|  0.22985
USER: genes 11 Torsion [N]-CA--C-[N] |==|  0.51819
USER: genes 12 Torsion [C]-N--CA-[C] |==|  0.17391
USER: genes 13 Torsion [N]-CA--C-[O] |==|  0.78774
USER: genes 14 Torsion [N]-CA--CB-[CG] |==|  0.62490
USER: genes 15 Torsion [CA]-CB--CG-[CD] |==|  0.13853
USER: genes 16 Torsion [CB]-CG--CD-[CE] |==|  0.52046
USER: genes 17 Torsion [CG]-CD--CE-[NZ] |==|  0.43752
USER: genes 18 Torsion [CD]-CE--NZ-[HZ2] |==|  0.77796
USER: genes 19 Torsion [N]-CA--CB-[CG] |==|  0.81190
USER: genes 20 Torsion [CA]-CB--CG-[CD2] |==|  0.74794
ROOT
ATOM      1  CA  TRP P 344      24.732   7.892 -15.003  1.00 32.15 LIG 0.18  C 
ENDROOT
BRANCH 1 2
ATOM      2  N   TRP P 344      25.519   9.040 -15.411  1.00 31.29 LIG-0.35  N 
ATOM      3 H    TRP P 344      25.163   9.523 -16.026  1.00 31.29 LIG 0.16  HD
ATOM      4  C   PRO P 343      26.697   9.285 -14.849  1.00 32.37 LIG 0.24  C 
ATOM      5 O    PRO P 343      27.209   8.540 -14.012  1.00 31.41 LIG-0.27  OA
BRANCH 4 6
ATOM      6  CA  PRO P 343      27.414  10.549 -15.303  1.00 33.03 LIG 0.18  C 
ATOM      7  N   PRO P 343      27.322  10.783 -16.748  1.00 34.38 LIG-0.34  N 
ATOM      8  C   ASP P 342      27.834   9.927 -17.643  1.00 36.67 LIG 0.24  C 
ATOM      9  CD  PRO P 343      26.387  11.886 -17.034  1.00 33.21 LIG 0.13  C 
ATOM     10 O    ASP P 342      28.397   8.887 -17.304  1.00 37.60 LIG-0.27  OA
ATOM     11  CG  PRO P 343      25.664  12.054 -15.709  1.00 33.09 LIG 0.02  C 
ATOM     12  CB  PRO P 343      26.771  11.795 -14.723  1.00 32.10 LIG 0.04  C 
BRANCH 8 13
ATOM     13  CA  ASP P 342      27.680  10.287 -19.119  1.00 38.79 LIG 0.19  C 
BRANCH 13 14
ATOM     14  CB  ASP P 342      26.233  10.064 -19.563  1.00 38.78 LIG 0.15  C 
BRANCH 14 15
ATOM     15  CG  ASP P 342      25.537   8.991 -18.752  1.00 39.37 LIG 0.17  C 
ATOM     16 OD2  ASP P 342      25.871   7.801 -18.923  1.00 39.72 LIG-0.65  OA
ATOM     17 OD1  ASP P 342      24.657   9.338 -17.939  1.00 40.57 LIG-0.65  OA
ENDBRANCH 14 15
ENDBRANCH 13 14
BRANCH 13 18
ATOM     18  N   ASP P 342      28.577   9.430 -19.877  1.00 40.71 LIG-0.34  N 
ATOM     19 H    ASP P 342      28.185   8.805 -20.320  1.00 40.71 LIG 0.16  HD
ATOM     20  C   SER P 341      29.890   9.623 -19.865  1.00 42.75 LIG 0.26  C 
ATOM     21 O    SER P 341      30.423  10.542 -19.241  1.00 44.14 LIG-0.27  OA
BRANCH 20 22
ATOM     22  CA  SER P 341      30.728   8.644 -20.693  1.00 43.56 LIG 0.42  C 
ATOM     23  N   SER P 341      31.783   9.357 -21.478  1.00 43.48 LIG 0.62  N 
BRANCH 22 24
ATOM     24  CB  SER P 341      31.372   7.610 -19.762  1.00 43.44 LIG 0.21  C 
BRANCH 24 25
ATOM     25 OG   SER P 341      30.416   7.079 -18.857  1.00 45.13 LIG-0.40  OA
ATOM     26 HG   SER P 341      29.986   6.463 -19.233  1.00 45.13 LIG 0.21  HD
ENDBRANCH 24 25
ENDBRANCH 22 24
ENDBRANCH 20 22
ENDBRANCH 13 18
ENDBRANCH 8 13
ENDBRANCH 4 6
ENDBRANCH 1 2
BRANCH 1 27
ATOM     27  C   TRP P 344      25.055   6.580 -15.685  1.00 32.97 LIG 0.24  C 
ATOM     28 O    TRP P 344      26.019   6.502 -16.439  1.00 31.81 LIG-0.27  OA
ATOM     29  N   LYS P 345      24.263   5.546 -15.427  1.00 34.20 LIG-0.34  N 
ATOM     30 H    LYS P 345      23.592   5.561 -14.888  1.00 34.20 LIG 0.16  HD
BRANCH 29 31
ATOM     31  CA  LYS P 345      24.508   4.267 -16.083  1.00 35.76 LIG 0.18  C 
BRANCH 31 32
ATOM     32  C   LYS P 345      25.862   3.672 -15.714  1.00 35.89 LIG 0.20  C 
ATOM     33 O    LYS P 345      26.872   4.169 -16.258  1.00 35.39 LIG-0.65  OA
ATOM     34 OXT  LYS P 345      25.894   2.740 -14.875  1.00 36.91 LIG-0.65  OA
ENDBRANCH 31 32
BRANCH 31 35
ATOM     35  CB  LYS P 345      24.386   4.407 -17.602  1.00 34.89 LIG 0.04  C 
BRANCH 35 36
ATOM     36  CG  LYS P 345      23.578   3.281 -18.254  1.00 33.69 LIG 0.00  C 
BRANCH 36 37
ATOM     37  CD  LYS P 345      22.240   3.038 -17.572  1.00 29.41 LIG 0.03  C 
BRANCH 37 38
ATOM     38  CE  LYS P 345      21.546   1.797 -18.131  1.00 29.69 LIG 0.23  C 
BRANCH 38 39
ATOM     39  NZ  LYS P 345      20.538   1.188 -17.211  1.00 27.83 LIG-0.08  N 
ATOM     40 HZ3  LYS P 345      20.078   1.833 -16.806  1.00 27.83 LIG 0.27  HD
ATOM     41 HZ1  LYS P 345      19.983   0.674 -17.678  1.00 27.83 LIG 0.27  HD
ATOM     42 HZ2  LYS P 345      20.955   0.693 -16.600  1.00 27.83 LIG 0.27  HD
ENDBRANCH 38 39
ENDBRANCH 37 38
ENDBRANCH 36 37
ENDBRANCH 35 36
ENDBRANCH 31 35
ENDBRANCH 29 31
ENDBRANCH 1 27
BRANCH 1 43
ATOM     43  CB  TRP P 344      23.239   8.202 -15.135  1.00 30.74 LIG 0.07  C 
BRANCH 43 44
ATOM     44  CG  TRP P 344      22.788   9.238 -14.154  1.00 29.17 LIG-0.03  A 
ATOM     45  CD2 TRP P 344      22.276   9.002 -12.835  1.00 26.66 LIG-0.00  A 
ATOM     46  CE3 TRP P 344      22.020   7.847 -12.085  1.00 26.53 LIG 0.01  A 
ATOM     47  CE2 TRP P 344      22.007  10.262 -12.260  1.00 26.53 LIG 0.04  A 
ATOM     48  CZ3 TRP P 344      21.506   7.985 -10.793  1.00 24.28 LIG 0.00  A 
ATOM     49  CH2 TRP P 344      21.248   9.257 -10.254  1.00 25.87 LIG 0.00  A 
ATOM     50  CZ2 TRP P 344      21.492  10.403 -10.971  1.00 24.89 LIG 0.03  A 
ATOM     51  NE1 TRP P 344      22.342  11.214 -13.187  1.00 27.39 LIG-0.36  N 
ATOM     52  CD1 TRP P 344      22.807  10.590 -14.320  1.00 29.08 LIG 0.10  A 
ATOM     53 HE1  TRP P 344      22.272  12.063 -13.077  1.00 27.39 LIG 0.17  HD
ENDBRANCH 43 44
ENDBRANCH 1 43
TORSDOF 19
ENDMDL
