MODEL 1
USER: ADFR SOLUTION from run 30
USER: SCORE 15.245600 LL:  -3.633 LR: -12.679 RR:   0.000 FEB:  -7.011
USER: RMSD 4.229819
USER: SEED 29
USER: STATUS searching
USER: GENES 21
USER: genes 0 Translation |==|  0.48773 0.42992 0.59136
USER: genes 1 Rotation |==|  0.45431 0.53961 0.45418 0.99421
USER: genes 2 Torsion [C]-N--CA-[C] |==|  0.68965
USER: genes 3 Torsion [N]-CA--C-[N] |==|  0.80765
USER: genes 4 Torsion [C]-N--CA-[CB] |==|  0.22598
USER: genes 5 Torsion [N]-CA--C-[O] |==|  0.91181
USER: genes 6 Torsion [N]-CA--CB-[CG] |==|  0.00392
USER: genes 7 Torsion [CA]-CB--CG-[CD] |==|  0.64524
USER: genes 8 Torsion [CB]-CG--CD-[CE] |==|  0.95167
USER: genes 9 Torsion [CG]-CD--CE-[NZ] |==|  0.44587
USER: genes 10 Torsion [CD]-CE--NZ-[HZ2] |==|  0.23435
USER: genes 11 Torsion [N]-CA--CB-[CG] |==|  0.90604
USER: genes 12 Torsion [CA]-CB--CG-[CD1] |==|  0.67682
USER: genes 13 Torsion [O]-C--CA-[CB] |==|  0.61814
USER: genes 14 Torsion [N]-C--CA-[N] |==|  0.15975
USER: genes 15 Torsion [C]-CA--CB-[CG] |==|  0.84950
USER: genes 16 Torsion [CA]-CB--CG-[OD1] |==|  0.93276
USER: genes 17 Torsion [C]-CA--N-[C] |==|  0.65866
USER: genes 18 Torsion [N]-C--CA-[N] |==|  0.52268
USER: genes 19 Torsion [C]-CA--CB-[OG] |==|  0.24158
USER: genes 20 Torsion [CA]-CB--OG-[HG] |==|  0.84084
ROOT
ATOM      1  C   PRO P 630      24.773   8.525 -14.706  1.00 36.04 LIG 0.24  C 
ATOM      2 O    PRO P 630      25.405   7.577 -14.195  1.00 33.55 LIG-0.27  OA
ATOM      3  N   PHE P 631      23.448   8.549 -14.822  1.00 24.81 LIG-0.35  N 
ATOM      4 H    PHE P 631      23.018   9.205 -15.174  1.00 24.81 LIG 0.16  HD
ENDROOT
BRANCH 3 5
ATOM      5  CA  PHE P 631      22.599   7.475 -14.369  1.00 30.16 LIG 0.18  C 
BRANCH 5 6
ATOM      6  C   PHE P 631      21.971   6.793 -15.615  1.00 46.65 LIG 0.24  C 
ATOM      7  N   LYS P 632      21.082   7.513 -16.276  1.00 37.40 LIG-0.34  N 
ATOM      8 H    LYS P 632      20.839   8.300 -16.030  1.00 37.40 LIG 0.16  HD
ATOM      9 O    PHE P 631      22.335   5.627 -15.820  1.00 54.45 LIG-0.27  OA
BRANCH 7 10
ATOM     10  CA  LYS P 632      20.405   7.042 -17.515  1.00 44.88 LIG 0.18  C 
BRANCH 10 11
ATOM     11  C   LYS P 632      20.022   8.223 -18.397  1.00 45.53 LIG 0.20  C 
ATOM     12 O    LYS P 632      19.716   9.329 -17.908  1.00 61.11 LIG-0.65  OA
ATOM     13 OXT  LYS P 632      20.032   8.045 -19.639  1.00 57.29 LIG-0.65  OA
ENDBRANCH 10 11
BRANCH 10 14
ATOM     14  CB  LYS P 632      19.243   6.131 -17.172  1.00 47.81 LIG 0.04  C 
BRANCH 14 15
ATOM     15  CG  LYS P 632      18.825   5.789 -15.755  1.00 54.84 LIG 0.00  C 
BRANCH 15 16
ATOM     16  CD  LYS P 632      18.749   4.253 -15.650  1.00 63.82 LIG 0.03  C 
BRANCH 16 17
ATOM     17  CE  LYS P 632      18.686   3.663 -17.060  1.00 66.19 LIG 0.23  C 
BRANCH 17 18
ATOM     18  NZ  LYS P 632      19.069   2.227 -17.100  1.00 52.45 LIG-0.08  N 
ATOM     19 HZ2  LYS P 632      18.362   1.725 -16.901  1.00 52.45 LIG 0.27  HD
ATOM     20 HZ1  LYS P 632      19.716   2.076 -16.508  1.00 52.45 LIG 0.27  HD
ATOM     21 HZ3  LYS P 632      19.359   2.020 -17.916  1.00 52.45 LIG 0.27  HD
ENDBRANCH 17 18
ENDBRANCH 16 17
ENDBRANCH 15 16
ENDBRANCH 14 15
ENDBRANCH 10 14
ENDBRANCH 7 10
ENDBRANCH 5 6
BRANCH 5 22
ATOM     22  CB  PHE P 631      21.440   7.842 -13.457  1.00 25.51 LIG 0.07  C 
BRANCH 22 23
ATOM     23  CG  PHE P 631      21.623   8.998 -12.469  1.00 27.58 LIG-0.06  A 
ATOM     24  CD1 PHE P 631      21.591   8.873 -11.081  1.00 30.72 LIG 0.01  A 
ATOM     25  CE1 PHE P 631      21.760   9.984 -10.269  1.00 26.28 LIG 0.00  A 
ATOM     26  CZ  PHE P 631      21.966  11.227 -10.832  1.00 23.54 LIG 0.00  A 
ATOM     27  CE2 PHE P 631      21.999  11.371 -12.211  1.00 23.94 LIG 0.00  A 
ATOM     28  CD2 PHE P 631      21.813  10.264 -12.981  1.00 24.70 LIG 0.01  A 
ENDBRANCH 22 23
ENDBRANCH 5 22
ENDBRANCH 3 5
BRANCH 1 29
ATOM     29  CA  PRO P 630      25.577   9.704 -15.214  1.00 22.29 LIG 0.18  C 
ATOM     30  CB  PRO P 630      24.952  11.045 -14.859  1.00 25.21 LIG 0.04  C 
ATOM     31  CG  PRO P 630      24.176  11.445 -16.077  1.00 30.73 LIG 0.02  C 
ATOM     32  CD  PRO P 630      24.878  10.826 -17.261  1.00 29.29 LIG 0.13  C 
ATOM     33  N   PRO P 630      25.637   9.725 -16.682  1.00 28.31 LIG-0.34  N 
ATOM     34  C   ASP P 629      26.360   8.773 -17.286  1.00 28.38 LIG 0.24  C 
ATOM     35 O    ASP P 629      26.841   7.823 -16.651  1.00 35.14 LIG-0.27  OA
BRANCH 34 36
ATOM     36  CA  ASP P 629      26.561   8.884 -18.780  1.00 31.37 LIG 0.19  C 
BRANCH 36 37
ATOM     37  CB  ASP P 629      27.466   7.772 -19.344  1.00 29.57 LIG 0.15  C 
BRANCH 37 38
ATOM     38  CG  ASP P 629      28.788   7.735 -18.600  1.00 37.10 LIG 0.17  C 
ATOM     39 OD2  ASP P 629      29.465   6.682 -18.600  1.00 43.68 LIG-0.65  OA
ATOM     40 OD1  ASP P 629      29.181   8.773 -18.029  1.00 36.00 LIG-0.65  OA
ENDBRANCH 37 38
ENDBRANCH 36 37
BRANCH 36 41
ATOM     41  N   ASP P 629      27.186  10.151 -19.099  1.00 43.53 LIG-0.34  N 
ATOM     42 H    ASP P 629      27.934  10.243 -18.684  1.00 43.53 LIG 0.16  HD
ATOM     43  C   SER P 628      26.745  11.097 -19.902  1.00 52.75 LIG 0.26  C 
ATOM     44 O    SER P 628      25.709  11.048 -20.559  1.00 74.95 LIG-0.27  OA
BRANCH 43 45
ATOM     45  CA  SER P 628      27.689  12.306 -19.952  1.00 53.54 LIG 0.42  C 
ATOM     46  N   SER P 628      27.126  13.438 -20.685  1.00 68.72 LIG 0.62  N 
BRANCH 45 47
ATOM     47  CB  SER P 628      27.996  12.709 -18.507  1.00 49.52 LIG 0.21  C 
BRANCH 47 48
ATOM     48 OG   SER P 628      29.100  11.982 -17.987  1.00 73.20 LIG-0.40  OA
ATOM     49 HG   SER P 628      28.942  11.158 -18.037  1.00 73.20 LIG 0.21  HD
ENDBRANCH 47 48
ENDBRANCH 45 47
ENDBRANCH 43 45
ENDBRANCH 36 41
ENDBRANCH 34 36
ENDBRANCH 1 29
TORSDOF 19
ENDMDL
MODEL 2
USER: ADFR SOLUTION from run 81
USER: SCORE 15.143882 LL:  -3.354 LR: -12.217 RR:   0.000 FEB:  -6.549
USER: RMSD 4.435264
USER: SEED 80
USER: STATUS no improvement in best in 14 clusters for 5 generations
USER: GENES 21
USER: genes 0 Translation |==|  0.43947 0.49256 0.57344
USER: genes 1 Rotation |==|  0.45288 0.56406 0.58206 0.98677
USER: genes 2 Torsion [C]-N--CA-[C] |==|  0.66873
USER: genes 3 Torsion [N]-CA--C-[N] |==|  0.87967
USER: genes 4 Torsion [C]-N--CA-[CB] |==|  0.24599
USER: genes 5 Torsion [N]-CA--C-[O] |==|  0.91325
USER: genes 6 Torsion [N]-CA--CB-[CG] |==|  0.94785
USER: genes 7 Torsion [CA]-CB--CG-[CD] |==|  0.71633
USER: genes 8 Torsion [CB]-CG--CD-[CE] |==|  0.82301
USER: genes 9 Torsion [CG]-CD--CE-[NZ] |==|  0.40893
USER: genes 10 Torsion [CD]-CE--NZ-[HZ2] |==|  0.10349
USER: genes 11 Torsion [N]-CA--CB-[CG] |==|  0.90684
USER: genes 12 Torsion [CA]-CB--CG-[CD1] |==|  0.59372
USER: genes 13 Torsion [O]-C--CA-[CB] |==|  0.47018
USER: genes 14 Torsion [N]-C--CA-[N] |==|  0.42191
USER: genes 15 Torsion [C]-CA--CB-[CG] |==|  0.83258
USER: genes 16 Torsion [CA]-CB--CG-[OD1] |==|  0.75706
USER: genes 17 Torsion [C]-CA--N-[C] |==|  0.81849
USER: genes 18 Torsion [N]-C--CA-[N] |==|  0.43062
USER: genes 19 Torsion [C]-CA--CB-[OG] |==|  0.14104
USER: genes 20 Torsion [CA]-CB--OG-[HG] |==|  0.81758
ROOT
ATOM      1  C   PRO P 630      24.013   9.935 -15.028  1.00 36.04 LIG 0.24  C 
ATOM      2 O    PRO P 630      25.089   9.405 -14.678  1.00 33.55 LIG-0.27  OA
ATOM      3  N   PHE P 631      22.835   9.319 -14.968  1.00 24.81 LIG-0.35  N 
ATOM      4 H    PHE P 631      22.097   9.689 -15.209  1.00 24.81 LIG 0.16  HD
ENDROOT
BRANCH 3 5
ATOM      5  CA  PHE P 631      22.678   7.968 -14.491  1.00 30.16 LIG 0.18  C 
BRANCH 5 6
ATOM      6  C   PHE P 631      22.084   7.111 -15.642  1.00 46.65 LIG 0.24  C 
ATOM      7  N   LYS P 632      21.101   7.669 -16.325  1.00 37.40 LIG-0.34  N 
ATOM      8 H    LYS P 632      20.784   8.446 -16.140  1.00 37.40 LIG 0.16  HD
ATOM      9 O    PHE P 631      22.565   5.975 -15.758  1.00 54.45 LIG-0.27  OA
BRANCH 7 10
ATOM     10  CA  LYS P 632      20.437   7.018 -17.486  1.00 44.88 LIG 0.18  C 
BRANCH 10 11
ATOM     11  C   LYS P 632      20.057   8.054 -18.537  1.00 45.53 LIG 0.20  C 
ATOM     12 O    LYS P 632      19.753   9.221 -18.220  1.00 61.11 LIG-0.65  OA
ATOM     13 OXT  LYS P 632      20.070   7.691 -19.738  1.00 57.29 LIG-0.65  OA
ENDBRANCH 10 11
BRANCH 10 14
ATOM     14  CB  LYS P 632      19.276   6.162 -17.022  1.00 47.81 LIG 0.04  C 
BRANCH 14 15
ATOM     15  CG  LYS P 632      19.102   5.671 -15.598  1.00 54.84 LIG 0.00  C 
BRANCH 15 16
ATOM     16  CD  LYS P 632      19.534   4.192 -15.558  1.00 63.82 LIG 0.03  C 
BRANCH 16 17
ATOM     17  CE  LYS P 632      18.593   3.377 -16.445  1.00 66.19 LIG 0.23  C 
BRANCH 17 18
ATOM     18  NZ  LYS P 632      19.271   2.227 -17.100  1.00 52.45 LIG-0.08  N 
ATOM     19 HZ2  LYS P 632      19.863   1.871 -16.538  1.00 52.45 LIG 0.27  HD
ATOM     20 HZ1  LYS P 632      19.690   2.508 -17.833  1.00 52.45 LIG 0.27  HD
ATOM     21 HZ3  LYS P 632      18.667   1.612 -17.322  1.00 52.45 LIG 0.27  HD
ENDBRANCH 17 18
ENDBRANCH 16 17
ENDBRANCH 15 16
ENDBRANCH 14 15
ENDBRANCH 10 14
ENDBRANCH 7 10
ENDBRANCH 5 6
BRANCH 5 22
ATOM     22  CB  PHE P 631      21.767   7.755 -13.292  1.00 25.51 LIG 0.07  C 
BRANCH 22 23
ATOM     23  CG  PHE P 631      21.700   8.848 -12.220  1.00 27.58 LIG-0.06  A 
ATOM     24  CD1 PHE P 631      21.517   8.618 -10.858  1.00 30.72 LIG 0.01  A 
ATOM     25  CE1 PHE P 631      21.462   9.678  -9.965  1.00 26.28 LIG 0.00  A 
ATOM     26  CZ  PHE P 631      21.593  10.973 -10.421  1.00 23.54 LIG 0.00  A 
ATOM     27  CE2 PHE P 631      21.774  11.221 -11.773  1.00 23.94 LIG 0.00  A 
ATOM     28  CD2 PHE P 631      21.807  10.161 -12.626  1.00 24.70 LIG 0.01  A 
ENDBRANCH 22 23
ENDBRANCH 5 22
ENDBRANCH 3 5
BRANCH 1 29
ATOM     29  CA  PRO P 630      24.073  11.357 -15.546  1.00 22.29 LIG 0.18  C 
ATOM     30  CB  PRO P 630      22.769  11.812 -16.182  1.00 25.21 LIG 0.04  C 
ATOM     31  CG  PRO P 630      22.959  11.597 -17.653  1.00 30.73 LIG 0.02  C 
ATOM     32  CD  PRO P 630      24.436  11.741 -17.925  1.00 29.29 LIG 0.13  C 
ATOM     33  N   PRO P 630      25.057  11.496 -16.630  1.00 28.31 LIG-0.34  N 
ATOM     34  C   ASP P 629      26.353  11.393 -16.307  1.00 28.38 LIG 0.24  C 
ATOM     35 O    ASP P 629      26.713  11.049 -15.172  1.00 35.14 LIG-0.27  OA
BRANCH 34 36
ATOM     36  CA  ASP P 629      27.371  11.698 -17.382  1.00 31.37 LIG 0.19  C 
BRANCH 36 37
ATOM     37  CB  ASP P 629      27.735  10.461 -18.225  1.00 29.57 LIG 0.15  C 
BRANCH 37 38
ATOM     38  CG  ASP P 629      28.328   9.375 -17.346  1.00 37.10 LIG 0.17  C 
ATOM     39 OD2  ASP P 629      27.581   8.483 -16.883  1.00 43.68 LIG-0.65  OA
ATOM     40 OD1  ASP P 629      29.556   9.386 -17.129  1.00 36.00 LIG-0.65  OA
ENDBRANCH 37 38
ENDBRANCH 36 37
BRANCH 36 41
ATOM     41  N   ASP P 629      28.594  12.183 -16.778  1.00 43.53 LIG-0.34  N 
ATOM     42 H    ASP P 629      29.245  11.635 -16.908  1.00 43.53 LIG 0.16  HD
ATOM     43  C   SER P 628      28.782  13.297 -16.101  1.00 52.75 LIG 0.26  C 
ATOM     44 O    SER P 628      27.929  14.154 -15.888  1.00 74.95 LIG-0.27  OA
BRANCH 43 45
ATOM     45  CA  SER P 628      30.225  13.436 -15.597  1.00 53.54 LIG 0.42  C 
ATOM     46  N   SER P 628      30.620  14.827 -15.378  1.00 68.72 LIG 0.62  N 
BRANCH 45 47
ATOM     47  CB  SER P 628      30.334  12.642 -14.292  1.00 49.52 LIG 0.21  C 
BRANCH 47 48
ATOM     48 OG   SER P 628      29.832  11.321 -14.444  1.00 73.20 LIG-0.40  OA
ATOM     49 HG   SER P 628      29.006  11.350 -14.593  1.00 73.20 LIG 0.21  HD
ENDBRANCH 47 48
ENDBRANCH 45 47
ENDBRANCH 43 45
ENDBRANCH 36 41
ENDBRANCH 34 36
ENDBRANCH 1 29
TORSDOF 19
ENDMDL
MODEL 3
USER: ADFR SOLUTION from run 91
USER: SCORE 14.655067 LL:  -2.766 LR: -12.027 RR:   0.000 FEB:  -6.359
USER: RMSD 3.409468
USER: SEED 90
USER: STATUS no improvement in best in 18 clusters for 5 generations
USER: GENES 21
USER: genes 0 Translation |==|  0.52915 0.48169 0.55888
USER: genes 1 Rotation |==|  0.47097 0.62470 0.57017 0.97821
USER: genes 2 Torsion [C]-N--CA-[C] |==|  0.77458
USER: genes 3 Torsion [N]-CA--C-[N] |==|  0.36659
USER: genes 4 Torsion [C]-N--CA-[CB] |==|  0.92381
USER: genes 5 Torsion [N]-CA--C-[O] |==|  0.96680
USER: genes 6 Torsion [N]-CA--CB-[CG] |==|  0.61217
USER: genes 7 Torsion [CA]-CB--CG-[CD] |==|  0.40195
USER: genes 8 Torsion [CB]-CG--CD-[CE] |==|  0.46971
USER: genes 9 Torsion [CG]-CD--CE-[NZ] |==|  0.32456
USER: genes 10 Torsion [CD]-CE--NZ-[HZ2] |==|  0.57813
USER: genes 11 Torsion [N]-CA--CB-[CG] |==|  0.89724
USER: genes 12 Torsion [CA]-CB--CG-[CD1] |==|  0.64097
USER: genes 13 Torsion [O]-C--CA-[CB] |==|  0.81802
USER: genes 14 Torsion [N]-C--CA-[N] |==|  0.10868
USER: genes 15 Torsion [C]-CA--CB-[CG] |==|  0.33852
USER: genes 16 Torsion [CA]-CB--CG-[OD1] |==|  0.25139
USER: genes 17 Torsion [C]-CA--N-[C] |==|  0.17186
USER: genes 18 Torsion [N]-C--CA-[N] |==|  0.56036
USER: genes 19 Torsion [C]-CA--CB-[OG] |==|  0.26464
USER: genes 20 Torsion [CA]-CB--OG-[HG] |==|  0.60955
ROOT
ATOM      1  C   PRO P 630      25.425   9.690 -15.290  1.00 36.04 LIG 0.24  C 
ATOM      2 O    PRO P 630      26.511   9.077 -15.223  1.00 33.55 LIG-0.27  OA
ATOM      3  N   PHE P 631      24.256   9.157 -14.949  1.00 24.81 LIG-0.35  N 
ATOM      4 H    PHE P 631      23.511   9.584 -14.996  1.00 24.81 LIG 0.16  HD
ENDROOT
BRANCH 3 5
ATOM      5  CA  PHE P 631      24.119   7.806 -14.464  1.00 30.16 LIG 0.18  C 
BRANCH 5 6
ATOM      6  C   PHE P 631      24.114   6.848 -15.686  1.00 46.65 LIG 0.24  C 
ATOM      7  N   LYS P 632      24.914   5.800 -15.598  1.00 37.40 LIG-0.34  N 
ATOM      8 H    LYS P 632      25.428   5.658 -14.923  1.00 37.40 LIG 0.16  HD
ATOM      9 O    PHE P 631      23.398   7.202 -16.632  1.00 54.45 LIG-0.27  OA
BRANCH 7 10
ATOM     10  CA  LYS P 632      25.013   4.754 -16.651  1.00 44.88 LIG 0.18  C 
BRANCH 10 11
ATOM     11  C   LYS P 632      26.235   4.992 -17.529  1.00 45.53 LIG 0.20  C 
ATOM     12 O    LYS P 632      26.875   6.061 -17.478  1.00 61.11 LIG-0.65  OA
ATOM     13 OXT  LYS P 632      26.581   4.067 -18.303  1.00 57.29 LIG-0.65  OA
ENDBRANCH 10 11
BRANCH 10 14
ATOM     14  CB  LYS P 632      23.713   4.654 -17.424  1.00 47.81 LIG 0.04  C 
BRANCH 14 15
ATOM     15  CG  LYS P 632      23.091   3.345 -17.869  1.00 54.84 LIG 0.00  C 
BRANCH 15 16
ATOM     16  CD  LYS P 632      21.560   3.501 -17.775  1.00 63.82 LIG 0.03  C 
BRANCH 16 17
ATOM     17  CE  LYS P 632      20.898   2.309 -18.468  1.00 66.19 LIG 0.23  C 
BRANCH 17 18
ATOM     18  NZ  LYS P 632      20.093   1.477 -17.535  1.00 52.45 LIG-0.08  N 
ATOM     19 HZ2  LYS P 632      20.070   0.637 -17.829  1.00 52.45 LIG 0.27  HD
ATOM     20 HZ1  LYS P 632      19.264   1.798 -17.492  1.00 52.45 LIG 0.27  HD
ATOM     21 HZ3  LYS P 632      20.461   1.497 -16.725  1.00 52.45 LIG 0.27  HD
ENDBRANCH 17 18
ENDBRANCH 16 17
ENDBRANCH 15 16
ENDBRANCH 14 15
ENDBRANCH 10 14
ENDBRANCH 7 10
ENDBRANCH 5 6
BRANCH 5 22
ATOM     22  CB  PHE P 631      22.870   7.477 -13.662  1.00 25.51 LIG 0.07  C 
BRANCH 22 23
ATOM     23  CG  PHE P 631      22.311   8.538 -12.709  1.00 27.58 LIG-0.06  A 
ATOM     24  CD1 PHE P 631      21.991   8.317 -11.371  1.00 30.72 LIG 0.01  A 
ATOM     25  CE1 PHE P 631      21.481   9.344 -10.589  1.00 26.28 LIG 0.00  A 
ATOM     26  CZ  PHE P 631      21.292  10.598 -11.132  1.00 23.54 LIG 0.00  A 
ATOM     27  CE2 PHE P 631      21.603  10.835 -12.462  1.00 23.94 LIG 0.00  A 
ATOM     28  CD2 PHE P 631      22.085   9.804 -13.208  1.00 24.70 LIG 0.01  A 
ENDBRANCH 22 23
ENDBRANCH 5 22
ENDBRANCH 3 5
BRANCH 1 29
ATOM     29  CA  PRO P 630      25.463  11.120 -15.790  1.00 22.29 LIG 0.18  C 
ATOM     30  CB  PRO P 630      26.213  12.055 -14.854  1.00 25.21 LIG 0.04  C 
ATOM     31  CG  PRO P 630      25.150  12.702 -14.019  1.00 30.73 LIG 0.02  C 
ATOM     32  CD  PRO P 630      23.901  12.745 -14.864  1.00 29.29 LIG 0.13  C 
ATOM     33  N   PRO P 630      24.116  11.704 -15.861  1.00 28.31 LIG-0.34  N 
ATOM     34  C   ASP P 629      23.286  11.233 -16.801  1.00 28.38 LIG 0.24  C 
ATOM     35 O    ASP P 629      23.579  10.246 -17.490  1.00 35.14 LIG-0.27  OA
BRANCH 34 36
ATOM     36  CA  ASP P 629      21.963  11.940 -16.986  1.00 31.37 LIG 0.19  C 
BRANCH 36 37
ATOM     37  CB  ASP P 629      21.338  11.681 -18.372  1.00 29.57 LIG 0.15  C 
BRANCH 37 38
ATOM     38  CG  ASP P 629      19.961  11.060 -18.225  1.00 37.10 LIG 0.17  C 
ATOM     39 OD2  ASP P 629      19.853   9.816 -18.143  1.00 43.68 LIG-0.65  OA
ATOM     40 OD1  ASP P 629      18.970  11.815 -18.161  1.00 36.00 LIG-0.65  OA
ENDBRANCH 37 38
ENDBRANCH 36 37
BRANCH 36 41
ATOM     41  N   ASP P 629      22.146  13.370 -16.858  1.00 43.53 LIG-0.34  N 
ATOM     42 H    ASP P 629      21.694  13.684 -16.197  1.00 43.53 LIG 0.16  HD
ATOM     43  C   SER P 628      22.885  14.166 -17.603  1.00 52.75 LIG 0.26  C 
ATOM     44 O    SER P 628      23.587  13.811 -18.546  1.00 74.95 LIG-0.27  OA
BRANCH 43 45
ATOM     45  CA  SER P 628      22.793  15.632 -17.158  1.00 53.54 LIG 0.42  C 
ATOM     46  N   SER P 628      23.161  16.572 -18.215  1.00 68.72 LIG 0.62  N 
BRANCH 45 47
ATOM     47  CB  SER P 628      21.352  15.884 -16.703  1.00 49.52 LIG 0.21  C 
BRANCH 47 48
ATOM     48 OG   SER P 628      21.218  15.733 -15.297  1.00 73.20 LIG-0.40  OA
ATOM     49 HG   SER P 628      20.491  15.349 -15.123  1.00 73.20 LIG 0.21  HD
ENDBRANCH 47 48
ENDBRANCH 45 47
ENDBRANCH 43 45
ENDBRANCH 36 41
ENDBRANCH 34 36
ENDBRANCH 1 29
TORSDOF 19
ENDMDL
MODEL 4
USER: ADFR SOLUTION from run 164
USER: SCORE 15.031421 LL:  -3.698 LR: -11.999 RR:   0.000 FEB:  -6.331
USER: RMSD 4.806693
USER: SEED 163
USER: STATUS searching
USER: GENES 21
USER: genes 0 Translation |==|  0.48845 0.42768 0.58930
USER: genes 1 Rotation |==|  0.46332 0.54619 0.44965 0.99395
USER: genes 2 Torsion [C]-N--CA-[C] |==|  0.70165
USER: genes 3 Torsion [N]-CA--C-[N] |==|  0.80713
USER: genes 4 Torsion [C]-N--CA-[CB] |==|  0.19343
USER: genes 5 Torsion [N]-CA--C-[O] |==|  0.96210
USER: genes 6 Torsion [N]-CA--CB-[CG] |==|  0.07335
USER: genes 7 Torsion [CA]-CB--CG-[CD] |==|  0.60278
USER: genes 8 Torsion [CB]-CG--CD-[CE] |==|  0.91084
USER: genes 9 Torsion [CG]-CD--CE-[NZ] |==|  0.38036
USER: genes 10 Torsion [CD]-CE--NZ-[HZ2] |==|  0.31199
USER: genes 11 Torsion [N]-CA--CB-[CG] |==|  0.89206
USER: genes 12 Torsion [CA]-CB--CG-[CD1] |==|  0.68297
USER: genes 13 Torsion [O]-C--CA-[CB] |==|  0.61113
USER: genes 14 Torsion [N]-C--CA-[N] |==|  0.86889
USER: genes 15 Torsion [C]-CA--CB-[CG] |==|  0.08220
USER: genes 16 Torsion [CA]-CB--CG-[OD1] |==|  0.63192
USER: genes 17 Torsion [C]-CA--N-[C] |==|  0.81876
USER: genes 18 Torsion [N]-C--CA-[N] |==|  0.90176
USER: genes 19 Torsion [C]-CA--CB-[OG] |==|  0.25288
USER: genes 20 Torsion [CA]-CB--OG-[HG] |==|  0.54148
ROOT
ATOM      1  C   PRO P 630      24.784   8.475 -14.743  1.00 36.04 LIG 0.24  C 
ATOM      2 O    PRO P 630      25.404   7.494 -14.280  1.00 33.55 LIG-0.27  OA
ATOM      3  N   PHE P 631      23.458   8.533 -14.830  1.00 24.81 LIG-0.35  N 
ATOM      4 H    PHE P 631      23.036   9.211 -15.148  1.00 24.81 LIG 0.16  HD
ENDROOT
BRANCH 3 5
ATOM      5  CA  PHE P 631      22.594   7.463 -14.398  1.00 30.16 LIG 0.18  C 
BRANCH 5 6
ATOM      6  C   PHE P 631      22.009   6.770 -15.659  1.00 46.65 LIG 0.24  C 
ATOM      7  N   LYS P 632      21.141   7.483 -16.355  1.00 37.40 LIG-0.34  N 
ATOM      8 H    LYS P 632      20.888   8.272 -16.123  1.00 37.40 LIG 0.16  HD
ATOM      9 O    PHE P 631      22.383   5.604 -15.844  1.00 54.45 LIG-0.27  OA
BRANCH 7 10
ATOM     10  CA  LYS P 632      20.507   7.003 -17.612  1.00 44.88 LIG 0.18  C 
BRANCH 10 11
ATOM     11  C   LYS P 632      19.893   8.166 -18.381  1.00 45.53 LIG 0.20  C 
ATOM     12 O    LYS P 632      19.727   9.282 -17.850  1.00 61.11 LIG-0.65  OA
ATOM     13 OXT  LYS P 632      19.565   7.962 -19.575  1.00 57.29 LIG-0.65  OA
ENDBRANCH 10 11
BRANCH 10 14
ATOM     14  CB  LYS P 632      19.533   5.879 -17.320  1.00 47.81 LIG 0.04  C 
BRANCH 14 15
ATOM     15  CG  LYS P 632      18.819   5.701 -15.994  1.00 54.84 LIG 0.00  C 
BRANCH 15 16
ATOM     16  CD  LYS P 632      18.730   4.188 -15.712  1.00 63.82 LIG 0.03  C 
BRANCH 16 17
ATOM     17  CE  LYS P 632      18.609   3.444 -17.043  1.00 66.19 LIG 0.23  C 
BRANCH 17 18
ATOM     18  NZ  LYS P 632      19.462   2.227 -17.100  1.00 52.45 LIG-0.08  N 
ATOM     19 HZ2  LYS P 632      18.947   1.502 -17.118  1.00 52.45 LIG 0.27  HD
ATOM     20 HZ1  LYS P 632      19.988   2.199 -16.383  1.00 52.45 LIG 0.27  HD
ATOM     21 HZ3  LYS P 632      19.965   2.251 -17.835  1.00 52.45 LIG 0.27  HD
ENDBRANCH 17 18
ENDBRANCH 16 17
ENDBRANCH 15 16
ENDBRANCH 14 15
ENDBRANCH 10 14
ENDBRANCH 7 10
ENDBRANCH 5 6
BRANCH 5 22
ATOM     22  CB  PHE P 631      21.403   7.837 -13.530  1.00 25.51 LIG 0.07  C 
BRANCH 22 23
ATOM     23  CG  PHE P 631      21.586   8.923 -12.464  1.00 27.58 LIG-0.06  A 
ATOM     24  CD1 PHE P 631      21.512   8.710 -11.089  1.00 30.72 LIG 0.01  A 
ATOM     25  CE1 PHE P 631      21.684   9.763 -10.203  1.00 26.28 LIG 0.00  A 
ATOM     26  CZ  PHE P 631      21.937  11.033 -10.678  1.00 23.54 LIG 0.00  A 
ATOM     27  CE2 PHE P 631      22.013  11.264 -12.043  1.00 23.94 LIG 0.00  A 
ATOM     28  CD2 PHE P 631      21.823  10.214 -12.888  1.00 24.70 LIG 0.01  A 
ENDBRANCH 22 23
ENDBRANCH 5 22
ENDBRANCH 3 5
BRANCH 1 29
ATOM     29  CA  PRO P 630      25.605   9.653 -15.225  1.00 22.29 LIG 0.18  C 
ATOM     30  CB  PRO P 630      24.988  10.995 -14.861  1.00 25.21 LIG 0.04  C 
ATOM     31  CG  PRO P 630      24.232  11.417 -16.084  1.00 30.73 LIG 0.02  C 
ATOM     32  CD  PRO P 630      24.943  10.808 -17.266  1.00 29.29 LIG 0.13  C 
ATOM     33  N   PRO P 630      25.685   9.692 -16.692  1.00 28.31 LIG-0.34  N 
ATOM     34  C   ASP P 629      26.408   8.741 -17.298  1.00 28.38 LIG 0.24  C 
ATOM     35 O    ASP P 629      26.872   7.779 -16.670  1.00 35.14 LIG-0.27  OA
BRANCH 34 36
ATOM     36  CA  ASP P 629      26.629   8.870 -18.788  1.00 31.37 LIG 0.19  C 
BRANCH 36 37
ATOM     37  CB  ASP P 629      27.618   9.997 -19.148  1.00 29.57 LIG 0.15  C 
BRANCH 37 38
ATOM     38  CG  ASP P 629      28.627  10.194 -18.032  1.00 37.10 LIG 0.17  C 
ATOM     39 OD2  ASP P 629      29.222   9.199 -17.559  1.00 43.68 LIG-0.65  OA
ATOM     40 OD1  ASP P 629      28.858  11.353 -17.632  1.00 36.00 LIG-0.65  OA
ENDBRANCH 37 38
ENDBRANCH 36 37
BRANCH 36 41
ATOM     41  N   ASP P 629      25.376   9.171 -19.447  1.00 43.53 LIG-0.34  N 
ATOM     42 H    ASP P 629      25.391   9.953 -19.805  1.00 43.53 LIG 0.16  HD
ATOM     43  C   SER P 628      24.303   8.413 -19.540  1.00 52.75 LIG 0.26  C 
ATOM     44 O    SER P 628      24.193   7.275 -19.091  1.00 74.95 LIG-0.27  OA
BRANCH 43 45
ATOM     45  CA  SER P 628      23.163   9.105 -20.300  1.00 53.54 LIG 0.42  C 
ATOM     46  N   SER P 628      23.106  10.545 -20.053  1.00 68.72 LIG 0.62  N 
BRANCH 45 47
ATOM     47  CB  SER P 628      23.374   8.831 -21.792  1.00 49.52 LIG 0.21  C 
BRANCH 47 48
ATOM     48 OG   SER P 628      22.694   7.654 -22.205  1.00 73.20 LIG-0.40  OA
ATOM     49 HG   SER P 628      22.982   7.412 -22.956  1.00 73.20 LIG 0.21  HD
ENDBRANCH 47 48
ENDBRANCH 45 47
ENDBRANCH 43 45
ENDBRANCH 36 41
ENDBRANCH 34 36
ENDBRANCH 1 29
TORSDOF 19
ENDMDL
MODEL 5
USER: ADFR SOLUTION from run 111
USER: SCORE 14.651413 LL:  -3.162 LR: -11.982 RR:   0.000 FEB:  -6.314
USER: RMSD 4.286978
USER: SEED 110
USER: STATUS searching
USER: GENES 21
USER: genes 0 Translation |==|  0.49890 0.45483 0.58337
USER: genes 1 Rotation |==|  0.47554 0.55296 0.49348 0.99654
USER: genes 2 Torsion [C]-N--CA-[C] |==|  0.70279
USER: genes 3 Torsion [N]-CA--C-[N] |==|  0.83474
USER: genes 4 Torsion [C]-N--CA-[CB] |==|  0.10035
USER: genes 5 Torsion [N]-CA--C-[O] |==|  0.12738
USER: genes 6 Torsion [N]-CA--CB-[CG] |==|  0.68648
USER: genes 7 Torsion [CA]-CB--CG-[CD] |==|  0.46821
USER: genes 8 Torsion [CB]-CG--CD-[CE] |==|  0.18196
USER: genes 9 Torsion [CG]-CD--CE-[NZ] |==|  0.54367
USER: genes 10 Torsion [CD]-CE--NZ-[HZ2] |==|  0.48992
USER: genes 11 Torsion [N]-CA--CB-[CG] |==|  0.90108
USER: genes 12 Torsion [CA]-CB--CG-[CD1] |==|  0.65493
USER: genes 13 Torsion [O]-C--CA-[CB] |==|  0.55359
USER: genes 14 Torsion [N]-C--CA-[N] |==|  0.35994
USER: genes 15 Torsion [C]-CA--CB-[CG] |==|  0.82405
USER: genes 16 Torsion [CA]-CB--CG-[OD1] |==|  0.28699
USER: genes 17 Torsion [C]-CA--N-[C] |==|  0.80083
USER: genes 18 Torsion [N]-C--CA-[N] |==|  0.40573
USER: genes 19 Torsion [C]-CA--CB-[OG] |==|  0.14703
USER: genes 20 Torsion [CA]-CB--OG-[HG] |==|  0.83777
ROOT
ATOM      1  C   PRO P 630      24.949   9.086 -14.849  1.00 36.04 LIG 0.24  C 
ATOM      2 O    PRO P 630      25.741   8.195 -14.475  1.00 33.55 LIG-0.27  OA
ATOM      3  N   PHE P 631      23.629   8.926 -14.895  1.00 24.81 LIG-0.35  N 
ATOM      4 H    PHE P 631      23.088   9.543 -15.153  1.00 24.81 LIG 0.16  HD
ENDROOT
BRANCH 3 5
ATOM      5  CA  PHE P 631      22.972   7.700 -14.516  1.00 30.16 LIG 0.18  C 
BRANCH 5 6
ATOM      6  C   PHE P 631      22.470   6.997 -15.807  1.00 46.65 LIG 0.24  C 
ATOM      7  N   LYS P 632      21.619   7.689 -16.543  1.00 37.40 LIG-0.34  N 
ATOM      8 H    LYS P 632      21.333   8.469 -16.322  1.00 37.40 LIG 0.16  HD
ATOM      9 O    PHE P 631      22.885   5.842 -15.976  1.00 54.45 LIG-0.27  OA
BRANCH 7 10
ATOM     10  CA  LYS P 632      21.062   7.196 -17.832  1.00 44.88 LIG 0.18  C 
BRANCH 10 11
ATOM     11  C   LYS P 632      19.828   7.998 -18.224  1.00 45.53 LIG 0.20  C 
ATOM     12 O    LYS P 632      19.812   9.244 -18.157  1.00 61.11 LIG-0.65  OA
ATOM     13 OXT  LYS P 632      18.826   7.359 -18.626  1.00 57.29 LIG-0.65  OA
ENDBRANCH 10 11
BRANCH 10 14
ATOM     14  CB  LYS P 632      20.826   5.700 -17.771  1.00 47.81 LIG 0.04  C 
BRANCH 14 15
ATOM     15  CG  LYS P 632      21.602   4.687 -18.590  1.00 54.84 LIG 0.00  C 
BRANCH 15 16
ATOM     16  CD  LYS P 632      21.271   3.287 -18.034  1.00 63.82 LIG 0.03  C 
BRANCH 16 17
ATOM     17  CE  LYS P 632      19.793   2.992 -18.287  1.00 66.19 LIG 0.23  C 
BRANCH 17 18
ATOM     18  NZ  LYS P 632      19.287   1.852 -17.476  1.00 52.45 LIG-0.08  N 
ATOM     19 HZ2  LYS P 632      18.414   1.751 -17.617  1.00 52.45 LIG 0.27  HD
ATOM     20 HZ1  LYS P 632      19.432   2.015 -16.613  1.00 52.45 LIG 0.27  HD
ATOM     21 HZ3  LYS P 632      19.713   1.107 -17.713  1.00 52.45 LIG 0.27  HD
ENDBRANCH 17 18
ENDBRANCH 16 17
ENDBRANCH 15 16
ENDBRANCH 14 15
ENDBRANCH 10 14
ENDBRANCH 7 10
ENDBRANCH 5 6
BRANCH 5 22
ATOM     22  CB  PHE P 631      21.765   7.812 -13.598  1.00 25.51 LIG 0.07  C 
BRANCH 22 23
ATOM     23  CG  PHE P 631      21.767   8.896 -12.515  1.00 27.58 LIG-0.06  A 
ATOM     24  CD1 PHE P 631      21.589   8.661 -11.153  1.00 30.72 LIG 0.01  A 
ATOM     25  CE1 PHE P 631      21.599   9.713 -10.250  1.00 26.28 LIG 0.00  A 
ATOM     26  CZ  PHE P 631      21.790  11.005 -10.694  1.00 23.54 LIG 0.00  A 
ATOM     27  CE2 PHE P 631      21.967  11.258 -12.047  1.00 23.94 LIG 0.00  A 
ATOM     28  CD2 PHE P 631      21.935  10.206 -12.910  1.00 24.70 LIG 0.01  A 
ENDBRANCH 22 23
ENDBRANCH 5 22
ENDBRANCH 3 5
BRANCH 1 29
ATOM     29  CA  PRO P 630      25.544  10.414 -15.270  1.00 22.29 LIG 0.18  C 
ATOM     30  CB  PRO P 630      24.530  11.548 -15.256  1.00 25.21 LIG 0.04  C 
ATOM     31  CG  PRO P 630      24.057  11.663 -16.673  1.00 30.73 LIG 0.02  C 
ATOM     32  CD  PRO P 630      25.196  11.204 -17.549  1.00 29.29 LIG 0.13  C 
ATOM     33  N   PRO P 630      26.010  10.381 -16.664  1.00 28.31 LIG-0.34  N 
ATOM     34  C   ASP P 629      27.088   9.634 -16.938  1.00 28.38 LIG 0.24  C 
ATOM     35 O    ASP P 629      27.590   8.883 -16.089  1.00 35.14 LIG-0.27  OA
BRANCH 34 36
ATOM     36  CA  ASP P 629      27.669   9.725 -18.330  1.00 31.37 LIG 0.19  C 
BRANCH 36 37
ATOM     37  CB  ASP P 629      27.467   8.433 -19.146  1.00 29.57 LIG 0.15  C 
BRANCH 37 38
ATOM     38  CG  ASP P 629      28.204   7.276 -18.498  1.00 37.10 LIG 0.17  C 
ATOM     39 OD2  ASP P 629      29.449   7.204 -18.604  1.00 43.68 LIG-0.65  OA
ATOM     40 OD1  ASP P 629      27.547   6.438 -17.848  1.00 36.00 LIG-0.65  OA
ENDBRANCH 37 38
ENDBRANCH 36 37
BRANCH 36 41
ATOM     41  N   ASP P 629      29.094   9.967 -18.254  1.00 43.53 LIG-0.34  N 
ATOM     42 H    ASP P 629      29.542   9.270 -18.484  1.00 43.53 LIG 0.16  HD
ATOM     43  C   SER P 628      29.715  11.071 -17.891  1.00 52.75 LIG 0.26  C 
ATOM     44 O    SER P 628      29.168  12.125 -17.575  1.00 74.95 LIG-0.27  OA
BRANCH 43 45
ATOM     45  CA  SER P 628      31.241  10.917 -17.914  1.00 53.54 LIG 0.42  C 
ATOM     46  N   SER P 628      31.932  12.146 -18.300  1.00 68.72 LIG 0.62  N 
BRANCH 45 47
ATOM     47  CB  SER P 628      31.680  10.478 -16.514  1.00 49.52 LIG 0.21  C 
BRANCH 47 48
ATOM     48 OG   SER P 628      30.963   9.330 -16.081  1.00 73.20 LIG-0.40  OA
ATOM     49 HG   SER P 628      30.139   9.497 -16.081  1.00 73.20 LIG 0.21  HD
ENDBRANCH 47 48
ENDBRANCH 45 47
ENDBRANCH 43 45
ENDBRANCH 36 41
ENDBRANCH 34 36
ENDBRANCH 1 29
TORSDOF 19
ENDMDL
MODEL 6
USER: ADFR SOLUTION from run 13
USER: SCORE 14.184878 LL:  -3.197 LR: -11.743 RR:   0.000 FEB:  -6.075
USER: RMSD 3.993389
USER: SEED 3648
USER: STATUS no improvement in best in 28 clusters for 5 generations
USER: GENES 21
USER: genes 0 Translation |==|  0.48861 0.44686 0.56072
USER: genes 1 Rotation |==|  0.41065 0.54662 0.49601 0.98972
USER: genes 2 Torsion [C]-N--CA-[C] |==|  0.71778
USER: genes 3 Torsion [N]-CA--C-[N] |==|  0.23217
USER: genes 4 Torsion [C]-N--CA-[CB] |==|  0.16098
USER: genes 5 Torsion [N]-CA--C-[O] |==|  0.89001
USER: genes 6 Torsion [N]-CA--CB-[CG] |==|  0.62654
USER: genes 7 Torsion [CA]-CB--CG-[CD] |==|  0.96874
USER: genes 8 Torsion [CB]-CG--CD-[CE] |==|  0.38851
USER: genes 9 Torsion [CG]-CD--CE-[NZ] |==|  0.56321
USER: genes 10 Torsion [CD]-CE--NZ-[HZ2] |==|  0.53522
USER: genes 11 Torsion [N]-CA--CB-[CG] |==|  0.82812
USER: genes 12 Torsion [CA]-CB--CG-[CD1] |==|  0.66178
USER: genes 13 Torsion [O]-C--CA-[CB] |==|  0.58553
USER: genes 14 Torsion [N]-C--CA-[N] |==|  0.21825
USER: genes 15 Torsion [C]-CA--CB-[CG] |==|  0.83551
USER: genes 16 Torsion [CA]-CB--CG-[OD1] |==|  0.92254
USER: genes 17 Torsion [C]-CA--N-[C] |==|  0.73206
USER: genes 18 Torsion [N]-C--CA-[N] |==|  0.48957
USER: genes 19 Torsion [C]-CA--CB-[OG] |==|  0.26734
USER: genes 20 Torsion [CA]-CB--OG-[HG] |==|  0.80970
ROOT
ATOM      1  C   PRO P 630      24.787   8.906 -15.257  1.00 36.04 LIG 0.24  C 
ATOM      2 O    PRO P 630      25.601   8.174 -14.656  1.00 33.55 LIG-0.27  OA
ATOM      3  N   PHE P 631      23.475   8.687 -15.278  1.00 24.81 LIG-0.35  N 
ATOM      4 H    PHE P 631      22.919   9.195 -15.692  1.00 24.81 LIG 0.16  HD
ENDROOT
BRANCH 3 5
ATOM      5  CA  PHE P 631      22.854   7.573 -14.606  1.00 30.16 LIG 0.18  C 
BRANCH 5 6
ATOM      6  C   PHE P 631      22.532   6.483 -15.664  1.00 46.65 LIG 0.24  C 
ATOM      7  N   LYS P 632      23.527   5.671 -15.974  1.00 37.40 LIG-0.34  N 
ATOM      8 H    LYS P 632      24.315   5.745 -15.637  1.00 37.40 LIG 0.16  HD
ATOM      9 O    PHE P 631      21.389   6.530 -16.141  1.00 54.45 LIG-0.27  OA
BRANCH 7 10
ATOM     10  CA  LYS P 632      23.396   4.544 -16.936  1.00 44.88 LIG 0.18  C 
BRANCH 10 11
ATOM     11  C   LYS P 632      24.682   3.729 -16.984  1.00 45.53 LIG 0.20  C 
ATOM     12 O    LYS P 632      25.802   4.276 -16.945  1.00 61.11 LIG-0.65  OA
ATOM     13 OXT  LYS P 632      24.573   2.480 -17.055  1.00 57.29 LIG-0.65  OA
ENDBRANCH 10 11
BRANCH 10 14
ATOM     14  CB  LYS P 632      22.942   5.052 -18.290  1.00 47.81 LIG 0.04  C 
BRANCH 14 15
ATOM     15  CG  LYS P 632      21.848   4.403 -19.114  1.00 54.84 LIG 0.00  C 
BRANCH 15 16
ATOM     16  CD  LYS P 632      21.526   3.039 -18.471  1.00 63.82 LIG 0.03  C 
BRANCH 16 17
ATOM     17  CE  LYS P 632      20.014   2.820 -18.504  1.00 66.19 LIG 0.23  C 
BRANCH 17 18
ATOM     18  NZ  LYS P 632      19.550   1.852 -17.475  1.00 52.45 LIG-0.08  N 
ATOM     19 HZ2  LYS P 632      18.709   1.617 -17.645  1.00 52.45 LIG 0.27  HD
ATOM     20 HZ1  LYS P 632      19.595   2.230 -16.671  1.00 52.45 LIG 0.27  HD
ATOM     21 HZ3  LYS P 632      20.069   1.129 -17.492  1.00 52.45 LIG 0.27  HD
ENDBRANCH 17 18
ENDBRANCH 16 17
ENDBRANCH 15 16
ENDBRANCH 14 15
ENDBRANCH 10 14
ENDBRANCH 7 10
ENDBRANCH 5 6
BRANCH 5 22
ATOM     22  CB  PHE P 631      21.552   7.844 -13.867  1.00 25.51 LIG 0.07  C 
BRANCH 22 23
ATOM     23  CG  PHE P 631      21.565   8.837 -12.700  1.00 27.58 LIG-0.06  A 
ATOM     24  CD1 PHE P 631      21.181   8.537 -11.395  1.00 30.72 LIG 0.01  A 
ATOM     25  CE1 PHE P 631      21.221   9.510 -10.408  1.00 26.28 LIG 0.00  A 
ATOM     26  CZ  PHE P 631      21.647  10.786 -10.711  1.00 23.54 LIG 0.00  A 
ATOM     27  CE2 PHE P 631      22.032  11.103 -12.005  1.00 23.94 LIG 0.00  A 
ATOM     28  CD2 PHE P 631      21.966  10.131 -12.956  1.00 24.70 LIG 0.01  A 
ENDBRANCH 22 23
ENDBRANCH 5 22
ENDBRANCH 3 5
BRANCH 1 29
ATOM     29  CA  PRO P 630      25.343  10.106 -15.996  1.00 22.29 LIG 0.18  C 
ATOM     30  CB  PRO P 630      24.372  11.276 -16.043  1.00 25.21 LIG 0.04  C 
ATOM     31  CG  PRO P 630      23.691  11.161 -17.373  1.00 30.73 LIG 0.02  C 
ATOM     32  CD  PRO P 630      24.672  10.495 -18.307  1.00 29.29 LIG 0.13  C 
ATOM     33  N   PRO P 630      25.591   9.801 -17.413  1.00 28.31 LIG-0.34  N 
ATOM     34  C   ASP P 629      26.595   8.962 -17.700  1.00 28.38 LIG 0.24  C 
ATOM     35 O    ASP P 629      27.202   8.349 -16.810  1.00 35.14 LIG-0.27  OA
BRANCH 34 36
ATOM     36  CA  ASP P 629      26.959   8.774 -19.155  1.00 31.37 LIG 0.19  C 
BRANCH 36 37
ATOM     37  CB  ASP P 629      27.787   7.498 -19.401  1.00 29.57 LIG 0.15  C 
BRANCH 37 38
ATOM     38  CG  ASP P 629      29.075   7.539 -18.600  1.00 37.10 LIG 0.17  C 
ATOM     39 OD2  ASP P 629      29.624   6.465 -18.264  1.00 43.68 LIG-0.65  OA
ATOM     40 OD1  ASP P 629      29.570   8.650 -18.321  1.00 36.00 LIG-0.65  OA
ENDBRANCH 37 38
ENDBRANCH 36 37
BRANCH 36 41
ATOM     41  N   ASP P 629      27.751   9.896 -19.613  1.00 43.53 LIG-0.34  N 
ATOM     42 H    ASP P 629      28.581   9.794 -19.414  1.00 43.53 LIG 0.16  HD
ATOM     43  C   SER P 628      27.343  10.972 -20.255  1.00 52.75 LIG 0.26  C 
ATOM     44 O    SER P 628      26.189  11.196 -20.610  1.00 74.95 LIG-0.27  OA
BRANCH 43 45
ATOM     45  CA  SER P 628      28.491  11.950 -20.541  1.00 53.54 LIG 0.42  C 
ATOM     46  N   SER P 628      28.071  13.106 -21.329  1.00 68.72 LIG 0.62  N 
BRANCH 45 47
ATOM     47  CB  SER P 628      29.055  12.403 -19.191  1.00 49.52 LIG 0.21  C 
BRANCH 47 48
ATOM     48 OG   SER P 628      30.192  11.638 -18.818  1.00 73.20 LIG-0.40  OA
ATOM     49 HG   SER P 628      29.956  10.850 -18.645  1.00 73.20 LIG 0.21  HD
ENDBRANCH 47 48
ENDBRANCH 45 47
ENDBRANCH 43 45
ENDBRANCH 36 41
ENDBRANCH 34 36
ENDBRANCH 1 29
TORSDOF 19
ENDMDL
MODEL 7
USER: ADFR SOLUTION from run 171
USER: SCORE 14.335850 LL:  -3.404 LR: -11.717 RR:   0.000 FEB:  -6.049
USER: RMSD 3.748924
USER: SEED 170
USER: STATUS no improvement in best in 26 clusters for 5 generations
USER: GENES 21
USER: genes 0 Translation |==|  0.48310 0.42216 0.55242
USER: genes 1 Rotation |==|  0.48832 0.62515 0.42829 0.97860
USER: genes 2 Torsion [C]-N--CA-[C] |==|  0.75704
USER: genes 3 Torsion [N]-CA--C-[N] |==|  0.81672
USER: genes 4 Torsion [C]-N--CA-[CB] |==|  0.20229
USER: genes 5 Torsion [N]-CA--C-[O] |==|  0.94521
USER: genes 6 Torsion [N]-CA--CB-[CG] |==|  0.00476
USER: genes 7 Torsion [CA]-CB--CG-[CD] |==|  0.63569
USER: genes 8 Torsion [CB]-CG--CD-[CE] |==|  0.92519
USER: genes 9 Torsion [CG]-CD--CE-[NZ] |==|  0.37360
USER: genes 10 Torsion [CD]-CE--NZ-[HZ2] |==|  0.65270
USER: genes 11 Torsion [N]-CA--CB-[CG] |==|  0.89018
USER: genes 12 Torsion [CA]-CB--CG-[CD1] |==|  0.17547
USER: genes 13 Torsion [O]-C--CA-[CB] |==|  0.91577
USER: genes 14 Torsion [N]-C--CA-[N] |==|  0.24033
USER: genes 15 Torsion [C]-CA--CB-[CG] |==|  0.77136
USER: genes 16 Torsion [CA]-CB--CG-[OD1] |==|  0.29252
USER: genes 17 Torsion [C]-CA--N-[C] |==|  0.73989
USER: genes 18 Torsion [N]-C--CA-[N] |==|  0.10885
USER: genes 19 Torsion [C]-CA--CB-[OG] |==|  0.18682
USER: genes 20 Torsion [CA]-CB--OG-[HG] |==|  0.85233
ROOT
ATOM      1  C   PRO P 630      24.700   8.351 -15.406  1.00 36.04 LIG 0.24  C 
ATOM      2 O    PRO P 630      25.285   7.258 -15.253  1.00 33.55 LIG-0.27  OA
ATOM      3  N   PHE P 631      23.427   8.557 -15.080  1.00 24.81 LIG-0.35  N 
ATOM      4 H    PHE P 631      23.030   9.312 -15.187  1.00 24.81 LIG 0.16  HD
ENDROOT
BRANCH 3 5
ATOM      5  CA  PHE P 631      22.585   7.533 -14.513  1.00 30.16 LIG 0.18  C 
BRANCH 5 6
ATOM      6  C   PHE P 631      21.937   6.735 -15.677  1.00 46.65 LIG 0.24  C 
ATOM      7  N   LYS P 632      21.088   7.410 -16.433  1.00 37.40 LIG-0.34  N 
ATOM      8 H    LYS P 632      20.880   8.231 -16.286  1.00 37.40 LIG 0.16  HD
ATOM      9 O    PHE P 631      22.249   5.538 -15.736  1.00 54.45 LIG-0.27  OA
BRANCH 7 10
ATOM     10  CA  LYS P 632      20.401   6.825 -17.616  1.00 44.88 LIG 0.18  C 
BRANCH 10 11
ATOM     11  C   LYS P 632      19.894   7.926 -18.539  1.00 45.53 LIG 0.20  C 
ATOM     12 O    LYS P 632      19.734   9.094 -18.133  1.00 61.11 LIG-0.65  OA
ATOM     13 OXT  LYS P 632      19.651   7.616 -19.730  1.00 57.29 LIG-0.65  OA
ENDBRANCH 10 11
BRANCH 10 14
ATOM     14  CB  LYS P 632      19.327   5.850 -17.178  1.00 47.81 LIG 0.04  C 
BRANCH 14 15
ATOM     15  CG  LYS P 632      18.988   5.558 -15.729  1.00 54.84 LIG 0.00  C 
BRANCH 15 16
ATOM     16  CD  LYS P 632      18.949   4.026 -15.559  1.00 63.82 LIG 0.03  C 
BRANCH 16 17
ATOM     17  CE  LYS P 632      18.591   3.389 -16.902  1.00 66.19 LIG 0.23  C 
BRANCH 17 18
ATOM     18  NZ  LYS P 632      19.457   2.227 -17.236  1.00 52.45 LIG-0.08  N 
ATOM     19 HZ2  LYS P 632      19.832   2.355 -18.033  1.00 52.45 LIG 0.27  HD
ATOM     20 HZ1  LYS P 632      18.966   1.486 -17.255  1.00 52.45 LIG 0.27  HD
ATOM     21 HZ3  LYS P 632      20.094   2.144 -16.619  1.00 52.45 LIG 0.27  HD
ENDBRANCH 17 18
ENDBRANCH 16 17
ENDBRANCH 15 16
ENDBRANCH 14 15
ENDBRANCH 10 14
ENDBRANCH 7 10
ENDBRANCH 5 6
BRANCH 5 22
ATOM     22  CB  PHE P 631      21.440   7.989 -13.623  1.00 25.51 LIG 0.07  C 
BRANCH 22 23
ATOM     23  CG  PHE P 631      21.682   9.153 -12.656  1.00 27.58 LIG-0.06  A 
ATOM     24  CD1 PHE P 631      21.997  10.455 -13.040  1.00 30.72 LIG 0.01  A 
ATOM     25  CE1 PHE P 631      22.206  11.440 -12.086  1.00 26.28 LIG 0.00  A 
ATOM     26  CZ  PHE P 631      22.098  11.137 -10.745  1.00 23.54 LIG 0.00  A 
ATOM     27  CE2 PHE P 631      21.787   9.847 -10.344  1.00 23.94 LIG 0.00  A 
ATOM     28  CD2 PHE P 631      21.604   8.898 -11.303  1.00 24.70 LIG 0.01  A 
ENDBRANCH 22 23
ENDBRANCH 5 22
ENDBRANCH 3 5
BRANCH 1 29
ATOM     29  CA  PRO P 630      25.502   9.492 -15.998  1.00 22.29 LIG 0.18  C 
ATOM     30  CB  PRO P 630      26.982   9.416 -15.656  1.00 25.21 LIG 0.04  C 
ATOM     31  CG  PRO P 630      27.153  10.319 -14.472  1.00 30.73 LIG 0.02  C 
ATOM     32  CD  PRO P 630      26.094  11.387 -14.584  1.00 29.29 LIG 0.13  C 
ATOM     33  N   PRO P 630      25.083  10.789 -15.447  1.00 28.31 LIG-0.34  N 
ATOM     34  C   ASP P 629      23.875  11.250 -15.798  1.00 28.38 LIG 0.24  C 
ATOM     35 O    ASP P 629      23.076  10.553 -16.441  1.00 35.14 LIG-0.27  OA
BRANCH 34 36
ATOM     36  CA  ASP P 629      23.507  12.652 -15.371  1.00 31.37 LIG 0.19  C 
BRANCH 36 37
ATOM     37  CB  ASP P 629      21.985  12.854 -15.237  1.00 29.57 LIG 0.15  C 
BRANCH 37 38
ATOM     38  CG  ASP P 629      21.367  13.137 -16.594  1.00 37.10 LIG 0.17  C 
ATOM     39 OD2  ASP P 629      21.549  14.253 -17.132  1.00 43.68 LIG-0.65  OA
ATOM     40 OD1  ASP P 629      20.712  12.234 -17.153  1.00 36.00 LIG-0.65  OA
ENDBRANCH 37 38
ENDBRANCH 36 37
BRANCH 36 41
ATOM     41  N   ASP P 629      23.983  13.606 -16.350  1.00 43.53 LIG-0.34  N 
ATOM     42 H    ASP P 629      23.413  13.713 -16.985  1.00 43.53 LIG 0.16  HD
ATOM     43  C   SER P 628      25.121  14.270 -16.353  1.00 52.75 LIG 0.26  C 
ATOM     44 O    SER P 628      25.983  14.211 -15.481  1.00 74.95 LIG-0.27  OA
BRANCH 43 45
ATOM     45  CA  SER P 628      25.267  15.170 -17.588  1.00 53.54 LIG 0.42  C 
ATOM     46  N   SER P 628      24.017  15.824 -17.967  1.00 68.72 LIG 0.62  N 
BRANCH 45 47
ATOM     47  CB  SER P 628      26.339  16.216 -17.269  1.00 49.52 LIG 0.21  C 
BRANCH 47 48
ATOM     48 OG   SER P 628      27.623  15.622 -17.136  1.00 73.20 LIG-0.40  OA
ATOM     49 HG   SER P 628      27.586  14.994 -16.580  1.00 73.20 LIG 0.21  HD
ENDBRANCH 47 48
ENDBRANCH 45 47
ENDBRANCH 43 45
ENDBRANCH 36 41
ENDBRANCH 34 36
ENDBRANCH 1 29
TORSDOF 19
ENDMDL
MODEL 8
USER: ADFR SOLUTION from run 197
USER: SCORE 14.133547 LL:  -2.747 LR: -11.565 RR:   0.000 FEB:  -5.897
USER: RMSD 3.939528
USER: SEED 196
USER: STATUS no improvement in best in 22 clusters for 5 generations
USER: GENES 21
USER: genes 0 Translation |==|  0.55196 0.48393 0.56329
USER: genes 1 Rotation |==|  0.44987 0.59870 0.58086 0.98084
USER: genes 2 Torsion [C]-N--CA-[C] |==|  0.76111
USER: genes 3 Torsion [N]-CA--C-[N] |==|  0.38797
USER: genes 4 Torsion [C]-N--CA-[CB] |==|  0.45003
USER: genes 5 Torsion [N]-CA--C-[O] |==|  0.03881
USER: genes 6 Torsion [N]-CA--CB-[CG] |==|  0.50009
USER: genes 7 Torsion [CA]-CB--CG-[CD] |==|  0.59347
USER: genes 8 Torsion [CB]-CG--CD-[CE] |==|  0.63666
USER: genes 9 Torsion [CG]-CD--CE-[NZ] |==|  0.46906
USER: genes 10 Torsion [CD]-CE--NZ-[HZ2] |==|  0.75682
USER: genes 11 Torsion [N]-CA--CB-[CG] |==|  0.90463
USER: genes 12 Torsion [CA]-CB--CG-[CD1] |==|  0.65303
USER: genes 13 Torsion [O]-C--CA-[CB] |==|  0.84068
USER: genes 14 Torsion [N]-C--CA-[N] |==|  0.10847
USER: genes 15 Torsion [C]-CA--CB-[CG] |==|  0.34993
USER: genes 16 Torsion [CA]-CB--CG-[OD1] |==|  0.21783
USER: genes 17 Torsion [C]-CA--N-[C] |==|  0.17287
USER: genes 18 Torsion [N]-C--CA-[N] |==|  0.56339
USER: genes 19 Torsion [C]-CA--CB-[OG] |==|  0.26623
USER: genes 20 Torsion [CA]-CB--OG-[HG] |==|  0.55733
ROOT
ATOM      1  C   PRO P 630      25.784   9.740 -15.211  1.00 36.04 LIG 0.24  C 
ATOM      2 O    PRO P 630      26.893   9.208 -14.989  1.00 33.55 LIG-0.27  OA
ATOM      3  N   PHE P 631      24.620   9.145 -14.969  1.00 24.81 LIG-0.35  N 
ATOM      4 H    PHE P 631      23.860   9.517 -15.122  1.00 24.81 LIG 0.16  HD
ENDROOT
BRANCH 3 5
ATOM      5  CA  PHE P 631      24.515   7.815 -14.424  1.00 30.16 LIG 0.18  C 
BRANCH 5 6
ATOM      6  C   PHE P 631      24.585   6.800 -15.597  1.00 46.65 LIG 0.24  C 
ATOM      7  N   LYS P 632      25.295   5.708 -15.371  1.00 37.40 LIG-0.34  N 
ATOM      8 H    LYS P 632      25.716   5.567 -14.636  1.00 37.40 LIG 0.16  HD
ATOM      9 O    PHE P 631      24.010   7.153 -16.636  1.00 54.45 LIG-0.27  OA
BRANCH 7 10
ATOM     10  CA  LYS P 632      25.442   4.608 -16.362  1.00 44.88 LIG 0.18  C 
BRANCH 10 11
ATOM     11  C   LYS P 632      24.134   3.840 -16.507  1.00 45.53 LIG 0.20  C 
ATOM     12 O    LYS P 632      23.061   4.292 -16.061  1.00 61.11 LIG-0.65  OA
ATOM     13 OXT  LYS P 632      24.174   2.737 -17.103  1.00 57.29 LIG-0.65  OA
ENDBRANCH 10 11
BRANCH 10 14
ATOM     14  CB  LYS P 632      26.629   3.734 -16.012  1.00 47.81 LIG 0.04  C 
BRANCH 14 15
ATOM     15  CG  LYS P 632      27.058   2.524 -16.820  1.00 54.84 LIG 0.00  C 
BRANCH 15 16
ATOM     16  CD  LYS P 632      27.630   1.486 -15.835  1.00 63.82 LIG 0.03  C 
BRANCH 16 17
ATOM     17  CE  LYS P 632      28.980   0.997 -16.360  1.00 66.19 LIG 0.23  C 
BRANCH 17 18
ATOM     18  NZ  LYS P 632      29.731   0.196 -15.357  1.00 52.45 LIG-0.08  N 
ATOM     19 HZ2  LYS P 632      30.219   0.739 -14.847  1.00 52.45 LIG 0.27  HD
ATOM     20 HZ1  LYS P 632      30.267  -0.377 -15.777  1.00 52.45 LIG 0.27  HD
ATOM     21 HZ3  LYS P 632      29.158  -0.254 -14.847  1.00 52.45 LIG 0.27  HD
ENDBRANCH 17 18
ENDBRANCH 16 17
ENDBRANCH 15 16
ENDBRANCH 14 15
ENDBRANCH 10 14
ENDBRANCH 7 10
ENDBRANCH 5 6
BRANCH 5 22
ATOM     22  CB  PHE P 631      23.252   7.478 -13.648  1.00 25.51 LIG 0.07  C 
BRANCH 22 23
ATOM     23  CG  PHE P 631      22.589   8.580 -12.814  1.00 27.58 LIG-0.06  A 
ATOM     24  CD1 PHE P 631      22.300   8.484 -11.454  1.00 30.72 LIG 0.01  A 
ATOM     25  CE1 PHE P 631      21.689   9.536 -10.788  1.00 26.28 LIG 0.00  A 
ATOM     26  CZ  PHE P 631      21.367  10.692 -11.469  1.00 23.54 LIG 0.00  A 
ATOM     27  CE2 PHE P 631      21.646  10.804 -12.822  1.00 23.94 LIG 0.00  A 
ATOM     28  CD2 PHE P 631      22.230   9.748 -13.452  1.00 24.70 LIG 0.01  A 
ENDBRANCH 22 23
ENDBRANCH 5 22
ENDBRANCH 3 5
BRANCH 1 29
ATOM     29  CA  PRO P 630      25.788  11.142 -15.786  1.00 22.29 LIG 0.18  C 
ATOM     30  CB  PRO P 630      26.542  12.137 -14.918  1.00 25.21 LIG 0.04  C 
ATOM     31  CG  PRO P 630      25.487  12.811 -14.095  1.00 30.73 LIG 0.02  C 
ATOM     32  CD  PRO P 630      24.219  12.790 -14.913  1.00 29.29 LIG 0.13  C 
ATOM     33  N   PRO P 630      24.430  11.701 -15.859  1.00 28.31 LIG-0.34  N 
ATOM     34  C   ASP P 629      23.588  11.168 -16.754  1.00 28.38 LIG 0.24  C 
ATOM     35 O    ASP P 629      23.884  10.150 -17.396  1.00 35.14 LIG-0.27  OA
BRANCH 34 36
ATOM     36  CA  ASP P 629      22.250  11.843 -16.947  1.00 31.37 LIG 0.19  C 
BRANCH 36 37
ATOM     37  CB  ASP P 629      21.602  11.503 -18.304  1.00 29.57 LIG 0.15  C 
BRANCH 37 38
ATOM     38  CG  ASP P 629      20.199  10.963 -18.100  1.00 37.10 LIG 0.17  C 
ATOM     39 OD2  ASP P 629      20.003   9.727 -18.143  1.00 43.68 LIG-0.65  OA
ATOM     40 OD1  ASP P 629      19.276  11.769 -17.864  1.00 36.00 LIG-0.65  OA
ENDBRANCH 37 38
ENDBRANCH 36 37
BRANCH 36 41
ATOM     41  N   ASP P 629      22.413  13.281 -16.896  1.00 43.53 LIG-0.34  N 
ATOM     42 H    ASP P 629      21.973  13.621 -16.240  1.00 43.53 LIG 0.16  HD
ATOM     43  C   SER P 628      23.117  14.049 -17.701  1.00 52.75 LIG 0.26  C 
ATOM     44 O    SER P 628      23.800  13.658 -18.644  1.00 74.95 LIG-0.27  OA
BRANCH 43 45
ATOM     45  CA  SER P 628      23.011  15.535 -17.329  1.00 53.54 LIG 0.42  C 
ATOM     46  N   SER P 628      23.311  16.425 -18.449  1.00 68.72 LIG 0.62  N 
BRANCH 45 47
ATOM     47  CB  SER P 628      21.587  15.780 -16.822  1.00 49.52 LIG 0.21  C 
BRANCH 47 48
ATOM     48 OG   SER P 628      21.522  15.715 -15.404  1.00 73.20 LIG-0.40  OA
ATOM     49 HG   SER P 628      20.730  15.569 -15.166  1.00 73.20 LIG 0.21  HD
ENDBRANCH 47 48
ENDBRANCH 45 47
ENDBRANCH 43 45
ENDBRANCH 36 41
ENDBRANCH 34 36
ENDBRANCH 1 29
TORSDOF 19
ENDMDL
MODEL 9
USER: ADFR SOLUTION from run 87
USER: SCORE 13.886844 LL:  -2.859 LR: -11.525 RR:   0.000 FEB:  -5.857
USER: RMSD 4.508330
USER: SEED 86
USER: STATUS no improvement in best in 20 clusters for 5 generations
USER: GENES 21
USER: genes 0 Translation |==|  0.48990 0.45786 0.56389
USER: genes 1 Rotation |==|  0.47601 0.59867 0.52238 0.98907
USER: genes 2 Torsion [C]-N--CA-[C] |==|  0.69086
USER: genes 3 Torsion [N]-CA--C-[N] |==|  0.84525
USER: genes 4 Torsion [C]-N--CA-[CB] |==|  0.26575
USER: genes 5 Torsion [N]-CA--C-[O] |==|  0.83699
USER: genes 6 Torsion [N]-CA--CB-[CG] |==|  0.93591
USER: genes 7 Torsion [CA]-CB--CG-[CD] |==|  0.78588
USER: genes 8 Torsion [CB]-CG--CD-[CE] |==|  0.89309
USER: genes 9 Torsion [CG]-CD--CE-[NZ] |==|  0.71438
USER: genes 10 Torsion [CD]-CE--NZ-[HZ2] |==|  0.94555
USER: genes 11 Torsion [N]-CA--CB-[CG] |==|  0.95844
USER: genes 12 Torsion [CA]-CB--CG-[CD1] |==|  0.63897
USER: genes 13 Torsion [O]-C--CA-[CB] |==|  0.37081
USER: genes 14 Torsion [N]-C--CA-[N] |==|  0.13333
USER: genes 15 Torsion [C]-CA--CB-[CG] |==|  0.30126
USER: genes 16 Torsion [CA]-CB--CG-[OD1] |==|  0.75090
USER: genes 17 Torsion [C]-CA--N-[C] |==|  0.16079
USER: genes 18 Torsion [N]-C--CA-[N] |==|  0.83298
USER: genes 19 Torsion [C]-CA--CB-[OG] |==|  0.24347
USER: genes 20 Torsion [CA]-CB--OG-[HG] |==|  0.41794
ROOT
ATOM      1  C   PRO P 630      24.807   9.154 -15.200  1.00 36.04 LIG 0.24  C 
ATOM      2 O    PRO P 630      25.743   8.351 -15.004  1.00 33.55 LIG-0.27  OA
ATOM      3  N   PHE P 631      23.526   8.855 -15.000  1.00 24.81 LIG-0.35  N 
ATOM      4 H    PHE P 631      22.886   9.412 -15.136  1.00 24.81 LIG 0.16  HD
ENDROOT
BRANCH 3 5
ATOM      5  CA  PHE P 631      23.083   7.564 -14.535  1.00 30.16 LIG 0.18  C 
BRANCH 5 6
ATOM      6  C   PHE P 631      22.324   6.863 -15.694  1.00 46.65 LIG 0.24  C 
ATOM      7  N   LYS P 632      21.309   7.537 -16.206  1.00 37.40 LIG-0.34  N 
ATOM      8 H    LYS P 632      21.059   8.304 -15.911  1.00 37.40 LIG 0.16  HD
ATOM      9 O    PHE P 631      22.723   5.724 -15.975  1.00 54.45 LIG-0.27  OA
BRANCH 7 10
ATOM     10  CA  LYS P 632      20.492   7.043 -17.347  1.00 44.88 LIG 0.18  C 
BRANCH 10 11
ATOM     11  C   LYS P 632      20.213   8.171 -18.333  1.00 45.53 LIG 0.20  C 
ATOM     12 O    LYS P 632      19.622   9.211 -17.983  1.00 61.11 LIG-0.65  OA
ATOM     13 OXT  LYS P 632      20.610   8.018 -19.514  1.00 57.29 LIG-0.65  OA
ENDBRANCH 10 11
BRANCH 10 14
ATOM     14  CB  LYS P 632      19.243   6.348 -16.843  1.00 47.81 LIG 0.04  C 
BRANCH 14 15
ATOM     15  CG  LYS P 632      19.111   5.742 -15.459  1.00 54.84 LIG 0.00  C 
BRANCH 15 16
ATOM     16  CD  LYS P 632      19.871   4.401 -15.464  1.00 63.82 LIG 0.03  C 
BRANCH 16 17
ATOM     17  CE  LYS P 632      19.644   3.708 -16.808  1.00 66.19 LIG 0.23  C 
BRANCH 17 18
ATOM     18  NZ  LYS P 632      18.654   2.602 -16.725  1.00 52.45 LIG-0.08  N 
ATOM     19 HZ2  LYS P 632      18.569   2.341 -15.878  1.00 52.45 LIG 0.27  HD
ATOM     20 HZ1  LYS P 632      18.932   1.917 -17.220  1.00 52.45 LIG 0.27  HD
ATOM     21 HZ3  LYS P 632      17.866   2.885 -17.028  1.00 52.45 LIG 0.27  HD
ENDBRANCH 17 18
ENDBRANCH 16 17
ENDBRANCH 15 16
ENDBRANCH 14 15
ENDBRANCH 10 14
ENDBRANCH 7 10
ENDBRANCH 5 6
BRANCH 5 22
ATOM     22  CB  PHE P 631      22.145   7.540 -13.339  1.00 25.51 LIG 0.07  C 
BRANCH 22 23
ATOM     23  CG  PHE P 631      22.003   8.811 -12.494  1.00 27.58 LIG-0.06  A 
ATOM     24  CD1 PHE P 631      22.110   8.860 -11.105  1.00 30.72 LIG 0.01  A 
ATOM     25  CE1 PHE P 631      21.957  10.061 -10.429  1.00 26.28 LIG 0.00  A 
ATOM     26  CZ  PHE P 631      21.701  11.222 -11.130  1.00 23.54 LIG 0.00  A 
ATOM     27  CE2 PHE P 631      21.590  11.191 -12.512  1.00 23.94 LIG 0.00  A 
ATOM     28  CD2 PHE P 631      21.729   9.995 -13.145  1.00 24.70 LIG 0.01  A 
ENDBRANCH 22 23
ENDBRANCH 5 22
ENDBRANCH 3 5
BRANCH 1 29
ATOM     29  CA  PRO P 630      25.171  10.540 -15.692  1.00 22.29 LIG 0.18  C 
ATOM     30  CB  PRO P 630      24.305  11.002 -16.854  1.00 25.21 LIG 0.04  C 
ATOM     31  CG  PRO P 630      25.108  10.693 -18.082  1.00 30.73 LIG 0.02  C 
ATOM     32  CD  PRO P 630      26.560  10.769 -17.681  1.00 29.29 LIG 0.13  C 
ATOM     33  N   PRO P 630      26.536  10.580 -16.236  1.00 28.31 LIG-0.34  N 
ATOM     34  C   ASP P 629      27.551  10.451 -15.371  1.00 28.38 LIG 0.24  C 
ATOM     35 O    ASP P 629      27.357  10.162 -14.181  1.00 35.14 LIG-0.27  OA
BRANCH 34 36
ATOM     36  CA  ASP P 629      28.952  10.655 -15.899  1.00 31.37 LIG 0.19  C 
BRANCH 36 37
ATOM     37  CB  ASP P 629      29.999  10.784 -14.775  1.00 29.57 LIG 0.15  C 
BRANCH 37 38
ATOM     38  CG  ASP P 629      30.870   9.543 -14.717  1.00 37.10 LIG 0.17  C 
ATOM     39 OD2  ASP P 629      31.939   9.511 -15.369  1.00 43.68 LIG-0.65  OA
ATOM     40 OD1  ASP P 629      30.509   8.592 -13.994  1.00 36.00 LIG-0.65  OA
ENDBRANCH 37 38
ENDBRANCH 36 37
BRANCH 36 41
ATOM     41  N   ASP P 629      29.010  11.872 -16.682  1.00 43.53 LIG-0.34  N 
ATOM     42 H    ASP P 629      29.278  11.714 -17.484  1.00 43.53 LIG 0.16  HD
ATOM     43  C   SER P 628      28.714  13.098 -16.305  1.00 52.75 LIG 0.26  C 
ATOM     44 O    SER P 628      28.296  13.421 -15.196  1.00 74.95 LIG-0.27  OA
BRANCH 43 45
ATOM     45  CA  SER P 628      28.934  14.123 -17.426  1.00 53.54 LIG 0.42  C 
ATOM     46  N   SER P 628      30.318  14.167 -17.892  1.00 68.72 LIG 0.62  N 
BRANCH 45 47
ATOM     47  CB  SER P 628      27.997  13.750 -18.579  1.00 49.52 LIG 0.21  C 
BRANCH 47 48
ATOM     48 OG   SER P 628      26.719  14.349 -18.425  1.00 73.20 LIG-0.40  OA
ATOM     49 HG   SER P 628      26.379  14.485 -19.181  1.00 73.20 LIG 0.21  HD
ENDBRANCH 47 48
ENDBRANCH 45 47
ENDBRANCH 43 45
ENDBRANCH 36 41
ENDBRANCH 34 36
ENDBRANCH 1 29
TORSDOF 19
ENDMDL
MODEL 10
USER: ADFR SOLUTION from run 18
USER: SCORE 14.599044 LL:  -3.520 LR: -11.507 RR:   0.000 FEB:  -5.839
USER: RMSD 4.037732
USER: SEED 17
USER: STATUS no improvement in best in 32 clusters for 5 generations
USER: GENES 21
USER: genes 0 Translation |==|  0.41244 0.49573 0.56191
USER: genes 1 Rotation |==|  0.37098 0.49256 0.62421 0.96677
USER: genes 2 Torsion [C]-N--CA-[C] |==|  0.62871
USER: genes 3 Torsion [N]-CA--C-[N] |==|  0.27333
USER: genes 4 Torsion [C]-N--CA-[CB] |==|  0.20950
USER: genes 5 Torsion [N]-CA--C-[O] |==|  0.96836
USER: genes 6 Torsion [N]-CA--CB-[CG] |==|  0.70649
USER: genes 7 Torsion [CA]-CB--CG-[CD] |==|  0.00077
USER: genes 8 Torsion [CB]-CG--CD-[CE] |==|  0.68506
USER: genes 9 Torsion [CG]-CD--CE-[NZ] |==|  0.42936
USER: genes 10 Torsion [CD]-CE--NZ-[HZ2] |==|  0.44253
USER: genes 11 Torsion [N]-CA--CB-[CG] |==|  0.84081
USER: genes 12 Torsion [CA]-CB--CG-[CD1] |==|  0.61600
USER: genes 13 Torsion [O]-C--CA-[CB] |==|  0.51850
USER: genes 14 Torsion [N]-C--CA-[N] |==|  0.43887
USER: genes 15 Torsion [C]-CA--CB-[CG] |==|  0.82818
USER: genes 16 Torsion [CA]-CB--CG-[OD1] |==|  0.75753
USER: genes 17 Torsion [C]-CA--N-[C] |==|  0.81412
USER: genes 18 Torsion [N]-C--CA-[N] |==|  0.43290
USER: genes 19 Torsion [C]-CA--CB-[OG] |==|  0.14630
USER: genes 20 Torsion [CA]-CB--OG-[HG] |==|  0.81904
ROOT
ATOM      1  C   PRO P 630      23.587  10.006 -15.236  1.00 36.04 LIG 0.24  C 
ATOM      2 O    PRO P 630      24.570   9.884 -14.475  1.00 33.55 LIG-0.27  OA
ATOM      3  N   PHE P 631      22.603   9.114 -15.316  1.00 24.81 LIG-0.35  N 
ATOM      4 H    PHE P 631      21.928   9.203 -15.841  1.00 24.81 LIG 0.16  HD
ENDROOT
BRANCH 3 5
ATOM      5  CA  PHE P 631      22.571   7.906 -14.529  1.00 30.16 LIG 0.18  C 
BRANCH 5 6
ATOM      6  C   PHE P 631      22.207   6.724 -15.467  1.00 46.65 LIG 0.24  C 
ATOM      7  N   LYS P 632      23.224   6.001 -15.902  1.00 37.40 LIG-0.34  N 
ATOM      8 H    LYS P 632      24.042   6.178 -15.705  1.00 37.40 LIG 0.16  HD
ATOM      9 O    PHE P 631      21.005   6.621 -15.747  1.00 54.45 LIG-0.27  OA
BRANCH 7 10
ATOM     10  CA  LYS P 632      23.067   4.807 -16.774  1.00 44.88 LIG 0.18  C 
BRANCH 10 11
ATOM     11  C   LYS P 632      24.282   3.895 -16.658  1.00 45.53 LIG 0.20  C 
ATOM     12 O    LYS P 632      25.323   4.268 -16.083  1.00 61.11 LIG-0.65  OA
ATOM     13 OXT  LYS P 632      24.193   2.747 -17.157  1.00 57.29 LIG-0.65  OA
ENDBRANCH 10 11
BRANCH 10 14
ATOM     14  CB  LYS P 632      22.750   5.227 -18.196  1.00 47.81 LIG 0.04  C 
BRANCH 14 15
ATOM     15  CG  LYS P 632      21.377   5.104 -18.829  1.00 54.84 LIG 0.00  C 
BRANCH 15 16
ATOM     16  CD  LYS P 632      20.429   4.503 -17.772  1.00 63.82 LIG 0.03  C 
BRANCH 16 17
ATOM     17  CE  LYS P 632      19.995   3.111 -18.231  1.00 66.19 LIG 0.23  C 
BRANCH 17 18
ATOM     18  NZ  LYS P 632      19.608   2.227 -17.100  1.00 52.45 LIG-0.08  N 
ATOM     19 HZ2  LYS P 632      19.095   1.565 -17.401  1.00 52.45 LIG 0.27  HD
ATOM     20 HZ1  LYS P 632      19.159   2.699 -16.495  1.00 52.45 LIG 0.27  HD
ATOM     21 HZ3  LYS P 632      20.341   1.886 -16.725  1.00 52.45 LIG 0.27  HD
ENDBRANCH 17 18
ENDBRANCH 16 17
ENDBRANCH 15 16
ENDBRANCH 14 15
ENDBRANCH 10 14
ENDBRANCH 7 10
ENDBRANCH 5 6
BRANCH 5 22
ATOM     22  CB  PHE P 631      21.581   7.854 -13.376  1.00 25.51 LIG 0.07  C 
BRANCH 22 23
ATOM     23  CG  PHE P 631      21.663   8.931 -12.290  1.00 27.58 LIG-0.06  A 
ATOM     24  CD1 PHE P 631      21.532   8.695 -10.922  1.00 30.72 LIG 0.01  A 
ATOM     25  CE1 PHE P 631      21.614   9.741 -10.016  1.00 26.28 LIG 0.00  A 
ATOM     26  CZ  PHE P 631      21.832  11.028 -10.463  1.00 23.54 LIG 0.00  A 
ATOM     27  CE2 PHE P 631      21.963  11.282 -11.820  1.00 23.94 LIG 0.00  A 
ATOM     28  CD2 PHE P 631      21.861  10.237 -12.686  1.00 24.70 LIG 0.01  A 
ENDBRANCH 22 23
ENDBRANCH 5 22
ENDBRANCH 3 5
BRANCH 1 29
ATOM     29  CA  PRO P 630      23.529  11.244 -16.107  1.00 22.29 LIG 0.18  C 
ATOM     30  CB  PRO P 630      22.220  11.371 -16.870  1.00 25.21 LIG 0.04  C 
ATOM     31  CG  PRO P 630      22.508  10.807 -18.229  1.00 30.73 LIG 0.02  C 
ATOM     32  CD  PRO P 630      23.975  11.041 -18.494  1.00 29.29 LIG 0.13  C 
ATOM     33  N   PRO P 630      24.549  11.209 -17.165  1.00 28.31 LIG-0.34  N 
ATOM     34  C   ASP P 629      25.830  11.339 -16.795  1.00 28.38 LIG 0.24  C 
ATOM     35 O    ASP P 629      26.164  11.341 -15.601  1.00 35.14 LIG-0.27  OA
BRANCH 34 36
ATOM     36  CA  ASP P 629      26.866  11.469 -17.888  1.00 31.37 LIG 0.19  C 
BRANCH 36 37
ATOM     37  CB  ASP P 629      27.288  10.107 -18.473  1.00 29.57 LIG 0.15  C 
BRANCH 37 38
ATOM     38  CG  ASP P 629      27.924   9.243 -17.400  1.00 37.10 LIG 0.17  C 
ATOM     39 OD2  ASP P 629      27.217   8.424 -16.770  1.00 43.68 LIG-0.65  OA
ATOM     40 OD1  ASP P 629      29.150   9.352 -17.194  1.00 36.00 LIG-0.65  OA
ENDBRANCH 37 38
ENDBRANCH 36 37
BRANCH 36 41
ATOM     41  N   ASP P 629      28.059  12.099 -17.363  1.00 43.53 LIG-0.34  N 
ATOM     42 H    ASP P 629      28.723  11.553 -17.353  1.00 43.53 LIG 0.16  HD
ATOM     43  C   SER P 628      28.204  13.336 -16.933  1.00 52.75 LIG 0.26  C 
ATOM     44 O    SER P 628      27.329  14.198 -16.934  1.00 74.95 LIG-0.27  OA
BRANCH 43 45
ATOM     45  CA  SER P 628      29.625  13.614 -16.425  1.00 53.54 LIG 0.42  C 
ATOM     46  N   SER P 628      29.981  15.030 -16.476  1.00 68.72 LIG 0.62  N 
BRANCH 45 47
ATOM     47  CB  SER P 628      29.706  13.097 -14.985  1.00 49.52 LIG 0.21  C 
BRANCH 47 48
ATOM     48 OG   SER P 628      29.280  11.745 -14.893  1.00 73.20 LIG-0.40  OA
ATOM     49 HG   SER P 628      28.464  11.695 -15.085  1.00 73.20 LIG 0.21  HD
ENDBRANCH 47 48
ENDBRANCH 45 47
ENDBRANCH 43 45
ENDBRANCH 36 41
ENDBRANCH 34 36
ENDBRANCH 1 29
TORSDOF 19
ENDMDL
MODEL 11
USER: ADFR SOLUTION from run 6
USER: SCORE 14.521503 LL:  -3.590 LR: -11.502 RR:   0.000 FEB:  -5.834
USER: RMSD 3.292046
USER: SEED 251738
USER: STATUS searching
USER: GENES 21
USER: genes 0 Translation |==|  0.48749 0.44686 0.55773
USER: genes 1 Rotation |==|  0.41491 0.56188 0.49499 0.98878
USER: genes 2 Torsion [C]-N--CA-[C] |==|  0.72593
USER: genes 3 Torsion [N]-CA--C-[N] |==|  0.22804
USER: genes 4 Torsion [C]-N--CA-[CB] |==|  0.16326
USER: genes 5 Torsion [N]-CA--C-[O] |==|  0.89487
USER: genes 6 Torsion [N]-CA--CB-[CG] |==|  0.67982
USER: genes 7 Torsion [CA]-CB--CG-[CD] |==|  0.03099
USER: genes 8 Torsion [CB]-CG--CD-[CE] |==|  0.58951
USER: genes 9 Torsion [CG]-CD--CE-[NZ] |==|  0.43352
USER: genes 10 Torsion [CD]-CE--NZ-[HZ2] |==|  0.09829
USER: genes 11 Torsion [N]-CA--CB-[CG] |==|  0.82971
USER: genes 12 Torsion [CA]-CB--CG-[CD1] |==|  0.67868
USER: genes 13 Torsion [O]-C--CA-[CB] |==|  0.80525
USER: genes 14 Torsion [N]-C--CA-[N] |==|  0.27285
USER: genes 15 Torsion [C]-CA--CB-[CG] |==|  0.26734
USER: genes 16 Torsion [CA]-CB--CG-[OD1] |==|  0.12514
USER: genes 17 Torsion [C]-CA--N-[C] |==|  0.75981
USER: genes 18 Torsion [N]-C--CA-[N] |==|  0.47600
USER: genes 19 Torsion [C]-CA--CB-[OG] |==|  0.22890
USER: genes 20 Torsion [CA]-CB--OG-[HG] |==|  0.72929
ROOT
ATOM      1  C   PRO P 630      24.769   8.906 -15.311  1.00 36.04 LIG 0.24  C 
ATOM      2 O    PRO P 630      25.605   8.151 -14.771  1.00 33.55 LIG-0.27  OA
ATOM      3  N   PHE P 631      23.455   8.708 -15.257  1.00 24.81 LIG-0.35  N 
ATOM      4 H    PHE P 631      22.884   9.232 -15.630  1.00 24.81 LIG 0.16  HD
ENDROOT
BRANCH 3 5
ATOM      5  CA  PHE P 631      22.855   7.593 -14.567  1.00 30.16 LIG 0.18  C 
BRANCH 5 6
ATOM      6  C   PHE P 631      22.521   6.495 -15.613  1.00 46.65 LIG 0.24  C 
ATOM      7  N   LYS P 632      23.525   5.709 -15.961  1.00 37.40 LIG-0.34  N 
ATOM      8 H    LYS P 632      24.322   5.803 -15.654  1.00 37.40 LIG 0.16  HD
ATOM      9 O    PHE P 631      21.361   6.513 -16.046  1.00 54.45 LIG-0.27  OA
BRANCH 7 10
ATOM     10  CA  LYS P 632      23.385   4.578 -16.917  1.00 44.88 LIG 0.18  C 
BRANCH 10 11
ATOM     11  C   LYS P 632      24.682   3.783 -16.999  1.00 45.53 LIG 0.20  C 
ATOM     12 O    LYS P 632      25.795   4.345 -16.959  1.00 61.11 LIG-0.65  OA
ATOM     13 OXT  LYS P 632      24.591   2.536 -17.100  1.00 57.29 LIG-0.65  OA
ENDBRANCH 10 11
BRANCH 10 14
ATOM     14  CB  LYS P 632      22.887   5.077 -18.259  1.00 47.81 LIG 0.04  C 
BRANCH 14 15
ATOM     15  CG  LYS P 632      21.547   4.697 -18.859  1.00 54.84 LIG 0.00  C 
BRANCH 15 16
ATOM     16  CD  LYS P 632      20.729   3.990 -17.760  1.00 63.82 LIG 0.03  C 
BRANCH 16 17
ATOM     17  CE  LYS P 632      19.829   2.940 -18.412  1.00 66.19 LIG 0.23  C 
BRANCH 17 18
ATOM     18  NZ  LYS P 632      19.442   1.852 -17.475  1.00 52.45 LIG-0.08  N 
ATOM     19 HZ2  LYS P 632      19.334   2.187 -16.658  1.00 52.45 LIG 0.27  HD
ATOM     20 HZ1  LYS P 632      20.081   1.233 -17.460  1.00 52.45 LIG 0.27  HD
ATOM     21 HZ3  LYS P 632      18.678   1.483 -17.747  1.00 52.45 LIG 0.27  HD
ENDBRANCH 17 18
ENDBRANCH 16 17
ENDBRANCH 15 16
ENDBRANCH 14 15
ENDBRANCH 10 14
ENDBRANCH 7 10
ENDBRANCH 5 6
BRANCH 5 22
ATOM     22  CB  PHE P 631      21.567   7.858 -13.805  1.00 25.51 LIG 0.07  C 
BRANCH 22 23
ATOM     23  CG  PHE P 631      21.592   8.868 -12.652  1.00 27.58 LIG-0.06  A 
ATOM     24  CD1 PHE P 631      21.356   8.556 -11.315  1.00 30.72 LIG 0.01  A 
ATOM     25  CE1 PHE P 631      21.394   9.546 -10.343  1.00 26.28 LIG 0.00  A 
ATOM     26  CZ  PHE P 631      21.671  10.850 -10.695  1.00 23.54 LIG 0.00  A 
ATOM     27  CE2 PHE P 631      21.906  11.179 -12.022  1.00 23.94 LIG 0.00  A 
ATOM     28  CD2 PHE P 631      21.846  10.190 -12.954  1.00 24.70 LIG 0.01  A 
ENDBRANCH 22 23
ENDBRANCH 5 22
ENDBRANCH 3 5
BRANCH 1 29
ATOM     29  CA  PRO P 630      25.301  10.109 -16.063  1.00 22.29 LIG 0.18  C 
ATOM     30  CB  PRO P 630      25.891  11.169 -15.146  1.00 25.21 LIG 0.04  C 
ATOM     31  CG  PRO P 630      24.791  12.167 -14.949  1.00 30.73 LIG 0.02  C 
ATOM     32  CD  PRO P 630      23.940  12.127 -16.195  1.00 29.29 LIG 0.13  C 
ATOM     33  N   PRO P 630      24.229  10.820 -16.774  1.00 28.31 LIG-0.34  N 
ATOM     34  C   ASP P 629      23.674  10.210 -17.829  1.00 28.38 LIG 0.24  C 
ATOM     35 O    ASP P 629      23.944   9.034 -18.115  1.00 35.14 LIG-0.27  OA
BRANCH 34 36
ATOM     36  CA  ASP P 629      22.690  11.001 -18.660  1.00 31.37 LIG 0.19  C 
BRANCH 36 37
ATOM     37  CB  ASP P 629      21.508  10.146 -19.158  1.00 29.57 LIG 0.15  C 
BRANCH 37 38
ATOM     38  CG  ASP P 629      20.316  10.299 -18.232  1.00 37.10 LIG 0.17  C 
ATOM     39 OD2  ASP P 629      19.697   9.279 -17.851  1.00 43.68 LIG-0.65  OA
ATOM     40 OD1  ASP P 629      20.000  11.444 -17.849  1.00 36.00 LIG-0.65  OA
ENDBRANCH 37 38
ENDBRANCH 36 37
BRANCH 36 41
ATOM     41  N   ASP P 629      23.354  11.539 -19.829  1.00 43.53 LIG-0.34  N 
ATOM     42 H    ASP P 629      23.269  11.014 -20.505  1.00 43.53 LIG 0.16  HD
ATOM     43  C   SER P 628      24.021  12.669 -19.938  1.00 52.75 LIG 0.26  C 
ATOM     44 O    SER P 628      24.172  13.497 -19.043  1.00 74.95 LIG-0.27  OA
BRANCH 43 45
ATOM     45  CA  SER P 628      24.603  12.870 -21.343  1.00 53.54 LIG 0.42  C 
ATOM     46  N   SER P 628      25.172  14.202 -21.540  1.00 68.72 LIG 0.62  N 
BRANCH 45 47
ATOM     47  CB  SER P 628      25.678  11.798 -21.552  1.00 49.52 LIG 0.21  C 
BRANCH 47 48
ATOM     48 OG   SER P 628      25.107  10.560 -21.953  1.00 73.20 LIG-0.40  OA
ATOM     49 HG   SER P 628      25.021  10.061 -21.283  1.00 73.20 LIG 0.21  HD
ENDBRANCH 47 48
ENDBRANCH 45 47
ENDBRANCH 43 45
ENDBRANCH 36 41
ENDBRANCH 34 36
ENDBRANCH 1 29
TORSDOF 19
ENDMDL
MODEL 12
USER: ADFR SOLUTION from run 109
USER: SCORE 14.537665 LL:  -4.139 LR: -11.319 RR:   0.000 FEB:  -5.652
USER: RMSD 3.535190
USER: SEED 108
USER: STATUS no improvement in best in 18 clusters for 5 generations
USER: GENES 21
USER: genes 0 Translation |==|  0.50568 0.44873 0.56394
USER: genes 1 Rotation |==|  0.44556 0.58357 0.46353 0.98859
USER: genes 2 Torsion [C]-N--CA-[C] |==|  0.74541
USER: genes 3 Torsion [N]-CA--C-[N] |==|  0.53889
USER: genes 4 Torsion [C]-N--CA-[CB] |==|  0.80399
USER: genes 5 Torsion [N]-CA--C-[O] |==|  0.53840
USER: genes 6 Torsion [N]-CA--CB-[CG] |==|  0.66892
USER: genes 7 Torsion [CA]-CB--CG-[CD] |==|  0.94856
USER: genes 8 Torsion [CB]-CG--CD-[CE] |==|  0.74517
USER: genes 9 Torsion [CG]-CD--CE-[NZ] |==|  0.31047
USER: genes 10 Torsion [CD]-CE--NZ-[HZ2] |==|  0.06705
USER: genes 11 Torsion [N]-CA--CB-[CG] |==|  0.84045
USER: genes 12 Torsion [CA]-CB--CG-[CD1] |==|  0.70320
USER: genes 13 Torsion [O]-C--CA-[CB] |==|  0.84561
USER: genes 14 Torsion [N]-C--CA-[N] |==|  0.17156
USER: genes 15 Torsion [C]-CA--CB-[CG] |==|  0.22618
USER: genes 16 Torsion [CA]-CB--CG-[OD1] |==|  0.82052
USER: genes 17 Torsion [C]-CA--N-[C] |==|  0.63097
USER: genes 18 Torsion [N]-C--CA-[N] |==|  0.44206
USER: genes 19 Torsion [C]-CA--CB-[OG] |==|  0.18860
USER: genes 20 Torsion [CA]-CB--OG-[HG] |==|  0.62689
ROOT
ATOM      1  C   PRO P 630      25.055   8.948 -15.199  1.00 36.04 LIG 0.24  C 
ATOM      2 O    PRO P 630      25.792   8.023 -14.797  1.00 33.55 LIG-0.27  OA
ATOM      3  N   PHE P 631      23.731   8.944 -15.074  1.00 24.81 LIG-0.35  N 
ATOM      4 H    PHE P 631      23.229   9.584 -15.351  1.00 24.81 LIG 0.16  HD
ENDROOT
BRANCH 3 5
ATOM      5  CA  PHE P 631      23.004   7.862 -14.458  1.00 30.16 LIG 0.18  C 
BRANCH 5 6
ATOM      6  C   PHE P 631      22.600   6.853 -15.567  1.00 46.65 LIG 0.24  C 
ATOM      7  N   LYS P 632      21.689   5.958 -15.225  1.00 37.40 LIG-0.34  N 
ATOM      8 H    LYS P 632      21.352   5.910 -14.436  1.00 37.40 LIG 0.16  HD
ATOM      9 O    PHE P 631      23.217   6.966 -16.635  1.00 54.45 LIG-0.27  OA
BRANCH 7 10
ATOM     10  CA  LYS P 632      21.151   4.938 -16.165  1.00 44.88 LIG 0.18  C 
BRANCH 10 11
ATOM     11  C   LYS P 632      22.280   4.102 -16.753  1.00 45.53 LIG 0.20  C 
ATOM     12 O    LYS P 632      22.098   3.367 -17.744  1.00 61.11 LIG-0.65  OA
ATOM     13 OXT  LYS P 632      23.407   4.187 -16.208  1.00 57.29 LIG-0.65  OA
ENDBRANCH 10 11
BRANCH 10 14
ATOM     14  CB  LYS P 632      20.265   5.592 -17.207  1.00 47.81 LIG 0.04  C 
BRANCH 14 15
ATOM     15  CG  LYS P 632      18.796   5.269 -17.393  1.00 54.84 LIG 0.00  C 
BRANCH 15 16
ATOM     16  CD  LYS P 632      18.528   3.910 -16.714  1.00 63.82 LIG 0.03  C 
BRANCH 16 17
ATOM     17  CE  LYS P 632      18.706   2.798 -17.748  1.00 66.19 LIG 0.23  C 
BRANCH 17 18
ATOM     18  NZ  LYS P 632      19.892   1.943 -17.475  1.00 52.45 LIG-0.08  N 
ATOM     19 HZ2  LYS P 632      20.095   1.983 -16.609  1.00 52.45 LIG 0.27  HD
ATOM     20 HZ1  LYS P 632      20.583   2.233 -17.955  1.00 52.45 LIG 0.27  HD
ATOM     21 HZ3  LYS P 632      19.709   1.101 -17.698  1.00 52.45 LIG 0.27  HD
ENDBRANCH 17 18
ENDBRANCH 16 17
ENDBRANCH 15 16
ENDBRANCH 14 15
ENDBRANCH 10 14
ENDBRANCH 7 10
ENDBRANCH 5 6
BRANCH 5 22
ATOM     22  CB  PHE P 631      21.722   8.216 -13.720  1.00 25.51 LIG 0.07  C 
BRANCH 22 23
ATOM     23  CG  PHE P 631      21.793   9.232 -12.575  1.00 27.58 LIG-0.06  A 
ATOM     24  CD1 PHE P 631      21.687   8.916 -11.222  1.00 30.72 LIG 0.01  A 
ATOM     25  CE1 PHE P 631      21.755   9.912 -10.259  1.00 26.28 LIG 0.00  A 
ATOM     26  CZ  PHE P 631      21.935  11.227 -10.635  1.00 23.54 LIG 0.00  A 
ATOM     27  CE2 PHE P 631      22.040  11.560 -11.977  1.00 23.94 LIG 0.00  A 
ATOM     28  CD2 PHE P 631      21.952  10.563 -12.899  1.00 24.70 LIG 0.01  A 
ENDBRANCH 22 23
ENDBRANCH 5 22
ENDBRANCH 3 5
BRANCH 1 29
ATOM     29  CA  PRO P 630      25.727  10.133 -15.863  1.00 22.29 LIG 0.18  C 
ATOM     30  CB  PRO P 630      26.791  10.778 -14.989  1.00 25.21 LIG 0.04  C 
ATOM     31  CG  PRO P 630      26.102  11.933 -14.328  1.00 30.73 LIG 0.02  C 
ATOM     32  CD  PRO P 630      25.016  12.388 -15.271  1.00 29.29 LIG 0.13  C 
ATOM     33  N   PRO P 630      24.774  11.224 -16.114  1.00 28.31 LIG-0.34  N 
ATOM     34  C   ASP P 629      23.841  11.027 -17.055  1.00 28.38 LIG 0.24  C 
ATOM     35 O    ASP P 629      23.686   9.921 -17.594  1.00 35.14 LIG-0.27  OA
BRANCH 34 36
ATOM     36  CA  ASP P 629      22.965  12.200 -17.433  1.00 31.37 LIG 0.19  C 
BRANCH 36 37
ATOM     37  CB  ASP P 629      21.912  11.838 -18.499  1.00 29.57 LIG 0.15  C 
BRANCH 37 38
ATOM     38  CG  ASP P 629      20.716  11.164 -17.854  1.00 37.10 LIG 0.17  C 
ATOM     39 OD2  ASP P 629      19.594  11.716 -17.912  1.00 43.68 LIG-0.65  OA
ATOM     40 OD1  ASP P 629      20.878  10.056 -17.305  1.00 36.00 LIG-0.65  OA
ENDBRANCH 37 38
ENDBRANCH 36 37
BRANCH 36 41
ATOM     41  N   ASP P 629      23.779  13.266 -17.976  1.00 43.53 LIG-0.34  N 
ATOM     42 H    ASP P 629      24.334  12.968 -18.561  1.00 43.53 LIG 0.16  HD
ATOM     43  C   SER P 628      23.747  14.548 -17.676  1.00 52.75 LIG 0.26  C 
ATOM     44 O    SER P 628      22.975  15.075 -16.880  1.00 74.95 LIG-0.27  OA
BRANCH 43 45
ATOM     45  CA  SER P 628      24.795  15.356 -18.454  1.00 53.54 LIG 0.42  C 
ATOM     46  N   SER P 628      24.480  16.781 -18.523  1.00 68.72 LIG 0.62  N 
BRANCH 45 47
ATOM     47  CB  SER P 628      26.145  15.143 -17.762  1.00 49.52 LIG 0.21  C 
BRANCH 47 48
ATOM     48 OG   SER P 628      26.599  13.805 -17.909  1.00 73.20 LIG-0.40  OA
ATOM     49 HG   SER P 628      26.876  13.519 -17.169  1.00 73.20 LIG 0.21  HD
ENDBRANCH 47 48
ENDBRANCH 45 47
ENDBRANCH 43 45
ENDBRANCH 36 41
ENDBRANCH 34 36
ENDBRANCH 1 29
TORSDOF 19
ENDMDL
MODEL 13
USER: ADFR SOLUTION from run 89
USER: SCORE 14.982271 LL:  -4.214 LR: -11.311 RR:   0.000 FEB:  -5.643
USER: RMSD 3.779737
USER: SEED 88
USER: STATUS no improvement in best in 16 clusters for 5 generations
USER: GENES 21
USER: genes 0 Translation |==|  0.48780 0.44554 0.57424
USER: genes 1 Rotation |==|  0.43704 0.53841 0.49233 0.99447
USER: genes 2 Torsion [C]-N--CA-[C] |==|  0.68136
USER: genes 3 Torsion [N]-CA--C-[N] |==|  0.80708
USER: genes 4 Torsion [C]-N--CA-[CB] |==|  0.24483
USER: genes 5 Torsion [N]-CA--C-[O] |==|  0.82128
USER: genes 6 Torsion [N]-CA--CB-[CG] |==|  0.92878
USER: genes 7 Torsion [CA]-CB--CG-[CD] |==|  0.58127
USER: genes 8 Torsion [CB]-CG--CD-[CE] |==|  0.08505
USER: genes 9 Torsion [CG]-CD--CE-[NZ] |==|  0.32028
USER: genes 10 Torsion [CD]-CE--NZ-[HZ2] |==|  0.27289
USER: genes 11 Torsion [N]-CA--CB-[CG] |==|  0.90539
USER: genes 12 Torsion [CA]-CB--CG-[CD1] |==|  0.15345
USER: genes 13 Torsion [O]-C--CA-[CB] |==|  0.78110
USER: genes 14 Torsion [N]-C--CA-[N] |==|  0.38564
USER: genes 15 Torsion [C]-CA--CB-[CG] |==|  0.19399
USER: genes 16 Torsion [CA]-CB--CG-[OD1] |==|  0.78685
USER: genes 17 Torsion [C]-CA--N-[C] |==|  0.81379
USER: genes 18 Torsion [N]-C--CA-[N] |==|  0.45987
USER: genes 19 Torsion [C]-CA--CB-[OG] |==|  0.15799
USER: genes 20 Torsion [CA]-CB--OG-[HG] |==|  0.78929
ROOT
ATOM      1  C   PRO P 630      24.774   8.877 -15.014  1.00 36.04 LIG 0.24  C 
ATOM      2 O    PRO P 630      25.553   8.069 -14.464  1.00 33.55 LIG-0.27  OA
ATOM      3  N   PHE P 631      23.461   8.687 -15.105  1.00 24.81 LIG-0.35  N 
ATOM      4 H    PHE P 631      22.929   9.247 -15.484  1.00 24.81 LIG 0.16  HD
ENDROOT
BRANCH 3 5
ATOM      5  CA  PHE P 631      22.796   7.522 -14.577  1.00 30.16 LIG 0.18  C 
BRANCH 5 6
ATOM      6  C   PHE P 631      22.203   6.719 -15.767  1.00 46.65 LIG 0.24  C 
ATOM      7  N   LYS P 632      21.184   7.285 -16.391  1.00 37.40 LIG-0.34  N 
ATOM      8 H    LYS P 632      20.846   8.037 -16.149  1.00 37.40 LIG 0.16  HD
ATOM      9 O    PHE P 631      22.717   5.610 -15.965  1.00 54.45 LIG-0.27  OA
BRANCH 7 10
ATOM     10  CA  LYS P 632      20.514   6.685 -17.575  1.00 44.88 LIG 0.18  C 
BRANCH 10 11
ATOM     11  C   LYS P 632      20.065   7.772 -18.544  1.00 45.53 LIG 0.20  C 
ATOM     12 O    LYS P 632      19.199   8.611 -18.225  1.00 61.11 LIG-0.65  OA
ATOM     13 OXT  LYS P 632      20.605   7.797 -19.676  1.00 57.29 LIG-0.65  OA
ENDBRANCH 10 11
BRANCH 10 14
ATOM     14  CB  LYS P 632      19.400   5.754 -17.140  1.00 47.81 LIG 0.04  C 
BRANCH 14 15
ATOM     15  CG  LYS P 632      19.363   5.046 -15.799  1.00 54.84 LIG 0.00  C 
BRANCH 15 16
ATOM     16  CD  LYS P 632      18.591   3.726 -15.991  1.00 63.82 LIG 0.03  C 
BRANCH 16 17
ATOM     17  CE  LYS P 632      18.807   3.229 -17.420  1.00 66.19 LIG 0.23  C 
BRANCH 17 18
ATOM     18  NZ  LYS P 632      19.547   1.940 -17.475  1.00 52.45 LIG-0.08  N 
ATOM     19 HZ2  LYS P 632      18.969   1.269 -17.571  1.00 52.45 LIG 0.27  HD
ATOM     20 HZ1  LYS P 632      20.007   1.829 -16.721  1.00 52.45 LIG 0.27  HD
ATOM     21 HZ3  LYS P 632      20.108   1.949 -18.166  1.00 52.45 LIG 0.27  HD
ENDBRANCH 17 18
ENDBRANCH 16 17
ENDBRANCH 15 16
ENDBRANCH 14 15
ENDBRANCH 10 14
ENDBRANCH 7 10
ENDBRANCH 5 6
BRANCH 5 22
ATOM     22  CB  PHE P 631      21.647   7.755 -13.609  1.00 25.51 LIG 0.07  C 
BRANCH 22 23
ATOM     23  CG  PHE P 631      21.723   8.954 -12.658  1.00 27.58 LIG-0.06  A 
ATOM     24  CD1 PHE P 631      21.909  10.276 -13.057  1.00 30.72 LIG 0.01  A 
ATOM     25  CE1 PHE P 631      21.971  11.294 -12.117  1.00 26.28 LIG 0.00  A 
ATOM     26  CZ  PHE P 631      21.845  11.004 -10.774  1.00 23.54 LIG 0.00  A 
ATOM     27  CE2 PHE P 631      21.661   9.694 -10.359  1.00 23.94 LIG 0.00  A 
ATOM     28  CD2 PHE P 631      21.621   8.715 -11.304  1.00 24.70 LIG 0.01  A 
ENDBRANCH 22 23
ENDBRANCH 5 22
ENDBRANCH 3 5
BRANCH 1 29
ATOM     29  CA  PRO P 630      25.378  10.136 -15.602  1.00 22.29 LIG 0.18  C 
ATOM     30  CB  PRO P 630      25.683  11.193 -14.552  1.00 25.21 LIG 0.04  C 
ATOM     31  CG  PRO P 630      24.504  12.117 -14.578  1.00 30.73 LIG 0.02  C 
ATOM     32  CD  PRO P 630      23.950  12.074 -15.981  1.00 29.29 LIG 0.13  C 
ATOM     33  N   PRO P 630      24.442  10.809 -16.514  1.00 28.31 LIG-0.34  N 
ATOM     34  C   ASP P 629      24.172  10.208 -17.679  1.00 28.38 LIG 0.24  C 
ATOM     35 O    ASP P 629      24.573   9.061 -17.926  1.00 35.14 LIG-0.27  OA
BRANCH 34 36
ATOM     36  CA  ASP P 629      23.343  10.970 -18.687  1.00 31.37 LIG 0.19  C 
BRANCH 36 37
ATOM     37  CB  ASP P 629      21.871  10.512 -18.718  1.00 29.57 LIG 0.15  C 
BRANCH 37 38
ATOM     38  CG  ASP P 629      21.160  10.931 -17.445  1.00 37.10 LIG 0.17  C 
ATOM     39 OD2  ASP P 629      20.362  11.895 -17.475  1.00 43.68 LIG-0.65  OA
ATOM     40 OD1  ASP P 629      21.369  10.280 -16.401  1.00 36.00 LIG-0.65  OA
ENDBRANCH 37 38
ENDBRANCH 36 37
BRANCH 36 41
ATOM     41  N   ASP P 629      23.882  10.774 -20.017  1.00 43.53 LIG-0.34  N 
ATOM     42 H    ASP P 629      23.340  10.325 -20.510  1.00 43.53 LIG 0.16  HD
ATOM     43  C   SER P 628      25.036  11.190 -20.496  1.00 52.75 LIG 0.26  C 
ATOM     44 O    SER P 628      25.863  11.861 -19.884  1.00 74.95 LIG-0.27  OA
BRANCH 43 45
ATOM     45  CA  SER P 628      25.254  10.752 -21.951  1.00 53.54 LIG 0.42  C 
ATOM     46  N   SER P 628      26.348  11.470 -22.603  1.00 68.72 LIG 0.62  N 
BRANCH 45 47
ATOM     47  CB  SER P 628      25.538   9.247 -21.940  1.00 49.52 LIG 0.21  C 
BRANCH 47 48
ATOM     48 OG   SER P 628      24.486   8.524 -21.318  1.00 73.20 LIG-0.40  OA
ATOM     49 HG   SER P 628      24.535   8.618 -20.484  1.00 73.20 LIG 0.21  HD
ENDBRANCH 47 48
ENDBRANCH 45 47
ENDBRANCH 43 45
ENDBRANCH 36 41
ENDBRANCH 34 36
ENDBRANCH 1 29
TORSDOF 19
ENDMDL
MODEL 14
USER: ADFR SOLUTION from run 105
USER: SCORE 13.406075 LL:  -2.361 LR: -11.301 RR:   0.000 FEB:  -5.634
USER: RMSD 3.739387
USER: SEED 104
USER: STATUS no improvement in best in 17 clusters for 5 generations
USER: GENES 21
USER: genes 0 Translation |==|  0.44194 0.49353 0.57874
USER: genes 1 Rotation |==|  0.45473 0.53686 0.57015 0.99160
USER: genes 2 Torsion [C]-N--CA-[C] |==|  0.66258
USER: genes 3 Torsion [N]-CA--C-[N] |==|  0.38376
USER: genes 4 Torsion [C]-N--CA-[CB] |==|  0.85465
USER: genes 5 Torsion [N]-CA--C-[O] |==|  0.59765
USER: genes 6 Torsion [N]-CA--CB-[CG] |==|  0.88922
USER: genes 7 Torsion [CA]-CB--CG-[CD] |==|  0.63773
USER: genes 8 Torsion [CB]-CG--CD-[CE] |==|  0.97603
USER: genes 9 Torsion [CG]-CD--CE-[NZ] |==|  0.29562
USER: genes 10 Torsion [CD]-CE--NZ-[HZ2] |==|  0.95542
USER: genes 11 Torsion [N]-CA--CB-[CG] |==|  0.89275
USER: genes 12 Torsion [CA]-CB--CG-[CD1] |==|  0.59163
USER: genes 13 Torsion [O]-C--CA-[CB] |==|  0.50519
USER: genes 14 Torsion [N]-C--CA-[N] |==|  0.14431
USER: genes 15 Torsion [C]-CA--CB-[CG] |==|  0.18870
USER: genes 16 Torsion [CA]-CB--CG-[OD1] |==|  0.03523
USER: genes 17 Torsion [C]-CA--N-[C] |==|  0.14819
USER: genes 18 Torsion [N]-C--CA-[N] |==|  0.80651
USER: genes 19 Torsion [C]-CA--CB-[OG] |==|  0.18890
USER: genes 20 Torsion [CA]-CB--OG-[HG] |==|  0.41725
ROOT
ATOM      1  C   PRO P 630      24.051   9.956 -14.933  1.00 36.04 LIG 0.24  C 
ATOM      2 O    PRO P 630      25.060   9.376 -14.478  1.00 33.55 LIG-0.27  OA
ATOM      3  N   PHE P 631      22.852   9.389 -15.018  1.00 24.81 LIG-0.35  N 
ATOM      4 H    PHE P 631      22.160   9.794 -15.331  1.00 24.81 LIG 0.16  HD
ENDROOT
BRANCH 3 5
ATOM      5  CA  PHE P 631      22.589   8.037 -14.592  1.00 30.16 LIG 0.18  C 
BRANCH 5 6
ATOM      6  C   PHE P 631      22.042   7.241 -15.808  1.00 46.65 LIG 0.24  C 
ATOM      7  N   LYS P 632      22.513   6.015 -15.951  1.00 37.40 LIG-0.34  N 
ATOM      8 H    LYS P 632      23.103   5.676 -15.426  1.00 37.40 LIG 0.16  HD
ATOM      9 O    PHE P 631      21.262   7.865 -16.541  1.00 54.45 LIG-0.27  OA
BRANCH 7 10
ATOM     10  CA  LYS P 632      22.077   5.091 -17.032  1.00 44.88 LIG 0.18  C 
BRANCH 10 11
ATOM     11  C   LYS P 632      22.684   5.502 -18.367  1.00 45.53 LIG 0.20  C 
ATOM     12 O    LYS P 632      22.056   5.371 -19.436  1.00 61.11 LIG-0.65  OA
ATOM     13 OXT  LYS P 632      23.841   5.989 -18.351  1.00 57.29 LIG-0.65  OA
ENDBRANCH 10 11
BRANCH 10 14
ATOM     14  CB  LYS P 632      20.565   4.978 -17.055  1.00 47.81 LIG 0.04  C 
BRANCH 14 15
ATOM     15  CG  LYS P 632      19.702   4.909 -15.810  1.00 54.84 LIG 0.00  C 
BRANCH 15 16
ATOM     16  CD  LYS P 632      18.740   3.716 -15.977  1.00 63.82 LIG 0.03  C 
BRANCH 16 17
ATOM     17  CE  LYS P 632      18.857   3.181 -17.404  1.00 66.19 LIG 0.23  C 
BRANCH 17 18
ATOM     18  NZ  LYS P 632      19.588   1.887 -17.475  1.00 52.45 LIG-0.08  N 
ATOM     19 HZ2  LYS P 632      20.033   1.755 -16.716  1.00 52.45 LIG 0.27  HD
ATOM     20 HZ1  LYS P 632      20.161   1.908 -18.156  1.00 52.45 LIG 0.27  HD
ATOM     21 HZ3  LYS P 632      19.006   1.224 -17.598  1.00 52.45 LIG 0.27  HD
ENDBRANCH 17 18
ENDBRANCH 16 17
ENDBRANCH 15 16
ENDBRANCH 14 15
ENDBRANCH 10 14
ENDBRANCH 7 10
ENDBRANCH 5 6
BRANCH 5 22
ATOM     22  CB  PHE P 631      21.580   7.844 -13.471  1.00 25.51 LIG 0.07  C 
BRANCH 22 23
ATOM     23  CG  PHE P 631      21.568   8.850 -12.315  1.00 27.58 LIG-0.06  A 
ATOM     24  CD1 PHE P 631      21.252   8.541 -10.993  1.00 30.72 LIG 0.01  A 
ATOM     25  CE1 PHE P 631      21.262   9.526 -10.018  1.00 26.28 LIG 0.00  A 
ATOM     26  CZ  PHE P 631      21.591  10.825 -10.349  1.00 23.54 LIG 0.00  A 
ATOM     27  CE2 PHE P 631      21.906  11.151 -11.660  1.00 23.94 LIG 0.00  A 
ATOM     28  CD2 PHE P 631      21.871  10.165 -12.598  1.00 24.70 LIG 0.01  A 
ENDBRANCH 22 23
ENDBRANCH 5 22
ENDBRANCH 3 5
BRANCH 1 29
ATOM     29  CA  PRO P 630      24.225  11.385 -15.408  1.00 22.29 LIG 0.18  C 
ATOM     30  CB  PRO P 630      22.928  12.008 -15.899  1.00 25.21 LIG 0.04  C 
ATOM     31  CG  PRO P 630      22.955  11.836 -17.388  1.00 30.73 LIG 0.02  C 
ATOM     32  CD  PRO P 630      24.407  11.828 -17.798  1.00 29.29 LIG 0.13  C 
ATOM     33  N   PRO P 630      25.114  11.461 -16.577  1.00 28.31 LIG-0.34  N 
ATOM     34  C   ASP P 629      26.414  11.202 -16.385  1.00 28.38 LIG 0.24  C 
ATOM     35 O    ASP P 629      26.836  10.772 -15.302  1.00 35.14 LIG-0.27  OA
BRANCH 34 36
ATOM     36  CA  ASP P 629      27.355  11.439 -17.543  1.00 31.37 LIG 0.19  C 
BRANCH 36 37
ATOM     37  CB  ASP P 629      28.838  11.306 -17.143  1.00 29.57 LIG 0.15  C 
BRANCH 37 38
ATOM     38  CG  ASP P 629      29.166   9.866 -16.794  1.00 37.10 LIG 0.17  C 
ATOM     39 OD2  ASP P 629      30.234   9.607 -16.195  1.00 43.68 LIG-0.65  OA
ATOM     40 OD1  ASP P 629      28.343   8.977 -17.092  1.00 36.00 LIG-0.65  OA
ENDBRANCH 37 38
ENDBRANCH 36 37
BRANCH 36 41
ATOM     41  N   ASP P 629      27.168  12.777 -18.064  1.00 43.53 LIG-0.34  N 
ATOM     42 H    ASP P 629      27.022  12.764 -18.911  1.00 43.53 LIG 0.16  HD
ATOM     43  C   SER P 628      27.200  13.918 -17.407  1.00 52.75 LIG 0.26  C 
ATOM     44 O    SER P 628      27.372  14.039 -16.197  1.00 74.95 LIG-0.27  OA
BRANCH 43 45
ATOM     45  CA  SER P 628      26.983  15.127 -18.327  1.00 53.54 LIG 0.42  C 
ATOM     46  N   SER P 628      28.107  15.365 -19.230  1.00 68.72 LIG 0.62  N 
BRANCH 45 47
ATOM     47  CB  SER P 628      25.703  14.869 -19.128  1.00 49.52 LIG 0.21  C 
BRANCH 47 48
ATOM     48 OG   SER P 628      24.553  14.894 -18.294  1.00 73.20 LIG-0.40  OA
ATOM     49 HG   SER P 628      23.890  15.156 -18.738  1.00 73.20 LIG 0.21  HD
ENDBRANCH 47 48
ENDBRANCH 45 47
ENDBRANCH 43 45
ENDBRANCH 36 41
ENDBRANCH 34 36
ENDBRANCH 1 29
TORSDOF 19
ENDMDL
MODEL 15
USER: ADFR SOLUTION from run 23
USER: SCORE 14.190895 LL:  -3.587 LR: -11.286 RR:   0.000 FEB:  -5.618
USER: RMSD 3.285706
USER: SEED 22
USER: STATUS no improvement in best in 16 clusters for 5 generations
USER: GENES 21
USER: genes 0 Translation |==|  0.50367 0.43783 0.57154
USER: genes 1 Rotation |==|  0.40464 0.52863 0.47627 0.98941
USER: genes 2 Torsion [C]-N--CA-[C] |==|  0.71112
USER: genes 3 Torsion [N]-CA--C-[N] |==|  0.20862
USER: genes 4 Torsion [C]-N--CA-[CB] |==|  0.16931
USER: genes 5 Torsion [N]-CA--C-[O] |==|  0.88279
USER: genes 6 Torsion [N]-CA--CB-[CG] |==|  0.66792
USER: genes 7 Torsion [CA]-CB--CG-[CD] |==|  0.04109
USER: genes 8 Torsion [CB]-CG--CD-[CE] |==|  0.64660
USER: genes 9 Torsion [CG]-CD--CE-[NZ] |==|  0.49471
USER: genes 10 Torsion [CD]-CE--NZ-[HZ2] |==|  0.25790
USER: genes 11 Torsion [N]-CA--CB-[CG] |==|  0.82667
USER: genes 12 Torsion [CA]-CB--CG-[CD1] |==|  0.70971
USER: genes 13 Torsion [O]-C--CA-[CB] |==|  0.99142
USER: genes 14 Torsion [N]-C--CA-[N] |==|  0.24940
USER: genes 15 Torsion [C]-CA--CB-[CG] |==|  0.75549
USER: genes 16 Torsion [CA]-CB--CG-[OD1] |==|  0.75386
USER: genes 17 Torsion [C]-CA--N-[C] |==|  0.75616
USER: genes 18 Torsion [N]-C--CA-[N] |==|  0.90881
USER: genes 19 Torsion [C]-CA--CB-[OG] |==|  0.79608
USER: genes 20 Torsion [CA]-CB--OG-[HG] |==|  0.10866
ROOT
ATOM      1  C   PRO P 630      25.024   8.703 -15.062  1.00 36.04 LIG 0.24  C 
ATOM      2 O    PRO P 630      25.737   7.944 -14.373  1.00 33.55 LIG-0.27  OA
ATOM      3  N   PHE P 631      23.707   8.563 -15.188  1.00 24.81 LIG-0.35  N 
ATOM      4 H    PHE P 631      23.221   9.089 -15.663  1.00 24.81 LIG 0.16  HD
ENDROOT
BRANCH 3 5
ATOM      5  CA  PHE P 631      22.963   7.513 -14.539  1.00 30.16 LIG 0.18  C 
BRANCH 5 6
ATOM      6  C   PHE P 631      22.609   6.438 -15.603  1.00 46.65 LIG 0.24  C 
ATOM      7  N   LYS P 632      23.603   5.653 -15.979  1.00 37.40 LIG-0.34  N 
ATOM      8 H    LYS P 632      24.404   5.736 -15.680  1.00 37.40 LIG 0.16  HD
ATOM      9 O    PHE P 631      21.443   6.471 -16.021  1.00 54.45 LIG-0.27  OA
BRANCH 7 10
ATOM     10  CA  LYS P 632      23.445   4.543 -16.957  1.00 44.88 LIG 0.18  C 
BRANCH 10 11
ATOM     11  C   LYS P 632      24.718   3.709 -17.031  1.00 45.53 LIG 0.20  C 
ATOM     12 O    LYS P 632      25.845   4.242 -17.044  1.00 61.11 LIG-0.65  OA
ATOM     13 OXT  LYS P 632      24.591   2.461 -17.070  1.00 57.29 LIG-0.65  OA
ENDBRANCH 10 11
BRANCH 10 14
ATOM     14  CB  LYS P 632      22.984   5.078 -18.298  1.00 47.81 LIG 0.04  C 
BRANCH 14 15
ATOM     15  CG  LYS P 632      21.684   4.677 -18.968  1.00 54.84 LIG 0.00  C 
BRANCH 15 16
ATOM     16  CD  LYS P 632      20.809   3.978 -17.907  1.00 63.82 LIG 0.03  C 
BRANCH 16 17
ATOM     17  CE  LYS P 632      20.361   2.622 -18.451  1.00 66.19 LIG 0.23  C 
BRANCH 17 18
ATOM     18  NZ  LYS P 632      19.545   1.852 -17.475  1.00 52.45 LIG-0.08  N 
ATOM     19 HZ2  LYS P 632      18.681   2.019 -17.611  1.00 52.45 LIG 0.27  HD
ATOM     20 HZ1  LYS P 632      19.767   2.093 -16.648  1.00 52.45 LIG 0.27  HD
ATOM     21 HZ3  LYS P 632      19.698   0.981 -17.581  1.00 52.45 LIG 0.27  HD
ENDBRANCH 17 18
ENDBRANCH 16 17
ENDBRANCH 15 16
ENDBRANCH 14 15
ENDBRANCH 10 14
ENDBRANCH 7 10
ENDBRANCH 5 6
BRANCH 5 22
ATOM     22  CB  PHE P 631      21.651   7.898 -13.874  1.00 25.51 LIG 0.07  C 
BRANCH 22 23
ATOM     23  CG  PHE P 631      21.685   8.894 -12.710  1.00 27.58 LIG-0.06  A 
ATOM     24  CD1 PHE P 631      21.534   8.555 -11.367  1.00 30.72 LIG 0.01  A 
ATOM     25  CE1 PHE P 631      21.572   9.533 -10.384  1.00 26.28 LIG 0.00  A 
ATOM     26  CZ  PHE P 631      21.766  10.854 -10.731  1.00 23.54 LIG 0.00  A 
ATOM     27  CE2 PHE P 631      21.917  11.211 -12.063  1.00 23.94 LIG 0.00  A 
ATOM     28  CD2 PHE P 631      21.858  10.230 -13.005  1.00 24.70 LIG 0.01  A 
ENDBRANCH 22 23
ENDBRANCH 5 22
ENDBRANCH 3 5
BRANCH 1 29
ATOM     29  CA  PRO P 630      25.715   9.841 -15.786  1.00 22.29 LIG 0.18  C 
ATOM     30  CB  PRO P 630      27.204   9.916 -15.486  1.00 25.21 LIG 0.04  C 
ATOM     31  CG  PRO P 630      27.329  10.942 -14.401  1.00 30.73 LIG 0.02  C 
ATOM     32  CD  PRO P 630      26.183  11.906 -14.581  1.00 29.29 LIG 0.13  C 
ATOM     33  N   PRO P 630      25.204  11.148 -15.350  1.00 28.31 LIG-0.34  N 
ATOM     34  C   ASP P 629      23.955  11.475 -15.705  1.00 28.38 LIG 0.24  C 
ATOM     35 O    ASP P 629      23.201  10.657 -16.252  1.00 35.14 LIG-0.27  OA
BRANCH 34 36
ATOM     36  CA  ASP P 629      23.483  12.879 -15.403  1.00 31.37 LIG 0.19  C 
BRANCH 36 37
ATOM     37  CB  ASP P 629      21.963  12.958 -15.162  1.00 29.57 LIG 0.15  C 
BRANCH 37 38
ATOM     38  CG  ASP P 629      21.229  13.165 -16.474  1.00 37.10 LIG 0.17  C 
ATOM     39 OD2  ASP P 629      20.806  12.171 -17.106  1.00 43.68 LIG-0.65  OA
ATOM     40 OD1  ASP P 629      21.039  14.332 -16.874  1.00 36.00 LIG-0.65  OA
ENDBRANCH 37 38
ENDBRANCH 36 37
BRANCH 36 41
ATOM     41  N   ASP P 629      23.788  13.751 -16.518  1.00 43.53 LIG-0.34  N 
ATOM     42 H    ASP P 629      23.130  13.794 -17.070  1.00 43.53 LIG 0.16  HD
ATOM     43  C   SER P 628      24.895  14.428 -16.743  1.00 52.75 LIG 0.26  C 
ATOM     44 O    SER P 628      25.876  14.457 -16.004  1.00 74.95 LIG-0.27  OA
BRANCH 43 45
ATOM     45  CA  SER P 628      24.839  15.219 -18.057  1.00 53.54 LIG 0.42  C 
ATOM     46  N   SER P 628      24.051  14.550 -19.090  1.00 68.72 LIG 0.62  N 
BRANCH 45 47
ATOM     47  CB  SER P 628      24.241  16.593 -17.740  1.00 49.52 LIG 0.21  C 
BRANCH 47 48
ATOM     48 OG   SER P 628      22.845  16.509 -17.492  1.00 73.20 LIG-0.40  OA
ATOM     49 HG   SER P 628      22.680  15.813 -17.051  1.00 73.20 LIG 0.21  HD
ENDBRANCH 47 48
ENDBRANCH 45 47
ENDBRANCH 43 45
ENDBRANCH 36 41
ENDBRANCH 34 36
ENDBRANCH 1 29
TORSDOF 19
ENDMDL
MODEL 16
USER: ADFR SOLUTION from run 136
USER: SCORE 14.434475 LL:  -3.354 LR: -11.195 RR:   0.000 FEB:  -5.527
USER: RMSD 4.525415
USER: SEED 135
USER: STATUS no improvement in best in 14 clusters for 5 generations
USER: GENES 21
USER: genes 0 Translation |==|  0.55181 0.47455 0.58067
USER: genes 1 Rotation |==|  0.46237 0.54225 0.52571 0.99612
USER: genes 2 Torsion [C]-N--CA-[C] |==|  0.75542
USER: genes 3 Torsion [N]-CA--C-[N] |==|  0.33436
USER: genes 4 Torsion [C]-N--CA-[CB] |==|  0.43134
USER: genes 5 Torsion [N]-CA--C-[O] |==|  0.02562
USER: genes 6 Torsion [N]-CA--CB-[CG] |==|  0.25980
USER: genes 7 Torsion [CA]-CB--CG-[CD] |==|  0.40986
USER: genes 8 Torsion [CB]-CG--CD-[CE] |==|  0.51765
USER: genes 9 Torsion [CG]-CD--CE-[NZ] |==|  0.61169
USER: genes 10 Torsion [CD]-CE--NZ-[HZ2] |==|  0.48649
USER: genes 11 Torsion [N]-CA--CB-[CG] |==|  0.83980
USER: genes 12 Torsion [CA]-CB--CG-[CD1] |==|  0.68423
USER: genes 13 Torsion [O]-C--CA-[CB] |==|  0.56130
USER: genes 14 Torsion [N]-C--CA-[N] |==|  0.39541
USER: genes 15 Torsion [C]-CA--CB-[CG] |==|  0.86146
USER: genes 16 Torsion [CA]-CB--CG-[OD1] |==|  0.23643
USER: genes 17 Torsion [C]-CA--N-[C] |==|  0.81604
USER: genes 18 Torsion [N]-C--CA-[N] |==|  0.42477
USER: genes 19 Torsion [C]-CA--CB-[OG] |==|  0.13921
USER: genes 20 Torsion [CA]-CB--OG-[HG] |==|  0.82943
ROOT
ATOM      1  C   PRO P 630      25.782   9.529 -14.898  1.00 36.04 LIG 0.24  C 
ATOM      2 O    PRO P 630      26.672   8.769 -14.461  1.00 33.55 LIG-0.27  OA
ATOM      3  N   PHE P 631      24.499   9.190 -14.980  1.00 24.81 LIG-0.35  N 
ATOM      4 H    PHE P 631      23.890   9.718 -15.281  1.00 24.81 LIG 0.16  HD
ENDROOT
BRANCH 3 5
ATOM      5  CA  PHE P 631      23.999   7.901 -14.572  1.00 30.16 LIG 0.18  C 
BRANCH 5 6
ATOM      6  C   PHE P 631      24.101   6.933 -15.783  1.00 46.65 LIG 0.24  C 
ATOM      7  N   LYS P 632      24.850   5.860 -15.599  1.00 37.40 LIG-0.34  N 
ATOM      8 H    LYS P 632      25.279   5.707 -14.870  1.00 37.40 LIG 0.16  HD
ATOM      9 O    PHE P 631      23.509   7.303 -16.806  1.00 54.45 LIG-0.27  OA
BRANCH 7 10
ATOM     10  CA  LYS P 632      25.033   4.803 -16.629  1.00 44.88 LIG 0.18  C 
BRANCH 10 11
ATOM     11  C   LYS P 632      23.815   3.891 -16.683  1.00 45.53 LIG 0.20  C 
ATOM     12 O    LYS P 632      22.769   4.163 -16.059  1.00 61.11 LIG-0.65  OA
ATOM     13 OXT  LYS P 632      23.897   2.855 -17.386  1.00 57.29 LIG-0.65  OA
ENDBRANCH 10 11
BRANCH 10 14
ATOM     14  CB  LYS P 632      26.340   4.068 -16.409  1.00 47.81 LIG 0.04  C 
BRANCH 14 15
ATOM     15  CG  LYS P 632      26.466   2.787 -15.606  1.00 54.84 LIG 0.00  C 
BRANCH 15 16
ATOM     16  CD  LYS P 632      27.596   1.951 -16.238  1.00 63.82 LIG 0.03  C 
BRANCH 16 17
ATOM     17  CE  LYS P 632      27.644   0.585 -15.552  1.00 66.19 LIG 0.23  C 
BRANCH 17 18
ATOM     18  NZ  LYS P 632      29.033   0.111 -15.312  1.00 52.45 LIG-0.08  N 
ATOM     19 HZ2  LYS P 632      29.012  -0.649 -14.850  1.00 52.45 LIG 0.27  HD
ATOM     20 HZ1  LYS P 632      29.481   0.726 -14.850  1.00 52.45 LIG 0.27  HD
ATOM     21 HZ3  LYS P 632      29.439  -0.027 -16.092  1.00 52.45 LIG 0.27  HD
ENDBRANCH 17 18
ENDBRANCH 16 17
ENDBRANCH 15 16
ENDBRANCH 14 15
ENDBRANCH 10 14
ENDBRANCH 7 10
ENDBRANCH 5 6
BRANCH 5 22
ATOM     22  CB  PHE P 631      22.557   7.833 -14.096  1.00 25.51 LIG 0.07  C 
BRANCH 22 23
ATOM     23  CG  PHE P 631      22.133   8.712 -12.914  1.00 27.58 LIG-0.06  A 
ATOM     24  CD1 PHE P 631      21.742   8.233 -11.665  1.00 30.72 LIG 0.01  A 
ATOM     25  CE1 PHE P 631      21.367   9.112 -10.659  1.00 26.28 LIG 0.00  A 
ATOM     26  CZ  PHE P 631      21.385  10.472 -10.888  1.00 23.54 LIG 0.00  A 
ATOM     27  CE2 PHE P 631      21.770  10.966 -12.125  1.00 23.94 LIG 0.00  A 
ATOM     28  CD2 PHE P 631      22.115  10.078 -13.097  1.00 24.70 LIG 0.01  A 
ENDBRANCH 22 23
ENDBRANCH 5 22
ENDBRANCH 3 5
BRANCH 1 29
ATOM     29  CA  PRO P 630      26.208  10.910 -15.354  1.00 22.29 LIG 0.18  C 
ATOM     30  CB  PRO P 630      25.064  11.913 -15.355  1.00 25.21 LIG 0.04  C 
ATOM     31  CG  PRO P 630      24.571  11.936 -16.771  1.00 30.73 LIG 0.02  C 
ATOM     32  CD  PRO P 630      25.752  11.598 -17.647  1.00 29.29 LIG 0.13  C 
ATOM     33  N   PRO P 630      26.666  10.901 -16.751  1.00 28.31 LIG-0.34  N 
ATOM     34  C   ASP P 629      27.825  10.285 -17.019  1.00 28.38 LIG 0.24  C 
ATOM     35 O    ASP P 629      28.420   9.620 -16.158  1.00 35.14 LIG-0.27  OA
BRANCH 34 36
ATOM     36  CA  ASP P 629      28.381  10.413 -18.418  1.00 31.37 LIG 0.19  C 
BRANCH 36 37
ATOM     37  CB  ASP P 629      28.053   9.195 -19.304  1.00 29.57 LIG 0.15  C 
BRANCH 37 38
ATOM     38  CG  ASP P 629      28.412   7.907 -18.588  1.00 37.10 LIG 0.17  C 
ATOM     39 OD2  ASP P 629      29.537   7.392 -18.776  1.00 43.68 LIG-0.65  OA
ATOM     40 OD1  ASP P 629      27.580   7.407 -17.803  1.00 36.00 LIG-0.65  OA
ENDBRANCH 37 38
ENDBRANCH 36 37
BRANCH 36 41
ATOM     41  N   ASP P 629      29.823  10.530 -18.365  1.00 43.53 LIG-0.34  N 
ATOM     42 H    ASP P 629      30.205   9.846 -18.719  1.00 43.53 LIG 0.16  HD
ATOM     43  C   SER P 628      30.542  11.513 -17.864  1.00 52.75 LIG 0.26  C 
ATOM     44 O    SER P 628      30.094  12.543 -17.367  1.00 74.95 LIG-0.27  OA
BRANCH 43 45
ATOM     45  CA  SER P 628      32.050  11.248 -17.975  1.00 53.54 LIG 0.42  C 
ATOM     46  N   SER P 628      32.841  12.476 -18.036  1.00 68.72 LIG 0.62  N 
BRANCH 45 47
ATOM     47  CB  SER P 628      32.460  10.412 -16.759  1.00 49.52 LIG 0.21  C 
BRANCH 47 48
ATOM     48 OG   SER P 628      31.609   9.286 -16.592  1.00 73.20 LIG-0.40  OA
ATOM     49 HG   SER P 628      30.821   9.547 -16.462  1.00 73.20 LIG 0.21  HD
ENDBRANCH 47 48
ENDBRANCH 45 47
ENDBRANCH 43 45
ENDBRANCH 36 41
ENDBRANCH 34 36
ENDBRANCH 1 29
TORSDOF 19
ENDMDL
MODEL 17
USER: ADFR SOLUTION from run 87
USER: SCORE 13.438021 LL:  -2.905 LR: -11.178 RR:   0.000 FEB:  -5.511
USER: RMSD 4.319818
USER: SEED 86
USER: STATUS no improvement in best in 20 clusters for 5 generations
USER: GENES 21
USER: genes 0 Translation |==|  0.47232 0.45752 0.55771
USER: genes 1 Rotation |==|  0.39174 0.54222 0.52551 0.98564
USER: genes 2 Torsion [C]-N--CA-[C] |==|  0.69007
USER: genes 3 Torsion [N]-CA--C-[N] |==|  0.24741
USER: genes 4 Torsion [C]-N--CA-[CB] |==|  0.15864
USER: genes 5 Torsion [N]-CA--C-[O] |==|  0.43417
USER: genes 6 Torsion [N]-CA--CB-[CG] |==|  0.69064
USER: genes 7 Torsion [CA]-CB--CG-[CD] |==|  0.78358
USER: genes 8 Torsion [CB]-CG--CD-[CE] |==|  0.37859
USER: genes 9 Torsion [CG]-CD--CE-[NZ] |==|  0.72103
USER: genes 10 Torsion [CD]-CE--NZ-[HZ2] |==|  0.90496
USER: genes 11 Torsion [N]-CA--CB-[CG] |==|  0.84817
USER: genes 12 Torsion [CA]-CB--CG-[CD1] |==|  0.65340
USER: genes 13 Torsion [O]-C--CA-[CB] |==|  0.35335
USER: genes 14 Torsion [N]-C--CA-[N] |==|  0.25498
USER: genes 15 Torsion [C]-CA--CB-[CG] |==|  0.28499
USER: genes 16 Torsion [CA]-CB--CG-[OD1] |==|  0.19053
USER: genes 17 Torsion [C]-CA--N-[C] |==|  0.76083
USER: genes 18 Torsion [N]-C--CA-[N] |==|  0.38173
USER: genes 19 Torsion [C]-CA--CB-[OG] |==|  0.12027
USER: genes 20 Torsion [CA]-CB--OG-[HG] |==|  0.81023
ROOT
ATOM      1  C   PRO P 630      24.530   9.146 -15.311  1.00 36.04 LIG 0.24  C 
ATOM      2 O    PRO P 630      25.431   8.563 -14.672  1.00 33.55 LIG-0.27  OA
ATOM      3  N   PHE P 631      23.257   8.763 -15.304  1.00 24.81 LIG-0.35  N 
ATOM      4 H    PHE P 631      22.640   9.169 -15.746  1.00 24.81 LIG 0.16  HD
ENDROOT
BRANCH 3 5
ATOM      5  CA  PHE P 631      22.781   7.627 -14.554  1.00 30.16 LIG 0.18  C 
BRANCH 5 6
ATOM      6  C   PHE P 631      22.356   6.523 -15.560  1.00 46.65 LIG 0.24  C 
ATOM      7  N   LYS P 632      23.306   5.680 -15.923  1.00 37.40 LIG-0.34  N 
ATOM      8 H    LYS P 632      24.118   5.742 -15.647  1.00 37.40 LIG 0.16  HD
ATOM      9 O    PHE P 631      21.182   6.588 -15.952  1.00 54.45 LIG-0.27  OA
BRANCH 7 10
ATOM     10  CA  LYS P 632      23.077   4.536 -16.846  1.00 44.88 LIG 0.18  C 
BRANCH 10 11
ATOM     11  C   LYS P 632      24.343   3.699 -16.985  1.00 45.53 LIG 0.20  C 
ATOM     12 O    LYS P 632      24.297   2.500 -17.326  1.00 61.11 LIG-0.65  OA
ATOM     13 OXT  LYS P 632      25.439   4.264 -16.752  1.00 57.29 LIG-0.65  OA
ENDBRANCH 10 11
BRANCH 10 14
ATOM     14  CB  LYS P 632      22.516   5.023 -18.167  1.00 47.81 LIG 0.04  C 
BRANCH 14 15
ATOM     15  CG  LYS P 632      21.103   4.744 -18.641  1.00 54.84 LIG 0.00  C 
BRANCH 15 16
ATOM     16  CD  LYS P 632      21.065   3.294 -19.164  1.00 63.82 LIG 0.03  C 
BRANCH 16 17
ATOM     17  CE  LYS P 632      19.796   2.615 -18.649  1.00 66.19 LIG 0.23  C 
BRANCH 17 18
ATOM     18  NZ  LYS P 632      20.050   1.737 -17.476  1.00 52.45 LIG-0.08  N 
ATOM     19 HZ2  LYS P 632      20.852   1.360 -17.554  1.00 52.45 LIG 0.27  HD
ATOM     20 HZ1  LYS P 632      19.426   1.104 -17.439  1.00 52.45 LIG 0.27  HD
ATOM     21 HZ3  LYS P 632      20.023   2.223 -16.730  1.00 52.45 LIG 0.27  HD
ENDBRANCH 17 18
ENDBRANCH 16 17
ENDBRANCH 15 16
ENDBRANCH 14 15
ENDBRANCH 10 14
ENDBRANCH 7 10
ENDBRANCH 5 6
BRANCH 5 22
ATOM     22  CB  PHE P 631      21.588   7.849 -13.638  1.00 25.51 LIG 0.07  C 
BRANCH 22 23
ATOM     23  CG  PHE P 631      21.667   8.962 -12.589  1.00 27.58 LIG-0.06  A 
ATOM     24  CD1 PHE P 631      21.468   8.783 -11.221  1.00 30.72 LIG 0.01  A 
ATOM     25  CE1 PHE P 631      21.553   9.858 -10.350  1.00 26.28 LIG 0.00  A 
ATOM     26  CZ  PHE P 631      21.841  11.118 -10.832  1.00 23.54 LIG 0.00  A 
ATOM     27  CE2 PHE P 631      22.040  11.316 -12.191  1.00 23.94 LIG 0.00  A 
ATOM     28  CD2 PHE P 631      21.933  10.243 -13.022  1.00 24.70 LIG 0.01  A 
ENDBRANCH 22 23
ENDBRANCH 5 22
ENDBRANCH 3 5
BRANCH 1 29
ATOM     29  CA  PRO P 630      24.930  10.354 -16.133  1.00 22.29 LIG 0.18  C 
ATOM     30  CB  PRO P 630      24.478  10.261 -17.582  1.00 25.21 LIG 0.04  C 
ATOM     31  CG  PRO P 630      25.671   9.745 -18.328  1.00 30.73 LIG 0.02  C 
ATOM     32  CD  PRO P 630      26.890  10.215 -17.575  1.00 29.29 LIG 0.13  C 
ATOM     33  N   PRO P 630      26.391  10.482 -16.231  1.00 28.31 LIG-0.34  N 
ATOM     34  C   ASP P 629      27.059  10.822 -15.121  1.00 28.38 LIG 0.24  C 
ATOM     35 O    ASP P 629      26.496  10.884 -14.019  1.00 35.14 LIG-0.27  OA
BRANCH 34 36
ATOM     36  CA  ASP P 629      28.536  11.114 -15.252  1.00 31.37 LIG 0.19  C 
BRANCH 36 37
ATOM     37  CB  ASP P 629      29.332  10.740 -13.987  1.00 29.57 LIG 0.15  C 
BRANCH 37 38
ATOM     38  CG  ASP P 629      30.075   9.434 -14.194  1.00 37.10 LIG 0.17  C 
ATOM     39 OD2  ASP P 629      29.703   8.410 -13.577  1.00 43.68 LIG-0.65  OA
ATOM     40 OD1  ASP P 629      31.026   9.408 -15.001  1.00 36.00 LIG-0.65  OA
ENDBRANCH 37 38
ENDBRANCH 36 37
BRANCH 36 41
ATOM     41  N   ASP P 629      28.739  12.529 -15.486  1.00 43.53 LIG-0.34  N 
ATOM     42 H    ASP P 629      28.881  12.949 -14.750  1.00 43.53 LIG 0.16  HD
ATOM     43  C   SER P 628      28.724  13.174 -16.634  1.00 52.75 LIG 0.26  C 
ATOM     44 O    SER P 628      28.560  12.662 -17.738  1.00 74.95 LIG-0.27  OA
BRANCH 43 45
ATOM     45  CA  SER P 628      28.954  14.682 -16.458  1.00 53.54 LIG 0.42  C 
ATOM     46  N   SER P 628      29.864  15.239 -17.456  1.00 68.72 LIG 0.62  N 
BRANCH 45 47
ATOM     47  CB  SER P 628      27.587  15.367 -16.544  1.00 49.52 LIG 0.21  C 
BRANCH 47 48
ATOM     48 OG   SER P 628      26.601  14.655 -15.810  1.00 73.20 LIG-0.40  OA
ATOM     49 HG   SER P 628      26.446  13.920 -16.186  1.00 73.20 LIG 0.21  HD
ENDBRANCH 47 48
ENDBRANCH 45 47
ENDBRANCH 43 45
ENDBRANCH 36 41
ENDBRANCH 34 36
ENDBRANCH 1 29
TORSDOF 19
ENDMDL
MODEL 18
USER: ADFR SOLUTION from run 184
USER: SCORE 14.235716 LL:  -3.314 LR: -11.134 RR:   0.000 FEB:  -5.466
USER: RMSD 3.724828
USER: SEED 183
USER: STATUS searching
USER: GENES 21
USER: genes 0 Translation |==|  0.47466 0.46757 0.56250
USER: genes 1 Rotation |==|  0.44868 0.56018 0.55445 0.99069
USER: genes 2 Torsion [C]-N--CA-[C] |==|  0.69445
USER: genes 3 Torsion [N]-CA--C-[N] |==|  0.98045
USER: genes 4 Torsion [C]-N--CA-[CB] |==|  0.21034
USER: genes 5 Torsion [N]-CA--C-[O] |==|  0.01399
USER: genes 6 Torsion [N]-CA--CB-[CG] |==|  0.01658
USER: genes 7 Torsion [CA]-CB--CG-[CD] |==|  0.70693
USER: genes 8 Torsion [CB]-CG--CD-[CE] |==|  0.93511
USER: genes 9 Torsion [CG]-CD--CE-[NZ] |==|  0.46977
USER: genes 10 Torsion [CD]-CE--NZ-[HZ2] |==|  0.85304
USER: genes 11 Torsion [N]-CA--CB-[CG] |==|  0.89094
USER: genes 12 Torsion [CA]-CB--CG-[CD1] |==|  0.61440
USER: genes 13 Torsion [O]-C--CA-[CB] |==|  0.86640
USER: genes 14 Torsion [N]-C--CA-[N] |==|  0.10653
USER: genes 15 Torsion [C]-CA--CB-[CG] |==|  0.29294
USER: genes 16 Torsion [CA]-CB--CG-[OD1] |==|  0.76118
USER: genes 17 Torsion [C]-CA--N-[C] |==|  0.15911
USER: genes 18 Torsion [N]-C--CA-[N] |==|  0.57967
USER: genes 19 Torsion [C]-CA--CB-[OG] |==|  0.25530
USER: genes 20 Torsion [CA]-CB--OG-[HG] |==|  0.63685
ROOT
ATOM      1  C   PRO P 630      24.567   9.372 -15.225  1.00 36.04 LIG 0.24  C 
ATOM      2 O    PRO P 630      25.570   8.742 -14.828  1.00 33.55 LIG-0.27  OA
ATOM      3  N   PHE P 631      23.329   8.887 -15.187  1.00 24.81 LIG-0.35  N 
ATOM      4 H    PHE P 631      22.642   9.326 -15.461  1.00 24.81 LIG 0.16  HD
ENDROOT
BRANCH 3 5
ATOM      5  CA  PHE P 631      23.015   7.574 -14.681  1.00 30.16 LIG 0.18  C 
BRANCH 5 6
ATOM      6  C   PHE P 631      22.588   6.681 -15.878  1.00 46.65 LIG 0.24  C 
ATOM      7  N   LYS P 632      22.456   7.300 -17.038  1.00 37.40 LIG-0.34  N 
ATOM      8 H    LYS P 632      22.572   8.146 -17.134  1.00 37.40 LIG 0.16  HD
ATOM      9 O    PHE P 631      22.368   5.494 -15.600  1.00 54.45 LIG-0.27  OA
BRANCH 7 10
ATOM     10  CA  LYS P 632      22.095   6.603 -18.302  1.00 44.88 LIG 0.18  C 
BRANCH 10 11
ATOM     11  C   LYS P 632      22.551   7.412 -19.509  1.00 45.53 LIG 0.20  C 
ATOM     12 O    LYS P 632      23.223   8.455 -19.378  1.00 61.11 LIG-0.65  OA
ATOM     13 OXT  LYS P 632      22.233   6.986 -20.646  1.00 57.29 LIG-0.65  OA
ENDBRANCH 10 11
BRANCH 10 14
ATOM     14  CB  LYS P 632      20.618   6.262 -18.316  1.00 47.81 LIG 0.04  C 
BRANCH 14 15
ATOM     15  CG  LYS P 632      19.636   6.707 -17.250  1.00 54.84 LIG 0.00  C 
BRANCH 15 16
ATOM     16  CD  LYS P 632      19.310   5.479 -16.375  1.00 63.82 LIG 0.03  C 
BRANCH 16 17
ATOM     17  CE  LYS P 632      19.582   4.210 -17.183  1.00 66.19 LIG 0.23  C 
BRANCH 17 18
ATOM     18  NZ  LYS P 632      19.545   2.979 -16.350  1.00 52.45 LIG-0.08  N 
ATOM     19 HZ2  LYS P 632      20.089   3.075 -15.653  1.00 52.45 LIG 0.27  HD
ATOM     20 HZ1  LYS P 632      19.807   2.283 -16.838  1.00 52.45 LIG 0.27  HD
ATOM     21 HZ3  LYS P 632      18.714   2.841 -16.060  1.00 52.45 LIG 0.27  HD
ENDBRANCH 17 18
ENDBRANCH 16 17
ENDBRANCH 15 16
ENDBRANCH 14 15
ENDBRANCH 10 14
ENDBRANCH 7 10
ENDBRANCH 5 6
BRANCH 5 22
ATOM     22  CB  PHE P 631      21.896   7.472 -13.657  1.00 25.51 LIG 0.07  C 
BRANCH 22 23
ATOM     23  CG  PHE P 631      21.782   8.561 -12.585  1.00 27.58 LIG-0.06  A 
ATOM     24  CD1 PHE P 631      21.488   8.330 -11.243  1.00 30.72 LIG 0.01  A 
ATOM     25  CE1 PHE P 631      21.399   9.387 -10.349  1.00 26.28 LIG 0.00  A 
ATOM     26  CZ  PHE P 631      21.608  10.680 -10.783  1.00 23.54 LIG 0.00  A 
ATOM     27  CE2 PHE P 631      21.901  10.929 -12.116  1.00 23.94 LIG 0.00  A 
ATOM     28  CD2 PHE P 631      21.964   9.872 -12.972  1.00 24.70 LIG 0.01  A 
ENDBRANCH 22 23
ENDBRANCH 5 22
ENDBRANCH 3 5
BRANCH 1 29
ATOM     29  CA  PRO P 630      24.794  10.765 -15.776  1.00 22.29 LIG 0.18  C 
ATOM     30  CB  PRO P 630      25.673  11.622 -14.878  1.00 25.21 LIG 0.04  C 
ATOM     31  CG  PRO P 630      24.716  12.437 -14.062  1.00 30.73 LIG 0.02  C 
ATOM     32  CD  PRO P 630      23.476  12.619 -14.902  1.00 29.29 LIG 0.13  C 
ATOM     33  N   PRO P 630      23.538  11.524 -15.862  1.00 28.31 LIG-0.34  N 
ATOM     34  C   ASP P 629      22.642  11.138 -16.780  1.00 28.38 LIG 0.24  C 
ATOM     35 O    ASP P 629      22.792  10.097 -17.435  1.00 35.14 LIG-0.27  OA
BRANCH 34 36
ATOM     36  CA  ASP P 629      21.426  12.012 -16.984  1.00 31.37 LIG 0.19  C 
BRANCH 36 37
ATOM     37  CB  ASP P 629      20.769  11.806 -18.363  1.00 29.57 LIG 0.15  C 
BRANCH 37 38
ATOM     38  CG  ASP P 629      19.486  11.009 -18.226  1.00 37.10 LIG 0.17  C 
ATOM     39 OD2  ASP P 629      18.392  11.613 -18.146  1.00 43.68 LIG-0.65  OA
ATOM     40 OD1  ASP P 629      19.553   9.763 -18.225  1.00 36.00 LIG-0.65  OA
ENDBRANCH 37 38
ENDBRANCH 36 37
BRANCH 36 41
ATOM     41  N   ASP P 629      21.800  13.407 -16.889  1.00 43.53 LIG-0.34  N 
ATOM     42 H    ASP P 629      21.349  13.810 -16.278  1.00 43.53 LIG 0.16  HD
ATOM     43  C   SER P 628      22.697  14.059 -17.600  1.00 52.75 LIG 0.26  C 
ATOM     44 O    SER P 628      23.411  13.568 -18.470  1.00 74.95 LIG-0.27  OA
BRANCH 43 45
ATOM     45  CA  SER P 628      22.781  15.542 -17.214  1.00 53.54 LIG 0.42  C 
ATOM     46  N   SER P 628      23.205  16.395 -18.322  1.00 68.72 LIG 0.62  N 
BRANCH 45 47
ATOM     47  CB  SER P 628      21.395  15.966 -16.717  1.00 49.52 LIG 0.21  C 
BRANCH 47 48
ATOM     48 OG   SER P 628      21.278  15.811 -15.310  1.00 73.20 LIG-0.40  OA
ATOM     49 HG   SER P 628      20.570  15.396 -15.131  1.00 73.20 LIG 0.21  HD
ENDBRANCH 47 48
ENDBRANCH 45 47
ENDBRANCH 43 45
ENDBRANCH 36 41
ENDBRANCH 34 36
ENDBRANCH 1 29
TORSDOF 19
ENDMDL
MODEL 19
USER: ADFR SOLUTION from run 189
USER: SCORE 13.506006 LL:  -3.361 LR: -10.822 RR:   0.000 FEB:  -5.155
USER: RMSD 4.311575
USER: SEED 188
USER: STATUS no improvement in best in 22 clusters for 5 generations
USER: GENES 21
USER: genes 0 Translation |==|  0.53759 0.49260 0.56318
USER: genes 1 Rotation |==|  0.42615 0.56692 0.40905 0.98145
USER: genes 2 Torsion [C]-N--CA-[C] |==|  0.74695
USER: genes 3 Torsion [N]-CA--C-[N] |==|  0.48127
USER: genes 4 Torsion [C]-N--CA-[CB] |==|  0.84446
USER: genes 5 Torsion [N]-CA--C-[O] |==|  0.83173
USER: genes 6 Torsion [N]-CA--CB-[CG] |==|  0.55830
USER: genes 7 Torsion [CA]-CB--CG-[CD] |==|  0.89181
USER: genes 8 Torsion [CB]-CG--CD-[CE] |==|  0.36493
USER: genes 9 Torsion [CG]-CD--CE-[NZ] |==|  0.61352
USER: genes 10 Torsion [CD]-CE--NZ-[HZ2] |==|  0.97717
USER: genes 11 Torsion [N]-CA--CB-[CG] |==|  0.63153
USER: genes 12 Torsion [CA]-CB--CG-[CD1] |==|  0.83344
USER: genes 13 Torsion [O]-C--CA-[CB] |==|  0.58501
USER: genes 14 Torsion [N]-C--CA-[N] |==|  0.22266
USER: genes 15 Torsion [C]-CA--CB-[CG] |==|  0.76582
USER: genes 16 Torsion [CA]-CB--CG-[OD1] |==|  0.31652
USER: genes 17 Torsion [C]-CA--N-[C] |==|  0.64441
USER: genes 18 Torsion [N]-C--CA-[N] |==|  0.14467
USER: genes 19 Torsion [C]-CA--CB-[OG] |==|  0.40574
USER: genes 20 Torsion [CA]-CB--OG-[HG] |==|  0.59233
ROOT
ATOM      1  C   PRO P 630      25.558   9.936 -15.213  1.00 36.04 LIG 0.24  C 
ATOM      2 O    PRO P 630      26.068   8.946 -14.645  1.00 33.55 LIG-0.27  OA
ATOM      3  N   PHE P 631      24.254  10.197 -15.207  1.00 24.81 LIG-0.35  N 
ATOM      4 H    PHE P 631      23.908  10.880 -15.598  1.00 24.81 LIG 0.16  HD
ENDROOT
BRANCH 3 5
ATOM      5  CA  PHE P 631      23.288   9.359 -14.541  1.00 30.16 LIG 0.18  C 
BRANCH 5 6
ATOM      6  C   PHE P 631      22.776   8.302 -15.559  1.00 46.65 LIG 0.24  C 
ATOM      7  N   LYS P 632      21.984   7.367 -15.066  1.00 37.40 LIG-0.34  N 
ATOM      8 H    LYS P 632      21.776   7.320 -14.233  1.00 37.40 LIG 0.16  HD
ATOM      9 O    PHE P 631      23.212   8.424 -16.711  1.00 54.45 LIG-0.27  OA
BRANCH 7 10
ATOM     10  CA  LYS P 632      21.366   6.297 -15.894  1.00 44.88 LIG 0.18  C 
BRANCH 10 11
ATOM     11  C   LYS P 632      22.421   5.296 -16.349  1.00 45.53 LIG 0.20  C 
ATOM     12 O    LYS P 632      23.389   5.645 -17.053  1.00 61.11 LIG-0.65  OA
ATOM     13 OXT  LYS P 632      22.285   4.104 -15.980  1.00 57.29 LIG-0.65  OA
ENDBRANCH 10 11
BRANCH 10 14
ATOM     14  CB  LYS P 632      20.565   6.900 -17.030  1.00 47.81 LIG 0.04  C 
BRANCH 14 15
ATOM     15  CG  LYS P 632      19.463   6.168 -17.771  1.00 54.84 LIG 0.00  C 
BRANCH 15 16
ATOM     16  CD  LYS P 632      19.914   4.705 -17.949  1.00 63.82 LIG 0.03  C 
BRANCH 16 17
ATOM     17  CE  LYS P 632      18.776   3.781 -17.515  1.00 66.19 LIG 0.23  C 
BRANCH 17 18
ATOM     18  NZ  LYS P 632      19.254   2.604 -16.741  1.00 52.45 LIG-0.08  N 
ATOM     19 HZ2  LYS P 632      20.143   2.575 -16.762  1.00 52.45 LIG 0.27  HD
ATOM     20 HZ1  LYS P 632      18.924   1.860 -17.099  1.00 52.45 LIG 0.27  HD
ATOM     21 HZ3  LYS P 632      18.979   2.673 -15.896  1.00 52.45 LIG 0.27  HD
ENDBRANCH 17 18
ENDBRANCH 16 17
ENDBRANCH 15 16
ENDBRANCH 14 15
ENDBRANCH 10 14
ENDBRANCH 7 10
ENDBRANCH 5 6
BRANCH 5 22
ATOM     22  CB  PHE P 631      22.049  10.037 -13.977  1.00 25.51 LIG 0.07  C 
BRANCH 22 23
ATOM     23  CG  PHE P 631      21.617   9.700 -12.546  1.00 27.58 LIG-0.06  A 
ATOM     24  CD1 PHE P 631      21.273   8.427 -12.097  1.00 30.72 LIG 0.01  A 
ATOM     25  CE1 PHE P 631      20.886   8.225 -10.781  1.00 26.28 LIG 0.00  A 
ATOM     26  CZ  PHE P 631      20.843   9.287  -9.901  1.00 23.54 LIG 0.00  A 
ATOM     27  CE2 PHE P 631      21.180  10.562 -10.331  1.00 23.94 LIG 0.00  A 
ATOM     28  CD2 PHE P 631      21.540  10.731 -11.633  1.00 24.70 LIG 0.01  A 
ENDBRANCH 22 23
ENDBRANCH 5 22
ENDBRANCH 3 5
BRANCH 1 29
ATOM     29  CA  PRO P 630      26.493  10.878 -15.942  1.00 22.29 LIG 0.18  C 
ATOM     30  CB  PRO P 630      25.999  12.317 -15.948  1.00 25.21 LIG 0.04  C 
ATOM     31  CG  PRO P 630      25.304  12.483 -17.265  1.00 30.73 LIG 0.02  C 
ATOM     32  CD  PRO P 630      25.972  11.535 -18.230  1.00 29.29 LIG 0.13  C 
ATOM     33  N   PRO P 630      26.598  10.540 -17.369  1.00 28.31 LIG-0.34  N 
ATOM     34  C   ASP P 629      27.236   9.408 -17.692  1.00 28.38 LIG 0.24  C 
ATOM     35 O    ASP P 629      27.599   8.598 -16.826  1.00 35.14 LIG-0.27  OA
BRANCH 34 36
ATOM     36  CA  ASP P 629      27.490   9.138 -19.157  1.00 31.37 LIG 0.19  C 
BRANCH 36 37
ATOM     37  CB  ASP P 629      27.771   7.651 -19.450  1.00 29.57 LIG 0.15  C 
BRANCH 37 38
ATOM     38  CG  ASP P 629      29.236   7.332 -19.214  1.00 37.10 LIG 0.17  C 
ATOM     39 OD2  ASP P 629      30.106   7.871 -19.935  1.00 43.68 LIG-0.65  OA
ATOM     40 OD1  ASP P 629      29.537   6.558 -18.283  1.00 36.00 LIG-0.65  OA
ENDBRANCH 37 38
ENDBRANCH 36 37
BRANCH 36 41
ATOM     41  N   ASP P 629      28.645   9.890 -19.603  1.00 43.53 LIG-0.34  N 
ATOM     42 H    ASP P 629      29.322   9.754 -19.091  1.00 43.53 LIG 0.16  HD
ATOM     43  C   SER P 628      28.740  10.698 -20.638  1.00 52.75 LIG 0.26  C 
ATOM     44 O    SER P 628      27.843  10.934 -21.444  1.00 74.95 LIG-0.27  OA
BRANCH 43 45
ATOM     45  CA  SER P 628      30.133  11.331 -20.758  1.00 53.54 LIG 0.42  C 
ATOM     46  N   SER P 628      31.211  10.345 -20.731  1.00 68.72 LIG 0.62  N 
BRANCH 45 47
ATOM     47  CB  SER P 628      30.167  12.119 -22.071  1.00 49.52 LIG 0.21  C 
BRANCH 47 48
ATOM     48 OG   SER P 628      30.972  13.284 -21.957  1.00 73.20 LIG-0.40  OA
ATOM     49 HG   SER P 628      30.652  13.894 -22.439  1.00 73.20 LIG 0.21  HD
ENDBRANCH 47 48
ENDBRANCH 45 47
ENDBRANCH 43 45
ENDBRANCH 36 41
ENDBRANCH 34 36
ENDBRANCH 1 29
TORSDOF 19
ENDMDL
MODEL 20
USER: ADFR SOLUTION from run 115
USER: SCORE 14.658123 LL:  -4.342 LR: -10.806 RR:   0.000 FEB:  -5.138
USER: RMSD 4.733954
USER: SEED 114
USER: STATUS no improvement in best in 19 clusters for 5 generations
USER: GENES 21
USER: genes 0 Translation |==|  0.49168 0.46129 0.57410
USER: genes 1 Rotation |==|  0.43143 0.55114 0.48443 0.99238
USER: genes 2 Torsion [C]-N--CA-[C] |==|  0.71547
USER: genes 3 Torsion [N]-CA--C-[N] |==|  0.52412
USER: genes 4 Torsion [C]-N--CA-[CB] |==|  0.83666
USER: genes 5 Torsion [N]-CA--C-[O] |==|  0.49223
USER: genes 6 Torsion [N]-CA--CB-[CG] |==|  0.70977
USER: genes 7 Torsion [CA]-CB--CG-[CD] |==|  0.91837
USER: genes 8 Torsion [CB]-CG--CD-[CE] |==|  0.78701
USER: genes 9 Torsion [CG]-CD--CE-[NZ] |==|  0.30779
USER: genes 10 Torsion [CD]-CE--NZ-[HZ2] |==|  0.72767
USER: genes 11 Torsion [N]-CA--CB-[CG] |==|  0.83389
USER: genes 12 Torsion [CA]-CB--CG-[CD1] |==|  0.67567
USER: genes 13 Torsion [O]-C--CA-[CB] |==|  0.56537
USER: genes 14 Torsion [N]-C--CA-[N] |==|  0.38960
USER: genes 15 Torsion [C]-CA--CB-[CG] |==|  0.86005
USER: genes 16 Torsion [CA]-CB--CG-[OD1] |==|  0.84979
USER: genes 17 Torsion [C]-CA--N-[C] |==|  0.79944
USER: genes 18 Torsion [N]-C--CA-[N] |==|  0.49380
USER: genes 19 Torsion [C]-CA--CB-[OG] |==|  0.23173
USER: genes 20 Torsion [CA]-CB--OG-[HG] |==|  0.76412
ROOT
ATOM      1  C   PRO P 630      24.835   9.231 -15.016  1.00 36.04 LIG 0.24  C 
ATOM      2 O    PRO P 630      25.610   8.409 -14.483  1.00 33.55 LIG-0.27  OA
ATOM      3  N   PHE P 631      23.513   9.087 -15.041  1.00 24.81 LIG-0.35  N 
ATOM      4 H    PHE P 631      22.984   9.657 -15.409  1.00 24.81 LIG 0.16  HD
ENDROOT
BRANCH 3 5
ATOM      5  CA  PHE P 631      22.833   7.960 -14.453  1.00 30.16 LIG 0.18  C 
BRANCH 5 6
ATOM      6  C   PHE P 631      22.426   6.988 -15.593  1.00 46.65 LIG 0.24  C 
ATOM      7  N   LYS P 632      21.636   5.989 -15.241  1.00 37.40 LIG-0.34  N 
ATOM      8 H    LYS P 632      21.376   5.859 -14.432  1.00 37.40 LIG 0.16  HD
ATOM      9 O    PHE P 631      22.930   7.228 -16.698  1.00 54.45 LIG-0.27  OA
BRANCH 7 10
ATOM     10  CA  LYS P 632      21.111   4.982 -16.202  1.00 44.88 LIG 0.18  C 
BRANCH 10 11
ATOM     11  C   LYS P 632      22.239   4.102 -16.725  1.00 45.53 LIG 0.20  C 
ATOM     12 O    LYS P 632      22.017   3.155 -17.506  1.00 61.11 LIG-0.65  OA
ATOM     13 OXT  LYS P 632      23.405   4.370 -16.348  1.00 57.29 LIG-0.65  OA
ENDBRANCH 10 11
BRANCH 10 14
ATOM     14  CB  LYS P 632      20.305   5.659 -17.293  1.00 47.81 LIG 0.04  C 
BRANCH 14 15
ATOM     15  CG  LYS P 632      18.791   5.642 -17.362  1.00 54.84 LIG 0.00  C 
BRANCH 15 16
ATOM     16  CD  LYS P 632      18.309   4.333 -16.704  1.00 63.82 LIG 0.03  C 
BRANCH 16 17
ATOM     17  CE  LYS P 632      18.536   3.177 -17.679  1.00 66.19 LIG 0.23  C 
BRANCH 17 18
ATOM     18  NZ  LYS P 632      19.606   2.247 -17.230  1.00 52.45 LIG-0.08  N 
ATOM     19 HZ2  LYS P 632      20.368   2.449 -17.643  1.00 52.45 LIG 0.27  HD
ATOM     20 HZ1  LYS P 632      19.374   1.411 -17.428  1.00 52.45 LIG 0.27  HD
ATOM     21 HZ3  LYS P 632      19.716   2.324 -16.350  1.00 52.45 LIG 0.27  HD
ENDBRANCH 17 18
ENDBRANCH 16 17
ENDBRANCH 15 16
ENDBRANCH 14 15
ENDBRANCH 10 14
ENDBRANCH 7 10
ENDBRANCH 5 6
BRANCH 5 22
ATOM     22  CB  PHE P 631      21.564   8.246 -13.666  1.00 25.51 LIG 0.07  C 
BRANCH 22 23
ATOM     23  CG  PHE P 631      21.650   9.171 -12.448  1.00 27.58 LIG-0.06  A 
ATOM     24  CD1 PHE P 631      21.379   8.788 -11.135  1.00 30.72 LIG 0.01  A 
ATOM     25  CE1 PHE P 631      21.478   9.704 -10.099  1.00 26.28 LIG 0.00  A 
ATOM     26  CZ  PHE P 631      21.852  11.006 -10.360  1.00 23.54 LIG 0.00  A 
ATOM     27  CE2 PHE P 631      22.124  11.406 -11.660  1.00 23.94 LIG 0.00  A 
ATOM     28  CD2 PHE P 631      22.001  10.488 -12.658  1.00 24.70 LIG 0.01  A 
ENDBRANCH 22 23
ENDBRANCH 5 22
ENDBRANCH 3 5
BRANCH 1 29
ATOM     29  CA  PRO P 630      25.454  10.453 -15.664  1.00 22.29 LIG 0.18  C 
ATOM     30  CB  PRO P 630      24.488  11.623 -15.766  1.00 25.21 LIG 0.04  C 
ATOM     31  CG  PRO P 630      23.935  11.548 -17.157  1.00 30.73 LIG 0.02  C 
ATOM     32  CD  PRO P 630      25.000  10.910 -18.014  1.00 29.29 LIG 0.13  C 
ATOM     33  N   PRO P 630      25.834  10.190 -17.060  1.00 28.31 LIG-0.34  N 
ATOM     34  C   ASP P 629      26.863   9.361 -17.276  1.00 28.38 LIG 0.24  C 
ATOM     35 O    ASP P 629      27.387   8.722 -16.353  1.00 35.14 LIG-0.27  OA
BRANCH 34 36
ATOM     36  CA  ASP P 629      27.362   9.217 -18.696  1.00 31.37 LIG 0.19  C 
BRANCH 36 37
ATOM     37  CB  ASP P 629      26.838   7.941 -19.385  1.00 29.57 LIG 0.15  C 
BRANCH 37 38
ATOM     38  CG  ASP P 629      27.077   6.728 -18.505  1.00 37.10 LIG 0.17  C 
ATOM     39 OD2  ASP P 629      26.121   5.965 -18.237  1.00 43.68 LIG-0.65  OA
ATOM     40 OD1  ASP P 629      28.234   6.506 -18.094  1.00 36.00 LIG-0.65  OA
ENDBRANCH 37 38
ENDBRANCH 36 37
BRANCH 36 41
ATOM     41  N   ASP P 629      28.808   9.148 -18.705  1.00 43.53 LIG-0.34  N 
ATOM     42 H    ASP P 629      29.081   8.353 -18.886  1.00 43.53 LIG 0.16  HD
ATOM     43  C   SER P 628      29.671  10.117 -18.478  1.00 52.75 LIG 0.26  C 
ATOM     44 O    SER P 628      29.382  11.287 -18.242  1.00 74.95 LIG-0.27  OA
BRANCH 43 45
ATOM     45  CA  SER P 628      31.125   9.632 -18.552  1.00 53.54 LIG 0.42  C 
ATOM     46  N   SER P 628      32.094  10.708 -18.354  1.00 68.72 LIG 0.62  N 
BRANCH 45 47
ATOM     47  CB  SER P 628      31.304   8.552 -17.482  1.00 49.52 LIG 0.21  C 
BRANCH 47 48
ATOM     48 OG   SER P 628      30.869   7.282 -17.946  1.00 73.20 LIG-0.40  OA
ATOM     49 HG   SER P 628      30.040   7.208 -17.829  1.00 73.20 LIG 0.21  HD
ENDBRANCH 47 48
ENDBRANCH 45 47
ENDBRANCH 43 45
ENDBRANCH 36 41
ENDBRANCH 34 36
ENDBRANCH 1 29
TORSDOF 19
ENDMDL
MODEL 21
USER: ADFR SOLUTION from run 199
USER: SCORE 14.202237 LL:  -3.672 LR: -10.769 RR:   0.000 FEB:  -5.102
USER: RMSD 3.901754
USER: SEED 198
USER: STATUS no improvement in best in 14 clusters for 5 generations
USER: GENES 21
USER: genes 0 Translation |==|  0.53569 0.41577 0.60016
USER: genes 1 Rotation |==|  0.40681 0.51008 0.31543 0.95513
USER: genes 2 Torsion [C]-N--CA-[C] |==|  0.70186
USER: genes 3 Torsion [N]-CA--C-[N] |==|  0.97241
USER: genes 4 Torsion [C]-N--CA-[CB] |==|  0.86650
USER: genes 5 Torsion [N]-CA--C-[O] |==|  0.90258
USER: genes 6 Torsion [N]-CA--CB-[CG] |==|  0.55932
USER: genes 7 Torsion [CA]-CB--CG-[CD] |==|  0.49097
USER: genes 8 Torsion [CB]-CG--CD-[CE] |==|  0.30919
USER: genes 9 Torsion [CG]-CD--CE-[NZ] |==|  0.52262
USER: genes 10 Torsion [CD]-CE--NZ-[HZ2] |==|  0.11578
USER: genes 11 Torsion [N]-CA--CB-[CG] |==|  0.68739
USER: genes 12 Torsion [CA]-CB--CG-[CD1] |==|  0.36041
USER: genes 13 Torsion [O]-C--CA-[CB] |==|  0.75811
USER: genes 14 Torsion [N]-C--CA-[N] |==|  0.87469
USER: genes 15 Torsion [C]-CA--CB-[CG] |==|  0.02363
USER: genes 16 Torsion [CA]-CB--CG-[OD1] |==|  0.25195
USER: genes 17 Torsion [C]-CA--N-[C] |==|  0.83494
USER: genes 18 Torsion [N]-C--CA-[N] |==|  0.29388
USER: genes 19 Torsion [C]-CA--CB-[OG] |==|  0.09157
USER: genes 20 Torsion [CA]-CB--OG-[HG] |==|  0.85429
ROOT
ATOM      1  C   PRO P 630      25.528   8.207 -14.547  1.00 36.04 LIG 0.24  C 
ATOM      2 O    PRO P 630      25.530   7.258 -13.735  1.00 33.55 LIG-0.27  OA
ATOM      3  N   PHE P 631      24.427   8.848 -14.929  1.00 24.81 LIG-0.35  N 
ATOM      4 H    PHE P 631      24.432   9.501 -15.488  1.00 24.81 LIG 0.16  HD
ENDROOT
BRANCH 3 5
ATOM      5  CA  PHE P 631      23.112   8.510 -14.442  1.00 30.16 LIG 0.18  C 
BRANCH 5 6
ATOM      6  C   PHE P 631      22.335   7.807 -15.588  1.00 46.65 LIG 0.24  C 
ATOM      7  N   LYS P 632      22.909   7.842 -16.777  1.00 37.40 LIG-0.34  N 
ATOM      8 H    LYS P 632      23.653   8.246 -16.927  1.00 37.40 LIG 0.16  HD
ATOM      9 O    PHE P 631      21.235   7.335 -15.268  1.00 54.45 LIG-0.27  OA
BRANCH 7 10
ATOM     10  CA  LYS P 632      22.333   7.189 -17.984  1.00 44.88 LIG 0.18  C 
BRANCH 10 11
ATOM     11  C   LYS P 632      21.214   8.040 -18.571  1.00 45.53 LIG 0.20  C 
ATOM     12 O    LYS P 632      20.450   8.704 -17.842  1.00 61.11 LIG-0.65  OA
ATOM     13 OXT  LYS P 632      21.095   8.057 -19.820  1.00 57.29 LIG-0.65  OA
ENDBRANCH 10 11
BRANCH 10 14
ATOM     14  CB  LYS P 632      21.919   5.765 -17.671  1.00 47.81 LIG 0.04  C 
BRANCH 14 15
ATOM     15  CG  LYS P 632      21.741   4.685 -18.720  1.00 54.84 LIG 0.00  C 
BRANCH 15 16
ATOM     16  CD  LYS P 632      21.399   3.374 -17.985  1.00 63.82 LIG 0.03  C 
BRANCH 16 17
ATOM     17  CE  LYS P 632      19.949   2.998 -18.291  1.00 66.19 LIG 0.23  C 
BRANCH 17 18
ATOM     18  NZ  LYS P 632      19.467   1.852 -17.475  1.00 52.45 LIG-0.08  N 
ATOM     19 HZ2  LYS P 632      19.755   1.942 -16.638  1.00 52.45 LIG 0.27  HD
ATOM     20 HZ1  LYS P 632      19.780   1.092 -17.816  1.00 52.45 LIG 0.27  HD
ATOM     21 HZ3  LYS P 632      18.577   1.836 -17.482  1.00 52.45 LIG 0.27  HD
ENDBRANCH 17 18
ENDBRANCH 16 17
ENDBRANCH 15 16
ENDBRANCH 14 15
ENDBRANCH 10 14
ENDBRANCH 7 10
ENDBRANCH 5 6
BRANCH 5 22
ATOM     22  CB  PHE P 631      22.230   9.655 -13.972  1.00 25.51 LIG 0.07  C 
BRANCH 22 23
ATOM     23  CG  PHE P 631      21.886   9.751 -12.482  1.00 27.58 LIG-0.06  A 
ATOM     24  CD1 PHE P 631      22.027  10.899 -11.704  1.00 30.72 LIG 0.01  A 
ATOM     25  CE1 PHE P 631      21.696  10.882 -10.357  1.00 26.28 LIG 0.00  A 
ATOM     26  CZ  PHE P 631      21.217   9.726  -9.777  1.00 23.54 LIG 0.00  A 
ATOM     27  CE2 PHE P 631      21.071   8.574 -10.535  1.00 23.94 LIG 0.00  A 
ATOM     28  CD2 PHE P 631      21.421   8.617 -11.850  1.00 24.70 LIG 0.01  A 
ENDBRANCH 22 23
ENDBRANCH 5 22
ENDBRANCH 3 5
BRANCH 1 29
ATOM     29  CA  PRO P 630      26.864   8.637 -15.118  1.00 22.29 LIG 0.18  C 
ATOM     30  CB  PRO P 630      27.579   9.659 -14.247  1.00 25.21 LIG 0.04  C 
ATOM     31  CG  PRO P 630      27.242  10.988 -14.853  1.00 30.73 LIG 0.02  C 
ATOM     32  CD  PRO P 630      27.017  10.748 -16.326  1.00 29.29 LIG 0.13  C 
ATOM     33  N   PRO P 630      26.705   9.326 -16.406  1.00 28.31 LIG-0.34  N 
ATOM     34  C   ASP P 629      26.317   8.593 -17.457  1.00 28.38 LIG 0.24  C 
ATOM     35 O    ASP P 629      25.961   7.412 -17.329  1.00 35.14 LIG-0.27  OA
BRANCH 34 36
ATOM     36  CA  ASP P 629      26.311   9.258 -18.814  1.00 31.37 LIG 0.19  C 
BRANCH 36 37
ATOM     37  CB  ASP P 629      27.727   9.446 -19.392  1.00 29.57 LIG 0.15  C 
BRANCH 37 38
ATOM     38  CG  ASP P 629      28.749   8.722 -18.536  1.00 37.10 LIG 0.17  C 
ATOM     39 OD2  ASP P 629      29.261   9.312 -17.558  1.00 43.68 LIG-0.65  OA
ATOM     40 OD1  ASP P 629      29.033   7.539 -18.814  1.00 36.00 LIG-0.65  OA
ENDBRANCH 37 38
ENDBRANCH 36 37
BRANCH 36 41
ATOM     41  N   ASP P 629      25.709  10.572 -18.715  1.00 43.53 LIG-0.34  N 
ATOM     42 H    ASP P 629      26.258  11.186 -18.961  1.00 43.53 LIG 0.16  HD
ATOM     43  C   SER P 628      24.494  10.882 -18.314  1.00 52.75 LIG 0.26  C 
ATOM     44 O    SER P 628      23.629  10.080 -17.973  1.00 74.95 LIG-0.27  OA
BRANCH 43 45
ATOM     45  CA  SER P 628      24.245  12.396 -18.325  1.00 53.54 LIG 0.42  C 
ATOM     46  N   SER P 628      23.388  12.824 -19.429  1.00 68.72 LIG 0.62  N 
BRANCH 45 47
ATOM     47  CB  SER P 628      23.607  12.767 -16.983  1.00 49.52 LIG 0.21  C 
BRANCH 47 48
ATOM     48 OG   SER P 628      24.087  11.939 -15.933  1.00 73.20 LIG-0.40  OA
ATOM     49 HG   SER P 628      23.997  11.132 -16.148  1.00 73.20 LIG 0.21  HD
ENDBRANCH 47 48
ENDBRANCH 45 47
ENDBRANCH 43 45
ENDBRANCH 36 41
ENDBRANCH 34 36
ENDBRANCH 1 29
TORSDOF 19
ENDMDL
MODEL 22
USER: ADFR SOLUTION from run 112
USER: SCORE 14.611643 LL:  -3.943 LR: -10.710 RR:   0.000 FEB:  -5.042
USER: RMSD 2.826269
USER: SEED 111
USER: STATUS no improvement in best in 8 clusters for 5 generations
USER: GENES 21
USER: genes 0 Translation |==|  0.57097 0.47339 0.55884
USER: genes 1 Rotation |==|  0.51970 0.63074 0.49095 0.98212
USER: genes 2 Torsion [C]-N--CA-[C] |==|  0.82656
USER: genes 3 Torsion [N]-CA--C-[N] |==|  0.35731
USER: genes 4 Torsion [C]-N--CA-[CB] |==|  0.87683
USER: genes 5 Torsion [N]-CA--C-[O] |==|  0.48628
USER: genes 6 Torsion [N]-CA--CB-[CG] |==|  0.62197
USER: genes 7 Torsion [CA]-CB--CG-[CD] |==|  0.37370
USER: genes 8 Torsion [CB]-CG--CD-[CE] |==|  0.45412
USER: genes 9 Torsion [CG]-CD--CE-[NZ] |==|  0.36947
USER: genes 10 Torsion [CD]-CE--NZ-[HZ2] |==|  0.99101
USER: genes 11 Torsion [N]-CA--CB-[CG] |==|  0.83784
USER: genes 12 Torsion [CA]-CB--CG-[CD1] |==|  0.69572
USER: genes 13 Torsion [O]-C--CA-[CB] |==|  0.81480
USER: genes 14 Torsion [N]-C--CA-[N] |==|  0.40714
USER: genes 15 Torsion [C]-CA--CB-[CG] |==|  0.82151
USER: genes 16 Torsion [CA]-CB--CG-[OD1] |==|  0.26067
USER: genes 17 Torsion [C]-CA--N-[C] |==|  0.81553
USER: genes 18 Torsion [N]-C--CA-[N] |==|  0.42280
USER: genes 19 Torsion [C]-CA--CB-[OG] |==|  0.14759
USER: genes 20 Torsion [CA]-CB--OG-[HG] |==|  0.82949
ROOT
ATOM      1  C   PRO P 630      26.084   9.503 -15.291  1.00 36.04 LIG 0.24  C 
ATOM      2 O    PRO P 630      26.886   8.547 -15.334  1.00 33.55 LIG-0.27  OA
ATOM      3  N   PHE P 631      24.805   9.376 -14.950  1.00 24.81 LIG-0.35  N 
ATOM      4 H    PHE P 631      24.257  10.038 -14.921  1.00 24.81 LIG 0.16  HD
ENDROOT
BRANCH 3 5
ATOM      5  CA  PHE P 631      24.208   8.113 -14.594  1.00 30.16 LIG 0.18  C 
BRANCH 5 6
ATOM      6  C   PHE P 631      24.292   7.170 -15.825  1.00 46.65 LIG 0.24  C 
ATOM      7  N   LYS P 632      24.812   5.977 -15.600  1.00 37.40 LIG-0.34  N 
ATOM      8 H    LYS P 632      25.112   5.733 -14.832  1.00 37.40 LIG 0.16  HD
ATOM      9 O    PHE P 631      23.909   7.662 -16.895  1.00 54.45 LIG-0.27  OA
BRANCH 7 10
ATOM     10  CA  LYS P 632      24.937   4.927 -16.647  1.00 44.88 LIG 0.18  C 
BRANCH 10 11
ATOM     11  C   LYS P 632      26.186   5.157 -17.489  1.00 45.53 LIG 0.20  C 
ATOM     12 O    LYS P 632      26.537   4.344 -18.368  1.00 61.11 LIG-0.65  OA
ATOM     13 OXT  LYS P 632      26.847   6.201 -17.271  1.00 57.29 LIG-0.65  OA
ENDBRANCH 10 11
BRANCH 10 14
ATOM     14  CB  LYS P 632      23.661   4.832 -17.458  1.00 47.81 LIG 0.04  C 
BRANCH 14 15
ATOM     15  CG  LYS P 632      23.004   3.524 -17.853  1.00 54.84 LIG 0.00  C 
BRANCH 15 16
ATOM     16  CD  LYS P 632      21.493   3.659 -17.575  1.00 63.82 LIG 0.03  C 
BRANCH 16 17
ATOM     17  CE  LYS P 632      20.751   2.552 -18.325  1.00 66.19 LIG 0.23  C 
BRANCH 17 18
ATOM     18  NZ  LYS P 632      19.752   1.852 -17.475  1.00 52.45 LIG-0.08  N 
ATOM     19 HZ2  LYS P 632      19.789   2.173 -16.646  1.00 52.45 LIG 0.27  HD
ATOM     20 HZ1  LYS P 632      19.930   0.980 -17.464  1.00 52.45 LIG 0.27  HD
ATOM     21 HZ3  LYS P 632      18.936   1.983 -17.807  1.00 52.45 LIG 0.27  HD
ENDBRANCH 17 18
ENDBRANCH 16 17
ENDBRANCH 15 16
ENDBRANCH 14 15
ENDBRANCH 10 14
ENDBRANCH 7 10
ENDBRANCH 5 6
BRANCH 5 22
ATOM     22  CB  PHE P 631      22.747   8.128 -14.171  1.00 25.51 LIG 0.07  C 
BRANCH 22 23
ATOM     23  CG  PHE P 631      22.341   8.991 -12.972  1.00 27.58 LIG-0.06  A 
ATOM     24  CD1 PHE P 631      21.949   8.496 -11.730  1.00 30.72 LIG 0.01  A 
ATOM     25  CE1 PHE P 631      21.591   9.362 -10.707  1.00 26.28 LIG 0.00  A 
ATOM     26  CZ  PHE P 631      21.625  10.726 -10.912  1.00 23.54 LIG 0.00  A 
ATOM     27  CE2 PHE P 631      22.010  11.236 -12.142  1.00 23.94 LIG 0.00  A 
ATOM     28  CD2 PHE P 631      22.340  10.361 -13.131  1.00 24.70 LIG 0.01  A 
ENDBRANCH 22 23
ENDBRANCH 5 22
ENDBRANCH 3 5
BRANCH 1 29
ATOM     29  CA  PRO P 630      26.616  10.876 -15.650  1.00 22.29 LIG 0.18  C 
ATOM     30  CB  PRO P 630      27.634  11.397 -14.647  1.00 25.21 LIG 0.04  C 
ATOM     31  CG  PRO P 630      26.852  12.282 -13.725  1.00 30.73 LIG 0.02  C 
ATOM     32  CD  PRO P 630      25.701  12.836 -14.528  1.00 29.29 LIG 0.13  C 
ATOM     33  N   PRO P 630      25.553  11.891 -15.627  1.00 28.31 LIG-0.34  N 
ATOM     34  C   ASP P 629      24.620  11.831 -16.586  1.00 28.38 LIG 0.24  C 
ATOM     35 O    ASP P 629      24.561  10.878 -17.376  1.00 35.14 LIG-0.27  OA
BRANCH 34 36
ATOM     36  CA  ASP P 629      23.622  12.964 -16.666  1.00 31.37 LIG 0.19  C 
BRANCH 36 37
ATOM     37  CB  ASP P 629      22.324  12.671 -15.888  1.00 29.57 LIG 0.15  C 
BRANCH 37 38
ATOM     38  CG  ASP P 629      21.591  11.495 -16.505  1.00 37.10 LIG 0.17  C 
ATOM     39 OD2  ASP P 629      20.824  11.689 -17.475  1.00 43.68 LIG-0.65  OA
ATOM     40 OD1  ASP P 629      21.795  10.354 -16.043  1.00 36.00 LIG-0.65  OA
ENDBRANCH 37 38
ENDBRANCH 36 37
BRANCH 36 41
ATOM     41  N   ASP P 629      23.253  13.198 -18.046  1.00 43.53 LIG-0.34  N 
ATOM     42 H    ASP P 629      22.427  13.004 -18.186  1.00 43.53 LIG 0.16  HD
ATOM     43  C   SER P 628      24.011  13.644 -19.027  1.00 52.75 LIG 0.26  C 
ATOM     44 O    SER P 628      25.189  13.976 -18.924  1.00 74.95 LIG-0.27  OA
BRANCH 43 45
ATOM     45  CA  SER P 628      23.252  13.728 -20.358  1.00 53.54 LIG 0.42  C 
ATOM     46  N   SER P 628      23.780  14.757 -21.252  1.00 68.72 LIG 0.62  N 
BRANCH 45 47
ATOM     47  CB  SER P 628      23.339  12.351 -21.024  1.00 49.52 LIG 0.21  C 
BRANCH 47 48
ATOM     48 OG   SER P 628      22.904  11.321 -20.147  1.00 73.20 LIG-0.40  OA
ATOM     49 HG   SER P 628      23.398  11.303 -19.468  1.00 73.20 LIG 0.21  HD
ENDBRANCH 47 48
ENDBRANCH 45 47
ENDBRANCH 43 45
ENDBRANCH 36 41
ENDBRANCH 34 36
ENDBRANCH 1 29
TORSDOF 19
ENDMDL
