MODEL 1
USER: ADFR SOLUTION from run 129
USER: SCORE 28.946439 LL:  -5.282 LR: -26.195 RR:   0.000 FEB: -18.141
USER: RMSD 2.353723
USER: SEED 128
USER: STATUS searching
USER: GENES 29
USER: genes 0 Translation |==|  0.39894 0.59087 0.55926
USER: genes 1 Rotation |==|  0.50115 0.46479 0.52315 0.99822
USER: genes 2 Torsion [CB]-CA--N-[C] |==|  0.28226
USER: genes 3 Torsion [N]-C--CA-[N] |==|  0.40861
USER: genes 4 Torsion [C]-CA--CB-[CG] |==|  0.42511
USER: genes 5 Torsion [CA]-CB--CG-[CD2] |==|  0.92162
USER: genes 6 Torsion [C]-CA--N-[C] |==|  0.74505
USER: genes 7 Torsion [N]-C--CA-[N] |==|  0.42221
USER: genes 8 Torsion [C]-CA--CB-[CG] |==|  0.35941
USER: genes 9 Torsion [CA]-CB--CG-[OD1] |==|  0.34290
USER: genes 10 Torsion [C]-CA--N-[C] |==|  0.86364
USER: genes 11 Torsion [N]-C--CA-[N] |==|  0.97778
USER: genes 12 Torsion [C]-CA--N-[C] |==|  0.80866
USER: genes 13 Torsion [C]-CA--CB-[CG] |==|  0.23588
USER: genes 14 Torsion [CA]-CB--CG-[CD] |==|  0.10141
USER: genes 15 Torsion [CB]-CG--CD-[OE1] |==|  0.15736
USER: genes 16 Torsion [N]-CA--C-[N] |==|  0.34720
USER: genes 17 Torsion [C]-N--CA-[CB] |==|  0.49595
USER: genes 18 Torsion [N]-CA--C-[N] |==|  0.37071
USER: genes 19 Torsion [C]-N--CA-[CB] |==|  0.39221
USER: genes 20 Torsion [N]-CA--CB-[CG] |==|  0.56833
USER: genes 21 Torsion [CA]-CB--CG-[CD] |==|  0.56238
USER: genes 22 Torsion [CB]-CG--CD-[NE2] |==|  0.57574
USER: genes 23 Torsion [N]-CA--C-[O] |==|  0.67156
USER: genes 24 Torsion [N]-CA--CB-[CG] |==|  0.81082
USER: genes 25 Torsion [CA]-CB--CG-[CD1] |==|  0.84832
USER: genes 26 Torsion [N]-CA--CB-[CG] |==|  0.26499
USER: genes 27 Torsion [CA]-CB--CG-[CD2] |==|  0.76302
USER: genes 28 Torsion [CE2]-CZ--OH-[HH] |==|  0.48067
ROOT
ATOM      1  CA  TYR C 305       4.746  92.336  10.494  1.00 17.70 LIG 0.18  C 
ENDROOT
BRANCH 1 2
ATOM      2  N   TYR C 305       5.674  92.075   9.409  1.00 18.26 LIG-0.35  N 
ATOM      3  C   LEU C 304       5.931  93.044   8.561  1.00 22.06 LIG 0.24  C 
ATOM      4 O    LEU C 304       5.366  94.113   8.622  1.00 19.49 LIG-0.27  OA
ATOM      5 H    TYR C 305       6.010  91.284   9.382  1.00 18.26 LIG 0.16  HD
BRANCH 3 6
ATOM      6  CA  LEU C 304       6.951  92.740   7.450  1.00 20.64 LIG 0.18  C 
BRANCH 6 7
ATOM      7  CB  LEU C 304       8.353  93.163   7.920  1.00 15.74 LIG 0.04  C 
BRANCH 7 8
ATOM      8  CG  LEU C 304       9.600  92.431   7.325  1.00 18.57 LIG-0.02  C 
ATOM      9  CD2 LEU C 304       9.237  91.041   6.929  1.00 21.94 LIG 0.01  C 
ATOM     10  CD1 LEU C 304      10.739  92.479   8.381  1.00 20.21 LIG 0.01  C 
ENDBRANCH 7 8
ENDBRANCH 6 7
BRANCH 6 11
ATOM     11  N   LEU C 304       6.597  93.466   6.247  1.00 19.38 LIG-0.35  N 
ATOM     12 H    LEU C 304       6.916  94.261   6.177  1.00 19.38 LIG 0.16  HD
ATOM     13  C   ASN C 303       5.822  92.862   5.363  1.00 24.27 LIG 0.24  C 
ATOM     14 O    ASN C 303       5.356  91.744   5.561  1.00 22.60 LIG-0.27  OA
BRANCH 13 15
ATOM     15  CA  ASN C 303       5.470  93.646   4.099  1.00 31.24 LIG 0.18  C 
BRANCH 15 16
ATOM     16  CB  ASN C 303       4.226  94.484   4.363  1.00 21.65 LIG 0.14  C 
BRANCH 16 17
ATOM     17  CG  ASN C 303       4.434  95.968   3.951  1.00 16.90 LIG 0.22  C 
ATOM     18 OD1  ASN C 303       3.673  96.523   3.134  1.00 28.96 LIG-0.27  OA
ATOM     19  ND2 ASN C 303       5.467  96.586   4.520  1.00 28.67 LIG-0.37  N 
ATOM     20 22HD ASN C 303       5.967  96.164   5.079  1.00 28.67 LIG 0.16  HD
ATOM     21 21HD ASN C 303       5.636  97.407   4.328  1.00 28.67 LIG 0.16  HD
ENDBRANCH 16 17
ENDBRANCH 15 16
BRANCH 15 22
ATOM     22  N   ASN C 303       5.226  92.707   3.007  1.00 31.60 LIG-0.35  N 
ATOM     23  C   GLU C 302       6.094  91.732   2.756  1.00 42.93 LIG 0.24  C 
ATOM     24 O    GLU C 302       7.172  91.614   3.392  1.00 23.80 LIG-0.27  OA
ATOM     25 H    ASN C 303       4.500  92.841   2.565  1.00 31.60 LIG 0.16  HD
BRANCH 23 26
ATOM     26  CA  GLU C 302       5.703  90.784   1.601  1.00 34.08 LIG 0.18  C 
BRANCH 26 27
ATOM     27  N   GLU C 302       4.372  91.030   1.129  1.00 23.23 LIG-0.35  N 
ATOM     28  C   ACE C 301       3.348  90.738   1.901  1.00 22.46 LIG 0.21  C 
ATOM     29 O    ACE C 301       3.491  90.260   3.015  1.00 29.32 LIG-0.27  OA
ATOM     30  CH3 ACE C 301       1.959  91.027   1.360  1.00 21.44 LIG 0.12  C 
ATOM     31 H    GLU C 302       4.317  91.366   0.340  1.00 23.23 LIG 0.16  HD
ENDBRANCH 26 27
BRANCH 26 32
ATOM     32  CB  GLU C 302       6.678  90.909   0.430  1.00 20.79 LIG 0.04  C 
BRANCH 32 33
ATOM     33  CG  GLU C 302       7.959  90.014   0.589  1.00 23.79 LIG 0.12  C 
BRANCH 33 34
ATOM     34  CD  GLU C 302       7.729  88.661   1.242  1.00 40.63 LIG 0.17  C 
ATOM     35 OE1  GLU C 302       6.912  87.849   0.777  1.00 32.87 LIG-0.65  OA
ATOM     36 OE2  GLU C 302       8.350  88.416   2.288  1.00 33.51 LIG-0.65  OA
ENDBRANCH 33 34
ENDBRANCH 32 33
ENDBRANCH 26 32
ENDBRANCH 23 26
ENDBRANCH 15 22
ENDBRANCH 13 15
ENDBRANCH 6 11
ENDBRANCH 3 6
ENDBRANCH 1 2
BRANCH 1 37
ATOM     37  C   TYR C 305       5.346  91.702  11.738  1.00 20.52 LIG 0.24  C 
ATOM     38 O    TYR C 305       5.668  90.511  11.731  1.00 23.93 LIG-0.27  OA
ATOM     39  N   PHE C 306       5.510  92.494  12.781  1.00 17.96 LIG-0.35  N 
ATOM     40 H    PHE C 306       5.319  93.332  12.806  1.00 17.96 LIG 0.16  HD
BRANCH 39 41
ATOM     41  CA  PHE C 306       6.076  91.913  14.045  1.00 18.04 LIG 0.18  C 
BRANCH 41 42
ATOM     42  C   PHE C 306       5.128  90.834  14.493  1.00 31.34 LIG 0.24  C 
ATOM     43  N   GLN C 307       5.674  89.675  14.852  1.00 26.23 LIG-0.35  N 
ATOM     44 H    GLN C 307       6.521  89.531  14.900  1.00 26.23 LIG 0.16  HD
ATOM     45 O    PHE C 306       3.918  91.032  14.513  1.00 30.18 LIG-0.27  OA
BRANCH 43 46
ATOM     46  CA  GLN C 307       4.832  88.530  15.201  1.00 27.99 LIG 0.16  C 
BRANCH 46 47
ATOM     47  CB  GLN C 307       5.499  87.283  14.634  1.00 36.24 LIG 0.04  C 
BRANCH 47 48
ATOM     48  CG  GLN C 307       4.566  86.145  14.375  1.00 42.27 LIG 0.10  C 
BRANCH 48 49
ATOM     49  CD  GLN C 307       5.318  84.826  14.352  1.00 30.08 LIG 0.21  C 
ATOM     50  NE2 GLN C 307       4.763  83.855  13.601  1.00 33.32 LIG-0.37  N 
ATOM     51 21HE GLN C 307       4.026  84.004  13.182  1.00 33.32 LIG 0.16  HD
ATOM     52 22HE GLN C 307       5.145  83.087  13.540  1.00 33.32 LIG 0.16  HD
ATOM     53 OE1  GLN C 307       6.388  84.679  14.988  1.00 31.63 LIG-0.27  OA
ENDBRANCH 48 49
ENDBRANCH 47 48
ENDBRANCH 46 47
BRANCH 46 54
ATOM     54  C   GLN C 307       4.460  88.327  16.663  1.00 39.25 LIG 0.22  C 
ATOM     55 O    GLN C 307       4.840  87.281  17.217  1.00 55.00 LIG-0.29  OA
ENDBRANCH 46 54
ENDBRANCH 43 46
ENDBRANCH 41 42
BRANCH 41 56
ATOM     56  CB  PHE C 306       6.224  92.981  15.119  1.00 20.53 LIG 0.07  C 
BRANCH 56 57
ATOM     57  CG  PHE C 306       7.252  93.981  14.811  1.00 20.37 LIG-0.06  A 
ATOM     58  CD2 PHE C 306       6.965  95.318  14.847  1.00 17.20 LIG 0.01  A 
ATOM     59  CE2 PHE C 306       7.946  96.269  14.604  1.00 19.90 LIG 0.00  A 
ATOM     60  CZ  PHE C 306       9.261  95.874  14.313  1.00 23.32 LIG 0.00  A 
ATOM     61  CE1 PHE C 306       9.556  94.508  14.271  1.00 27.54 LIG 0.00  A 
ATOM     62  CD1 PHE C 306       8.570  93.574  14.515  1.00 19.02 LIG 0.01  A 
ENDBRANCH 56 57
ENDBRANCH 41 56
ENDBRANCH 39 41
ENDBRANCH 1 37
BRANCH 1 63
ATOM     63  CB  TYR C 305       3.374  91.743  10.193  1.00 23.59 LIG 0.07  C 
BRANCH 63 64
ATOM     64  CG  TYR C 305       3.124  90.388  10.768  1.00 90.40 LIG-0.06  A 
ATOM     65  CD2 TYR C 305       3.530  89.255  10.085  1.00 31.11 LIG 0.01  A 
ATOM     66  CE2 TYR C 305       3.304  87.968  10.607  1.00 55.34 LIG 0.04  A 
ATOM     67  CZ  TYR C 305       2.664  87.837  11.834  1.00 93.94 LIG 0.07  A 
ATOM     68  CE1 TYR C 305       2.246  88.964  12.541  1.00 56.99 LIG 0.04  A 
ATOM     69  CD1 TYR C 305       2.476  90.232  12.006  1.00 51.39 LIG 0.01  A 
BRANCH 67 70
ATOM     70 OH   TYR C 305       2.438  86.585  12.354  1.00 93.94 LIG-0.36  OA
ATOM     71 HH   TYR C 305       2.133  86.656  13.133  1.00 93.94 LIG 0.22  HD
ENDBRANCH 67 70
ENDBRANCH 63 64
ENDBRANCH 1 63
TORSDOF 27
ENDMDL
MODEL 2
USER: ADFR SOLUTION from run 83
USER: SCORE 29.305599 LL:  -5.634 LR: -26.123 RR:   0.000 FEB: -18.069
USER: RMSD 3.753545
USER: SEED 82
USER: STATUS no improvement in best in 5 clusters for 5 generations
USER: GENES 29
USER: genes 0 Translation |==|  0.39113 0.59780 0.56024
USER: genes 1 Rotation |==|  0.50376 0.51785 0.50076 0.99967
USER: genes 2 Torsion [CB]-CA--N-[C] |==|  0.26029
USER: genes 3 Torsion [N]-C--CA-[N] |==|  0.39517
USER: genes 4 Torsion [C]-CA--CB-[CG] |==|  0.35356
USER: genes 5 Torsion [CA]-CB--CG-[CD2] |==|  0.97624
USER: genes 6 Torsion [C]-CA--N-[C] |==|  0.58080
USER: genes 7 Torsion [N]-C--CA-[N] |==|  0.18877
USER: genes 8 Torsion [C]-CA--CB-[CG] |==|  0.26394
USER: genes 9 Torsion [CA]-CB--CG-[OD1] |==|  0.76733
USER: genes 10 Torsion [C]-CA--N-[C] |==|  0.76483
USER: genes 11 Torsion [N]-C--CA-[N] |==|  0.96863
USER: genes 12 Torsion [C]-CA--N-[C] |==|  0.81329
USER: genes 13 Torsion [C]-CA--CB-[CG] |==|  0.14894
USER: genes 14 Torsion [CA]-CB--CG-[CD] |==|  0.39296
USER: genes 15 Torsion [CB]-CG--CD-[OE1] |==|  0.03259
USER: genes 16 Torsion [N]-CA--C-[N] |==|  0.37951
USER: genes 17 Torsion [C]-N--CA-[CB] |==|  0.48333
USER: genes 18 Torsion [N]-CA--C-[N] |==|  0.37003
USER: genes 19 Torsion [C]-N--CA-[CB] |==|  0.40150
USER: genes 20 Torsion [N]-CA--CB-[CG] |==|  0.59447
USER: genes 21 Torsion [CA]-CB--CG-[CD] |==|  0.61845
USER: genes 22 Torsion [CB]-CG--CD-[NE2] |==|  0.54288
USER: genes 23 Torsion [N]-CA--C-[O] |==|  0.59413
USER: genes 24 Torsion [N]-CA--CB-[CG] |==|  0.80598
USER: genes 25 Torsion [CA]-CB--CG-[CD1] |==|  0.83399
USER: genes 26 Torsion [N]-CA--CB-[CG] |==|  0.24578
USER: genes 27 Torsion [CA]-CB--CG-[CD2] |==|  0.78524
USER: genes 28 Torsion [CE2]-CZ--OH-[HH] |==|  0.48891
ROOT
ATOM      1  CA  TYR C 305       4.600  92.492  10.518  1.00 17.70 LIG 0.18  C 
ENDROOT
BRANCH 1 2
ATOM      2  N   TYR C 305       5.251  92.169   9.262  1.00 18.26 LIG-0.35  N 
ATOM      3  C   LEU C 304       5.269  93.080   8.316  1.00 22.06 LIG 0.24  C 
ATOM      4 O    LEU C 304       4.700  94.141   8.440  1.00 19.49 LIG-0.27  OA
ATOM      5 H    TYR C 305       5.596  91.383   9.208  1.00 18.26 LIG 0.16  HD
BRANCH 3 6
ATOM      6  CA  LEU C 304       6.005  92.713   7.015  1.00 20.64 LIG 0.18  C 
BRANCH 6 7
ATOM      7  CB  LEU C 304       7.427  93.295   7.058  1.00 15.74 LIG 0.04  C 
BRANCH 7 8
ATOM      8  CG  LEU C 304       8.639  92.344   6.791  1.00 18.57 LIG-0.02  C 
ATOM      9  CD2 LEU C 304       8.175  90.928   6.734  1.00 21.94 LIG 0.01  C 
ATOM     10  CD1 LEU C 304       9.699  92.587   7.902  1.00 20.21 LIG 0.01  C 
ENDBRANCH 7 8
ENDBRANCH 6 7
BRANCH 6 11
ATOM     11  N   LEU C 304       5.287  93.251   5.878  1.00 19.38 LIG-0.35  N 
ATOM     12 H    LEU C 304       4.837  93.969   6.019  1.00 19.38 LIG 0.16  HD
ATOM     13  C   ASN C 303       5.378  92.609   4.727  1.00 24.27 LIG 0.24  C 
ATOM     14 O    ASN C 303       5.996  91.555   4.615  1.00 22.60 LIG-0.27  OA
BRANCH 13 15
ATOM     15  CA  ASN C 303       4.619  93.202   3.540  1.00 31.24 LIG 0.18  C 
BRANCH 15 16
ATOM     16  CB  ASN C 303       4.671  92.222   2.374  1.00 21.65 LIG 0.14  C 
BRANCH 16 17
ATOM     17  CG  ASN C 303       3.410  91.314   2.331  1.00 16.90 LIG 0.22  C 
ATOM     18 OD1  ASN C 303       3.336  90.281   3.026  1.00 28.96 LIG-0.27  OA
ATOM     19  ND2 ASN C 303       2.441  91.711   1.508  1.00 28.67 LIG-0.37  N 
ATOM     20 22HD ASN C 303       2.535  92.430   1.047  1.00 28.67 LIG 0.16  HD
ATOM     21 21HD ASN C 303       1.721  91.246   1.438  1.00 28.67 LIG 0.16  HD
ENDBRANCH 16 17
ENDBRANCH 15 16
BRANCH 15 22
ATOM     22  N   ASN C 303       5.239  94.471   3.162  1.00 31.60 LIG-0.35  N 
ATOM     23  C   GLU C 302       4.900  95.593   3.789  1.00 42.93 LIG 0.24  C 
ATOM     24 O    GLU C 302       4.006  95.624   4.672  1.00 23.80 LIG-0.27  OA
ATOM     25 H    ASN C 303       5.815  94.420   2.527  1.00 31.60 LIG 0.16  HD
BRANCH 23 26
ATOM     26  CA  GLU C 302       5.653  96.859   3.324  1.00 34.08 LIG 0.18  C 
BRANCH 26 27
ATOM     27  N   GLU C 302       6.765  96.544   2.476  1.00 23.23 LIG-0.35  N 
ATOM     28  C   ACE C 301       7.801  95.908   2.979  1.00 22.46 LIG 0.21  C 
ATOM     29 O    ACE C 301       7.851  95.574   4.152  1.00 29.32 LIG-0.27  OA
ATOM     30  CH3 ACE C 301       8.949  95.587   2.038  1.00 21.44 LIG 0.12  C 
ATOM     31 H    GLU C 302       6.690  96.797   1.658  1.00 23.23 LIG 0.16  HD
ENDBRANCH 26 27
BRANCH 26 32
ATOM     32  CB  GLU C 302       4.719  97.817   2.583  1.00 20.79 LIG 0.04  C 
BRANCH 32 33
ATOM     33  CG  GLU C 302       3.430  98.185   3.402  1.00 23.79 LIG 0.12  C 
BRANCH 33 34
ATOM     34  CD  GLU C 302       2.973  99.629   3.279  1.00 40.63 LIG 0.17  C 
ATOM     35 OE1  GLU C 302       3.451 100.387   2.417  1.00 32.87 LIG-0.65  OA
ATOM     36 OE2  GLU C 302       2.141 100.040   4.102  1.00 33.51 LIG-0.65  OA
ENDBRANCH 33 34
ENDBRANCH 32 33
ENDBRANCH 26 32
ENDBRANCH 23 26
ENDBRANCH 15 22
ENDBRANCH 13 15
ENDBRANCH 6 11
ENDBRANCH 3 6
ENDBRANCH 1 2
BRANCH 1 37
ATOM     37  C   TYR C 305       5.390  91.788  11.609  1.00 20.52 LIG 0.24  C 
ATOM     38 O    TYR C 305       5.782  90.631  11.440  1.00 23.93 LIG-0.27  OA
ATOM     39  N   PHE C 306       5.636  92.487  12.702  1.00 17.96 LIG-0.35  N 
ATOM     40 H    PHE C 306       5.397  93.302  12.837  1.00 17.96 LIG 0.16  HD
BRANCH 39 41
ATOM     41  CA  PHE C 306       6.391  91.831  13.821  1.00 18.04 LIG 0.18  C 
BRANCH 41 42
ATOM     42  C   PHE C 306       5.525  90.716  14.340  1.00 31.34 LIG 0.24  C 
ATOM     43  N   GLN C 307       6.119  89.541  14.528  1.00 26.23 LIG-0.35  N 
ATOM     44 H    GLN C 307       6.962  89.401  14.432  1.00 26.23 LIG 0.16  HD
ATOM     45 O    PHE C 306       4.334  90.901  14.565  1.00 30.18 LIG-0.27  OA
BRANCH 43 46
ATOM     46  CA  GLN C 307       5.341  88.366  14.928  1.00 27.99 LIG 0.16  C 
BRANCH 46 47
ATOM     47  CB  GLN C 307       5.961  87.154  14.245  1.00 36.24 LIG 0.04  C 
BRANCH 47 48
ATOM     48  CG  GLN C 307       4.980  86.098  13.851  1.00 42.27 LIG 0.10  C 
BRANCH 48 49
ATOM     49  CD  GLN C 307       5.519  84.715  14.175  1.00 30.08 LIG 0.21  C 
ATOM     50  NE2 GLN C 307       4.879  83.689  13.581  1.00 33.32 LIG-0.37  N 
ATOM     51 21HE GLN C 307       4.208  83.842  13.065  1.00 33.32 LIG 0.16  HD
ATOM     52 22HE GLN C 307       5.142  82.882  13.717  1.00 33.32 LIG 0.16  HD
ATOM     53 OE1  GLN C 307       6.502  84.565  14.939  1.00 31.63 LIG-0.27  OA
ENDBRANCH 48 49
ENDBRANCH 47 48
ENDBRANCH 46 47
BRANCH 46 54
ATOM     54  C   GLN C 307       5.141  88.106  16.414  1.00 39.25 LIG 0.22  C 
ATOM     55 O    GLN C 307       5.091  86.924  16.793  1.00 55.00 LIG-0.29  OA
ENDBRANCH 46 54
ENDBRANCH 43 46
ENDBRANCH 41 42
BRANCH 41 56
ATOM     56  CB  PHE C 306       6.705  92.829  14.927  1.00 20.53 LIG 0.07  C 
BRANCH 56 57
ATOM     57  CG  PHE C 306       7.702  93.833  14.542  1.00 20.37 LIG-0.06  A 
ATOM     58  CD2 PHE C 306       7.413  95.169  14.597  1.00 17.20 LIG 0.01  A 
ATOM     59  CE2 PHE C 306       8.369  96.123  14.281  1.00 19.90 LIG 0.00  A 
ATOM     60  CZ  PHE C 306       9.661  95.734  13.893  1.00 23.32 LIG 0.00  A 
ATOM     61  CE1 PHE C 306       9.957  94.370  13.832  1.00 27.54 LIG 0.00  A 
ATOM     62  CD1 PHE C 306       8.997  93.432  14.150  1.00 19.02 LIG 0.01  A 
ENDBRANCH 56 57
ENDBRANCH 41 56
ENDBRANCH 39 41
ENDBRANCH 1 37
BRANCH 1 63
ATOM     63  CB  TYR C 305       3.149  92.026  10.516  1.00 23.59 LIG 0.07  C 
BRANCH 63 64
ATOM     64  CG  TYR C 305       2.927  90.626  10.985  1.00 90.40 LIG-0.06  A 
ATOM     65  CD2 TYR C 305       3.207  89.558  10.151  1.00 31.11 LIG 0.01  A 
ATOM     66  CE2 TYR C 305       3.005  88.230  10.572  1.00 55.34 LIG 0.04  A 
ATOM     67  CZ  TYR C 305       2.518  87.992  11.852  1.00 93.94 LIG 0.07  A 
ATOM     68  CE1 TYR C 305       2.228  89.051  12.710  1.00 56.99 LIG 0.04  A 
ATOM     69  CD1 TYR C 305       2.433  90.361  12.275  1.00 51.39 LIG 0.01  A 
BRANCH 67 70
ATOM     70 OH   TYR C 305       2.317  86.699  12.273  1.00 93.94 LIG-0.36  OA
ATOM     71 HH   TYR C 305       2.074  86.701  13.077  1.00 93.94 LIG 0.22  HD
ENDBRANCH 67 70
ENDBRANCH 63 64
ENDBRANCH 1 63
TORSDOF 27
ENDMDL
MODEL 3
USER: ADFR SOLUTION from run 190
USER: SCORE 29.138829 LL:  -5.501 LR: -25.808 RR:   0.000 FEB: -17.754
USER: RMSD 0.717041
USER: SEED 189
USER: STATUS searching
USER: GENES 29
USER: genes 0 Translation |==|  0.39045 0.59173 0.56431
USER: genes 1 Rotation |==|  0.49313 0.50178 0.50678 0.99990
USER: genes 2 Torsion [CB]-CA--N-[C] |==|  0.28876
USER: genes 3 Torsion [N]-C--CA-[N] |==|  0.46305
USER: genes 4 Torsion [C]-CA--CB-[CG] |==|  0.54220
USER: genes 5 Torsion [CA]-CB--CG-[CD2] |==|  0.82481
USER: genes 6 Torsion [C]-CA--N-[C] |==|  0.64981
USER: genes 7 Torsion [N]-C--CA-[N] |==|  0.38642
USER: genes 8 Torsion [C]-CA--CB-[CG] |==|  0.34724
USER: genes 9 Torsion [CA]-CB--CG-[OD1] |==|  0.45377
USER: genes 10 Torsion [C]-CA--N-[C] |==|  0.84089
USER: genes 11 Torsion [N]-C--CA-[N] |==|  0.42122
USER: genes 12 Torsion [C]-CA--N-[C] |==|  0.82137
USER: genes 13 Torsion [C]-CA--CB-[CG] |==|  0.82672
USER: genes 14 Torsion [CA]-CB--CG-[CD] |==|  0.51102
USER: genes 15 Torsion [CB]-CG--CD-[OE1] |==|  0.97537
USER: genes 16 Torsion [N]-CA--C-[N] |==|  0.36161
USER: genes 17 Torsion [C]-N--CA-[CB] |==|  0.49513
USER: genes 18 Torsion [N]-CA--C-[N] |==|  0.36667
USER: genes 19 Torsion [C]-N--CA-[CB] |==|  0.41099
USER: genes 20 Torsion [N]-CA--CB-[CG] |==|  0.61767
USER: genes 21 Torsion [CA]-CB--CG-[CD] |==|  0.57348
USER: genes 22 Torsion [CB]-CG--CD-[NE2] |==|  0.52954
USER: genes 23 Torsion [N]-CA--C-[O] |==|  0.64500
USER: genes 24 Torsion [N]-CA--CB-[CG] |==|  0.81219
USER: genes 25 Torsion [CA]-CB--CG-[CD1] |==|  0.83704
USER: genes 26 Torsion [N]-CA--CB-[CG] |==|  0.24197
USER: genes 27 Torsion [CA]-CB--CG-[CD2] |==|  0.77790
USER: genes 28 Torsion [CE2]-CZ--OH-[HH] |==|  0.49980
ROOT
ATOM      1  CA  TYR C 305       4.587  92.355  10.619  1.00 17.70 LIG 0.18  C 
ENDROOT
BRANCH 1 2
ATOM      2  N   TYR C 305       5.326  91.999   9.422  1.00 18.26 LIG-0.35  N 
ATOM      3  C   LEU C 304       5.558  92.935   8.530  1.00 22.06 LIG 0.24  C 
ATOM      4 O    LEU C 304       5.115  94.054   8.649  1.00 19.49 LIG-0.27  OA
ATOM      5 H    TYR C 305       5.575  91.178   9.363  1.00 18.26 LIG 0.16  HD
BRANCH 3 6
ATOM      6  CA  LEU C 304       6.380  92.526   7.295  1.00 20.64 LIG 0.18  C 
BRANCH 6 7
ATOM      7  CB  LEU C 304       7.850  92.335   7.706  1.00 15.74 LIG 0.04  C 
BRANCH 7 8
ATOM      8  CG  LEU C 304       8.943  92.273   6.589  1.00 18.57 LIG-0.02  C 
ATOM      9  CD2 LEU C 304       8.711  91.090   5.713  1.00 21.94 LIG 0.01  C 
ATOM     10  CD1 LEU C 304      10.336  92.250   7.277  1.00 20.21 LIG 0.01  C 
ENDBRANCH 7 8
ENDBRANCH 6 7
BRANCH 6 11
ATOM     11  N   LEU C 304       6.283  93.554   6.280  1.00 19.38 LIG-0.35  N 
ATOM     12 H    LEU C 304       6.490  94.351   6.526  1.00 19.38 LIG 0.16  HD
ATOM     13  C   ASN C 303       5.891  93.196   5.069  1.00 24.27 LIG 0.24  C 
ATOM     14 O    ASN C 303       5.556  92.045   4.807  1.00 22.60 LIG-0.27  OA
BRANCH 13 15
ATOM     15  CA  ASN C 303       5.805  94.298   4.014  1.00 31.24 LIG 0.18  C 
BRANCH 15 16
ATOM     16  CB  ASN C 303       4.351  94.728   3.859  1.00 21.65 LIG 0.14  C 
BRANCH 16 17
ATOM     17  CG  ASN C 303       4.180  96.258   4.066  1.00 16.90 LIG 0.22  C 
ATOM     18 OD1  ASN C 303       3.148  96.848   3.686  1.00 28.96 LIG-0.27  OA
ATOM     19  ND2 ASN C 303       5.197  96.879   4.659  1.00 28.67 LIG-0.37  N 
ATOM     20 22HD ASN C 303       5.890  96.433   4.905  1.00 28.67 LIG 0.16  HD
ATOM     21 21HD ASN C 303       5.162  97.727   4.797  1.00 28.67 LIG 0.16  HD
ENDBRANCH 16 17
ENDBRANCH 15 16
BRANCH 15 22
ATOM     22  N   ASN C 303       6.320  93.786   2.745  1.00 31.60 LIG-0.35  N 
ATOM     23  C   GLU C 302       7.555  93.301   2.672  1.00 42.93 LIG 0.24  C 
ATOM     24 O    GLU C 302       8.341  93.317   3.652  1.00 23.80 LIG-0.27  OA
ATOM     25 H    ASN C 303       5.770  93.828   2.085  1.00 31.60 LIG 0.16  HD
BRANCH 23 26
ATOM     26  CA  GLU C 302       7.966  92.757   1.287  1.00 34.08 LIG 0.18  C 
BRANCH 26 27
ATOM     27  N   GLU C 302       9.379  92.860   1.064  1.00 23.23 LIG-0.35  N 
ATOM     28  C   ACE C 301       9.939  94.049   1.005  1.00 22.46 LIG 0.21  C 
ATOM     29 O    ACE C 301       9.294  95.077   1.133  1.00 29.32 LIG-0.27  OA
ATOM     30  CH3 ACE C 301      11.439  94.105   0.779  1.00 21.44 LIG 0.12  C 
ATOM     31 H    GLU C 302       9.795  92.112   0.979  1.00 23.23 LIG 0.16  HD
ENDBRANCH 26 27
BRANCH 26 32
ATOM     32  CB  GLU C 302       7.541  91.298   1.117  1.00 20.79 LIG 0.04  C 
BRANCH 32 33
ATOM     33  CG  GLU C 302       8.225  90.328   2.145  1.00 23.79 LIG 0.12  C 
BRANCH 33 34
ATOM     34  CD  GLU C 302       7.908  88.853   1.958  1.00 40.63 LIG 0.17  C 
ATOM     35 OE1  GLU C 302       7.036  88.477   1.157  1.00 32.87 LIG-0.65  OA
ATOM     36 OE2  GLU C 302       8.516  88.040   2.671  1.00 33.51 LIG-0.65  OA
ENDBRANCH 33 34
ENDBRANCH 32 33
ENDBRANCH 26 32
ENDBRANCH 23 26
ENDBRANCH 15 22
ENDBRANCH 13 15
ENDBRANCH 6 11
ENDBRANCH 3 6
ENDBRANCH 1 2
BRANCH 1 37
ATOM     37  C   TYR C 305       5.321  91.718  11.787  1.00 20.52 LIG 0.24  C 
ATOM     38 O    TYR C 305       5.646  90.529  11.738  1.00 23.93 LIG-0.27  OA
ATOM     39  N   PHE C 306       5.595  92.505  12.811  1.00 17.96 LIG-0.35  N 
ATOM     40 H    PHE C 306       5.404  93.342  12.861  1.00 17.96 LIG 0.16  HD
BRANCH 39 41
ATOM     41  CA  PHE C 306       6.297  91.920  14.002  1.00 18.04 LIG 0.18  C 
BRANCH 41 42
ATOM     42  C   PHE C 306       5.404  90.839  14.549  1.00 31.34 LIG 0.24  C 
ATOM     43  N   GLN C 307       5.982  89.670  14.813  1.00 26.23 LIG-0.35  N 
ATOM     44 H    GLN C 307       6.825  89.519  14.749  1.00 26.23 LIG 0.16  HD
ATOM     45 O    PHE C 306       4.209  91.045  14.728  1.00 30.18 LIG-0.27  OA
BRANCH 43 46
ATOM     46  CA  GLN C 307       5.180  88.523  15.246  1.00 27.99 LIG 0.16  C 
BRANCH 46 47
ATOM     47  CB  GLN C 307       5.857  87.266  14.714  1.00 36.24 LIG 0.04  C 
BRANCH 47 48
ATOM     48  CG  GLN C 307       4.918  86.249  14.153  1.00 42.27 LIG 0.10  C 
BRANCH 48 49
ATOM     49  CD  GLN C 307       5.512  84.855  14.250  1.00 30.08 LIG 0.21  C 
ATOM     50  NE2 GLN C 307       4.852  83.894  13.575  1.00 33.32 LIG-0.37  N 
ATOM     51 21HE GLN C 307       4.139  84.090  13.136  1.00 33.32 LIG 0.16  HD
ATOM     52 22HE GLN C 307       5.143  83.085  13.584  1.00 33.32 LIG 0.16  HD
ATOM     53 OE1  GLN C 307       6.557  84.640  14.911  1.00 31.63 LIG-0.27  OA
ENDBRANCH 48 49
ENDBRANCH 47 48
ENDBRANCH 46 47
BRANCH 46 54
ATOM     54  C   GLN C 307       4.867  88.383  16.729  1.00 39.25 LIG 0.22  C 
ATOM     55 O    GLN C 307       5.129  87.298  17.276  1.00 55.00 LIG-0.29  OA
ENDBRANCH 46 54
ENDBRANCH 43 46
ENDBRANCH 41 42
BRANCH 41 56
ATOM     56  CB  PHE C 306       6.562  92.985  15.056  1.00 20.53 LIG 0.07  C 
BRANCH 56 57
ATOM     57  CG  PHE C 306       7.541  93.992  14.635  1.00 20.37 LIG-0.06  A 
ATOM     58  CD2 PHE C 306       7.224  95.323  14.633  1.00 17.20 LIG 0.01  A 
ATOM     59  CE2 PHE C 306       8.162  96.283  14.283  1.00 19.90 LIG 0.00  A 
ATOM     60  CZ  PHE C 306       9.464  95.906  13.919  1.00 23.32 LIG 0.00  A 
ATOM     61  CE1 PHE C 306       9.789  94.546  13.916  1.00 27.54 LIG 0.00  A 
ATOM     62  CD1 PHE C 306       8.847  93.602  14.267  1.00 19.02 LIG 0.01  A 
ENDBRANCH 56 57
ENDBRANCH 41 56
ENDBRANCH 39 41
ENDBRANCH 1 37
BRANCH 1 63
ATOM     63  CB  TYR C 305       3.150  91.851  10.543  1.00 23.59 LIG 0.07  C 
BRANCH 63 64
ATOM     64  CG  TYR C 305       2.937  90.455  11.027  1.00 90.40 LIG-0.06  A 
ATOM     65  CD2 TYR C 305       3.241  89.380  10.209  1.00 31.11 LIG 0.01  A 
ATOM     66  CE2 TYR C 305       3.048  88.055  10.644  1.00 55.34 LIG 0.04  A 
ATOM     67  CZ  TYR C 305       2.545  87.827  11.920  1.00 93.94 LIG 0.07  A 
ATOM     68  CE1 TYR C 305       2.232  88.894  12.761  1.00 56.99 LIG 0.04  A 
ATOM     69  CD1 TYR C 305       2.429  90.200  12.312  1.00 51.39 LIG 0.01  A 
BRANCH 67 70
ATOM     70 OH   TYR C 305       2.353  86.537  12.354  1.00 93.94 LIG-0.36  OA
ATOM     71 HH   TYR C 305       2.048  86.548  13.137  1.00 93.94 LIG 0.22  HD
ENDBRANCH 67 70
ENDBRANCH 63 64
ENDBRANCH 1 63
TORSDOF 27
ENDMDL
MODEL 4
USER: ADFR SOLUTION from run 189
USER: SCORE 27.763957 LL:  -5.221 LR: -25.656 RR:   0.000 FEB: -17.602
USER: RMSD 4.229992
USER: SEED 188
USER: STATUS no improvement in best in 8 clusters for 5 generations
USER: GENES 29
USER: genes 0 Translation |==|  0.39468 0.61219 0.55013
USER: genes 1 Rotation |==|  0.49374 0.54310 0.46205 0.99665
USER: genes 2 Torsion [CB]-CA--N-[C] |==|  0.28697
USER: genes 3 Torsion [N]-C--CA-[N] |==|  0.53255
USER: genes 4 Torsion [C]-CA--CB-[CG] |==|  0.74830
USER: genes 5 Torsion [CA]-CB--CG-[CD2] |==|  0.62440
USER: genes 6 Torsion [C]-CA--N-[C] |==|  0.58378
USER: genes 7 Torsion [N]-C--CA-[N] |==|  0.81893
USER: genes 8 Torsion [C]-CA--CB-[CG] |==|  0.42153
USER: genes 9 Torsion [CA]-CB--CG-[OD1] |==|  0.21943
USER: genes 10 Torsion [C]-CA--N-[C] |==|  0.67039
USER: genes 11 Torsion [N]-C--CA-[N] |==|  0.36970
USER: genes 12 Torsion [C]-CA--N-[C] |==|  0.86111
USER: genes 13 Torsion [C]-CA--CB-[CG] |==|  0.62161
USER: genes 14 Torsion [CA]-CB--CG-[CD] |==|  0.83527
USER: genes 15 Torsion [CB]-CG--CD-[OE1] |==|  0.77802
USER: genes 16 Torsion [N]-CA--C-[N] |==|  0.41042
USER: genes 17 Torsion [C]-N--CA-[CB] |==|  0.47505
USER: genes 18 Torsion [N]-CA--C-[N] |==|  0.40556
USER: genes 19 Torsion [C]-N--CA-[CB] |==|  0.39964
USER: genes 20 Torsion [N]-CA--CB-[CG] |==|  0.62767
USER: genes 21 Torsion [CA]-CB--CG-[CD] |==|  0.60365
USER: genes 22 Torsion [CB]-CG--CD-[NE2] |==|  0.51970
USER: genes 23 Torsion [N]-CA--C-[O] |==|  0.60726
USER: genes 24 Torsion [N]-CA--CB-[CG] |==|  0.79186
USER: genes 25 Torsion [CA]-CB--CG-[CD1] |==|  0.84801
USER: genes 26 Torsion [N]-CA--CB-[CG] |==|  0.25078
USER: genes 27 Torsion [CA]-CB--CG-[CD2] |==|  0.82234
USER: genes 28 Torsion [CE2]-CZ--OH-[HH] |==|  0.43077
ROOT
ATOM      1  CA  TYR C 305       4.666  92.815  10.268  1.00 17.70 LIG 0.18  C 
ENDROOT
BRANCH 1 2
ATOM      2  N   TYR C 305       5.126  92.349   8.973  1.00 18.26 LIG-0.35  N 
ATOM      3  C   LEU C 304       5.363  93.239   8.037  1.00 22.06 LIG 0.24  C 
ATOM      4 O    LEU C 304       5.142  94.417   8.205  1.00 19.49 LIG-0.27  OA
ATOM      5 H    TYR C 305       5.219  91.498   8.890  1.00 18.26 LIG 0.16  HD
BRANCH 3 6
ATOM      6  CA  LEU C 304       5.888  92.707   6.692  1.00 20.64 LIG 0.18  C 
BRANCH 6 7
ATOM      7  CB  LEU C 304       7.042  91.725   6.952  1.00 15.74 LIG 0.04  C 
BRANCH 7 8
ATOM      8  CG  LEU C 304       8.504  92.277   7.005  1.00 18.57 LIG-0.02  C 
ATOM      9  CD2 LEU C 304       9.414  91.391   6.225  1.00 21.94 LIG 0.01  C 
ATOM     10  CD1 LEU C 304       8.920  92.405   8.497  1.00 20.21 LIG 0.01  C 
ENDBRANCH 7 8
ENDBRANCH 6 7
BRANCH 6 11
ATOM     11  N   LEU C 304       6.355  93.810   5.878  1.00 19.38 LIG-0.35  N 
ATOM     12 H    LEU C 304       6.667  94.489   6.302  1.00 19.38 LIG 0.16  HD
ATOM     13  C   ASN C 303       6.268  93.692   4.564  1.00 24.27 LIG 0.24  C 
ATOM     14 O    ASN C 303       5.757  92.713   4.030  1.00 22.60 LIG-0.27  OA
BRANCH 13 15
ATOM     15  CA  ASN C 303       6.777  94.866   3.727  1.00 31.24 LIG 0.18  C 
BRANCH 15 16
ATOM     16  CB  ASN C 303       8.221  95.164   4.113  1.00 21.65 LIG 0.14  C 
BRANCH 16 17
ATOM     17  CG  ASN C 303       9.013  95.789   2.932  1.00 16.90 LIG 0.22  C 
ATOM     18 OD1  ASN C 303       8.894  96.996   2.641  1.00 28.96 LIG-0.27  OA
ATOM     19  ND2 ASN C 303       9.808  94.954   2.264  1.00 28.67 LIG-0.37  N 
ATOM     20 22HD ASN C 303       9.860  94.129   2.499  1.00 28.67 LIG 0.16  HD
ATOM     21 21HD ASN C 303      10.269  95.241   1.597  1.00 28.67 LIG 0.16  HD
ENDBRANCH 16 17
ENDBRANCH 15 16
BRANCH 15 22
ATOM     22  N   ASN C 303       5.934  96.033   3.980  1.00 31.60 LIG-0.35  N 
ATOM     23  C   GLU C 302       5.245  96.587   2.987  1.00 42.93 LIG 0.24  C 
ATOM     24 O    GLU C 302       5.333  96.181   1.801  1.00 23.80 LIG-0.27  OA
ATOM     25 H    ASN C 303       5.929  96.311   4.793  1.00 31.60 LIG 0.16  HD
BRANCH 23 26
ATOM     26  CA  GLU C 302       4.364  97.790   3.390  1.00 34.08 LIG 0.18  C 
BRANCH 26 27
ATOM     27  N   GLU C 302       4.520  98.897   2.492  1.00 23.23 LIG-0.35  N 
ATOM     28  C   ACE C 301       5.728  99.320   2.190  1.00 22.46 LIG 0.21  C 
ATOM     29 O    ACE C 301       6.731  98.800   2.652  1.00 29.32 LIG-0.27  OA
ATOM     30  CH3 ACE C 301       5.841 100.488   1.227  1.00 21.44 LIG 0.12  C 
ATOM     31 H    GLU C 302       3.788  99.234   2.192  1.00 23.23 LIG 0.16  HD
ENDBRANCH 26 27
BRANCH 26 32
ATOM     32  CB  GLU C 302       2.887  97.400   3.447  1.00 20.79 LIG 0.04  C 
BRANCH 32 33
ATOM     33  CG  GLU C 302       1.938  98.461   2.785  1.00 23.79 LIG 0.12  C 
BRANCH 33 34
ATOM     34  CD  GLU C 302       1.994  99.853   3.393  1.00 40.63 LIG 0.17  C 
ATOM     35 OE1  GLU C 302       1.386 100.124   4.443  1.00 32.87 LIG-0.65  OA
ATOM     36 OE2  GLU C 302       2.627 100.724   2.777  1.00 33.51 LIG-0.65  OA
ENDBRANCH 33 34
ENDBRANCH 32 33
ENDBRANCH 26 32
ENDBRANCH 23 26
ENDBRANCH 15 22
ENDBRANCH 13 15
ENDBRANCH 6 11
ENDBRANCH 3 6
ENDBRANCH 1 2
BRANCH 1 37
ATOM     37  C   TYR C 305       5.453  92.040  11.311  1.00 20.52 LIG 0.24  C 
ATOM     38 O    TYR C 305       5.824  90.887  11.075  1.00 23.93 LIG-0.27  OA
ATOM     39  N   PHE C 306       5.719  92.673  12.439  1.00 17.96 LIG-0.35  N 
ATOM     40 H    PHE C 306       5.495  93.483  12.621  1.00 17.96 LIG 0.16  HD
BRANCH 39 41
ATOM     41  CA  PHE C 306       6.472  91.944  13.514  1.00 18.04 LIG 0.18  C 
BRANCH 41 42
ATOM     42  C   PHE C 306       5.562  90.862  14.030  1.00 31.34 LIG 0.24  C 
ATOM     43  N   GLN C 307       6.145  89.730  14.414  1.00 26.23 LIG-0.35  N 
ATOM     44 H    GLN C 307       6.995  89.606  14.442  1.00 26.23 LIG 0.16  HD
ATOM     45 O    PHE C 306       4.349  91.035  14.079  1.00 30.18 LIG-0.27  OA
BRANCH 43 46
ATOM     46  CA  GLN C 307       5.339  88.580  14.829  1.00 27.99 LIG 0.16  C 
BRANCH 46 47
ATOM     47  CB  GLN C 307       6.054  87.324  14.346  1.00 36.24 LIG 0.04  C 
BRANCH 47 48
ATOM     48  CG  GLN C 307       5.165  86.323  13.684  1.00 42.27 LIG 0.10  C 
BRANCH 48 49
ATOM     49  CD  GLN C 307       5.586  84.908  14.040  1.00 30.08 LIG 0.21  C 
ATOM     50  NE2 GLN C 307       4.944  83.927  13.377  1.00 33.32 LIG-0.37  N 
ATOM     51 21HE GLN C 307       4.334  84.124  12.803  1.00 33.32 LIG 0.16  HD
ATOM     52 22HE GLN C 307       5.143  83.104  13.527  1.00 33.32 LIG 0.16  HD
ATOM     53 OE1  GLN C 307       6.484  84.694  14.889  1.00 31.63 LIG-0.27  OA
ENDBRANCH 48 49
ENDBRANCH 47 48
ENDBRANCH 46 47
BRANCH 46 54
ATOM     54  C   GLN C 307       4.963  88.457  16.299  1.00 39.25 LIG 0.22  C 
ATOM     55 O    GLN C 307       4.970  87.322  16.805  1.00 55.00 LIG-0.29  OA
ENDBRANCH 46 54
ENDBRANCH 43 46
ENDBRANCH 41 42
BRANCH 41 56
ATOM     56  CB  PHE C 306       6.874  92.891  14.637  1.00 20.53 LIG 0.07  C 
BRANCH 56 57
ATOM     57  CG  PHE C 306       7.993  93.770  14.285  1.00 20.37 LIG-0.06  A 
ATOM     58  CD2 PHE C 306       7.898  95.126  14.444  1.00 17.20 LIG 0.01  A 
ATOM     59  CE2 PHE C 306       8.971  95.958  14.160  1.00 19.90 LIG 0.00  A 
ATOM     60  CZ  PHE C 306      10.184  95.422  13.698  1.00 23.32 LIG 0.00  A 
ATOM     61  CE1 PHE C 306      10.282  94.038  13.532  1.00 27.54 LIG 0.00  A 
ATOM     62  CD1 PHE C 306       9.207  93.223  13.819  1.00 19.02 LIG 0.01  A 
ENDBRANCH 56 57
ENDBRANCH 41 56
ENDBRANCH 39 41
ENDBRANCH 1 37
BRANCH 1 63
ATOM     63  CB  TYR C 305       3.170  92.579  10.433  1.00 23.59 LIG 0.07  C 
BRANCH 63 64
ATOM     64  CG  TYR C 305       2.793  91.266  11.035  1.00 90.40 LIG-0.06  A 
ATOM     65  CD2 TYR C 305       3.086  90.086  10.373  1.00 31.11 LIG 0.01  A 
ATOM     66  CE2 TYR C 305       2.741  88.836  10.922  1.00 55.34 LIG 0.04  A 
ATOM     67  CZ  TYR C 305       2.096  88.791  12.152  1.00 93.94 LIG 0.07  A 
ATOM     68  CE1 TYR C 305       1.791  89.966  12.838  1.00 56.99 LIG 0.04  A 
ATOM     69  CD1 TYR C 305       2.140  91.196  12.278  1.00 51.39 LIG 0.01  A 
BRANCH 67 70
ATOM     70 OH   TYR C 305       1.754  87.576  12.697  1.00 93.94 LIG-0.36  OA
ATOM     71 HH   TYR C 305       1.698  87.649  13.532  1.00 93.94 LIG 0.22  HD
ENDBRANCH 67 70
ENDBRANCH 63 64
ENDBRANCH 1 63
TORSDOF 27
ENDMDL
MODEL 5
USER: ADFR SOLUTION from run 28
USER: SCORE 28.348019 LL:  -5.943 LR: -24.785 RR:   0.000 FEB: -16.731
USER: RMSD 2.505171
USER: SEED 27
USER: STATUS searching
USER: GENES 29
USER: genes 0 Translation |==|  0.38753 0.59099 0.56302
USER: genes 1 Rotation |==|  0.49424 0.49940 0.51148 0.99983
USER: genes 2 Torsion [CB]-CA--N-[C] |==|  0.29806
USER: genes 3 Torsion [N]-C--CA-[N] |==|  0.47222
USER: genes 4 Torsion [C]-CA--CB-[CG] |==|  0.55735
USER: genes 5 Torsion [CA]-CB--CG-[CD2] |==|  0.80236
USER: genes 6 Torsion [C]-CA--N-[C] |==|  0.64017
USER: genes 7 Torsion [N]-C--CA-[N] |==|  0.34567
USER: genes 8 Torsion [C]-CA--CB-[CG] |==|  0.34531
USER: genes 9 Torsion [CA]-CB--CG-[OD1] |==|  0.48060
USER: genes 10 Torsion [C]-CA--N-[C] |==|  0.77468
USER: genes 11 Torsion [N]-C--CA-[N] |==|  0.92230
USER: genes 12 Torsion [C]-CA--N-[C] |==|  0.80641
USER: genes 13 Torsion [C]-CA--CB-[CG] |==|  0.09342
USER: genes 14 Torsion [CA]-CB--CG-[CD] |==|  0.73628
USER: genes 15 Torsion [CB]-CG--CD-[OE1] |==|  0.77748
USER: genes 16 Torsion [N]-CA--C-[N] |==|  0.36579
USER: genes 17 Torsion [C]-N--CA-[CB] |==|  0.48916
USER: genes 18 Torsion [N]-CA--C-[N] |==|  0.36693
USER: genes 19 Torsion [C]-N--CA-[CB] |==|  0.40729
USER: genes 20 Torsion [N]-CA--CB-[CG] |==|  0.61064
USER: genes 21 Torsion [CA]-CB--CG-[CD] |==|  0.57237
USER: genes 22 Torsion [CB]-CG--CD-[NE2] |==|  0.54104
USER: genes 23 Torsion [N]-CA--C-[O] |==|  0.65876
USER: genes 24 Torsion [N]-CA--CB-[CG] |==|  0.80931
USER: genes 25 Torsion [CA]-CB--CG-[CD1] |==|  0.84181
USER: genes 26 Torsion [N]-CA--CB-[CG] |==|  0.24477
USER: genes 27 Torsion [CA]-CB--CG-[CD2] |==|  0.77788
USER: genes 28 Torsion [CE2]-CZ--OH-[HH] |==|  0.49088
ROOT
ATOM      1  CA  TYR C 305       4.532  92.338  10.587  1.00 17.70 LIG 0.18  C 
ENDROOT
BRANCH 1 2
ATOM      2  N   TYR C 305       5.289  92.002   9.395  1.00 18.26 LIG-0.35  N 
ATOM      3  C   LEU C 304       5.569  92.960   8.542  1.00 22.06 LIG 0.24  C 
ATOM      4 O    LEU C 304       5.155  94.088   8.690  1.00 19.49 LIG-0.27  OA
ATOM      5 H    TYR C 305       5.516  91.176   9.314  1.00 18.26 LIG 0.16  HD
BRANCH 3 6
ATOM      6  CA  LEU C 304       6.408  92.570   7.313  1.00 20.64 LIG 0.18  C 
BRANCH 6 7
ATOM      7  CB  LEU C 304       7.841  92.242   7.762  1.00 15.74 LIG 0.04  C 
BRANCH 7 8
ATOM      8  CG  LEU C 304       8.993  92.295   6.705  1.00 18.57 LIG-0.02  C 
ATOM      9  CD2 LEU C 304       8.868  91.153   5.756  1.00 21.94 LIG 0.01  C 
ATOM     10  CD1 LEU C 304      10.348  92.301   7.467  1.00 20.21 LIG 0.01  C 
ENDBRANCH 7 8
ENDBRANCH 6 7
BRANCH 6 11
ATOM     11  N   LEU C 304       6.428  93.666   6.366  1.00 19.38 LIG-0.35  N 
ATOM     12 H    LEU C 304       6.639  94.437   6.683  1.00 19.38 LIG 0.16  HD
ATOM     13  C   ASN C 303       6.127  93.403   5.106  1.00 24.27 LIG 0.24  C 
ATOM     14 O    ASN C 303       5.780  92.285   4.738  1.00 22.60 LIG-0.27  OA
BRANCH 13 15
ATOM     15  CA  ASN C 303       6.165  94.575   4.125  1.00 31.24 LIG 0.18  C 
BRANCH 15 16
ATOM     16  CB  ASN C 303       4.757  94.832   3.601  1.00 21.65 LIG 0.14  C 
BRANCH 16 17
ATOM     17  CG  ASN C 303       4.311  96.299   3.846  1.00 16.90 LIG 0.22  C 
ATOM     18 OD1  ASN C 303       3.243  96.736   3.374  1.00 28.96 LIG-0.27  OA
ATOM     19  ND2 ASN C 303       5.141  97.041   4.577  1.00 28.67 LIG-0.37  N 
ATOM     20 22HD ASN C 303       5.868  96.699   4.884  1.00 28.67 LIG 0.16  HD
ATOM     21 21HD ASN C 303       4.950  97.863   4.743  1.00 28.67 LIG 0.16  HD
ENDBRANCH 16 17
ENDBRANCH 15 16
BRANCH 15 22
ATOM     22  N   ASN C 303       7.064  94.246   3.021  1.00 31.60 LIG-0.35  N 
ATOM     23  C   GLU C 302       8.378  94.389   3.164  1.00 42.93 LIG 0.24  C 
ATOM     24 O    GLU C 302       8.891  94.863   4.208  1.00 23.80 LIG-0.27  OA
ATOM     25 H    ASN C 303       6.677  93.964   2.307  1.00 31.60 LIG 0.16  HD
BRANCH 23 26
ATOM     26  CA  GLU C 302       9.221  93.972   1.939  1.00 34.08 LIG 0.18  C 
BRANCH 26 27
ATOM     27  N   GLU C 302       8.575  92.958   1.159  1.00 23.23 LIG-0.35  N 
ATOM     28  C   ACE C 301       8.456  91.743   1.649  1.00 22.46 LIG 0.21  C 
ATOM     29 O    ACE C 301       8.882  91.444   2.753  1.00 29.32 LIG-0.27  OA
ATOM     30  CH3 ACE C 301       7.754  90.707   0.789  1.00 21.44 LIG 0.12  C 
ATOM     31 H    GLU C 302       8.291  93.210   0.387  1.00 23.23 LIG 0.16  HD
ENDBRANCH 26 27
BRANCH 26 32
ATOM     32  CB  GLU C 302       9.524  95.172   1.042  1.00 20.79 LIG 0.04  C 
BRANCH 32 33
ATOM     33  CG  GLU C 302       9.706  96.513   1.839  1.00 23.79 LIG 0.12  C 
BRANCH 33 34
ATOM     34  CD  GLU C 302       8.460  97.377   1.950  1.00 40.63 LIG 0.17  C 
ATOM     35 OE1  GLU C 302       8.098  98.112   1.015  1.00 32.87 LIG-0.65  OA
ATOM     36 OE2  GLU C 302       7.845  97.362   3.027  1.00 33.51 LIG-0.65  OA
ENDBRANCH 33 34
ENDBRANCH 32 33
ENDBRANCH 26 32
ENDBRANCH 23 26
ENDBRANCH 15 22
ENDBRANCH 13 15
ENDBRANCH 6 11
ENDBRANCH 3 6
ENDBRANCH 1 2
BRANCH 1 37
ATOM     37  C   TYR C 305       5.268  91.709  11.759  1.00 20.52 LIG 0.24  C 
ATOM     38 O    TYR C 305       5.639  90.535  11.697  1.00 23.93 LIG-0.27  OA
ATOM     39  N   PHE C 306       5.490  92.488  12.801  1.00 17.96 LIG-0.35  N 
ATOM     40 H    PHE C 306       5.265  93.316  12.862  1.00 17.96 LIG 0.16  HD
BRANCH 39 41
ATOM     41  CA  PHE C 306       6.190  91.910  13.996  1.00 18.04 LIG 0.18  C 
BRANCH 41 42
ATOM     42  C   PHE C 306       5.305  90.821  14.539  1.00 31.34 LIG 0.24  C 
ATOM     43  N   GLN C 307       5.892  89.658  14.808  1.00 26.23 LIG-0.35  N 
ATOM     44 H    GLN C 307       6.738  89.515  14.750  1.00 26.23 LIG 0.16  HD
ATOM     45 O    PHE C 306       4.107  91.016  14.710  1.00 30.18 LIG-0.27  OA
BRANCH 43 46
ATOM     46  CA  GLN C 307       5.099  88.504  15.237  1.00 27.99 LIG 0.16  C 
BRANCH 46 47
ATOM     47  CB  GLN C 307       5.773  87.255  14.683  1.00 36.24 LIG 0.04  C 
BRANCH 47 48
ATOM     48  CG  GLN C 307       4.828  86.216  14.175  1.00 42.27 LIG 0.10  C 
BRANCH 48 49
ATOM     49  CD  GLN C 307       5.457  84.835  14.245  1.00 30.08 LIG 0.21  C 
ATOM     50  NE2 GLN C 307       4.829  83.876  13.538  1.00 33.32 LIG-0.37  N 
ATOM     51 21HE GLN C 307       4.118  84.065  13.094  1.00 33.32 LIG 0.16  HD
ATOM     52 22HE GLN C 307       5.141  83.075  13.530  1.00 33.32 LIG 0.16  HD
ATOM     53 OE1  GLN C 307       6.497  84.630  14.915  1.00 31.63 LIG-0.27  OA
ENDBRANCH 48 49
ENDBRANCH 47 48
ENDBRANCH 46 47
BRANCH 46 54
ATOM     54  C   GLN C 307       4.803  88.346  16.722  1.00 39.25 LIG 0.22  C 
ATOM     55 O    GLN C 307       5.161  87.291  17.274  1.00 55.00 LIG-0.29  OA
ENDBRANCH 46 54
ENDBRANCH 43 46
ENDBRANCH 41 42
BRANCH 41 56
ATOM     56  CB  PHE C 306       6.440  92.978  15.052  1.00 20.53 LIG 0.07  C 
BRANCH 56 57
ATOM     57  CG  PHE C 306       7.430  93.980  14.646  1.00 20.37 LIG-0.06  A 
ATOM     58  CD2 PHE C 306       7.129  95.315  14.667  1.00 17.20 LIG 0.01  A 
ATOM     59  CE2 PHE C 306       8.077  96.270  14.331  1.00 19.90 LIG 0.00  A 
ATOM     60  CZ  PHE C 306       9.373  95.883  13.957  1.00 23.32 LIG 0.00  A 
ATOM     61  CE1 PHE C 306       9.683  94.520  13.931  1.00 27.54 LIG 0.00  A 
ATOM     62  CD1 PHE C 306       8.730  93.582  14.268  1.00 19.02 LIG 0.01  A 
ENDBRANCH 56 57
ENDBRANCH 41 56
ENDBRANCH 39 41
ENDBRANCH 1 37
BRANCH 1 63
ATOM     63  CB  TYR C 305       3.106  91.808  10.496  1.00 23.59 LIG 0.07  C 
BRANCH 63 64
ATOM     64  CG  TYR C 305       2.911  90.414  10.993  1.00 90.40 LIG-0.06  A 
ATOM     65  CD2 TYR C 305       3.246  89.335  10.193  1.00 31.11 LIG 0.01  A 
ATOM     66  CE2 TYR C 305       3.070  88.012  10.641  1.00 55.34 LIG 0.04  A 
ATOM     67  CZ  TYR C 305       2.552  87.790  11.911  1.00 93.94 LIG 0.07  A 
ATOM     68  CE1 TYR C 305       2.207  88.860  12.735  1.00 56.99 LIG 0.04  A 
ATOM     69  CD1 TYR C 305       2.387  90.165  12.274  1.00 51.39 LIG 0.01  A 
BRANCH 67 70
ATOM     70 OH   TYR C 305       2.376  86.502  12.359  1.00 93.94 LIG-0.36  OA
ATOM     71 HH   TYR C 305       2.101  86.516  13.152  1.00 93.94 LIG 0.22  HD
ENDBRANCH 67 70
ENDBRANCH 63 64
ENDBRANCH 1 63
TORSDOF 27
ENDMDL
MODEL 6
USER: ADFR SOLUTION from run 129
USER: SCORE 28.069817 LL:  -5.705 LR: -24.766 RR:   0.000 FEB: -16.712
USER: RMSD 3.133549
USER: SEED 128
USER: STATUS searching
USER: GENES 29
USER: genes 0 Translation |==|  0.39387 0.59312 0.55834
USER: genes 1 Rotation |==|  0.50419 0.49397 0.52156 0.99948
USER: genes 2 Torsion [CB]-CA--N-[C] |==|  0.28250
USER: genes 3 Torsion [N]-C--CA-[N] |==|  0.42944
USER: genes 4 Torsion [C]-CA--CB-[CG] |==|  0.41936
USER: genes 5 Torsion [CA]-CB--CG-[CD2] |==|  0.91843
USER: genes 6 Torsion [C]-CA--N-[C] |==|  0.75289
USER: genes 7 Torsion [N]-C--CA-[N] |==|  0.50435
USER: genes 8 Torsion [C]-CA--CB-[CG] |==|  0.35040
USER: genes 9 Torsion [CA]-CB--CG-[OD1] |==|  0.34792
USER: genes 10 Torsion [C]-CA--N-[C] |==|  0.55427
USER: genes 11 Torsion [N]-C--CA-[N] |==|  0.39546
USER: genes 12 Torsion [C]-CA--N-[C] |==|  0.83121
USER: genes 13 Torsion [C]-CA--CB-[CG] |==|  0.11434
USER: genes 14 Torsion [CA]-CB--CG-[CD] |==|  0.17156
USER: genes 15 Torsion [CB]-CG--CD-[OE1] |==|  0.11495
USER: genes 16 Torsion [N]-CA--C-[N] |==|  0.35941
USER: genes 17 Torsion [C]-N--CA-[CB] |==|  0.49456
USER: genes 18 Torsion [N]-CA--C-[N] |==|  0.36753
USER: genes 19 Torsion [C]-N--CA-[CB] |==|  0.43130
USER: genes 20 Torsion [N]-CA--CB-[CG] |==|  0.66764
USER: genes 21 Torsion [CA]-CB--CG-[CD] |==|  0.65925
USER: genes 22 Torsion [CB]-CG--CD-[NE2] |==|  0.41109
USER: genes 23 Torsion [N]-CA--C-[O] |==|  0.58793
USER: genes 24 Torsion [N]-CA--CB-[CG] |==|  0.81001
USER: genes 25 Torsion [CA]-CB--CG-[CD1] |==|  0.83806
USER: genes 26 Torsion [N]-CA--CB-[CG] |==|  0.25980
USER: genes 27 Torsion [CA]-CB--CG-[CD2] |==|  0.76860
USER: genes 28 Torsion [CE2]-CZ--OH-[HH] |==|  0.52404
ROOT
ATOM      1  CA  TYR C 305       4.651  92.386  10.471  1.00 17.70 LIG 0.18  C 
ENDROOT
BRANCH 1 2
ATOM      2  N   TYR C 305       5.444  92.129   9.283  1.00 18.26 LIG-0.35  N 
ATOM      3  C   LEU C 304       5.607  93.104   8.418  1.00 22.06 LIG 0.24  C 
ATOM      4 O    LEU C 304       5.061  94.175   8.553  1.00 19.49 LIG-0.27  OA
ATOM      5 H    TYR C 305       5.769  91.336   9.211  1.00 18.26 LIG 0.16  HD
BRANCH 3 6
ATOM      6  CA  LEU C 304       6.489  92.803   7.193  1.00 20.64 LIG 0.18  C 
BRANCH 6 7
ATOM      7  CB  LEU C 304       7.963  93.035   7.562  1.00 15.74 LIG 0.04  C 
BRANCH 7 8
ATOM      8  CG  LEU C 304       9.064  92.204   6.825  1.00 18.57 LIG-0.02  C 
ATOM      9  CD2 LEU C 304       8.516  90.879   6.417  1.00 21.94 LIG 0.01  C 
ATOM     10  CD1 LEU C 304      10.293  92.084   7.769  1.00 20.21 LIG 0.01  C 
ENDBRANCH 7 8
ENDBRANCH 6 7
BRANCH 6 11
ATOM     11  N   LEU C 304       6.114  93.670   6.096  1.00 19.38 LIG-0.35  N 
ATOM     12 H    LEU C 304       6.538  94.416   6.040  1.00 19.38 LIG 0.16  HD
ATOM     13  C   ASN C 303       5.164  93.257   5.275  1.00 24.27 LIG 0.24  C 
ATOM     14 O    ASN C 303       4.562  92.203   5.452  1.00 22.60 LIG-0.27  OA
BRANCH 13 15
ATOM     15  CA  ASN C 303       4.794  94.187   4.119  1.00 31.24 LIG 0.18  C 
BRANCH 15 16
ATOM     16  CB  ASN C 303       4.355  95.533   4.684  1.00 21.65 LIG 0.14  C 
BRANCH 16 17
ATOM     17  CG  ASN C 303       5.158  96.707   4.058  1.00 16.90 LIG 0.22  C 
ATOM     18 OD1  ASN C 303       4.577  97.665   3.511  1.00 28.96 LIG-0.27  OA
ATOM     19  ND2 ASN C 303       6.483  96.611   4.143  1.00 28.67 LIG-0.37  N 
ATOM     20 22HD ASN C 303       6.842  95.932   4.530  1.00 28.67 LIG 0.16  HD
ATOM     21 21HD ASN C 303       6.980  97.229   3.812  1.00 28.67 LIG 0.16  HD
ENDBRANCH 16 17
ENDBRANCH 15 16
BRANCH 15 22
ATOM     22  N   ASN C 303       3.709  93.583   3.349  1.00 31.60 LIG-0.35  N 
ATOM     23  C   GLU C 302       3.471  93.982   2.104  1.00 42.93 LIG 0.24  C 
ATOM     24 O    GLU C 302       4.112  94.919   1.566  1.00 23.80 LIG-0.27  OA
ATOM     25 H    ASN C 303       3.263  92.974   3.761  1.00 31.60 LIG 0.16  HD
BRANCH 23 26
ATOM     26  CA  GLU C 302       2.323  93.241   1.384  1.00 34.08 LIG 0.18  C 
BRANCH 26 27
ATOM     27  N   GLU C 302       1.553  94.119   0.551  1.00 23.23 LIG-0.35  N 
ATOM     28  C   ACE C 301       0.924  95.139   1.094  1.00 22.46 LIG 0.21  C 
ATOM     29 O    ACE C 301       0.972  95.367   2.291  1.00 29.32 LIG-0.27  OA
ATOM     30  CH3 ACE C 301       0.132  96.045   0.168  1.00 21.44 LIG 0.12  C 
ATOM     31 H    GLU C 302       1.545  93.921  -0.286  1.00 23.23 LIG 0.16  HD
ENDBRANCH 26 27
BRANCH 26 32
ATOM     32  CB  GLU C 302       2.856  92.089   0.533  1.00 20.79 LIG 0.04  C 
BRANCH 32 33
ATOM     33  CG  GLU C 302       4.000  91.274   1.237  1.00 23.79 LIG 0.12  C 
BRANCH 33 34
ATOM     34  CD  GLU C 302       3.604  90.586   2.533  1.00 40.63 LIG 0.17  C 
ATOM     35 OE1  GLU C 302       2.511  90.007   2.649  1.00 32.87 LIG-0.65  OA
ATOM     36 OE2  GLU C 302       4.391  90.666   3.489  1.00 33.51 LIG-0.65  OA
ENDBRANCH 33 34
ENDBRANCH 32 33
ENDBRANCH 26 32
ENDBRANCH 23 26
ENDBRANCH 15 22
ENDBRANCH 13 15
ENDBRANCH 6 11
ENDBRANCH 3 6
ENDBRANCH 1 2
BRANCH 1 37
ATOM     37  C   TYR C 305       5.389  91.740  11.632  1.00 20.52 LIG 0.24  C 
ATOM     38 O    TYR C 305       5.772  90.571  11.547  1.00 23.93 LIG-0.27  OA
ATOM     39  N   PHE C 306       5.599  92.499  12.691  1.00 17.96 LIG-0.35  N 
ATOM     40 H    PHE C 306       5.366  93.324  12.768  1.00 17.96 LIG 0.16  HD
BRANCH 39 41
ATOM     41  CA  PHE C 306       6.302  91.903  13.877  1.00 18.04 LIG 0.18  C 
BRANCH 41 42
ATOM     42  C   PHE C 306       5.449  90.763  14.364  1.00 31.34 LIG 0.24  C 
ATOM     43  N   GLN C 307       6.075  89.615  14.605  1.00 26.23 LIG-0.35  N 
ATOM     44 H    GLN C 307       6.926  89.506  14.559  1.00 26.23 LIG 0.16  HD
ATOM     45 O    PHE C 306       4.241  90.907  14.517  1.00 30.18 LIG-0.27  OA
BRANCH 43 46
ATOM     46  CA  GLN C 307       5.319  88.418  14.979  1.00 27.99 LIG 0.16  C 
BRANCH 46 47
ATOM     47  CB  GLN C 307       6.158  87.207  14.587  1.00 36.24 LIG 0.04  C 
BRANCH 47 48
ATOM     48  CG  GLN C 307       5.506  86.298  13.597  1.00 42.27 LIG 0.10  C 
BRANCH 48 49
ATOM     49  CD  GLN C 307       5.401  84.887  14.149  1.00 30.08 LIG 0.21  C 
ATOM     50  NE2 GLN C 307       4.330  84.181  13.737  1.00 33.32 LIG-0.37  N 
ATOM     51 21HE GLN C 307       3.759  84.539  13.203  1.00 33.32 LIG 0.16  HD
ATOM     52 22HE GLN C 307       4.219  83.373  14.007  1.00 33.32 LIG 0.16  HD
ATOM     53 OE1  GLN C 307       6.272  84.428  14.926  1.00 31.63 LIG-0.27  OA
ENDBRANCH 48 49
ENDBRANCH 47 48
ENDBRANCH 46 47
BRANCH 46 54
ATOM     54  C   GLN C 307       4.828  88.294  16.414  1.00 39.25 LIG 0.22  C 
ATOM     55 O    GLN C 307       4.747  87.154  16.902  1.00 55.00 LIG-0.29  OA
ENDBRANCH 46 54
ENDBRANCH 43 46
ENDBRANCH 41 42
BRANCH 41 56
ATOM     56  CB  PHE C 306       6.495  92.940  14.975  1.00 20.53 LIG 0.07  C 
BRANCH 56 57
ATOM     57  CG  PHE C 306       7.449  93.995  14.620  1.00 20.37 LIG-0.06  A 
ATOM     58  CD2 PHE C 306       7.085  95.314  14.660  1.00 17.20 LIG 0.01  A 
ATOM     59  CE2 PHE C 306       7.998  96.318  14.373  1.00 19.90 LIG 0.00  A 
ATOM     60  CZ  PHE C 306       9.322  96.000  14.032  1.00 23.32 LIG 0.00  A 
ATOM     61  CE1 PHE C 306       9.694  94.653  13.987  1.00 27.54 LIG 0.00  A 
ATOM     62  CD1 PHE C 306       8.776  93.665  14.275  1.00 19.02 LIG 0.01  A 
ENDBRANCH 56 57
ENDBRANCH 41 56
ENDBRANCH 39 41
ENDBRANCH 1 37
BRANCH 1 63
ATOM     63  CB  TYR C 305       3.250  91.803  10.329  1.00 23.59 LIG 0.07  C 
BRANCH 63 64
ATOM     64  CG  TYR C 305       3.072  90.428  10.881  1.00 90.40 LIG-0.06  A 
ATOM     65  CD2 TYR C 305       3.422  89.322  10.125  1.00 31.11 LIG 0.01  A 
ATOM     66  CE2 TYR C 305       3.263  88.016  10.625  1.00 55.34 LIG 0.04  A 
ATOM     67  CZ  TYR C 305       2.746  87.838  11.904  1.00 93.94 LIG 0.07  A 
ATOM     68  CE1 TYR C 305       2.387  88.936  12.684  1.00 56.99 LIG 0.04  A 
ATOM     69  CD1 TYR C 305       2.550  90.223  12.171  1.00 51.39 LIG 0.01  A 
BRANCH 67 70
ATOM     70 OH   TYR C 305       2.586  86.567  12.402  1.00 93.94 LIG-0.36  OA
ATOM     71 HH   TYR C 305       2.161  86.601  13.126  1.00 93.94 LIG 0.22  HD
ENDBRANCH 67 70
ENDBRANCH 63 64
ENDBRANCH 1 63
TORSDOF 27
ENDMDL
MODEL 7
USER: ADFR SOLUTION from run 30
USER: SCORE 27.165331 LL:  -5.556 LR: -24.240 RR:   0.000 FEB: -16.186
USER: RMSD 2.347535
USER: SEED 29
USER: STATUS searching
USER: GENES 29
USER: genes 0 Translation |==|  0.38979 0.59443 0.56690
USER: genes 1 Rotation |==|  0.48477 0.50427 0.50708 0.99970
USER: genes 2 Torsion [CB]-CA--N-[C] |==|  0.28883
USER: genes 3 Torsion [N]-C--CA-[N] |==|  0.46810
USER: genes 4 Torsion [C]-CA--CB-[CG] |==|  0.55285
USER: genes 5 Torsion [CA]-CB--CG-[CD2] |==|  0.82169
USER: genes 6 Torsion [C]-CA--N-[C] |==|  0.64365
USER: genes 7 Torsion [N]-C--CA-[N] |==|  0.38818
USER: genes 8 Torsion [C]-CA--CB-[CG] |==|  0.35247
USER: genes 9 Torsion [CA]-CB--CG-[OD1] |==|  0.44512
USER: genes 10 Torsion [C]-CA--N-[C] |==|  0.82511
USER: genes 11 Torsion [N]-C--CA-[N] |==|  0.44972
USER: genes 12 Torsion [C]-CA--N-[C] |==|  0.78918
USER: genes 13 Torsion [C]-CA--CB-[CG] |==|  0.84983
USER: genes 14 Torsion [CA]-CB--CG-[CD] |==|  0.54902
USER: genes 15 Torsion [CB]-CG--CD-[OE1] |==|  0.92367
USER: genes 16 Torsion [N]-CA--C-[N] |==|  0.40038
USER: genes 17 Torsion [C]-N--CA-[CB] |==|  0.42219
USER: genes 18 Torsion [N]-CA--C-[N] |==|  0.89766
USER: genes 19 Torsion [C]-N--CA-[CB] |==|  0.54865
USER: genes 20 Torsion [N]-CA--CB-[CG] |==|  0.47259
USER: genes 21 Torsion [CA]-CB--CG-[CD] |==|  0.67405
USER: genes 22 Torsion [CB]-CG--CD-[NE2] |==|  0.27994
USER: genes 23 Torsion [N]-CA--C-[O] |==|  0.25973
USER: genes 24 Torsion [N]-CA--CB-[CG] |==|  0.78662
USER: genes 25 Torsion [CA]-CB--CG-[CD1] |==|  0.88028
USER: genes 26 Torsion [N]-CA--CB-[CG] |==|  0.23094
USER: genes 27 Torsion [CA]-CB--CG-[CD2] |==|  0.78411
USER: genes 28 Torsion [CE2]-CZ--OH-[HH] |==|  0.49354
ROOT
ATOM      1  CA  TYR C 305       4.575  92.416  10.683  1.00 17.70 LIG 0.18  C 
ENDROOT
BRANCH 1 2
ATOM      2  N   TYR C 305       5.303  92.021   9.492  1.00 18.26 LIG-0.35  N 
ATOM      3  C   LEU C 304       5.526  92.926   8.567  1.00 22.06 LIG 0.24  C 
ATOM      4 O    LEU C 304       5.082  94.049   8.652  1.00 19.49 LIG-0.27  OA
ATOM      5 H    TYR C 305       5.552  91.198   9.458  1.00 18.26 LIG 0.16  HD
BRANCH 3 6
ATOM      6  CA  LEU C 304       6.337  92.477   7.339  1.00 20.64 LIG 0.18  C 
BRANCH 6 7
ATOM      7  CB  LEU C 304       7.801  92.257   7.752  1.00 15.74 LIG 0.04  C 
BRANCH 7 8
ATOM      8  CG  LEU C 304       8.903  92.240   6.643  1.00 18.57 LIG-0.02  C 
ATOM      9  CD2 LEU C 304       8.687  91.086   5.725  1.00 21.94 LIG 0.01  C 
ATOM     10  CD1 LEU C 304      10.291  92.204   7.340  1.00 20.21 LIG 0.01  C 
ENDBRANCH 7 8
ENDBRANCH 6 7
BRANCH 6 11
ATOM     11  N   LEU C 304       6.264  93.490   6.306  1.00 19.38 LIG-0.35  N 
ATOM     12 H    LEU C 304       6.462  94.291   6.547  1.00 19.38 LIG 0.16  HD
ATOM     13  C   ASN C 303       5.905  93.114   5.091  1.00 24.27 LIG 0.24  C 
ATOM     14 O    ASN C 303       5.580  91.958   4.836  1.00 22.60 LIG-0.27  OA
BRANCH 13 15
ATOM     15  CA  ASN C 303       5.845  94.201   4.018  1.00 31.24 LIG 0.18  C 
BRANCH 15 16
ATOM     16  CB  ASN C 303       4.397  94.635   3.830  1.00 21.65 LIG 0.14  C 
BRANCH 16 17
ATOM     17  CG  ASN C 303       4.236  96.175   3.964  1.00 16.90 LIG 0.22  C 
ATOM     18 OD1  ASN C 303       3.241  96.762   3.497  1.00 28.96 LIG-0.27  OA
ATOM     19  ND2 ASN C 303       5.224  96.806   4.596  1.00 28.67 LIG-0.37  N 
ATOM     20 22HD ASN C 303       5.893  96.360   4.902  1.00 28.67 LIG 0.16  HD
ATOM     21 21HD ASN C 303       5.194  97.659   4.697  1.00 28.67 LIG 0.16  HD
ENDBRANCH 16 17
ENDBRANCH 15 16
BRANCH 15 22
ATOM     22  N   ASN C 303       6.381  93.668   2.768  1.00 31.60 LIG-0.35  N 
ATOM     23  C   GLU C 302       7.650  93.280   2.696  1.00 42.93 LIG 0.24  C 
ATOM     24 O    GLU C 302       8.446  93.409   3.659  1.00 23.80 LIG-0.27  OA
ATOM     25 H    ASN C 303       5.820  93.632   2.116  1.00 31.60 LIG 0.16  HD
BRANCH 23 26
ATOM     26  CA  GLU C 302       8.084  92.700   1.331  1.00 34.08 LIG 0.18  C 
BRANCH 26 27
ATOM     27  N   GLU C 302       9.509  92.691   1.178  1.00 23.23 LIG-0.35  N 
ATOM     28  C   ACE C 301      10.138  93.817   0.917  1.00 22.46 LIG 0.21  C 
ATOM     29 O    ACE C 301       9.548  94.878   0.799  1.00 29.32 LIG-0.27  OA
ATOM     30  CH3 ACE C 301      11.649  93.757   0.775  1.00 21.44 LIG 0.12  C 
ATOM     31 H    GLU C 302       9.885  91.923   1.267  1.00 23.23 LIG 0.16  HD
ENDBRANCH 26 27
BRANCH 26 32
ATOM     32  CB  GLU C 302       7.554  91.279   1.140  1.00 20.79 LIG 0.04  C 
BRANCH 32 33
ATOM     33  CG  GLU C 302       7.940  90.309   2.314  1.00 23.79 LIG 0.12  C 
BRANCH 33 34
ATOM     34  CD  GLU C 302       7.816  88.827   1.999  1.00 40.63 LIG 0.17  C 
ATOM     35 OE1  GLU C 302       7.008  88.412   1.151  1.00 32.87 LIG-0.65  OA
ATOM     36 OE2  GLU C 302       8.516  88.041   2.656  1.00 33.51 LIG-0.65  OA
ENDBRANCH 33 34
ENDBRANCH 32 33
ENDBRANCH 26 32
ENDBRANCH 23 26
ENDBRANCH 15 22
ENDBRANCH 13 15
ENDBRANCH 6 11
ENDBRANCH 3 6
ENDBRANCH 1 2
BRANCH 1 37
ATOM     37  C   TYR C 305       5.321  91.818  11.865  1.00 20.52 LIG 0.24  C 
ATOM     38 O    TYR C 305       5.870  90.719  11.757  1.00 23.93 LIG-0.27  OA
ATOM     39  N   PHE C 306       5.355  92.544  12.967  1.00 17.96 LIG-0.35  N 
ATOM     40 H    PHE C 306       5.003  93.323  13.062  1.00 17.96 LIG 0.16  HD
BRANCH 39 41
ATOM     41  CA  PHE C 306       6.057  91.990  14.172  1.00 18.04 LIG 0.18  C 
BRANCH 41 42
ATOM     42  C   PHE C 306       5.051  91.162  14.924  1.00 31.34 LIG 0.24  C 
ATOM     43  N   GLN C 307       3.802  91.618  14.942  1.00 26.23 LIG-0.35  N 
ATOM     44 H    GLN C 307       3.530  92.309  14.508  1.00 26.23 LIG 0.16  HD
ATOM     45 O    PHE C 306       5.388  90.127  15.488  1.00 30.18 LIG-0.27  OA
BRANCH 43 46
ATOM     46  CA  GLN C 307       2.772  90.943  15.735  1.00 27.99 LIG 0.16  C 
BRANCH 46 47
ATOM     47  CB  GLN C 307       1.418  91.410  15.216  1.00 36.24 LIG 0.04  C 
BRANCH 47 48
ATOM     48  CG  GLN C 307       0.252  90.647  15.756  1.00 42.27 LIG 0.10  C 
BRANCH 48 49
ATOM     49  CD  GLN C 307      -0.487  89.930  14.640  1.00 30.08 LIG 0.21  C 
ATOM     50  NE2 GLN C 307      -0.219  88.616  14.517  1.00 33.32 LIG-0.37  N 
ATOM     51 21HE GLN C 307       0.345  88.241  15.048  1.00 33.32 LIG 0.16  HD
ATOM     52 22HE GLN C 307      -0.612  88.152  13.910  1.00 33.32 LIG 0.16  HD
ATOM     53 OE1  GLN C 307      -1.296  90.541  13.902  1.00 31.63 LIG-0.27  OA
ENDBRANCH 48 49
ENDBRANCH 47 48
ENDBRANCH 46 47
BRANCH 46 54
ATOM     54  C   GLN C 307       2.819  89.425  15.833  1.00 39.25 LIG 0.22  C 
ATOM     55 O    GLN C 307       3.418  88.926  16.802  1.00 55.00 LIG-0.29  OA
ENDBRANCH 46 54
ENDBRANCH 43 46
ENDBRANCH 41 42
BRANCH 41 56
ATOM     56  CB  PHE C 306       6.599  93.109  15.051  1.00 20.53 LIG 0.07  C 
BRANCH 56 57
ATOM     57  CG  PHE C 306       7.821  93.725  14.525  1.00 20.37 LIG-0.06  A 
ATOM     58  CD2 PHE C 306       8.006  95.080  14.581  1.00 17.20 LIG 0.01  A 
ATOM     59  CE2 PHE C 306       9.182  95.662  14.130  1.00 19.90 LIG 0.00  A 
ATOM     60  CZ  PHE C 306      10.212  94.867  13.602  1.00 23.32 LIG 0.00  A 
ATOM     61  CE1 PHE C 306      10.023  93.484  13.540  1.00 27.54 LIG 0.00  A 
ATOM     62  CD1 PHE C 306       8.849  92.918  13.993  1.00 19.02 LIG 0.01  A 
ENDBRANCH 56 57
ENDBRANCH 41 56
ENDBRANCH 39 41
ENDBRANCH 1 37
BRANCH 1 63
ATOM     63  CB  TYR C 305       3.138  91.908  10.638  1.00 23.59 LIG 0.07  C 
BRANCH 63 64
ATOM     64  CG  TYR C 305       2.946  90.496  11.084  1.00 90.40 LIG-0.06  A 
ATOM     65  CD2 TYR C 305       3.270  89.449  10.239  1.00 31.11 LIG 0.01  A 
ATOM     66  CE2 TYR C 305       3.097  88.110  10.638  1.00 55.34 LIG 0.04  A 
ATOM     67  CZ  TYR C 305       2.592  87.839  11.905  1.00 93.94 LIG 0.07  A 
ATOM     68  CE1 TYR C 305       2.259  88.878  12.773  1.00 56.99 LIG 0.04  A 
ATOM     69  CD1 TYR C 305       2.436  90.199  12.360  1.00 51.39 LIG 0.01  A 
BRANCH 67 70
ATOM     70 OH   TYR C 305       2.419  86.536  12.304  1.00 93.94 LIG-0.36  OA
ATOM     71 HH   TYR C 305       2.140  86.520  13.097  1.00 93.94 LIG 0.22  HD
ENDBRANCH 67 70
ENDBRANCH 63 64
ENDBRANCH 1 63
TORSDOF 27
ENDMDL
