MODEL 1
USER: ADFR SOLUTION from run 79
USER: SCORE 13.893133 LL:  -2.790 LR: -12.318 RR:   0.000 FEB:  -8.142
USER: RMSD 3.996690
USER: SEED 78
USER: STATUS no improvement in best in 7 clusters for 5 generations
USER: GENES 16
USER: genes 0 Translation |==|  0.45848 0.40039 0.52163
USER: genes 1 Rotation |==|  0.51425 0.52254 0.46143 0.99780
USER: genes 2 Torsion [C]-CA--CB-[CG2] |==|  0.37600
USER: genes 3 Torsion [N]-CA--C-[N] |==|  0.35457
USER: genes 4 Torsion [N]-CA--C-[O] |==|  0.97465
USER: genes 5 Torsion [C]-N--CA-[C] |==|  0.56789
USER: genes 6 Torsion [N]-CA--C-[O] |==|  0.84925
USER: genes 7 Torsion [N]-CA--CB-[CG1] |==|  0.73629
USER: genes 8 Torsion [CB]-CA--N-[C] |==|  0.17353
USER: genes 9 Torsion [N]-C--CA-[N] |==|  0.92977
USER: genes 10 Torsion [C]-CA--N-[C] |==|  0.78387
USER: genes 11 Torsion [N]-C--CA-[N] |==|  0.82331
USER: genes 12 Torsion [C]-CA--CB-[CG] |==|  0.23578
USER: genes 13 Torsion [CA]-CB--CG-[CD2] |==|  0.63490
USER: genes 14 Torsion [C]-CA--CB-[CG] |==|  0.36436
USER: genes 15 Torsion [CA]-CB--CG-[OD1] |==|  0.95294
ROOT
ATOM      1  CA  VAL B1253      10.700  -0.918   1.399  1.00 16.87 LIG 0.18  C 
ENDROOT
BRANCH 1 2
ATOM      2  CB  VAL B1253       9.459  -1.729   1.739  1.00 16.98 LIG 0.01  C 
ATOM      3  CG2 VAL B1253       8.707  -2.152   0.459  1.00 17.49 LIG 0.01  C 
ATOM      4  CG1 VAL B1253       8.571  -0.923   2.680  1.00 17.27 LIG 0.01  C 
ENDBRANCH 1 2
BRANCH 1 5
ATOM      5  C   VAL B1253      10.730   0.270   2.343  1.00 15.50 LIG 0.24  C 
ATOM      6 O    VAL B1253      10.952   0.105   3.545  1.00 14.12 LIG-0.27  OA
ATOM      7  N   PRO B1254      10.499   1.461   1.826  1.00 15.47 LIG-0.34  N 
ATOM      8  CD  PRO B1254      10.419   1.801   0.399  1.00 15.59 LIG 0.13  C 
ATOM      9  CA  PRO B1254      10.356   2.650   2.699  1.00 15.20 LIG 0.18  C 
ATOM     10  CG  PRO B1254      10.530   3.296   0.356  1.00 16.22 LIG 0.02  C 
ATOM     11  CB  PRO B1254      10.316   3.843   1.719  1.00 15.83 LIG 0.04  C 
BRANCH 9 12
ATOM     12  C   PRO B1254       9.089   2.609   3.585  1.00 15.00 LIG 0.24  C 
ATOM     13 O    PRO B1254       8.180   1.759   3.459  1.00 15.08 LIG-0.27  OA
ATOM     14  N   VAL B1255       9.065   3.527   4.546  1.00 14.75 LIG-0.34  N 
ATOM     15 H    VAL B1255       9.721   4.060   4.711  1.00 14.75 LIG 0.16  HD
BRANCH 14 16
ATOM     16  CA  VAL B1255       7.914   3.716   5.418  1.00 15.14 LIG 0.19  C 
BRANCH 16 17
ATOM     17  C   VAL B1255       7.882   5.140   5.987  1.00 15.86 LIG 0.20  C 
ATOM     18 O    VAL B1255       8.853   5.602   6.586  1.00 17.42 LIG-0.65  OA
ATOM     19 OXT  VAL B1255       6.891   5.857   5.861  1.00 14.43 LIG-0.65  OA
ENDBRANCH 16 17
BRANCH 16 20
ATOM     20  CB  VAL B1255       7.894   2.670   6.582  1.00 15.34 LIG 0.01  C 
ATOM     21  CG1 VAL B1255       7.030   1.484   6.210  1.00 14.42 LIG 0.01  C 
ATOM     22  CG2 VAL B1255       9.301   2.210   6.960  1.00 13.28 LIG 0.01  C 
ENDBRANCH 16 20
ENDBRANCH 14 16
ENDBRANCH 9 12
ENDBRANCH 1 5
BRANCH 1 23
ATOM     23  N   VAL B1253      11.911  -1.691   1.534  1.00 17.12 LIG-0.35  N 
ATOM     24  C   ASP B1252      12.132  -2.764   0.786  1.00 19.01 LIG 0.24  C 
ATOM     25 O    ASP B1252      11.391  -3.123  -0.105  1.00 18.72 LIG-0.27  OA
ATOM     26 H    VAL B1253      12.458  -1.397   2.130  1.00 17.12 LIG 0.16  HD
BRANCH 24 27
ATOM     27  CA  ASP B1252      13.377  -3.540   1.086  1.00 20.50 LIG 0.19  C 
BRANCH 27 28
ATOM     28  N   ASP B1252      14.396  -2.697   1.711  1.00 21.10 LIG-0.34  N 
ATOM     29  C   LEU B1251      15.136  -1.851   1.003  1.00 22.51 LIG 0.26  C 
ATOM     30 O    LEU B1251      15.087  -1.798  -0.222  1.00 22.36 LIG-0.27  OA
ATOM     31 H    ASP B1252      14.468  -2.800   2.562  1.00 21.10 LIG 0.16  HD
BRANCH 29 32
ATOM     32  CA  LEU B1251      16.033  -0.889   1.787  1.00 23.47 LIG 0.40  C 
ATOM     33  N   LEU B1251      15.227   0.032   2.619  1.00 25.02 LIG 0.61  N 
BRANCH 32 34
ATOM     34  CB  LEU B1251      16.973  -1.672   2.703  1.00 24.34 LIG 0.06  C 
BRANCH 34 35
ATOM     35  CG  LEU B1251      18.281  -2.208   2.156  1.00 26.35 LIG-0.02  C 
ATOM     36  CD2 LEU B1251      18.418  -3.649   2.546  1.00 28.22 LIG 0.01  C 
ATOM     37  CD1 LEU B1251      19.535  -1.437   2.560  1.00 26.24 LIG 0.01  C 
ENDBRANCH 34 35
ENDBRANCH 32 34
ENDBRANCH 29 32
ENDBRANCH 27 28
BRANCH 27 38
ATOM     38  CB  ASP B1252      13.049  -4.797   1.899  1.00 20.08 LIG 0.15  C 
BRANCH 38 39
ATOM     39  CG  ASP B1252      13.678  -6.106   1.367  1.00 25.61 LIG 0.17  C 
ATOM     40 OD1  ASP B1252      14.128  -6.193   0.205  1.00 33.05 LIG-0.65  OA
ATOM     41 OD2  ASP B1252      13.728  -7.160   2.088  1.00 30.53 LIG-0.65  OA
ENDBRANCH 38 39
ENDBRANCH 27 38
ENDBRANCH 24 27
ENDBRANCH 1 23
TORSDOF 14
ENDMDL
MODEL 2
USER: ADFR SOLUTION from run 125
USER: SCORE 13.572709 LL:  -2.894 LR: -11.680 RR:   0.000 FEB:  -7.504
USER: RMSD 2.893011
USER: SEED 124
USER: STATUS no improvement in best in 4 clusters for 5 generations
USER: GENES 16
USER: genes 0 Translation |==|  0.46257 0.44836 0.55021
USER: genes 1 Rotation |==|  0.42041 0.56530 0.53626 0.98794
USER: genes 2 Torsion [C]-CA--CB-[CG2] |==|  0.47837
USER: genes 3 Torsion [N]-CA--C-[N] |==|  0.36126
USER: genes 4 Torsion [N]-CA--C-[O] |==|  0.78418
USER: genes 5 Torsion [C]-N--CA-[C] |==|  0.72326
USER: genes 6 Torsion [N]-CA--C-[O] |==|  0.31684
USER: genes 7 Torsion [N]-CA--CB-[CG1] |==|  0.57269
USER: genes 8 Torsion [CB]-CA--N-[C] |==|  0.52785
USER: genes 9 Torsion [N]-C--CA-[N] |==|  0.16637
USER: genes 10 Torsion [C]-CA--N-[C] |==|  0.63163
USER: genes 11 Torsion [N]-C--CA-[N] |==|  0.36477
USER: genes 12 Torsion [C]-CA--CB-[CG] |==|  0.57611
USER: genes 13 Torsion [CA]-CB--CG-[CD2] |==|  0.56919
USER: genes 14 Torsion [C]-CA--CB-[CG] |==|  0.38398
USER: genes 15 Torsion [CA]-CB--CG-[OD1] |==|  0.58825
ROOT
ATOM      1  CA  VAL B1253      10.776  -0.018   1.978  1.00 16.87 LIG 0.18  C 
ENDROOT
BRANCH 1 2
ATOM      2  CB  VAL B1253       9.941  -0.955   2.837  1.00 16.98 LIG 0.01  C 
ATOM      3  CG2 VAL B1253       9.978  -2.394   2.281  1.00 17.49 LIG 0.01  C 
ATOM      4  CG1 VAL B1253       8.518  -0.419   2.932  1.00 17.27 LIG 0.01  C 
ENDBRANCH 1 2
BRANCH 1 5
ATOM      5  C   VAL B1253      10.526   1.392   2.480  1.00 15.50 LIG 0.24  C 
ATOM      6 O    VAL B1253      10.983   1.758   3.564  1.00 14.12 LIG-0.27  OA
ATOM      7  N   PRO B1254       9.797   2.185   1.718  1.00 15.47 LIG-0.34  N 
ATOM      8  CD  PRO B1254       9.368   1.929   0.336  1.00 15.59 LIG 0.13  C 
ATOM      9  CA  PRO B1254       9.374   3.520   2.203  1.00 15.20 LIG 0.18  C 
ATOM     10  CG  PRO B1254       8.919   3.265  -0.177  1.00 16.22 LIG 0.02  C 
ATOM     11  CB  PRO B1254       8.744   4.196   0.965  1.00 15.83 LIG 0.04  C 
BRANCH 9 12
ATOM     12  C   PRO B1254       8.370   3.455   3.378  1.00 15.00 LIG 0.24  C 
ATOM     13 O    PRO B1254       7.153   3.199   3.239  1.00 15.08 LIG-0.27  OA
ATOM     14  N   VAL B1255       8.919   3.636   4.575  1.00 14.75 LIG-0.34  N 
ATOM     15 H    VAL B1255       9.766   3.719   4.702  1.00 14.75 LIG 0.16  HD
BRANCH 14 16
ATOM     16  CA  VAL B1255       8.125   3.712   5.794  1.00 15.14 LIG 0.19  C 
BRANCH 16 17
ATOM     17  C   VAL B1255       7.913   5.170   6.222  1.00 15.86 LIG 0.20  C 
ATOM     18 O    VAL B1255       6.789   5.674   6.211  1.00 17.42 LIG-0.65  OA
ATOM     19 OXT  VAL B1255       8.853   5.872   6.588  1.00 14.43 LIG-0.65  OA
ENDBRANCH 16 17
BRANCH 16 20
ATOM     20  CB  VAL B1255       8.779   2.899   6.959  1.00 15.34 LIG 0.01  C 
ATOM     21  CG1 VAL B1255       7.723   2.450   7.946  1.00 14.42 LIG 0.01  C 
ATOM     22  CG2 VAL B1255       9.574   1.700   6.443  1.00 13.28 LIG 0.01  C 
ENDBRANCH 16 20
ENDBRANCH 14 16
ENDBRANCH 9 12
ENDBRANCH 1 5
BRANCH 1 23
ATOM     23  N   VAL B1253      12.185  -0.326   2.046  1.00 17.12 LIG-0.35  N 
ATOM     24  C   ASP B1252      13.095   0.488   1.529  1.00 19.01 LIG 0.24  C 
ATOM     25 O    ASP B1252      12.830   1.568   1.043  1.00 18.72 LIG-0.27  OA
ATOM     26 H    VAL B1253      12.370  -1.068   2.441  1.00 17.12 LIG 0.16  HD
BRANCH 24 27
ATOM     27  CA  ASP B1252      14.515   0.014   1.573  1.00 20.50 LIG 0.19  C 
BRANCH 27 28
ATOM     28  N   ASP B1252      14.682  -1.243   0.844  1.00 21.10 LIG-0.34  N 
ATOM     29  C   LEU B1251      15.343  -2.272   1.363  1.00 22.51 LIG 0.26  C 
ATOM     30 O    LEU B1251      15.941  -2.199   2.433  1.00 22.36 LIG-0.27  OA
ATOM     31 H    ASP B1252      14.319  -1.252   0.064  1.00 21.10 LIG 0.16  HD
BRANCH 29 32
ATOM     32  CA  LEU B1251      15.290  -3.593   0.591  1.00 23.47 LIG 0.40  C 
ATOM     33  N   LEU B1251      16.644  -4.168   0.426  1.00 25.02 LIG 0.61  N 
BRANCH 32 34
ATOM     34  CB  LEU B1251      14.421  -4.605   1.336  1.00 24.34 LIG 0.06  C 
BRANCH 34 35
ATOM     35  CG  LEU B1251      14.683  -6.089   1.167  1.00 26.35 LIG-0.02  C 
ATOM     36  CD2 LEU B1251      13.418  -6.841   1.455  1.00 28.22 LIG 0.01  C 
ATOM     37  CD1 LEU B1251      15.829  -6.659   1.997  1.00 26.24 LIG 0.01  C 
ENDBRANCH 34 35
ENDBRANCH 32 34
ENDBRANCH 29 32
ENDBRANCH 27 28
BRANCH 27 38
ATOM     38  CB  ASP B1252      15.470   1.117   1.103  1.00 20.08 LIG 0.15  C 
BRANCH 38 39
ATOM     39  CG  ASP B1252      16.767   1.260   1.932  1.00 25.61 LIG 0.17  C 
ATOM     40 OD1  ASP B1252      17.328   2.365   2.090  1.00 33.05 LIG-0.65  OA
ATOM     41 OD2  ASP B1252      17.333   0.243   2.461  1.00 30.53 LIG-0.65  OA
ENDBRANCH 38 39
ENDBRANCH 27 38
ENDBRANCH 24 27
ENDBRANCH 1 23
TORSDOF 14
ENDMDL
MODEL 3
USER: ADFR SOLUTION from run 38
USER: SCORE 13.668803 LL:  -3.340 LR: -11.524 RR:   0.000 FEB:  -7.348
USER: RMSD 3.637430
USER: SEED 37
USER: STATUS no improvement in best in 5 clusters for 5 generations
USER: GENES 16
USER: genes 0 Translation |==|  0.45709 0.40852 0.52149
USER: genes 1 Rotation |==|  0.52000 0.53632 0.47991 0.99787
USER: genes 2 Torsion [C]-CA--CB-[CG2] |==|  0.74149
USER: genes 3 Torsion [N]-CA--C-[N] |==|  0.32696
USER: genes 4 Torsion [N]-CA--C-[O] |==|  0.95882
USER: genes 5 Torsion [C]-N--CA-[C] |==|  0.56879
USER: genes 6 Torsion [N]-CA--C-[O] |==|  0.88616
USER: genes 7 Torsion [N]-CA--CB-[CG1] |==|  0.74901
USER: genes 8 Torsion [CB]-CA--N-[C] |==|  0.21111
USER: genes 9 Torsion [N]-C--CA-[N] |==|  0.93358
USER: genes 10 Torsion [C]-CA--N-[C] |==|  0.74447
USER: genes 11 Torsion [N]-C--CA-[N] |==|  0.28685
USER: genes 12 Torsion [C]-CA--CB-[CG] |==|  0.08712
USER: genes 13 Torsion [CA]-CB--CG-[CD2] |==|  0.47444
USER: genes 14 Torsion [C]-CA--CB-[CG] |==|  0.26069
USER: genes 15 Torsion [CA]-CB--CG-[OD1] |==|  0.41968
ROOT
ATOM      1  CA  VAL B1253      10.673  -0.765   1.396  1.00 16.87 LIG 0.18  C 
ENDROOT
BRANCH 1 2
ATOM      2  CB  VAL B1253       9.515  -1.676   1.771  1.00 16.98 LIG 0.01  C 
ATOM      3  CG2 VAL B1253       9.979  -2.794   2.730  1.00 17.49 LIG 0.01  C 
ATOM      4  CG1 VAL B1253       8.886  -2.241   0.503  1.00 17.27 LIG 0.01  C 
ENDBRANCH 1 2
BRANCH 1 5
ATOM      5  C   VAL B1253      10.666   0.394   2.376  1.00 15.50 LIG 0.24  C 
ATOM      6 O    VAL B1253      10.781   0.188   3.586  1.00 14.12 LIG-0.27  OA
ATOM      7  N   PRO B1254      10.521   1.607   1.878  1.00 15.47 LIG-0.34  N 
ATOM      8  CD  PRO B1254      10.572   1.989   0.460  1.00 15.59 LIG 0.13  C 
ATOM      9  CA  PRO B1254      10.346   2.776   2.772  1.00 15.20 LIG 0.18  C 
ATOM     10  CG  PRO B1254      10.738   3.479   0.472  1.00 16.22 LIG 0.02  C 
ATOM     11  CB  PRO B1254      10.429   3.996   1.828  1.00 15.83 LIG 0.04  C 
BRANCH 9 12
ATOM     12  C   PRO B1254       9.009   2.757   3.548  1.00 15.00 LIG 0.24  C 
ATOM     13 O    PRO B1254       8.045   2.014   3.257  1.00 15.08 LIG-0.27  OA
ATOM     14  N   VAL B1255       8.980   3.563   4.605  1.00 14.75 LIG-0.34  N 
ATOM     15 H    VAL B1255       9.662   4.011   4.880  1.00 14.75 LIG 0.16  HD
BRANCH 14 16
ATOM     16  CA  VAL B1255       7.778   3.763   5.403  1.00 15.14 LIG 0.19  C 
BRANCH 16 17
ATOM     17  C   VAL B1255       7.814   5.117   6.123  1.00 15.86 LIG 0.20  C 
ATOM     18 O    VAL B1255       8.853   5.530   6.639  1.00 17.42 LIG-0.65  OA
ATOM     19 OXT  VAL B1255       6.812   5.824   6.205  1.00 14.43 LIG-0.65  OA
ENDBRANCH 16 17
BRANCH 16 20
ATOM     20  CB  VAL B1255       7.575   2.608   6.438  1.00 15.34 LIG 0.01  C 
ATOM     21  CG1 VAL B1255       6.744   1.497   5.833  1.00 14.42 LIG 0.01  C 
ATOM     22  CG2 VAL B1255       8.906   2.061   6.953  1.00 13.28 LIG 0.01  C 
ENDBRANCH 16 20
ENDBRANCH 14 16
ENDBRANCH 9 12
ENDBRANCH 1 5
BRANCH 1 23
ATOM     23  N   VAL B1253      11.944  -1.449   1.446  1.00 17.12 LIG-0.35  N 
ATOM     24  C   ASP B1252      12.310  -2.295   0.492  1.00 19.01 LIG 0.24  C 
ATOM     25 O    ASP B1252      11.659  -2.495  -0.512  1.00 18.72 LIG-0.27  OA
ATOM     26 H    VAL B1253      12.424  -1.260   2.134  1.00 17.12 LIG 0.16  HD
BRANCH 24 27
ATOM     27  CA  ASP B1252      13.604  -3.018   0.704  1.00 20.50 LIG 0.19  C 
BRANCH 27 28
ATOM     28  N   ASP B1252      14.487  -2.282   1.608  1.00 21.10 LIG-0.34  N 
ATOM     29  C   LEU B1251      15.385  -1.413   1.157  1.00 22.51 LIG 0.26  C 
ATOM     30 O    LEU B1251      15.603  -1.252  -0.040  1.00 22.36 LIG-0.27  OA
ATOM     31 H    ASP B1252      14.371  -2.462   2.441  1.00 21.10 LIG 0.16  HD
BRANCH 29 32
ATOM     32  CA  LEU B1251      16.118  -0.566   2.201  1.00 23.47 LIG 0.40  C 
ATOM     33  N   LEU B1251      17.491  -1.068   2.425  1.00 25.02 LIG 0.61  N 
BRANCH 32 34
ATOM     34  CB  LEU B1251      16.203   0.887   1.737  1.00 24.34 LIG 0.06  C 
BRANCH 34 35
ATOM     35  CG  LEU B1251      15.098   1.467   0.876  1.00 26.35 LIG-0.02  C 
ATOM     36  CD2 LEU B1251      15.306   2.947   0.750  1.00 28.22 LIG 0.01  C 
ATOM     37  CD1 LEU B1251      13.673   1.178   1.340  1.00 26.24 LIG 0.01  C 
ENDBRANCH 34 35
ENDBRANCH 32 34
ENDBRANCH 29 32
ENDBRANCH 27 28
BRANCH 27 38
ATOM     38  CB  ASP B1252      13.351  -4.464   1.148  1.00 20.08 LIG 0.15  C 
BRANCH 38 39
ATOM     39  CG  ASP B1252      13.326  -5.507   0.007  1.00 25.61 LIG 0.17  C 
ATOM     40 OD1  ASP B1252      13.659  -6.696   0.197  1.00 33.05 LIG-0.65  OA
ATOM     41 OD2  ASP B1252      12.994  -5.181  -1.183  1.00 30.53 LIG-0.65  OA
ENDBRANCH 38 39
ENDBRANCH 27 38
ENDBRANCH 24 27
ENDBRANCH 1 23
TORSDOF 14
ENDMDL
MODEL 4
USER: ADFR SOLUTION from run 200
USER: SCORE 13.475617 LL:  -3.183 LR: -11.448 RR:   0.000 FEB:  -7.271
USER: RMSD 2.956572
USER: SEED 199
USER: STATUS no improvement in best in 3 clusters for 5 generations
USER: GENES 16
USER: genes 0 Translation |==|  0.48363 0.45753 0.52870
USER: genes 1 Rotation |==|  0.55388 0.47077 0.48566 0.99602
USER: genes 2 Torsion [C]-CA--CB-[CG2] |==|  0.09907
USER: genes 3 Torsion [N]-CA--C-[N] |==|  0.32895
USER: genes 4 Torsion [N]-CA--C-[O] |==|  0.95007
USER: genes 5 Torsion [C]-N--CA-[C] |==|  0.60193
USER: genes 6 Torsion [N]-CA--C-[O] |==|  0.46610
USER: genes 7 Torsion [N]-CA--CB-[CG1] |==|  0.75112
USER: genes 8 Torsion [CB]-CA--N-[C] |==|  0.23139
USER: genes 9 Torsion [N]-C--CA-[N] |==|  0.34753
USER: genes 10 Torsion [C]-CA--N-[C] |==|  0.80448
USER: genes 11 Torsion [N]-C--CA-[N] |==|  0.77280
USER: genes 12 Torsion [C]-CA--CB-[CG] |==|  0.24882
USER: genes 13 Torsion [CA]-CB--CG-[CD2] |==|  0.03261
USER: genes 14 Torsion [C]-CA--CB-[CG] |==|  0.33887
USER: genes 15 Torsion [CA]-CB--CG-[OD1] |==|  0.11601
ROOT
ATOM      1  CA  VAL B1253      11.171   0.154   1.542  1.00 16.87 LIG 0.18  C 
ENDROOT
BRANCH 1 2
ATOM      2  CB  VAL B1253       9.973  -0.780   1.481  1.00 16.98 LIG 0.01  C 
ATOM      3  CG2 VAL B1253       8.660  -0.013   1.745  1.00 17.49 LIG 0.01  C 
ATOM      4  CG1 VAL B1253      10.171  -1.922   2.471  1.00 17.27 LIG 0.01  C 
ENDBRANCH 1 2
BRANCH 1 5
ATOM      5  C   VAL B1253      10.884   1.181   2.621  1.00 15.50 LIG 0.24  C 
ATOM      6 O    VAL B1253      10.692   0.825   3.786  1.00 14.12 LIG-0.27  OA
ATOM      7  N   PRO B1254      10.837   2.447   2.255  1.00 15.47 LIG-0.34  N 
ATOM      8  CD  PRO B1254      11.237   3.004   0.956  1.00 15.59 LIG 0.13  C 
ATOM      9  CA  PRO B1254      10.409   3.496   3.211  1.00 15.20 LIG 0.18  C 
ATOM     10  CG  PRO B1254      11.354   4.480   1.193  1.00 16.22 LIG 0.02  C 
ATOM     11  CB  PRO B1254      10.697   4.825   2.477  1.00 15.83 LIG 0.04  C 
BRANCH 9 12
ATOM     12  C   PRO B1254       8.919   3.388   3.611  1.00 15.00 LIG 0.24  C 
ATOM     13 O    PRO B1254       8.070   2.738   2.961  1.00 15.08 LIG-0.27  OA
ATOM     14  N   VAL B1255       8.614   4.000   4.751  1.00 14.75 LIG-0.34  N 
ATOM     15 H    VAL B1255       9.199   4.371   5.262  1.00 14.75 LIG 0.16  HD
BRANCH 14 16
ATOM     16  CA  VAL B1255       7.247   4.098   5.243  1.00 15.14 LIG 0.19  C 
BRANCH 16 17
ATOM     17  C   VAL B1255       7.004   5.450   5.927  1.00 15.86 LIG 0.20  C 
ATOM     18 O    VAL B1255       5.863   5.818   6.210  1.00 17.42 LIG-0.65  OA
ATOM     19 OXT  VAL B1255       7.935   6.200   6.211  1.00 14.43 LIG-0.65  OA
ENDBRANCH 16 17
BRANCH 16 20
ATOM     20  CB  VAL B1255       6.902   2.929   6.225  1.00 15.34 LIG 0.01  C 
ATOM     21  CG1 VAL B1255       6.345   1.747   5.461  1.00 14.42 LIG 0.01  C 
ATOM     22  CG2 VAL B1255       8.111   2.507   7.058  1.00 13.28 LIG 0.01  C 
ENDBRANCH 16 20
ENDBRANCH 14 16
ENDBRANCH 9 12
ENDBRANCH 1 5
BRANCH 1 23
ATOM     23  N   VAL B1253      12.396  -0.550   1.840  1.00 17.12 LIG-0.35  N 
ATOM     24  C   ASP B1252      13.093  -1.156   0.888  1.00 19.01 LIG 0.24  C 
ATOM     25 O    ASP B1252      12.807  -1.101  -0.290  1.00 18.72 LIG-0.27  OA
ATOM     26 H    VAL B1253      12.622  -0.537   2.670  1.00 17.12 LIG 0.16  HD
BRANCH 24 27
ATOM     27  CA  ASP B1252      14.291  -1.936   1.333  1.00 20.50 LIG 0.19  C 
BRANCH 27 28
ATOM     28  N   ASP B1252      14.234  -3.320   0.864  1.00 21.10 LIG-0.34  N 
ATOM     29  C   LEU B1251      13.362  -4.192   1.360  1.00 22.51 LIG 0.26  C 
ATOM     30 O    LEU B1251      12.628  -3.925   2.306  1.00 22.36 LIG-0.27  OA
ATOM     31 H    ASP B1252      14.806  -3.511   0.250  1.00 21.10 LIG 0.16  HD
BRANCH 29 32
ATOM     32  CA  LEU B1251      13.267  -5.552   0.662  1.00 23.47 LIG 0.40  C 
ATOM     33  N   LEU B1251      12.407  -5.475  -0.539  1.00 25.02 LIG 0.61  N 
BRANCH 32 34
ATOM     34  CB  LEU B1251      14.656  -6.024   0.235  1.00 24.34 LIG 0.06  C 
BRANCH 34 35
ATOM     35  CG  LEU B1251      15.495  -6.853   1.187  1.00 26.35 LIG-0.02  C 
ATOM     36  CD2 LEU B1251      14.633  -7.300   2.331  1.00 28.22 LIG 0.01  C 
ATOM     37  CD1 LEU B1251      16.757  -6.179   1.718  1.00 26.24 LIG 0.01  C 
ENDBRANCH 34 35
ENDBRANCH 32 34
ENDBRANCH 29 32
ENDBRANCH 27 28
BRANCH 27 38
ATOM     38  CB  ASP B1252      15.585  -1.215   0.936  1.00 20.08 LIG 0.15  C 
BRANCH 38 39
ATOM     39  CG  ASP B1252      16.531  -0.870   2.109  1.00 25.61 LIG 0.17  C 
ATOM     40 OD1  ASP B1252      16.745  -1.676   3.039  1.00 33.05 LIG-0.65  OA
ATOM     41 OD2  ASP B1252      17.103   0.270   2.187  1.00 30.53 LIG-0.65  OA
ENDBRANCH 38 39
ENDBRANCH 27 38
ENDBRANCH 24 27
ENDBRANCH 1 23
TORSDOF 14
ENDMDL
MODEL 5
USER: ADFR SOLUTION from run 170
USER: SCORE 12.619406 LL:  -2.929 LR: -11.207 RR:   0.000 FEB:  -7.031
USER: RMSD 3.761594
USER: SEED 169
USER: STATUS no improvement in best in 6 clusters for 5 generations
USER: GENES 16
USER: genes 0 Translation |==|  0.45403 0.41626 0.50953
USER: genes 1 Rotation |==|  0.54016 0.56083 0.47997 0.99425
USER: genes 2 Torsion [C]-CA--CB-[CG2] |==|  0.12524
USER: genes 3 Torsion [N]-CA--C-[N] |==|  0.32759
USER: genes 4 Torsion [N]-CA--C-[O] |==|  0.01698
USER: genes 5 Torsion [C]-N--CA-[C] |==|  0.54044
USER: genes 6 Torsion [N]-CA--C-[O] |==|  0.39141
USER: genes 7 Torsion [N]-CA--CB-[CG1] |==|  0.73030
USER: genes 8 Torsion [CB]-CA--N-[C] |==|  0.21943
USER: genes 9 Torsion [N]-C--CA-[N] |==|  0.26133
USER: genes 10 Torsion [C]-CA--N-[C] |==|  0.62363
USER: genes 11 Torsion [N]-C--CA-[N] |==|  0.10324
USER: genes 12 Torsion [C]-CA--CB-[CG] |==|  0.85145
USER: genes 13 Torsion [CA]-CB--CG-[CD2] |==|  0.32232
USER: genes 14 Torsion [C]-CA--CB-[CG] |==|  0.71025
USER: genes 15 Torsion [CA]-CB--CG-[OD1] |==|  0.59669
ROOT
ATOM      1  CA  VAL B1253      10.616  -0.620   1.154  1.00 16.87 LIG 0.18  C 
ENDROOT
BRANCH 1 2
ATOM      2  CB  VAL B1253       9.493  -1.562   1.559  1.00 16.98 LIG 0.01  C 
ATOM      3  CG2 VAL B1253       8.251  -0.773   2.025  1.00 17.49 LIG 0.01  C 
ATOM      4  CG1 VAL B1253       9.997  -2.515   2.637  1.00 17.27 LIG 0.01  C 
ENDBRANCH 1 2
BRANCH 1 5
ATOM      5  C   VAL B1253      10.709   0.451   2.224  1.00 15.50 LIG 0.24  C 
ATOM      6 O    VAL B1253      10.941   0.145   3.396  1.00 14.12 LIG-0.27  OA
ATOM      7  N   PRO B1254      10.520   1.702   1.848  1.00 15.47 LIG-0.34  N 
ATOM      8  CD  PRO B1254      10.433   2.203   0.469  1.00 15.59 LIG 0.13  C 
ATOM      9  CA  PRO B1254      10.439   2.790   2.850  1.00 15.20 LIG 0.18  C 
ATOM     10  CG  PRO B1254      10.605   3.687   0.592  1.00 16.22 LIG 0.02  C 
ATOM     11  CB  PRO B1254      10.433   4.086   2.010  1.00 15.83 LIG 0.04  C 
BRANCH 9 12
ATOM     12  C   PRO B1254       9.184   2.700   3.750  1.00 15.00 LIG 0.24  C 
ATOM     13 O    PRO B1254       8.377   1.744   3.724  1.00 15.08 LIG-0.27  OA
ATOM     14  N   VAL B1255       9.056   3.704   4.611  1.00 14.75 LIG-0.34  N 
ATOM     15 H    VAL B1255       9.647   4.322   4.712  1.00 14.75 LIG 0.16  HD
BRANCH 14 16
ATOM     16  CA  VAL B1255       7.890   3.852   5.471  1.00 15.14 LIG 0.19  C 
BRANCH 16 17
ATOM     17  C   VAL B1255       7.835   5.257   6.086  1.00 15.86 LIG 0.20  C 
ATOM     18 O    VAL B1255       6.762   5.849   6.211  1.00 17.42 LIG-0.65  OA
ATOM     19 OXT  VAL B1255       8.853   5.828   6.470  1.00 14.43 LIG-0.65  OA
ENDBRANCH 16 17
BRANCH 16 20
ATOM     20  CB  VAL B1255       7.866   2.769   6.600  1.00 15.34 LIG 0.01  C 
ATOM     21  CG1 VAL B1255       6.977   1.611   6.200  1.00 14.42 LIG 0.01  C 
ATOM     22  CG2 VAL B1255       9.268   2.274   6.947  1.00 13.28 LIG 0.01  C 
ENDBRANCH 16 20
ENDBRANCH 14 16
ENDBRANCH 9 12
ENDBRANCH 1 5
BRANCH 1 23
ATOM     23  N   VAL B1253      11.881  -1.304   1.024  1.00 17.12 LIG-0.35  N 
ATOM     24  C   ASP B1252      12.172  -2.018  -0.055  1.00 19.01 LIG 0.24  C 
ATOM     25 O    ASP B1252      11.451  -2.085  -1.028  1.00 18.72 LIG-0.27  OA
ATOM     26 H    VAL B1253      12.410  -1.206   1.695  1.00 17.12 LIG 0.16  HD
BRANCH 24 27
ATOM     27  CA  ASP B1252      13.472  -2.761  -0.031  1.00 20.50 LIG 0.19  C 
BRANCH 27 28
ATOM     28  N   ASP B1252      13.293  -4.137   0.432  1.00 21.10 LIG-0.34  N 
ATOM     29  C   LEU B1251      14.118  -4.692   1.313  1.00 22.51 LIG 0.26  C 
ATOM     30 O    LEU B1251      15.134  -4.129   1.711  1.00 22.36 LIG-0.27  OA
ATOM     31 H    ASP B1252      12.618  -4.543   0.086  1.00 21.10 LIG 0.16  HD
BRANCH 29 32
ATOM     32  CA  LEU B1251      13.725  -6.065   1.864  1.00 23.47 LIG 0.40  C 
ATOM     33  N   LEU B1251      13.093  -6.898   0.817  1.00 25.02 LIG 0.61  N 
BRANCH 32 34
ATOM     34  CB  LEU B1251      14.959  -6.798   2.386  1.00 24.34 LIG 0.06  C 
BRANCH 34 35
ATOM     35  CG  LEU B1251      16.166  -6.976   1.486  1.00 26.35 LIG-0.02  C 
ATOM     36  CD2 LEU B1251      17.326  -6.230   2.075  1.00 28.22 LIG 0.01  C 
ATOM     37  CD1 LEU B1251      15.971  -6.568   0.028  1.00 26.24 LIG 0.01  C 
ENDBRANCH 34 35
ENDBRANCH 32 34
ENDBRANCH 29 32
ENDBRANCH 27 28
BRANCH 27 38
ATOM     38  CB  ASP B1252      14.176  -2.666  -1.390  1.00 20.08 LIG 0.15  C 
BRANCH 38 39
ATOM     39  CG  ASP B1252      14.102  -3.943  -2.258  1.00 25.61 LIG 0.17  C 
ATOM     40 OD1  ASP B1252      15.046  -4.289  -3.000  1.00 33.05 LIG-0.65  OA
ATOM     41 OD2  ASP B1252      13.055  -4.675  -2.276  1.00 30.53 LIG-0.65  OA
ENDBRANCH 38 39
ENDBRANCH 27 38
ENDBRANCH 24 27
ENDBRANCH 1 23
TORSDOF 14
ENDMDL
MODEL 6
USER: ADFR SOLUTION from run 7
USER: SCORE 13.272008 LL:  -3.496 LR: -11.024 RR:   0.000 FEB:  -6.848
USER: RMSD 4.206274
USER: SEED 625689
USER: STATUS no improvement in best in 5 clusters for 5 generations
USER: GENES 16
USER: genes 0 Translation |==|  0.47058 0.39820 0.51875
USER: genes 1 Rotation |==|  0.51206 0.52776 0.44264 0.99578
USER: genes 2 Torsion [C]-CA--CB-[CG2] |==|  0.30718
USER: genes 3 Torsion [N]-CA--C-[N] |==|  0.45126
USER: genes 4 Torsion [N]-CA--C-[O] |==|  0.29774
USER: genes 5 Torsion [C]-N--CA-[C] |==|  0.62512
USER: genes 6 Torsion [N]-CA--C-[O] |==|  0.39401
USER: genes 7 Torsion [N]-CA--CB-[CG1] |==|  0.80806
USER: genes 8 Torsion [CB]-CA--N-[C] |==|  0.18165
USER: genes 9 Torsion [N]-C--CA-[N] |==|  0.94698
USER: genes 10 Torsion [C]-CA--N-[C] |==|  0.67230
USER: genes 11 Torsion [N]-C--CA-[N] |==|  0.37865
USER: genes 12 Torsion [C]-CA--CB-[CG] |==|  0.27672
USER: genes 13 Torsion [CA]-CB--CG-[CD2] |==|  0.78339
USER: genes 14 Torsion [C]-CA--CB-[CG] |==|  0.41765
USER: genes 15 Torsion [CA]-CB--CG-[OD1] |==|  0.92100
ROOT
ATOM      1  CA  VAL B1253      10.926  -0.959   1.341  1.00 16.87 LIG 0.18  C 
ENDROOT
BRANCH 1 2
ATOM      2  CB  VAL B1253       9.638  -1.672   1.719  1.00 16.98 LIG 0.01  C 
ATOM      3  CG2 VAL B1253       8.571  -1.508   0.616  1.00 17.49 LIG 0.01  C 
ATOM      4  CG1 VAL B1253       9.148  -1.151   3.065  1.00 17.27 LIG 0.01  C 
ENDBRANCH 1 2
BRANCH 1 5
ATOM      5  C   VAL B1253      11.068   0.232   2.271  1.00 15.50 LIG 0.24  C 
ATOM      6 O    VAL B1253      11.870   0.200   3.207  1.00 14.12 LIG-0.27  OA
ATOM      7  N   PRO B1254      10.296   1.277   2.039  1.00 15.47 LIG-0.34  N 
ATOM      8  CD  PRO B1254       9.457   1.506   0.856  1.00 15.59 LIG 0.13  C 
ATOM      9  CA  PRO B1254      10.258   2.415   2.988  1.00 15.20 LIG 0.18  C 
ATOM     10  CG  PRO B1254       9.111   2.964   0.911  1.00 16.22 LIG 0.02  C 
ATOM     11  CB  PRO B1254       9.425   3.493   2.261  1.00 15.83 LIG 0.04  C 
BRANCH 9 12
ATOM     12  C   PRO B1254       9.633   2.050   4.355  1.00 15.00 LIG 0.24  C 
ATOM     13 O    PRO B1254      10.294   1.919   5.409  1.00 15.08 LIG-0.27  OA
ATOM     14  N   VAL B1255       8.308   1.943   4.338  1.00 14.75 LIG-0.34  N 
ATOM     15 H    VAL B1255       7.826   2.121   3.648  1.00 14.75 LIG 0.16  HD
BRANCH 14 16
ATOM     16  CA  VAL B1255       7.545   1.507   5.500  1.00 15.14 LIG 0.19  C 
BRANCH 16 17
ATOM     17  C   VAL B1255       6.481   0.475   5.104  1.00 15.86 LIG 0.20  C 
ATOM     18 O    VAL B1255       6.228  -0.482   5.836  1.00 17.42 LIG-0.65  OA
ATOM     19 OXT  VAL B1255       5.854   0.575   4.052  1.00 14.43 LIG-0.65  OA
ENDBRANCH 16 17
BRANCH 16 20
ATOM     20  CB  VAL B1255       6.876   2.715   6.236  1.00 15.34 LIG 0.01  C 
ATOM     21  CG1 VAL B1255       7.929   3.575   6.903  1.00 14.42 LIG 0.01  C 
ATOM     22  CG2 VAL B1255       6.018   3.555   5.291  1.00 13.28 LIG 0.01  C 
ENDBRANCH 16 20
ENDBRANCH 14 16
ENDBRANCH 9 12
ENDBRANCH 1 5
BRANCH 1 23
ATOM     23  N   VAL B1253      12.080  -1.819   1.456  1.00 17.12 LIG-0.35  N 
ATOM     24  C   ASP B1252      12.230  -2.880   0.674  1.00 19.01 LIG 0.24  C 
ATOM     25 O    ASP B1252      11.471  -3.159  -0.230  1.00 18.72 LIG-0.27  OA
ATOM     26 H    VAL B1253      12.642  -1.583   2.063  1.00 17.12 LIG 0.16  HD
BRANCH 24 27
ATOM     27  CA  ASP B1252      13.416  -3.751   0.955  1.00 20.50 LIG 0.19  C 
BRANCH 27 28
ATOM     28  N   ASP B1252      14.428  -3.042   1.738  1.00 21.10 LIG-0.34  N 
ATOM     29  C   LEU B1251      15.649  -2.818   1.267  1.00 22.51 LIG 0.26  C 
ATOM     30 O    LEU B1251      16.038  -3.279   0.197  1.00 22.36 LIG-0.27  OA
ATOM     31 H    ASP B1252      14.160  -2.790   2.516  1.00 21.10 LIG 0.16  HD
BRANCH 29 32
ATOM     32  CA  LEU B1251      16.557  -1.906   2.095  1.00 23.47 LIG 0.40  C 
ATOM     33  N   LEU B1251      17.926  -2.461   2.190  1.00 25.02 LIG 0.61  N 
BRANCH 32 34
ATOM     34  CB  LEU B1251      16.639  -0.521   1.455  1.00 24.34 LIG 0.06  C 
BRANCH 34 35
ATOM     35  CG  LEU B1251      15.791   0.611   2.000  1.00 26.35 LIG-0.02  C 
ATOM     36  CD2 LEU B1251      14.385   0.447   1.503  1.00 28.22 LIG 0.01  C 
ATOM     37  CD1 LEU B1251      16.290   2.021   1.697  1.00 26.24 LIG 0.01  C 
ENDBRANCH 34 35
ENDBRANCH 32 34
ENDBRANCH 29 32
ENDBRANCH 27 28
BRANCH 27 38
ATOM     38  CB  ASP B1252      12.978  -5.076   1.589  1.00 20.08 LIG 0.15  C 
BRANCH 38 39
ATOM     39  CG  ASP B1252      13.893  -6.284   1.284  1.00 25.61 LIG 0.17  C 
ATOM     40 OD1  ASP B1252      14.560  -6.353   0.230  1.00 33.05 LIG-0.65  OA
ATOM     41 OD2  ASP B1252      13.975  -7.275   2.086  1.00 30.53 LIG-0.65  OA
ENDBRANCH 38 39
ENDBRANCH 27 38
ENDBRANCH 24 27
ENDBRANCH 1 23
TORSDOF 14
ENDMDL
MODEL 7
USER: ADFR SOLUTION from run 27
USER: SCORE 12.889505 LL:  -3.203 LR: -10.996 RR:   0.000 FEB:  -6.819
USER: RMSD 4.148237
USER: SEED 26
USER: STATUS no improvement in best in 5 clusters for 5 generations
USER: GENES 16
USER: genes 0 Translation |==|  0.47266 0.44826 0.54660
USER: genes 1 Rotation |==|  0.42355 0.58746 0.55505 0.98319
USER: genes 2 Torsion [C]-CA--CB-[CG2] |==|  0.46826
USER: genes 3 Torsion [N]-CA--C-[N] |==|  0.33889
USER: genes 4 Torsion [N]-CA--C-[O] |==|  0.82039
USER: genes 5 Torsion [C]-N--CA-[C] |==|  0.68048
USER: genes 6 Torsion [N]-CA--C-[O] |==|  0.32663
USER: genes 7 Torsion [N]-CA--CB-[CG1] |==|  0.58190
USER: genes 8 Torsion [CB]-CA--N-[C] |==|  0.52227
USER: genes 9 Torsion [N]-C--CA-[N] |==|  0.65820
USER: genes 10 Torsion [C]-CA--N-[C] |==|  0.66381
USER: genes 11 Torsion [N]-C--CA-[N] |==|  0.84437
USER: genes 12 Torsion [C]-CA--CB-[CG] |==|  0.27123
USER: genes 13 Torsion [CA]-CB--CG-[CD2] |==|  0.65868
USER: genes 14 Torsion [C]-CA--CB-[CG] |==|  0.56056
USER: genes 15 Torsion [CA]-CB--CG-[OD1] |==|  0.62089
ROOT
ATOM      1  CA  VAL B1253      10.965  -0.020   1.905  1.00 16.87 LIG 0.18  C 
ENDROOT
BRANCH 1 2
ATOM      2  CB  VAL B1253      10.279  -1.013   2.829  1.00 16.98 LIG 0.01  C 
ATOM      3  CG2 VAL B1253      10.262  -2.426   2.208  1.00 17.49 LIG 0.01  C 
ATOM      4  CG1 VAL B1253       8.874  -0.517   3.149  1.00 17.27 LIG 0.01  C 
ENDBRANCH 1 2
BRANCH 1 5
ATOM      5  C   VAL B1253      10.686   1.367   2.451  1.00 15.50 LIG 0.24  C 
ATOM      6 O    VAL B1253      11.110   1.698   3.561  1.00 14.12 LIG-0.27  OA
ATOM      7  N   PRO B1254       9.969   2.181   1.700  1.00 15.47 LIG-0.34  N 
ATOM      8  CD  PRO B1254       9.581   1.973   0.298  1.00 15.59 LIG 0.13  C 
ATOM      9  CA  PRO B1254       9.519   3.493   2.221  1.00 15.20 LIG 0.18  C 
ATOM     10  CG  PRO B1254       9.133   3.323  -0.178  1.00 16.22 LIG 0.02  C 
ATOM     11  CB  PRO B1254       8.916   4.209   0.992  1.00 15.83 LIG 0.04  C 
BRANCH 9 12
ATOM     12  C   PRO B1254       8.484   3.374   3.365  1.00 15.00 LIG 0.24  C 
ATOM     13 O    PRO B1254       7.340   2.888   3.219  1.00 15.08 LIG-0.27  OA
ATOM     14  N   VAL B1255       8.930   3.781   4.549  1.00 14.75 LIG-0.34  N 
ATOM     15 H    VAL B1255       9.741   4.029   4.692  1.00 14.75 LIG 0.16  HD
BRANCH 14 16
ATOM     16  CA  VAL B1255       8.075   3.843   5.726  1.00 15.14 LIG 0.19  C 
BRANCH 16 17
ATOM     17  C   VAL B1255       7.896   5.291   6.201  1.00 15.86 LIG 0.20  C 
ATOM     18 O    VAL B1255       6.784   5.819   6.211  1.00 17.42 LIG-0.65  OA
ATOM     19 OXT  VAL B1255       8.853   5.960   6.585  1.00 14.43 LIG-0.65  OA
ENDBRANCH 16 17
BRANCH 16 20
ATOM     20  CB  VAL B1255       8.631   2.959   6.891  1.00 15.34 LIG 0.01  C 
ATOM     21  CG1 VAL B1255       7.497   2.450   7.755  1.00 14.42 LIG 0.01  C 
ATOM     22  CG2 VAL B1255       9.474   1.795   6.372  1.00 13.28 LIG 0.01  C 
ENDBRANCH 16 20
ENDBRANCH 14 16
ENDBRANCH 9 12
ENDBRANCH 1 5
BRANCH 1 23
ATOM     23  N   VAL B1253      12.389  -0.245   1.825  1.00 17.12 LIG-0.35  N 
ATOM     24  C   ASP B1252      13.188   0.608   1.197  1.00 19.01 LIG 0.24  C 
ATOM     25 O    ASP B1252      12.808   1.658   0.723  1.00 18.72 LIG-0.27  OA
ATOM     26 H    VAL B1253      12.660  -0.964   2.212  1.00 17.12 LIG 0.16  HD
BRANCH 24 27
ATOM     27  CA  ASP B1252      14.630   0.218   1.095  1.00 20.50 LIG 0.19  C 
BRANCH 27 28
ATOM     28  N   ASP B1252      15.503   1.235   1.680  1.00 21.10 LIG-0.34  N 
ATOM     29  C   LEU B1251      16.446   1.843   0.968  1.00 22.51 LIG 0.26  C 
ATOM     30 O    LEU B1251      16.713   1.519  -0.185  1.00 22.36 LIG-0.27  OA
ATOM     31 H    ASP B1252      15.350   1.398   2.511  1.00 21.10 LIG 0.16  HD
BRANCH 29 32
ATOM     32  CA  LEU B1251      17.167   3.020   1.632  1.00 23.47 LIG 0.40  C 
ATOM     33  N   LEU B1251      16.206   4.054   2.073  1.00 25.02 LIG 0.61  N 
BRANCH 32 34
ATOM     34  CB  LEU B1251      17.954   2.537   2.850  1.00 24.34 LIG 0.06  C 
BRANCH 34 35
ATOM     35  CG  LEU B1251      19.437   2.251   2.722  1.00 26.35 LIG-0.02  C 
ATOM     36  CD2 LEU B1251      19.696   0.832   3.135  1.00 28.22 LIG 0.01  C 
ATOM     37  CD1 LEU B1251      20.362   3.194   3.487  1.00 26.24 LIG 0.01  C 
ENDBRANCH 34 35
ENDBRANCH 32 34
ENDBRANCH 29 32
ENDBRANCH 27 28
BRANCH 27 38
ATOM     38  CB  ASP B1252      14.856  -1.182   1.679  1.00 20.08 LIG 0.15  C 
BRANCH 38 39
ATOM     39  CG  ASP B1252      16.308  -1.485   2.114  1.00 25.61 LIG 0.17  C 
ATOM     40 OD1  ASP B1252      16.858  -2.576   1.852  1.00 33.05 LIG-0.65  OA
ATOM     41 OD2  ASP B1252      16.989  -0.642   2.790  1.00 30.53 LIG-0.65  OA
ENDBRANCH 38 39
ENDBRANCH 27 38
ENDBRANCH 24 27
ENDBRANCH 1 23
TORSDOF 14
ENDMDL
MODEL 8
USER: ADFR SOLUTION from run 62
USER: SCORE 12.113941 LL:  -3.578 LR: -10.838 RR:   0.000 FEB:  -6.662
USER: RMSD 3.801403
USER: SEED 61
USER: STATUS no improvement in best in 4 clusters for 5 generations
USER: GENES 16
USER: genes 0 Translation |==|  0.48601 0.45096 0.54045
USER: genes 1 Rotation |==|  0.51567 0.55711 0.56054 0.99278
USER: genes 2 Torsion [C]-CA--CB-[CG2] |==|  0.52237
USER: genes 3 Torsion [N]-CA--C-[N] |==|  0.24876
USER: genes 4 Torsion [N]-CA--C-[O] |==|  0.92989
USER: genes 5 Torsion [C]-N--CA-[C] |==|  0.62235
USER: genes 6 Torsion [N]-CA--C-[O] |==|  0.49694
USER: genes 7 Torsion [N]-CA--CB-[CG1] |==|  0.78167
USER: genes 8 Torsion [CB]-CA--N-[C] |==|  0.34481
USER: genes 9 Torsion [N]-C--CA-[N] |==|  0.63681
USER: genes 10 Torsion [C]-CA--N-[C] |==|  0.13335
USER: genes 11 Torsion [N]-C--CA-[N] |==|  0.26206
USER: genes 12 Torsion [C]-CA--CB-[CG] |==|  0.76024
USER: genes 13 Torsion [CA]-CB--CG-[CD2] |==|  0.69512
USER: genes 14 Torsion [C]-CA--CB-[CG] |==|  0.54904
USER: genes 15 Torsion [CA]-CB--CG-[OD1] |==|  0.68736
ROOT
ATOM      1  CA  VAL B1253      11.216   0.031   1.780  1.00 16.87 LIG 0.18  C 
ENDROOT
BRANCH 1 2
ATOM      2  CB  VAL B1253      10.441  -1.203   2.215  1.00 16.98 LIG 0.01  C 
ATOM      3  CG2 VAL B1253      10.842  -2.433   1.372  1.00 17.49 LIG 0.01  C 
ATOM      4  CG1 VAL B1253       8.946  -0.918   2.127  1.00 17.27 LIG 0.01  C 
ENDBRANCH 1 2
BRANCH 1 5
ATOM      5  C   VAL B1253      10.909   1.127   2.783  1.00 15.50 LIG 0.24  C 
ATOM      6 O    VAL B1253      10.669   0.848   3.960  1.00 14.12 LIG-0.27  OA
ATOM      7  N   PRO B1254      10.900   2.369   2.338  1.00 15.47 LIG-0.34  N 
ATOM      8  CD  PRO B1254      11.356   2.837   1.022  1.00 15.59 LIG 0.13  C 
ATOM      9  CA  PRO B1254      10.458   3.483   3.211  1.00 15.20 LIG 0.18  C 
ATOM     10  CG  PRO B1254      11.493   4.323   1.172  1.00 16.22 LIG 0.02  C 
ATOM     11  CB  PRO B1254      10.797   4.758   2.408  1.00 15.83 LIG 0.04  C 
BRANCH 9 12
ATOM     12  C   PRO B1254       8.953   3.424   3.562  1.00 15.00 LIG 0.24  C 
ATOM     13 O    PRO B1254       8.094   2.857   2.850  1.00 15.08 LIG-0.27  OA
ATOM     14  N   VAL B1255       8.643   3.981   4.729  1.00 14.75 LIG-0.34  N 
ATOM     15 H    VAL B1255       9.228   4.292   5.278  1.00 14.75 LIG 0.16  HD
BRANCH 14 16
ATOM     16  CA  VAL B1255       7.267   4.117   5.188  1.00 15.14 LIG 0.19  C 
BRANCH 16 17
ATOM     17  C   VAL B1255       7.021   5.509   5.784  1.00 15.86 LIG 0.20  C 
ATOM     18 O    VAL B1255       5.910   5.825   6.210  1.00 17.42 LIG-0.65  OA
ATOM     19 OXT  VAL B1255       7.921   6.343   5.855  1.00 14.43 LIG-0.65  OA
ENDBRANCH 16 17
BRANCH 16 20
ATOM     20  CB  VAL B1255       6.896   3.011   6.230  1.00 15.34 LIG 0.01  C 
ATOM     21  CG1 VAL B1255       6.603   1.702   5.529  1.00 14.42 LIG 0.01  C 
ATOM     22  CG2 VAL B1255       7.991   2.823   7.279  1.00 13.28 LIG 0.01  C 
ENDBRANCH 16 20
ENDBRANCH 14 16
ENDBRANCH 9 12
ENDBRANCH 1 5
BRANCH 1 23
ATOM     23  N   VAL B1253      12.638  -0.210   1.726  1.00 17.12 LIG-0.35  N 
ATOM     24  C   ASP B1252      13.334   0.009   0.619  1.00 19.01 LIG 0.24  C 
ATOM     25 O    ASP B1252      12.858   0.494  -0.387  1.00 18.72 LIG-0.27  OA
ATOM     26 H    VAL B1253      12.979  -0.501   2.461  1.00 17.12 LIG 0.16  HD
BRANCH 24 27
ATOM     27  CA  ASP B1252      14.782  -0.371   0.655  1.00 20.50 LIG 0.19  C 
BRANCH 27 28
ATOM     28  N   ASP B1252      15.633   0.714   0.166  1.00 21.10 LIG-0.34  N 
ATOM     29  C   LEU B1251      15.489   1.964   0.593  1.00 22.51 LIG 0.26  C 
ATOM     30 O    LEU B1251      14.574   2.305   1.336  1.00 22.36 LIG-0.27  OA
ATOM     31 H    ASP B1252      16.222   0.469  -0.411  1.00 21.10 LIG 0.16  HD
BRANCH 29 32
ATOM     32  CA  LEU B1251      16.554   2.974   0.157  1.00 23.47 LIG 0.40  C 
ATOM     33  N   LEU B1251      16.134   3.697  -1.064  1.00 25.02 LIG 0.61  N 
BRANCH 32 34
ATOM     34  CB  LEU B1251      16.797   3.996   1.266  1.00 24.34 LIG 0.06  C 
BRANCH 34 35
ATOM     35  CG  LEU B1251      15.923   5.230   1.357  1.00 26.35 LIG-0.02  C 
ATOM     36  CD2 LEU B1251      16.737   6.432   0.977  1.00 28.22 LIG 0.01  C 
ATOM     37  CD1 LEU B1251      15.244   5.465   2.704  1.00 26.24 LIG 0.01  C 
ENDBRANCH 34 35
ENDBRANCH 32 34
ENDBRANCH 29 32
ENDBRANCH 27 28
BRANCH 27 38
ATOM     38  CB  ASP B1252      15.177  -0.868   2.051  1.00 20.08 LIG 0.15  C 
BRANCH 38 39
ATOM     39  CG  ASP B1252      16.696  -0.883   2.337  1.00 25.61 LIG 0.17  C 
ATOM     40 OD1  ASP B1252      17.325  -1.952   2.490  1.00 33.05 LIG-0.65  OA
ATOM     41 OD2  ASP B1252      17.360   0.202   2.461  1.00 30.53 LIG-0.65  OA
ENDBRANCH 38 39
ENDBRANCH 27 38
ENDBRANCH 24 27
ENDBRANCH 1 23
TORSDOF 14
ENDMDL
MODEL 9
USER: ADFR SOLUTION from run 94
USER: SCORE 12.957880 LL:  -3.372 LR: -10.596 RR:   0.000 FEB:  -6.420
USER: RMSD 2.607417
USER: SEED 93
USER: STATUS no improvement in best in 5 clusters for 5 generations
USER: GENES 16
USER: genes 0 Translation |==|  0.46432 0.43364 0.52549
USER: genes 1 Rotation |==|  0.45842 0.51939 0.50436 0.99787
USER: genes 2 Torsion [C]-CA--CB-[CG2] |==|  0.33026
USER: genes 3 Torsion [N]-CA--C-[N] |==|  0.40917
USER: genes 4 Torsion [N]-CA--C-[O] |==|  0.88196
USER: genes 5 Torsion [C]-N--CA-[C] |==|  0.63236
USER: genes 6 Torsion [N]-CA--C-[O] |==|  0.31582
USER: genes 7 Torsion [N]-CA--CB-[CG1] |==|  0.56857
USER: genes 8 Torsion [CB]-CA--N-[C] |==|  0.24943
USER: genes 9 Torsion [N]-C--CA-[N] |==|  0.38673
USER: genes 10 Torsion [C]-CA--N-[C] |==|  0.81318
USER: genes 11 Torsion [N]-C--CA-[N] |==|  0.40998
USER: genes 12 Torsion [C]-CA--CB-[CG] |==|  0.07566
USER: genes 13 Torsion [CA]-CB--CG-[CD2] |==|  0.55128
USER: genes 14 Torsion [C]-CA--CB-[CG] |==|  0.27251
USER: genes 15 Torsion [CA]-CB--CG-[OD1] |==|  0.85583
ROOT
ATOM      1  CA  VAL B1253      10.809  -0.294   1.477  1.00 16.87 LIG 0.18  C 
ENDROOT
BRANCH 1 2
ATOM      2  CB  VAL B1253       9.727  -1.223   2.006  1.00 16.98 LIG 0.01  C 
ATOM      3  CG2 VAL B1253       8.820  -1.723   0.862  1.00 17.49 LIG 0.01  C 
ATOM      4  CG1 VAL B1253       8.931  -0.505   3.090  1.00 17.27 LIG 0.01  C 
ENDBRANCH 1 2
BRANCH 1 5
ATOM      5  C   VAL B1253      10.608   1.053   2.146  1.00 15.50 LIG 0.24  C 
ATOM      6 O    VAL B1253      11.153   1.302   3.223  1.00 14.12 LIG-0.27  OA
ATOM      7  N   PRO B1254       9.826   1.922   1.534  1.00 15.47 LIG-0.34  N 
ATOM      8  CD  PRO B1254       9.287   1.815   0.171  1.00 15.59 LIG 0.13  C 
ATOM      9  CA  PRO B1254       9.452   3.197   2.191  1.00 15.20 LIG 0.18  C 
ATOM     10  CG  PRO B1254       8.807   3.197  -0.158  1.00 16.22 LIG 0.02  C 
ATOM     11  CB  PRO B1254       8.730   4.000   1.087  1.00 15.83 LIG 0.04  C 
BRANCH 9 12
ATOM     12  C   PRO B1254       8.544   3.004   3.429  1.00 15.00 LIG 0.24  C 
ATOM     13 O    PRO B1254       7.585   2.202   3.469  1.00 15.08 LIG-0.27  OA
ATOM     14  N   VAL B1255       8.903   3.724   4.486  1.00 14.75 LIG-0.34  N 
ATOM     15 H    VAL B1255       9.614   4.209   4.512  1.00 14.75 LIG 0.16  HD
BRANCH 14 16
ATOM     16  CA  VAL B1255       8.117   3.758   5.711  1.00 15.14 LIG 0.19  C 
BRANCH 16 17
ATOM     17  C   VAL B1255       7.910   5.200   6.194  1.00 15.86 LIG 0.20  C 
ATOM     18 O    VAL B1255       6.789   5.708   6.200  1.00 17.42 LIG-0.65  OA
ATOM     19 OXT  VAL B1255       8.853   5.884   6.586  1.00 14.43 LIG-0.65  OA
ENDBRANCH 16 17
BRANCH 16 20
ATOM     20  CB  VAL B1255       8.775   2.901   6.843  1.00 15.34 LIG 0.01  C 
ATOM     21  CG1 VAL B1255       7.728   2.450   7.839  1.00 14.42 LIG 0.01  C 
ATOM     22  CG2 VAL B1255       9.534   1.700   6.282  1.00 13.28 LIG 0.01  C 
ENDBRANCH 16 20
ENDBRANCH 14 16
ENDBRANCH 9 12
ENDBRANCH 1 5
BRANCH 1 23
ATOM     23  N   VAL B1253      12.136  -0.791   1.751  1.00 17.12 LIG-0.35  N 
ATOM     24  C   ASP B1252      12.764  -1.589   0.897  1.00 19.01 LIG 0.24  C 
ATOM     25 O    ASP B1252      12.318  -1.891  -0.190  1.00 18.72 LIG-0.27  OA
ATOM     26 H    VAL B1253      12.469  -0.528   2.499  1.00 17.12 LIG 0.16  HD
BRANCH 24 27
ATOM     27  CA  ASP B1252      14.094  -2.119   1.336  1.00 20.50 LIG 0.19  C 
BRANCH 27 28
ATOM     28  N   ASP B1252      14.259  -3.525   0.966  1.00 21.10 LIG-0.34  N 
ATOM     29  C   LEU B1251      13.525  -4.485   1.518  1.00 22.51 LIG 0.26  C 
ATOM     30 O    LEU B1251      12.745  -4.271   2.440  1.00 22.36 LIG-0.27  OA
ATOM     31 H    ASP B1252      14.863  -3.666   0.369  1.00 21.10 LIG 0.16  HD
BRANCH 29 32
ATOM     32  CA  LEU B1251      13.652  -5.888   0.917  1.00 23.47 LIG 0.40  C 
ATOM     33  N   LEU B1251      13.476  -6.929   1.954  1.00 25.02 LIG 0.61  N 
BRANCH 32 34
ATOM     34  CB  LEU B1251      12.593  -6.097  -0.164  1.00 24.34 LIG 0.06  C 
BRANCH 34 35
ATOM     35  CG  LEU B1251      12.052  -4.905  -0.927  1.00 26.35 LIG-0.02  C 
ATOM     36  CD2 LEU B1251      10.755  -5.290  -1.574  1.00 28.22 LIG 0.01  C 
ATOM     37  CD1 LEU B1251      12.993  -4.298  -1.965  1.00 26.24 LIG 0.01  C 
ENDBRANCH 34 35
ENDBRANCH 32 34
ENDBRANCH 29 32
ENDBRANCH 27 28
BRANCH 27 38
ATOM     38  CB  ASP B1252      15.230  -1.223   0.829  1.00 20.08 LIG 0.15  C 
BRANCH 38 39
ATOM     39  CG  ASP B1252      15.768  -0.200   1.856  1.00 25.61 LIG 0.17  C 
ATOM     40 OD1  ASP B1252      15.006   0.575   2.472  1.00 33.05 LIG-0.65  OA
ATOM     41 OD2  ASP B1252      17.019  -0.087   2.088  1.00 30.53 LIG-0.65  OA
ENDBRANCH 38 39
ENDBRANCH 27 38
ENDBRANCH 24 27
ENDBRANCH 1 23
TORSDOF 14
ENDMDL
MODEL 10
USER: ADFR SOLUTION from run 128
USER: SCORE 12.439300 LL:  -2.782 LR: -10.340 RR:   0.000 FEB:  -6.163
USER: RMSD 4.472093
USER: SEED 127
USER: STATUS no improvement in best in 7 clusters for 5 generations
USER: GENES 16
USER: genes 0 Translation |==|  0.43884 0.32389 0.47711
USER: genes 1 Rotation |==|  0.62795 0.46854 0.37749 0.96651
USER: genes 2 Torsion [C]-CA--CB-[CG2] |==|  0.52326
USER: genes 3 Torsion [N]-CA--C-[N] |==|  0.38997
USER: genes 4 Torsion [N]-CA--C-[O] |==|  0.02991
USER: genes 5 Torsion [C]-N--CA-[C] |==|  0.87125
USER: genes 6 Torsion [N]-CA--C-[O] |==|  0.41112
USER: genes 7 Torsion [N]-CA--CB-[CG1] |==|  0.96545
USER: genes 8 Torsion [CB]-CA--N-[C] |==|  0.50556
USER: genes 9 Torsion [N]-C--CA-[N] |==|  0.38744
USER: genes 10 Torsion [C]-CA--N-[C] |==|  0.76691
USER: genes 11 Torsion [N]-C--CA-[N] |==|  0.79391
USER: genes 12 Torsion [C]-CA--CB-[CG] |==|  0.10259
USER: genes 13 Torsion [CA]-CB--CG-[CD2] |==|  0.65968
USER: genes 14 Torsion [C]-CA--CB-[CG] |==|  0.44714
USER: genes 15 Torsion [CA]-CB--CG-[OD1] |==|  0.45399
ROOT
ATOM      1  CA  VAL B1253      10.331  -2.352   0.497  1.00 16.87 LIG 0.18  C 
ENDROOT
BRANCH 1 2
ATOM      2  CB  VAL B1253       8.862  -2.658   0.254  1.00 16.98 LIG 0.01  C 
ATOM      3  CG2 VAL B1253       8.677  -3.504  -1.023  1.00 17.49 LIG 0.01  C 
ATOM      4  CG1 VAL B1253       8.078  -1.352   0.188  1.00 17.27 LIG 0.01  C 
ENDBRANCH 1 2
BRANCH 1 5
ATOM      5  C   VAL B1253      10.433  -1.706   1.867  1.00 15.50 LIG 0.24  C 
ATOM      6 O    VAL B1253      10.454  -2.402   2.885  1.00 14.12 LIG-0.27  OA
ATOM      7  N   PRO B1254      10.485  -0.389   1.913  1.00 15.47 LIG-0.34  N 
ATOM      8  CD  PRO B1254      10.663   0.526   0.777  1.00 15.59 LIG 0.13  C 
ATOM      9  CA  PRO B1254      10.427   0.326   3.210  1.00 15.20 LIG 0.18  C 
ATOM     10  CG  PRO B1254      11.034   1.839   1.400  1.00 16.22 LIG 0.02  C 
ATOM     11  CB  PRO B1254      10.729   1.798   2.851  1.00 15.83 LIG 0.04  C 
BRANCH 9 12
ATOM     12  C   PRO B1254       9.061   0.191   3.922  1.00 15.00 LIG 0.24  C 
ATOM     13 O    PRO B1254       8.164  -0.604   3.562  1.00 15.08 LIG-0.27  OA
ATOM     14  N   VAL B1255       8.930   0.956   5.002  1.00 14.75 LIG-0.34  N 
ATOM     15 H    VAL B1255       9.567   1.439   5.322  1.00 14.75 LIG 0.16  HD
BRANCH 14 16
ATOM     16  CA  VAL B1255       7.683   1.047   5.748  1.00 15.14 LIG 0.19  C 
BRANCH 16 17
ATOM     17  C   VAL B1255       6.489   1.238   4.804  1.00 15.86 LIG 0.20  C 
ATOM     18 O    VAL B1255       5.382   0.778   5.085  1.00 17.42 LIG-0.65  OA
ATOM     19 OXT  VAL B1255       6.603   1.854   3.746  1.00 14.43 LIG-0.65  OA
ENDBRANCH 16 17
BRANCH 16 20
ATOM     20  CB  VAL B1255       7.725   2.201   6.803  1.00 15.34 LIG 0.01  C 
ATOM     21  CG1 VAL B1255       9.141   2.708   6.974  1.00 14.42 LIG 0.01  C 
ATOM     22  CG2 VAL B1255       6.786   3.348   6.433  1.00 13.28 LIG 0.01  C 
ENDBRANCH 16 20
ENDBRANCH 14 16
ENDBRANCH 9 12
ENDBRANCH 1 5
BRANCH 1 23
ATOM     23  N   VAL B1253      11.151  -3.539   0.446  1.00 17.12 LIG-0.35  N 
ATOM     24  C   ASP B1252      12.457  -3.487   0.672  1.00 19.01 LIG 0.24  C 
ATOM     25 O    ASP B1252      13.038  -2.478   1.011  1.00 18.72 LIG-0.27  OA
ATOM     26 H    VAL B1253      10.722  -4.262   0.260  1.00 17.12 LIG 0.16  HD
BRANCH 24 27
ATOM     27  CA  ASP B1252      13.216  -4.766   0.493  1.00 20.50 LIG 0.19  C 
BRANCH 27 28
ATOM     28  N   ASP B1252      14.503  -4.537  -0.163  1.00 21.10 LIG-0.34  N 
ATOM     29  C   LEU B1251      14.612  -4.456  -1.484  1.00 22.51 LIG 0.26  C 
ATOM     30 O    LEU B1251      13.668  -4.673  -2.238  1.00 22.36 LIG-0.27  OA
ATOM     31 H    ASP B1252      15.168  -4.460   0.379  1.00 21.10 LIG 0.16  HD
BRANCH 29 32
ATOM     32  CA  LEU B1251      15.971  -4.027  -2.045  1.00 23.47 LIG 0.40  C 
ATOM     33  N   LEU B1251      16.196  -2.578  -1.844  1.00 25.02 LIG 0.61  N 
BRANCH 32 34
ATOM     34  CB  LEU B1251      17.095  -4.793  -1.348  1.00 24.34 LIG 0.06  C 
BRANCH 34 35
ATOM     35  CG  LEU B1251      16.891  -6.246  -0.968  1.00 26.35 LIG-0.02  C 
ATOM     36  CD2 LEU B1251      17.102  -6.396   0.510  1.00 28.22 LIG 0.01  C 
ATOM     37  CD1 LEU B1251      17.750  -7.256  -1.722  1.00 26.24 LIG 0.01  C 
ENDBRANCH 34 35
ENDBRANCH 32 34
ENDBRANCH 29 32
ENDBRANCH 27 28
BRANCH 27 38
ATOM     38  CB  ASP B1252      13.339  -5.514   1.825  1.00 20.08 LIG 0.15  C 
BRANCH 38 39
ATOM     39  CG  ASP B1252      13.678  -7.018   1.704  1.00 25.61 LIG 0.17  C 
ATOM     40 OD1  ASP B1252      14.104  -7.675   2.678  1.00 33.05 LIG-0.65  OA
ATOM     41 OD2  ASP B1252      13.567  -7.637   0.592  1.00 30.53 LIG-0.65  OA
ENDBRANCH 38 39
ENDBRANCH 27 38
ENDBRANCH 24 27
ENDBRANCH 1 23
TORSDOF 14
ENDMDL
