MODEL 1
USER: ADFR SOLUTION from run 21
USER: SCORE 10.786217 LL:  -1.960 LR: -10.986 RR:   0.000 FEB:  -6.809
USER: RMSD 2.993712
USER: SEED 20
USER: STATUS no improvement in best in 3 clusters for 5 generations
USER: GENES 16
USER: genes 0 Translation |==|  0.50974 0.48015 0.39742
USER: genes 1 Rotation |==|  0.60293 0.57922 0.52352 0.98226
USER: genes 2 Torsion [CB]-CA--N-[C] |==|  0.26588
USER: genes 3 Torsion [N]-C--CA-[N] |==|  0.99714
USER: genes 4 Torsion [C]-CA--N-[C] |==|  0.74031
USER: genes 5 Torsion [N]-C--CA-[N] |==|  0.34279
USER: genes 6 Torsion [C]-CA--CB-[OG] |==|  0.62291
USER: genes 7 Torsion [CA]-CB--OG-[HG] |==|  0.82373
USER: genes 8 Torsion [N]-CA--CB-[CG1] |==|  0.39893
USER: genes 9 Torsion [N]-CA--C-[N] |==|  0.42514
USER: genes 10 Torsion [C]-N--CA-[CB] |==|  0.27222
USER: genes 11 Torsion [N]-CA--CB-[OG] |==|  0.65172
USER: genes 12 Torsion [CA]-CB--OG-[HG] |==|  0.98789
USER: genes 13 Torsion [N]-CA--C-[N] |==|  0.39247
USER: genes 14 Torsion [C]-N--CA-[C] |==|  0.47703
USER: genes 15 Torsion [N]-CA--C-[O] |==|  0.88588
ROOT
ATOM      1  CA  VAL B 303      13.272   4.234  31.893  1.00 37.13 LIG 0.18  C 
ENDROOT
BRANCH 1 2
ATOM      2  N   VAL B 303      12.299   3.540  32.727  1.00 37.20 LIG-0.35  N 
ATOM      3  C   SER B 302      12.015   2.254  32.550  1.00 37.39 LIG 0.24  C 
ATOM      4 O    SER B 302      12.537   1.568  31.666  1.00 37.76 LIG-0.27  OA
ATOM      5 H    VAL B 303      11.934   4.032  33.331  1.00 37.20 LIG 0.16  HD
BRANCH 3 6
ATOM      6  CA  SER B 302      10.985   1.656  33.502  1.00 37.09 LIG 0.20  C 
BRANCH 6 7
ATOM      7  N   SER B 302      10.527   2.654  34.460  1.00 36.48 LIG-0.34  N 
ATOM      8 H    SER B 302       9.871   3.136  34.184  1.00 36.48 LIG 0.16  HD
ATOM      9  C   ALA B 301      11.094   2.785  35.655  1.00 36.26 LIG 0.26  C 
ATOM     10 O    ALA B 301      12.028   2.078  36.033  1.00 35.88 LIG-0.27  OA
BRANCH 9 11
ATOM     11  CA  ALA B 301      10.524   3.874  36.559  1.00 36.43 LIG 0.40  C 
ATOM     12  CB  ALA B 301      11.575   4.953  36.802  1.00 36.70 LIG 0.06  C 
ATOM     13  N   ALA B 301      10.075   3.304  37.863  1.00 36.51 LIG 0.61  N 
ENDBRANCH 9 11
ENDBRANCH 6 7
BRANCH 6 14
ATOM     14  CB  SER B 302       9.805   1.104  32.696  1.00 37.65 LIG 0.20  C 
BRANCH 14 15
ATOM     15 OG   SER B 302       8.570   1.465  33.288  1.00 38.63 LIG-0.40  OA
ATOM     16 HG   SER B 302       8.511   1.115  34.050  1.00 38.63 LIG 0.21  HD
ENDBRANCH 14 15
ENDBRANCH 6 14
ENDBRANCH 3 6
ENDBRANCH 1 2
BRANCH 1 17
ATOM     17  CB  VAL B 303      12.588   4.984  30.721  1.00 37.28 LIG 0.01  C 
ATOM     18  CG1 VAL B 303      13.308   6.291  30.451  1.00 36.92 LIG 0.01  C 
ATOM     19  CG2 VAL B 303      12.586   4.112  29.472  1.00 37.06 LIG 0.01  C 
ENDBRANCH 1 17
BRANCH 1 20
ATOM     20  C   VAL B 303      14.037   5.243  32.739  1.00 37.27 LIG 0.24  C 
ATOM     21 O    VAL B 303      13.527   5.733  33.748  1.00 36.92 LIG-0.27  OA
ATOM     22  N   SER B 304      15.264   5.546  32.332  1.00 37.37 LIG-0.34  N 
ATOM     23 H    SER B 304      15.639   5.204  31.638  1.00 37.37 LIG 0.16  HD
BRANCH 22 24
ATOM     24  CA  SER B 304      16.088   6.507  33.053  1.00 37.74 LIG 0.20  C 
BRANCH 24 25
ATOM     25  CB  SER B 304      17.060   5.780  33.985  1.00 37.88 LIG 0.20  C 
BRANCH 25 26
ATOM     26 OG   SER B 304      16.930   6.250  35.317  1.00 38.36 LIG-0.40  OA
ATOM     27 HG   SER B 304      16.381   6.886  35.337  1.00 38.36 LIG 0.21  HD
ENDBRANCH 25 26
ENDBRANCH 24 25
BRANCH 24 28
ATOM     28  C   SER B 304      16.864   7.357  32.051  1.00 37.93 LIG 0.24  C 
ATOM     29 O    SER B 304      17.330   6.850  31.030  1.00 38.21 LIG-0.27  OA
ATOM     30  N   ALA B 305      16.999   8.646  32.343  1.00 38.06 LIG-0.35  N 
ATOM     31 H    ALA B 305      16.682   9.014  33.052  1.00 38.06 LIG 0.16  HD
BRANCH 30 32
ATOM     32  CA  ALA B 305      17.715   9.557  31.457  1.00 38.30 LIG 0.16  C 
ATOM     33  CB  ALA B 305      17.201   9.397  30.027  1.00 38.13 LIG 0.04  C 
BRANCH 32 34
ATOM     34  C   ALA B 305      17.559  11.005  31.906  1.00 38.47 LIG 0.22  C 
ATOM     35 O    ALA B 305      16.435  11.379  32.303  1.00 38.58 LIG-0.29  OA
ENDBRANCH 32 34
ENDBRANCH 30 32
ENDBRANCH 24 28
ENDBRANCH 22 24
ENDBRANCH 1 20
TORSDOF 14
ENDMDL
MODEL 2
USER: ADFR SOLUTION from run 58
USER: SCORE 9.875149 LL:  -1.711 LR: -10.617 RR:   0.000 FEB:  -6.440
USER: RMSD 1.538206
USER: SEED 57
USER: STATUS 1 or 2 clusters left
USER: GENES 16
USER: genes 0 Translation |==|  0.51933 0.49105 0.37449
USER: genes 1 Rotation |==|  0.58579 0.53900 0.49971 0.99104
USER: genes 2 Torsion [CB]-CA--N-[C] |==|  0.25826
USER: genes 3 Torsion [N]-C--CA-[N] |==|  0.48734
USER: genes 4 Torsion [C]-CA--N-[C] |==|  0.55740
USER: genes 5 Torsion [N]-C--CA-[N] |==|  0.60923
USER: genes 6 Torsion [C]-CA--CB-[OG] |==|  0.39876
USER: genes 7 Torsion [CA]-CB--OG-[HG] |==|  0.83693
USER: genes 8 Torsion [N]-CA--CB-[CG1] |==|  0.71759
USER: genes 9 Torsion [N]-CA--C-[N] |==|  0.48831
USER: genes 10 Torsion [C]-N--CA-[CB] |==|  0.27190
USER: genes 11 Torsion [N]-CA--CB-[OG] |==|  0.53138
USER: genes 12 Torsion [CA]-CB--OG-[HG] |==|  0.05953
USER: genes 13 Torsion [N]-CA--C-[N] |==|  0.39458
USER: genes 14 Torsion [C]-N--CA-[C] |==|  0.48637
USER: genes 15 Torsion [N]-CA--C-[O] |==|  0.88664
ROOT
ATOM      1  CA  VAL B 303      13.466   4.455  31.549  1.00 37.13 LIG 0.18  C 
ENDROOT
BRANCH 1 2
ATOM      2  N   VAL B 303      12.310   3.948  32.277  1.00 37.20 LIG-0.35  N 
ATOM      3  C   SER B 302      11.868   2.706  32.113  1.00 37.39 LIG 0.24  C 
ATOM      4 O    SER B 302      12.388   1.907  31.328  1.00 37.76 LIG-0.27  OA
ATOM      5 H    VAL B 303      11.950   4.518  32.811  1.00 37.20 LIG 0.16  HD
BRANCH 3 6
ATOM      6  CA  SER B 302      10.655   2.308  32.948  1.00 37.09 LIG 0.20  C 
BRANCH 6 7
ATOM      7  N   SER B 302      10.205   0.967  32.599  1.00 36.48 LIG-0.34  N 
ATOM      8 H    SER B 302      10.801   0.482  32.212  1.00 36.48 LIG 0.16  HD
ATOM      9  C   ALA B 301       8.972   0.552  32.870  1.00 36.26 LIG 0.26  C 
ATOM     10 O    ALA B 301       8.137   1.261  33.433  1.00 35.88 LIG-0.27  OA
BRANCH 9 11
ATOM     11  CA  ALA B 301       8.627  -0.872  32.445  1.00 36.43 LIG 0.40  C 
ATOM     12  CB  ALA B 301       9.616  -1.354  31.388  1.00 36.70 LIG 0.06  C 
ATOM     13  N   ALA B 301       7.237  -0.946  31.906  1.00 36.51 LIG 0.61  N 
ENDBRANCH 9 11
ENDBRANCH 6 7
BRANCH 6 14
ATOM     14  CB  SER B 302      11.013   2.384  34.435  1.00 37.65 LIG 0.20  C 
BRANCH 14 15
ATOM     15 OG   SER B 302       9.915   2.846  35.201  1.00 38.63 LIG-0.40  OA
ATOM     16 HG   SER B 302       9.682   3.605  34.927  1.00 38.63 LIG 0.21  HD
ENDBRANCH 14 15
ENDBRANCH 6 14
ENDBRANCH 3 6
ENDBRANCH 1 2
BRANCH 1 17
ATOM     17  CB  VAL B 303      13.048   5.167  30.237  1.00 37.28 LIG 0.01  C 
ATOM     18  CG1 VAL B 303      13.282   4.251  29.051  1.00 36.92 LIG 0.01  C 
ATOM     19  CG2 VAL B 303      11.584   5.579  30.309  1.00 37.06 LIG 0.01  C 
ENDBRANCH 1 17
BRANCH 1 20
ATOM     20  C   VAL B 303      14.222   5.445  32.424  1.00 37.27 LIG 0.24  C 
ATOM     21 O    VAL B 303      13.793   5.760  33.535  1.00 36.92 LIG-0.27  OA
ATOM     22  N   SER B 304      15.354   5.929  31.926  1.00 37.37 LIG-0.34  N 
ATOM     23 H    SER B 304      15.675   5.711  31.158  1.00 37.37 LIG 0.16  HD
BRANCH 22 24
ATOM     24  CA  SER B 304      16.159   6.893  32.665  1.00 37.74 LIG 0.20  C 
BRANCH 24 25
ATOM     25  CB  SER B 304      17.304   6.184  33.392  1.00 37.88 LIG 0.20  C 
BRANCH 25 26
ATOM     26 OG   SER B 304      17.935   7.057  34.314  1.00 38.36 LIG-0.40  OA
ATOM     27 HG   SER B 304      17.410   7.683  34.511  1.00 38.36 LIG 0.21  HD
ENDBRANCH 25 26
ENDBRANCH 24 25
BRANCH 24 28
ATOM     28  C   SER B 304      16.720   7.929  31.696  1.00 37.93 LIG 0.24  C 
ATOM     29 O    SER B 304      17.095   7.595  30.571  1.00 38.21 LIG-0.27  OA
ATOM     30  N   ALA B 305      16.774   9.183  32.131  1.00 38.06 LIG-0.35  N 
ATOM     31 H    ALA B 305      16.519   9.432  32.913  1.00 38.06 LIG 0.16  HD
BRANCH 30 32
ATOM     32  CA  ALA B 305      17.285  10.261  31.291  1.00 38.30 LIG 0.16  C 
ATOM     33  CB  ALA B 305      16.550  10.264  29.952  1.00 38.13 LIG 0.04  C 
BRANCH 32 34
ATOM     34  C   ALA B 305      17.132  11.616  31.972  1.00 38.47 LIG 0.22  C 
ATOM     35 O    ALA B 305      16.075  11.843  32.597  1.00 38.58 LIG-0.29  OA
ENDBRANCH 32 34
ENDBRANCH 30 32
ENDBRANCH 24 28
ENDBRANCH 22 24
ENDBRANCH 1 20
TORSDOF 14
ENDMDL
MODEL 3
USER: ADFR SOLUTION from run 198
USER: SCORE 10.269070 LL:  -1.582 LR:  -9.867 RR:   0.000 FEB:  -5.691
USER: RMSD 1.855658
USER: SEED 197
USER: STATUS 1 or 2 clusters left
USER: GENES 16
USER: genes 0 Translation |==|  0.49614 0.46729 0.34197
USER: genes 1 Rotation |==|  0.53327 0.58941 0.49053 0.99072
USER: genes 2 Torsion [CB]-CA--N-[C] |==|  0.21961
USER: genes 3 Torsion [N]-C--CA-[N] |==|  0.47593
USER: genes 4 Torsion [C]-CA--N-[C] |==|  0.58208
USER: genes 5 Torsion [N]-C--CA-[N] |==|  0.54147
USER: genes 6 Torsion [C]-CA--CB-[OG] |==|  0.35862
USER: genes 7 Torsion [CA]-CB--OG-[HG] |==|  0.90070
USER: genes 8 Torsion [N]-CA--CB-[CG1] |==|  0.19753
USER: genes 9 Torsion [N]-CA--C-[N] |==|  0.10181
USER: genes 10 Torsion [C]-N--CA-[CB] |==|  0.53340
USER: genes 11 Torsion [N]-CA--CB-[OG] |==|  0.85379
USER: genes 12 Torsion [CA]-CB--OG-[HG] |==|  0.56914
USER: genes 13 Torsion [N]-CA--C-[N] |==|  0.41119
USER: genes 14 Torsion [C]-N--CA-[C] |==|  0.74919
USER: genes 15 Torsion [N]-CA--C-[O] |==|  0.24077
ROOT
ATOM      1  CA  VAL B 303      12.997   3.974  31.061  1.00 37.13 LIG 0.18  C 
ENDROOT
BRANCH 1 2
ATOM      2  N   VAL B 303      12.029   3.637  32.098  1.00 37.20 LIG-0.35  N 
ATOM      3  C   SER B 302      11.404   2.464  32.119  1.00 37.39 LIG 0.24  C 
ATOM      4 O    SER B 302      11.583   1.594  31.263  1.00 37.76 LIG-0.27  OA
ATOM      5 H    VAL B 303      11.905   4.256  32.682  1.00 37.20 LIG 0.16  HD
BRANCH 3 6
ATOM      6  CA  SER B 302      10.426   2.245  33.268  1.00 37.09 LIG 0.20  C 
BRANCH 6 7
ATOM      7  N   SER B 302       9.662   1.021  33.069  1.00 36.48 LIG-0.34  N 
ATOM      8 H    SER B 302      10.077   0.410  32.628  1.00 36.48 LIG 0.16  HD
ATOM      9  C   ALA B 301       8.427   0.885  33.542  1.00 36.26 LIG 0.26  C 
ATOM     10 O    ALA B 301       7.854   1.770  34.179  1.00 35.88 LIG-0.27  OA
BRANCH 9 11
ATOM     11  CA  ALA B 301       7.735  -0.444  33.257  1.00 36.43 LIG 0.40  C 
ATOM     12  CB  ALA B 301       7.981  -0.860  31.809  1.00 36.70 LIG 0.06  C 
ATOM     13  N   ALA B 301       6.267  -0.347  33.510  1.00 36.51 LIG 0.61  N 
ENDBRANCH 9 11
ENDBRANCH 6 7
BRANCH 6 14
ATOM     14  CB  SER B 302      11.198   2.186  34.590  1.00 37.65 LIG 0.20  C 
BRANCH 14 15
ATOM     15 OG   SER B 302      10.636   3.065  35.548  1.00 38.63 LIG-0.40  OA
ATOM     16 HG   SER B 302      10.358   3.758  35.164  1.00 38.63 LIG 0.21  HD
ENDBRANCH 14 15
ENDBRANCH 6 14
ENDBRANCH 3 6
ENDBRANCH 1 2
BRANCH 1 17
ATOM     17  CB  VAL B 303      12.298   4.400  29.745  1.00 37.28 LIG 0.01  C 
ATOM     18  CG1 VAL B 303      11.651   5.762  29.918  1.00 36.92 LIG 0.01  C 
ATOM     19  CG2 VAL B 303      13.305   4.433  28.603  1.00 37.06 LIG 0.01  C 
ENDBRANCH 1 17
BRANCH 1 20
ATOM     20  C   VAL B 303      13.877   5.119  31.541  1.00 37.27 LIG 0.24  C 
ATOM     21 O    VAL B 303      14.250   5.997  30.760  1.00 36.92 LIG-0.27  OA
ATOM     22  N   SER B 304      14.199   5.117  32.829  1.00 37.37 LIG-0.34  N 
ATOM     23 H    SER B 304      13.937   4.521  33.391  1.00 37.37 LIG 0.16  HD
BRANCH 22 24
ATOM     24  CA  SER B 304      15.046   6.156  33.402  1.00 37.74 LIG 0.20  C 
BRANCH 24 25
ATOM     25  CB  SER B 304      15.498   5.757  34.809  1.00 37.88 LIG 0.20  C 
BRANCH 25 26
ATOM     26 OG   SER B 304      14.387   5.406  35.616  1.00 38.36 LIG-0.40  OA
ATOM     27 HG   SER B 304      14.580   5.521  36.426  1.00 38.36 LIG 0.21  HD
ENDBRANCH 25 26
ENDBRANCH 24 25
BRANCH 24 28
ATOM     28  C   SER B 304      16.261   6.367  32.504  1.00 37.93 LIG 0.24  C 
ATOM     29 O    SER B 304      16.738   5.428  31.865  1.00 38.21 LIG-0.27  OA
ATOM     30  N   ALA B 305      16.759   7.598  32.456  1.00 38.06 LIG-0.35  N 
ATOM     31 H    ALA B 305      16.440   8.263  32.898  1.00 38.06 LIG 0.16  HD
BRANCH 30 32
ATOM     32  CA  ALA B 305      17.915   7.921  31.628  1.00 38.30 LIG 0.16  C 
ATOM     33  CB  ALA B 305      17.801   9.358  31.121  1.00 38.13 LIG 0.04  C 
BRANCH 32 34
ATOM     34  C   ALA B 305      19.218   7.745  32.400  1.00 38.47 LIG 0.22  C 
ATOM     35 O    ALA B 305      19.742   6.611  32.416  1.00 38.58 LIG-0.29  OA
ENDBRANCH 32 34
ENDBRANCH 30 32
ENDBRANCH 24 28
ENDBRANCH 22 24
ENDBRANCH 1 20
TORSDOF 14
ENDMDL
MODEL 4
USER: ADFR SOLUTION from run 183
USER: SCORE 10.294743 LL:  -1.980 LR:  -9.500 RR:   0.000 FEB:  -5.324
USER: RMSD 4.030738
USER: SEED 182
USER: STATUS no improvement in best in 5 clusters for 5 generations
USER: GENES 16
USER: genes 0 Translation |==|  0.48873 0.45942 0.36293
USER: genes 1 Rotation |==|  0.56158 0.59651 0.51526 0.98648
USER: genes 2 Torsion [CB]-CA--N-[C] |==|  0.25055
USER: genes 3 Torsion [N]-C--CA-[N] |==|  0.98244
USER: genes 4 Torsion [C]-CA--N-[C] |==|  0.72443
USER: genes 5 Torsion [N]-C--CA-[N] |==|  0.36036
USER: genes 6 Torsion [C]-CA--CB-[OG] |==|  0.61457
USER: genes 7 Torsion [CA]-CB--OG-[HG] |==|  0.76784
USER: genes 8 Torsion [N]-CA--CB-[CG1] |==|  0.35840
USER: genes 9 Torsion [N]-CA--C-[N] |==|  0.35977
USER: genes 10 Torsion [C]-N--CA-[CB] |==|  0.84870
USER: genes 11 Torsion [N]-CA--CB-[OG] |==|  0.54016
USER: genes 12 Torsion [CA]-CB--OG-[HG] |==|  0.79678
USER: genes 13 Torsion [N]-CA--C-[N] |==|  0.36148
USER: genes 14 Torsion [C]-N--CA-[C] |==|  0.66036
USER: genes 15 Torsion [N]-CA--C-[O] |==|  0.94765
ROOT
ATOM      1  CA  VAL B 303      12.847   3.814  31.376  1.00 37.13 LIG 0.18  C 
ENDROOT
BRANCH 1 2
ATOM      2  N   VAL B 303      11.936   3.271  32.376  1.00 37.20 LIG-0.35  N 
ATOM      3  C   SER B 302      11.575   1.992  32.373  1.00 37.39 LIG 0.24  C 
ATOM      4 O    SER B 302      11.966   1.187  31.523  1.00 37.76 LIG-0.27  OA
ATOM      5 H    VAL B 303      11.662   3.844  32.955  1.00 37.20 LIG 0.16  HD
BRANCH 3 6
ATOM      6  CA  SER B 302      10.626   1.559  33.485  1.00 37.09 LIG 0.20  C 
BRANCH 6 7
ATOM      7  N   SER B 302      10.418   2.643  34.437  1.00 36.48 LIG-0.34  N 
ATOM      8 H    SER B 302       9.842   3.231  34.186  1.00 36.48 LIG 0.16  HD
ATOM      9  C   ALA B 301      11.077   2.694  35.590  1.00 36.26 LIG 0.26  C 
ATOM     10 O    ALA B 301      11.892   1.837  35.933  1.00 35.88 LIG-0.27  OA
BRANCH 9 11
ATOM     11  CA  ALA B 301      10.772   3.886  36.492  1.00 36.43 LIG 0.40  C 
ATOM     12  CB  ALA B 301      11.961   4.842  36.511  1.00 36.70 LIG 0.06  C 
ATOM     13  N   ALA B 301      10.463   3.438  37.882  1.00 36.51 LIG 0.61  N 
ENDBRANCH 9 11
ENDBRANCH 6 7
BRANCH 6 14
ATOM     14  CB  SER B 302       9.291   1.119  32.875  1.00 37.65 LIG 0.20  C 
BRANCH 14 15
ATOM     15 OG   SER B 302       8.199   1.591  33.642  1.00 38.63 LIG-0.40  OA
ATOM     16 HG   SER B 302       8.058   1.065  34.282  1.00 38.63 LIG 0.21  HD
ENDBRANCH 14 15
ENDBRANCH 6 14
ENDBRANCH 3 6
ENDBRANCH 1 2
BRANCH 1 17
ATOM     17  CB  VAL B 303      12.082   4.351  30.139  1.00 37.28 LIG 0.01  C 
ATOM     18  CG1 VAL B 303      12.532   5.764  29.822  1.00 36.92 LIG 0.01  C 
ATOM     19  CG2 VAL B 303      12.316   3.439  28.942  1.00 37.06 LIG 0.01  C 
ENDBRANCH 1 17
BRANCH 1 20
ATOM     20  C   VAL B 303      13.649   4.955  31.987  1.00 37.27 LIG 0.24  C 
ATOM     21 O    VAL B 303      13.085   5.864  32.598  1.00 36.92 LIG-0.27  OA
ATOM     22  N   SER B 304      14.966   4.901  31.830  1.00 37.37 LIG-0.34  N 
ATOM     23 H    SER B 304      15.377   4.267  31.418  1.00 37.37 LIG 0.16  HD
BRANCH 22 24
ATOM     24  CA  SER B 304      15.838   5.942  32.360  1.00 37.74 LIG 0.20  C 
BRANCH 24 25
ATOM     25  CB  SER B 304      15.396   7.315  31.851  1.00 37.88 LIG 0.20  C 
BRANCH 25 26
ATOM     26 OG   SER B 304      16.404   8.286  32.077  1.00 38.36 LIG-0.40  OA
ATOM     27 HG   SER B 304      16.436   8.472  32.896  1.00 38.36 LIG 0.21  HD
ENDBRANCH 25 26
ENDBRANCH 24 25
BRANCH 24 28
ATOM     28  C   SER B 304      15.789   5.911  33.885  1.00 37.93 LIG 0.24  C 
ATOM     29 O    SER B 304      14.709   5.897  34.476  1.00 38.21 LIG-0.27  OA
ATOM     30  N   ALA B 305      16.957   5.897  34.517  1.00 38.06 LIG-0.35  N 
ATOM     31 H    ALA B 305      17.719   5.908  34.119  1.00 38.06 LIG 0.16  HD
BRANCH 30 32
ATOM     32  CA  ALA B 305      17.036   5.861  35.973  1.00 38.30 LIG 0.16  C 
ATOM     33  CB  ALA B 305      17.691   4.556  36.422  1.00 38.13 LIG 0.04  C 
BRANCH 32 34
ATOM     34  C   ALA B 305      17.820   7.049  36.517  1.00 38.47 LIG 0.22  C 
ATOM     35 O    ALA B 305      18.573   7.664  35.733  1.00 38.58 LIG-0.29  OA
ENDBRANCH 32 34
ENDBRANCH 30 32
ENDBRANCH 24 28
ENDBRANCH 22 24
ENDBRANCH 1 20
TORSDOF 14
ENDMDL
MODEL 5
USER: ADFR SOLUTION from run 145
USER: SCORE 9.509436 LL:  -1.622 LR:  -9.100 RR:   0.000 FEB:  -4.924
USER: RMSD 3.053704
USER: SEED 144
USER: STATUS no improvement in best in 4 clusters for 5 generations
USER: GENES 16
USER: genes 0 Translation |==|  0.48339 0.45474 0.37097
USER: genes 1 Rotation |==|  0.52232 0.53715 0.47517 0.99750
USER: genes 2 Torsion [CB]-CA--N-[C] |==|  0.26606
USER: genes 3 Torsion [N]-C--CA-[N] |==|  0.44872
USER: genes 4 Torsion [C]-CA--N-[C] |==|  0.55006
USER: genes 5 Torsion [N]-C--CA-[N] |==|  0.53047
USER: genes 6 Torsion [C]-CA--CB-[OG] |==|  0.49494
USER: genes 7 Torsion [CA]-CB--OG-[HG] |==|  0.70183
USER: genes 8 Torsion [N]-CA--CB-[CG1] |==|  0.19605
USER: genes 9 Torsion [N]-CA--C-[N] |==|  0.40874
USER: genes 10 Torsion [C]-N--CA-[CB] |==|  0.84692
USER: genes 11 Torsion [N]-CA--CB-[OG] |==|  0.54458
USER: genes 12 Torsion [CA]-CB--OG-[HG] |==|  0.76214
USER: genes 13 Torsion [N]-CA--C-[N] |==|  0.36344
USER: genes 14 Torsion [C]-N--CA-[C] |==|  0.68932
USER: genes 15 Torsion [N]-CA--C-[O] |==|  0.91758
ROOT
ATOM      1  CA  VAL B 303      12.739   3.719  31.497  1.00 37.13 LIG 0.18  C 
ENDROOT
BRANCH 1 2
ATOM      2  N   VAL B 303      11.560   3.510  32.328  1.00 37.20 LIG-0.35  N 
ATOM      3  C   SER B 302      11.054   2.299  32.534  1.00 37.39 LIG 0.24  C 
ATOM      4 O    SER B 302      11.530   1.279  32.029  1.00 37.76 LIG-0.27  OA
ATOM      5 H    VAL B 303      11.231   4.230  32.665  1.00 37.20 LIG 0.16  HD
BRANCH 3 6
ATOM      6  CA  SER B 302       9.826   2.228  33.435  1.00 37.09 LIG 0.20  C 
BRANCH 6 7
ATOM      7  N   SER B 302       9.117   0.969  33.244  1.00 36.48 LIG-0.34  N 
ATOM      8 H    SER B 302       9.583   0.353  32.865  1.00 36.48 LIG 0.16  HD
ATOM      9  C   ALA B 301       7.856   0.813  33.634  1.00 36.26 LIG 0.26  C 
ATOM     10 O    ALA B 301       7.210   1.706  34.182  1.00 35.88 LIG-0.27  OA
BRANCH 9 11
ATOM     11  CA  ALA B 301       7.229  -0.552  33.368  1.00 36.43 LIG 0.40  C 
ATOM     12  CB  ALA B 301       7.512  -0.985  31.932  1.00 36.70 LIG 0.06  C 
ATOM     13  N   ALA B 301       5.756  -0.519  33.604  1.00 36.51 LIG 0.61  N 
ENDBRANCH 9 11
ENDBRANCH 6 7
BRANCH 6 14
ATOM     14  CB  SER B 302      10.255   2.386  34.897  1.00 37.65 LIG 0.20  C 
BRANCH 14 15
ATOM     15 OG   SER B 302       9.134   2.367  35.762  1.00 38.63 LIG-0.40  OA
ATOM     16 HG   SER B 302       8.994   3.142  36.057  1.00 38.63 LIG 0.21  HD
ENDBRANCH 14 15
ENDBRANCH 6 14
ENDBRANCH 3 6
ENDBRANCH 1 2
BRANCH 1 17
ATOM     17  CB  VAL B 303      12.352   4.099  30.044  1.00 37.28 LIG 0.01  C 
ATOM     18  CG1 VAL B 303      11.771   5.500  30.010  1.00 36.92 LIG 0.01  C 
ATOM     19  CG2 VAL B 303      13.572   4.009  29.136  1.00 37.06 LIG 0.01  C 
ENDBRANCH 1 17
BRANCH 1 20
ATOM     20  C   VAL B 303      13.583   4.840  32.086  1.00 37.27 LIG 0.24  C 
ATOM     21 O    VAL B 303      13.054   5.779  32.684  1.00 36.92 LIG-0.27  OA
ATOM     22  N   SER B 304      14.897   4.736  31.926  1.00 37.37 LIG-0.34  N 
ATOM     23 H    SER B 304      15.284   4.082  31.523  1.00 37.37 LIG 0.16  HD
BRANCH 22 24
ATOM     24  CA  SER B 304      15.807   5.754  32.437  1.00 37.74 LIG 0.20  C 
BRANCH 24 25
ATOM     25  CB  SER B 304      15.423   7.132  31.894  1.00 37.88 LIG 0.20  C 
BRANCH 25 26
ATOM     26 OG   SER B 304      16.482   8.058  32.070  1.00 38.36 LIG-0.40  OA
ATOM     27 HG   SER B 304      16.435   8.395  32.838  1.00 38.36 LIG 0.21  HD
ENDBRANCH 25 26
ENDBRANCH 24 25
BRANCH 24 28
ATOM     28  C   SER B 304      15.751   5.760  33.962  1.00 37.93 LIG 0.24  C 
ATOM     29 O    SER B 304      14.668   5.791  34.548  1.00 38.21 LIG-0.27  OA
ATOM     30  N   ALA B 305      16.916   5.729  34.600  1.00 38.06 LIG-0.35  N 
ATOM     31 H    ALA B 305      17.679   5.710  34.206  1.00 38.06 LIG 0.16  HD
BRANCH 30 32
ATOM     32  CA  ALA B 305      16.987   5.725  36.057  1.00 38.30 LIG 0.16  C 
ATOM     33  CB  ALA B 305      17.830   4.542  36.529  1.00 38.13 LIG 0.04  C 
BRANCH 32 34
ATOM     34  C   ALA B 305      17.575   7.028  36.588  1.00 38.47 LIG 0.22  C 
ATOM     35 O    ALA B 305      18.397   7.636  35.871  1.00 38.58 LIG-0.29  OA
ENDBRANCH 32 34
ENDBRANCH 30 32
ENDBRANCH 24 28
ENDBRANCH 22 24
ENDBRANCH 1 20
TORSDOF 14
ENDMDL
MODEL 6
USER: ADFR SOLUTION from run 27
USER: SCORE 9.264791 LL:  -2.054 LR:  -9.074 RR:   0.000 FEB:  -4.898
USER: RMSD 2.173877
USER: SEED 26
USER: STATUS searching
USER: GENES 16
USER: genes 0 Translation |==|  0.52119 0.44050 0.52448
USER: genes 1 Rotation |==|  0.38614 0.52786 0.42653 0.98048
USER: genes 2 Torsion [CB]-CA--N-[C] |==|  0.26475
USER: genes 3 Torsion [N]-C--CA-[N] |==|  0.38328
USER: genes 4 Torsion [C]-CA--N-[C] |==|  0.85000
USER: genes 5 Torsion [N]-C--CA-[N] |==|  0.17706
USER: genes 6 Torsion [C]-CA--CB-[OG] |==|  0.62474
USER: genes 7 Torsion [CA]-CB--OG-[HG] |==|  0.84980
USER: genes 8 Torsion [N]-CA--CB-[CG1] |==|  0.82312
USER: genes 9 Torsion [N]-CA--C-[N] |==|  0.42202
USER: genes 10 Torsion [C]-N--CA-[CB] |==|  0.49450
USER: genes 11 Torsion [N]-CA--CB-[OG] |==|  0.15303
USER: genes 12 Torsion [CA]-CB--OG-[HG] |==|  0.64067
USER: genes 13 Torsion [N]-CA--C-[N] |==|  0.36184
USER: genes 14 Torsion [C]-N--CA-[C] |==|  0.81459
USER: genes 15 Torsion [N]-CA--C-[O] |==|  0.93104
ROOT
ATOM      1  CA  VAL B 303      13.504   3.431  33.799  1.00 37.13 LIG 0.18  C 
ENDROOT
BRANCH 1 2
ATOM      2  N   VAL B 303      12.348   3.878  34.566  1.00 37.20 LIG-0.35  N 
ATOM      3  C   SER B 302      11.671   3.053  35.358  1.00 37.39 LIG 0.24  C 
ATOM      4 O    SER B 302      11.958   1.860  35.485  1.00 37.76 LIG-0.27  OA
ATOM      5 H    VAL B 303      12.152   4.709  34.460  1.00 37.20 LIG 0.16  HD
BRANCH 3 6
ATOM      6  CA  SER B 302      10.491   3.660  36.109  1.00 37.09 LIG 0.20  C 
BRANCH 6 7
ATOM      7  N   SER B 302       9.349   2.755  36.095  1.00 36.48 LIG-0.34  N 
ATOM      8 H    SER B 302       9.031   2.573  36.873  1.00 36.48 LIG 0.16  HD
ATOM      9  C   ALA B 301       8.860   2.266  34.960  1.00 36.26 LIG 0.26  C 
ATOM     10 O    ALA B 301       9.326   2.546  33.856  1.00 35.88 LIG-0.27  OA
BRANCH 9 11
ATOM     11  CA  ALA B 301       7.668   1.322  35.088  1.00 36.43 LIG 0.40  C 
ATOM     12  CB  ALA B 301       7.310   0.747  33.721  1.00 36.70 LIG 0.06  C 
ATOM     13  N   ALA B 301       6.486   2.030  35.662  1.00 36.51 LIG 0.61  N 
ENDBRANCH 9 11
ENDBRANCH 6 7
BRANCH 6 14
ATOM     14  CB  SER B 302      10.909   3.975  37.548  1.00 37.65 LIG 0.20  C 
BRANCH 14 15
ATOM     15 OG   SER B 302       9.920   3.555  38.470  1.00 38.63 LIG-0.40  OA
ATOM     16 HG   SER B 302       9.179   3.889  38.259  1.00 38.63 LIG 0.21  HD
ENDBRANCH 14 15
ENDBRANCH 6 14
ENDBRANCH 3 6
ENDBRANCH 1 2
BRANCH 1 17
ATOM     17  CB  VAL B 303      13.110   3.034  32.353  1.00 37.28 LIG 0.01  C 
ATOM     18  CG1 VAL B 303      12.168   1.846  32.379  1.00 36.92 LIG 0.01  C 
ATOM     19  CG2 VAL B 303      12.457   4.214  31.645  1.00 37.06 LIG 0.01  C 
ENDBRANCH 1 17
BRANCH 1 20
ATOM     20  C   VAL B 303      14.535   4.550  33.736  1.00 37.27 LIG 0.24  C 
ATOM     21 O    VAL B 303      14.188   5.730  33.809  1.00 36.92 LIG-0.27  OA
ATOM     22  N   SER B 304      15.803   4.178  33.610  1.00 37.37 LIG-0.34  N 
ATOM     23 H    SER B 304      16.064   3.359  33.570  1.00 37.37 LIG 0.16  HD
BRANCH 22 24
ATOM     24  CA  SER B 304      16.878   5.159  33.527  1.00 37.74 LIG 0.20  C 
BRANCH 24 25
ATOM     25  CB  SER B 304      18.234   4.455  33.436  1.00 37.88 LIG 0.20  C 
BRANCH 25 26
ATOM     26 OG   SER B 304      18.257   3.541  32.352  1.00 38.36 LIG-0.40  OA
ATOM     27 HG   SER B 304      18.530   2.793  32.622  1.00 38.36 LIG 0.21  HD
ENDBRANCH 25 26
ENDBRANCH 24 25
BRANCH 24 28
ATOM     28  C   SER B 304      16.664   6.037  32.297  1.00 37.93 LIG 0.24  C 
ATOM     29 O    SER B 304      16.442   5.530  31.197  1.00 38.21 LIG-0.27  OA
ATOM     30  N   ALA B 305      16.729   7.350  32.486  1.00 38.06 LIG-0.35  N 
ATOM     31 H    ALA B 305      16.885   7.719  33.247  1.00 38.06 LIG 0.16  HD
BRANCH 30 32
ATOM     32  CA  ALA B 305      16.535   8.289  31.387  1.00 38.30 LIG 0.16  C 
ATOM     33  CB  ALA B 305      16.450   9.713  31.934  1.00 38.13 LIG 0.04  C 
BRANCH 32 34
ATOM     34  C   ALA B 305      17.663   8.191  30.366  1.00 38.47 LIG 0.22  C 
ATOM     35 O    ALA B 305      18.768   7.757  30.753  1.00 38.58 LIG-0.29  OA
ENDBRANCH 32 34
ENDBRANCH 30 32
ENDBRANCH 24 28
ENDBRANCH 22 24
ENDBRANCH 1 20
TORSDOF 14
ENDMDL
MODEL 7
USER: ADFR SOLUTION from run 128
USER: SCORE 9.170221 LL:  -1.832 LR:  -8.996 RR:   0.000 FEB:  -4.820
USER: RMSD 4.264034
USER: SEED 127
USER: STATUS no improvement in best in 4 clusters for 5 generations
USER: GENES 16
USER: genes 0 Translation |==|  0.62547 0.57491 0.45795
USER: genes 1 Rotation |==|  0.16892 0.18843 0.56916 0.69629
USER: genes 2 Torsion [CB]-CA--N-[C] |==|  0.27061
USER: genes 3 Torsion [N]-C--CA-[N] |==|  0.44772
USER: genes 4 Torsion [C]-CA--N-[C] |==|  0.57857
USER: genes 5 Torsion [N]-C--CA-[N] |==|  0.69176
USER: genes 6 Torsion [C]-CA--CB-[OG] |==|  0.76066
USER: genes 7 Torsion [CA]-CB--OG-[HG] |==|  0.11574
USER: genes 8 Torsion [N]-CA--CB-[CG1] |==|  0.17179
USER: genes 9 Torsion [N]-CA--C-[N] |==|  0.41696
USER: genes 10 Torsion [C]-N--CA-[CB] |==|  0.51122
USER: genes 11 Torsion [N]-CA--CB-[OG] |==|  0.78593
USER: genes 12 Torsion [CA]-CB--OG-[HG] |==|  0.80983
USER: genes 13 Torsion [N]-CA--C-[N] |==|  0.45319
USER: genes 14 Torsion [C]-N--CA-[C] |==|  0.84553
USER: genes 15 Torsion [N]-CA--C-[O] |==|  0.38658
ROOT
ATOM      1  CA  VAL B 303      15.616   6.153  32.801  1.00 37.13 LIG 0.18  C 
ENDROOT
BRANCH 1 2
ATOM      2  N   VAL B 303      14.742   5.180  32.158  1.00 37.20 LIG-0.35  N 
ATOM      3  C   SER B 302      13.596   4.795  32.711  1.00 37.39 LIG 0.24  C 
ATOM      4 O    SER B 302      13.203   5.216  33.802  1.00 37.76 LIG-0.27  OA
ATOM      5 H    VAL B 303      15.032   4.886  31.404  1.00 37.20 LIG 0.16  HD
BRANCH 3 6
ATOM      6  CA  SER B 302      12.777   3.780  31.921  1.00 37.09 LIG 0.20  C 
BRANCH 6 7
ATOM      7  N   SER B 302      11.810   3.113  32.783  1.00 36.48 LIG-0.34  N 
ATOM      8 H    SER B 302      11.546   3.585  33.452  1.00 36.48 LIG 0.16  HD
ATOM      9  C   ALA B 301      11.388   1.878  32.532  1.00 36.26 LIG 0.26  C 
ATOM     10 O    ALA B 301      11.773   1.223  31.564  1.00 35.88 LIG-0.27  OA
BRANCH 9 11
ATOM     11  CA  ALA B 301      10.380   1.294  33.519  1.00 36.43 LIG 0.40  C 
ATOM     12  CB  ALA B 301       9.877   2.386  34.457  1.00 36.70 LIG 0.06  C 
ATOM     13  N   ALA B 301      10.991   0.188  34.313  1.00 36.51 LIG 0.61  N 
ENDBRANCH 9 11
ENDBRANCH 6 7
BRANCH 6 14
ATOM     14  CB  SER B 302      12.065   4.487  30.763  1.00 37.65 LIG 0.20  C 
BRANCH 14 15
ATOM     15 OG   SER B 302      10.827   5.030  31.182  1.00 38.63 LIG-0.40  OA
ATOM     16 HG   SER B 302      10.917   5.383  31.939  1.00 38.63 LIG 0.21  HD
ENDBRANCH 14 15
ENDBRANCH 6 14
ENDBRANCH 3 6
ENDBRANCH 1 2
BRANCH 1 17
ATOM     17  CB  VAL B 303      16.760   5.461  33.587  1.00 37.28 LIG 0.01  C 
ATOM     18  CG1 VAL B 303      17.628   4.656  32.638  1.00 36.92 LIG 0.01  C 
ATOM     19  CG2 VAL B 303      17.597   6.501  34.319  1.00 37.06 LIG 0.01  C 
ENDBRANCH 1 17
BRANCH 1 20
ATOM     20  C   VAL B 303      16.229   7.061  31.744  1.00 37.27 LIG 0.24  C 
ATOM     21 O    VAL B 303      16.427   6.650  30.599  1.00 36.92 LIG-0.27  OA
ATOM     22  N   SER B 304      16.519   8.299  32.126  1.00 37.37 LIG-0.34  N 
ATOM     23 H    SER B 304      16.376   8.606  32.917  1.00 37.37 LIG 0.16  HD
BRANCH 22 24
ATOM     24  CA  SER B 304      17.120   9.256  31.206  1.00 37.74 LIG 0.20  C 
BRANCH 24 25
ATOM     25  CB  SER B 304      17.438  10.565  31.933  1.00 37.88 LIG 0.20  C 
BRANCH 25 26
ATOM     26 OG   SER B 304      16.261  11.333  32.127  1.00 38.36 LIG-0.40  OA
ATOM     27 HG   SER B 304      15.983  11.612  31.385  1.00 38.36 LIG 0.21  HD
ENDBRANCH 25 26
ENDBRANCH 24 25
BRANCH 24 28
ATOM     28  C   SER B 304      18.399   8.661  30.624  1.00 37.93 LIG 0.24  C 
ATOM     29 O    SER B 304      18.938   7.692  31.159  1.00 38.21 LIG-0.27  OA
ATOM     30  N   ALA B 305      18.879   9.239  29.529  1.00 38.06 LIG-0.35  N 
ATOM     31 H    ALA B 305      18.516   9.917  29.144  1.00 38.06 LIG 0.16  HD
BRANCH 30 32
ATOM     32  CA  ALA B 305      20.091   8.754  28.879  1.00 38.30 LIG 0.16  C 
ATOM     33  CB  ALA B 305      20.431   9.647  27.687  1.00 38.13 LIG 0.04  C 
BRANCH 32 34
ATOM     34  C   ALA B 305      21.265   8.715  29.851  1.00 38.47 LIG 0.22  C 
ATOM     35 O    ALA B 305      22.037   7.735  29.801  1.00 38.58 LIG-0.29  OA
ENDBRANCH 32 34
ENDBRANCH 30 32
ENDBRANCH 24 28
ENDBRANCH 22 24
ENDBRANCH 1 20
TORSDOF 14
ENDMDL
