MODEL 1
USER: ADFR SOLUTION from run 42
USER: SCORE 20.728951 LL:  -4.773 LR: -18.404 RR:   0.000 FEB: -11.244
USER: RMSD 3.207052
USER: SEED 41
USER: STATUS searching
USER: GENES 26
USER: genes 0 Translation |==|  0.49416 0.48496 0.58248
USER: genes 1 Rotation |==|  0.49817 0.46852 0.46006 0.99740
USER: genes 2 Torsion [C]-N--CA-[CB] |==|  0.26562
USER: genes 3 Torsion [N]-CA--CB-[CG] |==|  0.89109
USER: genes 4 Torsion [CA]-CB--CG-[CD1] |==|  0.71655
USER: genes 5 Torsion [N]-CA--C-[N] |==|  0.34701
USER: genes 6 Torsion [C]-N--CA-[C] |==|  0.76942
USER: genes 7 Torsion [N]-CA--C-[N] |==|  0.44907
USER: genes 8 Torsion [C]-N--CA-[CB] |==|  0.21146
USER: genes 9 Torsion [N]-CA--C-[O] |==|  0.47356
USER: genes 10 Torsion [N]-CA--CB-[CG] |==|  0.12930
USER: genes 11 Torsion [CA]-CB--CG-[CD2] |==|  0.71356
USER: genes 12 Torsion [CE1]-CZ--OH-[HH] |==|  0.12724
USER: genes 13 Torsion [N]-C--CA-[N] |==|  0.54364
USER: genes 14 Torsion [C]-CA--CB-[CG] |==|  0.59707
USER: genes 15 Torsion [CA]-CB--CG-[CD] |==|  0.74774
USER: genes 16 Torsion [CB]-CG--CD-[OE1] |==|  0.29714
USER: genes 17 Torsion [C]-CA--N-[C] |==|  0.72351
USER: genes 18 Torsion [N]-C--CA-[N] |==|  0.96668
USER: genes 19 Torsion [C]-CA--CB-[CG] |==|  0.20312
USER: genes 20 Torsion [CA]-CB--CG-[ND2] |==|  0.03469
USER: genes 21 Torsion [C]-CA--N-[C] |==|  0.17905
USER: genes 22 Torsion [N]-C--CA-[N] |==|  0.71840
USER: genes 23 Torsion [C]-CA--CB-[CG2] |==|  0.19947
USER: genes 24 Torsion [CA]-CB--OG1-[HG1] |==|  0.96626
USER: genes 25 Torsion [C]-CA--N-[H1] |==|  0.88743
ROOT
ATOM      1  C   GLU Q   3      14.792 -14.451  16.621  1.00 28.90 LIG 0.24  C 
ATOM      2 O    GLU Q   3      15.841 -13.965  16.181  1.00 28.99 LIG-0.27  OA
ATOM      3  N   PHE Q   4      14.158 -15.450  16.007  1.00 26.46 LIG-0.35  N 
ATOM      4 H    PHE Q   4      13.471 -15.842  16.345  1.00 26.46 LIG 0.16  HD
ENDROOT
BRANCH 3 5
ATOM      5  CA  PHE Q   4      14.549 -15.985  14.710  1.00 24.91 LIG 0.18  C 
BRANCH 5 6
ATOM      6  CB  PHE Q   4      15.448 -17.221  14.832  1.00 23.71 LIG 0.07  C 
BRANCH 6 7
ATOM      7  CG  PHE Q   4      16.461 -17.124  15.955  1.00 27.82 LIG-0.06  A 
ATOM      8  CD1 PHE Q   4      17.791 -16.819  15.696  1.00 28.27 LIG 0.01  A 
ATOM      9  CE1 PHE Q   4      18.721 -16.739  16.738  1.00 33.51 LIG 0.00  A 
ATOM     10  CZ  PHE Q   4      18.305 -16.921  18.045  1.00 29.48 LIG 0.00  A 
ATOM     11  CE2 PHE Q   4      16.994 -17.179  18.321  1.00 30.45 LIG 0.00  A 
ATOM     12  CD2 PHE Q   4      16.062 -17.310  17.270  1.00 30.03 LIG 0.01  A 
ENDBRANCH 6 7
ENDBRANCH 5 6
BRANCH 5 13
ATOM     13  C   PHE Q   4      13.305 -16.353  13.909  1.00 24.46 LIG 0.24  C 
ATOM     14 O    PHE Q   4      12.468 -17.148  14.343  1.00 21.72 LIG-0.27  OA
ATOM     15  N   TYR Q   5      13.242 -15.777  12.710  1.00 25.68 LIG-0.35  N 
ATOM     16 H    TYR Q   5      13.846 -15.230  12.434  1.00 25.68 LIG 0.16  HD
BRANCH 15 17
ATOM     17  CA  TYR Q   5      12.175 -15.984  11.730  1.00 24.76 LIG 0.18  C 
BRANCH 17 18
ATOM     18  C   TYR Q   5      12.511 -17.245  10.989  1.00 23.71 LIG 0.24  C 
ATOM     19  N   ALA Q   6      11.508 -17.811  10.332  1.00 23.95 LIG-0.34  N 
ATOM     20 H    ALA Q   6      10.699 -17.516  10.331  1.00 23.95 LIG 0.16  HD
ATOM     21 O    TYR Q   5      13.669 -17.675  10.944  1.00 22.91 LIG-0.27  OA
BRANCH 19 22
ATOM     22  CA  ALA Q   6      11.720 -19.010   9.544  1.00 23.91 LIG 0.18  C 
ATOM     23  CB  ALA Q   6      11.840 -20.212  10.456  1.00 25.24 LIG 0.04  C 
BRANCH 22 24
ATOM     24  C   ALA Q   6      10.660 -19.258   8.478  1.00 23.52 LIG 0.20  C 
ATOM     25 O    ALA Q   6      10.781 -20.123   7.625  1.00 23.09 LIG-0.65  OA
ATOM     26 OXT  ALA Q   6       9.661 -18.531   8.461  1.00 23.23 LIG-0.65  OA
ENDBRANCH 22 24
ENDBRANCH 19 22
ENDBRANCH 17 18
BRANCH 17 27
ATOM     27  CB  TYR Q   5      12.110 -14.787  10.751  1.00 25.21 LIG 0.07  C 
BRANCH 27 28
ATOM     28  CG  TYR Q   5      13.449 -14.334  10.189  1.00 26.66 LIG-0.06  A 
ATOM     29  CD1 TYR Q   5      14.089 -15.022   9.169  1.00 25.58 LIG 0.01  A 
ATOM     30  CE1 TYR Q   5      15.336 -14.591   8.678  1.00 26.73 LIG 0.04  A 
ATOM     31  CZ  TYR Q   5      15.934 -13.455   9.206  1.00 25.10 LIG 0.07  A 
ATOM     32  CE2 TYR Q   5      15.304 -12.743  10.186  1.00 24.98 LIG 0.04  A 
ATOM     33  CD2 TYR Q   5      14.070 -13.185  10.684  1.00 25.59 LIG 0.01  A 
BRANCH 31 34
ATOM     34 OH   TYR Q   5      17.158 -13.010   8.734  1.00 28.49 LIG-0.36  OA
ATOM     35 HH   TYR Q   5      17.157 -13.021   7.894  1.00 28.49 LIG 0.22  HD
ENDBRANCH 31 34
ENDBRANCH 27 28
ENDBRANCH 17 27
ENDBRANCH 15 17
ENDBRANCH 5 13
ENDBRANCH 3 5
BRANCH 1 36
ATOM     36  CA  GLU Q   3      14.198 -13.971  17.949  1.00 29.75 LIG 0.18  C 
BRANCH 36 37
ATOM     37  CB  GLU Q   3      12.662 -13.933  17.893  1.00 29.86 LIG 0.04  C 
BRANCH 37 38
ATOM     38  CG  GLU Q   3      11.917 -12.842  18.647  1.00 30.70 LIG 0.12  C 
BRANCH 38 39
ATOM     39  CD  GLU Q   3      11.565 -13.282  20.060  1.00 35.33 LIG 0.17  C 
ATOM     40 OE1  GLU Q   3      12.231 -12.757  20.984  1.00 35.34 LIG-0.65  OA
ATOM     41 OE2  GLU Q   3      10.658 -14.144  20.240  1.00 35.74 LIG-0.65  OA
ENDBRANCH 38 39
ENDBRANCH 37 38
ENDBRANCH 36 37
BRANCH 36 42
ATOM     42  N   GLU Q   3      14.763 -12.664  18.296  1.00 32.75 LIG-0.35  N 
ATOM     43  C   ASN Q   2      15.762 -12.546  19.175  1.00 36.04 LIG 0.24  C 
ATOM     44 O    ASN Q   2      16.237 -13.525  19.773  1.00 34.76 LIG-0.27  OA
ATOM     45 H    GLU Q   3      14.399 -12.000  17.890  1.00 32.75 LIG 0.16  HD
BRANCH 43 46
ATOM     46  CA  ASN Q   2      16.339 -11.129  19.377  1.00 38.34 LIG 0.18  C 
BRANCH 46 47
ATOM     47  CB  ASN Q   2      16.085 -10.615  20.803  1.00 38.76 LIG 0.14  C 
BRANCH 47 48
ATOM     48  CG  ASN Q   2      16.972 -11.304  21.850  1.00 42.06 LIG 0.22  C 
ATOM     49  ND2 ASN Q   2      17.981 -12.027  21.383  1.00 46.27 LIG-0.37  N 
ATOM     50 22HD ASN Q   2      18.103 -12.099  20.535  1.00 46.27 LIG 0.16  HD
ATOM     51 21HD ASN Q   2      18.514 -12.424  21.929  1.00 46.27 LIG 0.16  HD
ATOM     52 OD1  ASN Q   2      16.761 -11.174  23.058  1.00 44.45 LIG-0.27  OA
ENDBRANCH 47 48
ENDBRANCH 46 47
BRANCH 46 53
ATOM     53  N   ASN Q   2      15.898 -10.154  18.375  1.00 39.54 LIG-0.34  N 
ATOM     54  C   THR Q   1      14.643  -9.751  18.213  1.00 41.49 LIG 0.25  C 
ATOM     55 O    THR Q   1      13.734 -10.054  18.987  1.00 41.78 LIG-0.27  OA
ATOM     56 H    ASN Q   2      16.542  -9.859  17.888  1.00 39.54 LIG 0.16  HD
BRANCH 54 57
ATOM     57  CA  THR Q   1      14.373  -8.823  17.020  1.00 43.16 LIG 0.30  C 
BRANCH 57 58
ATOM     58  CB  THR Q   1      15.469  -8.934  15.930  1.00 43.89 LIG 0.15  C 
ATOM     59  CG2 THR Q   1      15.350 -10.258  15.200  1.00 45.05 LIG 0.04  C 
BRANCH 58 60
ATOM     60 OG1  THR Q   1      15.287  -7.934  14.909  1.00 46.29 LIG-0.39  OA
ATOM     61 HG1  THR Q   1      14.531  -7.578  14.996  1.00 46.29 LIG 0.21  HD
ENDBRANCH 58 60
ENDBRANCH 57 58
BRANCH 57 62
ATOM     62  N   THR Q   1      14.257  -7.391  17.456  1.00 43.28 LIG-0.06  N 
ATOM     63 H2   THR Q   1      15.071  -7.051  17.580  1.00 43.28 LIG 0.28  HD
ATOM     64 H1   THR Q   1      13.799  -7.348  18.218  1.00 43.28 LIG 0.28  HD
ATOM     65 H3   THR Q   1      13.834  -6.923  16.829  1.00 43.28 LIG 0.28  HD
ENDBRANCH 57 62
ENDBRANCH 54 57
ENDBRANCH 46 53
ENDBRANCH 43 46
ENDBRANCH 36 42
ENDBRANCH 1 36
TORSDOF 24
ENDMDL
MODEL 2
USER: ADFR SOLUTION from run 42
USER: SCORE 20.393896 LL:  -4.621 LR: -18.355 RR:   0.000 FEB: -11.196
USER: RMSD 2.546411
USER: SEED 41
USER: STATUS searching
USER: GENES 26
USER: genes 0 Translation |==|  0.49214 0.48072 0.58156
USER: genes 1 Rotation |==|  0.50974 0.48101 0.47571 0.99895
USER: genes 2 Torsion [C]-N--CA-[CB] |==|  0.28793
USER: genes 3 Torsion [N]-CA--CB-[CG] |==|  0.88051
USER: genes 4 Torsion [CA]-CB--CG-[CD1] |==|  0.70481
USER: genes 5 Torsion [N]-CA--C-[N] |==|  0.37966
USER: genes 6 Torsion [C]-N--CA-[C] |==|  0.73185
USER: genes 7 Torsion [N]-CA--C-[N] |==|  0.39099
USER: genes 8 Torsion [C]-N--CA-[CB] |==|  0.26026
USER: genes 9 Torsion [N]-CA--C-[O] |==|  0.99272
USER: genes 10 Torsion [N]-CA--CB-[CG] |==|  0.50382
USER: genes 11 Torsion [CA]-CB--CG-[CD2] |==|  0.57423
USER: genes 12 Torsion [CE1]-CZ--OH-[HH] |==|  0.66808
USER: genes 13 Torsion [N]-C--CA-[N] |==|  0.53823
USER: genes 14 Torsion [C]-CA--CB-[CG] |==|  0.63194
USER: genes 15 Torsion [CA]-CB--CG-[CD] |==|  0.72295
USER: genes 16 Torsion [CB]-CG--CD-[OE1] |==|  0.28497
USER: genes 17 Torsion [C]-CA--N-[C] |==|  0.76148
USER: genes 18 Torsion [N]-C--CA-[N] |==|  0.91825
USER: genes 19 Torsion [C]-CA--CB-[CG] |==|  0.20893
USER: genes 20 Torsion [CA]-CB--CG-[ND2] |==|  0.02935
USER: genes 21 Torsion [C]-CA--N-[C] |==|  0.18605
USER: genes 22 Torsion [N]-C--CA-[N] |==|  0.72075
USER: genes 23 Torsion [C]-CA--CB-[CG2] |==|  0.19841
USER: genes 24 Torsion [CA]-CB--OG1-[HG1] |==|  0.06505
USER: genes 25 Torsion [C]-CA--N-[H1] |==|  0.87947
ROOT
ATOM      1  C   GLU Q   3      14.753 -14.536  16.597  1.00 28.90 LIG 0.24  C 
ATOM      2 O    GLU Q   3      15.746 -13.963  16.133  1.00 28.99 LIG-0.27  OA
ATOM      3  N   PHE Q   4      14.155 -15.547  15.966  1.00 26.46 LIG-0.35  N 
ATOM      4 H    PHE Q   4      13.512 -15.999  16.315  1.00 26.46 LIG 0.16  HD
ENDROOT
BRANCH 3 5
ATOM      5  CA  PHE Q   4      14.518 -15.997  14.628  1.00 24.91 LIG 0.18  C 
BRANCH 5 6
ATOM      6  CB  PHE Q   4      15.338 -17.292  14.647  1.00 23.71 LIG 0.07  C 
BRANCH 6 7
ATOM      7  CG  PHE Q   4      16.413 -17.311  15.714  1.00 27.82 LIG-0.06  A 
ATOM      8  CD1 PHE Q   4      17.754 -17.166  15.384  1.00 28.27 LIG 0.01  A 
ATOM      9  CE1 PHE Q   4      18.741 -17.192  16.376  1.00 33.51 LIG 0.00  A 
ATOM     10  CZ  PHE Q   4      18.376 -17.321  17.704  1.00 29.48 LIG 0.00  A 
ATOM     11  CE2 PHE Q   4      17.060 -17.422  18.050  1.00 30.45 LIG 0.00  A 
ATOM     12  CD2 PHE Q   4      16.065 -17.445  17.050  1.00 30.03 LIG 0.01  A 
ENDBRANCH 6 7
ENDBRANCH 5 6
BRANCH 5 13
ATOM     13  C   PHE Q   4      13.256 -16.221  13.801  1.00 24.46 LIG 0.24  C 
ATOM     14 O    PHE Q   4      12.281 -16.822  14.259  1.00 21.72 LIG-0.27  OA
ATOM     15  N   TYR Q   5      13.332 -15.752  12.558  1.00 25.68 LIG-0.35  N 
ATOM     16 H    TYR Q   5      14.029 -15.341  12.266  1.00 25.68 LIG 0.16  HD
BRANCH 15 17
ATOM     17  CA  TYR Q   5      12.279 -15.864  11.548  1.00 24.76 LIG 0.18  C 
BRANCH 17 18
ATOM     18  C   TYR Q   5      12.613 -17.061  10.708  1.00 23.71 LIG 0.24  C 
ATOM     19  N   ALA Q   6      11.584 -17.813  10.341  1.00 23.95 LIG-0.34  N 
ATOM     20 H    ALA Q   6      10.769 -17.667  10.573  1.00 23.95 LIG 0.16  HD
ATOM     21 O    TYR Q   5      13.770 -17.278  10.330  1.00 22.91 LIG-0.27  OA
BRANCH 19 22
ATOM     22  CA  ALA Q   6      11.778 -18.972   9.491  1.00 23.91 LIG 0.18  C 
ATOM     23  CB  ALA Q   6      11.940 -20.213  10.342  1.00 25.24 LIG 0.04  C 
BRANCH 22 24
ATOM     24  C   ALA Q   6      10.684 -19.182   8.452  1.00 23.52 LIG 0.20  C 
ATOM     25 O    ALA Q   6       9.703 -18.459   8.381  1.00 23.09 LIG-0.65  OA
ATOM     26 OXT  ALA Q   6      10.781 -20.143   7.682  1.00 23.23 LIG-0.65  OA
ENDBRANCH 22 24
ENDBRANCH 19 22
ENDBRANCH 17 18
BRANCH 17 27
ATOM     27  CB  TYR Q   5      12.240 -14.588  10.672  1.00 25.21 LIG 0.07  C 
BRANCH 27 28
ATOM     28  CG  TYR Q   5      11.161 -14.567   9.601  1.00 26.66 LIG-0.06  A 
ATOM     29  CD1 TYR Q   5       9.974 -15.271   9.739  1.00 25.58 LIG 0.01  A 
ATOM     30  CE1 TYR Q   5       8.998 -15.248   8.726  1.00 26.73 LIG 0.04  A 
ATOM     31  CZ  TYR Q   5       9.211 -14.503   7.573  1.00 25.10 LIG 0.07  A 
ATOM     32  CE2 TYR Q   5      10.358 -13.775   7.433  1.00 24.98 LIG 0.04  A 
ATOM     33  CD2 TYR Q   5      11.336 -13.813   8.438  1.00 25.59 LIG 0.01  A 
BRANCH 31 34
ATOM     34 OH   TYR Q   5       8.262 -14.463   6.565  1.00 28.49 LIG-0.36  OA
ATOM     35 HH   TYR Q   5       8.594 -14.765   5.855  1.00 28.49 LIG 0.22  HD
ENDBRANCH 31 34
ENDBRANCH 27 28
ENDBRANCH 17 27
ENDBRANCH 15 17
ENDBRANCH 5 13
ENDBRANCH 3 5
BRANCH 1 36
ATOM     36  CA  GLU Q   3      14.193 -14.157  17.972  1.00 29.75 LIG 0.18  C 
BRANCH 36 37
ATOM     37  CB  GLU Q   3      12.656 -14.172  17.974  1.00 29.86 LIG 0.04  C 
BRANCH 37 38
ATOM     38  CG  GLU Q   3      11.902 -12.996  18.574  1.00 30.70 LIG 0.12  C 
BRANCH 38 39
ATOM     39  CD  GLU Q   3      11.425 -13.303  19.987  1.00 35.33 LIG 0.17  C 
ATOM     40 OE1  GLU Q   3      12.094 -12.793  20.917  1.00 35.34 LIG-0.65  OA
ATOM     41 OE2  GLU Q   3      10.421 -14.050  20.160  1.00 35.74 LIG-0.65  OA
ENDBRANCH 38 39
ENDBRANCH 37 38
ENDBRANCH 36 37
BRANCH 36 42
ATOM     42  N   GLU Q   3      14.726 -12.853  18.375  1.00 32.75 LIG-0.35  N 
ATOM     43  C   ASN Q   2      15.903 -12.741  18.998  1.00 36.04 LIG 0.24  C 
ATOM     44 O    ASN Q   2      16.588 -13.731  19.302  1.00 34.76 LIG-0.27  OA
ATOM     45 H    GLU Q   3      14.221 -12.186  18.178  1.00 32.75 LIG 0.16  HD
BRANCH 43 46
ATOM     46  CA  ASN Q   2      16.402 -11.307  19.276  1.00 38.34 LIG 0.18  C 
BRANCH 46 47
ATOM     47  CB  ASN Q   2      16.079 -10.868  20.714  1.00 38.76 LIG 0.14  C 
BRANCH 47 48
ATOM     48  CG  ASN Q   2      17.001 -11.518  21.755  1.00 42.06 LIG 0.22  C 
ATOM     49  ND2 ASN Q   2      18.054 -12.171  21.284  1.00 46.27 LIG-0.37  N 
ATOM     50 22HD ASN Q   2      18.185 -12.223  20.435  1.00 46.27 LIG 0.16  HD
ATOM     51 21HD ASN Q   2      18.608 -12.545  21.826  1.00 46.27 LIG 0.16  HD
ATOM     52 OD1  ASN Q   2      16.776 -11.421  22.964  1.00 44.45 LIG-0.27  OA
ENDBRANCH 47 48
ENDBRANCH 46 47
BRANCH 46 53
ATOM     53  N   ASN Q   2      15.943 -10.313  18.302  1.00 39.54 LIG-0.34  N 
ATOM     54  C   THR Q   1      14.680  -9.931  18.149  1.00 41.49 LIG 0.25  C 
ATOM     55 O    THR Q   1      13.777 -10.274  18.912  1.00 41.78 LIG-0.27  OA
ATOM     56 H    ASN Q   2      16.583  -9.992  17.825  1.00 39.54 LIG 0.16  HD
BRANCH 54 57
ATOM     57  CA  THR Q   1      14.394  -8.974  16.983  1.00 43.16 LIG 0.30  C 
BRANCH 57 58
ATOM     58  CB  THR Q   1      15.484  -9.047  15.882  1.00 43.89 LIG 0.15  C 
ATOM     59  CG2 THR Q   1      15.377 -10.356  15.125  1.00 45.05 LIG 0.04  C 
BRANCH 58 60
ATOM     60 OG1  THR Q   1      15.281  -8.028  14.885  1.00 46.29 LIG-0.39  OA
ATOM     61 HG1  THR Q   1      14.835  -7.396  15.215  1.00 46.29 LIG 0.21  HD
ENDBRANCH 58 60
ENDBRANCH 57 58
BRANCH 57 62
ATOM     62  N   THR Q   1      14.270  -7.555  17.457  1.00 43.28 LIG-0.06  N 
ATOM     63 H2   THR Q   1      15.080  -7.225  17.624  1.00 43.28 LIG 0.28  HD
ATOM     64 H1   THR Q   1      13.781  -7.532  18.200  1.00 43.28 LIG 0.28  HD
ATOM     65 H3   THR Q   1      13.875  -7.065  16.827  1.00 43.28 LIG 0.28  HD
ENDBRANCH 57 62
ENDBRANCH 54 57
ENDBRANCH 46 53
ENDBRANCH 43 46
ENDBRANCH 36 42
ENDBRANCH 1 36
TORSDOF 24
ENDMDL
MODEL 3
USER: ADFR SOLUTION from run 98
USER: SCORE 22.976200 LL:  -5.508 LR: -18.074 RR:   0.000 FEB: -10.915
USER: RMSD 4.195086
USER: SEED 97
USER: STATUS searching
USER: GENES 26
USER: genes 0 Translation |==|  0.48633 0.51621 0.54961
USER: genes 1 Rotation |==|  0.37010 0.71670 0.70624 0.87899
USER: genes 2 Torsion [C]-N--CA-[CB] |==|  0.55032
USER: genes 3 Torsion [N]-CA--CB-[CG] |==|  0.79426
USER: genes 4 Torsion [CA]-CB--CG-[CD1] |==|  0.73193
USER: genes 5 Torsion [N]-CA--C-[N] |==|  0.38455
USER: genes 6 Torsion [C]-N--CA-[C] |==|  0.59041
USER: genes 7 Torsion [N]-CA--C-[N] |==|  0.47175
USER: genes 8 Torsion [C]-N--CA-[CB] |==|  0.22442
USER: genes 9 Torsion [N]-CA--C-[O] |==|  0.02905
USER: genes 10 Torsion [N]-CA--CB-[CG] |==|  0.14370
USER: genes 11 Torsion [CA]-CB--CG-[CD2] |==|  0.73577
USER: genes 12 Torsion [CE1]-CZ--OH-[HH] |==|  0.05875
USER: genes 13 Torsion [N]-C--CA-[N] |==|  0.41779
USER: genes 14 Torsion [C]-CA--CB-[CG] |==|  0.33591
USER: genes 15 Torsion [CA]-CB--CG-[CD] |==|  0.22499
USER: genes 16 Torsion [CB]-CG--CD-[OE1] |==|  0.01759
USER: genes 17 Torsion [C]-CA--N-[C] |==|  0.81425
USER: genes 18 Torsion [N]-C--CA-[N] |==|  0.09513
USER: genes 19 Torsion [C]-CA--CB-[CG] |==|  0.22584
USER: genes 20 Torsion [CA]-CB--CG-[ND2] |==|  0.95670
USER: genes 21 Torsion [C]-CA--N-[C] |==|  0.16294
USER: genes 22 Torsion [N]-C--CA-[N] |==|  0.38883
USER: genes 23 Torsion [C]-CA--CB-[CG2] |==|  0.06688
USER: genes 24 Torsion [CA]-CB--OG1-[HG1] |==|  0.87313
USER: genes 25 Torsion [C]-CA--N-[H1] |==|  0.50831
ROOT
ATOM      1  C   GLU Q   3      14.639 -13.818  15.758  1.00 28.90 LIG 0.24  C 
ATOM      2 O    GLU Q   3      14.098 -13.541  14.681  1.00 28.99 LIG-0.27  OA
ATOM      3  N   PHE Q   4      15.170 -15.016  16.001  1.00 26.46 LIG-0.35  N 
ATOM      4 H    PHE Q   4      15.614 -15.193  16.716  1.00 26.46 LIG 0.16  HD
ENDROOT
BRANCH 3 5
ATOM      5  CA  PHE Q   4      15.061 -16.151  15.094  1.00 24.91 LIG 0.18  C 
BRANCH 5 6
ATOM      6  CB  PHE Q   4      15.358 -17.486  15.786  1.00 23.71 LIG 0.07  C 
BRANCH 6 7
ATOM      7  CG  PHE Q   4      16.830 -17.703  16.075  1.00 27.82 LIG-0.06  A 
ATOM      8  CD1 PHE Q   4      17.628 -18.443  15.213  1.00 28.27 LIG 0.01  A 
ATOM      9  CE1 PHE Q   4      18.985 -18.644  15.491  1.00 33.51 LIG 0.00  A 
ATOM     10  CZ  PHE Q   4      19.548 -18.066  16.615  1.00 29.48 LIG 0.00  A 
ATOM     11  CE2 PHE Q   4      18.787 -17.301  17.450  1.00 30.45 LIG 0.00  A 
ATOM     12  CD2 PHE Q   4      17.409 -17.135  17.199  1.00 30.03 LIG 0.01  A 
ENDBRANCH 6 7
ENDBRANCH 5 6
BRANCH 5 13
ATOM     13  C   PHE Q   4      13.657 -16.202  14.499  1.00 24.46 LIG 0.24  C 
ATOM     14 O    PHE Q   4      12.655 -16.021  15.194  1.00 21.72 LIG-0.27  OA
ATOM     15  N   TYR Q   5      13.629 -16.496  13.201  1.00 25.68 LIG-0.35  N 
ATOM     16 H    TYR Q   5      14.347 -16.622  12.746  1.00 25.68 LIG 0.16  HD
BRANCH 15 17
ATOM     17  CA  TYR Q   5      12.415 -16.640  12.395  1.00 24.76 LIG 0.18  C 
BRANCH 17 18
ATOM     18  C   TYR Q   5      12.711 -17.680  11.355  1.00 23.71 LIG 0.24  C 
ATOM     19  N   ALA Q   6      11.669 -18.106  10.655  1.00 23.95 LIG-0.34  N 
ATOM     20 H    ALA Q   6      10.859 -17.845  10.781  1.00 23.95 LIG 0.16  HD
ATOM     21 O    TYR Q   5      13.868 -18.051  11.127  1.00 22.91 LIG-0.27  OA
BRANCH 19 22
ATOM     22  CA  ALA Q   6      11.837 -19.079   9.591  1.00 23.91 LIG 0.18  C 
ATOM     23  CB  ALA Q   6      11.928 -20.472  10.176  1.00 25.24 LIG 0.04  C 
BRANCH 22 24
ATOM     24  C   ALA Q   6      10.761 -19.026   8.514  1.00 23.52 LIG 0.20  C 
ATOM     25 O    ALA Q   6       9.948 -18.119   8.447  1.00 23.09 LIG-0.65  OA
ATOM     26 OXT  ALA Q   6      10.692 -19.958   7.706  1.00 23.23 LIG-0.65  OA
ENDBRANCH 22 24
ENDBRANCH 19 22
ENDBRANCH 17 18
BRANCH 17 27
ATOM     27  CB  TYR Q   5      12.058 -15.294  11.722  1.00 25.21 LIG 0.07  C 
BRANCH 27 28
ATOM     28  CG  TYR Q   5      13.189 -14.635  10.947  1.00 26.66 LIG-0.06  A 
ATOM     29  CD1 TYR Q   5      13.458 -14.956   9.625  1.00 25.58 LIG 0.01  A 
ATOM     30  CE1 TYR Q   5      14.521 -14.344   8.934  1.00 26.73 LIG 0.04  A 
ATOM     31  CZ  TYR Q   5      15.307 -13.393   9.573  1.00 25.10 LIG 0.07  A 
ATOM     32  CE2 TYR Q   5      15.036 -13.038  10.863  1.00 24.98 LIG 0.04  A 
ATOM     33  CD2 TYR Q   5      13.987 -13.662  11.553  1.00 25.59 LIG 0.01  A 
BRANCH 31 34
ATOM     34 OH   TYR Q   5      16.355 -12.775   8.911  1.00 28.49 LIG-0.36  OA
ATOM     35 HH   TYR Q   5      16.238 -12.836   8.081  1.00 28.49 LIG 0.22  HD
ENDBRANCH 31 34
ENDBRANCH 27 28
ENDBRANCH 17 27
ENDBRANCH 15 17
ENDBRANCH 5 13
ENDBRANCH 3 5
BRANCH 1 36
ATOM     36  CA  GLU Q   3      14.795 -12.762  16.857  1.00 29.75 LIG 0.18  C 
BRANCH 36 37
ATOM     37  CB  GLU Q   3      13.679 -12.879  17.907  1.00 29.86 LIG 0.04  C 
BRANCH 37 38
ATOM     38  CG  GLU Q   3      14.048 -13.131  19.361  1.00 30.70 LIG 0.12  C 
BRANCH 38 39
ATOM     39  CD  GLU Q   3      14.464 -11.846  20.062  1.00 35.33 LIG 0.17  C 
ATOM     40 OE1  GLU Q   3      14.325 -10.788  19.402  1.00 35.34 LIG-0.65  OA
ATOM     41 OE2  GLU Q   3      14.935 -11.896  21.233  1.00 35.74 LIG-0.65  OA
ENDBRANCH 38 39
ENDBRANCH 37 38
ENDBRANCH 36 37
BRANCH 36 42
ATOM     42  N   GLU Q   3      14.836 -11.427  16.253  1.00 32.75 LIG-0.35  N 
ATOM     43  C   ASN Q   2      15.854 -11.042  15.478  1.00 36.04 LIG 0.24  C 
ATOM     44 O    ASN Q   2      16.833 -11.774  15.259  1.00 34.76 LIG-0.27  OA
ATOM     45 H    GLU Q   3      14.161 -10.930  16.441  1.00 32.75 LIG 0.16  HD
BRANCH 43 46
ATOM     46  CA  ASN Q   2      15.730  -9.653  14.816  1.00 38.34 LIG 0.18  C 
BRANCH 46 47
ATOM     47  CB  ASN Q   2      17.097  -9.129  14.348  1.00 38.76 LIG 0.14  C 
BRANCH 47 48
ATOM     48  CG  ASN Q   2      17.527  -9.714  12.996  1.00 42.06 LIG 0.22  C 
ATOM     49  ND2 ASN Q   2      16.868 -10.787  12.581  1.00 46.27 LIG-0.37  N 
ATOM     50 22HD ASN Q   2      16.245 -11.123  13.068  1.00 46.27 LIG 0.16  HD
ATOM     51 21HD ASN Q   2      17.063 -11.146  11.824  1.00 46.27 LIG 0.16  HD
ATOM     52 OD1  ASN Q   2      18.428  -9.198  12.329  1.00 44.45 LIG-0.27  OA
ENDBRANCH 47 48
ENDBRANCH 46 47
BRANCH 46 53
ATOM     53  N   ASN Q   2      15.032  -8.660  15.636  1.00 39.54 LIG-0.34  N 
ATOM     54  C   THR Q   1      15.412  -8.280  16.851  1.00 41.49 LIG 0.25  C 
ATOM     55 O    THR Q   1      16.479  -8.625  17.361  1.00 41.78 LIG-0.27  OA
ATOM     56 H    ASN Q   2      14.335  -8.336  15.250  1.00 39.54 LIG 0.16  HD
BRANCH 54 57
ATOM     57  CA  THR Q   1      14.469  -7.322  17.592  1.00 43.16 LIG 0.30  C 
BRANCH 57 58
ATOM     58  CB  THR Q   1      14.909  -5.842  17.457  1.00 43.89 LIG 0.15  C 
ATOM     59  CG2 THR Q   1      15.748  -5.657  16.208  1.00 45.05 LIG 0.04  C 
BRANCH 58 60
ATOM     60 OG1  THR Q   1      13.771  -4.978  17.267  1.00 46.29 LIG-0.39  OA
ATOM     61 HG1  THR Q   1      13.258  -5.313  16.693  1.00 46.29 LIG 0.21  HD
ENDBRANCH 58 60
ENDBRANCH 57 58
BRANCH 57 62
ATOM     62  N   THR Q   1      14.366  -7.673  19.049  1.00 43.28 LIG-0.06  N 
ATOM     63 H2   THR Q   1      14.093  -8.515  19.133  1.00 43.28 LIG 0.28  HD
ATOM     64 H1   THR Q   1      13.781  -7.130  19.444  1.00 43.28 LIG 0.28  HD
ATOM     65 H3   THR Q   1      15.163  -7.580  19.433  1.00 43.28 LIG 0.28  HD
ENDBRANCH 57 62
ENDBRANCH 54 57
ENDBRANCH 46 53
ENDBRANCH 43 46
ENDBRANCH 36 42
ENDBRANCH 1 36
TORSDOF 24
ENDMDL
MODEL 4
USER: ADFR SOLUTION from run 42
USER: SCORE 21.021087 LL:  -5.555 LR: -17.777 RR:   0.000 FEB: -10.618
USER: RMSD 3.620920
USER: SEED 41
USER: STATUS searching
USER: GENES 26
USER: genes 0 Translation |==|  0.51534 0.47655 0.57368
USER: genes 1 Rotation |==|  0.51635 0.52354 0.48341 0.99890
USER: genes 2 Torsion [C]-N--CA-[CB] |==|  0.29075
USER: genes 3 Torsion [N]-CA--CB-[CG] |==|  0.52532
USER: genes 4 Torsion [CA]-CB--CG-[CD1] |==|  0.70007
USER: genes 5 Torsion [N]-CA--C-[N] |==|  0.40072
USER: genes 6 Torsion [C]-N--CA-[C] |==|  0.67987
USER: genes 7 Torsion [N]-CA--C-[N] |==|  0.35085
USER: genes 8 Torsion [C]-N--CA-[CB] |==|  0.33386
USER: genes 9 Torsion [N]-CA--C-[O] |==|  0.98989
USER: genes 10 Torsion [N]-CA--CB-[CG] |==|  0.01152
USER: genes 11 Torsion [CA]-CB--CG-[CD2] |==|  0.81463
USER: genes 12 Torsion [CE1]-CZ--OH-[HH] |==|  0.91557
USER: genes 13 Torsion [N]-C--CA-[N] |==|  0.55448
USER: genes 14 Torsion [C]-CA--CB-[CG] |==|  0.69673
USER: genes 15 Torsion [CA]-CB--CG-[CD] |==|  0.66482
USER: genes 16 Torsion [CB]-CG--CD-[OE1] |==|  0.26526
USER: genes 17 Torsion [C]-CA--N-[C] |==|  0.60556
USER: genes 18 Torsion [N]-C--CA-[N] |==|  0.03624
USER: genes 19 Torsion [C]-CA--CB-[CG] |==|  0.23676
USER: genes 20 Torsion [CA]-CB--CG-[ND2] |==|  0.11806
USER: genes 21 Torsion [C]-CA--N-[C] |==|  0.20275
USER: genes 22 Torsion [N]-C--CA-[N] |==|  0.69904
USER: genes 23 Torsion [C]-CA--CB-[CG2] |==|  0.19947
USER: genes 24 Torsion [CA]-CB--OG1-[HG1] |==|  0.96626
USER: genes 25 Torsion [C]-CA--N-[H1] |==|  0.88745
ROOT
ATOM      1  C   GLU Q   3      15.205 -14.621  16.390  1.00 28.90 LIG 0.24  C 
ATOM      2 O    GLU Q   3      16.088 -13.997  15.789  1.00 28.99 LIG-0.27  OA
ATOM      3  N   PHE Q   4      14.543 -15.634  15.831  1.00 26.46 LIG-0.35  N 
ATOM      4 H    PHE Q   4      13.982 -16.120  16.266  1.00 26.46 LIG 0.16  HD
ENDROOT
BRANCH 3 5
ATOM      5  CA  PHE Q   4      14.690 -16.029  14.436  1.00 24.91 LIG 0.18  C 
BRANCH 5 6
ATOM      6  CB  PHE Q   4      15.523 -17.305  14.272  1.00 23.71 LIG 0.07  C 
BRANCH 6 7
ATOM      7  CG  PHE Q   4      15.875 -17.617  12.832  1.00 27.82 LIG-0.06  A 
ATOM      8  CD1 PHE Q   4      15.273 -18.671  12.158  1.00 28.27 LIG 0.01  A 
ATOM      9  CE1 PHE Q   4      15.610 -18.955  10.831  1.00 33.51 LIG 0.00  A 
ATOM     10  CZ  PHE Q   4      16.521 -18.154  10.166  1.00 29.48 LIG 0.00  A 
ATOM     11  CE2 PHE Q   4      17.091 -17.089  10.800  1.00 30.45 LIG 0.00  A 
ATOM     12  CD2 PHE Q   4      16.791 -16.827  12.154  1.00 30.03 LIG 0.01  A 
ENDBRANCH 6 7
ENDBRANCH 5 6
BRANCH 5 13
ATOM     13  C   PHE Q   4      13.314 -16.251  13.817  1.00 24.46 LIG 0.24  C 
ATOM     14 O    PHE Q   4      12.394 -16.766  14.455  1.00 21.72 LIG-0.27  OA
ATOM     15  N   TYR Q   5      13.228 -15.880  12.541  1.00 25.68 LIG-0.35  N 
ATOM     16 H    TYR Q   5      13.891 -15.527  12.122  1.00 25.68 LIG 0.16  HD
BRANCH 15 17
ATOM     17  CA  TYR Q   5      12.036 -16.014  11.702  1.00 24.76 LIG 0.18  C 
BRANCH 17 18
ATOM     18  C   TYR Q   5      12.383 -16.988  10.614  1.00 23.71 LIG 0.24  C 
ATOM     19  N   ALA Q   6      11.559 -18.017  10.479  1.00 23.95 LIG-0.34  N 
ATOM     20 H    ALA Q   6      10.877 -18.163  10.982  1.00 23.95 LIG 0.16  HD
ATOM     21 O    TYR Q   5      13.337 -16.788   9.854  1.00 22.91 LIG-0.27  OA
BRANCH 19 22
ATOM     22  CA  ALA Q   6      11.767 -19.001   9.434  1.00 23.91 LIG 0.18  C 
ATOM     23  CB  ALA Q   6      11.965 -20.371  10.047  1.00 25.24 LIG 0.04  C 
BRANCH 22 24
ATOM     24  C   ALA Q   6      10.664 -19.047   8.384  1.00 23.52 LIG 0.20  C 
ATOM     25 O    ALA Q   6       9.659 -18.358   8.461  1.00 23.09 LIG-0.65  OA
ATOM     26 OXT  ALA Q   6      10.781 -19.838   7.442  1.00 23.23 LIG-0.65  OA
ENDBRANCH 22 24
ENDBRANCH 19 22
ENDBRANCH 17 18
BRANCH 17 27
ATOM     27  CB  TYR Q   5      11.654 -14.644  11.094  1.00 25.21 LIG 0.07  C 
BRANCH 27 28
ATOM     28  CG  TYR Q   5      12.617 -13.506  11.399  1.00 26.66 LIG-0.06  A 
ATOM     29  CD1 TYR Q   5      13.368 -12.893  10.408  1.00 25.58 LIG 0.01  A 
ATOM     30  CE1 TYR Q   5      14.264 -11.853  10.719  1.00 26.73 LIG 0.04  A 
ATOM     31  CZ  TYR Q   5      14.395 -11.419  12.031  1.00 25.10 LIG 0.07  A 
ATOM     32  CE2 TYR Q   5      13.638 -11.986  13.016  1.00 24.98 LIG 0.04  A 
ATOM     33  CD2 TYR Q   5      12.758 -13.033  12.705  1.00 25.59 LIG 0.01  A 
BRANCH 31 34
ATOM     34 OH   TYR Q   5      15.267 -10.395  12.359  1.00 28.49 LIG-0.36  OA
ATOM     35 HH   TYR Q   5      15.919 -10.401  11.829  1.00 28.49 LIG 0.22  HD
ENDBRANCH 31 34
ENDBRANCH 27 28
ENDBRANCH 17 27
ENDBRANCH 15 17
ENDBRANCH 5 13
ENDBRANCH 3 5
BRANCH 1 36
ATOM     36  CA  GLU Q   3      14.872 -14.305  17.852  1.00 29.75 LIG 0.18  C 
BRANCH 36 37
ATOM     37  CB  GLU Q   3      13.378 -14.518  18.144  1.00 29.86 LIG 0.04  C 
BRANCH 37 38
ATOM     38  CG  GLU Q   3      12.489 -13.310  18.390  1.00 30.70 LIG 0.12  C 
BRANCH 38 39
ATOM     39  CD  GLU Q   3      11.837 -13.368  19.764  1.00 35.33 LIG 0.17  C 
ATOM     40 OE1  GLU Q   3      12.424 -12.742  20.679  1.00 35.34 LIG-0.65  OA
ATOM     41 OE2  GLU Q   3      10.778 -14.037  19.927  1.00 35.74 LIG-0.65  OA
ENDBRANCH 38 39
ENDBRANCH 37 38
ENDBRANCH 36 37
BRANCH 36 42
ATOM     42  N   GLU Q   3      15.300 -12.939  18.168  1.00 32.75 LIG-0.35  N 
ATOM     43  C   ASN Q   2      15.832 -12.630  19.354  1.00 36.04 LIG 0.24  C 
ATOM     44 O    ASN Q   2      15.958 -13.469  20.261  1.00 34.76 LIG-0.27  OA
ATOM     45 H    GLU Q   3      15.178 -12.372  17.534  1.00 32.75 LIG 0.16  HD
BRANCH 43 46
ATOM     46  CA  ASN Q   2      16.338 -11.183  19.527  1.00 38.34 LIG 0.18  C 
BRANCH 46 47
ATOM     47  CB  ASN Q   2      16.006 -10.633  20.923  1.00 38.76 LIG 0.14  C 
BRANCH 47 48
ATOM     48  CG  ASN Q   2      17.057 -11.010  21.976  1.00 42.06 LIG 0.22  C 
ATOM     49  ND2 ASN Q   2      18.326 -10.915  21.603  1.00 46.27 LIG-0.37  N 
ATOM     50 22HD ASN Q   2      18.521 -10.663  20.805  1.00 46.27 LIG 0.16  HD
ATOM     51 21HD ASN Q   2      18.953 -11.104  22.160  1.00 46.27 LIG 0.16  HD
ATOM     52 OD1  ASN Q   2      16.731 -11.367  23.111  1.00 44.45 LIG-0.27  OA
ENDBRANCH 47 48
ENDBRANCH 46 47
BRANCH 46 53
ATOM     53  N   ASN Q   2      15.895 -10.264  18.475  1.00 39.54 LIG-0.34  N 
ATOM     54  C   THR Q   1      14.657  -9.798  18.349  1.00 41.49 LIG 0.25  C 
ATOM     55 O    THR Q   1      13.781  -9.982  19.194  1.00 41.78 LIG-0.27  OA
ATOM     56 H    ASN Q   2      16.525 -10.048  17.931  1.00 39.54 LIG 0.16  HD
BRANCH 54 57
ATOM     57  CA  THR Q   1      14.371  -8.950  17.102  1.00 43.16 LIG 0.30  C 
BRANCH 57 58
ATOM     58  CB  THR Q   1      15.486  -9.082  16.033  1.00 43.89 LIG 0.15  C 
ATOM     59  CG2 THR Q   1      15.426 -10.449  15.379  1.00 45.05 LIG 0.04  C 
BRANCH 58 60
ATOM     60 OG1  THR Q   1      15.282  -8.149  14.954  1.00 46.29 LIG-0.39  OA
ATOM     61 HG1  THR Q   1      14.512  -7.817  15.012  1.00 46.29 LIG 0.21  HD
ENDBRANCH 58 60
ENDBRANCH 57 58
BRANCH 57 62
ATOM     62  N   THR Q   1      14.197  -7.500  17.453  1.00 43.28 LIG-0.06  N 
ATOM     63 H2   THR Q   1      14.995  -7.124  17.567  1.00 43.28 LIG 0.28  HD
ATOM     64 H1   THR Q   1      13.726  -7.431  18.206  1.00 43.28 LIG 0.28  HD
ATOM     65 H3   THR Q   1      13.766  -7.085  16.794  1.00 43.28 LIG 0.28  HD
ENDBRANCH 57 62
ENDBRANCH 54 57
ENDBRANCH 46 53
ENDBRANCH 43 46
ENDBRANCH 36 42
ENDBRANCH 1 36
TORSDOF 24
ENDMDL
MODEL 5
USER: ADFR SOLUTION from run 92
USER: SCORE 21.790069 LL:  -5.545 LR: -17.718 RR:   0.000 FEB: -10.559
USER: RMSD 4.189071
USER: SEED 91
USER: STATUS searching
USER: GENES 26
USER: genes 0 Translation |==|  0.49249 0.46528 0.57921
USER: genes 1 Rotation |==|  0.52170 0.47683 0.44907 0.99639
USER: genes 2 Torsion [C]-N--CA-[CB] |==|  0.27222
USER: genes 3 Torsion [N]-CA--CB-[CG] |==|  0.82600
USER: genes 4 Torsion [CA]-CB--CG-[CD1] |==|  0.80582
USER: genes 5 Torsion [N]-CA--C-[N] |==|  0.34394
USER: genes 6 Torsion [C]-N--CA-[C] |==|  0.72831
USER: genes 7 Torsion [N]-CA--C-[N] |==|  0.33255
USER: genes 8 Torsion [C]-N--CA-[CB] |==|  0.27544
USER: genes 9 Torsion [N]-CA--C-[O] |==|  0.04383
USER: genes 10 Torsion [N]-CA--CB-[CG] |==|  0.01465
USER: genes 11 Torsion [CA]-CB--CG-[CD2] |==|  0.32840
USER: genes 12 Torsion [CE1]-CZ--OH-[HH] |==|  0.46298
USER: genes 13 Torsion [N]-C--CA-[N] |==|  0.36267
USER: genes 14 Torsion [C]-CA--CB-[CG] |==|  0.32674
USER: genes 15 Torsion [CA]-CB--CG-[CD] |==|  0.18093
USER: genes 16 Torsion [CB]-CG--CD-[OE1] |==|  0.11763
USER: genes 17 Torsion [C]-CA--N-[C] |==|  0.81969
USER: genes 18 Torsion [N]-C--CA-[N] |==|  0.41695
USER: genes 19 Torsion [C]-CA--CB-[CG] |==|  0.22366
USER: genes 20 Torsion [CA]-CB--CG-[ND2] |==|  0.78332
USER: genes 21 Torsion [C]-CA--N-[C] |==|  0.59101
USER: genes 22 Torsion [N]-C--CA-[N] |==|  0.86040
USER: genes 23 Torsion [C]-CA--CB-[CG2] |==|  0.52260
USER: genes 24 Torsion [CA]-CB--OG1-[HG1] |==|  0.98189
USER: genes 25 Torsion [C]-CA--N-[H1] |==|  0.65484
ROOT
ATOM      1  C   GLU Q   3      14.759 -14.849  16.535  1.00 28.90 LIG 0.24  C 
ATOM      2 O    GLU Q   3      15.816 -14.362  16.117  1.00 28.99 LIG-0.27  OA
ATOM      3  N   PHE Q   4      14.072 -15.758  15.844  1.00 26.46 LIG-0.35  N 
ATOM      4 H    PHE Q   4      13.378 -16.156  16.160  1.00 26.46 LIG 0.16  HD
ENDROOT
BRANCH 3 5
ATOM      5  CA  PHE Q   4      14.412 -16.176  14.490  1.00 24.91 LIG 0.18  C 
BRANCH 5 6
ATOM      6  CB  PHE Q   4      15.214 -17.482  14.463  1.00 23.71 LIG 0.07  C 
BRANCH 6 7
ATOM      7  CG  PHE Q   4      16.559 -17.380  15.154  1.00 27.82 LIG-0.06  A 
ATOM      8  CD1 PHE Q   4      17.592 -16.631  14.608  1.00 28.27 LIG 0.01  A 
ATOM      9  CE1 PHE Q   4      18.832 -16.548  15.250  1.00 33.51 LIG 0.00  A 
ATOM     10  CZ  PHE Q   4      19.020 -17.185  16.464  1.00 29.48 LIG 0.00  A 
ATOM     11  CE2 PHE Q   4      18.003 -17.891  17.036  1.00 30.45 LIG 0.00  A 
ATOM     12  CD2 PHE Q   4      16.766 -18.017  16.369  1.00 30.03 LIG 0.01  A 
ENDBRANCH 6 7
ENDBRANCH 5 6
BRANCH 5 13
ATOM     13  C   PHE Q   4      13.137 -16.360  13.673  1.00 24.46 LIG 0.24  C 
ATOM     14 O    PHE Q   4      12.254 -17.147  14.021  1.00 21.72 LIG-0.27  OA
ATOM     15  N   TYR Q   5      13.100 -15.634  12.557  1.00 25.68 LIG-0.35  N 
ATOM     16 H    TYR Q   5      13.735 -15.097  12.339  1.00 25.68 LIG 0.16  HD
BRANCH 15 17
ATOM     17  CA  TYR Q   5      12.011 -15.647  11.579  1.00 24.76 LIG 0.18  C 
BRANCH 17 18
ATOM     18  C   TYR Q   5      12.434 -16.574  10.476  1.00 23.71 LIG 0.24  C 
ATOM     19  N   ALA Q   6      11.647 -17.620  10.271  1.00 23.95 LIG-0.34  N 
ATOM     20 H    ALA Q   6      10.947 -17.802  10.737  1.00 23.95 LIG 0.16  HD
ATOM     21 O    TYR Q   5      13.415 -16.323   9.768  1.00 22.91 LIG-0.27  OA
BRANCH 19 22
ATOM     22  CA  ALA Q   6      11.929 -18.562   9.204  1.00 23.91 LIG 0.18  C 
ATOM     23  CB  ALA Q   6      12.631 -19.780   9.765  1.00 25.24 LIG 0.04  C 
BRANCH 22 24
ATOM     24  C   ALA Q   6      10.708 -18.981   8.394  1.00 23.52 LIG 0.20  C 
ATOM     25 O    ALA Q   6       9.656 -18.364   8.432  1.00 23.09 LIG-0.65  OA
ATOM     26 OXT  ALA Q   6      10.783 -20.004   7.706  1.00 23.23 LIG-0.65  OA
ENDBRANCH 22 24
ENDBRANCH 19 22
ENDBRANCH 17 18
BRANCH 17 27
ATOM     27  CB  TYR Q   5      11.776 -14.223  11.022  1.00 25.21 LIG 0.07  C 
BRANCH 27 28
ATOM     28  CG  TYR Q   5      12.769 -13.171  11.490  1.00 26.66 LIG-0.06  A 
ATOM     29  CD1 TYR Q   5      12.916 -12.841  12.829  1.00 25.58 LIG 0.01  A 
ATOM     30  CE1 TYR Q   5      13.831 -11.852  13.234  1.00 26.73 LIG 0.04  A 
ATOM     31  CZ  TYR Q   5      14.612 -11.200  12.289  1.00 25.10 LIG 0.07  A 
ATOM     32  CE2 TYR Q   5      14.508 -11.534  10.969  1.00 24.98 LIG 0.04  A 
ATOM     33  CD2 TYR Q   5      13.584 -12.509  10.567  1.00 25.59 LIG 0.01  A 
BRANCH 31 34
ATOM     34 OH   TYR Q   5      15.522 -10.227  12.666  1.00 28.49 LIG-0.36  OA
ATOM     35 HH   TYR Q   5      16.038 -10.060  12.024  1.00 28.49 LIG 0.22  HD
ENDBRANCH 31 34
ENDBRANCH 27 28
ENDBRANCH 17 27
ENDBRANCH 15 17
ENDBRANCH 5 13
ENDBRANCH 3 5
BRANCH 1 36
ATOM     36  CA  GLU Q   3      14.215 -14.483  17.920  1.00 29.75 LIG 0.18  C 
BRANCH 36 37
ATOM     37  CB  GLU Q   3      13.540 -13.102  17.908  1.00 29.86 LIG 0.04  C 
BRANCH 37 38
ATOM     38  CG  GLU Q   3      12.058 -12.996  18.231  1.00 30.70 LIG 0.12  C 
BRANCH 38 39
ATOM     39  CD  GLU Q   3      11.771 -13.399  19.670  1.00 35.33 LIG 0.17  C 
ATOM     40 OE1  GLU Q   3      12.577 -12.975  20.533  1.00 35.34 LIG-0.65  OA
ATOM     41 OE2  GLU Q   3      10.777 -14.135  19.928  1.00 35.74 LIG-0.65  OA
ENDBRANCH 38 39
ENDBRANCH 37 38
ENDBRANCH 36 37
BRANCH 36 42
ATOM     42  N   GLU Q   3      15.298 -14.551  18.906  1.00 32.75 LIG-0.35  N 
ATOM     43  C   ASN Q   2      15.900 -15.706  19.204  1.00 36.04 LIG 0.24  C 
ATOM     44 O    ASN Q   2      15.552 -16.784  18.694  1.00 34.76 LIG-0.27  OA
ATOM     45 H    GLU Q   3      15.501 -13.797  19.264  1.00 32.75 LIG 0.16  HD
BRANCH 43 46
ATOM     46  CA  ASN Q   2      17.093 -15.630  20.179  1.00 38.34 LIG 0.18  C 
BRANCH 46 47
ATOM     47  CB  ASN Q   2      18.392 -15.246  19.451  1.00 38.76 LIG 0.14  C 
BRANCH 47 48
ATOM     48  CG  ASN Q   2      18.506 -13.737  19.196  1.00 42.06 LIG 0.22  C 
ATOM     49  ND2 ASN Q   2      17.797 -13.255  18.184  1.00 46.27 LIG-0.37  N 
ATOM     50 22HD ASN Q   2      17.317 -13.783  17.705  1.00 46.27 LIG 0.16  HD
ATOM     51 21HD ASN Q   2      17.818 -12.413  18.006  1.00 46.27 LIG 0.16  HD
ATOM     52 OD1  ASN Q   2      19.209 -13.015  19.908  1.00 44.45 LIG-0.27  OA
ENDBRANCH 47 48
ENDBRANCH 46 47
BRANCH 46 53
ATOM     53  N   ASN Q   2      17.277 -16.833  20.995  1.00 39.54 LIG-0.34  N 
ATOM     54  C   THR Q   1      17.745 -16.840  22.238  1.00 41.49 LIG 0.25  C 
ATOM     55 O    THR Q   1      17.943 -15.812  22.888  1.00 41.78 LIG-0.27  OA
ATOM     56 H    ASN Q   2      17.049 -17.554  20.585  1.00 39.54 LIG 0.16  HD
BRANCH 54 57
ATOM     57  CA  THR Q   1      17.984 -18.218  22.870  1.00 43.16 LIG 0.30  C 
BRANCH 57 58
ATOM     58  CB  THR Q   1      19.218 -18.935  22.266  1.00 43.89 LIG 0.15  C 
ATOM     59  CG2 THR Q   1      19.295 -20.362  22.773  1.00 45.05 LIG 0.04  C 
BRANCH 58 60
ATOM     60 OG1  THR Q   1      19.096 -19.060  20.836  1.00 46.29 LIG-0.39  OA
ATOM     61 HG1  THR Q   1      18.335 -18.799  20.595  1.00 46.29 LIG 0.21  HD
ENDBRANCH 58 60
ENDBRANCH 57 58
BRANCH 57 62
ATOM     62  N   THR Q   1      16.781 -19.104  22.723  1.00 43.28 LIG-0.06  N 
ATOM     63 H2   THR Q   1      16.118 -18.645  22.346  1.00 43.28 LIG 0.28  HD
ATOM     64 H1   THR Q   1      16.524 -19.392  23.525  1.00 43.28 LIG 0.28  HD
ATOM     65 H3   THR Q   1      16.987 -19.802  22.210  1.00 43.28 LIG 0.28  HD
ENDBRANCH 57 62
ENDBRANCH 54 57
ENDBRANCH 46 53
ENDBRANCH 43 46
ENDBRANCH 36 42
ENDBRANCH 1 36
TORSDOF 24
ENDMDL
MODEL 6
USER: ADFR SOLUTION from run 92
USER: SCORE 21.732941 LL:  -5.589 LR: -17.534 RR:   0.000 FEB: -10.375
USER: RMSD 3.576265
USER: SEED 91
USER: STATUS searching
USER: GENES 26
USER: genes 0 Translation |==|  0.49262 0.46753 0.57975
USER: genes 1 Rotation |==|  0.52703 0.47288 0.44625 0.99563
USER: genes 2 Torsion [C]-N--CA-[CB] |==|  0.26111
USER: genes 3 Torsion [N]-CA--CB-[CG] |==|  0.83256
USER: genes 4 Torsion [CA]-CB--CG-[CD1] |==|  0.81335
USER: genes 5 Torsion [N]-CA--C-[N] |==|  0.36006
USER: genes 6 Torsion [C]-N--CA-[C] |==|  0.74583
USER: genes 7 Torsion [N]-CA--C-[N] |==|  0.34549
USER: genes 8 Torsion [C]-N--CA-[CB] |==|  0.31129
USER: genes 9 Torsion [N]-CA--C-[O] |==|  0.99100
USER: genes 10 Torsion [N]-CA--CB-[CG] |==|  0.47613
USER: genes 11 Torsion [CA]-CB--CG-[CD2] |==|  0.10649
USER: genes 12 Torsion [CE1]-CZ--OH-[HH] |==|  0.35647
USER: genes 13 Torsion [N]-C--CA-[N] |==|  0.36697
USER: genes 14 Torsion [C]-CA--CB-[CG] |==|  0.32966
USER: genes 15 Torsion [CA]-CB--CG-[CD] |==|  0.18303
USER: genes 16 Torsion [CB]-CG--CD-[OE1] |==|  0.11726
USER: genes 17 Torsion [C]-CA--N-[C] |==|  0.82016
USER: genes 18 Torsion [N]-C--CA-[N] |==|  0.41716
USER: genes 19 Torsion [C]-CA--CB-[CG] |==|  0.22407
USER: genes 20 Torsion [CA]-CB--CG-[ND2] |==|  0.78347
USER: genes 21 Torsion [C]-CA--N-[C] |==|  0.59052
USER: genes 22 Torsion [N]-C--CA-[N] |==|  0.85998
USER: genes 23 Torsion [C]-CA--CB-[CG2] |==|  0.52257
USER: genes 24 Torsion [CA]-CB--OG1-[HG1] |==|  0.98205
USER: genes 25 Torsion [C]-CA--N-[H1] |==|  0.65486
ROOT
ATOM      1  C   GLU Q   3      14.762 -14.804  16.549  1.00 28.90 LIG 0.24  C 
ATOM      2 O    GLU Q   3      15.831 -14.320  16.159  1.00 28.99 LIG-0.27  OA
ATOM      3  N   PHE Q   4      14.077 -15.691  15.828  1.00 26.46 LIG-0.35  N 
ATOM      4 H    PHE Q   4      13.373 -16.087  16.123  1.00 26.46 LIG 0.16  HD
ENDROOT
BRANCH 3 5
ATOM      5  CA  PHE Q   4      14.436 -16.085  14.472  1.00 24.91 LIG 0.18  C 
BRANCH 5 6
ATOM      6  CB  PHE Q   4      15.307 -17.346  14.439  1.00 23.71 LIG 0.07  C 
BRANCH 6 7
ATOM      7  CG  PHE Q   4      16.621 -17.192  15.177  1.00 27.82 LIG-0.06  A 
ATOM      8  CD1 PHE Q   4      17.608 -16.333  14.713  1.00 28.27 LIG 0.01  A 
ATOM      9  CE1 PHE Q   4      18.822 -16.203  15.398  1.00 33.51 LIG 0.00  A 
ATOM     10  CZ  PHE Q   4      19.026 -16.905  16.572  1.00 29.48 LIG 0.00  A 
ATOM     11  CE2 PHE Q   4      18.051 -17.722  17.064  1.00 30.45 LIG 0.00  A 
ATOM     12  CD2 PHE Q   4      16.845 -17.894  16.352  1.00 30.03 LIG 0.01  A 
ENDBRANCH 6 7
ENDBRANCH 5 6
BRANCH 5 13
ATOM     13  C   PHE Q   4      13.171 -16.334  13.657  1.00 24.46 LIG 0.24  C 
ATOM     14 O    PHE Q   4      12.283 -17.091  14.056  1.00 21.72 LIG-0.27  OA
ATOM     15  N   TYR Q   5      13.148 -15.701  12.485  1.00 25.68 LIG-0.35  N 
ATOM     16 H    TYR Q   5      13.787 -15.184  12.233  1.00 25.68 LIG 0.16  HD
BRANCH 15 17
ATOM     17  CA  TYR Q   5      12.072 -15.793  11.498  1.00 24.76 LIG 0.18  C 
BRANCH 17 18
ATOM     18  C   TYR Q   5      12.435 -16.914  10.568  1.00 23.71 LIG 0.24  C 
ATOM     19  N   ALA Q   6      11.529 -17.874  10.443  1.00 23.95 LIG-0.34  N 
ATOM     20 H    ALA Q   6      10.784 -17.898  10.871  1.00 23.95 LIG 0.16  HD
ATOM     21 O    TYR Q   5      13.483 -16.891   9.914  1.00 22.91 LIG-0.27  OA
BRANCH 19 22
ATOM     22  CA  ALA Q   6      11.749 -18.987   9.540  1.00 23.91 LIG 0.18  C 
ATOM     23  CB  ALA Q   6      11.934 -20.264  10.331  1.00 25.24 LIG 0.04  C 
BRANCH 22 24
ATOM     24  C   ALA Q   6      10.661 -19.170   8.489  1.00 23.52 LIG 0.20  C 
ATOM     25 O    ALA Q   6       9.660 -18.472   8.456  1.00 23.09 LIG-0.65  OA
ATOM     26 OXT  ALA Q   6      10.786 -20.083   7.666  1.00 23.23 LIG-0.65  OA
ENDBRANCH 22 24
ENDBRANCH 19 22
ENDBRANCH 17 18
BRANCH 17 27
ATOM     27  CB  TYR Q   5      11.951 -14.464  10.714  1.00 25.21 LIG 0.07  C 
BRANCH 27 28
ATOM     28  CG  TYR Q   5      11.007 -14.497   9.522  1.00 26.66 LIG-0.06  A 
ATOM     29  CD1 TYR Q   5      11.300 -13.844   8.335  1.00 25.58 LIG 0.01  A 
ATOM     30  CE1 TYR Q   5      10.403 -13.876   7.251  1.00 26.73 LIG 0.04  A 
ATOM     31  CZ  TYR Q   5       9.210 -14.579   7.358  1.00 25.10 LIG 0.07  A 
ATOM     32  CE2 TYR Q   5       8.919 -15.258   8.506  1.00 24.98 LIG 0.04  A 
ATOM     33  CD2 TYR Q   5       9.808 -15.210   9.590  1.00 25.59 LIG 0.01  A 
BRANCH 31 34
ATOM     34 OH   TYR Q   5       8.315 -14.627   6.303  1.00 28.49 LIG-0.36  OA
ATOM     35 HH   TYR Q   5       8.113 -15.426   6.142  1.00 28.49 LIG 0.22  HD
ENDBRANCH 31 34
ENDBRANCH 27 28
ENDBRANCH 17 27
ENDBRANCH 15 17
ENDBRANCH 5 13
ENDBRANCH 3 5
BRANCH 1 36
ATOM     36  CA  GLU Q   3      14.198 -14.459  17.931  1.00 29.75 LIG 0.18  C 
BRANCH 36 37
ATOM     37  CB  GLU Q   3      13.504 -13.087  17.926  1.00 29.86 LIG 0.04  C 
BRANCH 37 38
ATOM     38  CG  GLU Q   3      12.023 -13.001  18.257  1.00 30.70 LIG 0.12  C 
BRANCH 38 39
ATOM     39  CD  GLU Q   3      11.751 -13.393  19.702  1.00 35.33 LIG 0.17  C 
ATOM     40 OE1  GLU Q   3      12.557 -12.949  20.555  1.00 35.34 LIG-0.65  OA
ATOM     41 OE2  GLU Q   3      10.769 -14.141  19.974  1.00 35.74 LIG-0.65  OA
ENDBRANCH 38 39
ENDBRANCH 37 38
ENDBRANCH 36 37
BRANCH 36 42
ATOM     42  N   GLU Q   3      15.270 -14.524  18.929  1.00 32.75 LIG-0.35  N 
ATOM     43  C   ASN Q   2      15.886 -15.673  19.219  1.00 36.04 LIG 0.24  C 
ATOM     44 O    ASN Q   2      15.561 -16.749  18.692  1.00 34.76 LIG-0.27  OA
ATOM     45 H    GLU Q   3      15.457 -13.771  19.299  1.00 32.75 LIG 0.16  HD
BRANCH 43 46
ATOM     46  CA  ASN Q   2      17.067 -15.591  20.209  1.00 38.34 LIG 0.18  C 
BRANCH 46 47
ATOM     47  CB  ASN Q   2      18.367 -15.176  19.501  1.00 38.76 LIG 0.14  C 
BRANCH 47 48
ATOM     48  CG  ASN Q   2      18.461 -13.662  19.271  1.00 42.06 LIG 0.22  C 
ATOM     49  ND2 ASN Q   2      17.756 -13.174  18.260  1.00 46.27 LIG-0.37  N 
ATOM     50 22HD ASN Q   2      17.288 -13.702  17.768  1.00 46.27 LIG 0.16  HD
ATOM     51 21HD ASN Q   2      17.766 -12.330  18.095  1.00 46.27 LIG 0.16  HD
ATOM     52 OD1  ASN Q   2      19.147 -12.941  20.001  1.00 44.45 LIG-0.27  OA
ENDBRANCH 47 48
ENDBRANCH 46 47
BRANCH 46 53
ATOM     53  N   ASN Q   2      17.261 -16.802  21.011  1.00 39.54 LIG-0.34  N 
ATOM     54  C   THR Q   1      17.718 -16.819  22.258  1.00 41.49 LIG 0.25  C 
ATOM     55 O    THR Q   1      17.895 -15.797  22.922  1.00 41.78 LIG-0.27  OA
ATOM     56 H    ASN Q   2      17.047 -17.521  20.590  1.00 39.54 LIG 0.16  HD
BRANCH 54 57
ATOM     57  CA  THR Q   1      17.971 -18.202  22.873  1.00 43.16 LIG 0.30  C 
BRANCH 57 58
ATOM     58  CB  THR Q   1      19.219 -18.895  22.268  1.00 43.89 LIG 0.15  C 
ATOM     59  CG2 THR Q   1      19.312 -20.327  22.758  1.00 45.05 LIG 0.04  C 
BRANCH 58 60
ATOM     60 OG1  THR Q   1      19.108 -19.003  20.836  1.00 46.29 LIG-0.39  OA
ATOM     61 HG1  THR Q   1      18.344 -18.749  20.594  1.00 46.29 LIG 0.21  HD
ENDBRANCH 58 60
ENDBRANCH 57 58
BRANCH 57 62
ATOM     62  N   THR Q   1      16.781 -19.102  22.707  1.00 43.28 LIG-0.06  N 
ATOM     63 H2   THR Q   1      16.114 -18.647  22.332  1.00 43.28 LIG 0.28  HD
ATOM     64 H1   THR Q   1      16.522 -19.403  23.504  1.00 43.28 LIG 0.28  HD
ATOM     65 H3   THR Q   1      16.999 -19.790  22.187  1.00 43.28 LIG 0.28  HD
ENDBRANCH 57 62
ENDBRANCH 54 57
ENDBRANCH 46 53
ENDBRANCH 43 46
ENDBRANCH 36 42
ENDBRANCH 1 36
TORSDOF 24
ENDMDL
MODEL 7
USER: ADFR SOLUTION from run 47
USER: SCORE 21.998280 LL:  -5.158 LR: -17.473 RR:   0.000 FEB: -10.314
USER: RMSD 3.720524
USER: SEED 46
USER: STATUS no improvement in best in 6 clusters for 5 generations
USER: GENES 26
USER: genes 0 Translation |==|  0.48917 0.52089 0.55085
USER: genes 1 Rotation |==|  0.37105 0.69955 0.69259 0.89555
USER: genes 2 Torsion [C]-N--CA-[CB] |==|  0.54174
USER: genes 3 Torsion [N]-CA--CB-[CG] |==|  0.78259
USER: genes 4 Torsion [CA]-CB--CG-[CD1] |==|  0.75070
USER: genes 5 Torsion [N]-CA--C-[N] |==|  0.37778
USER: genes 6 Torsion [C]-N--CA-[C] |==|  0.62483
USER: genes 7 Torsion [N]-CA--C-[N] |==|  0.45887
USER: genes 8 Torsion [C]-N--CA-[CB] |==|  0.21231
USER: genes 9 Torsion [N]-CA--C-[O] |==|  0.45158
USER: genes 10 Torsion [N]-CA--CB-[CG] |==|  0.48752
USER: genes 11 Torsion [CA]-CB--CG-[CD2] |==|  0.72943
USER: genes 12 Torsion [CE1]-CZ--OH-[HH] |==|  0.11980
USER: genes 13 Torsion [N]-C--CA-[N] |==|  0.42134
USER: genes 14 Torsion [C]-CA--CB-[CG] |==|  0.34229
USER: genes 15 Torsion [CA]-CB--CG-[CD] |==|  0.20878
USER: genes 16 Torsion [CB]-CG--CD-[OE1] |==|  0.04297
USER: genes 17 Torsion [C]-CA--N-[C] |==|  0.81889
USER: genes 18 Torsion [N]-C--CA-[N] |==|  0.08296
USER: genes 19 Torsion [C]-CA--CB-[CG] |==|  0.18377
USER: genes 20 Torsion [CA]-CB--CG-[ND2] |==|  0.16147
USER: genes 21 Torsion [C]-CA--N-[C] |==|  0.17572
USER: genes 22 Torsion [N]-C--CA-[N] |==|  0.39029
USER: genes 23 Torsion [C]-CA--CB-[CG2] |==|  0.08088
USER: genes 24 Torsion [CA]-CB--OG1-[HG1] |==|  0.82961
USER: genes 25 Torsion [C]-CA--N-[H1] |==|  0.14812
ROOT
ATOM      1  C   GLU Q   3      14.695 -13.723  15.791  1.00 28.90 LIG 0.24  C 
ATOM      2 O    GLU Q   3      14.271 -13.394  14.676  1.00 28.99 LIG-0.27  OA
ATOM      3  N   PHE Q   4      15.138 -14.953  16.049  1.00 26.46 LIG-0.35  N 
ATOM      4 H    PHE Q   4      15.503 -15.169  16.797  1.00 26.46 LIG 0.16  HD
ENDROOT
BRANCH 3 5
ATOM      5  CA  PHE Q   4      15.057 -16.061  15.105  1.00 24.91 LIG 0.18  C 
BRANCH 5 6
ATOM      6  CB  PHE Q   4      15.294 -17.420  15.773  1.00 23.71 LIG 0.07  C 
BRANCH 6 7
ATOM      7  CG  PHE Q   4      16.756 -17.716  16.039  1.00 27.82 LIG-0.06  A 
ATOM      8  CD1 PHE Q   4      17.541 -18.361  15.094  1.00 28.27 LIG 0.01  A 
ATOM      9  CE1 PHE Q   4      18.888 -18.637  15.351  1.00 33.51 LIG 0.00  A 
ATOM     10  CZ  PHE Q   4      19.457 -18.225  16.543  1.00 29.48 LIG 0.00  A 
ATOM     11  CE2 PHE Q   4      18.711 -17.553  17.466  1.00 30.45 LIG 0.00  A 
ATOM     12  CD2 PHE Q   4      17.340 -17.315  17.231  1.00 30.03 LIG 0.01  A 
ENDBRANCH 6 7
ENDBRANCH 5 6
BRANCH 5 13
ATOM     13  C   PHE Q   4      13.685 -16.068  14.438  1.00 24.46 LIG 0.24  C 
ATOM     14 O    PHE Q   4      12.648 -15.931  15.090  1.00 21.72 LIG-0.27  OA
ATOM     15  N   TYR Q   5      13.723 -16.274  13.123  1.00 25.68 LIG-0.35  N 
ATOM     16 H    TYR Q   5      14.464 -16.372  12.697  1.00 25.68 LIG 0.16  HD
BRANCH 15 17
ATOM     17  CA  TYR Q   5      12.553 -16.361  12.248  1.00 24.76 LIG 0.18  C 
BRANCH 17 18
ATOM     18  C   TYR Q   5      12.776 -17.540  11.347  1.00 23.71 LIG 0.24  C 
ATOM     19  N   ALA Q   6      11.708 -17.974  10.692  1.00 23.95 LIG-0.34  N 
ATOM     20 H    ALA Q   6      10.919 -17.642  10.774  1.00 23.95 LIG 0.16  HD
ATOM     21 O    TYR Q   5      13.904 -18.018  11.181  1.00 22.91 LIG-0.27  OA
BRANCH 19 22
ATOM     22  CA  ALA Q   6      11.809 -19.079   9.758  1.00 23.91 LIG 0.18  C 
ATOM     23  CB  ALA Q   6      11.904 -20.386  10.515  1.00 25.24 LIG 0.04  C 
BRANCH 22 24
ATOM     24  C   ALA Q   6      10.683 -19.142   8.733  1.00 23.52 LIG 0.20  C 
ATOM     25 O    ALA Q   6      10.771 -19.797   7.706  1.00 23.09 LIG-0.65  OA
ATOM     26 OXT  ALA Q   6       9.664 -18.475   8.938  1.00 23.23 LIG-0.65  OA
ENDBRANCH 22 24
ENDBRANCH 19 22
ENDBRANCH 17 18
BRANCH 17 27
ATOM     27  CB  TYR Q   5      12.412 -15.066  11.414  1.00 25.21 LIG 0.07  C 
BRANCH 27 28
ATOM     28  CG  TYR Q   5      11.292 -15.074  10.385  1.00 26.66 LIG-0.06  A 
ATOM     29  CD1 TYR Q   5       9.982 -14.771  10.722  1.00 25.58 LIG 0.01  A 
ATOM     30  CE1 TYR Q   5       8.961 -14.801   9.754  1.00 26.73 LIG 0.04  A 
ATOM     31  CZ  TYR Q   5       9.261 -15.125   8.438  1.00 25.10 LIG 0.07  A 
ATOM     32  CE2 TYR Q   5      10.551 -15.394   8.078  1.00 24.98 LIG 0.04  A 
ATOM     33  CD2 TYR Q   5      11.564 -15.378   9.049  1.00 25.59 LIG 0.01  A 
BRANCH 31 34
ATOM     34 OH   TYR Q   5       8.273 -15.157   7.469  1.00 28.49 LIG-0.36  OA
ATOM     35 HH   TYR Q   5       7.768 -14.491   7.560  1.00 28.49 LIG 0.22  HD
ENDBRANCH 31 34
ENDBRANCH 27 28
ENDBRANCH 17 27
ENDBRANCH 15 17
ENDBRANCH 5 13
ENDBRANCH 3 5
BRANCH 1 36
ATOM     36  CA  GLU Q   3      14.800 -12.702  16.928  1.00 29.75 LIG 0.18  C 
BRANCH 36 37
ATOM     37  CB  GLU Q   3      13.601 -12.803  17.884  1.00 29.86 LIG 0.04  C 
BRANCH 37 38
ATOM     38  CG  GLU Q   3      13.849 -13.054  19.363  1.00 30.70 LIG 0.12  C 
BRANCH 38 39
ATOM     39  CD  GLU Q   3      14.358 -11.802  20.063  1.00 35.33 LIG 0.17  C 
ATOM     40 OE1  GLU Q   3      14.212 -10.724  19.439  1.00 35.34 LIG-0.65  OA
ATOM     41 OE2  GLU Q   3      14.906 -11.898  21.198  1.00 35.74 LIG-0.65  OA
ENDBRANCH 38 39
ENDBRANCH 37 38
ENDBRANCH 36 37
BRANCH 36 42
ATOM     42  N   GLU Q   3      14.936 -11.354  16.366  1.00 32.75 LIG-0.35  N 
ATOM     43  C   ASN Q   2      16.010 -10.999  15.655  1.00 36.04 LIG 0.24  C 
ATOM     44 O    ASN Q   2      16.964 -11.771  15.466  1.00 34.76 LIG-0.27  OA
ATOM     45 H    GLU Q   3      14.276 -10.831  16.534  1.00 32.75 LIG 0.16  HD
BRANCH 43 46
ATOM     46  CA  ASN Q   2      15.987  -9.588  15.030  1.00 38.34 LIG 0.18  C 
BRANCH 46 47
ATOM     47  CB  ASN Q   2      17.408  -9.074  14.747  1.00 38.76 LIG 0.14  C 
BRANCH 47 48
ATOM     48  CG  ASN Q   2      18.129  -9.886  13.663  1.00 42.06 LIG 0.22  C 
ATOM     49  ND2 ASN Q   2      17.537  -9.946  12.479  1.00 46.27 LIG-0.37  N 
ATOM     50 22HD ASN Q   2      16.783  -9.551  12.354  1.00 46.27 LIG 0.16  HD
ATOM     51 21HD ASN Q   2      17.906 -10.380  11.834  1.00 46.27 LIG 0.16  HD
ATOM     52 OD1  ASN Q   2      19.210 -10.438  13.885  1.00 44.45 LIG-0.27  OA
ENDBRANCH 47 48
ENDBRANCH 46 47
BRANCH 46 53
ATOM     53  N   ASN Q   2      15.209  -8.608  15.792  1.00 39.54 LIG-0.34  N 
ATOM     54  C   THR Q   1      15.496  -8.208  17.026  1.00 41.49 LIG 0.25  C 
ATOM     55 O    THR Q   1      16.535  -8.521  17.609  1.00 41.78 LIG-0.27  OA
ATOM     56 H    ASN Q   2      14.531  -8.306  15.357  1.00 39.54 LIG 0.16  HD
BRANCH 54 57
ATOM     57  CA  THR Q   1      14.479  -7.272  17.694  1.00 43.16 LIG 0.30  C 
BRANCH 57 58
ATOM     58  CB  THR Q   1      14.880  -5.780  17.563  1.00 43.89 LIG 0.15  C 
ATOM     59  CG2 THR Q   1      15.686  -5.563  16.297  1.00 45.05 LIG 0.04  C 
BRANCH 58 60
ATOM     60 OG1  THR Q   1      13.719  -4.943  17.408  1.00 46.29 LIG-0.39  OA
ATOM     61 HG1  THR Q   1      13.310  -5.158  16.706  1.00 46.29 LIG 0.21  HD
ENDBRANCH 58 60
ENDBRANCH 57 58
BRANCH 57 62
ATOM     62  N   THR Q   1      14.298  -7.606  19.146  1.00 43.28 LIG-0.06  N 
ATOM     63 H2   THR Q   1      13.781  -6.992  19.531  1.00 43.28 LIG 0.28  HD
ATOM     64 H1   THR Q   1      15.092  -7.619  19.549  1.00 43.28 LIG 0.28  HD
ATOM     65 H3   THR Q   1      13.914  -8.405  19.222  1.00 43.28 LIG 0.28  HD
ENDBRANCH 57 62
ENDBRANCH 54 57
ENDBRANCH 46 53
ENDBRANCH 43 46
ENDBRANCH 36 42
ENDBRANCH 1 36
TORSDOF 24
ENDMDL
MODEL 8
USER: ADFR SOLUTION from run 137
USER: SCORE 20.642270 LL:  -5.459 LR: -17.245 RR:   0.000 FEB: -10.085
USER: RMSD 3.335845
USER: SEED 136
USER: STATUS no improvement in best in 6 clusters for 5 generations
USER: GENES 26
USER: genes 0 Translation |==|  0.45579 0.49442 0.57269
USER: genes 1 Rotation |==|  0.47766 0.57467 0.69988 0.95164
USER: genes 2 Torsion [C]-N--CA-[CB] |==|  0.44447
USER: genes 3 Torsion [N]-CA--CB-[CG] |==|  0.52605
USER: genes 4 Torsion [CA]-CB--CG-[CD1] |==|  0.71081
USER: genes 5 Torsion [N]-CA--C-[N] |==|  0.40611
USER: genes 6 Torsion [C]-N--CA-[C] |==|  0.69029
USER: genes 7 Torsion [N]-CA--C-[N] |==|  0.35582
USER: genes 8 Torsion [C]-N--CA-[CB] |==|  0.31226
USER: genes 9 Torsion [N]-CA--C-[O] |==|  0.99088
USER: genes 10 Torsion [N]-CA--CB-[CG] |==|  0.46122
USER: genes 11 Torsion [CA]-CB--CG-[CD2] |==|  0.63269
USER: genes 12 Torsion [CE1]-CZ--OH-[HH] |==|  0.65627
USER: genes 13 Torsion [N]-C--CA-[N] |==|  0.40966
USER: genes 14 Torsion [C]-CA--CB-[CG] |==|  0.67385
USER: genes 15 Torsion [CA]-CB--CG-[CD] |==|  0.70452
USER: genes 16 Torsion [CB]-CG--CD-[OE1] |==|  0.79378
USER: genes 17 Torsion [C]-CA--N-[C] |==|  0.70924
USER: genes 18 Torsion [N]-C--CA-[N] |==|  0.86480
USER: genes 19 Torsion [C]-CA--CB-[CG] |==|  0.23603
USER: genes 20 Torsion [CA]-CB--CG-[ND2] |==|  0.42517
USER: genes 21 Torsion [C]-CA--N-[C] |==|  0.18661
USER: genes 22 Torsion [N]-C--CA-[N] |==|  0.77604
USER: genes 23 Torsion [C]-CA--CB-[CG2] |==|  0.18113
USER: genes 24 Torsion [CA]-CB--OG1-[HG1] |==|  0.56265
USER: genes 25 Torsion [C]-CA--N-[H1] |==|  0.85163
ROOT
ATOM      1  C   GLU Q   3      14.044 -14.259  16.364  1.00 28.90 LIG 0.24  C 
ATOM      2 O    GLU Q   3      14.008 -13.300  15.584  1.00 28.99 LIG-0.27  OA
ATOM      3  N   PHE Q   4      14.373 -15.488  15.967  1.00 26.46 LIG-0.35  N 
ATOM      4 H    PHE Q   4      14.474 -16.143  16.515  1.00 26.46 LIG 0.16  HD
ENDROOT
BRANCH 3 5
ATOM      5  CA  PHE Q   4      14.598 -15.859  14.576  1.00 24.91 LIG 0.18  C 
BRANCH 5 6
ATOM      6  CB  PHE Q   4      15.416 -17.147  14.437  1.00 23.71 LIG 0.07  C 
BRANCH 6 7
ATOM      7  CG  PHE Q   4      15.856 -17.434  13.015  1.00 27.82 LIG-0.06  A 
ATOM      8  CD1 PHE Q   4      15.226 -18.409  12.253  1.00 28.27 LIG 0.01  A 
ATOM      9  CE1 PHE Q   4      15.643 -18.672  10.943  1.00 33.51 LIG 0.00  A 
ATOM     10  CZ  PHE Q   4      16.666 -17.926  10.386  1.00 29.48 LIG 0.00  A 
ATOM     11  CE2 PHE Q   4      17.268 -16.936  11.107  1.00 30.45 LIG 0.00  A 
ATOM     12  CD2 PHE Q   4      16.884 -16.700  12.443  1.00 30.03 LIG 0.01  A 
ENDBRANCH 6 7
ENDBRANCH 5 6
BRANCH 5 13
ATOM     13  C   PHE Q   4      13.259 -16.042  13.869  1.00 24.46 LIG 0.24  C 
ATOM     14 O    PHE Q   4      12.282 -16.520  14.450  1.00 21.72 LIG-0.27  OA
ATOM     15  N   TYR Q   5      13.269 -15.683  12.587  1.00 25.68 LIG-0.35  N 
ATOM     16 H    TYR Q   5      13.969 -15.357  12.209  1.00 25.68 LIG 0.16  HD
BRANCH 15 17
ATOM     17  CA  TYR Q   5      12.130 -15.787  11.673  1.00 24.76 LIG 0.18  C 
BRANCH 17 18
ATOM     18  C   TYR Q   5      12.477 -16.851  10.673  1.00 23.71 LIG 0.24  C 
ATOM     19  N   ALA Q   6      11.573 -17.808  10.514  1.00 23.95 LIG-0.34  N 
ATOM     20 H    ALA Q   6      10.838 -17.860  10.957  1.00 23.95 LIG 0.16  HD
ATOM     21 O    TYR Q   5      13.510 -16.785   9.998  1.00 22.91 LIG-0.27  OA
BRANCH 19 22
ATOM     22  CA  ALA Q   6      11.777 -18.867   9.544  1.00 23.91 LIG 0.18  C 
ATOM     23  CB  ALA Q   6      11.978 -20.187  10.256  1.00 25.24 LIG 0.04  C 
BRANCH 22 24
ATOM     24  C   ALA Q   6      10.670 -18.990   8.504  1.00 23.52 LIG 0.20  C 
ATOM     25 O    ALA Q   6       9.668 -18.293   8.530  1.00 23.09 LIG-0.65  OA
ATOM     26 OXT  ALA Q   6      10.781 -19.853   7.627  1.00 23.23 LIG-0.65  OA
ENDBRANCH 22 24
ENDBRANCH 19 22
ENDBRANCH 17 18
BRANCH 17 27
ATOM     27  CB  TYR Q   5      11.894 -14.436  10.958  1.00 25.21 LIG 0.07  C 
BRANCH 27 28
ATOM     28  CG  TYR Q   5      10.968 -14.491   9.753  1.00 26.66 LIG-0.06  A 
ATOM     29  CD1 TYR Q   5       9.738 -15.127   9.800  1.00 25.58 LIG 0.01  A 
ATOM     30  CE1 TYR Q   5       8.906 -15.179   8.666  1.00 26.73 LIG 0.04  A 
ATOM     31  CZ  TYR Q   5       9.309 -14.575   7.482  1.00 25.10 LIG 0.07  A 
ATOM     32  CE2 TYR Q   5      10.502 -13.913   7.425  1.00 24.98 LIG 0.04  A 
ATOM     33  CD2 TYR Q   5      11.335 -13.878   8.552  1.00 25.59 LIG 0.01  A 
BRANCH 31 34
ATOM     34 OH   TYR Q   5       8.505 -14.610   6.355  1.00 28.49 LIG-0.36  OA
ATOM     35 HH   TYR Q   5       8.932 -14.949   5.715  1.00 28.49 LIG 0.22  HD
ENDBRANCH 31 34
ENDBRANCH 27 28
ENDBRANCH 17 27
ENDBRANCH 15 17
ENDBRANCH 5 13
ENDBRANCH 3 5
BRANCH 1 36
ATOM     36  CA  GLU Q   3      13.778 -14.069  17.861  1.00 29.75 LIG 0.18  C 
BRANCH 36 37
ATOM     37  CB  GLU Q   3      12.306 -14.344  18.208  1.00 29.86 LIG 0.04  C 
BRANCH 37 38
ATOM     38  CG  GLU Q   3      11.453 -13.220  18.772  1.00 30.70 LIG 0.12  C 
BRANCH 38 39
ATOM     39  CD  GLU Q   3      11.190 -13.412  20.259  1.00 35.33 LIG 0.17  C 
ATOM     40 OE1  GLU Q   3      10.363 -14.304  20.562  1.00 35.34 LIG-0.65  OA
ATOM     41 OE2  GLU Q   3      11.782 -12.676  21.099  1.00 35.74 LIG-0.65  OA
ENDBRANCH 38 39
ENDBRANCH 37 38
ENDBRANCH 36 37
BRANCH 36 42
ATOM     42  N   GLU Q   3      14.190 -12.721  18.264  1.00 32.75 LIG-0.35  N 
ATOM     43  C   ASN Q   2      15.314 -12.511  18.955  1.00 36.04 LIG 0.24  C 
ATOM     44 O    ASN Q   2      16.048 -13.442  19.324  1.00 34.76 LIG-0.27  OA
ATOM     45 H    GLU Q   3      13.652 -12.096  18.020  1.00 32.75 LIG 0.16  HD
BRANCH 43 46
ATOM     46  CA  ASN Q   2      15.691 -11.039  19.228  1.00 38.34 LIG 0.18  C 
BRANCH 46 47
ATOM     47  CB  ASN Q   2      14.866 -10.452  20.385  1.00 38.76 LIG 0.14  C 
BRANCH 47 48
ATOM     48  CG  ASN Q   2      15.472 -10.756  21.762  1.00 42.06 LIG 0.22  C 
ATOM     49  ND2 ASN Q   2      15.200  -9.892  22.729  1.00 46.27 LIG-0.37  N 
ATOM     50 22HD ASN Q   2      14.716  -9.200  22.565  1.00 46.27 LIG 0.16  HD
ATOM     51 21HD ASN Q   2      15.507 -10.022  23.522  1.00 46.27 LIG 0.16  HD
ATOM     52 OD1  ASN Q   2      16.162 -11.760  21.954  1.00 44.45 LIG-0.27  OA
ENDBRANCH 47 48
ENDBRANCH 46 47
BRANCH 46 53
ATOM     53  N   ASN Q   2      15.636 -10.177  18.045  1.00 39.54 LIG-0.34  N 
ATOM     54  C   THR Q   1      14.523  -9.853  17.396  1.00 41.49 LIG 0.25  C 
ATOM     55 O    THR Q   1      13.397 -10.134  17.811  1.00 41.78 LIG-0.27  OA
ATOM     56 H    ASN Q   2      16.410  -9.892  17.801  1.00 39.54 LIG 0.16  HD
BRANCH 54 57
ATOM     57  CA  THR Q   1      14.697  -9.044  16.104  1.00 43.16 LIG 0.30  C 
BRANCH 57 58
ATOM     58  CB  THR Q   1      15.876  -9.562  15.241  1.00 43.89 LIG 0.15  C 
ATOM     59  CG2 THR Q   1      15.585 -10.965  14.743  1.00 45.05 LIG 0.04  C 
BRANCH 58 60
ATOM     60 OG1  THR Q   1      16.030  -8.773  14.045  1.00 46.29 LIG-0.39  OA
ATOM     61 HG1  THR Q   1      16.436  -9.222  13.463  1.00 46.29 LIG 0.21  HD
ENDBRANCH 58 60
ENDBRANCH 57 58
BRANCH 57 62
ATOM     62  N   THR Q   1      14.906  -7.585  16.394  1.00 43.28 LIG-0.06  N 
ATOM     63 H2   THR Q   1      15.686  -7.473  16.809  1.00 43.28 LIG 0.28  HD
ATOM     64 H1   THR Q   1      14.248  -7.289  16.915  1.00 43.28 LIG 0.28  HD
ATOM     65 H3   THR Q   1      14.909  -7.128  15.630  1.00 43.28 LIG 0.28  HD
ENDBRANCH 57 62
ENDBRANCH 54 57
ENDBRANCH 46 53
ENDBRANCH 43 46
ENDBRANCH 36 42
ENDBRANCH 1 36
TORSDOF 24
ENDMDL
MODEL 9
USER: ADFR SOLUTION from run 20
USER: SCORE 20.948571 LL:  -5.217 LR: -17.224 RR:   0.000 FEB: -10.065
USER: RMSD 4.548280
USER: SEED 19
USER: STATUS no improvement in best in 9 clusters for 5 generations
USER: GENES 26
USER: genes 0 Translation |==|  0.49816 0.47237 0.58246
USER: genes 1 Rotation |==|  0.53108 0.50110 0.48282 0.99874
USER: genes 2 Torsion [C]-N--CA-[CB] |==|  0.28296
USER: genes 3 Torsion [N]-CA--CB-[CG] |==|  0.51311
USER: genes 4 Torsion [CA]-CB--CG-[CD1] |==|  0.69050
USER: genes 5 Torsion [N]-CA--C-[N] |==|  0.39636
USER: genes 6 Torsion [C]-N--CA-[C] |==|  0.71301
USER: genes 7 Torsion [N]-CA--C-[N] |==|  0.34473
USER: genes 8 Torsion [C]-N--CA-[CB] |==|  0.32987
USER: genes 9 Torsion [N]-CA--C-[O] |==|  0.98471
USER: genes 10 Torsion [N]-CA--CB-[CG] |==|  0.99668
USER: genes 11 Torsion [CA]-CB--CG-[CD2] |==|  0.83035
USER: genes 12 Torsion [CE1]-CZ--OH-[HH] |==|  0.91983
USER: genes 13 Torsion [N]-C--CA-[N] |==|  0.33799
USER: genes 14 Torsion [C]-CA--CB-[CG] |==|  0.53982
USER: genes 15 Torsion [CA]-CB--CG-[CD] |==|  0.19667
USER: genes 16 Torsion [CB]-CG--CD-[OE1] |==|  0.56718
USER: genes 17 Torsion [C]-CA--N-[C] |==|  0.79930
USER: genes 18 Torsion [N]-C--CA-[N] |==|  0.44226
USER: genes 19 Torsion [C]-CA--CB-[CG] |==|  0.33987
USER: genes 20 Torsion [CA]-CB--CG-[ND2] |==|  0.46715
USER: genes 21 Torsion [C]-CA--N-[C] |==|  0.60634
USER: genes 22 Torsion [N]-C--CA-[N] |==|  0.79032
USER: genes 23 Torsion [C]-CA--CB-[CG2] |==|  0.22759
USER: genes 24 Torsion [CA]-CB--OG1-[HG1] |==|  0.22240
USER: genes 25 Torsion [C]-CA--N-[H1] |==|  0.76567
ROOT
ATOM      1  C   GLU Q   3      14.870 -14.705  16.621  1.00 28.90 LIG 0.24  C 
ATOM      2 O    GLU Q   3      15.807 -14.059  16.138  1.00 28.99 LIG-0.27  OA
ATOM      3  N   PHE Q   4      14.256 -15.679  15.948  1.00 26.46 LIG-0.35  N 
ATOM      4 H    PHE Q   4      13.656 -16.182  16.302  1.00 26.46 LIG 0.16  HD
ENDROOT
BRANCH 3 5
ATOM      5  CA  PHE Q   4      14.528 -15.998  14.552  1.00 24.91 LIG 0.18  C 
BRANCH 5 6
ATOM      6  CB  PHE Q   4      15.422 -17.233  14.396  1.00 23.71 LIG 0.07  C 
BRANCH 6 7
ATOM      7  CG  PHE Q   4      15.813 -17.519  12.960  1.00 27.82 LIG-0.06  A 
ATOM      8  CD1 PHE Q   4      15.327 -18.636  12.294  1.00 28.27 LIG 0.01  A 
ATOM      9  CE1 PHE Q   4      15.698 -18.896  10.970  1.00 33.51 LIG 0.00  A 
ATOM     10  CZ  PHE Q   4      16.524 -18.010  10.302  1.00 29.48 LIG 0.00  A 
ATOM     11  CE2 PHE Q   4      16.978 -16.886  10.928  1.00 30.45 LIG 0.00  A 
ATOM     12  CD2 PHE Q   4      16.645 -16.644  12.278  1.00 30.03 LIG 0.01  A 
ENDBRANCH 6 7
ENDBRANCH 5 6
BRANCH 5 13
ATOM     13  C   PHE Q   4      13.215 -16.239  13.815  1.00 24.46 LIG 0.24  C 
ATOM     14 O    PHE Q   4      12.279 -16.844  14.342  1.00 21.72 LIG-0.27  OA
ATOM     15  N   TYR Q   5      13.203 -15.778  12.565  1.00 25.68 LIG-0.35  N 
ATOM     16 H    TYR Q   5      13.875 -15.364  12.224  1.00 25.68 LIG 0.16  HD
BRANCH 15 17
ATOM     17  CA  TYR Q   5      12.085 -15.907  11.630  1.00 24.76 LIG 0.18  C 
BRANCH 17 18
ATOM     18  C   TYR Q   5      12.450 -17.001  10.670  1.00 23.71 LIG 0.24  C 
ATOM     19  N   ALA Q   6      11.584 -18.001  10.581  1.00 23.95 LIG-0.34  N 
ATOM     20 H    ALA Q   6      10.863 -18.063  11.047  1.00 23.95 LIG 0.16  HD
ATOM     21 O    TYR Q   5      13.460 -16.924   9.963  1.00 22.91 LIG-0.27  OA
BRANCH 19 22
ATOM     22  CA  ALA Q   6      11.807 -19.095   9.655  1.00 23.91 LIG 0.18  C 
ATOM     23  CB  ALA Q   6      11.928 -20.398  10.416  1.00 25.24 LIG 0.04  C 
BRANCH 22 24
ATOM     24  C   ALA Q   6      10.754 -19.218   8.560  1.00 23.52 LIG 0.20  C 
ATOM     25 O    ALA Q   6       9.754 -18.518   8.534  1.00 23.09 LIG-0.65  OA
ATOM     26 OXT  ALA Q   6      10.907 -20.084   7.693  1.00 23.23 LIG-0.65  OA
ENDBRANCH 22 24
ENDBRANCH 19 22
ENDBRANCH 17 18
BRANCH 17 27
ATOM     27  CB  TYR Q   5      11.869 -14.576  10.869  1.00 25.21 LIG 0.07  C 
BRANCH 27 28
ATOM     28  CG  TYR Q   5      12.809 -13.446  11.258  1.00 26.66 LIG-0.06  A 
ATOM     29  CD1 TYR Q   5      13.664 -12.853  10.343  1.00 25.58 LIG 0.01  A 
ATOM     30  CE1 TYR Q   5      14.536 -11.819  10.731  1.00 26.73 LIG 0.04  A 
ATOM     31  CZ  TYR Q   5      14.538 -11.370  12.046  1.00 25.10 LIG 0.07  A 
ATOM     32  CE2 TYR Q   5      13.678 -11.917  12.955  1.00 24.98 LIG 0.04  A 
ATOM     33  CD2 TYR Q   5      12.822 -12.958  12.567  1.00 25.59 LIG 0.01  A 
BRANCH 31 34
ATOM     34 OH   TYR Q   5      15.385 -10.351  12.449  1.00 28.49 LIG-0.36  OA
ATOM     35 HH   TYR Q   5      16.078 -10.358  11.974  1.00 28.49 LIG 0.22  HD
ENDBRANCH 31 34
ENDBRANCH 27 28
ENDBRANCH 17 27
ENDBRANCH 15 17
ENDBRANCH 5 13
ENDBRANCH 3 5
BRANCH 1 36
ATOM     36  CA  GLU Q   3      14.407 -14.468  18.061  1.00 29.75 LIG 0.18  C 
BRANCH 36 37
ATOM     37  CB  GLU Q   3      13.739 -13.092  18.214  1.00 29.86 LIG 0.04  C 
BRANCH 37 38
ATOM     38  CG  GLU Q   3      13.508 -12.528  19.607  1.00 30.70 LIG 0.12  C 
BRANCH 38 39
ATOM     39  CD  GLU Q   3      14.816 -12.115  20.265  1.00 35.33 LIG 0.17  C 
ATOM     40 OE1  GLU Q   3      14.819 -12.089  21.519  1.00 35.34 LIG-0.65  OA
ATOM     41 OE2  GLU Q   3      15.808 -11.806  19.546  1.00 35.74 LIG-0.65  OA
ENDBRANCH 38 39
ENDBRANCH 37 38
ENDBRANCH 36 37
BRANCH 36 42
ATOM     42  N   GLU Q   3      15.543 -14.626  18.974  1.00 32.75 LIG-0.35  N 
ATOM     43  C   ASN Q   2      16.063 -15.827  19.241  1.00 36.04 LIG 0.24  C 
ATOM     44 O    ASN Q   2      15.592 -16.873  18.764  1.00 34.76 LIG-0.27  OA
ATOM     45 H    GLU Q   3      15.833 -13.891  19.312  1.00 32.75 LIG 0.16  HD
BRANCH 43 46
ATOM     46  CA  ASN Q   2      17.321 -15.851  20.134  1.00 38.34 LIG 0.18  C 
BRANCH 46 47
ATOM     47  CB  ASN Q   2      18.563 -15.362  19.371  1.00 38.76 LIG 0.14  C 
BRANCH 47 48
ATOM     48  CG  ASN Q   2      19.239 -14.159  20.045  1.00 42.06 LIG 0.22  C 
ATOM     49  ND2 ASN Q   2      20.442 -13.830  19.593  1.00 46.27 LIG-0.37  N 
ATOM     50 22HD ASN Q   2      20.806 -14.290  18.964  1.00 46.27 LIG 0.16  HD
ATOM     51 21HD ASN Q   2      20.858 -13.157  19.930  1.00 46.27 LIG 0.16  HD
ATOM     52 OD1  ASN Q   2      18.681 -13.529  20.946  1.00 44.45 LIG-0.27  OA
ENDBRANCH 47 48
ENDBRANCH 46 47
BRANCH 46 53
ATOM     53  N   ASN Q   2      17.570 -17.140  20.784  1.00 39.54 LIG-0.34  N 
ATOM     54  C   THR Q   1      18.026 -17.288  22.023  1.00 41.49 LIG 0.25  C 
ATOM     55 O    THR Q   1      18.156 -16.347  22.808  1.00 41.78 LIG-0.27  OA
ATOM     56 H    ASN Q   2      17.390 -17.811  20.277  1.00 39.54 LIG 0.16  HD
BRANCH 54 57
ATOM     57  CA  THR Q   1      18.342 -18.723  22.467  1.00 43.16 LIG 0.30  C 
BRANCH 57 58
ATOM     58  CB  THR Q   1      19.175 -19.495  21.412  1.00 43.89 LIG 0.15  C 
ATOM     59  CG2 THR Q   1      20.644 -19.145  21.545  1.00 45.05 LIG 0.04  C 
BRANCH 58 60
ATOM     60 OG1  THR Q   1      19.113 -20.916  21.642  1.00 46.29 LIG-0.39  OA
ATOM     61 HG1  THR Q   1      18.392 -21.219  21.334  1.00 46.29 LIG 0.21  HD
ENDBRANCH 58 60
ENDBRANCH 57 58
BRANCH 57 62
ATOM     62  N   THR Q   1      17.088 -19.493  22.762  1.00 43.28 LIG-0.06  N 
ATOM     63 H2   THR Q   1      16.447 -19.247  22.195  1.00 43.28 LIG 0.28  HD
ATOM     64 H1   THR Q   1      16.826 -19.326  23.597  1.00 43.28 LIG 0.28  HD
ATOM     65 H3   THR Q   1      17.246 -20.364  22.669  1.00 43.28 LIG 0.28  HD
ENDBRANCH 57 62
ENDBRANCH 54 57
ENDBRANCH 46 53
ENDBRANCH 43 46
ENDBRANCH 36 42
ENDBRANCH 1 36
TORSDOF 24
ENDMDL
MODEL 10
USER: ADFR SOLUTION from run 159
USER: SCORE 21.300126 LL:  -5.618 LR: -17.050 RR:   0.000 FEB:  -9.891
USER: RMSD 4.249861
USER: SEED 158
USER: STATUS searching
USER: GENES 26
USER: genes 0 Translation |==|  0.50246 0.47076 0.58112
USER: genes 1 Rotation |==|  0.54427 0.49971 0.46361 0.99671
USER: genes 2 Torsion [C]-N--CA-[CB] |==|  0.26663
USER: genes 3 Torsion [N]-CA--CB-[CG] |==|  0.49541
USER: genes 4 Torsion [CA]-CB--CG-[CD1] |==|  0.68706
USER: genes 5 Torsion [N]-CA--C-[N] |==|  0.39929
USER: genes 6 Torsion [C]-N--CA-[C] |==|  0.70931
USER: genes 7 Torsion [N]-CA--C-[N] |==|  0.34452
USER: genes 8 Torsion [C]-N--CA-[CB] |==|  0.32006
USER: genes 9 Torsion [N]-CA--C-[O] |==|  0.98703
USER: genes 10 Torsion [N]-CA--CB-[CG] |==|  0.45664
USER: genes 11 Torsion [CA]-CB--CG-[CD2] |==|  0.62856
USER: genes 12 Torsion [CE1]-CZ--OH-[HH] |==|  0.45388
USER: genes 13 Torsion [N]-C--CA-[N] |==|  0.35424
USER: genes 14 Torsion [C]-CA--CB-[CG] |==|  0.54366
USER: genes 15 Torsion [CA]-CB--CG-[CD] |==|  0.20488
USER: genes 16 Torsion [CB]-CG--CD-[OE1] |==|  0.04768
USER: genes 17 Torsion [C]-CA--N-[C] |==|  0.78733
USER: genes 18 Torsion [N]-C--CA-[N] |==|  0.42503
USER: genes 19 Torsion [C]-CA--CB-[CG] |==|  0.94096
USER: genes 20 Torsion [CA]-CB--CG-[ND2] |==|  0.29828
USER: genes 21 Torsion [C]-CA--N-[C] |==|  0.61808
USER: genes 22 Torsion [N]-C--CA-[N] |==|  0.83993
USER: genes 23 Torsion [C]-CA--CB-[CG2] |==|  0.33846
USER: genes 24 Torsion [CA]-CB--OG1-[HG1] |==|  0.48871
USER: genes 25 Torsion [C]-CA--N-[H1] |==|  0.39520
ROOT
ATOM      1  C   GLU Q   3      14.954 -14.738  16.585  1.00 28.90 LIG 0.24  C 
ATOM      2 O    GLU Q   3      15.941 -14.141  16.138  1.00 28.99 LIG-0.27  OA
ATOM      3  N   PHE Q   4      14.270 -15.624  15.862  1.00 26.46 LIG-0.35  N 
ATOM      4 H    PHE Q   4      13.631 -16.098  16.189  1.00 26.46 LIG 0.16  HD
ENDROOT
BRANCH 3 5
ATOM      5  CA  PHE Q   4      14.523 -15.890  14.452  1.00 24.91 LIG 0.18  C 
BRANCH 5 6
ATOM      6  CB  PHE Q   4      15.440 -17.099  14.237  1.00 23.71 LIG 0.07  C 
BRANCH 6 7
ATOM      7  CG  PHE Q   4      15.686 -17.420  12.777  1.00 27.82 LIG-0.06  A 
ATOM      8  CD1 PHE Q   4      15.195 -18.586  12.206  1.00 28.27 LIG 0.01  A 
ATOM      9  CE1 PHE Q   4      15.433 -18.877  10.858  1.00 33.51 LIG 0.00  A 
ATOM     10  CZ  PHE Q   4      16.129 -17.975  10.074  1.00 29.48 LIG 0.00  A 
ATOM     11  CE2 PHE Q   4      16.583 -16.805  10.608  1.00 30.45 LIG 0.00  A 
ATOM     12  CD2 PHE Q   4      16.387 -16.529  11.977  1.00 30.03 LIG 0.01  A 
ENDBRANCH 6 7
ENDBRANCH 5 6
BRANCH 5 13
ATOM     13  C   PHE Q   4      13.202 -16.133  13.729  1.00 24.46 LIG 0.24  C 
ATOM     14 O    PHE Q   4      12.282 -16.761  14.259  1.00 21.72 LIG-0.27  OA
ATOM     15  N   TYR Q   5      13.165 -15.650  12.489  1.00 25.68 LIG-0.35  N 
ATOM     16 H    TYR Q   5      13.827 -15.222  12.146  1.00 25.68 LIG 0.16  HD
BRANCH 15 17
ATOM     17  CA  TYR Q   5      12.034 -15.776  11.568  1.00 24.76 LIG 0.18  C 
BRANCH 17 18
ATOM     18  C   TYR Q   5      12.412 -16.825  10.563  1.00 23.71 LIG 0.24  C 
ATOM     19  N   ALA Q   6      11.572 -17.845  10.453  1.00 23.95 LIG-0.34  N 
ATOM     20 H    ALA Q   6      10.863 -17.944  10.929  1.00 23.95 LIG 0.16  HD
ATOM     21 O    TYR Q   5      13.406 -16.694   9.841  1.00 22.91 LIG-0.27  OA
BRANCH 19 22
ATOM     22  CA  ALA Q   6      11.809 -18.898   9.484  1.00 23.91 LIG 0.18  C 
ATOM     23  CB  ALA Q   6      12.066 -20.207  10.199  1.00 25.24 LIG 0.04  C 
BRANCH 22 24
ATOM     24  C   ALA Q   6      10.698 -19.068   8.455  1.00 23.52 LIG 0.20  C 
ATOM     25 O    ALA Q   6       9.660 -18.427   8.502  1.00 23.09 LIG-0.65  OA
ATOM     26 OXT  ALA Q   6      10.846 -19.911   7.564  1.00 23.23 LIG-0.65  OA
ENDBRANCH 22 24
ENDBRANCH 19 22
ENDBRANCH 17 18
BRANCH 17 27
ATOM     27  CB  TYR Q   5      11.769 -14.426  10.861  1.00 25.21 LIG 0.07  C 
BRANCH 27 28
ATOM     28  CG  TYR Q   5      10.883 -14.501   9.627  1.00 26.66 LIG-0.06  A 
ATOM     29  CD1 TYR Q   5       9.691 -15.208   9.621  1.00 25.58 LIG 0.01  A 
ATOM     30  CE1 TYR Q   5       8.896 -15.276   8.461  1.00 26.73 LIG 0.04  A 
ATOM     31  CZ  TYR Q   5       9.297 -14.618   7.306  1.00 25.10 LIG 0.07  A 
ATOM     32  CE2 TYR Q   5      10.450 -13.887   7.302  1.00 24.98 LIG 0.04  A 
ATOM     33  CD2 TYR Q   5      11.248 -13.835   8.455  1.00 25.59 LIG 0.01  A 
BRANCH 31 34
ATOM     34 OH   TYR Q   5       8.529 -14.668   6.154  1.00 28.49 LIG-0.36  OA
ATOM     35 HH   TYR Q   5       8.769 -14.058   5.630  1.00 28.49 LIG 0.22  HD
ENDBRANCH 31 34
ENDBRANCH 27 28
ENDBRANCH 17 27
ENDBRANCH 15 17
ENDBRANCH 5 13
ENDBRANCH 3 5
BRANCH 1 36
ATOM     36  CA  GLU Q   3      14.504 -14.541  18.037  1.00 29.75 LIG 0.18  C 
BRANCH 36 37
ATOM     37  CB  GLU Q   3      13.812 -13.182  18.228  1.00 29.86 LIG 0.04  C 
BRANCH 37 38
ATOM     38  CG  GLU Q   3      13.615 -12.639  19.635  1.00 30.70 LIG 0.12  C 
BRANCH 38 39
ATOM     39  CD  GLU Q   3      14.925 -12.138  20.226  1.00 35.33 LIG 0.17  C 
ATOM     40 OE1  GLU Q   3      15.854 -11.928  19.410  1.00 35.34 LIG-0.65  OA
ATOM     41 OE2  GLU Q   3      15.027 -11.978  21.476  1.00 35.74 LIG-0.65  OA
ENDBRANCH 38 39
ENDBRANCH 37 38
ENDBRANCH 36 37
BRANCH 36 42
ATOM     42  N   GLU Q   3      15.654 -14.698  18.932  1.00 32.75 LIG-0.35  N 
ATOM     43  C   ASN Q   2      16.147 -15.903  19.232  1.00 36.04 LIG 0.24  C 
ATOM     44 O    ASN Q   2      15.638 -16.951  18.804  1.00 34.76 LIG-0.27  OA
ATOM     45 H    GLU Q   3      15.970 -13.959  19.237  1.00 32.75 LIG 0.16  HD
BRANCH 43 46
ATOM     46  CA  ASN Q   2      17.422 -15.929  20.101  1.00 38.34 LIG 0.18  C 
BRANCH 46 47
ATOM     47  CB  ASN Q   2      18.680 -15.652  19.263  1.00 38.76 LIG 0.14  C 
BRANCH 47 48
ATOM     48  CG  ASN Q   2      18.472 -15.930  17.768  1.00 42.06 LIG 0.22  C 
ATOM     49  ND2 ASN Q   2      18.391 -14.869  16.977  1.00 46.27 LIG-0.37  N 
ATOM     50 22HD ASN Q   2      18.443 -14.078  17.311  1.00 46.27 LIG 0.16  HD
ATOM     51 21HD ASN Q   2      18.285 -14.971  16.130  1.00 46.27 LIG 0.16  HD
ATOM     52 OD1  ASN Q   2      18.401 -17.081  17.331  1.00 44.45 LIG-0.27  OA
ENDBRANCH 47 48
ENDBRANCH 46 47
BRANCH 46 53
ATOM     53  N   ASN Q   2      17.574 -17.146  20.904  1.00 39.54 LIG-0.34  N 
ATOM     54  C   THR Q   1      17.974 -17.171  22.170  1.00 41.49 LIG 0.25  C 
ATOM     55 O    THR Q   1      18.124 -16.154  22.848  1.00 41.78 LIG-0.27  OA
ATOM     56 H    ASN Q   2      17.377 -17.861  20.469  1.00 39.54 LIG 0.16  HD
BRANCH 54 57
ATOM     57  CA  THR Q   1      18.193 -18.559  22.789  1.00 43.16 LIG 0.30  C 
BRANCH 57 58
ATOM     58  CB  THR Q   1      19.357 -19.327  22.111  1.00 43.89 LIG 0.15  C 
ATOM     59  CG2 THR Q   1      20.412 -19.691  23.137  1.00 45.05 LIG 0.04  C 
BRANCH 58 60
ATOM     60 OG1  THR Q   1      18.907 -20.589  21.583  1.00 46.29 LIG-0.39  OA
ATOM     61 HG1  THR Q   1      19.537 -20.963  21.173  1.00 46.29 LIG 0.21  HD
ENDBRANCH 58 60
ENDBRANCH 57 58
BRANCH 57 62
ATOM     62  N   THR Q   1      16.947 -19.394  22.717  1.00 43.28 LIG-0.06  N 
ATOM     63 H2   THR Q   1      16.516 -19.352  23.495  1.00 43.28 LIG 0.28  HD
ATOM     64 H1   THR Q   1      17.166 -20.240  22.545  1.00 43.28 LIG 0.28  HD
ATOM     65 H3   THR Q   1      16.420 -19.086  22.070  1.00 43.28 LIG 0.28  HD
ENDBRANCH 57 62
ENDBRANCH 54 57
ENDBRANCH 46 53
ENDBRANCH 43 46
ENDBRANCH 36 42
ENDBRANCH 1 36
TORSDOF 24
ENDMDL
MODEL 11
USER: ADFR SOLUTION from run 136
USER: SCORE 20.749559 LL:  -5.210 LR: -16.882 RR:   0.000 FEB:  -9.723
USER: RMSD 4.358132
USER: SEED 135
USER: STATUS searching
USER: GENES 26
USER: genes 0 Translation |==|  0.54309 0.45404 0.58785
USER: genes 1 Rotation |==|  0.51359 0.49877 0.41560 0.99264
USER: genes 2 Torsion [C]-N--CA-[CB] |==|  0.25808
USER: genes 3 Torsion [N]-CA--CB-[CG] |==|  0.81715
USER: genes 4 Torsion [CA]-CB--CG-[CD1] |==|  0.25733
USER: genes 5 Torsion [N]-CA--C-[N] |==|  0.42225
USER: genes 6 Torsion [C]-N--CA-[C] |==|  0.67558
USER: genes 7 Torsion [N]-CA--C-[N] |==|  0.45256
USER: genes 8 Torsion [C]-N--CA-[CB] |==|  0.24482
USER: genes 9 Torsion [N]-CA--C-[O] |==|  0.99055
USER: genes 10 Torsion [N]-CA--CB-[CG] |==|  0.11936
USER: genes 11 Torsion [CA]-CB--CG-[CD2] |==|  0.22713
USER: genes 12 Torsion [CE1]-CZ--OH-[HH] |==|  0.59241
USER: genes 13 Torsion [N]-C--CA-[N] |==|  0.36083
USER: genes 14 Torsion [C]-CA--CB-[CG] |==|  0.49776
USER: genes 15 Torsion [CA]-CB--CG-[CD] |==|  0.22641
USER: genes 16 Torsion [CB]-CG--CD-[OE1] |==|  0.08421
USER: genes 17 Torsion [C]-CA--N-[C] |==|  0.78581
USER: genes 18 Torsion [N]-C--CA-[N] |==|  0.47330
USER: genes 19 Torsion [C]-CA--CB-[CG] |==|  0.39426
USER: genes 20 Torsion [CA]-CB--CG-[ND2] |==|  0.33478
USER: genes 21 Torsion [C]-CA--N-[C] |==|  0.76734
USER: genes 22 Torsion [N]-C--CA-[N] |==|  0.69330
USER: genes 23 Torsion [C]-CA--CB-[CG2] |==|  0.30985
USER: genes 24 Torsion [CA]-CB--OG1-[HG1] |==|  0.70860
USER: genes 25 Torsion [C]-CA--N-[H1] |==|  0.70287
ROOT
ATOM      1  C   GLU Q   3      15.746 -15.077  16.762  1.00 28.90 LIG 0.24  C 
ATOM      2 O    GLU Q   3      16.813 -14.738  16.235  1.00 28.99 LIG-0.27  OA
ATOM      3  N   PHE Q   4      14.883 -15.893  16.159  1.00 26.46 LIG-0.35  N 
ATOM      4 H    PHE Q   4      14.176 -16.193  16.548  1.00 26.46 LIG 0.16  HD
ENDROOT
BRANCH 3 5
ATOM      5  CA  PHE Q   4      15.033 -16.367  14.789  1.00 24.91 LIG 0.18  C 
BRANCH 5 6
ATOM      6  CB  PHE Q   4      15.763 -17.712  14.709  1.00 23.71 LIG 0.07  C 
BRANCH 6 7
ATOM      7  CG  PHE Q   4      17.209 -17.642  15.157  1.00 27.82 LIG-0.06  A 
ATOM      8  CD1 PHE Q   4      17.567 -17.909  16.471  1.00 28.27 LIG 0.01  A 
ATOM      9  CE1 PHE Q   4      18.905 -17.835  16.877  1.00 33.51 LIG 0.00  A 
ATOM     10  CZ  PHE Q   4      19.887 -17.535  15.950  1.00 29.48 LIG 0.00  A 
ATOM     11  CE2 PHE Q   4      19.558 -17.311  14.645  1.00 30.45 LIG 0.00  A 
ATOM     12  CD2 PHE Q   4      18.206 -17.336  14.242  1.00 30.03 LIG 0.01  A 
ENDBRANCH 6 7
ENDBRANCH 5 6
BRANCH 5 13
ATOM     13  C   PHE Q   4      13.660 -16.508  14.140  1.00 24.46 LIG 0.24  C 
ATOM     14 O    PHE Q   4      12.657 -16.781  14.803  1.00 21.72 LIG-0.27  OA
ATOM     15  N   TYR Q   5      13.667 -16.353  12.818  1.00 25.68 LIG-0.35  N 
ATOM     16 H    TYR Q   5      14.385 -16.168  12.383  1.00 25.68 LIG 0.16  HD
BRANCH 15 17
ATOM     17  CA  TYR Q   5      12.495 -16.471  11.949  1.00 24.76 LIG 0.18  C 
BRANCH 17 18
ATOM     18  C   TYR Q   5      12.754 -17.630  11.031  1.00 23.71 LIG 0.24  C 
ATOM     19  N   ALA Q   6      11.691 -18.123  10.412  1.00 23.95 LIG-0.34  N 
ATOM     20 H    ALA Q   6      10.887 -17.839  10.526  1.00 23.95 LIG 0.16  HD
ATOM     21 O    TYR Q   5      13.902 -18.039  10.822  1.00 22.91 LIG-0.27  OA
BRANCH 19 22
ATOM     22  CA  ALA Q   6      11.823 -19.216   9.468  1.00 23.91 LIG 0.18  C 
ATOM     23  CB  ALA Q   6      11.734 -20.540  10.196  1.00 25.24 LIG 0.04  C 
BRANCH 22 24
ATOM     24  C   ALA Q   6      10.825 -19.177   8.317  1.00 23.52 LIG 0.20  C 
ATOM     25 O    ALA Q   6       9.949 -18.331   8.239  1.00 23.09 LIG-0.65  OA
ATOM     26 OXT  ALA Q   6      10.889 -20.060   7.454  1.00 23.23 LIG-0.65  OA
ENDBRANCH 22 24
ENDBRANCH 19 22
ENDBRANCH 17 18
BRANCH 17 27
ATOM     27  CB  TYR Q   5      12.304 -15.171  11.131  1.00 25.21 LIG 0.07  C 
BRANCH 27 28
ATOM     28  CG  TYR Q   5      13.577 -14.578  10.547  1.00 26.66 LIG-0.06  A 
ATOM     29  CD1 TYR Q   5      14.261 -13.546  11.171  1.00 25.58 LIG 0.01  A 
ATOM     30  CE1 TYR Q   5      15.428 -13.004  10.601  1.00 26.73 LIG 0.04  A 
ATOM     31  CZ  TYR Q   5      15.917 -13.512   9.405  1.00 25.10 LIG 0.07  A 
ATOM     32  CE2 TYR Q   5      15.278 -14.551   8.792  1.00 24.98 LIG 0.04  A 
ATOM     33  CD2 TYR Q   5      14.106 -15.078   9.354  1.00 25.59 LIG 0.01  A 
BRANCH 31 34
ATOM     34 OH   TYR Q   5      17.066 -12.996   8.829  1.00 28.49 LIG-0.36  OA
ATOM     35 HH   TYR Q   5      17.002 -13.033   7.992  1.00 28.49 LIG 0.22  HD
ENDBRANCH 31 34
ENDBRANCH 27 28
ENDBRANCH 17 27
ENDBRANCH 15 17
ENDBRANCH 5 13
ENDBRANCH 3 5
BRANCH 1 36
ATOM     36  CA  GLU Q   3      15.391 -14.627  18.183  1.00 29.75 LIG 0.18  C 
BRANCH 36 37
ATOM     37  CB  GLU Q   3      14.920 -13.164  18.206  1.00 29.86 LIG 0.04  C 
BRANCH 37 38
ATOM     38  CG  GLU Q   3      14.502 -12.538  19.527  1.00 30.70 LIG 0.12  C 
BRANCH 38 39
ATOM     39  CD  GLU Q   3      15.709 -12.067  20.326  1.00 35.33 LIG 0.17  C 
ATOM     40 OE1  GLU Q   3      16.704 -11.700  19.657  1.00 35.34 LIG-0.65  OA
ATOM     41 OE2  GLU Q   3      15.668 -12.083  21.589  1.00 35.74 LIG-0.65  OA
ENDBRANCH 38 39
ENDBRANCH 37 38
ENDBRANCH 36 37
BRANCH 36 42
ATOM     42  N   GLU Q   3      16.539 -14.844  19.068  1.00 32.75 LIG-0.35  N 
ATOM     43  C   ASN Q   2      16.851 -16.060  19.524  1.00 36.04 LIG 0.24  C 
ATOM     44 O    ASN Q   2      16.166 -17.062  19.258  1.00 34.76 LIG-0.27  OA
ATOM     45 H    GLU Q   3      16.980 -14.131  19.259  1.00 32.75 LIG 0.16  HD
BRANCH 43 46
ATOM     46  CA  ASN Q   2      18.142 -16.173  20.361  1.00 38.34 LIG 0.18  C 
BRANCH 46 47
ATOM     47  CB  ASN Q   2      19.383 -15.792  19.537  1.00 38.76 LIG 0.14  C 
BRANCH 47 48
ATOM     48  CG  ASN Q   2      20.421 -15.009  20.353  1.00 42.06 LIG 0.22  C 
ATOM     49  ND2 ASN Q   2      21.626 -15.554  20.451  1.00 46.27 LIG-0.37  N 
ATOM     50 22HD ASN Q   2      21.787 -16.312  20.078  1.00 46.27 LIG 0.16  HD
ATOM     51 21HD ASN Q   2      22.247 -15.150  20.889  1.00 46.27 LIG 0.16  HD
ATOM     52 OD1  ASN Q   2      20.147 -13.925  20.873  1.00 44.45 LIG-0.27  OA
ENDBRANCH 47 48
ENDBRANCH 46 47
BRANCH 46 53
ATOM     53  N   ASN Q   2      18.318 -17.470  21.019  1.00 39.54 LIG-0.34  N 
ATOM     54  C   THR Q   1      17.775 -17.809  22.182  1.00 41.49 LIG 0.25  C 
ATOM     55 O    THR Q   1      16.945 -17.110  22.766  1.00 41.78 LIG-0.27  OA
ATOM     56 H    ASN Q   2      18.820 -18.007  20.571  1.00 39.54 LIG 0.16  HD
BRANCH 54 57
ATOM     57  CA  THR Q   1      18.190 -19.169  22.759  1.00 43.16 LIG 0.30  C 
BRANCH 57 58
ATOM     58  CB  THR Q   1      19.410 -19.774  22.017  1.00 43.89 LIG 0.15  C 
ATOM     59  CG2 THR Q   1      20.623 -19.787  22.927  1.00 45.05 LIG 0.04  C 
BRANCH 58 60
ATOM     60 OG1  THR Q   1      19.182 -21.158  21.689  1.00 46.29 LIG-0.39  OA
ATOM     61 HG1  THR Q   1      19.626 -21.647  22.209  1.00 46.29 LIG 0.21  HD
ENDBRANCH 58 60
ENDBRANCH 57 58
BRANCH 57 62
ATOM     62  N   THR Q   1      17.056 -20.152  22.719  1.00 43.28 LIG-0.06  N 
ATOM     63 H2   THR Q   1      16.405 -19.834  22.201  1.00 43.28 LIG 0.28  HD
ATOM     64 H1   THR Q   1      16.743 -20.277  23.543  1.00 43.28 LIG 0.28  HD
ATOM     65 H3   THR Q   1      17.345 -20.926  22.390  1.00 43.28 LIG 0.28  HD
ENDBRANCH 57 62
ENDBRANCH 54 57
ENDBRANCH 46 53
ENDBRANCH 43 46
ENDBRANCH 36 42
ENDBRANCH 1 36
TORSDOF 24
ENDMDL
MODEL 12
USER: ADFR SOLUTION from run 76
USER: SCORE 20.455166 LL:  -5.450 LR: -16.784 RR:   0.000 FEB:  -9.624
USER: RMSD 4.077144
USER: SEED 75
USER: STATUS no improvement in best in 14 clusters for 5 generations
USER: GENES 26
USER: genes 0 Translation |==|  0.52311 0.52991 0.50074
USER: genes 1 Rotation |==|  0.33209 0.64398 0.56236 0.94406
USER: genes 2 Torsion [C]-N--CA-[CB] |==|  0.43713
USER: genes 3 Torsion [N]-CA--CB-[CG] |==|  0.76618
USER: genes 4 Torsion [CA]-CB--CG-[CD1] |==|  0.89932
USER: genes 5 Torsion [N]-CA--C-[N] |==|  0.30013
USER: genes 6 Torsion [C]-N--CA-[C] |==|  0.65189
USER: genes 7 Torsion [N]-CA--C-[N] |==|  0.35000
USER: genes 8 Torsion [C]-N--CA-[CB] |==|  0.34620
USER: genes 9 Torsion [N]-CA--C-[O] |==|  0.97052
USER: genes 10 Torsion [N]-CA--CB-[CG] |==|  0.44123
USER: genes 11 Torsion [CA]-CB--CG-[CD2] |==|  0.65785
USER: genes 12 Torsion [CE1]-CZ--OH-[HH] |==|  0.59848
USER: genes 13 Torsion [N]-C--CA-[N] |==|  0.96679
USER: genes 14 Torsion [C]-CA--CB-[CG] |==|  0.37726
USER: genes 15 Torsion [CA]-CB--CG-[CD] |==|  0.91246
USER: genes 16 Torsion [CB]-CG--CD-[OE1] |==|  0.26536
USER: genes 17 Torsion [C]-CA--N-[C] |==|  0.79382
USER: genes 18 Torsion [N]-C--CA-[N] |==|  0.94770
USER: genes 19 Torsion [C]-CA--CB-[CG] |==|  0.35505
USER: genes 20 Torsion [CA]-CB--CG-[ND2] |==|  0.49386
USER: genes 21 Torsion [C]-CA--N-[C] |==|  0.83466
USER: genes 22 Torsion [N]-C--CA-[N] |==|  0.40708
USER: genes 23 Torsion [C]-CA--CB-[CG2] |==|  0.92069
USER: genes 24 Torsion [CA]-CB--OG1-[HG1] |==|  0.57125
USER: genes 25 Torsion [C]-CA--N-[H1] |==|  0.38068
ROOT
ATOM      1  C   GLU Q   3      15.357 -13.540  14.475  1.00 28.90 LIG 0.24  C 
ATOM      2 O    GLU Q   3      15.569 -13.409  13.264  1.00 28.99 LIG-0.27  OA
ATOM      3  N   PHE Q   4      15.141 -14.730  15.035  1.00 26.46 LIG-0.35  N 
ATOM      4 H    PHE Q   4      15.068 -14.838  15.886  1.00 26.46 LIG 0.16  HD
ENDROOT
BRANCH 3 5
ATOM      5  CA  PHE Q   4      15.006 -15.970  14.282  1.00 24.91 LIG 0.18  C 
BRANCH 5 6
ATOM      6  CB  PHE Q   4      15.316 -17.209  15.129  1.00 23.71 LIG 0.07  C 
BRANCH 6 7
ATOM      7  CG  PHE Q   4      16.793 -17.536  15.205  1.00 27.82 LIG-0.06  A 
ATOM      8  CD1 PHE Q   4      17.628 -17.341  14.113  1.00 28.27 LIG 0.01  A 
ATOM      9  CE1 PHE Q   4      18.990 -17.652  14.190  1.00 33.51 LIG 0.00  A 
ATOM     10  CZ  PHE Q   4      19.521 -18.119  15.379  1.00 29.48 LIG 0.00  A 
ATOM     11  CE2 PHE Q   4      18.723 -18.277  16.475  1.00 30.45 LIG 0.00  A 
ATOM     12  CD2 PHE Q   4      17.341 -18.010  16.388  1.00 30.03 LIG 0.01  A 
ENDBRANCH 6 7
ENDBRANCH 5 6
BRANCH 5 13
ATOM     13  C   PHE Q   4      13.588 -16.086  13.733  1.00 24.46 LIG 0.24  C 
ATOM     14 O    PHE Q   4      12.632 -16.361  14.463  1.00 21.72 LIG-0.27  OA
ATOM     15  N   TYR Q   5      13.500 -15.908  12.416  1.00 25.68 LIG-0.35  N 
ATOM     16 H    TYR Q   5      14.187 -15.723  11.934  1.00 25.68 LIG 0.16  HD
BRANCH 15 17
ATOM     17  CA  TYR Q   5      12.266 -15.998  11.633  1.00 24.76 LIG 0.18  C 
BRANCH 17 18
ATOM     18  C   TYR Q   5      12.521 -16.998  10.543  1.00 23.71 LIG 0.24  C 
ATOM     19  N   ALA Q   6      11.652 -17.995  10.462  1.00 23.95 LIG-0.34  N 
ATOM     20 H    ALA Q   6      10.989 -18.107  10.999  1.00 23.95 LIG 0.16  HD
ATOM     21 O    TYR Q   5      13.444 -16.846   9.736  1.00 22.91 LIG-0.27  OA
BRANCH 19 22
ATOM     22  CA  ALA Q   6      11.769 -18.999   9.422  1.00 23.91 LIG 0.18  C 
ATOM     23  CB  ALA Q   6      11.832 -20.379  10.041  1.00 25.24 LIG 0.04  C 
BRANCH 22 24
ATOM     24  C   ALA Q   6      10.671 -18.943   8.366  1.00 23.52 LIG 0.20  C 
ATOM     25 O    ALA Q   6       9.674 -18.252   8.497  1.00 23.09 LIG-0.65  OA
ATOM     26 OXT  ALA Q   6      10.785 -19.654   7.362  1.00 23.23 LIG-0.65  OA
ENDBRANCH 22 24
ENDBRANCH 19 22
ENDBRANCH 17 18
BRANCH 17 27
ATOM     27  CB  TYR Q   5      11.918 -14.619  11.025  1.00 25.21 LIG 0.07  C 
BRANCH 27 28
ATOM     28  CG  TYR Q   5      10.991 -14.655   9.820  1.00 26.66 LIG-0.06  A 
ATOM     29  CD1 TYR Q   5       9.733 -15.235   9.876  1.00 25.58 LIG 0.01  A 
ATOM     30  CE1 TYR Q   5       8.901 -15.270   8.742  1.00 26.73 LIG 0.04  A 
ATOM     31  CZ  TYR Q   5       9.332 -14.708   7.548  1.00 25.10 LIG 0.07  A 
ATOM     32  CE2 TYR Q   5      10.553 -14.101   7.480  1.00 24.98 LIG 0.04  A 
ATOM     33  CD2 TYR Q   5      11.386 -14.082   8.609  1.00 25.59 LIG 0.01  A 
BRANCH 31 34
ATOM     34 OH   TYR Q   5       8.528 -14.728   6.420  1.00 28.49 LIG-0.36  OA
ATOM     35 HH   TYR Q   5       9.006 -14.824   5.736  1.00 28.49 LIG 0.22  HD
ENDBRANCH 31 34
ENDBRANCH 27 28
ENDBRANCH 17 27
ENDBRANCH 15 17
ENDBRANCH 5 13
ENDBRANCH 3 5
BRANCH 1 36
ATOM     36  CA  GLU Q   3      15.403 -12.334  15.419  1.00 29.75 LIG 0.18  C 
BRANCH 36 37
ATOM     37  CB  GLU Q   3      16.816 -11.733  15.491  1.00 29.86 LIG 0.04  C 
BRANCH 37 38
ATOM     38  CG  GLU Q   3      16.985 -10.224  15.431  1.00 30.70 LIG 0.12  C 
BRANCH 38 39
ATOM     39  CD  GLU Q   3      15.903  -9.574  14.580  1.00 35.33 LIG 0.17  C 
ATOM     40 OE1  GLU Q   3      14.906  -9.133  15.200  1.00 35.34 LIG-0.65  OA
ATOM     41 OE2  GLU Q   3      16.039  -9.526  13.325  1.00 35.74 LIG-0.65  OA
ENDBRANCH 38 39
ENDBRANCH 37 38
ENDBRANCH 36 37
BRANCH 36 42
ATOM     42  N   GLU Q   3      14.911 -12.729  16.743  1.00 32.75 LIG-0.35  N 
ATOM     43  C   ASN Q   2      13.611 -12.933  16.973  1.00 36.04 LIG 0.24  C 
ATOM     44 O    ASN Q   2      12.749 -12.763  16.096  1.00 34.76 LIG-0.27  OA
ATOM     45 H    GLU Q   3      15.524 -12.813  17.340  1.00 32.75 LIG 0.16  HD
BRANCH 43 46
ATOM     46  CA  ASN Q   2      13.232 -13.445  18.379  1.00 38.34 LIG 0.18  C 
BRANCH 46 47
ATOM     47  CB  ASN Q   2      12.536 -12.354  19.208  1.00 38.76 LIG 0.14  C 
BRANCH 47 48
ATOM     48  CG  ASN Q   2      11.201 -12.820  19.803  1.00 42.06 LIG 0.22  C 
ATOM     49  ND2 ASN Q   2      10.561 -11.948  20.570  1.00 46.27 LIG-0.37  N 
ATOM     50 22HD ASN Q   2      10.903 -11.174  20.719  1.00 46.27 LIG 0.16  HD
ATOM     51 21HD ASN Q   2       9.803 -12.157  20.919  1.00 46.27 LIG 0.16  HD
ATOM     52 OD1  ASN Q   2      10.746 -13.941  19.563  1.00 44.45 LIG-0.27  OA
ENDBRANCH 47 48
ENDBRANCH 46 47
BRANCH 46 53
ATOM     53  N   ASN Q   2      14.346 -14.045  19.118  1.00 39.54 LIG-0.34  N 
ATOM     54  C   THR Q   1      15.047 -15.096  18.708  1.00 41.49 LIG 0.25  C 
ATOM     55 O    THR Q   1      14.921 -15.593  17.588  1.00 41.78 LIG-0.27  OA
ATOM     56 H    ASN Q   2      14.509 -13.645  19.861  1.00 39.54 LIG 0.16  HD
BRANCH 54 57
ATOM     57  CA  THR Q   1      16.088 -15.648  19.692  1.00 43.16 LIG 0.30  C 
BRANCH 57 58
ATOM     58  CB  THR Q   1      17.481 -14.996  19.501  1.00 43.89 LIG 0.15  C 
ATOM     59  CG2 THR Q   1      17.662 -14.561  18.059  1.00 45.05 LIG 0.04  C 
BRANCH 58 60
ATOM     60 OG1  THR Q   1      17.596 -13.783  20.269  1.00 46.29 LIG-0.39  OA
ATOM     61 HG1  THR Q   1      18.163 -13.277  19.911  1.00 46.29 LIG 0.21  HD
ENDBRANCH 58 60
ENDBRANCH 57 58
BRANCH 57 62
ATOM     62  N   THR Q   1      16.222 -17.139  19.569  1.00 43.28 LIG-0.06  N 
ATOM     63 H2   THR Q   1      15.795 -17.532  20.243  1.00 43.28 LIG 0.28  HD
ATOM     64 H1   THR Q   1      17.084 -17.362  19.594  1.00 43.28 LIG 0.28  HD
ATOM     65 H3   THR Q   1      15.869 -17.406  18.798  1.00 43.28 LIG 0.28  HD
ENDBRANCH 57 62
ENDBRANCH 54 57
ENDBRANCH 46 53
ENDBRANCH 43 46
ENDBRANCH 36 42
ENDBRANCH 1 36
TORSDOF 24
ENDMDL
MODEL 13
USER: ADFR SOLUTION from run 71
USER: SCORE 19.513959 LL:  -4.898 LR: -16.745 RR:   0.000 FEB:  -9.585
USER: RMSD 4.228191
USER: SEED 70
USER: STATUS no improvement in best in 20 clusters for 5 generations
USER: GENES 26
USER: genes 0 Translation |==|  0.48800 0.51357 0.56627
USER: genes 1 Rotation |==|  0.41946 0.53272 0.57060 0.98730
USER: genes 2 Torsion [C]-N--CA-[CB] |==|  0.36747
USER: genes 3 Torsion [N]-CA--CB-[CG] |==|  0.90508
USER: genes 4 Torsion [CA]-CB--CG-[CD1] |==|  0.70125
USER: genes 5 Torsion [N]-CA--C-[N] |==|  0.30790
USER: genes 6 Torsion [C]-N--CA-[C] |==|  0.77133
USER: genes 7 Torsion [N]-CA--C-[N] |==|  0.47710
USER: genes 8 Torsion [C]-N--CA-[CB] |==|  0.19395
USER: genes 9 Torsion [N]-CA--C-[O] |==|  0.97167
USER: genes 10 Torsion [N]-CA--CB-[CG] |==|  0.12886
USER: genes 11 Torsion [CA]-CB--CG-[CD2] |==|  0.21507
USER: genes 12 Torsion [CE1]-CZ--OH-[HH] |==|  0.63079
USER: genes 13 Torsion [N]-C--CA-[N] |==|  0.48889
USER: genes 14 Torsion [C]-CA--CB-[CG] |==|  0.27677
USER: genes 15 Torsion [CA]-CB--CG-[CD] |==|  0.30703
USER: genes 16 Torsion [CB]-CG--CD-[OE1] |==|  0.85783
USER: genes 17 Torsion [C]-CA--N-[C] |==|  0.65468
USER: genes 18 Torsion [N]-C--CA-[N] |==|  0.88463
USER: genes 19 Torsion [C]-CA--CB-[CG] |==|  0.53997
USER: genes 20 Torsion [CA]-CB--CG-[ND2] |==|  0.24277
USER: genes 21 Torsion [C]-CA--N-[C] |==|  0.85466
USER: genes 22 Torsion [N]-C--CA-[N] |==|  0.51606
USER: genes 23 Torsion [C]-CA--CB-[CG2] |==|  0.87753
USER: genes 24 Torsion [CA]-CB--OG1-[HG1] |==|  0.68875
USER: genes 25 Torsion [C]-CA--N-[H1] |==|  0.36791
ROOT
ATOM      1  C   GLU Q   3      14.672 -13.871  16.196  1.00 28.90 LIG 0.24  C 
ATOM      2 O    GLU Q   3      15.287 -13.244  15.325  1.00 28.99 LIG-0.27  OA
ATOM      3  N   PHE Q   4      14.436 -15.179  16.097  1.00 26.46 LIG-0.35  N 
ATOM      4 H    PHE Q   4      14.076 -15.637  16.731  1.00 26.46 LIG 0.16  HD
ENDROOT
BRANCH 3 5
ATOM      5  CA  PHE Q   4      14.755 -15.976  14.919  1.00 24.91 LIG 0.18  C 
BRANCH 5 6
ATOM      6  CB  PHE Q   4      15.490 -17.274  15.270  1.00 23.71 LIG 0.07  C 
BRANCH 6 7
ATOM      7  CG  PHE Q   4      16.420 -17.140  16.459  1.00 27.82 LIG-0.06  A 
ATOM      8  CD1 PHE Q   4      17.798 -17.131  16.294  1.00 28.27 LIG 0.01  A 
ATOM      9  CE1 PHE Q   4      18.650 -17.014  17.398  1.00 33.51 LIG 0.00  A 
ATOM     10  CZ  PHE Q   4      18.114 -16.863  18.665  1.00 29.48 LIG 0.00  A 
ATOM     11  CE2 PHE Q   4      16.762 -16.829  18.841  1.00 30.45 LIG 0.00  A 
ATOM     12  CD2 PHE Q   4      15.900 -16.995  17.736  1.00 30.03 LIG 0.01  A 
ENDBRANCH 6 7
ENDBRANCH 5 6
BRANCH 5 13
ATOM     13  C   PHE Q   4      13.473 -16.319  14.167  1.00 24.46 LIG 0.24  C 
ATOM     14 O    PHE Q   4      12.656 -17.125  14.617  1.00 21.72 LIG-0.27  OA
ATOM     15  N   TYR Q   5      13.355 -15.706  12.991  1.00 25.68 LIG-0.35  N 
ATOM     16 H    TYR Q   5      13.946 -15.152  12.703  1.00 25.68 LIG 0.16  HD
BRANCH 15 17
ATOM     17  CA  TYR Q   5      12.242 -15.883  12.056  1.00 24.76 LIG 0.18  C 
BRANCH 17 18
ATOM     18  C   TYR Q   5      12.531 -17.131  11.275  1.00 23.71 LIG 0.24  C 
ATOM     19  N   ALA Q   6      11.552 -17.557  10.488  1.00 23.95 LIG-0.34  N 
ATOM     20 H    ALA Q   6      10.780 -17.182  10.426  1.00 23.95 LIG 0.16  HD
ATOM     21 O    TYR Q   5      13.641 -17.673  11.317  1.00 22.91 LIG-0.27  OA
BRANCH 19 22
ATOM     22  CA  ALA Q   6      11.730 -18.728   9.651  1.00 23.91 LIG 0.18  C 
ATOM     23  CB  ALA Q   6      11.794 -19.972  10.512  1.00 25.24 LIG 0.04  C 
BRANCH 22 24
ATOM     24  C   ALA Q   6      10.674 -18.891   8.565  1.00 23.52 LIG 0.20  C 
ATOM     25 O    ALA Q   6       9.663 -18.208   8.528  1.00 23.09 LIG-0.65  OA
ATOM     26 OXT  ALA Q   6      10.837 -19.773   7.715  1.00 23.23 LIG-0.65  OA
ENDBRANCH 22 24
ENDBRANCH 19 22
ENDBRANCH 17 18
BRANCH 17 27
ATOM     27  CB  TYR Q   5      12.145 -14.665  11.106  1.00 25.21 LIG 0.07  C 
BRANCH 27 28
ATOM     28  CG  TYR Q   5      13.461 -14.210  10.496  1.00 26.66 LIG-0.06  A 
ATOM     29  CD1 TYR Q   5      14.150 -13.106  10.974  1.00 25.58 LIG 0.01  A 
ATOM     30  CE1 TYR Q   5      15.359 -12.696  10.381  1.00 26.73 LIG 0.04  A 
ATOM     31  CZ  TYR Q   5      15.884 -13.408   9.310  1.00 25.10 LIG 0.07  A 
ATOM     32  CE2 TYR Q   5      15.239 -14.518   8.847  1.00 24.98 LIG 0.04  A 
ATOM     33  CD2 TYR Q   5      14.026 -14.915   9.430  1.00 25.59 LIG 0.01  A 
BRANCH 31 34
ATOM     34 OH   TYR Q   5      17.073 -13.024   8.715  1.00 28.49 LIG-0.36  OA
ATOM     35 HH   TYR Q   5      16.981 -13.020   7.880  1.00 28.49 LIG 0.22  HD
ENDBRANCH 31 34
ENDBRANCH 27 28
ENDBRANCH 17 27
ENDBRANCH 15 17
ENDBRANCH 5 13
ENDBRANCH 3 5
BRANCH 1 36
ATOM     36  CA  GLU Q   3      14.207 -13.184  17.483  1.00 29.75 LIG 0.18  C 
BRANCH 36 37
ATOM     37  CB  GLU Q   3      12.688 -13.324  17.675  1.00 29.86 LIG 0.04  C 
BRANCH 37 38
ATOM     38  CG  GLU Q   3      12.153 -14.389  18.618  1.00 30.70 LIG 0.12  C 
BRANCH 38 39
ATOM     39  CD  GLU Q   3      11.538 -13.771  19.866  1.00 35.33 LIG 0.17  C 
ATOM     40 OE1  GLU Q   3      12.251 -12.938  20.476  1.00 35.34 LIG-0.65  OA
ATOM     41 OE2  GLU Q   3      10.383 -14.123  20.236  1.00 35.74 LIG-0.65  OA
ENDBRANCH 38 39
ENDBRANCH 37 38
ENDBRANCH 36 37
BRANCH 36 42
ATOM     42  N   GLU Q   3      14.626 -11.779  17.468  1.00 32.75 LIG-0.35  N 
ATOM     43  C   ASN Q   2      15.362 -11.259  18.455  1.00 36.04 LIG 0.24  C 
ATOM     44 O    ASN Q   2      15.696 -11.922  19.451  1.00 34.76 LIG-0.27  OA
ATOM     45 H    GLU Q   3      14.360 -11.335  16.782  1.00 32.75 LIG 0.16  HD
BRANCH 43 46
ATOM     46  CA  ASN Q   2      15.828  -9.799  18.272  1.00 38.34 LIG 0.18  C 
BRANCH 46 47
ATOM     47  CB  ASN Q   2      14.759  -8.803  18.751  1.00 38.76 LIG 0.14  C 
BRANCH 47 48
ATOM     48  CG  ASN Q   2      15.025  -7.370  18.272  1.00 42.06 LIG 0.22  C 
ATOM     49  ND2 ASN Q   2      14.536  -7.046  17.082  1.00 46.27 LIG-0.37  N 
ATOM     50 22HD ASN Q   2      14.107  -7.630  16.620  1.00 46.27 LIG 0.16  HD
ATOM     51 21HD ASN Q   2      14.648  -6.251  16.773  1.00 46.27 LIG 0.16  HD
ATOM     52 OD1  ASN Q   2      15.647  -6.563  18.967  1.00 44.45 LIG-0.27  OA
ENDBRANCH 47 48
ENDBRANCH 46 47
BRANCH 46 53
ATOM     53  N   ASN Q   2      16.281  -9.481  16.915  1.00 39.54 LIG-0.34  N 
ATOM     54  C   THR Q   1      17.191 -10.172  16.240  1.00 41.49 LIG 0.25  C 
ATOM     55 O    THR Q   1      17.651 -11.244  16.635  1.00 41.78 LIG-0.27  OA
ATOM     56 H    ASN Q   2      15.893  -8.786  16.587  1.00 39.54 LIG 0.16  HD
BRANCH 54 57
ATOM     57  CA  THR Q   1      17.619  -9.595  14.883  1.00 43.16 LIG 0.30  C 
BRANCH 57 58
ATOM     58  CB  THR Q   1      16.406  -9.271  13.974  1.00 43.89 LIG 0.15  C 
ATOM     59  CG2 THR Q   1      15.399 -10.404  14.019  1.00 45.05 LIG 0.04  C 
BRANCH 58 60
ATOM     60 OG1  THR Q   1      15.687  -8.120  14.459  1.00 46.29 LIG-0.39  OA
ATOM     61 HG1  THR Q   1      14.931  -8.359  14.738  1.00 46.29 LIG 0.21  HD
ENDBRANCH 58 60
ENDBRANCH 57 58
BRANCH 57 62
ATOM     62  N   THR Q   1      18.542 -10.530  14.156  1.00 43.28 LIG-0.06  N 
ATOM     63 H2   THR Q   1      19.368 -10.200  14.167  1.00 43.28 LIG 0.28  HD
ATOM     64 H1   THR Q   1      18.270 -10.619  13.313  1.00 43.28 LIG 0.28  HD
ATOM     65 H3   THR Q   1      18.534 -11.325  14.555  1.00 43.28 LIG 0.28  HD
ENDBRANCH 57 62
ENDBRANCH 54 57
ENDBRANCH 46 53
ENDBRANCH 43 46
ENDBRANCH 36 42
ENDBRANCH 1 36
TORSDOF 24
ENDMDL
MODEL 14
USER: ADFR SOLUTION from run 152
USER: SCORE 18.989411 LL:  -4.558 LR: -16.728 RR:   0.000 FEB:  -9.569
USER: RMSD 3.742074
USER: SEED 151
USER: STATUS no improvement in best in 10 clusters for 5 generations
USER: GENES 26
USER: genes 0 Translation |==|  0.49953 0.50543 0.56682
USER: genes 1 Rotation |==|  0.42225 0.51538 0.50751 0.99362
USER: genes 2 Torsion [C]-N--CA-[CB] |==|  0.36857
USER: genes 3 Torsion [N]-CA--CB-[CG] |==|  0.78466
USER: genes 4 Torsion [CA]-CB--CG-[CD1] |==|  0.71206
USER: genes 5 Torsion [N]-CA--C-[N] |==|  0.36039
USER: genes 6 Torsion [C]-N--CA-[C] |==|  0.71788
USER: genes 7 Torsion [N]-CA--C-[N] |==|  0.40776
USER: genes 8 Torsion [C]-N--CA-[CB] |==|  0.24542
USER: genes 9 Torsion [N]-CA--C-[O] |==|  0.95045
USER: genes 10 Torsion [N]-CA--CB-[CG] |==|  0.53835
USER: genes 11 Torsion [CA]-CB--CG-[CD2] |==|  0.54643
USER: genes 12 Torsion [CE1]-CZ--OH-[HH] |==|  0.37566
USER: genes 13 Torsion [N]-C--CA-[N] |==|  0.51983
USER: genes 14 Torsion [C]-CA--CB-[CG] |==|  0.25869
USER: genes 15 Torsion [CA]-CB--CG-[CD] |==|  0.32351
USER: genes 16 Torsion [CB]-CG--CD-[OE1] |==|  0.87792
USER: genes 17 Torsion [C]-CA--N-[C] |==|  0.67386
USER: genes 18 Torsion [N]-C--CA-[N] |==|  0.89683
USER: genes 19 Torsion [C]-CA--CB-[CG] |==|  0.61079
USER: genes 20 Torsion [CA]-CB--CG-[ND2] |==|  0.34694
USER: genes 21 Torsion [C]-CA--N-[C] |==|  0.83308
USER: genes 22 Torsion [N]-C--CA-[N] |==|  0.52215
USER: genes 23 Torsion [C]-CA--CB-[CG2] |==|  0.85719
USER: genes 24 Torsion [CA]-CB--OG1-[HG1] |==|  0.72987
USER: genes 25 Torsion [C]-CA--N-[H1] |==|  0.44247
ROOT
ATOM      1  C   GLU Q   3      14.897 -14.036  16.210  1.00 28.90 LIG 0.24  C 
ATOM      2 O    GLU Q   3      15.733 -13.577  15.423  1.00 28.99 LIG-0.27  OA
ATOM      3  N   PHE Q   4      14.370 -15.251  16.059  1.00 26.46 LIG-0.35  N 
ATOM      4 H    PHE Q   4      13.846 -15.607  16.641  1.00 26.46 LIG 0.16  HD
ENDROOT
BRANCH 3 5
ATOM      5  CA  PHE Q   4      14.617 -16.106  14.906  1.00 24.91 LIG 0.18  C 
BRANCH 5 6
ATOM      6  CB  PHE Q   4      14.972 -17.543  15.305  1.00 23.71 LIG 0.07  C 
BRANCH 6 7
ATOM      7  CG  PHE Q   4      16.400 -17.701  15.787  1.00 27.82 LIG-0.06  A 
ATOM      8  CD1 PHE Q   4      17.373 -18.268  14.973  1.00 28.27 LIG 0.01  A 
ATOM      9  CE1 PHE Q   4      18.687 -18.416  15.429  1.00 33.51 LIG 0.00  A 
ATOM     10  CZ  PHE Q   4      19.034 -17.957  16.687  1.00 29.48 LIG 0.00  A 
ATOM     11  CE2 PHE Q   4      18.100 -17.360  17.483  1.00 30.45 LIG 0.00  A 
ATOM     12  CD2 PHE Q   4      16.763 -17.251  17.047  1.00 30.03 LIG 0.01  A 
ENDBRANCH 6 7
ENDBRANCH 5 6
BRANCH 5 13
ATOM     13  C   PHE Q   4      13.384 -16.130  14.009  1.00 24.46 LIG 0.24  C 
ATOM     14 O    PHE Q   4      12.265 -16.397  14.456  1.00 21.72 LIG-0.27  OA
ATOM     15  N   TYR Q   5      13.641 -15.884  12.726  1.00 25.68 LIG-0.35  N 
ATOM     16 H    TYR Q   5      14.434 -15.707  12.445  1.00 25.68 LIG 0.16  HD
BRANCH 15 17
ATOM     17  CA  TYR Q   5      12.646 -15.880  11.652  1.00 24.76 LIG 0.18  C 
BRANCH 17 18
ATOM     18  C   TYR Q   5      12.789 -17.186  10.928  1.00 23.71 LIG 0.24  C 
ATOM     19  N   ALA Q   6      11.669 -17.695  10.434  1.00 23.95 LIG-0.34  N 
ATOM     20 H    ALA Q   6      10.891 -17.340  10.526  1.00 23.95 LIG 0.16  HD
ATOM     21 O    TYR Q   5      13.897 -17.704  10.751  1.00 22.91 LIG-0.27  OA
BRANCH 19 22
ATOM     22  CA  ALA Q   6      11.688 -18.932   9.676  1.00 23.91 LIG 0.18  C 
ATOM     23  CB  ALA Q   6      11.541 -20.112  10.612  1.00 25.24 LIG 0.04  C 
BRANCH 22 24
ATOM     24  C   ALA Q   6      10.649 -19.006   8.564  1.00 23.52 LIG 0.20  C 
ATOM     25 O    ALA Q   6       9.678 -18.267   8.527  1.00 23.09 LIG-0.65  OA
ATOM     26 OXT  ALA Q   6      10.781 -19.871   7.693  1.00 23.23 LIG-0.65  OA
ENDBRANCH 22 24
ENDBRANCH 19 22
ENDBRANCH 17 18
BRANCH 17 27
ATOM     27  CB  TYR Q   5      12.908 -14.700  10.687  1.00 25.21 LIG 0.07  C 
BRANCH 27 28
ATOM     28  CG  TYR Q   5      11.774 -14.382   9.725  1.00 26.66 LIG-0.06  A 
ATOM     29  CD1 TYR Q   5      10.482 -14.841   9.935  1.00 25.58 LIG 0.01  A 
ATOM     30  CE1 TYR Q   5       9.453 -14.547   9.021  1.00 26.73 LIG 0.04  A 
ATOM     31  CZ  TYR Q   5       9.721 -13.776   7.898  1.00 25.10 LIG 0.07  A 
ATOM     32  CE2 TYR Q   5      10.979 -13.286   7.691  1.00 24.98 LIG 0.04  A 
ATOM     33  CD2 TYR Q   5      12.006 -13.595   8.595  1.00 25.59 LIG 0.01  A 
BRANCH 31 34
ATOM     34 OH   TYR Q   5       8.723 -13.472   6.988  1.00 28.49 LIG-0.36  OA
ATOM     35 HH   TYR Q   5       8.769 -12.659   6.782  1.00 28.49 LIG 0.22  HD
ENDBRANCH 31 34
ENDBRANCH 27 28
ENDBRANCH 17 27
ENDBRANCH 15 17
ENDBRANCH 5 13
ENDBRANCH 3 5
BRANCH 1 36
ATOM     36  CA  GLU Q   3      14.470 -13.251  17.455  1.00 29.75 LIG 0.18  C 
BRANCH 36 37
ATOM     37  CB  GLU Q   3      12.943 -13.262  17.627  1.00 29.86 LIG 0.04  C 
BRANCH 37 38
ATOM     38  CG  GLU Q   3      12.300 -14.331  18.497  1.00 30.70 LIG 0.12  C 
BRANCH 38 39
ATOM     39  CD  GLU Q   3      11.604 -13.722  19.705  1.00 35.33 LIG 0.17  C 
ATOM     40 OE1  GLU Q   3      12.236 -12.823  20.310  1.00 35.34 LIG-0.65  OA
ATOM     41 OE2  GLU Q   3      10.465 -14.145  20.051  1.00 35.74 LIG-0.65  OA
ENDBRANCH 38 39
ENDBRANCH 37 38
ENDBRANCH 36 37
BRANCH 36 42
ATOM     42  N   GLU Q   3      15.001 -11.887  17.380  1.00 32.75 LIG-0.35  N 
ATOM     43  C   ASN Q   2      15.871 -11.424  18.282  1.00 36.04 LIG 0.24  C 
ATOM     44 O    ASN Q   2      16.246 -12.107  19.249  1.00 34.76 LIG-0.27  OA
ATOM     45 H    GLU Q   3      14.705 -11.426  16.717  1.00 32.75 LIG 0.16  HD
BRANCH 43 46
ATOM     46  CA  ASN Q   2      16.434 -10.009  18.034  1.00 38.34 LIG 0.18  C 
BRANCH 46 47
ATOM     47  CB  ASN Q   2      15.560  -8.931  18.696  1.00 38.76 LIG 0.14  C 
BRANCH 47 48
ATOM     48  CG  ASN Q   2      15.396  -7.680  17.823  1.00 42.06 LIG 0.22  C 
ATOM     49  ND2 ASN Q   2      14.152  -7.305  17.557  1.00 46.27 LIG-0.37  N 
ATOM     50 22HD ASN Q   2      13.491  -7.763  17.860  1.00 46.27 LIG 0.16  HD
ATOM     51 21HD ASN Q   2      14.007  -6.604  17.081  1.00 46.27 LIG 0.16  HD
ATOM     52 OD1  ASN Q   2      16.374  -7.052  17.408  1.00 44.45 LIG-0.27  OA
ENDBRANCH 47 48
ENDBRANCH 46 47
BRANCH 46 53
ATOM     53  N   ASN Q   2      16.680  -9.701  16.623  1.00 39.54 LIG-0.34  N 
ATOM     54  C   THR Q   1      17.511 -10.374  15.835  1.00 41.49 LIG 0.25  C 
ATOM     55 O    THR Q   1      18.060 -11.422  16.177  1.00 41.78 LIG-0.27  OA
ATOM     56 H    ASN Q   2      16.225  -9.026  16.343  1.00 39.54 LIG 0.16  HD
BRANCH 54 57
ATOM     57  CA  THR Q   1      17.722  -9.808  14.424  1.00 43.16 LIG 0.30  C 
BRANCH 57 58
ATOM     58  CB  THR Q   1      16.383  -9.491  13.711  1.00 43.89 LIG 0.15  C 
ATOM     59  CG2 THR Q   1      15.462 -10.694  13.768  1.00 45.05 LIG 0.04  C 
BRANCH 58 60
ATOM     60 OG1  THR Q   1      15.665  -8.447  14.397  1.00 46.29 LIG-0.39  OA
ATOM     61 HG1  THR Q   1      15.089  -8.788  14.905  1.00 46.29 LIG 0.21  HD
ENDBRANCH 58 60
ENDBRANCH 57 58
BRANCH 57 62
ATOM     62  N   THR Q   1      18.522 -10.749  13.570  1.00 43.28 LIG-0.06  N 
ATOM     63 H2   THR Q   1      19.388 -10.656  13.756  1.00 43.28 LIG 0.28  HD
ATOM     64 H1   THR Q   1      18.382 -10.562  12.711  1.00 43.28 LIG 0.28  HD
ATOM     65 H3   THR Q   1      18.272 -11.586  13.737  1.00 43.28 LIG 0.28  HD
ENDBRANCH 57 62
ENDBRANCH 54 57
ENDBRANCH 46 53
ENDBRANCH 43 46
ENDBRANCH 36 42
ENDBRANCH 1 36
TORSDOF 24
ENDMDL
MODEL 15
USER: ADFR SOLUTION from run 110
USER: SCORE 22.329728 LL:  -6.152 LR: -16.598 RR:   0.000 FEB:  -9.439
USER: RMSD 3.830222
USER: SEED 109
USER: STATUS no improvement in best in 5 clusters for 5 generations
USER: GENES 26
USER: genes 0 Translation |==|  0.50510 0.54522 0.50815
USER: genes 1 Rotation |==|  0.31880 0.25893 0.27097 0.82650
USER: genes 2 Torsion [C]-N--CA-[CB] |==|  0.16381
USER: genes 3 Torsion [N]-CA--CB-[CG] |==|  0.68286
USER: genes 4 Torsion [CA]-CB--CG-[CD1] |==|  0.90054
USER: genes 5 Torsion [N]-CA--C-[N] |==|  0.12008
USER: genes 6 Torsion [C]-N--CA-[C] |==|  0.75655
USER: genes 7 Torsion [N]-CA--C-[N] |==|  0.33245
USER: genes 8 Torsion [C]-N--CA-[CB] |==|  0.29703
USER: genes 9 Torsion [N]-CA--C-[O] |==|  0.49539
USER: genes 10 Torsion [N]-CA--CB-[CG] |==|  0.45275
USER: genes 11 Torsion [CA]-CB--CG-[CD2] |==|  0.60546
USER: genes 12 Torsion [CE1]-CZ--OH-[HH] |==|  0.69792
USER: genes 13 Torsion [N]-C--CA-[N] |==|  0.38641
USER: genes 14 Torsion [C]-CA--CB-[CG] |==|  0.68441
USER: genes 15 Torsion [CA]-CB--CG-[CD] |==|  0.79679
USER: genes 16 Torsion [CB]-CG--CD-[OE1] |==|  0.03084
USER: genes 17 Torsion [C]-CA--N-[C] |==|  0.84596
USER: genes 18 Torsion [N]-C--CA-[N] |==|  0.10557
USER: genes 19 Torsion [C]-CA--CB-[CG] |==|  0.49261
USER: genes 20 Torsion [CA]-CB--CG-[ND2] |==|  0.24946
USER: genes 21 Torsion [C]-CA--N-[C] |==|  0.12949
USER: genes 22 Torsion [N]-C--CA-[N] |==|  0.37064
USER: genes 23 Torsion [C]-CA--CB-[CG2] |==|  0.74570
USER: genes 24 Torsion [CA]-CB--OG1-[HG1] |==|  0.67920
USER: genes 25 Torsion [C]-CA--N-[H1] |==|  0.04210
ROOT
ATOM      1  C   GLU Q   3      15.005 -13.230  14.670  1.00 28.90 LIG 0.24  C 
ATOM      2 O    GLU Q   3      15.886 -13.759  15.358  1.00 28.99 LIG-0.27  OA
ATOM      3  N   PHE Q   4      14.074 -13.942  14.036  1.00 26.46 LIG-0.35  N 
ATOM      4 H    PHE Q   4      13.415 -13.580  13.618  1.00 26.46 LIG 0.16  HD
ENDROOT
BRANCH 3 5
ATOM      5  CA  PHE Q   4      14.064 -15.398  13.978  1.00 24.91 LIG 0.18  C 
BRANCH 5 6
ATOM      6  CB  PHE Q   4      14.008 -16.041  15.368  1.00 23.71 LIG 0.07  C 
BRANCH 6 7
ATOM      7  CG  PHE Q   4      15.257 -16.821  15.725  1.00 27.82 LIG-0.06  A 
ATOM      8  CD1 PHE Q   4      15.953 -17.540  14.762  1.00 28.27 LIG 0.01  A 
ATOM      9  CE1 PHE Q   4      17.101 -18.263  15.102  1.00 33.51 LIG 0.00  A 
ATOM     10  CZ  PHE Q   4      17.574 -18.230  16.401  1.00 29.48 LIG 0.00  A 
ATOM     11  CE2 PHE Q   4      16.926 -17.495  17.351  1.00 30.45 LIG 0.00  A 
ATOM     12  CD2 PHE Q   4      15.741 -16.803  17.024  1.00 30.03 LIG 0.01  A 
ENDBRANCH 6 7
ENDBRANCH 5 6
BRANCH 5 13
ATOM     13  C   PHE Q   4      12.865 -15.872  13.163  1.00 24.46 LIG 0.24  C 
ATOM     14 O    PHE Q   4      12.191 -16.844  13.511  1.00 21.72 LIG-0.27  OA
ATOM     15  N   TYR Q   5      12.657 -15.174  12.048  1.00 25.68 LIG-0.35  N 
ATOM     16 H    TYR Q   5      13.150 -14.504  11.831  1.00 25.68 LIG 0.16  HD
BRANCH 15 17
ATOM     17  CA  TYR Q   5      11.599 -15.439  11.072  1.00 24.76 LIG 0.18  C 
BRANCH 17 18
ATOM     18  C   TYR Q   5      12.150 -16.443  10.102  1.00 23.71 LIG 0.24  C 
ATOM     19  N   ALA Q   6      11.494 -17.592  10.028  1.00 23.95 LIG-0.34  N 
ATOM     20 H    ALA Q   6      10.810 -17.793  10.510  1.00 23.95 LIG 0.16  HD
ATOM     21 O    TYR Q   5      13.111 -16.172   9.374  1.00 22.91 LIG-0.27  OA
BRANCH 19 22
ATOM     22  CA  ALA Q   6      11.906 -18.623   9.095  1.00 23.91 LIG 0.18  C 
ATOM     23  CB  ALA Q   6      12.565 -19.762   9.843  1.00 25.24 LIG 0.04  C 
BRANCH 22 24
ATOM     24  C   ALA Q   6      10.787 -19.152   8.206  1.00 23.52 LIG 0.20  C 
ATOM     25 O    ALA Q   6      10.979 -20.000   7.349  1.00 23.09 LIG-0.65  OA
ATOM     26 OXT  ALA Q   6       9.656 -18.674   8.338  1.00 23.23 LIG-0.65  OA
ENDBRANCH 22 24
ENDBRANCH 19 22
ENDBRANCH 17 18
BRANCH 17 27
ATOM     27  CB  TYR Q   5      11.215 -14.135  10.334  1.00 25.21 LIG 0.07  C 
BRANCH 27 28
ATOM     28  CG  TYR Q   5      10.439 -14.325   9.040  1.00 26.66 LIG-0.06  A 
ATOM     29  CD1 TYR Q   5       9.463 -15.300   8.904  1.00 25.58 LIG 0.01  A 
ATOM     30  CE1 TYR Q   5       8.770 -15.466   7.690  1.00 26.73 LIG 0.04  A 
ATOM     31  CZ  TYR Q   5       9.052 -14.638   6.612  1.00 25.10 LIG 0.07  A 
ATOM     32  CE2 TYR Q   5       9.985 -13.649   6.735  1.00 24.98 LIG 0.04  A 
ATOM     33  CD2 TYR Q   5      10.685 -13.497   7.942  1.00 25.59 LIG 0.01  A 
BRANCH 31 34
ATOM     34 OH   TYR Q   5       8.380 -14.781   5.409  1.00 28.49 LIG-0.36  OA
ATOM     35 HH   TYR Q   5       8.900 -15.101   4.833  1.00 28.49 LIG 0.22  HD
ENDBRANCH 31 34
ENDBRANCH 27 28
ENDBRANCH 17 27
ENDBRANCH 15 17
ENDBRANCH 5 13
ENDBRANCH 3 5
BRANCH 1 36
ATOM     36  CA  GLU Q   3      14.894 -11.706  14.567  1.00 29.75 LIG 0.18  C 
BRANCH 36 37
ATOM     37  CB  GLU Q   3      15.800 -11.152  13.456  1.00 29.86 LIG 0.04  C 
BRANCH 37 38
ATOM     38  CG  GLU Q   3      16.982 -10.271  13.829  1.00 30.70 LIG 0.12  C 
BRANCH 38 39
ATOM     39  CD  GLU Q   3      16.528  -8.886  14.267  1.00 35.33 LIG 0.17  C 
ATOM     40 OE1  GLU Q   3      15.297  -8.746  14.464  1.00 35.34 LIG-0.65  OA
ATOM     41 OE2  GLU Q   3      17.378  -7.959  14.391  1.00 35.74 LIG-0.65  OA
ENDBRANCH 38 39
ENDBRANCH 37 38
ENDBRANCH 36 37
BRANCH 36 42
ATOM     42  N   GLU Q   3      15.198 -11.103  15.869  1.00 32.75 LIG-0.35  N 
ATOM     43  C   ASN Q   2      14.534 -11.453  16.973  1.00 36.04 LIG 0.24  C 
ATOM     44 O    ASN Q   2      13.602 -12.274  16.953  1.00 34.76 LIG-0.27  OA
ATOM     45 H    GLU Q   3      15.828 -10.518  15.851  1.00 32.75 LIG 0.16  HD
BRANCH 43 46
ATOM     46  CA  ASN Q   2      15.017 -10.824  18.297  1.00 38.34 LIG 0.18  C 
BRANCH 46 47
ATOM     47  CB  ASN Q   2      13.979 -11.000  19.416  1.00 38.76 LIG 0.14  C 
BRANCH 47 48
ATOM     48  CG  ASN Q   2      14.457 -10.443  20.764  1.00 42.06 LIG 0.22  C 
ATOM     49  ND2 ASN Q   2      14.174  -9.171  21.010  1.00 46.27 LIG-0.37  N 
ATOM     50 22HD ASN Q   2      13.754  -8.702  20.423  1.00 46.27 LIG 0.16  HD
ATOM     51 21HD ASN Q   2      14.411  -8.813  21.756  1.00 46.27 LIG 0.16  HD
ATOM     52 OD1  ASN Q   2      15.058 -11.150  21.576  1.00 44.45 LIG-0.27  OA
ENDBRANCH 47 48
ENDBRANCH 46 47
BRANCH 46 53
ATOM     53  N   ASN Q   2      15.438  -9.426  18.177  1.00 39.54 LIG-0.34  N 
ATOM     54  C   THR Q   1      14.754  -8.482  17.541  1.00 41.49 LIG 0.25  C 
ATOM     55 O    THR Q   1      13.616  -8.656  17.102  1.00 41.78 LIG-0.27  OA
ATOM     56 H    ASN Q   2      16.189  -9.267  18.566  1.00 39.54 LIG 0.16  HD
BRANCH 54 57
ATOM     57  CA  THR Q   1      15.433  -7.111  17.421  1.00 43.16 LIG 0.30  C 
BRANCH 57 58
ATOM     58  CB  THR Q   1      14.841  -6.073  18.408  1.00 43.89 LIG 0.15  C 
ATOM     59  CG2 THR Q   1      13.710  -5.308  17.749  1.00 45.05 LIG 0.04  C 
BRANCH 58 60
ATOM     60 OG1  THR Q   1      14.234  -6.723  19.541  1.00 46.29 LIG-0.39  OA
ATOM     61 HG1  THR Q   1      13.407  -6.570  19.543  1.00 46.29 LIG 0.21  HD
ENDBRANCH 58 60
ENDBRANCH 57 58
BRANCH 57 62
ATOM     62  N   THR Q   1      15.333  -6.570  16.023  1.00 43.28 LIG-0.06  N 
ATOM     63 H2   THR Q   1      15.101  -5.711  16.052  1.00 43.28 LIG 0.28  HD
ATOM     64 H1   THR Q   1      14.718  -7.028  15.571  1.00 43.28 LIG 0.28  HD
ATOM     65 H3   THR Q   1      16.121  -6.651  15.617  1.00 43.28 LIG 0.28  HD
ENDBRANCH 57 62
ENDBRANCH 54 57
ENDBRANCH 46 53
ENDBRANCH 43 46
ENDBRANCH 36 42
ENDBRANCH 1 36
TORSDOF 24
ENDMDL
MODEL 16
USER: ADFR SOLUTION from run 105
USER: SCORE 19.868680 LL:  -5.558 LR: -16.545 RR:   0.000 FEB:  -9.386
USER: RMSD 3.910279
USER: SEED 104
USER: STATUS no improvement in best in 12 clusters for 5 generations
USER: GENES 26
USER: genes 0 Translation |==|  0.45889 0.48982 0.58043
USER: genes 1 Rotation |==|  0.49731 0.46296 0.50742 0.99856
USER: genes 2 Torsion [C]-N--CA-[CB] |==|  0.29401
USER: genes 3 Torsion [N]-CA--CB-[CG] |==|  0.77400
USER: genes 4 Torsion [CA]-CB--CG-[CD1] |==|  0.94387
USER: genes 5 Torsion [N]-CA--C-[N] |==|  0.33198
USER: genes 6 Torsion [C]-N--CA-[C] |==|  0.79079
USER: genes 7 Torsion [N]-CA--C-[N] |==|  0.41910
USER: genes 8 Torsion [C]-N--CA-[CB] |==|  0.24578
USER: genes 9 Torsion [N]-CA--C-[O] |==|  0.46068
USER: genes 10 Torsion [N]-CA--CB-[CG] |==|  0.13287
USER: genes 11 Torsion [CA]-CB--CG-[CD2] |==|  0.20837
USER: genes 12 Torsion [CE1]-CZ--OH-[HH] |==|  0.64359
USER: genes 13 Torsion [N]-C--CA-[N] |==|  0.36129
USER: genes 14 Torsion [C]-CA--CB-[CG] |==|  0.43411
USER: genes 15 Torsion [CA]-CB--CG-[CD] |==|  0.04441
USER: genes 16 Torsion [CB]-CG--CD-[OE1] |==|  0.71175
USER: genes 17 Torsion [C]-CA--N-[C] |==|  0.84134
USER: genes 18 Torsion [N]-C--CA-[N] |==|  0.50451
USER: genes 19 Torsion [C]-CA--CB-[CG] |==|  0.24914
USER: genes 20 Torsion [CA]-CB--CG-[ND2] |==|  0.63875
USER: genes 21 Torsion [C]-CA--N-[C] |==|  0.18054
USER: genes 22 Torsion [N]-C--CA-[N] |==|  0.15295
USER: genes 23 Torsion [C]-CA--CB-[CG2] |==|  0.25999
USER: genes 24 Torsion [CA]-CB--OG1-[HG1] |==|  0.53127
USER: genes 25 Torsion [C]-CA--N-[H1] |==|  0.62602
ROOT
ATOM      1  C   GLU Q   3      14.104 -14.352  16.567  1.00 28.90 LIG 0.24  C 
ATOM      2 O    GLU Q   3      15.053 -13.685  16.138  1.00 28.99 LIG-0.27  OA
ATOM      3  N   PHE Q   4      13.683 -15.462  15.961  1.00 26.46 LIG-0.35  N 
ATOM      4 H    PHE Q   4      13.074 -15.971  16.293  1.00 26.46 LIG 0.16  HD
ENDROOT
BRANCH 3 5
ATOM      5  CA  PHE Q   4      14.197 -15.934  14.682  1.00 24.91 LIG 0.18  C 
BRANCH 5 6
ATOM      6  CB  PHE Q   4      15.122 -17.146  14.832  1.00 23.71 LIG 0.07  C 
BRANCH 6 7
ATOM      7  CG  PHE Q   4      16.539 -16.781  15.223  1.00 27.82 LIG-0.06  A 
ATOM      8  CD1 PHE Q   4      17.032 -15.499  15.017  1.00 28.27 LIG 0.01  A 
ATOM      9  CE1 PHE Q   4      18.345 -15.172  15.374  1.00 33.51 LIG 0.00  A 
ATOM     10  CZ  PHE Q   4      19.149 -16.122  15.978  1.00 29.48 LIG 0.00  A 
ATOM     11  CE2 PHE Q   4      18.667 -17.375  16.226  1.00 30.45 LIG 0.00  A 
ATOM     12  CD2 PHE Q   4      17.360 -17.723  15.824  1.00 30.03 LIG 0.01  A 
ENDBRANCH 6 7
ENDBRANCH 5 6
BRANCH 5 13
ATOM     13  C   PHE Q   4      13.035 -16.306  13.766  1.00 24.46 LIG 0.24  C 
ATOM     14 O    PHE Q   4      12.248 -17.211  14.056  1.00 21.72 LIG-0.27  OA
ATOM     15  N   TYR Q   5      12.988 -15.602  12.637  1.00 25.68 LIG-0.35  N 
ATOM     16 H    TYR Q   5      13.555 -14.981  12.462  1.00 25.68 LIG 0.16  HD
BRANCH 15 17
ATOM     17  CA  TYR Q   5      11.998 -15.781  11.573  1.00 24.76 LIG 0.18  C 
BRANCH 17 18
ATOM     18  C   TYR Q   5      12.379 -17.031  10.837  1.00 23.71 LIG 0.24  C 
ATOM     19  N   ALA Q   6      11.378 -17.696  10.276  1.00 23.95 LIG-0.34  N 
ATOM     20 H    ALA Q   6      10.551 -17.469  10.334  1.00 23.95 LIG 0.16  HD
ATOM     21 O    TYR Q   5      13.562 -17.366  10.708  1.00 22.91 LIG-0.27  OA
BRANCH 19 22
ATOM     22  CA  ALA Q   6      11.628 -18.897   9.501  1.00 23.91 LIG 0.18  C 
ATOM     23  CB  ALA Q   6      11.618 -20.108  10.409  1.00 25.24 LIG 0.04  C 
BRANCH 22 24
ATOM     24  C   ALA Q   6      10.670 -19.103   8.334  1.00 23.52 LIG 0.20  C 
ATOM     25 O    ALA Q   6      10.889 -19.909   7.444  1.00 23.09 LIG-0.65  OA
ATOM     26 OXT  ALA Q   6       9.656 -18.400   8.275  1.00 23.23 LIG-0.65  OA
ENDBRANCH 22 24
ENDBRANCH 19 22
ENDBRANCH 17 18
BRANCH 17 27
ATOM     27  CB  TYR Q   5      12.020 -14.566  10.615  1.00 25.21 LIG 0.07  C 
BRANCH 27 28
ATOM     28  CG  TYR Q   5      13.400 -14.135  10.143  1.00 26.66 LIG-0.06  A 
ATOM     29  CD1 TYR Q   5      14.034 -13.012  10.652  1.00 25.58 LIG 0.01  A 
ATOM     30  CE1 TYR Q   5      15.305 -12.626  10.186  1.00 26.73 LIG 0.04  A 
ATOM     31  CZ  TYR Q   5      15.947 -13.381   9.213  1.00 25.10 LIG 0.07  A 
ATOM     32  CE2 TYR Q   5      15.355 -14.510   8.725  1.00 24.98 LIG 0.04  A 
ATOM     33  CD2 TYR Q   5      14.081 -14.883   9.179  1.00 25.59 LIG 0.01  A 
BRANCH 31 34
ATOM     34 OH   TYR Q   5      17.199 -13.021   8.744  1.00 28.49 LIG-0.36  OA
ATOM     35 HH   TYR Q   5      17.186 -12.990   7.905  1.00 28.49 LIG 0.22  HD
ENDBRANCH 31 34
ENDBRANCH 27 28
ENDBRANCH 17 27
ENDBRANCH 15 17
ENDBRANCH 5 13
ENDBRANCH 3 5
BRANCH 1 36
ATOM     36  CA  GLU Q   3      13.401 -13.973  17.875  1.00 29.75 LIG 0.18  C 
BRANCH 36 37
ATOM     37  CB  GLU Q   3      12.449 -12.783  17.673  1.00 29.86 LIG 0.04  C 
BRANCH 37 38
ATOM     38  CG  GLU Q   3      11.287 -12.589  18.634  1.00 30.70 LIG 0.12  C 
BRANCH 38 39
ATOM     39  CD  GLU Q   3      11.470 -13.410  19.903  1.00 35.33 LIG 0.17  C 
ATOM     40 OE1  GLU Q   3      10.778 -14.452  19.990  1.00 35.34 LIG-0.65  OA
ATOM     41 OE2  GLU Q   3      12.271 -13.012  20.796  1.00 35.74 LIG-0.65  OA
ENDBRANCH 38 39
ENDBRANCH 37 38
ENDBRANCH 36 37
BRANCH 36 42
ATOM     42  N   GLU Q   3      14.403 -13.701  18.910  1.00 32.75 LIG-0.35  N 
ATOM     43  C   ASN Q   2      15.315 -14.612  19.256  1.00 36.04 LIG 0.24  C 
ATOM     44 O    ASN Q   2      15.341 -15.747  18.753  1.00 34.76 LIG-0.27  OA
ATOM     45 H    GLU Q   3      14.347 -12.918  19.261  1.00 32.75 LIG 0.16  HD
BRANCH 43 46
ATOM     46  CA  ASN Q   2      16.379 -14.168  20.282  1.00 38.34 LIG 0.18  C 
BRANCH 46 47
ATOM     47  CB  ASN Q   2      17.051 -12.851  19.862  1.00 38.76 LIG 0.14  C 
BRANCH 47 48
ATOM     48  CG  ASN Q   2      16.320 -11.613  20.400  1.00 42.06 LIG 0.22  C 
ATOM     49  ND2 ASN Q   2      16.041 -10.663  19.518  1.00 46.27 LIG-0.37  N 
ATOM     50 22HD ASN Q   2      16.279 -10.756  18.697  1.00 46.27 LIG 0.16  HD
ATOM     51 21HD ASN Q   2      15.623  -9.953  19.767  1.00 46.27 LIG 0.16  HD
ATOM     52 OD1  ASN Q   2      15.999 -11.520  21.588  1.00 44.45 LIG-0.27  OA
ENDBRANCH 47 48
ENDBRANCH 46 47
BRANCH 46 53
ATOM     53  N   ASN Q   2      17.375 -15.196  20.596  1.00 39.54 LIG-0.34  N 
ATOM     54  C   THR Q   1      18.253 -15.688  19.730  1.00 41.49 LIG 0.25  C 
ATOM     55 O    THR Q   1      18.414 -15.225  18.600  1.00 41.78 LIG-0.27  OA
ATOM     56 H    ASN Q   2      17.338 -15.460  21.414  1.00 39.54 LIG 0.16  HD
BRANCH 54 57
ATOM     57  CA  THR Q   1      19.123 -16.851  20.226  1.00 43.16 LIG 0.30  C 
BRANCH 57 58
ATOM     58  CB  THR Q   1      20.072 -17.387  19.123  1.00 43.89 LIG 0.15  C 
ATOM     59  CG2 THR Q   1      21.424 -16.707  19.220  1.00 45.05 LIG 0.04  C 
BRANCH 58 60
ATOM     60 OG1  THR Q   1      20.351 -18.787  19.315  1.00 46.29 LIG-0.39  OA
ATOM     61 HG1  THR Q   1      20.979 -19.020  18.808  1.00 46.29 LIG 0.21  HD
ENDBRANCH 58 60
ENDBRANCH 57 58
BRANCH 57 62
ATOM     62  N   THR Q   1      18.281 -17.983  20.741  1.00 43.28 LIG-0.06  N 
ATOM     63 H2   THR Q   1      17.446 -17.701  20.864  1.00 43.28 LIG 0.28  HD
ATOM     64 H1   THR Q   1      18.613 -18.273  21.514  1.00 43.28 LIG 0.28  HD
ATOM     65 H3   THR Q   1      18.284 -18.648  20.149  1.00 43.28 LIG 0.28  HD
ENDBRANCH 57 62
ENDBRANCH 54 57
ENDBRANCH 46 53
ENDBRANCH 43 46
ENDBRANCH 36 42
ENDBRANCH 1 36
TORSDOF 24
ENDMDL
MODEL 17
USER: ADFR SOLUTION from run 12
USER: SCORE 20.638428 LL:  -5.872 LR: -16.527 RR:   0.000 FEB:  -9.368
USER: RMSD 2.720636
USER: SEED 413591
USER: STATUS no improvement in best in 11 clusters for 5 generations
USER: GENES 26
USER: genes 0 Translation |==|  0.48054 0.49961 0.58830
USER: genes 1 Rotation |==|  0.49743 0.47383 0.49335 0.99926
USER: genes 2 Torsion [C]-N--CA-[CB] |==|  0.28282
USER: genes 3 Torsion [N]-CA--CB-[CG] |==|  0.90223
USER: genes 4 Torsion [CA]-CB--CG-[CD1] |==|  0.72055
USER: genes 5 Torsion [N]-CA--C-[N] |==|  0.34678
USER: genes 6 Torsion [C]-N--CA-[C] |==|  0.77506
USER: genes 7 Torsion [N]-CA--C-[N] |==|  0.46096
USER: genes 8 Torsion [C]-N--CA-[CB] |==|  0.19751
USER: genes 9 Torsion [N]-CA--C-[O] |==|  0.48171
USER: genes 10 Torsion [N]-CA--CB-[CG] |==|  0.12662
USER: genes 11 Torsion [CA]-CB--CG-[CD2] |==|  0.22956
USER: genes 12 Torsion [CE1]-CZ--OH-[HH] |==|  0.57152
USER: genes 13 Torsion [N]-C--CA-[N] |==|  0.51060
USER: genes 14 Torsion [C]-CA--CB-[CG] |==|  0.59917
USER: genes 15 Torsion [CA]-CB--CG-[CD] |==|  0.75404
USER: genes 16 Torsion [CB]-CG--CD-[OE1] |==|  0.86463
USER: genes 17 Torsion [C]-CA--N-[C] |==|  0.75731
USER: genes 18 Torsion [N]-C--CA-[N] |==|  0.14403
USER: genes 19 Torsion [C]-CA--CB-[CG] |==|  0.84548
USER: genes 20 Torsion [CA]-CB--CG-[ND2] |==|  0.26998
USER: genes 21 Torsion [C]-CA--N-[C] |==|  0.12222
USER: genes 22 Torsion [N]-C--CA-[N] |==|  0.45414
USER: genes 23 Torsion [C]-CA--CB-[CG2] |==|  0.28184
USER: genes 24 Torsion [CA]-CB--OG1-[HG1] |==|  0.81904
USER: genes 25 Torsion [C]-CA--N-[H1] |==|  0.51323
ROOT
ATOM      1  C   GLU Q   3      14.526 -14.154  16.774  1.00 28.90 LIG 0.24  C 
ATOM      2 O    GLU Q   3      15.492 -13.539  16.306  1.00 28.99 LIG-0.27  OA
ATOM      3  N   PHE Q   4      14.017 -15.235  16.183  1.00 26.46 LIG-0.35  N 
ATOM      4 H    PHE Q   4      13.396 -15.711  16.540  1.00 26.46 LIG 0.16  HD
ENDROOT
BRANCH 3 5
ATOM      5  CA  PHE Q   4      14.448 -15.728  14.882  1.00 24.91 LIG 0.18  C 
BRANCH 5 6
ATOM      6  CB  PHE Q   4      15.389 -16.933  14.993  1.00 23.71 LIG 0.07  C 
BRANCH 6 7
ATOM      7  CG  PHE Q   4      16.316 -16.868  16.190  1.00 27.82 LIG-0.06  A 
ATOM      8  CD1 PHE Q   4      17.638 -16.467  16.052  1.00 28.27 LIG 0.01  A 
ATOM      9  CE1 PHE Q   4      18.489 -16.417  17.162  1.00 33.51 LIG 0.00  A 
ATOM     10  CZ  PHE Q   4      17.998 -16.728  18.417  1.00 29.48 LIG 0.00  A 
ATOM     11  CE2 PHE Q   4      16.691 -17.084  18.577  1.00 30.45 LIG 0.00  A 
ATOM     12  CD2 PHE Q   4      15.842 -17.182  17.454  1.00 30.03 LIG 0.01  A 
ENDBRANCH 6 7
ENDBRANCH 5 6
BRANCH 5 13
ATOM     13  C   PHE Q   4      13.231 -16.124  14.053  1.00 24.46 LIG 0.24  C 
ATOM     14 O    PHE Q   4      12.418 -16.959  14.456  1.00 21.72 LIG-0.27  OA
ATOM     15  N   TYR Q   5      13.164 -15.524  12.866  1.00 25.68 LIG-0.35  N 
ATOM     16 H    TYR Q   5      13.751 -14.949  12.612  1.00 25.68 LIG 0.16  HD
BRANCH 15 17
ATOM     17  CA  TYR Q   5      12.121 -15.748  11.864  1.00 24.76 LIG 0.18  C 
BRANCH 17 18
ATOM     18  C   TYR Q   5      12.488 -17.007  11.135  1.00 23.71 LIG 0.24  C 
ATOM     19  N   ALA Q   6      11.531 -17.540  10.389  1.00 23.95 LIG-0.34  N 
ATOM     20 H    ALA Q   6      10.733 -17.226  10.325  1.00 23.95 LIG 0.16  HD
ATOM     21 O    TYR Q   5      13.636 -17.464  11.180  1.00 22.91 LIG-0.27  OA
BRANCH 19 22
ATOM     22  CA  ALA Q   6      11.781 -18.733   9.603  1.00 23.91 LIG 0.18  C 
ATOM     23  CB  ALA Q   6      11.920 -19.932  10.516  1.00 25.24 LIG 0.04  C 
BRANCH 22 24
ATOM     24  C   ALA Q   6      10.739 -19.007   8.525  1.00 23.52 LIG 0.20  C 
ATOM     25 O    ALA Q   6      10.867 -19.903   7.705  1.00 23.09 LIG-0.65  OA
ATOM     26 OXT  ALA Q   6       9.750 -18.269   8.463  1.00 23.23 LIG-0.65  OA
ENDBRANCH 22 24
ENDBRANCH 19 22
ENDBRANCH 17 18
BRANCH 17 27
ATOM     27  CB  TYR Q   5      12.060 -14.556  10.880  1.00 25.21 LIG 0.07  C 
BRANCH 27 28
ATOM     28  CG  TYR Q   5      13.406 -14.072  10.362  1.00 26.66 LIG-0.06  A 
ATOM     29  CD1 TYR Q   5      14.071 -12.999  10.935  1.00 25.58 LIG 0.01  A 
ATOM     30  CE1 TYR Q   5      15.308 -12.560  10.426  1.00 26.73 LIG 0.04  A 
ATOM     31  CZ  TYR Q   5      15.885 -13.213   9.345  1.00 25.10 LIG 0.07  A 
ATOM     32  CE2 TYR Q   5      15.263 -14.294   8.789  1.00 24.98 LIG 0.04  A 
ATOM     33  CD2 TYR Q   5      14.022 -14.718   9.288  1.00 25.59 LIG 0.01  A 
BRANCH 31 34
ATOM     34 OH   TYR Q   5      17.103 -12.801   8.831  1.00 28.49 LIG-0.36  OA
ATOM     35 HH   TYR Q   5      17.156 -13.022   8.022  1.00 28.49 LIG 0.22  HD
ENDBRANCH 31 34
ENDBRANCH 27 28
ENDBRANCH 17 27
ENDBRANCH 15 17
ENDBRANCH 5 13
ENDBRANCH 3 5
BRANCH 1 36
ATOM     36  CA  GLU Q   3      13.903 -13.743  18.111  1.00 29.75 LIG 0.18  C 
BRANCH 36 37
ATOM     37  CB  GLU Q   3      12.374 -13.625  18.003  1.00 29.86 LIG 0.04  C 
BRANCH 37 38
ATOM     38  CG  GLU Q   3      11.653 -12.545  18.794  1.00 30.70 LIG 0.12  C 
BRANCH 38 39
ATOM     39  CD  GLU Q   3      11.275 -13.032  20.185  1.00 35.33 LIG 0.17  C 
ATOM     40 OE1  GLU Q   3      10.701 -14.146  20.242  1.00 35.34 LIG-0.65  OA
ATOM     41 OE2  GLU Q   3      11.527 -12.311  21.191  1.00 35.74 LIG-0.65  OA
ENDBRANCH 38 39
ENDBRANCH 37 38
ENDBRANCH 36 37
BRANCH 36 42
ATOM     42  N   GLU Q   3      14.514 -12.493  18.574  1.00 32.75 LIG-0.35  N 
ATOM     43  C   ASN Q   2      15.631 -12.491  19.306  1.00 36.04 LIG 0.24  C 
ATOM     44 O    ASN Q   2      16.189 -13.541  19.666  1.00 34.76 LIG-0.27  OA
ATOM     45 H    GLU Q   3      14.094 -11.782  18.335  1.00 32.75 LIG 0.16  HD
BRANCH 43 46
ATOM     46  CA  ASN Q   2      16.232 -11.110  19.642  1.00 38.34 LIG 0.18  C 
BRANCH 46 47
ATOM     47  CB  ASN Q   2      17.496 -11.241  20.507  1.00 38.76 LIG 0.14  C 
BRANCH 47 48
ATOM     48  CG  ASN Q   2      17.255 -12.037  21.797  1.00 42.06 LIG 0.22  C 
ATOM     49  ND2 ASN Q   2      17.585 -13.321  21.768  1.00 46.27 LIG-0.37  N 
ATOM     50 22HD ASN Q   2      17.905 -13.667  21.049  1.00 46.27 LIG 0.16  HD
ATOM     51 21HD ASN Q   2      17.479 -13.808  22.469  1.00 46.27 LIG 0.16  HD
ATOM     52 OD1  ASN Q   2      16.792 -11.501  22.807  1.00 44.45 LIG-0.27  OA
ENDBRANCH 47 48
ENDBRANCH 46 47
BRANCH 46 53
ATOM     53  N   ASN Q   2      15.278 -10.170  20.236  1.00 39.54 LIG-0.34  N 
ATOM     54  C   THR Q   1      14.406 -10.478  21.189  1.00 41.49 LIG 0.25  C 
ATOM     55 O    THR Q   1      14.406 -11.561  21.775  1.00 41.78 LIG-0.27  OA
ATOM     56 H    ASN Q   2      15.335  -9.379  19.902  1.00 39.54 LIG 0.16  HD
BRANCH 54 57
ATOM     57  CA  THR Q   1      13.407  -9.380  21.581  1.00 43.16 LIG 0.30  C 
BRANCH 57 58
ATOM     58  CB  THR Q   1      14.069  -8.254  22.416  1.00 43.89 LIG 0.15  C 
ATOM     59  CG2 THR Q   1      14.346  -7.046  21.541  1.00 45.05 LIG 0.04  C 
BRANCH 58 60
ATOM     60 OG1  THR Q   1      13.174  -7.771  23.436  1.00 46.29 LIG-0.39  OA
ATOM     61 HG1  THR Q   1      12.510  -7.402  23.076  1.00 46.29 LIG 0.21  HD
ENDBRANCH 58 60
ENDBRANCH 57 58
BRANCH 57 62
ATOM     62  N   THR Q   1      12.247  -9.943  22.350  1.00 43.28 LIG-0.06  N 
ATOM     63 H2   THR Q   1      11.865 -10.594  21.877  1.00 43.28 LIG 0.28  HD
ATOM     64 H1   THR Q   1      11.652  -9.299  22.504  1.00 43.28 LIG 0.28  HD
ATOM     65 H3   THR Q   1      12.536 -10.271  23.125  1.00 43.28 LIG 0.28  HD
ENDBRANCH 57 62
ENDBRANCH 54 57
ENDBRANCH 46 53
ENDBRANCH 43 46
ENDBRANCH 36 42
ENDBRANCH 1 36
TORSDOF 24
ENDMDL
MODEL 18
USER: ADFR SOLUTION from run 189
USER: SCORE 20.359652 LL:  -6.748 LR: -16.511 RR:   0.000 FEB:  -9.352
USER: RMSD 3.622420
USER: SEED 188
USER: STATUS no improvement in best in 13 clusters for 5 generations
USER: GENES 26
USER: genes 0 Translation |==|  0.50431 0.48776 0.57291
USER: genes 1 Rotation |==|  0.46981 0.48602 0.46008 0.99729
USER: genes 2 Torsion [C]-N--CA-[CB] |==|  0.29356
USER: genes 3 Torsion [N]-CA--CB-[CG] |==|  0.86607
USER: genes 4 Torsion [CA]-CB--CG-[CD1] |==|  0.71050
USER: genes 5 Torsion [N]-CA--C-[N] |==|  0.34203
USER: genes 6 Torsion [C]-N--CA-[C] |==|  0.72104
USER: genes 7 Torsion [N]-CA--C-[N] |==|  0.38643
USER: genes 8 Torsion [C]-N--CA-[CB] |==|  0.26984
USER: genes 9 Torsion [N]-CA--C-[O] |==|  0.98850
USER: genes 10 Torsion [N]-CA--CB-[CG] |==|  0.99660
USER: genes 11 Torsion [CA]-CB--CG-[CD2] |==|  0.31447
USER: genes 12 Torsion [CE1]-CZ--OH-[HH] |==|  0.49312
USER: genes 13 Torsion [N]-C--CA-[N] |==|  0.58548
USER: genes 14 Torsion [C]-CA--CB-[CG] |==|  0.46373
USER: genes 15 Torsion [CA]-CB--CG-[CD] |==|  0.10377
USER: genes 16 Torsion [CB]-CG--CD-[OE1] |==|  0.26463
USER: genes 17 Torsion [C]-CA--N-[C] |==|  0.18081
USER: genes 18 Torsion [N]-C--CA-[N] |==|  0.87413
USER: genes 19 Torsion [C]-CA--CB-[CG] |==|  0.34640
USER: genes 20 Torsion [CA]-CB--CG-[ND2] |==|  0.17070
USER: genes 21 Torsion [C]-CA--N-[C] |==|  0.19966
USER: genes 22 Torsion [N]-C--CA-[N] |==|  0.16775
USER: genes 23 Torsion [C]-CA--CB-[CG2] |==|  0.44528
USER: genes 24 Torsion [CA]-CB--OG1-[HG1] |==|  0.31257
USER: genes 25 Torsion [C]-CA--N-[H1] |==|  0.84827
ROOT
ATOM      1  C   GLU Q   3      14.990 -14.394  16.370  1.00 28.90 LIG 0.24  C 
ATOM      2 O    GLU Q   3      16.003 -13.970  15.800  1.00 28.99 LIG-0.27  OA
ATOM      3  N   PHE Q   4      14.306 -15.445  15.918  1.00 26.46 LIG-0.35  N 
ATOM      4 H    PHE Q   4      13.647 -15.791  16.349  1.00 26.46 LIG 0.16  HD
ENDROOT
BRANCH 3 5
ATOM      5  CA  PHE Q   4      14.592 -16.121  14.660  1.00 24.91 LIG 0.18  C 
BRANCH 5 6
ATOM      6  CB  PHE Q   4      15.282 -17.474  14.863  1.00 23.71 LIG 0.07  C 
BRANCH 6 7
ATOM      7  CG  PHE Q   4      16.454 -17.418  15.821  1.00 27.82 LIG-0.06  A 
ATOM      8  CD1 PHE Q   4      17.762 -17.449  15.356  1.00 28.27 LIG 0.01  A 
ATOM      9  CE1 PHE Q   4      18.839 -17.403  16.249  1.00 33.51 LIG 0.00  A 
ATOM     10  CZ  PHE Q   4      18.601 -17.283  17.606  1.00 29.48 LIG 0.00  A 
ATOM     11  CE2 PHE Q   4      17.322 -17.209  18.077  1.00 30.45 LIG 0.00  A 
ATOM     12  CD2 PHE Q   4      16.233 -17.303  17.185  1.00 30.03 LIG 0.01  A 
ENDBRANCH 6 7
ENDBRANCH 5 6
BRANCH 5 13
ATOM     13  C   PHE Q   4      13.297 -16.335  13.885  1.00 24.46 LIG 0.24  C 
ATOM     14 O    PHE Q   4      12.360 -16.983  14.358  1.00 21.72 LIG-0.27  OA
ATOM     15  N   TYR Q   5      13.300 -15.803  12.664  1.00 25.68 LIG-0.35  N 
ATOM     16 H    TYR Q   5      13.973 -15.361  12.361  1.00 25.68 LIG 0.16  HD
BRANCH 15 17
ATOM     17  CA  TYR Q   5      12.201 -15.891  11.702  1.00 24.76 LIG 0.18  C 
BRANCH 17 18
ATOM     18  C   TYR Q   5      12.566 -16.973  10.729  1.00 23.71 LIG 0.24  C 
ATOM     19  N   ALA Q   6      11.578 -17.778  10.365  1.00 23.95 LIG-0.34  N 
ATOM     20 H    ALA Q   6      10.774 -17.729  10.668  1.00 23.95 LIG 0.16  HD
ATOM     21 O    TYR Q   5      13.703 -17.050  10.251  1.00 22.91 LIG-0.27  OA
BRANCH 19 22
ATOM     22  CA  ALA Q   6      11.800 -18.835   9.396  1.00 23.91 LIG 0.18  C 
ATOM     23  CB  ALA Q   6      12.047 -20.146  10.111  1.00 25.24 LIG 0.04  C 
BRANCH 22 24
ATOM     24  C   ALA Q   6      10.684 -18.994   8.371  1.00 23.52 LIG 0.20  C 
ATOM     25 O    ALA Q   6       9.656 -18.337   8.417  1.00 23.09 LIG-0.65  OA
ATOM     26 OXT  ALA Q   6      10.815 -19.846   7.487  1.00 23.23 LIG-0.65  OA
ENDBRANCH 22 24
ENDBRANCH 19 22
ENDBRANCH 17 18
BRANCH 17 27
ATOM     27  CB  TYR Q   5      12.027 -14.542  10.964  1.00 25.21 LIG 0.07  C 
BRANCH 27 28
ATOM     28  CG  TYR Q   5      12.979 -13.438  11.397  1.00 26.66 LIG-0.06  A 
ATOM     29  CD1 TYR Q   5      12.934 -12.884  12.667  1.00 25.58 LIG 0.01  A 
ATOM     30  CE1 TYR Q   5      13.816 -11.851  13.037  1.00 26.73 LIG 0.04  A 
ATOM     31  CZ  TYR Q   5      14.757 -11.383  12.129  1.00 25.10 LIG 0.07  A 
ATOM     32  CE2 TYR Q   5      14.841 -11.940  10.885  1.00 24.98 LIG 0.04  A 
ATOM     33  CD2 TYR Q   5      13.950 -12.957  10.514  1.00 25.59 LIG 0.01  A 
BRANCH 31 34
ATOM     34 OH   TYR Q   5      15.637 -10.371  12.474  1.00 28.49 LIG-0.36  OA
ATOM     35 HH   TYR Q   5      16.161 -10.225  11.834  1.00 28.49 LIG 0.22  HD
ENDBRANCH 31 34
ENDBRANCH 27 28
ENDBRANCH 17 27
ENDBRANCH 15 17
ENDBRANCH 5 13
ENDBRANCH 3 5
BRANCH 1 36
ATOM     36  CA  GLU Q   3      14.504 -13.769  17.681  1.00 29.75 LIG 0.18  C 
BRANCH 36 37
ATOM     37  CB  GLU Q   3      13.011 -14.049  17.915  1.00 29.86 LIG 0.04  C 
BRANCH 37 38
ATOM     38  CG  GLU Q   3      12.408 -13.779  19.285  1.00 30.70 LIG 0.12  C 
BRANCH 38 39
ATOM     39  CD  GLU Q   3      13.003 -12.529  19.918  1.00 35.33 LIG 0.17  C 
ATOM     40 OE1  GLU Q   3      12.356 -11.467  19.754  1.00 35.34 LIG-0.65  OA
ATOM     41 OE2  GLU Q   3      14.097 -12.605  20.545  1.00 35.74 LIG-0.65  OA
ENDBRANCH 38 39
ENDBRANCH 37 38
ENDBRANCH 36 37
BRANCH 36 42
ATOM     42  N   GLU Q   3      14.794 -12.332  17.677  1.00 32.75 LIG-0.35  N 
ATOM     43  C   ASN Q   2      14.207 -11.503  16.809  1.00 36.04 LIG 0.24  C 
ATOM     44 O    ASN Q   2      13.418 -11.906  15.939  1.00 34.76 LIG-0.27  OA
ATOM     45 H    GLU Q   3      15.363 -12.082  18.271  1.00 32.75 LIG 0.16  HD
BRANCH 43 46
ATOM     46  CA  ASN Q   2      14.516 -10.000  16.974  1.00 38.34 LIG 0.18  C 
BRANCH 46 47
ATOM     47  CB  ASN Q   2      15.855  -9.625  16.320  1.00 38.76 LIG 0.14  C 
BRANCH 47 48
ATOM     48  CG  ASN Q   2      15.719  -8.491  15.294  1.00 42.06 LIG 0.22  C 
ATOM     49  ND2 ASN Q   2      15.281  -7.328  15.756  1.00 46.27 LIG-0.37  N 
ATOM     50 22HD ASN Q   2      15.080  -7.244  16.588  1.00 46.27 LIG 0.16  HD
ATOM     51 21HD ASN Q   2      15.197  -6.657  15.224  1.00 46.27 LIG 0.16  HD
ATOM     52 OD1  ASN Q   2      16.018  -8.656  14.109  1.00 44.45 LIG-0.27  OA
ENDBRANCH 47 48
ENDBRANCH 46 47
BRANCH 46 53
ATOM     53  N   ASN Q   2      14.449  -9.523  18.359  1.00 39.54 LIG-0.34  N 
ATOM     54  C   THR Q   1      15.340  -9.811  19.301  1.00 41.49 LIG 0.25  C 
ATOM     55 O    THR Q   1      16.397 -10.399  19.071  1.00 41.78 LIG-0.27  OA
ATOM     56 H    ASN Q   2      13.763  -9.027  18.510  1.00 39.54 LIG 0.16  HD
BRANCH 54 57
ATOM     57  CA  THR Q   1      15.015  -9.318  20.719  1.00 43.16 LIG 0.30  C 
BRANCH 57 58
ATOM     58  CB  THR Q   1      16.150  -9.639  21.726  1.00 43.89 LIG 0.15  C 
ATOM     59  CG2 THR Q   1      16.033  -8.748  22.947  1.00 45.05 LIG 0.04  C 
BRANCH 58 60
ATOM     60 OG1  THR Q   1      16.027 -10.980  22.236  1.00 46.29 LIG-0.39  OA
ATOM     61 HG1  THR Q   1      16.668 -11.447  21.957  1.00 46.29 LIG 0.21  HD
ENDBRANCH 58 60
ENDBRANCH 57 58
BRANCH 57 62
ATOM     62  N   THR Q   1      13.731  -9.909  21.224  1.00 43.28 LIG-0.06  N 
ATOM     63 H2   THR Q   1      13.824 -10.790  21.316  1.00 43.28 LIG 0.28  HD
ATOM     64 H1   THR Q   1      13.077  -9.740  20.643  1.00 43.28 LIG 0.28  HD
ATOM     65 H3   THR Q   1      13.528  -9.549  22.012  1.00 43.28 LIG 0.28  HD
ENDBRANCH 57 62
ENDBRANCH 54 57
ENDBRANCH 46 53
ENDBRANCH 43 46
ENDBRANCH 36 42
ENDBRANCH 1 36
TORSDOF 24
ENDMDL
MODEL 19
USER: ADFR SOLUTION from run 140
USER: SCORE 21.756200 LL:  -6.323 LR: -16.501 RR:   0.000 FEB:  -9.342
USER: RMSD 2.374731
USER: SEED 139
USER: STATUS no improvement in best in 9 clusters for 5 generations
USER: GENES 26
USER: genes 0 Translation |==|  0.45057 0.48435 0.58254
USER: genes 1 Rotation |==|  0.45418 0.60476 0.74529 0.92043
USER: genes 2 Torsion [C]-N--CA-[CB] |==|  0.50865
USER: genes 3 Torsion [N]-CA--CB-[CG] |==|  0.82875
USER: genes 4 Torsion [CA]-CB--CG-[CD1] |==|  0.67346
USER: genes 5 Torsion [N]-CA--C-[N] |==|  0.46141
USER: genes 6 Torsion [C]-N--CA-[C] |==|  0.62339
USER: genes 7 Torsion [N]-CA--C-[N] |==|  0.43142
USER: genes 8 Torsion [C]-N--CA-[CB] |==|  0.23934
USER: genes 9 Torsion [N]-CA--C-[O] |==|  0.97874
USER: genes 10 Torsion [N]-CA--CB-[CG] |==|  0.14251
USER: genes 11 Torsion [CA]-CB--CG-[CD2] |==|  0.72509
USER: genes 12 Torsion [CE1]-CZ--OH-[HH] |==|  0.08194
USER: genes 13 Torsion [N]-C--CA-[N] |==|  0.21781
USER: genes 14 Torsion [C]-CA--CB-[CG] |==|  0.46204
USER: genes 15 Torsion [CA]-CB--CG-[CD] |==|  0.24677
USER: genes 16 Torsion [CB]-CG--CD-[OE1] |==|  0.09110
USER: genes 17 Torsion [C]-CA--N-[C] |==|  0.74516
USER: genes 18 Torsion [N]-C--CA-[N] |==|  0.05932
USER: genes 19 Torsion [C]-CA--CB-[CG] |==|  0.21683
USER: genes 20 Torsion [CA]-CB--CG-[ND2] |==|  0.75896
USER: genes 21 Torsion [C]-CA--N-[C] |==|  0.15806
USER: genes 22 Torsion [N]-C--CA-[N] |==|  0.22833
USER: genes 23 Torsion [C]-CA--CB-[CG2] |==|  0.72692
USER: genes 24 Torsion [CA]-CB--OG1-[HG1] |==|  0.74348
USER: genes 25 Torsion [C]-CA--N-[H1] |==|  0.54732
ROOT
ATOM      1  C   GLU Q   3      13.942 -14.463  16.623  1.00 28.90 LIG 0.24  C 
ATOM      2 O    GLU Q   3      13.624 -13.636  15.759  1.00 28.99 LIG-0.27  OA
ATOM      3  N   PHE Q   4      14.506 -15.631  16.316  1.00 26.46 LIG-0.35  N 
ATOM      4 H    PHE Q   4      14.798 -16.178  16.912  1.00 26.46 LIG 0.16  HD
ENDROOT
BRANCH 3 5
ATOM      5  CA  PHE Q   4      14.690 -16.111  14.952  1.00 24.91 LIG 0.18  C 
BRANCH 5 6
ATOM      6  CB  PHE Q   4      15.296 -17.518  14.902  1.00 23.71 LIG 0.07  C 
BRANCH 6 7
ATOM      7  CG  PHE Q   4      16.676 -17.605  15.523  1.00 27.82 LIG-0.06  A 
ATOM      8  CD1 PHE Q   4      17.782 -17.962  14.764  1.00 28.27 LIG 0.01  A 
ATOM      9  CE1 PHE Q   4      19.051 -18.047  15.348  1.00 33.51 LIG 0.00  A 
ATOM     10  CZ  PHE Q   4      19.215 -17.730  16.685  1.00 29.48 LIG 0.00  A 
ATOM     11  CE2 PHE Q   4      18.145 -17.337  17.435  1.00 30.45 LIG 0.00  A 
ATOM     12  CD2 PHE Q   4      16.856 -17.297  16.863  1.00 30.03 LIG 0.01  A 
ENDBRANCH 6 7
ENDBRANCH 5 6
BRANCH 5 13
ATOM     13  C   PHE Q   4      13.350 -16.121  14.225  1.00 24.46 LIG 0.24  C 
ATOM     14 O    PHE Q   4      12.282 -16.044  14.837  1.00 21.72 LIG-0.27  OA
ATOM     15  N   TYR Q   5      13.451 -16.261  12.905  1.00 25.68 LIG-0.35  N 
ATOM     16 H    TYR Q   5      14.211 -16.317  12.508  1.00 25.68 LIG 0.16  HD
BRANCH 15 17
ATOM     17  CA  TYR Q   5      12.322 -16.335  11.976  1.00 24.76 LIG 0.18  C 
BRANCH 17 18
ATOM     18  C   TYR Q   5      12.623 -17.453  11.021  1.00 23.71 LIG 0.24  C 
ATOM     19  N   ALA Q   6      11.571 -18.019  10.447  1.00 23.95 LIG-0.34  N 
ATOM     20 H    ALA Q   6      10.754 -17.803  10.608  1.00 23.95 LIG 0.16  HD
ATOM     21 O    TYR Q   5      13.787 -17.764  10.743  1.00 22.91 LIG-0.27  OA
BRANCH 19 22
ATOM     22  CA  ALA Q   6      11.739 -19.080   9.473  1.00 23.91 LIG 0.18  C 
ATOM     23  CB  ALA Q   6      11.843 -20.416  10.178  1.00 25.24 LIG 0.04  C 
BRANCH 22 24
ATOM     24  C   ALA Q   6      10.655 -19.131   8.403  1.00 23.52 LIG 0.20  C 
ATOM     25 O    ALA Q   6       9.656 -18.431   8.452  1.00 23.09 LIG-0.65  OA
ATOM     26 OXT  ALA Q   6      10.781 -19.938   7.476  1.00 23.23 LIG-0.65  OA
ENDBRANCH 22 24
ENDBRANCH 19 22
ENDBRANCH 17 18
BRANCH 17 27
ATOM     27  CB  TYR Q   5      12.173 -15.000  11.209  1.00 25.21 LIG 0.07  C 
BRANCH 27 28
ATOM     28  CG  TYR Q   5      13.441 -14.487  10.545  1.00 26.66 LIG-0.06  A 
ATOM     29  CD1 TYR Q   5      13.868 -14.958   9.313  1.00 25.58 LIG 0.01  A 
ATOM     30  CE1 TYR Q   5      15.054 -14.479   8.727  1.00 26.73 LIG 0.04  A 
ATOM     31  CZ  TYR Q   5      15.808 -13.510   9.377  1.00 25.10 LIG 0.07  A 
ATOM     32  CE2 TYR Q   5      15.386 -13.007  10.574  1.00 24.98 LIG 0.04  A 
ATOM     33  CD2 TYR Q   5      14.211 -13.499  11.163  1.00 25.59 LIG 0.01  A 
BRANCH 31 34
ATOM     34 OH   TYR Q   5      16.976 -13.021   8.817  1.00 28.49 LIG-0.36  OA
ATOM     35 HH   TYR Q   5      16.922 -13.057   7.979  1.00 28.49 LIG 0.22  HD
ENDBRANCH 31 34
ENDBRANCH 27 28
ENDBRANCH 17 27
ENDBRANCH 15 17
ENDBRANCH 5 13
ENDBRANCH 3 5
BRANCH 1 36
ATOM     36  CA  GLU Q   3      13.768 -14.154  18.113  1.00 29.75 LIG 0.18  C 
BRANCH 36 37
ATOM     37  CB  GLU Q   3      12.658 -13.116  18.343  1.00 29.86 LIG 0.04  C 
BRANCH 37 38
ATOM     38  CG  GLU Q   3      12.116 -12.906  19.749  1.00 30.70 LIG 0.12  C 
BRANCH 38 39
ATOM     39  CD  GLU Q   3      12.915 -11.852  20.501  1.00 35.33 LIG 0.17  C 
ATOM     40 OE1  GLU Q   3      13.387 -10.919  19.808  1.00 35.34 LIG-0.65  OA
ATOM     41 OE2  GLU Q   3      13.082 -11.965  21.749  1.00 35.74 LIG-0.65  OA
ENDBRANCH 38 39
ENDBRANCH 37 38
ENDBRANCH 36 37
BRANCH 36 42
ATOM     42  N   GLU Q   3      15.049 -13.715  18.676  1.00 32.75 LIG-0.35  N 
ATOM     43  C   ASN Q   2      15.902 -14.581  19.229  1.00 36.04 LIG 0.24  C 
ATOM     44 O    ASN Q   2      15.644 -15.791  19.332  1.00 34.76 LIG-0.27  OA
ATOM     45 H    GLU Q   3      15.192 -12.870  18.617  1.00 32.75 LIG 0.16  HD
BRANCH 43 46
ATOM     46  CA  ASN Q   2      17.260 -14.011  19.690  1.00 38.34 LIG 0.18  C 
BRANCH 46 47
ATOM     47  CB  ASN Q   2      17.801 -14.767  20.915  1.00 38.76 LIG 0.14  C 
BRANCH 47 48
ATOM     48  CG  ASN Q   2      18.430 -16.118  20.550  1.00 42.06 LIG 0.22  C 
ATOM     49  ND2 ASN Q   2      17.605 -17.154  20.485  1.00 46.27 LIG-0.37  N 
ATOM     50 22HD ASN Q   2      16.769 -17.049  20.654  1.00 46.27 LIG 0.16  HD
ATOM     51 21HD ASN Q   2      17.907 -17.932  20.273  1.00 46.27 LIG 0.16  HD
ATOM     52 OD1  ASN Q   2      19.637 -16.224  20.316  1.00 44.45 LIG-0.27  OA
ENDBRANCH 47 48
ENDBRANCH 46 47
BRANCH 46 53
ATOM     53  N   ASN Q   2      17.257 -12.564  19.918  1.00 39.54 LIG-0.34  N 
ATOM     54  C   THR Q   1      16.440 -11.932  20.753  1.00 41.49 LIG 0.25  C 
ATOM     55 O    THR Q   1      15.690 -12.519  21.534  1.00 41.78 LIG-0.27  OA
ATOM     56 H    ASN Q   2      17.846 -12.149  19.448  1.00 39.54 LIG 0.16  HD
BRANCH 54 57
ATOM     57  CA  THR Q   1      16.511 -10.398  20.747  1.00 43.16 LIG 0.30  C 
BRANCH 57 58
ATOM     58  CB  THR Q   1      16.040  -9.783  22.090  1.00 43.89 LIG 0.15  C 
ATOM     59  CG2 THR Q   1      14.598  -9.327  21.980  1.00 45.05 LIG 0.04  C 
BRANCH 58 60
ATOM     60 OG1  THR Q   1      16.035 -10.770  23.139  1.00 46.29 LIG-0.39  OA
ATOM     61 HG1  THR Q   1      15.275 -11.125  23.186  1.00 46.29 LIG 0.21  HD
ENDBRANCH 58 60
ENDBRANCH 57 58
BRANCH 57 62
ATOM     62  N   THR Q   1      15.696  -9.817  19.628  1.00 43.28 LIG-0.06  N 
ATOM     63 H2   THR Q   1      15.830 -10.289  18.886  1.00 43.28 LIG 0.28  HD
ATOM     64 H1   THR Q   1      15.942  -8.972  19.490  1.00 43.28 LIG 0.28  HD
ATOM     65 H3   THR Q   1      14.834  -9.843  19.844  1.00 43.28 LIG 0.28  HD
ENDBRANCH 57 62
ENDBRANCH 54 57
ENDBRANCH 46 53
ENDBRANCH 43 46
ENDBRANCH 36 42
ENDBRANCH 1 36
TORSDOF 24
ENDMDL
MODEL 20
USER: ADFR SOLUTION from run 169
USER: SCORE 20.671798 LL:  -6.155 LR: -16.478 RR:   0.000 FEB:  -9.319
USER: RMSD 3.077168
USER: SEED 168
USER: STATUS no improvement in best in 6 clusters for 5 generations
USER: GENES 26
USER: genes 0 Translation |==|  0.48599 0.48729 0.56943
USER: genes 1 Rotation |==|  0.47985 0.55757 0.58930 0.98816
USER: genes 2 Torsion [C]-N--CA-[CB] |==|  0.38405
USER: genes 3 Torsion [N]-CA--CB-[CG] |==|  0.86351
USER: genes 4 Torsion [CA]-CB--CG-[CD1] |==|  0.68373
USER: genes 5 Torsion [N]-CA--C-[N] |==|  0.35807
USER: genes 6 Torsion [C]-N--CA-[C] |==|  0.67947
USER: genes 7 Torsion [N]-CA--C-[N] |==|  0.32822
USER: genes 8 Torsion [C]-N--CA-[CB] |==|  0.23405
USER: genes 9 Torsion [N]-CA--C-[O] |==|  0.01442
USER: genes 10 Torsion [N]-CA--CB-[CG] |==|  0.03722
USER: genes 11 Torsion [CA]-CB--CG-[CD2] |==|  0.80765
USER: genes 12 Torsion [CE1]-CZ--OH-[HH] |==|  0.95737
USER: genes 13 Torsion [N]-C--CA-[N] |==|  0.43565
USER: genes 14 Torsion [C]-CA--CB-[CG] |==|  0.52046
USER: genes 15 Torsion [CA]-CB--CG-[CD] |==|  0.18444
USER: genes 16 Torsion [CB]-CG--CD-[OE1] |==|  0.09316
USER: genes 17 Torsion [C]-CA--N-[C] |==|  0.80940
USER: genes 18 Torsion [N]-C--CA-[N] |==|  0.96024
USER: genes 19 Torsion [C]-CA--CB-[CG] |==|  0.90954
USER: genes 20 Torsion [CA]-CB--CG-[ND2] |==|  0.25992
USER: genes 21 Torsion [C]-CA--N-[C] |==|  0.81611
USER: genes 22 Torsion [N]-C--CA-[N] |==|  0.71515
USER: genes 23 Torsion [C]-CA--CB-[CG2] |==|  0.43873
USER: genes 24 Torsion [CA]-CB--OG1-[HG1] |==|  0.79746
USER: genes 25 Torsion [C]-CA--N-[H1] |==|  0.67211
ROOT
ATOM      1  C   GLU Q   3      14.633 -14.403  16.279  1.00 28.90 LIG 0.24  C 
ATOM      2 O    GLU Q   3      15.098 -13.565  15.498  1.00 28.99 LIG-0.27  OA
ATOM      3  N   PHE Q   4      14.416 -15.668  15.918  1.00 26.46 LIG-0.35  N 
ATOM      4 H    PHE Q   4      14.164 -16.274  16.474  1.00 26.46 LIG 0.16  HD
ENDROOT
BRANCH 3 5
ATOM      5  CA  PHE Q   4      14.579 -16.164  14.558  1.00 24.91 LIG 0.18  C 
BRANCH 5 6
ATOM      6  CB  PHE Q   4      15.260 -17.537  14.511  1.00 23.71 LIG 0.07  C 
BRANCH 6 7
ATOM      7  CG  PHE Q   4      16.525 -17.613  15.341  1.00 27.82 LIG-0.06  A 
ATOM      8  CD1 PHE Q   4      17.766 -17.789  14.743  1.00 28.27 LIG 0.01  A 
ATOM      9  CE1 PHE Q   4      18.928 -17.865  15.519  1.00 33.51 LIG 0.00  A 
ATOM     10  CZ  PHE Q   4      18.848 -17.721  16.892  1.00 29.48 LIG 0.00  A 
ATOM     11  CE2 PHE Q   4      17.641 -17.505  17.492  1.00 30.45 LIG 0.00  A 
ATOM     12  CD2 PHE Q   4      16.462 -17.476  16.720  1.00 30.03 LIG 0.01  A 
ENDBRANCH 6 7
ENDBRANCH 5 6
BRANCH 5 13
ATOM     13  C   PHE Q   4      13.216 -16.263  13.880  1.00 24.46 LIG 0.24  C 
ATOM     14 O    PHE Q   4      12.281 -16.879  14.395  1.00 21.72 LIG-0.27  OA
ATOM     15  N   TYR Q   5      13.159 -15.668  12.690  1.00 25.68 LIG-0.35  N 
ATOM     16 H    TYR Q   5      13.831 -15.250  12.355  1.00 25.68 LIG 0.16  HD
BRANCH 15 17
ATOM     17  CA  TYR Q   5      11.985 -15.642  11.816  1.00 24.76 LIG 0.18  C 
BRANCH 17 18
ATOM     18  C   TYR Q   5      12.354 -16.403  10.576  1.00 23.71 LIG 0.24  C 
ATOM     19  N   ALA Q   6      11.634 -17.488  10.331  1.00 23.95 LIG-0.34  N 
ATOM     20 H    ALA Q   6      11.006 -17.780  10.841  1.00 23.95 LIG 0.16  HD
ATOM     21 O    TYR Q   5      13.228 -15.990   9.806  1.00 22.91 LIG-0.27  OA
BRANCH 19 22
ATOM     22  CA  ALA Q   6      11.869 -18.281   9.139  1.00 23.91 LIG 0.18  C 
ATOM     23  CB  ALA Q   6      12.998 -19.258   9.385  1.00 25.24 LIG 0.04  C 
BRANCH 22 24
ATOM     24  C   ALA Q   6      10.639 -19.014   8.617  1.00 23.52 LIG 0.20  C 
ATOM     25 O    ALA Q   6       9.532 -18.862   9.107  1.00 23.09 LIG-0.65  OA
ATOM     26 OXT  ALA Q   6      10.783 -19.816   7.689  1.00 23.23 LIG-0.65  OA
ENDBRANCH 22 24
ENDBRANCH 19 22
ENDBRANCH 17 18
BRANCH 17 27
ATOM     27  CB  TYR Q   5      11.617 -14.182  11.459  1.00 25.21 LIG 0.07  C 
BRANCH 27 28
ATOM     28  CG  TYR Q   5      12.678 -13.144  11.792  1.00 26.66 LIG-0.06  A 
ATOM     29  CD1 TYR Q   5      13.375 -12.463  10.806  1.00 25.58 LIG 0.01  A 
ATOM     30  CE1 TYR Q   5      14.364 -11.519  11.140  1.00 26.73 LIG 0.04  A 
ATOM     31  CZ  TYR Q   5      14.644 -11.250  12.473  1.00 25.10 LIG 0.07  A 
ATOM     32  CE2 TYR Q   5      13.944 -11.884  13.460  1.00 24.98 LIG 0.04  A 
ATOM     33  CD2 TYR Q   5      12.970 -12.836  13.123  1.00 25.59 LIG 0.01  A 
BRANCH 31 34
ATOM     34 OH   TYR Q   5      15.610 -10.322  12.825  1.00 28.49 LIG-0.36  OA
ATOM     35 HH   TYR Q   5      16.091 -10.151  12.158  1.00 28.49 LIG 0.22  HD
ENDBRANCH 31 34
ENDBRANCH 27 28
ENDBRANCH 17 27
ENDBRANCH 15 17
ENDBRANCH 5 13
ENDBRANCH 3 5
BRANCH 1 36
ATOM     36  CA  GLU Q   3      14.344 -14.046  17.740  1.00 29.75 LIG 0.18  C 
BRANCH 36 37
ATOM     37  CB  GLU Q   3      12.839 -13.850  17.981  1.00 29.86 LIG 0.04  C 
BRANCH 37 38
ATOM     38  CG  GLU Q   3      12.363 -13.326  19.327  1.00 30.70 LIG 0.12  C 
BRANCH 38 39
ATOM     39  CD  GLU Q   3      12.813 -11.891  19.557  1.00 35.33 LIG 0.17  C 
ATOM     40 OE1  GLU Q   3      12.877 -11.163  18.537  1.00 35.34 LIG-0.65  OA
ATOM     41 OE2  GLU Q   3      13.112 -11.508  20.723  1.00 35.74 LIG-0.65  OA
ENDBRANCH 38 39
ENDBRANCH 37 38
ENDBRANCH 36 37
BRANCH 36 42
ATOM     42  N   GLU Q   3      15.115 -12.857  18.116  1.00 32.75 LIG-0.35  N 
ATOM     43  C   ASN Q   2      16.446 -12.892  18.222  1.00 36.04 LIG 0.24  C 
ATOM     44 O    ASN Q   2      17.096 -13.935  18.049  1.00 34.76 LIG-0.27  OA
ATOM     45 H    GLU Q   3      14.639 -12.155  18.257  1.00 32.75 LIG 0.16  HD
BRANCH 43 46
ATOM     46  CA  ASN Q   2      17.149 -11.551  18.521  1.00 38.34 LIG 0.18  C 
BRANCH 46 47
ATOM     47  CB  ASN Q   2      17.787 -11.550  19.920  1.00 38.76 LIG 0.14  C 
BRANCH 47 48
ATOM     48  CG  ASN Q   2      16.998 -12.389  20.934  1.00 42.06 LIG 0.22  C 
ATOM     49  ND2 ASN Q   2      17.385 -13.648  21.085  1.00 46.27 LIG-0.37  N 
ATOM     50 22HD ASN Q   2      18.038 -13.956  20.619  1.00 46.27 LIG 0.16  HD
ATOM     51 21HD ASN Q   2      16.982 -14.157  21.650  1.00 46.27 LIG 0.16  HD
ATOM     52 OD1  ASN Q   2      16.066 -11.906  21.582  1.00 44.45 LIG-0.27  OA
ENDBRANCH 47 48
ENDBRANCH 46 47
BRANCH 46 53
ATOM     53  N   ASN Q   2      16.301 -10.373  18.323  1.00 39.54 LIG-0.34  N 
ATOM     54  C   THR Q   1      15.829  -9.970  17.149  1.00 41.49 LIG 0.25  C 
ATOM     55 O    THR Q   1      15.941 -10.631  16.116  1.00 41.78 LIG-0.27  OA
ATOM     56 H    ASN Q   2      16.132  -9.954  19.055  1.00 39.54 LIG 0.16  HD
BRANCH 54 57
ATOM     57  CA  THR Q   1      15.068  -8.637  17.141  1.00 43.16 LIG 0.30  C 
BRANCH 57 58
ATOM     58  CB  THR Q   1      15.402  -7.762  18.376  1.00 43.89 LIG 0.15  C 
ATOM     59  CG2 THR Q   1      15.093  -6.306  18.087  1.00 45.05 LIG 0.04  C 
BRANCH 58 60
ATOM     60 OG1  THR Q   1      14.559  -8.101  19.494  1.00 46.29 LIG-0.39  OA
ATOM     61 HG1  THR Q   1      13.781  -7.814  19.356  1.00 46.29 LIG 0.21  HD
ENDBRANCH 58 60
ENDBRANCH 57 58
BRANCH 57 62
ATOM     62  N   THR Q   1      13.583  -8.853  17.081  1.00 43.28 LIG-0.06  N 
ATOM     63 H2   THR Q   1      13.409  -9.727  17.089  1.00 43.28 LIG 0.28  HD
ATOM     64 H1   THR Q   1      13.260  -8.494  16.332  1.00 43.28 LIG 0.28  HD
ATOM     65 H3   THR Q   1      13.198  -8.469  17.784  1.00 43.28 LIG 0.28  HD
ENDBRANCH 57 62
ENDBRANCH 54 57
ENDBRANCH 46 53
ENDBRANCH 43 46
ENDBRANCH 36 42
ENDBRANCH 1 36
TORSDOF 24
ENDMDL
MODEL 21
USER: ADFR SOLUTION from run 189
USER: SCORE 19.837855 LL:  -6.245 LR: -16.425 RR:   0.000 FEB:  -9.266
USER: RMSD 2.915699
USER: SEED 188
USER: STATUS no improvement in best in 13 clusters for 5 generations
USER: GENES 26
USER: genes 0 Translation |==|  0.50073 0.48233 0.57148
USER: genes 1 Rotation |==|  0.47689 0.47563 0.44164 0.99545
USER: genes 2 Torsion [C]-N--CA-[CB] |==|  0.28328
USER: genes 3 Torsion [N]-CA--CB-[CG] |==|  0.86238
USER: genes 4 Torsion [CA]-CB--CG-[CD1] |==|  0.73076
USER: genes 5 Torsion [N]-CA--C-[N] |==|  0.32814
USER: genes 6 Torsion [C]-N--CA-[C] |==|  0.73716
USER: genes 7 Torsion [N]-CA--C-[N] |==|  0.33467
USER: genes 8 Torsion [C]-N--CA-[CB] |==|  0.32355
USER: genes 9 Torsion [N]-CA--C-[O] |==|  0.98644
USER: genes 10 Torsion [N]-CA--CB-[CG] |==|  0.47569
USER: genes 11 Torsion [CA]-CB--CG-[CD2] |==|  0.61568
USER: genes 12 Torsion [CE1]-CZ--OH-[HH] |==|  0.49308
USER: genes 13 Torsion [N]-C--CA-[N] |==|  0.59603
USER: genes 14 Torsion [C]-CA--CB-[CG] |==|  0.46680
USER: genes 15 Torsion [CA]-CB--CG-[CD] |==|  0.10499
USER: genes 16 Torsion [CB]-CG--CD-[OE1] |==|  0.26505
USER: genes 17 Torsion [C]-CA--N-[C] |==|  0.18185
USER: genes 18 Torsion [N]-C--CA-[N] |==|  0.87675
USER: genes 19 Torsion [C]-CA--CB-[CG] |==|  0.34335
USER: genes 20 Torsion [CA]-CB--CG-[ND2] |==|  0.17214
USER: genes 21 Torsion [C]-CA--N-[C] |==|  0.20073
USER: genes 22 Torsion [N]-C--CA-[N] |==|  0.16826
USER: genes 23 Torsion [C]-CA--CB-[CG2] |==|  0.44595
USER: genes 24 Torsion [CA]-CB--OG1-[HG1] |==|  0.42865
USER: genes 25 Torsion [C]-CA--N-[H1] |==|  0.84945
ROOT
ATOM      1  C   GLU Q   3      14.920 -14.504  16.332  1.00 28.90 LIG 0.24  C 
ATOM      2 O    GLU Q   3      15.987 -14.140  15.823  1.00 28.99 LIG-0.27  OA
ATOM      3  N   PHE Q   4      14.188 -15.492  15.820  1.00 26.46 LIG-0.35  N 
ATOM      4 H    PHE Q   4      13.485 -15.801  16.209  1.00 26.46 LIG 0.16  HD
ENDROOT
BRANCH 3 5
ATOM      5  CA  PHE Q   4      14.488 -16.155  14.557  1.00 24.91 LIG 0.18  C 
BRANCH 5 6
ATOM      6  CB  PHE Q   4      15.153 -17.521  14.755  1.00 23.71 LIG 0.07  C 
BRANCH 6 7
ATOM      7  CG  PHE Q   4      16.328 -17.489  15.711  1.00 27.82 LIG-0.06  A 
ATOM      8  CD1 PHE Q   4      17.632 -17.391  15.242  1.00 28.27 LIG 0.01  A 
ATOM      9  CE1 PHE Q   4      18.711 -17.368  16.132  1.00 33.51 LIG 0.00  A 
ATOM     10  CZ  PHE Q   4      18.478 -17.401  17.495  1.00 29.48 LIG 0.00  A 
ATOM     11  CE2 PHE Q   4      17.202 -17.456  17.974  1.00 30.45 LIG 0.00  A 
ATOM     12  CD2 PHE Q   4      16.113 -17.527  17.081  1.00 30.03 LIG 0.01  A 
ENDBRANCH 6 7
ENDBRANCH 5 6
BRANCH 5 13
ATOM     13  C   PHE Q   4      13.203 -16.340  13.756  1.00 24.46 LIG 0.24  C 
ATOM     14 O    PHE Q   4      12.284 -17.054  14.163  1.00 21.72 LIG-0.27  OA
ATOM     15  N   TYR Q   5      13.198 -15.703  12.586  1.00 25.68 LIG-0.35  N 
ATOM     16 H    TYR Q   5      13.858 -15.217  12.328  1.00 25.68 LIG 0.16  HD
BRANCH 15 17
ATOM     17  CA  TYR Q   5      12.107 -15.740  11.611  1.00 24.76 LIG 0.18  C 
BRANCH 17 18
ATOM     18  C   TYR Q   5      12.444 -16.824  10.629  1.00 23.71 LIG 0.24  C 
ATOM     19  N   ALA Q   6      11.562 -17.809  10.534  1.00 23.95 LIG-0.34  N 
ATOM     20 H    ALA Q   6      10.847 -17.868  11.008  1.00 23.95 LIG 0.16  HD
ATOM     21 O    TYR Q   5      13.447 -16.751   9.911  1.00 22.91 LIG-0.27  OA
BRANCH 19 22
ATOM     22  CA  ALA Q   6      11.758 -18.891   9.588  1.00 23.91 LIG 0.18  C 
ATOM     23  CB  ALA Q   6      11.924 -20.200  10.329  1.00 25.24 LIG 0.04  C 
BRANCH 22 24
ATOM     24  C   ALA Q   6      10.661 -19.014   8.537  1.00 23.52 LIG 0.20  C 
ATOM     25 O    ALA Q   6       9.659 -18.317   8.553  1.00 23.09 LIG-0.65  OA
ATOM     26 OXT  ALA Q   6      10.781 -19.878   7.661  1.00 23.23 LIG-0.65  OA
ENDBRANCH 22 24
ENDBRANCH 19 22
ENDBRANCH 17 18
BRANCH 17 27
ATOM     27  CB  TYR Q   5      11.992 -14.378  10.887  1.00 25.21 LIG 0.07  C 
BRANCH 27 28
ATOM     28  CG  TYR Q   5      11.035 -14.348   9.705  1.00 26.66 LIG-0.06  A 
ATOM     29  CD1 TYR Q   5       9.794 -14.965   9.748  1.00 25.58 LIG 0.01  A 
ATOM     30  CE1 TYR Q   5       8.934 -14.937   8.635  1.00 26.73 LIG 0.04  A 
ATOM     31  CZ  TYR Q   5       9.319 -14.274   7.477  1.00 25.10 LIG 0.07  A 
ATOM     32  CE2 TYR Q   5      10.522 -13.632   7.426  1.00 24.98 LIG 0.04  A 
ATOM     33  CD2 TYR Q   5      11.384 -13.675   8.532  1.00 25.59 LIG 0.01  A 
BRANCH 31 34
ATOM     34 OH   TYR Q   5       8.486 -14.231   6.371  1.00 28.49 LIG-0.36  OA
ATOM     35 HH   TYR Q   5       8.843 -13.768   5.768  1.00 28.49 LIG 0.22  HD
ENDBRANCH 31 34
ENDBRANCH 27 28
ENDBRANCH 17 27
ENDBRANCH 15 17
ENDBRANCH 5 13
ENDBRANCH 3 5
BRANCH 1 36
ATOM     36  CA  GLU Q   3      14.415 -13.878  17.636  1.00 29.75 LIG 0.18  C 
BRANCH 36 37
ATOM     37  CB  GLU Q   3      12.913 -14.139  17.837  1.00 29.86 LIG 0.04  C 
BRANCH 37 38
ATOM     38  CG  GLU Q   3      12.281 -13.843  19.187  1.00 30.70 LIG 0.12  C 
BRANCH 38 39
ATOM     39  CD  GLU Q   3      12.867 -12.585  19.813  1.00 35.33 LIG 0.17  C 
ATOM     40 OE1  GLU Q   3      12.227 -11.523  19.620  1.00 35.34 LIG-0.65  OA
ATOM     41 OE2  GLU Q   3      13.947 -12.654  20.464  1.00 35.74 LIG-0.65  OA
ENDBRANCH 38 39
ENDBRANCH 37 38
ENDBRANCH 36 37
BRANCH 36 42
ATOM     42  N   GLU Q   3      14.725 -12.445  17.646  1.00 32.75 LIG-0.35  N 
ATOM     43  C   ASN Q   2      14.163 -11.603  16.775  1.00 36.04 LIG 0.24  C 
ATOM     44 O    ASN Q   2      13.382 -11.990  15.890  1.00 34.76 LIG-0.27  OA
ATOM     45 H    GLU Q   3      15.289 -12.208  18.249  1.00 32.75 LIG 0.16  HD
BRANCH 43 46
ATOM     46  CA  ASN Q   2      14.491 -10.106  16.954  1.00 38.34 LIG 0.18  C 
BRANCH 46 47
ATOM     47  CB  ASN Q   2      15.834  -9.741  16.301  1.00 38.76 LIG 0.14  C 
BRANCH 47 48
ATOM     48  CG  ASN Q   2      15.706  -8.614  15.268  1.00 42.06 LIG 0.22  C 
ATOM     49  ND2 ASN Q   2      15.281  -7.443  15.722  1.00 46.27 LIG-0.37  N 
ATOM     50 22HD ASN Q   2      15.084  -7.350  16.554  1.00 46.27 LIG 0.16  HD
ATOM     51 21HD ASN Q   2      15.202  -6.775  15.185  1.00 46.27 LIG 0.16  HD
ATOM     52 OD1  ASN Q   2      15.999  -8.791  14.083  1.00 44.45 LIG-0.27  OA
ENDBRANCH 47 48
ENDBRANCH 46 47
BRANCH 46 53
ATOM     53  N   ASN Q   2      14.431  -9.642  18.343  1.00 39.54 LIG-0.34  N 
ATOM     54  C   THR Q   1      15.323  -9.943  19.280  1.00 41.49 LIG 0.25  C 
ATOM     55 O    THR Q   1      16.376 -10.535  19.040  1.00 41.78 LIG-0.27  OA
ATOM     56 H    ASN Q   2      13.748  -9.143  18.501  1.00 39.54 LIG 0.16  HD
BRANCH 54 57
ATOM     57  CA  THR Q   1      15.006  -9.463  20.703  1.00 43.16 LIG 0.30  C 
BRANCH 57 58
ATOM     58  CB  THR Q   1      16.144  -9.795  21.702  1.00 43.89 LIG 0.15  C 
ATOM     59  CG2 THR Q   1      16.032  -8.919  22.935  1.00 45.05 LIG 0.04  C 
BRANCH 58 60
ATOM     60 OG1  THR Q   1      16.023 -11.142  22.197  1.00 46.29 LIG-0.39  OA
ATOM     61 HG1  THR Q   1      16.778 -11.424  22.432  1.00 46.29 LIG 0.21  HD
ENDBRANCH 58 60
ENDBRANCH 57 58
BRANCH 57 62
ATOM     62  N   THR Q   1      13.722 -10.054  21.208  1.00 43.28 LIG-0.06  N 
ATOM     63 H2   THR Q   1      13.815 -10.935  21.298  1.00 43.28 LIG 0.28  HD
ATOM     64 H1   THR Q   1      13.068  -9.883  20.629  1.00 43.28 LIG 0.28  HD
ATOM     65 H3   THR Q   1      13.520  -9.696  21.997  1.00 43.28 LIG 0.28  HD
ENDBRANCH 57 62
ENDBRANCH 54 57
ENDBRANCH 46 53
ENDBRANCH 43 46
ENDBRANCH 36 42
ENDBRANCH 1 36
TORSDOF 24
ENDMDL
MODEL 22
USER: ADFR SOLUTION from run 181
USER: SCORE 19.230030 LL:  -5.068 LR: -16.419 RR:   0.000 FEB:  -9.259
USER: RMSD 3.697324
USER: SEED 180
USER: STATUS searching
USER: GENES 26
USER: genes 0 Translation |==|  0.46244 0.49540 0.58417
USER: genes 1 Rotation |==|  0.51262 0.46360 0.49704 0.99850
USER: genes 2 Torsion [C]-N--CA-[CB] |==|  0.27909
USER: genes 3 Torsion [N]-CA--CB-[CG] |==|  0.52316
USER: genes 4 Torsion [CA]-CB--CG-[CD1] |==|  0.76293
USER: genes 5 Torsion [N]-CA--C-[N] |==|  0.33564
USER: genes 6 Torsion [C]-N--CA-[C] |==|  0.76582
USER: genes 7 Torsion [N]-CA--C-[N] |==|  0.38674
USER: genes 8 Torsion [C]-N--CA-[CB] |==|  0.25181
USER: genes 9 Torsion [N]-CA--C-[O] |==|  0.97203
USER: genes 10 Torsion [N]-CA--CB-[CG] |==|  0.47647
USER: genes 11 Torsion [CA]-CB--CG-[CD2] |==|  0.61070
USER: genes 12 Torsion [CE1]-CZ--OH-[HH] |==|  0.18610
USER: genes 13 Torsion [N]-C--CA-[N] |==|  0.36677
USER: genes 14 Torsion [C]-CA--CB-[CG] |==|  0.38918
USER: genes 15 Torsion [CA]-CB--CG-[CD] |==|  0.11024
USER: genes 16 Torsion [CB]-CG--CD-[OE1] |==|  0.12427
USER: genes 17 Torsion [C]-CA--N-[C] |==|  0.84040
USER: genes 18 Torsion [N]-C--CA-[N] |==|  0.50277
USER: genes 19 Torsion [C]-CA--CB-[CG] |==|  0.23028
USER: genes 20 Torsion [CA]-CB--CG-[ND2] |==|  0.64082
USER: genes 21 Torsion [C]-CA--N-[C] |==|  0.16111
USER: genes 22 Torsion [N]-C--CA-[N] |==|  0.14170
USER: genes 23 Torsion [C]-CA--CB-[CG2] |==|  0.21010
USER: genes 24 Torsion [CA]-CB--OG1-[HG1] |==|  0.67250
USER: genes 25 Torsion [C]-CA--N-[H1] |==|  0.34521
ROOT
ATOM      1  C   GLU Q   3      14.174 -14.239  16.666  1.00 28.90 LIG 0.24  C 
ATOM      2 O    GLU Q   3      15.146 -13.581  16.276  1.00 28.99 LIG-0.27  OA
ATOM      3  N   PHE Q   4      13.710 -15.291  15.991  1.00 26.46 LIG-0.35  N 
ATOM      4 H    PHE Q   4      13.084 -15.798  16.292  1.00 26.46 LIG 0.16  HD
ENDROOT
BRANCH 3 5
ATOM      5  CA  PHE Q   4      14.204 -15.699  14.682  1.00 24.91 LIG 0.18  C 
BRANCH 5 6
ATOM      6  CB  PHE Q   4      15.188 -16.871  14.765  1.00 23.71 LIG 0.07  C 
BRANCH 6 7
ATOM      7  CG  PHE Q   4      15.867 -17.184  13.448  1.00 27.82 LIG-0.06  A 
ATOM      8  CD1 PHE Q   4      15.267 -18.013  12.510  1.00 28.27 LIG 0.01  A 
ATOM      9  CE1 PHE Q   4      15.905 -18.303  11.299  1.00 33.51 LIG 0.00  A 
ATOM     10  CZ  PHE Q   4      17.129 -17.723  11.012  1.00 29.48 LIG 0.00  A 
ATOM     11  CE2 PHE Q   4      17.714 -16.873  11.904  1.00 30.45 LIG 0.00  A 
ATOM     12  CD2 PHE Q   4      17.097 -16.616  13.147  1.00 30.03 LIG 0.01  A 
ENDBRANCH 6 7
ENDBRANCH 5 6
BRANCH 5 13
ATOM     13  C   PHE Q   4      13.031 -16.097  13.792  1.00 24.46 LIG 0.24  C 
ATOM     14 O    PHE Q   4      12.282 -17.031  14.088  1.00 21.72 LIG-0.27  OA
ATOM     15  N   TYR Q   5      12.932 -15.380  12.674  1.00 25.68 LIG-0.35  N 
ATOM     16 H    TYR Q   5      13.474 -14.737  12.494  1.00 25.68 LIG 0.16  HD
BRANCH 15 17
ATOM     17  CA  TYR Q   5      11.921 -15.576  11.633  1.00 24.76 LIG 0.18  C 
BRANCH 17 18
ATOM     18  C   TYR Q   5      12.435 -16.662  10.734  1.00 23.71 LIG 0.24  C 
ATOM     19  N   ALA Q   6      11.535 -17.544  10.324  1.00 23.95 LIG-0.34  N 
ATOM     20 H    ALA Q   6      10.707 -17.539  10.560  1.00 23.95 LIG 0.16  HD
ATOM     21 O    TYR Q   5      13.610 -16.676  10.351  1.00 22.91 LIG-0.27  OA
BRANCH 19 22
ATOM     22  CA  ALA Q   6      11.904 -18.614   9.416  1.00 23.91 LIG 0.18  C 
ATOM     23  CB  ALA Q   6      12.331 -19.833  10.204  1.00 25.24 LIG 0.04  C 
BRANCH 22 24
ATOM     24  C   ALA Q   6      10.822 -18.987   8.410  1.00 23.52 LIG 0.20  C 
ATOM     25 O    ALA Q   6       9.682 -18.558   8.487  1.00 23.09 LIG-0.65  OA
ATOM     26 OXT  ALA Q   6      11.108 -19.780   7.507  1.00 23.23 LIG-0.65  OA
ENDBRANCH 22 24
ENDBRANCH 19 22
ENDBRANCH 17 18
BRANCH 17 27
ATOM     27  CB  TYR Q   5      11.719 -14.267  10.832  1.00 25.21 LIG 0.07  C 
BRANCH 27 28
ATOM     28  CG  TYR Q   5      10.844 -14.392   9.595  1.00 26.66 LIG-0.06  A 
ATOM     29  CD1 TYR Q   5       9.689 -15.160   9.585  1.00 25.58 LIG 0.01  A 
ATOM     30  CE1 TYR Q   5       8.905 -15.271   8.421  1.00 26.73 LIG 0.04  A 
ATOM     31  CZ  TYR Q   5       9.278 -14.597   7.266  1.00 25.10 LIG 0.07  A 
ATOM     32  CE2 TYR Q   5      10.392 -13.808   7.265  1.00 24.98 LIG 0.04  A 
ATOM     33  CD2 TYR Q   5      11.179 -13.711   8.422  1.00 25.59 LIG 0.01  A 
BRANCH 31 34
ATOM     34 OH   TYR Q   5       8.519 -14.689   6.111  1.00 28.49 LIG-0.36  OA
ATOM     35 HH   TYR Q   5       7.775 -14.318   6.234  1.00 28.49 LIG 0.22  HD
ENDBRANCH 31 34
ENDBRANCH 27 28
ENDBRANCH 17 27
ENDBRANCH 15 17
ENDBRANCH 5 13
ENDBRANCH 3 5
BRANCH 1 36
ATOM     36  CA  GLU Q   3      13.487 -13.919  17.997  1.00 29.75 LIG 0.18  C 
BRANCH 36 37
ATOM     37  CB  GLU Q   3      12.542 -12.714  17.865  1.00 29.86 LIG 0.04  C 
BRANCH 37 38
ATOM     38  CG  GLU Q   3      11.201 -12.738  18.581  1.00 30.70 LIG 0.12  C 
BRANCH 38 39
ATOM     39  CD  GLU Q   3      11.320 -13.357  19.966  1.00 35.33 LIG 0.17  C 
ATOM     40 OE1  GLU Q   3      12.298 -12.980  20.656  1.00 35.34 LIG-0.65  OA
ATOM     41 OE2  GLU Q   3      10.470 -14.211  20.346  1.00 35.74 LIG-0.65  OA
ENDBRANCH 38 39
ENDBRANCH 37 38
ENDBRANCH 36 37
BRANCH 36 42
ATOM     42  N   GLU Q   3      14.502 -13.704  19.033  1.00 32.75 LIG-0.35  N 
ATOM     43  C   ASN Q   2      15.407 -14.641  19.329  1.00 36.04 LIG 0.24  C 
ATOM     44 O    ASN Q   2      15.415 -15.752  18.776  1.00 34.76 LIG-0.27  OA
ATOM     45 H    GLU Q   3      14.459 -12.938  19.420  1.00 32.75 LIG 0.16  HD
BRANCH 43 46
ATOM     46  CA  ASN Q   2      16.486 -14.254  20.363  1.00 38.34 LIG 0.18  C 
BRANCH 46 47
ATOM     47  CB  ASN Q   2      17.180 -12.935  19.987  1.00 38.76 LIG 0.14  C 
BRANCH 47 48
ATOM     48  CG  ASN Q   2      16.388 -11.698  20.433  1.00 42.06 LIG 0.22  C 
ATOM     49  ND2 ASN Q   2      16.170 -10.773  19.509  1.00 46.27 LIG-0.37  N 
ATOM     50 22HD ASN Q   2      16.477 -10.879  18.713  1.00 46.27 LIG 0.16  HD
ATOM     51 21HD ASN Q   2      15.722 -10.065  19.706  1.00 46.27 LIG 0.16  HD
ATOM     52 OD1  ASN Q   2      15.967 -11.586  21.587  1.00 44.45 LIG-0.27  OA
ENDBRANCH 47 48
ENDBRANCH 46 47
BRANCH 46 53
ATOM     53  N   ASN Q   2      17.465 -15.311  20.632  1.00 39.54 LIG-0.34  N 
ATOM     54  C   THR Q   1      18.236 -15.879  19.712  1.00 41.49 LIG 0.25  C 
ATOM     55 O    THR Q   1      18.308 -15.473  18.551  1.00 41.78 LIG-0.27  OA
ATOM     56 H    ASN Q   2      17.495 -15.538  21.461  1.00 39.54 LIG 0.16  HD
BRANCH 54 57
ATOM     57  CA  THR Q   1      19.101 -17.058  20.179  1.00 43.16 LIG 0.30  C 
BRANCH 57 58
ATOM     58  CB  THR Q   1      19.841 -17.747  19.004  1.00 43.89 LIG 0.15  C 
ATOM     59  CG2 THR Q   1      21.015 -16.898  18.555  1.00 45.05 LIG 0.04  C 
BRANCH 58 60
ATOM     60 OG1  THR Q   1      20.428 -18.994  19.421  1.00 46.29 LIG-0.39  OA
ATOM     61 HG1  THR Q   1      21.263 -18.954  19.334  1.00 46.29 LIG 0.21  HD
ENDBRANCH 58 60
ENDBRANCH 57 58
BRANCH 57 62
ATOM     62  N   THR Q   1      18.281 -18.083  20.910  1.00 43.28 LIG-0.06  N 
ATOM     63 H2   THR Q   1      18.552 -18.131  21.756  1.00 43.28 LIG 0.28  HD
ATOM     64 H1   THR Q   1      18.382 -18.877  20.520  1.00 43.28 LIG 0.28  HD
ATOM     65 H3   THR Q   1      17.423 -17.848  20.886  1.00 43.28 LIG 0.28  HD
ENDBRANCH 57 62
ENDBRANCH 54 57
ENDBRANCH 46 53
ENDBRANCH 43 46
ENDBRANCH 36 42
ENDBRANCH 1 36
TORSDOF 24
ENDMDL
