MODEL 1
USER: ADFR SOLUTION from run 53
USER: SCORE 18.365882 LL:  -4.494 LR: -17.736 RR:   0.000 FEB:  -9.682
USER: RMSD 2.638812
USER: SEED 52
USER: STATUS no improvement in best in 3 clusters for 5 generations
USER: GENES 29
USER: genes 0 Translation |==|  0.52269 0.43214 0.55920
USER: genes 1 Rotation |==|  0.48916 0.50714 0.52497 0.99921
USER: genes 2 Torsion [CB]-CA--N-[C] |==|  0.49444
USER: genes 3 Torsion [N]-C--CA-[N] |==|  0.36716
USER: genes 4 Torsion [C]-CA--N-[C] |==|  0.75844
USER: genes 5 Torsion [N]-C--CA-[N] |==|  0.09339
USER: genes 6 Torsion [C]-CA--CB-[CG] |==|  0.60115
USER: genes 7 Torsion [CA]-CB--CG-[CD] |==|  0.35240
USER: genes 8 Torsion [CB]-CG--CD-[NE] |==|  0.14153
USER: genes 9 Torsion [CG]-CD--NE-[CZ] |==|  0.26519
USER: genes 10 Torsion [C]-CA--CB-[CG] |==|  0.78298
USER: genes 11 Torsion [CA]-CB--CG-[CD] |==|  0.60477
USER: genes 12 Torsion [CB]-CG--CD-[OE1] |==|  0.12016
USER: genes 13 Torsion [N]-CA--CB-[CG] |==|  0.78180
USER: genes 14 Torsion [CA]-CB--CG-[CD2] |==|  0.41781
USER: genes 15 Torsion [N]-CA--C-[N] |==|  0.44328
USER: genes 16 Torsion [C]-N--CA-[CB] |==|  0.38098
USER: genes 17 Torsion [N]-CA--CB-[CG1] |==|  0.51532
USER: genes 18 Torsion [N]-CA--C-[N] |==|  0.34737
USER: genes 19 Torsion [C]-N--CA-[CB] |==|  0.53398
USER: genes 20 Torsion [N]-CA--CB-[CG] |==|  0.67102
USER: genes 21 Torsion [CA]-CB--CG-[CD1] |==|  0.62705
USER: genes 22 Torsion [N]-CA--C-[N] |==|  0.91117
USER: genes 23 Torsion [C]-N--CA-[C] |==|  0.33246
USER: genes 24 Torsion [N]-CA--C-[N] |==|  0.06102
USER: genes 25 Torsion [C]-N--CA-[CB] |==|  0.29094
USER: genes 26 Torsion [N]-CA--CB-[CG] |==|  0.89977
USER: genes 27 Torsion [CA]-CB--CG-[CD1] |==|  0.32611
USER: genes 28 Torsion [N]-CA--C-[O] |==|  0.56434
ROOT
ATOM      1  CA  LEU C  12      -0.120   4.497  33.460  0.76 25.89 LIG 0.18  C 
ENDROOT
BRANCH 1 2
ATOM      2  N   LEU C  12      -0.695   3.469  32.602  0.76 24.12 LIG-0.35  N 
ATOM      3 H    LEU C  12      -0.432   2.671  32.782  0.76 24.12 LIG 0.16  HD
ATOM      4  C   GLN C  11      -1.551   3.765  31.628  0.76 26.11 LIG 0.24  C 
ATOM      5 O    GLN C  11      -1.924   4.917  31.389  0.76 27.34 LIG-0.27  OA
BRANCH 4 6
ATOM      6  CA  GLN C  11      -2.046   2.588  30.791  0.76 26.16 LIG 0.18  C 
BRANCH 6 7
ATOM      7  N   GLN C  11      -3.490   2.555  30.597  0.76 28.86 LIG-0.35  N 
ATOM      8  C   ARG C  10      -4.324   1.978  31.455  0.76 30.48 LIG 0.26  C 
ATOM      9 O    ARG C  10      -3.955   1.448  32.506  0.76 24.30 LIG-0.27  OA
ATOM     10 H    GLN C  11      -3.752   2.943  29.875  0.76 28.86 LIG 0.16  HD
BRANCH 8 11
ATOM     11  CA  ARG C  10      -5.810   2.022  31.070  0.76 33.62 LIG 0.40  C 
ATOM     12  N   ARG C  10      -5.990   1.943  29.590  0.76 36.52 LIG 0.61  N 
BRANCH 11 13
ATOM     13  CB  ARG C  10      -6.534   0.858  31.747  0.76 36.98 LIG 0.05  C 
BRANCH 13 14
ATOM     14  CG  ARG C  10      -7.649   0.208  30.921  0.76 39.40 LIG 0.02  C 
BRANCH 14 15
ATOM     15  CD  ARG C  10      -7.473  -1.302  30.799  0.76 42.42 LIG 0.14  C 
BRANCH 15 16
ATOM     16  NE  ARG C  10      -7.267  -1.931  32.103  0.76 44.78 LIG-0.23  N 
ATOM     17  CZ  ARG C  10      -8.227  -2.484  32.839  0.76 45.62 LIG 0.67  C 
ATOM     18  NH2 ARG C  10      -7.926  -3.046  34.002  0.76 46.43 LIG-0.23  N 
ATOM     19  NH1 ARG C  10      -9.482  -2.491  32.412  0.76 45.50 LIG-0.23  N 
ATOM     20 2HH2 ARG C  10      -8.545  -3.405  34.480  0.76 46.43 LIG 0.17  HD
ATOM     21 1HH2 ARG C  10      -7.111  -3.052  34.279  0.76 46.43 LIG 0.17  HD
ATOM     22 2HH1 ARG C  10     -10.099  -2.850  32.892  0.76 45.50 LIG 0.17  HD
ATOM     23 1HH1 ARG C  10      -9.680  -2.136  31.653  0.76 45.50 LIG 0.17  HD
ATOM     24 HE   ARG C  10      -6.467  -1.944  32.417  0.76 44.78 LIG 0.18  HD
ENDBRANCH 15 16
ENDBRANCH 14 15
ENDBRANCH 13 14
ENDBRANCH 11 13
ENDBRANCH 8 11
ENDBRANCH 6 7
BRANCH 6 25
ATOM     25  CB  GLN C  11      -1.345   2.621  29.431  0.76 25.68 LIG 0.04  C 
BRANCH 25 26
ATOM     26  CG  GLN C  11      -1.920   3.642  28.467  0.76 22.66 LIG 0.10  C 
BRANCH 26 27
ATOM     27  CD  GLN C  11      -1.939   3.128  27.051  0.76 24.13 LIG 0.21  C 
ATOM     28 OE1  GLN C  11      -2.302   1.973  26.805  0.76 19.83 LIG-0.27  OA
ATOM     29  NE2 GLN C  11      -1.551   3.978  26.105  0.76 21.86 LIG-0.37  N 
ATOM     30 21HE GLN C  11      -1.305   4.775  26.317  0.76 21.86 LIG 0.16  HD
ATOM     31 22HE GLN C  11      -1.545   3.732  25.281  0.76 21.86 LIG 0.16  HD
ENDBRANCH 26 27
ENDBRANCH 25 26
ENDBRANCH 6 25
ENDBRANCH 4 6
ENDBRANCH 1 2
BRANCH 1 32
ATOM     32  CB  LEU C  12       0.788   3.859  34.518  0.76 24.07 LIG 0.04  C 
BRANCH 32 33
ATOM     33  CG  LEU C  12       0.077   3.222  35.718  0.76 21.16 LIG-0.02  C 
ATOM     34  CD1 LEU C  12      -1.296   2.741  35.274  0.76 25.64 LIG 0.01  C 
ATOM     35  CD2 LEU C  12       0.900   2.060  36.271  0.76 25.10 LIG 0.01  C 
ENDBRANCH 32 33
ENDBRANCH 1 32
BRANCH 1 36
ATOM     36  C   LEU C  12       0.679   5.448  32.565  0.76 25.30 LIG 0.24  C 
ATOM     37 O    LEU C  12       1.058   5.082  31.448  0.76 25.87 LIG-0.27  OA
ATOM     38  N   VAL C  13       0.935   6.663  33.048  0.76 25.62 LIG-0.35  N 
ATOM     39 H    VAL C  13       0.701   6.933  33.831  0.76 25.62 LIG 0.16  HD
BRANCH 38 40
ATOM     40  CA  VAL C  13       1.658   7.650  32.249  0.76 24.99 LIG 0.18  C 
BRANCH 40 41
ATOM     41  CB  VAL C  13       1.009   9.051  32.367  0.76 27.65 LIG 0.01  C 
ATOM     42  CG1 VAL C  13       1.697  10.029  31.420  0.76 28.12 LIG 0.01  C 
ATOM     43  CG2 VAL C  13      -0.472   8.968  32.051  0.76 27.69 LIG 0.01  C 
ENDBRANCH 40 41
BRANCH 40 44
ATOM     44  C   VAL C  13       3.138   7.787  32.589  0.76 25.58 LIG 0.24  C 
ATOM     45  N   LEU C  14       3.973   7.629  31.571  0.76 25.74 LIG-0.35  N 
ATOM     46 H    LEU C  14       3.722   7.460  30.766  0.76 25.74 LIG 0.16  HD
ATOM     47 O    VAL C  13       3.520   8.038  33.732  0.76 23.74 LIG-0.27  OA
BRANCH 45 48
ATOM     48  CA  LEU C  14       5.416   7.732  31.743  0.76 27.54 LIG 0.18  C 
BRANCH 48 49
ATOM     49  CB  LEU C  14       6.107   7.810  30.378  0.76 27.94 LIG 0.04  C 
BRANCH 49 50
ATOM     50  CG  LEU C  14       7.085   6.689  30.027  0.76 29.52 LIG-0.02  C 
ATOM     51  CD2 LEU C  14       7.386   5.862  31.274  0.76 29.01 LIG 0.01  C 
ATOM     52  CD1 LEU C  14       8.352   7.294  29.447  0.76 31.53 LIG 0.01  C 
ENDBRANCH 49 50
ENDBRANCH 48 49
BRANCH 48 53
ATOM     53  C   LEU C  14       5.828   8.950  32.556  0.76 27.94 LIG 0.24  C 
ATOM     54  N   GLY C  15       5.047  10.015  32.430  0.76 27.74 LIG-0.35  N 
ATOM     55 H    GLY C  15       4.365  10.060  31.908  0.76 27.74 LIG 0.16  HD
ATOM     56 O    LEU C  14       6.832   8.928  33.277  0.76 29.25 LIG-0.27  OA
BRANCH 54 57
ATOM     57  CA  GLY C  15       5.314  11.216  33.200  0.76 32.19 LIG 0.23  C 
BRANCH 57 58
ATOM     58  C   GLY C  15       5.564  12.329  32.194  0.76 34.72 LIG 0.24  C 
ATOM     59  N   LEU C  16       5.067  12.138  30.977  0.76 34.76 LIG-0.34  N 
ATOM     60 H    LEU C  16       4.612  11.444  30.753  0.76 34.76 LIG 0.16  HD
ATOM     61 O    GLY C  15       6.202  13.333  32.510  0.76 36.88 LIG-0.27  OA
BRANCH 59 62
ATOM     62  CA  LEU C  16       5.251  13.103  29.897  0.76 35.63 LIG 0.18  C 
BRANCH 62 63
ATOM     63  CB  LEU C  16       6.298  12.575  28.916  0.76 32.88 LIG 0.04  C 
BRANCH 63 64
ATOM     64  CG  LEU C  16       7.437  11.804  29.586  0.76 27.62 LIG-0.02  C 
ATOM     65  CD1 LEU C  16       7.449  10.360  29.108  0.76 29.42 LIG 0.01  C 
ATOM     66  CD2 LEU C  16       8.757  12.490  29.279  0.76 30.85 LIG 0.01  C 
ENDBRANCH 63 64
ENDBRANCH 62 63
BRANCH 62 67
ATOM     67  C   LEU C  16       3.970  13.454  29.153  0.76 36.84 LIG 0.20  C 
ATOM     68 O    LEU C  16       4.074  13.895  27.985  0.76 37.63 LIG-0.65  OA
ATOM     69 OXT  LEU C  16       2.882  13.285  29.744  0.76 38.60 LIG-0.65  OA
ENDBRANCH 62 67
ENDBRANCH 59 62
ENDBRANCH 57 58
ENDBRANCH 54 57
ENDBRANCH 48 53
ENDBRANCH 45 48
ENDBRANCH 40 44
ENDBRANCH 38 40
ENDBRANCH 1 36
TORSDOF 27
ENDMDL
MODEL 2
USER: ADFR SOLUTION from run 71
USER: SCORE 18.073727 LL:  -4.055 LR: -17.691 RR:   0.000 FEB:  -9.637
USER: RMSD 3.153900
USER: SEED 70
USER: STATUS searching
USER: GENES 29
USER: genes 0 Translation |==|  0.53021 0.45428 0.59567
USER: genes 1 Rotation |==|  0.47606 0.48084 0.52734 0.99831
USER: genes 2 Torsion [CB]-CA--N-[C] |==|  0.47799
USER: genes 3 Torsion [N]-C--CA-[N] |==|  0.34285
USER: genes 4 Torsion [C]-CA--N-[C] |==|  0.78149
USER: genes 5 Torsion [N]-C--CA-[N] |==|  0.08157
USER: genes 6 Torsion [C]-CA--CB-[CG] |==|  0.31491
USER: genes 7 Torsion [CA]-CB--CG-[CD] |==|  0.35488
USER: genes 8 Torsion [CB]-CG--CD-[NE] |==|  0.36291
USER: genes 9 Torsion [CG]-CD--NE-[CZ] |==|  0.67865
USER: genes 10 Torsion [C]-CA--CB-[CG] |==|  0.26306
USER: genes 11 Torsion [CA]-CB--CG-[CD] |==|  0.28428
USER: genes 12 Torsion [CB]-CG--CD-[OE1] |==|  0.07039
USER: genes 13 Torsion [N]-CA--CB-[CG] |==|  0.00389
USER: genes 14 Torsion [CA]-CB--CG-[CD2] |==|  0.79226
USER: genes 15 Torsion [N]-CA--C-[N] |==|  0.45427
USER: genes 16 Torsion [C]-N--CA-[CB] |==|  0.44007
USER: genes 17 Torsion [N]-CA--CB-[CG1] |==|  0.10234
USER: genes 18 Torsion [N]-CA--C-[N] |==|  0.38197
USER: genes 19 Torsion [C]-N--CA-[CB] |==|  0.37832
USER: genes 20 Torsion [N]-CA--CB-[CG] |==|  0.57574
USER: genes 21 Torsion [CA]-CB--CG-[CD1] |==|  0.69162
USER: genes 22 Torsion [N]-CA--C-[N] |==|  0.89138
USER: genes 23 Torsion [C]-N--CA-[C] |==|  0.58285
USER: genes 24 Torsion [N]-CA--C-[N] |==|  0.53804
USER: genes 25 Torsion [C]-N--CA-[CB] |==|  0.43879
USER: genes 26 Torsion [N]-CA--CB-[CG] |==|  0.90131
USER: genes 27 Torsion [CA]-CB--CG-[CD1] |==|  0.45480
USER: genes 28 Torsion [N]-CA--C-[O] |==|  0.10380
ROOT
ATOM      1  CA  LEU C  12       0.105   5.095  34.062  0.76 25.89 LIG 0.18  C 
ENDROOT
BRANCH 1 2
ATOM      2  N   LEU C  12      -0.363   4.020  33.197  0.76 24.12 LIG-0.35  N 
ATOM      3 H    LEU C  12      -0.049   3.244  33.394  0.76 24.12 LIG 0.16  HD
ATOM      4  C   GLN C  11      -1.206   4.243  32.193  0.76 26.11 LIG 0.24  C 
ATOM      5 O    GLN C  11      -1.655   5.362  31.929  0.76 27.34 LIG-0.27  OA
BRANCH 4 6
ATOM      6  CA  GLN C  11      -1.585   3.025  31.354  0.76 26.16 LIG 0.18  C 
BRANCH 6 7
ATOM      7  N   GLN C  11      -3.018   2.769  31.280  0.76 28.86 LIG-0.35  N 
ATOM      8  C   ARG C  10      -3.701   2.184  32.257  0.76 30.48 LIG 0.26  C 
ATOM      9 O    ARG C  10      -3.191   1.834  33.325  0.76 24.30 LIG-0.27  OA
ATOM     10 H    GLN C  11      -3.380   3.032  30.545  0.76 28.86 LIG 0.16  HD
BRANCH 8 11
ATOM     11  CA  ARG C  10      -5.199   1.976  31.991  0.76 33.62 LIG 0.40  C 
ATOM     12  N   ARG C  10      -5.472   1.806  30.533  0.76 36.52 LIG 0.61  N 
BRANCH 11 13
ATOM     13  CB  ARG C  10      -5.675   0.743  32.758  0.76 36.98 LIG 0.05  C 
BRANCH 13 14
ATOM     14  CG  ARG C  10      -6.666   1.017  33.894  0.76 39.40 LIG 0.02  C 
BRANCH 14 15
ATOM     15  CD  ARG C  10      -7.922   0.159  33.785  0.76 42.42 LIG 0.14  C 
BRANCH 15 16
ATOM     16  NE  ARG C  10      -8.238  -0.503  35.050  0.76 44.78 LIG-0.23  N 
ATOM     17  CZ  ARG C  10      -8.231  -1.819  35.241  0.76 45.62 LIG 0.67  C 
ATOM     18  NH2 ARG C  10      -8.516  -2.315  36.437  0.76 46.43 LIG-0.23  N 
ATOM     19  NH1 ARG C  10      -7.926  -2.641  34.245  0.76 45.50 LIG-0.23  N 
ATOM     20 2HH2 ARG C  10      -8.512  -3.166  36.563  0.76 46.43 LIG 0.17  HD
ATOM     21 1HH2 ARG C  10      -8.705  -1.785  37.088  0.76 46.43 LIG 0.17  HD
ATOM     22 2HH1 ARG C  10      -7.923  -3.492  34.375  0.76 45.50 LIG 0.17  HD
ATOM     23 1HH1 ARG C  10      -7.731  -2.324  33.470  0.76 45.50 LIG 0.17  HD
ATOM     24 HE   ARG C  10      -8.444  -0.005  35.720  0.76 44.78 LIG 0.18  HD
ENDBRANCH 15 16
ENDBRANCH 14 15
ENDBRANCH 13 14
ENDBRANCH 11 13
ENDBRANCH 8 11
ENDBRANCH 6 7
BRANCH 6 25
ATOM     25  CB  GLN C  11      -1.022   3.205  29.942  0.76 25.68 LIG 0.04  C 
BRANCH 25 26
ATOM     26  CG  GLN C  11       0.329   2.547  29.730  0.76 22.66 LIG 0.10  C 
BRANCH 26 27
ATOM     27  CD  GLN C  11       0.208   1.249  28.973  0.76 24.13 LIG 0.21  C 
ATOM     28 OE1  GLN C  11      -0.746   1.048  28.216  0.76 19.83 LIG-0.27  OA
ATOM     29  NE2 GLN C  11       1.174   0.357  29.169  0.76 21.86 LIG-0.37  N 
ATOM     30 21HE GLN C  11       1.823   0.534  29.706  0.76 21.86 LIG 0.16  HD
ATOM     31 22HE GLN C  11       1.150  -0.399  28.759  0.76 21.86 LIG 0.16  HD
ENDBRANCH 26 27
ENDBRANCH 25 26
ENDBRANCH 6 25
ENDBRANCH 4 6
ENDBRANCH 1 2
BRANCH 1 32
ATOM     32  CB  LEU C  12       0.901   4.521  35.240  0.76 24.07 LIG 0.04  C 
BRANCH 32 33
ATOM     33  CG  LEU C  12       1.070   2.996  35.257  0.76 21.16 LIG-0.02  C 
ATOM     34  CD1 LEU C  12       2.191   2.639  36.221  0.76 25.64 LIG 0.01  C 
ATOM     35  CD2 LEU C  12      -0.234   2.319  35.673  0.76 25.10 LIG 0.01  C 
ENDBRANCH 32 33
ENDBRANCH 1 32
BRANCH 1 36
ATOM     36  C   LEU C  12       0.987   6.016  33.213  0.76 25.30 LIG 0.24  C 
ATOM     37 O    LEU C  12       1.428   5.629  32.126  0.76 25.87 LIG-0.27  OA
ATOM     38  N   VAL C  13       1.243   7.228  33.702  0.76 25.62 LIG-0.35  N 
ATOM     39 H    VAL C  13       0.966   7.512  34.465  0.76 25.62 LIG 0.16  HD
BRANCH 38 40
ATOM     40  CA  VAL C  13       2.043   8.188  32.943  0.76 24.99 LIG 0.18  C 
BRANCH 40 41
ATOM     41  CB  VAL C  13       1.772   9.639  33.412  0.76 27.65 LIG 0.01  C 
ATOM     42  CG1 VAL C  13       1.561   9.671  34.921  0.76 28.12 LIG 0.01  C 
ATOM     43  CG2 VAL C  13       2.932  10.536  33.024  0.76 27.69 LIG 0.01  C 
ENDBRANCH 40 41
BRANCH 40 44
ATOM     44  C   VAL C  13       3.548   7.950  32.999  0.76 25.58 LIG 0.24  C 
ATOM     45  N   LEU C  14       4.189   8.089  31.846  0.76 25.74 LIG-0.35  N 
ATOM     46 H    LEU C  14       3.806   8.298  31.106  0.76 25.74 LIG 0.16  HD
ATOM     47 O    VAL C  13       4.120   7.659  34.050  0.76 23.74 LIG-0.27  OA
BRANCH 45 48
ATOM     48  CA  LEU C  14       5.629   7.893  31.744  0.76 27.54 LIG 0.18  C 
BRANCH 48 49
ATOM     49  CB  LEU C  14       5.964   7.071  30.495  0.76 27.94 LIG 0.04  C 
BRANCH 49 50
ATOM     50  CG  LEU C  14       7.245   6.238  30.533  0.76 29.52 LIG-0.02  C 
ATOM     51  CD2 LEU C  14       7.790   6.199  31.958  0.76 29.01 LIG 0.01  C 
ATOM     52  CD1 LEU C  14       8.257   6.834  29.570  0.76 31.53 LIG 0.01  C 
ENDBRANCH 49 50
ENDBRANCH 48 49
BRANCH 48 53
ATOM     53  C   LEU C  14       6.399   9.203  31.674  0.76 27.94 LIG 0.24  C 
ATOM     54  N   GLY C  15       5.837  10.160  30.947  0.76 27.74 LIG-0.35  N 
ATOM     55 H    GLY C  15       5.104  10.071  30.506  0.76 27.74 LIG 0.16  HD
ATOM     56 O    LEU C  14       7.479   9.343  32.258  0.76 29.25 LIG-0.27  OA
BRANCH 54 57
ATOM     57  CA  GLY C  15       6.456  11.469  30.852  0.76 32.19 LIG 0.23  C 
BRANCH 57 58
ATOM     58  C   GLY C  15       5.328  12.469  30.649  0.76 34.72 LIG 0.24  C 
ATOM     59  N   LEU C  16       5.691  13.686  30.259  0.76 34.76 LIG-0.34  N 
ATOM     60 H    LEU C  16       6.506  13.912  30.106  0.76 34.76 LIG 0.16  HD
ATOM     61 O    GLY C  15       4.156  12.149  30.851  0.76 36.88 LIG-0.27  OA
BRANCH 59 62
ATOM     62  CA  LEU C  16       4.725  14.761  30.051  0.76 35.63 LIG 0.18  C 
BRANCH 62 63
ATOM     63  CB  LEU C  16       5.437  16.111  30.151  0.76 32.88 LIG 0.04  C 
BRANCH 63 64
ATOM     64  CG  LEU C  16       6.561  16.140  31.189  0.76 27.62 LIG-0.02  C 
ATOM     65  CD1 LEU C  16       7.463  17.342  30.956  0.76 29.42 LIG 0.01  C 
ATOM     66  CD2 LEU C  16       5.957  16.174  32.582  0.76 30.85 LIG 0.01  C 
ENDBRANCH 63 64
ENDBRANCH 62 63
BRANCH 62 67
ATOM     67  C   LEU C  16       3.966  14.668  28.735  0.76 36.84 LIG 0.20  C 
ATOM     68 O    LEU C  16       3.640  13.529  28.327  0.76 37.63 LIG-0.65  OA
ATOM     69 OXT  LEU C  16       3.706  15.730  28.130  0.76 38.60 LIG-0.65  OA
ENDBRANCH 62 67
ENDBRANCH 59 62
ENDBRANCH 57 58
ENDBRANCH 54 57
ENDBRANCH 48 53
ENDBRANCH 45 48
ENDBRANCH 40 44
ENDBRANCH 38 40
ENDBRANCH 1 36
TORSDOF 27
ENDMDL
MODEL 3
USER: ADFR SOLUTION from run 145
USER: SCORE 17.457594 LL:  -3.834 LR: -17.162 RR:   0.000 FEB:  -9.108
USER: RMSD 2.181710
USER: SEED 144
USER: STATUS 1 or 2 clusters left
USER: GENES 29
USER: genes 0 Translation |==|  0.52898 0.45394 0.56463
USER: genes 1 Rotation |==|  0.46777 0.49313 0.52907 0.99807
USER: genes 2 Torsion [CB]-CA--N-[C] |==|  0.38662
USER: genes 3 Torsion [N]-C--CA-[N] |==|  0.43729
USER: genes 4 Torsion [C]-CA--N-[C] |==|  0.79965
USER: genes 5 Torsion [N]-C--CA-[N] |==|  0.92548
USER: genes 6 Torsion [C]-CA--CB-[CG] |==|  0.52588
USER: genes 7 Torsion [CA]-CB--CG-[CD] |==|  0.54288
USER: genes 8 Torsion [CB]-CG--CD-[NE] |==|  0.17267
USER: genes 9 Torsion [CG]-CD--NE-[CZ] |==|  0.22287
USER: genes 10 Torsion [C]-CA--CB-[CG] |==|  0.23124
USER: genes 11 Torsion [CA]-CB--CG-[CD] |==|  0.30005
USER: genes 12 Torsion [CB]-CG--CD-[OE1] |==|  0.10094
USER: genes 13 Torsion [N]-CA--CB-[CG] |==|  0.92705
USER: genes 14 Torsion [CA]-CB--CG-[CD2] |==|  0.76513
USER: genes 15 Torsion [N]-CA--C-[N] |==|  0.54069
USER: genes 16 Torsion [C]-N--CA-[CB] |==|  0.26565
USER: genes 17 Torsion [N]-CA--CB-[CG1] |==|  0.41425
USER: genes 18 Torsion [N]-CA--C-[N] |==|  0.40324
USER: genes 19 Torsion [C]-N--CA-[CB] |==|  0.50641
USER: genes 20 Torsion [N]-CA--CB-[CG] |==|  0.89164
USER: genes 21 Torsion [CA]-CB--CG-[CD1] |==|  0.45954
USER: genes 22 Torsion [N]-CA--C-[N] |==|  0.42778
USER: genes 23 Torsion [C]-N--CA-[C] |==|  0.70148
USER: genes 24 Torsion [N]-CA--C-[N] |==|  0.53126
USER: genes 25 Torsion [C]-N--CA-[CB] |==|  0.23003
USER: genes 26 Torsion [N]-CA--CB-[CG] |==|  0.59558
USER: genes 27 Torsion [CA]-CB--CG-[CD1] |==|  0.62798
USER: genes 28 Torsion [N]-CA--C-[O] |==|  0.66604
ROOT
ATOM      1  CA  LEU C  12       0.068   5.085  33.549  0.76 25.89 LIG 0.18  C 
ENDROOT
BRANCH 1 2
ATOM      2  N   LEU C  12      -0.436   3.979  32.747  0.76 24.12 LIG-0.35  N 
ATOM      3 H    LEU C  12       0.135   3.350  32.613  0.76 24.12 LIG 0.16  HD
ATOM      4  C   GLN C  11      -1.678   3.965  32.273  0.76 26.11 LIG 0.24  C 
ATOM      5 O    GLN C  11      -2.487   4.872  32.482  0.76 27.34 LIG-0.27  OA
BRANCH 4 6
ATOM      6  CA  GLN C  11      -2.056   2.754  31.423  0.76 26.16 LIG 0.18  C 
BRANCH 6 7
ATOM      7  N   GLN C  11      -3.489   2.493  31.353  0.76 28.86 LIG-0.35  N 
ATOM      8  C   ARG C  10      -4.188   2.011  32.374  0.76 30.48 LIG 0.26  C 
ATOM      9 O    ARG C  10      -3.695   1.771  33.480  0.76 24.30 LIG-0.27  OA
ATOM     10 H    GLN C  11      -3.838   2.680  30.590  0.76 28.86 LIG 0.16  HD
BRANCH 8 11
ATOM     11  CA  ARG C  10      -5.682   1.778  32.107  0.76 33.62 LIG 0.40  C 
ATOM     12  N   ARG C  10      -6.191   2.690  31.041  0.76 36.52 LIG 0.61  N 
BRANCH 11 13
ATOM     13  CB  ARG C  10      -5.893   0.322  31.693  0.76 36.98 LIG 0.05  C 
BRANCH 13 14
ATOM     14  CG  ARG C  10      -7.295  -0.018  31.176  0.76 39.40 LIG 0.02  C 
BRANCH 14 15
ATOM     15  CD  ARG C  10      -7.549  -1.521  31.140  0.76 42.42 LIG 0.14  C 
BRANCH 15 16
ATOM     16  NE  ARG C  10      -7.480  -2.115  32.474  0.76 44.78 LIG-0.23  N 
ATOM     17  CZ  ARG C  10      -8.462  -2.082  33.371  0.76 45.62 LIG 0.67  C 
ATOM     18  NH2 ARG C  10      -8.301  -2.671  34.548  0.76 46.43 LIG-0.23  N 
ATOM     19  NH1 ARG C  10      -9.608  -1.476  33.091  0.76 45.50 LIG-0.23  N 
ATOM     20 2HH2 ARG C  10      -8.935  -2.651  35.130  0.76 46.43 LIG 0.17  HD
ATOM     21 1HH2 ARG C  10      -7.562  -3.073  34.731  0.76 46.43 LIG 0.17  HD
ATOM     22 2HH1 ARG C  10     -10.239  -1.458  33.676  0.76 45.50 LIG 0.17  HD
ATOM     23 1HH1 ARG C  10      -9.720  -1.101  32.325  0.76 45.50 LIG 0.17  HD
ATOM     24 HE   ARG C  10      -6.752  -2.515  32.695  0.76 44.78 LIG 0.18  HD
ENDBRANCH 15 16
ENDBRANCH 14 15
ENDBRANCH 13 14
ENDBRANCH 11 13
ENDBRANCH 8 11
ENDBRANCH 6 7
BRANCH 6 25
ATOM     25  CB  GLN C  11      -1.501   2.951  30.010  0.76 25.68 LIG 0.04  C 
BRANCH 25 26
ATOM     26  CG  GLN C  11      -0.046   2.547  29.860  0.76 22.66 LIG 0.10  C 
BRANCH 26 27
ATOM     27  CD  GLN C  11       0.104   1.274  29.067  0.76 24.13 LIG 0.21  C 
ATOM     28 OE1  GLN C  11      -0.645   1.033  28.114  0.76 19.83 LIG-0.27  OA
ATOM     29  NE2 GLN C  11       1.073   0.447  29.449  0.76 21.86 LIG-0.37  N 
ATOM     30 21HE GLN C  11       1.574   0.651  30.117  0.76 21.86 LIG 0.16  HD
ATOM     31 22HE GLN C  11       1.198  -0.292  29.027  0.76 21.86 LIG 0.16  HD
ENDBRANCH 26 27
ENDBRANCH 25 26
ENDBRANCH 6 25
ENDBRANCH 4 6
ENDBRANCH 1 2
BRANCH 1 32
ATOM     32  CB  LEU C  12       0.922   4.556  34.708  0.76 24.07 LIG 0.04  C 
BRANCH 32 33
ATOM     33  CG  LEU C  12       0.596   3.136  35.188  0.76 21.16 LIG-0.02  C 
ATOM     34  CD1 LEU C  12       1.844   2.534  35.816  0.76 25.64 LIG 0.01  C 
ATOM     35  CD2 LEU C  12      -0.553   3.163  36.194  0.76 25.10 LIG 0.01  C 
ENDBRANCH 32 33
ENDBRANCH 1 32
BRANCH 1 36
ATOM     36  C   LEU C  12       0.905   5.977  32.627  0.76 25.30 LIG 0.24  C 
ATOM     37 O    LEU C  12       0.827   5.852  31.401  0.76 25.87 LIG-0.27  OA
ATOM     38  N   VAL C  13       1.700   6.874  33.210  0.76 25.62 LIG-0.35  N 
ATOM     39 H    VAL C  13       1.788   6.965  34.061  0.76 25.62 LIG 0.16  HD
BRANCH 38 40
ATOM     40  CA  VAL C  13       2.504   7.794  32.408  0.76 24.99 LIG 0.18  C 
BRANCH 40 41
ATOM     41  CB  VAL C  13       1.788   9.155  32.228  0.76 27.65 LIG 0.01  C 
ATOM     42  CG1 VAL C  13       2.814  10.276  32.110  0.76 28.12 LIG 0.01  C 
ATOM     43  CG2 VAL C  13       0.905   9.119  30.994  0.76 27.69 LIG 0.01  C 
ENDBRANCH 40 41
BRANCH 40 44
ATOM     44  C   VAL C  13       3.900   8.067  32.959  0.76 25.58 LIG 0.24  C 
ATOM     45  N   LEU C  14       4.847   8.241  32.048  0.76 25.74 LIG-0.35  N 
ATOM     46 H    LEU C  14       4.710   8.208  31.200  0.76 25.74 LIG 0.16  HD
ATOM     47 O    VAL C  13       4.119   8.129  34.169  0.76 23.74 LIG-0.27  OA
BRANCH 45 48
ATOM     48  CA  LEU C  14       6.229   8.511  32.423  0.76 27.54 LIG 0.18  C 
BRANCH 48 49
ATOM     49  CB  LEU C  14       7.086   8.724  31.171  0.76 27.94 LIG 0.04  C 
BRANCH 49 50
ATOM     50  CG  LEU C  14       6.795   7.827  29.968  0.76 29.52 LIG-0.02  C 
ATOM     51  CD2 LEU C  14       7.288   6.411  30.253  0.76 29.01 LIG 0.01  C 
ATOM     52  CD1 LEU C  14       7.469   8.409  28.737  0.76 31.53 LIG 0.01  C 
ENDBRANCH 49 50
ENDBRANCH 48 49
BRANCH 48 53
ATOM     53  C   LEU C  14       6.370   9.737  33.312  0.76 27.94 LIG 0.24  C 
ATOM     54  N   GLY C  15       7.431   9.749  34.108  0.76 27.74 LIG-0.35  N 
ATOM     55 H    GLY C  15       8.004   9.110  34.168  0.76 27.74 LIG 0.16  HD
ATOM     56 O    LEU C  14       5.535  10.649  33.282  0.76 29.25 LIG-0.27  OA
BRANCH 54 57
ATOM     57  CA  GLY C  15       7.695  10.893  34.961  0.76 32.19 LIG 0.23  C 
BRANCH 57 58
ATOM     58  C   GLY C  15       8.887  11.618  34.358  0.76 34.72 LIG 0.24  C 
ATOM     59  N   LEU C  16       9.438  12.564  35.112  0.76 34.76 LIG-0.34  N 
ATOM     60 H    LEU C  16       9.166  12.758  35.903  0.76 34.76 LIG 0.16  HD
ATOM     61 O    GLY C  15       9.294  11.336  33.230  0.76 36.88 LIG-0.27  OA
BRANCH 59 62
ATOM     62  CA  LEU C  16      10.570  13.367  34.657  0.76 35.63 LIG 0.18  C 
BRANCH 62 63
ATOM     63  CB  LEU C  16      10.061  14.521  33.794  0.76 32.88 LIG 0.04  C 
BRANCH 63 64
ATOM     64  CG  LEU C  16      11.005  14.899  32.650  0.76 27.62 LIG-0.02  C 
ATOM     65  CD1 LEU C  16      11.180  16.408  32.586  0.76 29.42 LIG 0.01  C 
ATOM     66  CD2 LEU C  16      12.341  14.204  32.852  0.76 30.85 LIG 0.01  C 
ENDBRANCH 63 64
ENDBRANCH 62 63
BRANCH 62 67
ATOM     67  C   LEU C  16      11.442  13.903  35.784  0.76 36.84 LIG 0.20  C 
ATOM     68 O    LEU C  16      11.567  15.146  35.886  0.76 37.63 LIG-0.65  OA
ATOM     69 OXT  LEU C  16      11.989  13.079  36.547  0.76 38.60 LIG-0.65  OA
ENDBRANCH 62 67
ENDBRANCH 59 62
ENDBRANCH 57 58
ENDBRANCH 54 57
ENDBRANCH 48 53
ENDBRANCH 45 48
ENDBRANCH 40 44
ENDBRANCH 38 40
ENDBRANCH 1 36
TORSDOF 27
ENDMDL
MODEL 4
USER: ADFR SOLUTION from run 138
USER: SCORE 17.674091 LL:  -4.074 LR: -16.998 RR:   0.000 FEB:  -8.944
USER: RMSD 3.163653
USER: SEED 137
USER: STATUS no improvement in best in 5 clusters for 5 generations
USER: GENES 29
USER: genes 0 Translation |==|  0.51605 0.43199 0.56553
USER: genes 1 Rotation |==|  0.47879 0.49306 0.51012 0.99940
USER: genes 2 Torsion [CB]-CA--N-[C] |==|  0.47261
USER: genes 3 Torsion [N]-C--CA-[N] |==|  0.33916
USER: genes 4 Torsion [C]-CA--N-[C] |==|  0.79472
USER: genes 5 Torsion [N]-C--CA-[N] |==|  0.83959
USER: genes 6 Torsion [C]-CA--CB-[CG] |==|  0.45018
USER: genes 7 Torsion [CA]-CB--CG-[CD] |==|  0.64867
USER: genes 8 Torsion [CB]-CG--CD-[NE] |==|  0.22816
USER: genes 9 Torsion [CG]-CD--NE-[CZ] |==|  0.33917
USER: genes 10 Torsion [C]-CA--CB-[CG] |==|  0.07793
USER: genes 11 Torsion [CA]-CB--CG-[CD] |==|  0.26392
USER: genes 12 Torsion [CB]-CG--CD-[OE1] |==|  0.01032
USER: genes 13 Torsion [N]-CA--CB-[CG] |==|  0.90555
USER: genes 14 Torsion [CA]-CB--CG-[CD2] |==|  0.81042
USER: genes 15 Torsion [N]-CA--C-[N] |==|  0.43492
USER: genes 16 Torsion [C]-N--CA-[CB] |==|  0.38961
USER: genes 17 Torsion [N]-CA--CB-[CG1] |==|  0.44088
USER: genes 18 Torsion [N]-CA--C-[N] |==|  0.37765
USER: genes 19 Torsion [C]-N--CA-[CB] |==|  0.53526
USER: genes 20 Torsion [N]-CA--CB-[CG] |==|  0.69290
USER: genes 21 Torsion [CA]-CB--CG-[CD1] |==|  0.60526
USER: genes 22 Torsion [N]-CA--C-[N] |==|  0.28454
USER: genes 23 Torsion [C]-N--CA-[C] |==|  0.76736
USER: genes 24 Torsion [N]-CA--C-[N] |==|  0.54395
USER: genes 25 Torsion [C]-N--CA-[CB] |==|  0.86863
USER: genes 26 Torsion [N]-CA--CB-[CG] |==|  0.79460
USER: genes 27 Torsion [CA]-CB--CG-[CD1] |==|  0.37233
USER: genes 28 Torsion [N]-CA--C-[O] |==|  0.35529
ROOT
ATOM      1  CA  LEU C  12      -0.320   4.493  33.564  0.76 25.89 LIG 0.18  C 
ENDROOT
BRANCH 1 2
ATOM      2  N   LEU C  12      -0.902   3.465  32.712  0.76 24.12 LIG-0.35  N 
ATOM      3 H    LEU C  12      -0.615   2.670  32.870  0.76 24.12 LIG 0.16  HD
ATOM      4  C   GLN C  11      -1.800   3.755  31.776  0.76 26.11 LIG 0.24  C 
ATOM      5 O    GLN C  11      -2.208   4.901  31.569  0.76 27.34 LIG-0.27  OA
BRANCH 4 6
ATOM      6  CA  GLN C  11      -2.300   2.579  30.940  0.76 26.16 LIG 0.18  C 
BRANCH 6 7
ATOM      7  N   GLN C  11      -3.743   2.378  30.987  0.76 28.86 LIG-0.35  N 
ATOM      8  C   ARG C  10      -4.370   1.871  32.043  0.76 30.48 LIG 0.26  C 
ATOM      9 O    ARG C  10      -3.792   1.556  33.086  0.76 24.30 LIG-0.27  OA
ATOM     10 H    GLN C  11      -4.150   2.618  30.269  0.76 28.86 LIG 0.16  HD
BRANCH 8 11
ATOM     11  CA  ARG C  10      -5.891   1.711  31.900  0.76 33.62 LIG 0.40  C 
ATOM     12  N   ARG C  10      -6.546   3.017  31.592  0.76 36.52 LIG 0.61  N 
BRANCH 11 13
ATOM     13  CB  ARG C  10      -6.183   0.705  30.789  0.76 36.98 LIG 0.05  C 
BRANCH 13 14
ATOM     14  CG  ARG C  10      -7.595   0.108  30.796  0.76 39.40 LIG 0.02  C 
BRANCH 14 15
ATOM     15  CD  ARG C  10      -7.579  -1.416  30.790  0.76 42.42 LIG 0.14  C 
BRANCH 15 16
ATOM     16  NE  ARG C  10      -7.378  -1.962  32.132  0.76 44.78 LIG-0.23  N 
ATOM     17  CZ  ARG C  10      -8.215  -2.794  32.745  0.76 45.62 LIG 0.67  C 
ATOM     18  NH2 ARG C  10      -7.926  -3.246  33.958  0.76 46.43 LIG-0.23  N 
ATOM     19  NH1 ARG C  10      -9.331  -3.188  32.147  0.76 45.50 LIG-0.23  N 
ATOM     20 2HH2 ARG C  10      -8.466  -3.784  34.357  0.76 46.43 LIG 0.17  HD
ATOM     21 1HH2 ARG C  10      -7.198  -3.000  34.347  0.76 46.43 LIG 0.17  HD
ATOM     22 2HH1 ARG C  10      -9.868  -3.726  32.549  0.76 45.50 LIG 0.17  HD
ATOM     23 1HH1 ARG C  10      -9.518  -2.906  31.356  0.76 45.50 LIG 0.17  HD
ATOM     24 HE   ARG C  10      -6.667  -1.729  32.555  0.76 44.78 LIG 0.18  HD
ENDBRANCH 15 16
ENDBRANCH 14 15
ENDBRANCH 13 14
ENDBRANCH 11 13
ENDBRANCH 8 11
ENDBRANCH 6 7
BRANCH 6 25
ATOM     25  CB  GLN C  11      -1.857   2.783  29.489  0.76 25.68 LIG 0.04  C 
BRANCH 25 26
ATOM     26  CG  GLN C  11      -0.582   3.593  29.343  0.76 22.66 LIG 0.10  C 
BRANCH 26 27
ATOM     27  CD  GLN C  11       0.634   2.710  29.233  0.76 24.13 LIG 0.21  C 
ATOM     28 OE1  GLN C  11       0.519   1.481  29.197  0.76 19.83 LIG-0.27  OA
ATOM     29  NE2 GLN C  11       1.811   3.326  29.177  0.76 21.86 LIG-0.37  N 
ATOM     30 21HE GLN C  11       1.850   4.185  29.205  0.76 21.86 LIG 0.16  HD
ATOM     31 22HE GLN C  11       2.535   2.865  29.113  0.76 21.86 LIG 0.16  HD
ENDBRANCH 26 27
ENDBRANCH 25 26
ENDBRANCH 6 25
ENDBRANCH 4 6
ENDBRANCH 1 2
BRANCH 1 32
ATOM     32  CB  LEU C  12       0.487   3.849  34.699  0.76 24.07 LIG 0.04  C 
BRANCH 32 33
ATOM     33  CG  LEU C  12      -0.056   2.520  35.239  0.76 21.16 LIG-0.02  C 
ATOM     34  CD1 LEU C  12       0.980   1.910  36.170  0.76 25.64 LIG 0.01  C 
ATOM     35  CD2 LEU C  12      -1.377   2.742  35.975  0.76 25.10 LIG 0.01  C 
ENDBRANCH 32 33
ENDBRANCH 1 32
BRANCH 1 36
ATOM     36  C   LEU C  12       0.585   5.360  32.684  0.76 25.30 LIG 0.24  C 
ATOM     37 O    LEU C  12       1.052   4.908  31.634  0.76 25.87 LIG-0.27  OA
ATOM     38  N   VAL C  13       0.833   6.599  33.106  0.76 25.62 LIG-0.35  N 
ATOM     39 H    VAL C  13       0.538   6.929  33.844  0.76 25.62 LIG 0.16  HD
BRANCH 38 40
ATOM     40  CA  VAL C  13       1.654   7.511  32.311  0.76 24.99 LIG 0.18  C 
BRANCH 40 41
ATOM     41  CB  VAL C  13       1.082   8.949  32.339  0.76 27.65 LIG 0.01  C 
ATOM     42  CG1 VAL C  13       2.171   9.953  31.980  0.76 28.12 LIG 0.01  C 
ATOM     43  CG2 VAL C  13      -0.080   9.066  31.371  0.76 27.69 LIG 0.01  C 
ENDBRANCH 40 41
BRANCH 40 44
ATOM     44  C   VAL C  13       3.119   7.579  32.729  0.76 25.58 LIG 0.24  C 
ATOM     45  N   LEU C  14       3.996   7.558  31.735  0.76 25.74 LIG-0.35  N 
ATOM     46 H    LEU C  14       3.779   7.509  30.905  0.76 25.74 LIG 0.16  HD
ATOM     47 O    VAL C  13       3.453   7.659  33.912  0.76 23.74 LIG-0.27  OA
BRANCH 45 48
ATOM     48  CA  LEU C  14       5.431   7.618  31.980  0.76 27.54 LIG 0.18  C 
BRANCH 48 49
ATOM     49  CB  LEU C  14       6.180   7.893  30.672  0.76 27.94 LIG 0.04  C 
BRANCH 49 50
ATOM     50  CG  LEU C  14       7.024   6.755  30.100  0.76 29.52 LIG-0.02  C 
ATOM     51  CD2 LEU C  14       7.333   5.743  31.200  0.76 29.01 LIG 0.01  C 
ATOM     52  CD1 LEU C  14       8.298   7.328  29.503  0.76 31.53 LIG 0.01  C 
ENDBRANCH 49 50
ENDBRANCH 48 49
BRANCH 48 53
ATOM     53  C   LEU C  14       5.814   8.694  32.985  0.76 27.94 LIG 0.24  C 
ATOM     54  N   GLY C  15       6.089   8.264  34.209  0.76 27.74 LIG-0.35  N 
ATOM     55 H    GLY C  15       6.035   7.443  34.462  0.76 27.74 LIG 0.16  HD
ATOM     56 O    LEU C  14       5.853   9.886  32.662  0.76 29.25 LIG-0.27  OA
BRANCH 54 57
ATOM     57  CA  GLY C  15       6.518   9.195  35.235  0.76 32.19 LIG 0.23  C 
BRANCH 57 58
ATOM     58  C   GLY C  15       8.015   9.383  35.054  0.76 34.72 LIG 0.24  C 
ATOM     59  N   LEU C  16       8.663   9.934  36.076  0.76 34.76 LIG-0.34  N 
ATOM     60 H    LEU C  16       8.282  10.161  36.812  0.76 34.76 LIG 0.16  HD
ATOM     61 O    GLY C  15       8.572   9.046  34.009  0.76 36.88 LIG-0.27  OA
BRANCH 59 62
ATOM     62  CA  LEU C  16      10.097  10.205  36.039  0.76 35.63 LIG 0.18  C 
BRANCH 62 63
ATOM     63  CB  LEU C  16      10.835   8.972  35.518  0.76 32.88 LIG 0.04  C 
BRANCH 63 64
ATOM     64  CG  LEU C  16      10.914   7.827  36.530  0.76 27.62 LIG-0.02  C 
ATOM     65  CD1 LEU C  16      10.558   6.507  35.863  0.76 29.42 LIG 0.01  C 
ATOM     66  CD2 LEU C  16      12.311   7.777  37.124  0.76 30.85 LIG 0.01  C 
ENDBRANCH 63 64
ENDBRANCH 62 63
BRANCH 62 67
ATOM     67  C   LEU C  16      10.477  11.427  35.215  0.76 36.84 LIG 0.20  C 
ATOM     68 O    LEU C  16      11.202  12.294  35.755  0.76 37.63 LIG-0.65  OA
ATOM     69 OXT  LEU C  16      10.047  11.503  34.044  0.76 38.60 LIG-0.65  OA
ENDBRANCH 62 67
ENDBRANCH 59 62
ENDBRANCH 57 58
ENDBRANCH 54 57
ENDBRANCH 48 53
ENDBRANCH 45 48
ENDBRANCH 40 44
ENDBRANCH 38 40
ENDBRANCH 1 36
TORSDOF 27
ENDMDL
MODEL 5
USER: ADFR SOLUTION from run 67
USER: SCORE 17.776988 LL:  -4.269 LR: -16.976 RR:   0.000 FEB:  -8.922
USER: RMSD 1.531416
USER: SEED 66
USER: STATUS 1 or 2 clusters left
USER: GENES 29
USER: genes 0 Translation |==|  0.52801 0.44504 0.55977
USER: genes 1 Rotation |==|  0.45056 0.49574 0.50947 0.99744
USER: genes 2 Torsion [CB]-CA--N-[C] |==|  0.48347
USER: genes 3 Torsion [N]-C--CA-[N] |==|  0.33594
USER: genes 4 Torsion [C]-CA--N-[C] |==|  0.78377
USER: genes 5 Torsion [N]-C--CA-[N] |==|  0.95025
USER: genes 6 Torsion [C]-CA--CB-[CG] |==|  0.63466
USER: genes 7 Torsion [CA]-CB--CG-[CD] |==|  0.55301
USER: genes 8 Torsion [CB]-CG--CD-[NE] |==|  0.03855
USER: genes 9 Torsion [CG]-CD--NE-[CZ] |==|  0.45262
USER: genes 10 Torsion [C]-CA--CB-[CG] |==|  0.78158
USER: genes 11 Torsion [CA]-CB--CG-[CD] |==|  0.52728
USER: genes 12 Torsion [CB]-CG--CD-[OE1] |==|  0.14640
USER: genes 13 Torsion [N]-CA--CB-[CG] |==|  0.93288
USER: genes 14 Torsion [CA]-CB--CG-[CD2] |==|  0.81898
USER: genes 15 Torsion [N]-CA--C-[N] |==|  0.47143
USER: genes 16 Torsion [C]-N--CA-[CB] |==|  0.33306
USER: genes 17 Torsion [N]-CA--CB-[CG1] |==|  0.86724
USER: genes 18 Torsion [N]-CA--C-[N] |==|  0.40097
USER: genes 19 Torsion [C]-N--CA-[CB] |==|  0.51732
USER: genes 20 Torsion [N]-CA--CB-[CG] |==|  0.78694
USER: genes 21 Torsion [CA]-CB--CG-[CD1] |==|  0.58154
USER: genes 22 Torsion [N]-CA--C-[N] |==|  0.41833
USER: genes 23 Torsion [C]-N--CA-[C] |==|  0.74922
USER: genes 24 Torsion [N]-CA--C-[N] |==|  0.18885
USER: genes 25 Torsion [C]-N--CA-[CB] |==|  0.47697
USER: genes 26 Torsion [N]-CA--CB-[CG] |==|  0.84888
USER: genes 27 Torsion [CA]-CB--CG-[CD1] |==|  0.50607
USER: genes 28 Torsion [N]-CA--C-[O] |==|  0.34011
ROOT
ATOM      1  CA  LEU C  12       0.039   4.845  33.469  0.76 25.89 LIG 0.18  C 
ENDROOT
BRANCH 1 2
ATOM      2  N   LEU C  12      -0.555   3.730  32.744  0.76 24.12 LIG-0.35  N 
ATOM      3 H    LEU C  12      -0.309   2.955  33.024  0.76 24.12 LIG 0.16  HD
ATOM      4  C   GLN C  11      -1.402   3.920  31.737  0.76 26.11 LIG 0.24  C 
ATOM      5 O    GLN C  11      -1.750   5.040  31.353  0.76 27.34 LIG-0.27  OA
BRANCH 4 6
ATOM      6  CA  GLN C  11      -1.920   2.657  31.051  0.76 26.16 LIG 0.18  C 
BRANCH 6 7
ATOM      7  N   GLN C  11      -3.369   2.508  31.084  0.76 28.86 LIG-0.35  N 
ATOM      8  C   ARG C  10      -4.030   2.092  32.159  0.76 30.48 LIG 0.26  C 
ATOM      9 O    ARG C  10      -3.481   1.828  33.232  0.76 24.30 LIG-0.27  OA
ATOM     10 H    GLN C  11      -3.756   2.713  30.344  0.76 28.86 LIG 0.16  HD
BRANCH 8 11
ATOM     11  CA  ARG C  10      -5.553   1.973  31.999  0.76 33.62 LIG 0.40  C 
ATOM     12  N   ARG C  10      -6.036   2.746  30.816  0.76 36.52 LIG 0.61  N 
BRANCH 11 13
ATOM     13  CB  ARG C  10      -5.924   0.499  31.845  0.76 36.98 LIG 0.05  C 
BRANCH 13 14
ATOM     14  CG  ARG C  10      -6.867   0.176  30.681  0.76 39.40 LIG 0.02  C 
BRANCH 14 15
ATOM     15  CD  ARG C  10      -7.554  -1.175  30.851  0.76 42.42 LIG 0.14  C 
BRANCH 15 16
ATOM     16  NE  ARG C  10      -7.410  -1.689  32.213  0.76 44.78 LIG-0.23  N 
ATOM     17  CZ  ARG C  10      -8.154  -2.657  32.741  0.76 45.62 LIG 0.67  C 
ATOM     18  NH2 ARG C  10      -7.926  -3.062  33.983  0.76 46.43 LIG-0.23  N 
ATOM     19  NH1 ARG C  10      -9.115  -3.231  32.029  0.76 45.50 LIG-0.23  N 
ATOM     20 2HH2 ARG C  10      -8.406  -3.688  34.327  0.76 46.43 LIG 0.17  HD
ATOM     21 1HH2 ARG C  10      -7.298  -2.698  34.445  0.76 46.43 LIG 0.17  HD
ATOM     22 2HH1 ARG C  10      -9.593  -3.856  32.377  0.76 45.50 LIG 0.17  HD
ATOM     23 1HH1 ARG C  10      -9.260  -2.978  31.220  0.76 45.50 LIG 0.17  HD
ATOM     24 HE   ARG C  10      -6.800  -1.341  32.708  0.76 44.78 LIG 0.18  HD
ENDBRANCH 15 16
ENDBRANCH 14 15
ENDBRANCH 13 14
ENDBRANCH 11 13
ENDBRANCH 8 11
ENDBRANCH 6 7
BRANCH 6 25
ATOM     25  CB  GLN C  11      -1.436   2.651  29.599  0.76 25.68 LIG 0.04  C 
BRANCH 25 26
ATOM     26  CG  GLN C  11      -2.238   3.553  28.679  0.76 22.66 LIG 0.10  C 
BRANCH 26 27
ATOM     27  CD  GLN C  11      -1.883   3.337  27.231  0.76 24.13 LIG 0.21  C 
ATOM     28 OE1  GLN C  11      -1.907   2.204  26.739  0.76 19.83 LIG-0.27  OA
ATOM     29  NE2 GLN C  11      -1.551   4.419  26.533  0.76 21.86 LIG-0.37  N 
ATOM     30 21HE GLN C  11      -1.546   5.191  26.912  0.76 21.86 LIG 0.16  HD
ATOM     31 22HE GLN C  11      -1.341   4.347  25.702  0.76 21.86 LIG 0.16  HD
ENDBRANCH 26 27
ENDBRANCH 25 26
ENDBRANCH 6 25
ENDBRANCH 4 6
ENDBRANCH 1 2
BRANCH 1 32
ATOM     32  CB  LEU C  12       0.852   4.330  34.663  0.76 24.07 LIG 0.04  C 
BRANCH 32 33
ATOM     33  CG  LEU C  12       0.449   2.954  35.206  0.76 21.16 LIG-0.02  C 
ATOM     34  CD1 LEU C  12       1.456   2.531  36.264  0.76 25.64 LIG 0.01  C 
ATOM     35  CD2 LEU C  12      -0.960   3.003  35.794  0.76 25.10 LIG 0.01  C 
ENDBRANCH 32 33
ENDBRANCH 1 32
BRANCH 1 36
ATOM     36  C   LEU C  12       0.940   5.603  32.490  0.76 25.30 LIG 0.24  C 
ATOM     37 O    LEU C  12       1.198   5.123  31.381  0.76 25.87 LIG-0.27  OA
ATOM     38  N   VAL C  13       1.416   6.781  32.891  0.76 25.62 LIG-0.35  N 
ATOM     39 H    VAL C  13       1.268   7.126  33.665  0.76 25.62 LIG 0.16  HD
BRANCH 38 40
ATOM     40  CA  VAL C  13       2.251   7.591  32.008  0.76 24.99 LIG 0.18  C 
BRANCH 40 41
ATOM     41  CB  VAL C  13       1.604   8.971  31.733  0.76 27.65 LIG 0.01  C 
ATOM     42  CG1 VAL C  13       0.138   8.796  31.354  0.76 28.12 LIG 0.01  C 
ATOM     43  CG2 VAL C  13       1.728   9.857  32.958  0.76 27.69 LIG 0.01  C 
ENDBRANCH 40 41
BRANCH 40 44
ATOM     44  C   VAL C  13       3.670   7.831  32.513  0.76 25.58 LIG 0.24  C 
ATOM     45  N   LEU C  14       4.609   7.866  31.578  0.76 25.74 LIG-0.35  N 
ATOM     46 H    LEU C  14       4.455   7.764  30.738  0.76 25.74 LIG 0.16  HD
ATOM     47 O    VAL C  13       3.914   7.989  33.710  0.76 23.74 LIG-0.27  OA
BRANCH 45 48
ATOM     48  CA  LEU C  14       6.011   8.087  31.909  0.76 27.54 LIG 0.18  C 
BRANCH 48 49
ATOM     49  CB  LEU C  14       6.841   8.232  30.630  0.76 27.94 LIG 0.04  C 
BRANCH 49 50
ATOM     50  CG  LEU C  14       7.169   6.952  29.863  0.76 29.52 LIG-0.02  C 
ATOM     51  CD2 LEU C  14       7.223   5.773  30.831  0.76 29.01 LIG 0.01  C 
ATOM     52  CD1 LEU C  14       8.490   7.129  29.135  0.76 31.53 LIG 0.01  C 
ENDBRANCH 49 50
ENDBRANCH 48 49
BRANCH 48 53
ATOM     53  C   LEU C  14       6.227   9.328  32.762  0.76 27.94 LIG 0.24  C 
ATOM     54  N   GLY C  15       7.269   9.286  33.581  0.76 27.74 LIG-0.35  N 
ATOM     55 H    GLY C  15       7.791   8.609  33.674  0.76 27.74 LIG 0.16  HD
ATOM     56 O    LEU C  14       5.465  10.298  32.685  0.76 29.25 LIG-0.27  OA
BRANCH 54 57
ATOM     57  CA  GLY C  15       7.603  10.435  34.403  0.76 32.19 LIG 0.23  C 
BRANCH 57 58
ATOM     58  C   GLY C  15       8.564  11.287  33.590  0.76 34.72 LIG 0.24  C 
ATOM     59  N   LEU C  16       8.053  11.875  32.513  0.76 34.76 LIG-0.34  N 
ATOM     60 H    LEU C  16       7.229  11.807  32.281  0.76 34.76 LIG 0.16  HD
ATOM     61 O    GLY C  15       9.743  11.402  33.923  0.76 36.88 LIG-0.27  OA
BRANCH 59 62
ATOM     62  CA  LEU C  16       8.858  12.699  31.616  0.76 35.63 LIG 0.18  C 
BRANCH 62 63
ATOM     63  CB  LEU C  16       8.036  13.055  30.377  0.76 32.88 LIG 0.04  C 
BRANCH 63 64
ATOM     64  CG  LEU C  16       7.453  11.838  29.653  0.76 27.62 LIG-0.02  C 
ATOM     65  CD1 LEU C  16       6.699  12.277  28.408  0.76 29.42 LIG 0.01  C 
ATOM     66  CD2 LEU C  16       8.577  10.879  29.300  0.76 30.85 LIG 0.01  C 
ENDBRANCH 63 64
ENDBRANCH 62 63
BRANCH 62 67
ATOM     67  C   LEU C  16       9.404  13.966  32.260  0.76 36.84 LIG 0.20  C 
ATOM     68 O    LEU C  16      10.646  14.135  32.257  0.76 37.63 LIG-0.65  OA
ATOM     69 OXT  LEU C  16       8.589  14.771  32.757  0.76 38.60 LIG-0.65  OA
ENDBRANCH 62 67
ENDBRANCH 59 62
ENDBRANCH 57 58
ENDBRANCH 54 57
ENDBRANCH 48 53
ENDBRANCH 45 48
ENDBRANCH 40 44
ENDBRANCH 38 40
ENDBRANCH 1 36
TORSDOF 27
ENDMDL
MODEL 6
USER: ADFR SOLUTION from run 71
USER: SCORE 17.322558 LL:  -4.634 LR: -16.949 RR:   0.000 FEB:  -8.894
USER: RMSD 3.496444
USER: SEED 70
USER: STATUS searching
USER: GENES 29
USER: genes 0 Translation |==|  0.53017 0.45413 0.59617
USER: genes 1 Rotation |==|  0.47861 0.48069 0.52821 0.99837
USER: genes 2 Torsion [CB]-CA--N-[C] |==|  0.47778
USER: genes 3 Torsion [N]-C--CA-[N] |==|  0.34335
USER: genes 4 Torsion [C]-CA--N-[C] |==|  0.78213
USER: genes 5 Torsion [N]-C--CA-[N] |==|  0.08284
USER: genes 6 Torsion [C]-CA--CB-[CG] |==|  0.31454
USER: genes 7 Torsion [CA]-CB--CG-[CD] |==|  0.35495
USER: genes 8 Torsion [CB]-CG--CD-[NE] |==|  0.36366
USER: genes 9 Torsion [CG]-CD--NE-[CZ] |==|  0.67839
USER: genes 10 Torsion [C]-CA--CB-[CG] |==|  0.26381
USER: genes 11 Torsion [CA]-CB--CG-[CD] |==|  0.28423
USER: genes 12 Torsion [CB]-CG--CD-[OE1] |==|  0.07062
USER: genes 13 Torsion [N]-CA--CB-[CG] |==|  0.00346
USER: genes 14 Torsion [CA]-CB--CG-[CD2] |==|  0.79216
USER: genes 15 Torsion [N]-CA--C-[N] |==|  0.45420
USER: genes 16 Torsion [C]-N--CA-[CB] |==|  0.43906
USER: genes 17 Torsion [N]-CA--CB-[CG1] |==|  0.09758
USER: genes 18 Torsion [N]-CA--C-[N] |==|  0.37999
USER: genes 19 Torsion [C]-N--CA-[CB] |==|  0.37611
USER: genes 20 Torsion [N]-CA--CB-[CG] |==|  0.57292
USER: genes 21 Torsion [CA]-CB--CG-[CD1] |==|  0.69044
USER: genes 22 Torsion [N]-CA--C-[N] |==|  0.88812
USER: genes 23 Torsion [C]-N--CA-[C] |==|  0.52940
USER: genes 24 Torsion [N]-CA--C-[N] |==|  0.11184
USER: genes 25 Torsion [C]-N--CA-[CB] |==|  0.47751
USER: genes 26 Torsion [N]-CA--CB-[CG] |==|  0.78121
USER: genes 27 Torsion [CA]-CB--CG-[CD1] |==|  0.41599
USER: genes 28 Torsion [N]-CA--C-[O] |==|  0.87454
ROOT
ATOM      1  CA  LEU C  12       0.104   5.091  34.070  0.76 25.89 LIG 0.18  C 
ENDROOT
BRANCH 1 2
ATOM      2  N   LEU C  12      -0.361   4.023  33.194  0.76 24.12 LIG-0.35  N 
ATOM      3 H    LEU C  12      -0.042   3.247  33.384  0.76 24.12 LIG 0.16  HD
ATOM      4  C   GLN C  11      -1.205   4.253  32.194  0.76 26.11 LIG 0.24  C 
ATOM      5 O    GLN C  11      -1.660   5.372  31.942  0.76 27.34 LIG-0.27  OA
BRANCH 4 6
ATOM      6  CA  GLN C  11      -1.580   3.042  31.342  0.76 26.16 LIG 0.18  C 
BRANCH 6 7
ATOM      7  N   GLN C  11      -3.012   2.783  31.264  0.76 28.86 LIG-0.35  N 
ATOM      8  C   ARG C  10      -3.695   2.190  32.236  0.76 30.48 LIG 0.26  C 
ATOM      9 O    ARG C  10      -3.186   1.835  33.303  0.76 24.30 LIG-0.27  OA
ATOM     10 H    GLN C  11      -3.373   3.049  30.530  0.76 28.86 LIG 0.16  HD
BRANCH 8 11
ATOM     11  CA  ARG C  10      -5.192   1.979  31.966  0.76 33.62 LIG 0.40  C 
ATOM     12  N   ARG C  10      -5.460   1.806  30.507  0.76 36.52 LIG 0.61  N 
BRANCH 11 13
ATOM     13  CB  ARG C  10      -5.669   0.747  32.734  0.76 36.98 LIG 0.05  C 
BRANCH 13 14
ATOM     14  CG  ARG C  10      -6.662   1.022  33.868  0.76 39.40 LIG 0.02  C 
BRANCH 14 15
ATOM     15  CD  ARG C  10      -7.917   0.163  33.759  0.76 42.42 LIG 0.14  C 
BRANCH 15 16
ATOM     16  NE  ARG C  10      -8.238  -0.491  35.027  0.76 44.78 LIG-0.23  N 
ATOM     17  CZ  ARG C  10      -8.233  -1.807  35.224  0.76 45.62 LIG 0.67  C 
ATOM     18  NH2 ARG C  10      -8.522  -2.296  36.422  0.76 46.43 LIG-0.23  N 
ATOM     19  NH1 ARG C  10      -7.926  -2.634  34.234  0.76 45.50 LIG-0.23  N 
ATOM     20 2HH2 ARG C  10      -8.520  -3.147  36.552  0.76 46.43 LIG 0.17  HD
ATOM     21 1HH2 ARG C  10      -8.713  -1.762  37.070  0.76 46.43 LIG 0.17  HD
ATOM     22 2HH1 ARG C  10      -7.925  -3.484  34.367  0.76 45.50 LIG 0.17  HD
ATOM     23 1HH1 ARG C  10      -7.728  -2.321  33.457  0.76 45.50 LIG 0.17  HD
ATOM     24 HE   ARG C  10      -8.445   0.010  35.693  0.76 44.78 LIG 0.18  HD
ENDBRANCH 15 16
ENDBRANCH 14 15
ENDBRANCH 13 14
ENDBRANCH 11 13
ENDBRANCH 8 11
ENDBRANCH 6 7
BRANCH 6 25
ATOM     25  CB  GLN C  11      -1.015   3.237  29.933  0.76 25.68 LIG 0.04  C 
BRANCH 25 26
ATOM     26  CG  GLN C  11       0.334   2.580  29.714  0.76 22.66 LIG 0.10  C 
BRANCH 26 27
ATOM     27  CD  GLN C  11       0.213   1.291  28.944  0.76 24.13 LIG 0.21  C 
ATOM     28 OE1  GLN C  11      -0.741   1.100  28.182  0.76 19.83 LIG-0.27  OA
ATOM     29  NE2 GLN C  11       1.177   0.394  29.131  0.76 21.86 LIG-0.37  N 
ATOM     30 21HE GLN C  11       1.824   0.564  29.671  0.76 21.86 LIG 0.16  HD
ATOM     31 22HE GLN C  11       1.152  -0.357  28.713  0.76 21.86 LIG 0.16  HD
ENDBRANCH 26 27
ENDBRANCH 25 26
ENDBRANCH 6 25
ENDBRANCH 4 6
ENDBRANCH 1 2
BRANCH 1 32
ATOM     32  CB  LEU C  12       0.902   4.508  35.242  0.76 24.07 LIG 0.04  C 
BRANCH 32 33
ATOM     33  CG  LEU C  12       1.074   2.984  35.246  0.76 21.16 LIG-0.02  C 
ATOM     34  CD1 LEU C  12       2.197   2.620  36.205  0.76 25.64 LIG 0.01  C 
ATOM     35  CD2 LEU C  12      -0.229   2.300  35.659  0.76 25.10 LIG 0.01  C 
ENDBRANCH 32 33
ENDBRANCH 1 32
BRANCH 1 36
ATOM     36  C   LEU C  12       0.982   6.023  33.231  0.76 25.30 LIG 0.24  C 
ATOM     37 O    LEU C  12       1.424   5.649  32.140  0.76 25.87 LIG-0.27  OA
ATOM     38  N   VAL C  13       1.233   7.232  33.732  0.76 25.62 LIG-0.35  N 
ATOM     39 H    VAL C  13       0.955   7.508  34.498  0.76 25.62 LIG 0.16  HD
BRANCH 38 40
ATOM     40  CA  VAL C  13       2.029   8.203  32.982  0.76 24.99 LIG 0.18  C 
BRANCH 40 41
ATOM     41  CB  VAL C  13       1.745   9.648  33.459  0.76 27.65 LIG 0.01  C 
ATOM     42  CG1 VAL C  13       1.485   9.664  34.961  0.76 28.12 LIG 0.01  C 
ATOM     43  CG2 VAL C  13       2.918  10.548  33.119  0.76 27.69 LIG 0.01  C 
ENDBRANCH 40 41
BRANCH 40 44
ATOM     44  C   VAL C  13       3.535   7.975  33.043  0.76 25.58 LIG 0.24  C 
ATOM     45  N   LEU C  14       4.178   8.112  31.891  0.76 25.74 LIG-0.35  N 
ATOM     46 H    LEU C  14       3.796   8.314  31.149  0.76 25.74 LIG 0.16  HD
ATOM     47 O    VAL C  13       4.107   7.694  34.097  0.76 23.74 LIG-0.27  OA
BRANCH 45 48
ATOM     48  CA  LEU C  14       5.620   7.926  31.794  0.76 27.54 LIG 0.18  C 
BRANCH 48 49
ATOM     49  CB  LEU C  14       5.963   7.082  30.562  0.76 27.94 LIG 0.04  C 
BRANCH 49 50
ATOM     50  CG  LEU C  14       7.262   6.278  30.607  0.76 29.52 LIG-0.02  C 
ATOM     51  CD2 LEU C  14       7.826   6.294  32.025  0.76 29.01 LIG 0.01  C 
ATOM     52  CD1 LEU C  14       8.248   6.868  29.614  0.76 31.53 LIG 0.01  C 
ENDBRANCH 49 50
ENDBRANCH 48 49
BRANCH 48 53
ATOM     53  C   LEU C  14       6.380   9.240  31.698  0.76 27.94 LIG 0.24  C 
ATOM     54  N   GLY C  15       5.823  10.170  30.933  0.76 27.74 LIG-0.35  N 
ATOM     55 H    GLY C  15       5.099  10.061  30.482  0.76 27.74 LIG 0.16  HD
ATOM     56 O    LEU C  14       7.448   9.407  32.297  0.76 29.25 LIG-0.27  OA
BRANCH 54 57
ATOM     57  CA  GLY C  15       6.432  11.481  30.810  0.76 32.19 LIG 0.23  C 
BRANCH 57 58
ATOM     58  C   GLY C  15       5.421  12.364  30.096  0.76 34.72 LIG 0.24  C 
ATOM     59  N   LEU C  16       4.151  12.205  30.454  0.76 34.76 LIG-0.34  N 
ATOM     60 H    LEU C  16       3.895  11.656  31.064  0.76 34.76 LIG 0.16  HD
ATOM     61 O    GLY C  15       5.780  13.164  29.232  0.76 36.88 LIG-0.27  OA
BRANCH 59 62
ATOM     62  CA  LEU C  16       3.064  12.959  29.838  0.76 35.63 LIG 0.18  C 
BRANCH 62 63
ATOM     63  CB  LEU C  16       1.723  12.407  30.322  0.76 32.88 LIG 0.04  C 
BRANCH 63 64
ATOM     64  CG  LEU C  16       1.298  11.116  29.618  0.76 27.62 LIG-0.02  C 
ATOM     65  CD1 LEU C  16       0.461  10.256  30.552  0.76 29.42 LIG 0.01  C 
ATOM     66  CD2 LEU C  16       0.523  11.463  28.358  0.76 30.85 LIG 0.01  C 
ENDBRANCH 63 64
ENDBRANCH 62 63
BRANCH 62 67
ATOM     67  C   LEU C  16       3.129  14.459  30.086  0.76 36.84 LIG 0.20  C 
ATOM     68 O    LEU C  16       3.376  14.849  31.251  0.76 37.63 LIG-0.65  OA
ATOM     69 OXT  LEU C  16       2.934  15.224  29.118  0.76 38.60 LIG-0.65  OA
ENDBRANCH 62 67
ENDBRANCH 59 62
ENDBRANCH 57 58
ENDBRANCH 54 57
ENDBRANCH 48 53
ENDBRANCH 45 48
ENDBRANCH 40 44
ENDBRANCH 38 40
ENDBRANCH 1 36
TORSDOF 27
ENDMDL
MODEL 7
USER: ADFR SOLUTION from run 71
USER: SCORE 16.992140 LL:  -3.782 LR: -16.426 RR:   0.000 FEB:  -8.372
USER: RMSD 4.197077
USER: SEED 70
USER: STATUS searching
USER: GENES 29
USER: genes 0 Translation |==|  0.52481 0.45254 0.58427
USER: genes 1 Rotation |==|  0.46663 0.46847 0.51927 0.99751
USER: genes 2 Torsion [CB]-CA--N-[C] |==|  0.47431
USER: genes 3 Torsion [N]-C--CA-[N] |==|  0.33423
USER: genes 4 Torsion [C]-CA--N-[C] |==|  0.79095
USER: genes 5 Torsion [N]-C--CA-[N] |==|  0.07544
USER: genes 6 Torsion [C]-CA--CB-[CG] |==|  0.30456
USER: genes 7 Torsion [CA]-CB--CG-[CD] |==|  0.35504
USER: genes 8 Torsion [CB]-CG--CD-[NE] |==|  0.36151
USER: genes 9 Torsion [CG]-CD--NE-[CZ] |==|  0.68153
USER: genes 10 Torsion [C]-CA--CB-[CG] |==|  0.25825
USER: genes 11 Torsion [CA]-CB--CG-[CD] |==|  0.27870
USER: genes 12 Torsion [CB]-CG--CD-[OE1] |==|  0.07473
USER: genes 13 Torsion [N]-CA--CB-[CG] |==|  0.99356
USER: genes 14 Torsion [CA]-CB--CG-[CD2] |==|  0.79062
USER: genes 15 Torsion [N]-CA--C-[N] |==|  0.44361
USER: genes 16 Torsion [C]-N--CA-[CB] |==|  0.42423
USER: genes 17 Torsion [N]-CA--CB-[CG1] |==|  0.11180
USER: genes 18 Torsion [N]-CA--C-[N] |==|  0.39348
USER: genes 19 Torsion [C]-N--CA-[CB] |==|  0.53089
USER: genes 20 Torsion [N]-CA--CB-[CG] |==|  0.73060
USER: genes 21 Torsion [CA]-CB--CG-[CD1] |==|  0.59471
USER: genes 22 Torsion [N]-CA--C-[N] |==|  0.37712
USER: genes 23 Torsion [C]-N--CA-[C] |==|  0.59932
USER: genes 24 Torsion [N]-CA--C-[N] |==|  0.56800
USER: genes 25 Torsion [C]-N--CA-[CB] |==|  0.44462
USER: genes 26 Torsion [N]-CA--CB-[CG] |==|  0.87422
USER: genes 27 Torsion [CA]-CB--CG-[CD1] |==|  0.30200
USER: genes 28 Torsion [N]-CA--C-[O] |==|  0.10651
ROOT
ATOM      1  CA  LEU C  12      -0.057   5.048  33.873  0.76 25.89 LIG 0.18  C 
ENDROOT
BRANCH 1 2
ATOM      2  N   LEU C  12      -0.513   3.958  33.021  0.76 24.12 LIG-0.35  N 
ATOM      3 H    LEU C  12      -0.220   3.183  33.250  0.76 24.12 LIG 0.16  HD
ATOM      4  C   GLN C  11      -1.316   4.169  31.982  0.76 26.11 LIG 0.24  C 
ATOM      5 O    GLN C  11      -1.735   5.287  31.673  0.76 27.34 LIG-0.27  OA
BRANCH 4 6
ATOM      6  CA  GLN C  11      -1.686   2.936  31.161  0.76 26.16 LIG 0.18  C 
BRANCH 6 7
ATOM      7  N   GLN C  11      -3.117   2.661  31.102  0.76 28.86 LIG-0.35  N 
ATOM      8  C   ARG C  10      -3.797   2.141  32.117  0.76 30.48 LIG 0.26  C 
ATOM      9 O    ARG C  10      -3.288   1.873  33.208  0.76 24.30 LIG-0.27  OA
ATOM     10 H    GLN C  11      -3.478   2.868  30.350  0.76 28.86 LIG 0.16  HD
BRANCH 8 11
ATOM     11  CA  ARG C  10      -5.293   1.900  31.861  0.76 33.62 LIG 0.40  C 
ATOM     12  N   ARG C  10      -5.566   1.676  30.411  0.76 36.52 LIG 0.61  N 
BRANCH 11 13
ATOM     13  CB  ARG C  10      -5.747   0.687  32.671  0.76 36.98 LIG 0.05  C 
BRANCH 13 14
ATOM     14  CG  ARG C  10      -6.670   0.994  33.856  0.76 39.40 LIG 0.02  C 
BRANCH 14 15
ATOM     15  CD  ARG C  10      -7.944   0.156  33.828  0.76 42.42 LIG 0.14  C 
BRANCH 15 16
ATOM     16  NE  ARG C  10      -8.195  -0.491  35.115  0.76 44.78 LIG-0.23  N 
ATOM     17  CZ  ARG C  10      -8.179  -1.805  35.320  0.76 45.62 LIG 0.67  C 
ATOM     18  NH2 ARG C  10      -8.402  -2.288  36.535  0.76 46.43 LIG-0.23  N 
ATOM     19  NH1 ARG C  10      -7.926  -2.638  34.319  0.76 45.50 LIG-0.23  N 
ATOM     20 2HH2 ARG C  10      -8.391  -3.137  36.669  0.76 46.43 LIG 0.17  HD
ATOM     21 1HH2 ARG C  10      -8.557  -1.750  37.189  0.76 46.43 LIG 0.17  HD
ATOM     22 2HH1 ARG C  10      -7.917  -3.487  34.457  0.76 45.50 LIG 0.17  HD
ATOM     23 1HH1 ARG C  10      -7.770  -2.330  33.531  0.76 45.50 LIG 0.17  HD
ATOM     24 HE   ARG C  10      -8.366   0.015  35.789  0.76 44.78 LIG 0.18  HD
ENDBRANCH 15 16
ENDBRANCH 14 15
ENDBRANCH 13 14
ENDBRANCH 11 13
ENDBRANCH 8 11
ENDBRANCH 6 7
BRANCH 6 25
ATOM     25  CB  GLN C  11      -1.136   3.104  29.743  0.76 25.68 LIG 0.04  C 
BRANCH 25 26
ATOM     26  CG  GLN C  11       0.239   2.495  29.540  0.76 22.66 LIG 0.10  C 
BRANCH 26 27
ATOM     27  CD  GLN C  11       0.164   1.153  28.859  0.76 24.13 LIG 0.21  C 
ATOM     28 OE1  GLN C  11      -0.779   0.878  28.111  0.76 19.83 LIG-0.27  OA
ATOM     29  NE2 GLN C  11       1.157   0.304  29.110  0.76 21.86 LIG-0.37  N 
ATOM     30 21HE GLN C  11       1.796   0.533  29.638  0.76 21.86 LIG 0.16  HD
ATOM     31 22HE GLN C  11       1.159  -0.474  28.745  0.76 21.86 LIG 0.16  HD
ENDBRANCH 26 27
ENDBRANCH 25 26
ENDBRANCH 6 25
ENDBRANCH 4 6
ENDBRANCH 1 2
BRANCH 1 32
ATOM     32  CB  LEU C  12       0.658   4.491  35.111  0.76 24.07 LIG 0.04  C 
BRANCH 32 33
ATOM     33  CG  LEU C  12       0.699   2.962  35.232  0.76 21.16 LIG-0.02  C 
ATOM     34  CD1 LEU C  12       1.770   2.580  36.241  0.76 25.64 LIG 0.01  C 
ATOM     35  CD2 LEU C  12      -0.664   2.424  35.663  0.76 25.10 LIG 0.01  C 
ENDBRANCH 32 33
ENDBRANCH 1 32
BRANCH 1 36
ATOM     36  C   LEU C  12       0.897   5.912  33.043  0.76 25.30 LIG 0.24  C 
ATOM     37 O    LEU C  12       1.437   5.450  32.033  0.76 25.87 LIG-0.27  OA
ATOM     38  N   VAL C  13       1.105   7.159  33.463  0.76 25.62 LIG-0.35  N 
ATOM     39 H    VAL C  13       0.758   7.496  34.174  0.76 25.62 LIG 0.16  HD
BRANCH 38 40
ATOM     40  CA  VAL C  13       1.968   8.068  32.711  0.76 24.99 LIG 0.18  C 
BRANCH 40 41
ATOM     41  CB  VAL C  13       1.559   9.544  32.935  0.76 27.65 LIG 0.01  C 
ATOM     42  CG1 VAL C  13       1.191   9.771  34.397  0.76 28.12 LIG 0.01  C 
ATOM     43  CG2 VAL C  13       2.694  10.466  32.530  0.76 27.69 LIG 0.01  C 
ENDBRANCH 40 41
BRANCH 40 44
ATOM     44  C   VAL C  13       3.455   7.940  33.025  0.76 25.58 LIG 0.24  C 
ATOM     45  N   LEU C  14       4.268   8.062  31.984  0.76 25.74 LIG-0.35  N 
ATOM     46 H    LEU C  14       4.001   8.203  31.180  0.76 25.74 LIG 0.16  HD
ATOM     47 O    VAL C  13       3.862   7.746  34.171  0.76 23.74 LIG-0.27  OA
BRANCH 45 48
ATOM     48  CA  LEU C  14       5.715   7.963  32.129  0.76 27.54 LIG 0.18  C 
BRANCH 48 49
ATOM     49  CB  LEU C  14       6.408   8.412  30.839  0.76 27.94 LIG 0.04  C 
BRANCH 49 50
ATOM     50  CG  LEU C  14       6.830   7.319  29.858  0.76 29.52 LIG-0.02  C 
ATOM     51  CD2 LEU C  14       7.002   5.999  30.605  0.76 29.01 LIG 0.01  C 
ATOM     52  CD1 LEU C  14       8.118   7.736  29.169  0.76 31.53 LIG 0.01  C 
ENDBRANCH 49 50
ENDBRANCH 48 49
BRANCH 48 53
ATOM     53  C   LEU C  14       6.252   8.805  33.277  0.76 27.94 LIG 0.24  C 
ATOM     54  N   GLY C  15       7.154   8.214  34.049  0.76 27.74 LIG-0.35  N 
ATOM     55 H    GLY C  15       7.418   7.401  33.956  0.76 27.74 LIG 0.16  HD
ATOM     56 O    LEU C  14       5.854   9.961  33.463  0.76 29.25 LIG-0.27  OA
BRANCH 54 57
ATOM     57  CA  GLY C  15       7.773   8.940  35.142  0.76 32.19 LIG 0.23  C 
BRANCH 57 58
ATOM     58  C   GLY C  15       9.214   8.460  35.221  0.76 34.72 LIG 0.24  C 
ATOM     59  N   LEU C  16       9.808   8.588  36.403  0.76 34.76 LIG-0.34  N 
ATOM     60 H    LEU C  16       9.416   8.904  37.099  0.76 34.76 LIG 0.16  HD
ATOM     61 O    GLY C  15       9.779   7.992  34.232  0.76 36.88 LIG-0.27  OA
BRANCH 59 62
ATOM     62  CA  LEU C  16      11.197   8.199  36.627  0.76 35.63 LIG 0.18  C 
BRANCH 62 63
ATOM     63  CB  LEU C  16      11.727   8.900  37.877  0.76 32.88 LIG 0.04  C 
BRANCH 63 64
ATOM     64  CG  LEU C  16      11.370  10.387  37.948  0.76 27.62 LIG-0.02  C 
ATOM     65  CD1 LEU C  16      10.326  10.629  39.027  0.76 29.42 LIG 0.01  C 
ATOM     66  CD2 LEU C  16      12.629  11.193  38.219  0.76 30.85 LIG 0.01  C 
ENDBRANCH 63 64
ENDBRANCH 62 63
BRANCH 62 67
ATOM     67  C   LEU C  16      11.410   6.696  36.742  0.76 36.84 LIG 0.20  C 
ATOM     68 O    LEU C  16      10.739   5.951  35.990  0.76 37.63 LIG-0.65  OA
ATOM     69 OXT  LEU C  16      12.241   6.283  37.578  0.76 38.60 LIG-0.65  OA
ENDBRANCH 62 67
ENDBRANCH 59 62
ENDBRANCH 57 58
ENDBRANCH 54 57
ENDBRANCH 48 53
ENDBRANCH 45 48
ENDBRANCH 40 44
ENDBRANCH 38 40
ENDBRANCH 1 36
TORSDOF 27
ENDMDL
MODEL 8
USER: ADFR SOLUTION from run 199
USER: SCORE 17.893443 LL:  -4.729 LR: -16.295 RR:   0.000 FEB:  -8.240
USER: RMSD 3.770562
USER: SEED 198
USER: STATUS no improvement in best in 4 clusters for 5 generations
USER: GENES 29
USER: genes 0 Translation |==|  0.52464 0.44694 0.56162
USER: genes 1 Rotation |==|  0.44477 0.46934 0.51627 0.99573
USER: genes 2 Torsion [CB]-CA--N-[C] |==|  0.49445
USER: genes 3 Torsion [N]-C--CA-[N] |==|  0.35375
USER: genes 4 Torsion [C]-CA--N-[C] |==|  0.76342
USER: genes 5 Torsion [N]-C--CA-[N] |==|  0.75618
USER: genes 6 Torsion [C]-CA--CB-[CG] |==|  0.75840
USER: genes 7 Torsion [CA]-CB--CG-[CD] |==|  0.36185
USER: genes 8 Torsion [CB]-CG--CD-[NE] |==|  0.69621
USER: genes 9 Torsion [CG]-CD--NE-[CZ] |==|  0.59313
USER: genes 10 Torsion [C]-CA--CB-[CG] |==|  0.15417
USER: genes 11 Torsion [CA]-CB--CG-[CD] |==|  0.68530
USER: genes 12 Torsion [CB]-CG--CD-[OE1] |==|  0.04454
USER: genes 13 Torsion [N]-CA--CB-[CG] |==|  0.96851
USER: genes 14 Torsion [CA]-CB--CG-[CD2] |==|  0.77233
USER: genes 15 Torsion [N]-CA--C-[N] |==|  0.46808
USER: genes 16 Torsion [C]-N--CA-[CB] |==|  0.35943
USER: genes 17 Torsion [N]-CA--CB-[CG1] |==|  0.77150
USER: genes 18 Torsion [N]-CA--C-[N] |==|  0.41191
USER: genes 19 Torsion [C]-N--CA-[CB] |==|  0.51667
USER: genes 20 Torsion [N]-CA--CB-[CG] |==|  0.78628
USER: genes 21 Torsion [CA]-CB--CG-[CD1] |==|  0.58426
USER: genes 22 Torsion [N]-CA--C-[N] |==|  0.38995
USER: genes 23 Torsion [C]-N--CA-[C] |==|  0.69705
USER: genes 24 Torsion [N]-CA--C-[N] |==|  0.47583
USER: genes 25 Torsion [C]-N--CA-[CB] |==|  0.22827
USER: genes 26 Torsion [N]-CA--CB-[CG] |==|  0.41848
USER: genes 27 Torsion [CA]-CB--CG-[CD1] |==|  0.36492
USER: genes 28 Torsion [N]-CA--C-[O] |==|  0.38932
ROOT
ATOM      1  CA  LEU C  12      -0.062   4.896  33.500  0.76 25.89 LIG 0.18  C 
ENDROOT
BRANCH 1 2
ATOM      2  N   LEU C  12      -0.537   3.745  32.744  0.76 24.12 LIG-0.35  N 
ATOM      3 H    LEU C  12      -0.340   2.986  33.095  0.76 24.12 LIG 0.16  HD
ATOM      4  C   GLN C  11      -1.217   3.882  31.610  0.76 26.11 LIG 0.24  C 
ATOM      5 O    GLN C  11      -1.499   4.981  31.124  0.76 27.34 LIG-0.27  OA
BRANCH 4 6
ATOM      6  CA  GLN C  11      -1.623   2.586  30.912  0.76 26.16 LIG 0.18  C 
BRANCH 6 7
ATOM      7  N   GLN C  11      -3.043   2.495  30.594  0.76 28.86 LIG-0.35  N 
ATOM      8  C   ARG C  10      -3.953   2.063  31.460  0.76 30.48 LIG 0.26  C 
ATOM      9 O    ARG C  10      -3.684   1.732  32.617  0.76 24.30 LIG-0.27  OA
ATOM     10 H    GLN C  11      -3.236   2.746  29.795  0.76 28.86 LIG 0.16  HD
BRANCH 8 11
ATOM     11  CA  ARG C  10      -5.397   2.014  30.938  0.76 33.62 LIG 0.40  C 
ATOM     12  N   ARG C  10      -6.092   3.319  31.143  0.76 36.52 LIG 0.61  N 
BRANCH 11 13
ATOM     13  CB  ARG C  10      -5.377   1.661  29.451  0.76 36.98 LIG 0.05  C 
BRANCH 13 14
ATOM     14  CG  ARG C  10      -5.227   2.849  28.495  0.76 39.40 LIG 0.02  C 
BRANCH 14 15
ATOM     15  CD  ARG C  10      -4.129   2.624  27.462  0.76 42.42 LIG 0.14  C 
BRANCH 15 16
ATOM     16  NE  ARG C  10      -2.968   3.479  27.708  0.76 44.78 LIG-0.23  N 
ATOM     17  CZ  ARG C  10      -2.190   3.994  26.760  0.76 45.62 LIG 0.67  C 
ATOM     18  NH2 ARG C  10      -1.171   4.774  27.094  0.76 46.43 LIG-0.23  N 
ATOM     19  NH1 ARG C  10      -2.433   3.744  25.481  0.76 45.50 LIG-0.23  N 
ATOM     20 2HH2 ARG C  10      -0.666   5.108  26.483  0.76 46.43 LIG 0.17  HD
ATOM     21 1HH2 ARG C  10      -1.014   4.946  27.923  0.76 46.43 LIG 0.17  HD
ATOM     22 2HH1 ARG C  10      -1.926   4.079  24.872  0.76 45.50 LIG 0.17  HD
ATOM     23 1HH1 ARG C  10      -3.099   3.246  25.259  0.76 45.50 LIG 0.17  HD
ATOM     24 HE   ARG C  10      -2.775   3.662  28.525  0.76 44.78 LIG 0.18  HD
ENDBRANCH 15 16
ENDBRANCH 14 15
ENDBRANCH 13 14
ENDBRANCH 11 13
ENDBRANCH 8 11
ENDBRANCH 6 7
BRANCH 6 25
ATOM     25  CB  GLN C  11      -0.799   2.436  29.631  0.76 25.68 LIG 0.04  C 
BRANCH 25 26
ATOM     26  CG  GLN C  11       0.701   2.488  29.855  0.76 22.66 LIG 0.10  C 
BRANCH 26 27
ATOM     27  CD  GLN C  11       1.319   3.714  29.233  0.76 24.13 LIG 0.21  C 
ATOM     28 OE1  GLN C  11       0.615   4.670  28.892  0.76 19.83 LIG-0.27  OA
ATOM     29  NE2 GLN C  11       2.640   3.700  29.081  0.76 21.86 LIG-0.37  N 
ATOM     30 21HE GLN C  11       3.095   3.015  29.331  0.76 21.86 LIG 0.16  HD
ATOM     31 22HE GLN C  11       3.039   4.377  28.731  0.76 21.86 LIG 0.16  HD
ENDBRANCH 26 27
ENDBRANCH 25 26
ENDBRANCH 6 25
ENDBRANCH 4 6
ENDBRANCH 1 2
BRANCH 1 32
ATOM     32  CB  LEU C  12       0.642   4.437  34.782  0.76 24.07 LIG 0.04  C 
BRANCH 32 33
ATOM     33  CG  LEU C  12       0.474   2.957  35.147  0.76 21.16 LIG-0.02  C 
ATOM     34  CD1 LEU C  12       1.636   2.536  36.034  0.76 25.64 LIG 0.01  C 
ATOM     35  CD2 LEU C  12      -0.857   2.731  35.862  0.76 25.10 LIG 0.01  C 
ENDBRANCH 32 33
ENDBRANCH 1 32
BRANCH 1 36
ATOM     36  C   LEU C  12       0.907   5.668  32.600  0.76 25.30 LIG 0.24  C 
ATOM     37 O    LEU C  12       1.313   5.167  31.546  0.76 25.87 LIG-0.27  OA
ATOM     38  N   VAL C  13       1.277   6.882  33.008  0.76 25.62 LIG-0.35  N 
ATOM     39 H    VAL C  13       1.025   7.243  33.747  0.76 25.62 LIG 0.16  HD
BRANCH 38 40
ATOM     40  CA  VAL C  13       2.167   7.706  32.194  0.76 24.99 LIG 0.18  C 
BRANCH 40 41
ATOM     41  CB  VAL C  13       1.589   9.129  31.995  0.76 27.65 LIG 0.01  C 
ATOM     42  CG1 VAL C  13       0.571   9.127  30.860  0.76 28.12 LIG 0.01  C 
ATOM     43  CG2 VAL C  13       0.943   9.613  33.279  0.76 27.69 LIG 0.01  C 
ENDBRANCH 40 41
BRANCH 40 44
ATOM     44  C   VAL C  13       3.584   7.847  32.741  0.76 25.58 LIG 0.24  C 
ATOM     45  N   LEU C  14       4.536   7.979  31.827  0.76 25.74 LIG-0.35  N 
ATOM     46 H    LEU C  14       4.391   7.988  30.980  0.76 25.74 LIG 0.16  HD
ATOM     47 O    VAL C  13       3.815   7.847  33.950  0.76 23.74 LIG-0.27  OA
BRANCH 45 48
ATOM     48  CA  LEU C  14       5.937   8.124  32.199  0.76 27.54 LIG 0.18  C 
BRANCH 48 49
ATOM     49  CB  LEU C  14       6.788   8.406  30.956  0.76 27.94 LIG 0.04  C 
BRANCH 49 50
ATOM     50  CG  LEU C  14       7.103   7.220  30.044  0.76 29.52 LIG-0.02  C 
ATOM     51  CD2 LEU C  14       7.097   5.930  30.860  0.76 29.01 LIG 0.01  C 
ATOM     52  CD1 LEU C  14       8.449   7.446  29.378  0.76 31.53 LIG 0.01  C 
ENDBRANCH 49 50
ENDBRANCH 48 49
BRANCH 48 53
ATOM     53  C   LEU C  14       6.169   9.245  33.200  0.76 27.94 LIG 0.24  C 
ATOM     54  N   GLY C  15       7.057   8.990  34.152  0.76 27.74 LIG-0.35  N 
ATOM     55 H    GLY C  15       7.470   8.242  34.246  0.76 27.74 LIG 0.16  HD
ATOM     56 O    LEU C  14       5.554  10.315  33.117  0.76 29.25 LIG-0.27  OA
BRANCH 54 57
ATOM     57  CA  GLY C  15       7.397  10.007  35.130  0.76 32.19 LIG 0.23  C 
BRANCH 57 58
ATOM     58  C   GLY C  15       8.813  10.461  34.810  0.76 34.72 LIG 0.24  C 
ATOM     59  N   LEU C  16       9.252  11.521  35.481  0.76 34.76 LIG-0.34  N 
ATOM     60 H    LEU C  16       8.788  11.929  36.079  0.76 34.76 LIG 0.16  HD
ATOM     61 O    GLY C  15       9.490   9.872  33.966  0.76 36.88 LIG-0.27  OA
BRANCH 59 62
ATOM     62  CA  LEU C  16      10.577  12.092  35.262  0.76 35.63 LIG 0.18  C 
BRANCH 62 63
ATOM     63  CB  LEU C  16      10.538  13.015  34.044  0.76 32.88 LIG 0.04  C 
BRANCH 63 64
ATOM     64  CG  LEU C  16      11.548  14.164  34.109  0.76 27.62 LIG-0.02  C 
ATOM     65  CD1 LEU C  16      12.325  14.257  32.805  0.76 29.42 LIG 0.01  C 
ATOM     66  CD2 LEU C  16      10.814  15.462  34.399  0.76 30.85 LIG 0.01  C 
ENDBRANCH 63 64
ENDBRANCH 62 63
BRANCH 62 67
ATOM     67  C   LEU C  16      11.137  12.839  36.465  0.76 36.84 LIG 0.20  C 
ATOM     68 O    LEU C  16      12.356  12.704  36.721  0.76 37.63 LIG-0.65  OA
ATOM     69 OXT  LEU C  16      10.355  13.547  37.133  0.76 38.60 LIG-0.65  OA
ENDBRANCH 62 67
ENDBRANCH 59 62
ENDBRANCH 57 58
ENDBRANCH 54 57
ENDBRANCH 48 53
ENDBRANCH 45 48
ENDBRANCH 40 44
ENDBRANCH 38 40
ENDBRANCH 1 36
TORSDOF 27
ENDMDL
MODEL 9
USER: ADFR SOLUTION from run 138
USER: SCORE 16.800436 LL:  -4.386 LR: -16.219 RR:   0.000 FEB:  -8.165
USER: RMSD 4.253530
USER: SEED 137
USER: STATUS no improvement in best in 5 clusters for 5 generations
USER: GENES 29
USER: genes 0 Translation |==|  0.52420 0.44252 0.56245
USER: genes 1 Rotation |==|  0.47969 0.48696 0.51621 0.99915
USER: genes 2 Torsion [CB]-CA--N-[C] |==|  0.47778
USER: genes 3 Torsion [N]-C--CA-[N] |==|  0.33360
USER: genes 4 Torsion [C]-CA--N-[C] |==|  0.79887
USER: genes 5 Torsion [N]-C--CA-[N] |==|  0.11898
USER: genes 6 Torsion [C]-CA--CB-[CG] |==|  0.28597
USER: genes 7 Torsion [CA]-CB--CG-[CD] |==|  0.37726
USER: genes 8 Torsion [CB]-CG--CD-[NE] |==|  0.11721
USER: genes 9 Torsion [CG]-CD--NE-[CZ] |==|  0.43701
USER: genes 10 Torsion [C]-CA--CB-[CG] |==|  0.09179
USER: genes 11 Torsion [CA]-CB--CG-[CD] |==|  0.26704
USER: genes 12 Torsion [CB]-CG--CD-[OE1] |==|  0.01246
USER: genes 13 Torsion [N]-CA--CB-[CG] |==|  0.90765
USER: genes 14 Torsion [CA]-CB--CG-[CD2] |==|  0.80856
USER: genes 15 Torsion [N]-CA--C-[N] |==|  0.44811
USER: genes 16 Torsion [C]-N--CA-[CB] |==|  0.38943
USER: genes 17 Torsion [N]-CA--CB-[CG1] |==|  0.44602
USER: genes 18 Torsion [N]-CA--C-[N] |==|  0.36956
USER: genes 19 Torsion [C]-N--CA-[CB] |==|  0.51827
USER: genes 20 Torsion [N]-CA--CB-[CG] |==|  0.69695
USER: genes 21 Torsion [CA]-CB--CG-[CD1] |==|  0.60573
USER: genes 22 Torsion [N]-CA--C-[N] |==|  0.25069
USER: genes 23 Torsion [C]-N--CA-[C] |==|  0.64731
USER: genes 24 Torsion [N]-CA--C-[N] |==|  0.99093
USER: genes 25 Torsion [C]-N--CA-[CB] |==|  0.34550
USER: genes 26 Torsion [N]-CA--CB-[CG] |==|  0.85226
USER: genes 27 Torsion [CA]-CB--CG-[CD1] |==|  0.50501
USER: genes 28 Torsion [N]-CA--C-[O] |==|  0.41458
ROOT
ATOM      1  CA  LEU C  12      -0.075   4.777  33.513  0.76 25.89 LIG 0.18  C 
ENDROOT
BRANCH 1 2
ATOM      2  N   LEU C  12      -0.611   3.738  32.645  0.76 24.12 LIG-0.35  N 
ATOM      3 H    LEU C  12      -0.327   2.947  32.823  0.76 24.12 LIG 0.16  HD
ATOM      4  C   GLN C  11      -1.467   4.015  31.665  0.76 26.11 LIG 0.24  C 
ATOM      5 O    GLN C  11      -1.872   5.156  31.429  0.76 27.34 LIG-0.27  OA
BRANCH 4 6
ATOM      6  CA  GLN C  11      -1.920   2.828  30.817  0.76 26.16 LIG 0.18  C 
BRANCH 6 7
ATOM      7  N   GLN C  11      -3.358   2.590  30.836  0.76 28.86 LIG-0.35  N 
ATOM      8  C   ARG C  10      -3.996   2.092  31.889  0.76 30.48 LIG 0.26  C 
ATOM      9 O    ARG C  10      -3.435   1.816  32.953  0.76 24.30 LIG-0.27  OA
ATOM     10 H    GLN C  11      -3.754   2.803  30.103  0.76 28.86 LIG 0.16  HD
BRANCH 8 11
ATOM     11  CA  ARG C  10      -5.509   1.889  31.716  0.76 33.62 LIG 0.40  C 
ATOM     12  N   ARG C  10      -5.827   1.301  30.381  0.76 36.52 LIG 0.61  N 
BRANCH 11 13
ATOM     13  CB  ARG C  10      -6.018   0.970  32.825  0.76 36.98 LIG 0.05  C 
BRANCH 13 14
ATOM     14  CG  ARG C  10      -6.758   1.669  33.971  0.76 39.40 LIG 0.02  C 
BRANCH 14 15
ATOM     15  CD  ARG C  10      -8.028   0.929  34.375  0.76 42.42 LIG 0.14  C 
BRANCH 15 16
ATOM     16  NE  ARG C  10      -7.821  -0.518  34.422  0.76 44.78 LIG-0.23  N 
ATOM     17  CZ  ARG C  10      -8.563  -1.368  35.126  0.76 45.62 LIG 0.67  C 
ATOM     18  NH2 ARG C  10      -8.300  -2.667  35.082  0.76 46.43 LIG-0.23  N 
ATOM     19  NH1 ARG C  10      -9.575  -0.928  35.862  0.76 45.50 LIG-0.23  N 
ATOM     20 2HH2 ARG C  10      -8.779  -3.219  35.537  0.76 46.43 LIG 0.17  HD
ATOM     21 1HH2 ARG C  10      -7.651  -2.958  34.599  0.76 46.43 LIG 0.17  HD
ATOM     22 2HH1 ARG C  10     -10.051  -1.482  36.316  0.76 45.50 LIG 0.17  HD
ATOM     23 1HH1 ARG C  10      -9.756  -0.087  35.886  0.76 45.50 LIG 0.17  HD
ATOM     24 HE   ARG C  10      -7.173  -0.843  33.960  0.76 44.78 LIG 0.18  HD
ENDBRANCH 15 16
ENDBRANCH 14 15
ENDBRANCH 13 14
ENDBRANCH 11 13
ENDBRANCH 8 11
ENDBRANCH 6 7
BRANCH 6 25
ATOM     25  CB  GLN C  11      -1.454   3.046  29.375  0.76 25.68 LIG 0.04  C 
BRANCH 25 26
ATOM     26  CG  GLN C  11      -0.135   3.786  29.261  0.76 22.66 LIG 0.10  C 
BRANCH 26 27
ATOM     27  CD  GLN C  11       1.028   2.840  29.106  0.76 24.13 LIG 0.21  C 
ATOM     28 OE1  GLN C  11       0.840   1.624  29.002  0.76 19.83 LIG-0.27  OA
ATOM     29  NE2 GLN C  11       2.240   3.387  29.089  0.76 21.86 LIG-0.37  N 
ATOM     30 21HE GLN C  11       2.329   4.239  29.165  0.76 21.86 LIG 0.16  HD
ATOM     31 22HE GLN C  11       2.935   2.888  29.002  0.76 21.86 LIG 0.16  HD
ENDBRANCH 26 27
ENDBRANCH 25 26
ENDBRANCH 6 25
ENDBRANCH 4 6
ENDBRANCH 1 2
BRANCH 1 32
ATOM     32  CB  LEU C  12       0.721   4.150  34.664  0.76 24.07 LIG 0.04  C 
BRANCH 32 33
ATOM     33  CG  LEU C  12       0.210   2.797  35.175  0.76 21.16 LIG-0.02  C 
ATOM     34  CD1 LEU C  12       1.247   2.205  36.116  0.76 25.64 LIG 0.01  C 
ATOM     35  CD2 LEU C  12      -1.130   2.966  35.889  0.76 25.10 LIG 0.01  C 
ENDBRANCH 32 33
ENDBRANCH 1 32
BRANCH 1 36
ATOM     36  C   LEU C  12       0.828   5.671  32.658  0.76 25.30 LIG 0.24  C 
ATOM     37 O    LEU C  12       1.259   5.265  31.574  0.76 25.87 LIG-0.27  OA
ATOM     38  N   VAL C  13       1.113   6.880  33.138  0.76 25.62 LIG-0.35  N 
ATOM     39 H    VAL C  13       0.843   7.177  33.899  0.76 25.62 LIG 0.16  HD
BRANCH 38 40
ATOM     40  CA  VAL C  13       1.934   7.815  32.371  0.76 24.99 LIG 0.18  C 
BRANCH 40 41
ATOM     41  CB  VAL C  13       1.394   9.262  32.487  0.76 27.65 LIG 0.01  C 
ATOM     42  CG1 VAL C  13       2.484  10.260  32.110  0.76 28.12 LIG 0.01  C 
ATOM     43  CG2 VAL C  13       0.185   9.440  31.589  0.76 27.69 LIG 0.01  C 
ENDBRANCH 40 41
BRANCH 40 44
ATOM     44  C   VAL C  13       3.410   7.832  32.757  0.76 25.58 LIG 0.24  C 
ATOM     45  N   LEU C  14       4.263   7.784  31.743  0.76 25.74 LIG-0.35  N 
ATOM     46 H    LEU C  14       4.027   7.746  30.918  0.76 25.74 LIG 0.16  HD
ATOM     47 O    VAL C  13       3.772   7.896  33.932  0.76 23.74 LIG-0.27  OA
BRANCH 45 48
ATOM     48  CA  LEU C  14       5.705   7.794  31.956  0.76 27.54 LIG 0.18  C 
BRANCH 48 49
ATOM     49  CB  LEU C  14       6.437   7.895  30.615  0.76 27.94 LIG 0.04  C 
BRANCH 49 50
ATOM     50  CG  LEU C  14       7.182   6.651  30.132  0.76 29.52 LIG-0.02  C 
ATOM     51  CD2 LEU C  14       7.443   5.719  31.312  0.76 29.01 LIG 0.01  C 
ATOM     52  CD1 LEU C  14       8.480   7.073  29.464  0.76 31.53 LIG 0.01  C 
ENDBRANCH 49 50
ENDBRANCH 48 49
BRANCH 48 53
ATOM     53  C   LEU C  14       6.163   8.945  32.839  0.76 27.94 LIG 0.24  C 
ATOM     54  N   GLY C  15       6.202   8.690  34.140  0.76 27.74 LIG-0.35  N 
ATOM     55 H    GLY C  15       5.961   7.947  34.499  0.76 27.74 LIG 0.16  HD
ATOM     56 O    LEU C  14       6.468  10.041  32.354  0.76 29.25 LIG-0.27  OA
BRANCH 54 57
ATOM     57  CA  GLY C  15       6.674   9.698  35.071  0.76 32.19 LIG 0.23  C 
BRANCH 57 58
ATOM     58  C   GLY C  15       7.764   9.041  35.905  0.76 34.72 LIG 0.24  C 
ATOM     59  N   LEU C  16       7.985   7.753  35.666  0.76 34.76 LIG-0.34  N 
ATOM     60 H    LEU C  16       7.562   7.302  35.069  0.76 34.76 LIG 0.16  HD
ATOM     61 O    GLY C  15       8.384   9.684  36.752  0.76 36.88 LIG-0.27  OA
BRANCH 59 62
ATOM     62  CA  LEU C  16       8.977   6.979  36.406  0.76 35.63 LIG 0.18  C 
BRANCH 62 63
ATOM     63  CB  LEU C  16       8.305   5.757  37.033  0.76 32.88 LIG 0.04  C 
BRANCH 63 64
ATOM     64  CG  LEU C  16       7.076   6.096  37.880  0.76 27.62 LIG-0.02  C 
ATOM     65  CD1 LEU C  16       6.497   4.834  38.500  0.76 29.42 LIG 0.01  C 
ATOM     66  CD2 LEU C  16       7.465   7.100  38.951  0.76 30.85 LIG 0.01  C 
ENDBRANCH 63 64
ENDBRANCH 62 63
BRANCH 62 67
ATOM     67  C   LEU C  16      10.174   6.544  35.571  0.76 36.84 LIG 0.20  C 
ATOM     68 O    LEU C  16      11.278   6.424  36.151  0.76 37.63 LIG-0.65  OA
ATOM     69 OXT  LEU C  16       9.994   6.330  34.354  0.76 38.60 LIG-0.65  OA
ENDBRANCH 62 67
ENDBRANCH 59 62
ENDBRANCH 57 58
ENDBRANCH 54 57
ENDBRANCH 48 53
ENDBRANCH 45 48
ENDBRANCH 40 44
ENDBRANCH 38 40
ENDBRANCH 1 36
TORSDOF 27
ENDMDL
MODEL 10
USER: ADFR SOLUTION from run 192
USER: SCORE 16.993384 LL:  -4.631 LR: -16.009 RR:   0.000 FEB:  -7.955
USER: RMSD 2.349774
USER: SEED 191
USER: STATUS no improvement in best in 5 clusters for 5 generations
USER: GENES 29
USER: genes 0 Translation |==|  0.52297 0.44215 0.58131
USER: genes 1 Rotation |==|  0.48298 0.49074 0.51735 0.99932
USER: genes 2 Torsion [CB]-CA--N-[C] |==|  0.47885
USER: genes 3 Torsion [N]-C--CA-[N] |==|  0.34304
USER: genes 4 Torsion [C]-CA--N-[C] |==|  0.79325
USER: genes 5 Torsion [N]-C--CA-[N] |==|  0.93614
USER: genes 6 Torsion [C]-CA--CB-[CG] |==|  0.53631
USER: genes 7 Torsion [CA]-CB--CG-[CD] |==|  0.53874
USER: genes 8 Torsion [CB]-CG--CD-[NE] |==|  0.13766
USER: genes 9 Torsion [CG]-CD--NE-[CZ] |==|  0.35584
USER: genes 10 Torsion [C]-CA--CB-[CG] |==|  0.09050
USER: genes 11 Torsion [CA]-CB--CG-[CD] |==|  0.29769
USER: genes 12 Torsion [CB]-CG--CD-[OE1] |==|  0.99091
USER: genes 13 Torsion [N]-CA--CB-[CG] |==|  0.91173
USER: genes 14 Torsion [CA]-CB--CG-[CD2] |==|  0.81456
USER: genes 15 Torsion [N]-CA--C-[N] |==|  0.43555
USER: genes 16 Torsion [C]-N--CA-[CB] |==|  0.42281
USER: genes 17 Torsion [N]-CA--CB-[CG1] |==|  0.35842
USER: genes 18 Torsion [N]-CA--C-[N] |==|  0.38341
USER: genes 19 Torsion [C]-N--CA-[CB] |==|  0.40438
USER: genes 20 Torsion [N]-CA--CB-[CG] |==|  0.39787
USER: genes 21 Torsion [CA]-CB--CG-[CD1] |==|  0.38998
USER: genes 22 Torsion [N]-CA--C-[N] |==|  0.92107
USER: genes 23 Torsion [C]-N--CA-[C] |==|  0.82993
USER: genes 24 Torsion [N]-CA--C-[N] |==|  0.38829
USER: genes 25 Torsion [C]-N--CA-[CB] |==|  0.28773
USER: genes 26 Torsion [N]-CA--CB-[CG] |==|  0.09120
USER: genes 27 Torsion [CA]-CB--CG-[CD1] |==|  0.30535
USER: genes 28 Torsion [N]-CA--C-[O] |==|  0.49773
ROOT
ATOM      1  CA  LEU C  12      -0.112   4.767  33.825  0.76 25.89 LIG 0.18  C 
ENDROOT
BRANCH 1 2
ATOM      2  N   LEU C  12      -0.658   3.736  32.951  0.76 24.12 LIG-0.35  N 
ATOM      3 H    LEU C  12      -0.371   2.943  33.118  0.76 24.12 LIG 0.16  HD
ATOM      4  C   GLN C  11      -1.524   4.023  31.984  0.76 26.11 LIG 0.24  C 
ATOM      5 O    GLN C  11      -1.931   5.166  31.764  0.76 27.34 LIG-0.27  OA
BRANCH 4 6
ATOM      6  CA  GLN C  11      -1.986   2.845  31.129  0.76 26.16 LIG 0.18  C 
BRANCH 6 7
ATOM      7  N   GLN C  11      -3.431   2.654  31.100  0.76 28.86 LIG-0.35  N 
ATOM      8  C   ARG C  10      -4.116   2.149  32.119  0.76 30.48 LIG 0.26  C 
ATOM      9 O    ARG C  10      -3.597   1.827  33.191  0.76 24.30 LIG-0.27  OA
ATOM     10 H    GLN C  11      -3.797   2.899  30.361  0.76 28.86 LIG 0.16  HD
BRANCH 8 11
ATOM     11  CA  ARG C  10      -5.629   2.001  31.896  0.76 33.62 LIG 0.40  C 
ATOM     12  N   ARG C  10      -6.114   2.930  30.833  0.76 36.52 LIG 0.61  N 
BRANCH 11 13
ATOM     13  CB  ARG C  10      -5.935   0.556  31.505  0.76 36.98 LIG 0.05  C 
BRANCH 13 14
ATOM     14  CG  ARG C  10      -7.340   0.309  30.946  0.76 39.40 LIG 0.02  C 
BRANCH 14 15
ATOM     15  CD  ARG C  10      -7.691  -1.174  30.899  0.76 42.42 LIG 0.14  C 
BRANCH 15 16
ATOM     16  NE  ARG C  10      -7.417  -1.838  32.173  0.76 44.78 LIG-0.23  N 
ATOM     17  CZ  ARG C  10      -8.290  -2.585  32.843  0.76 45.62 LIG 0.67  C 
ATOM     18  NH2 ARG C  10      -7.930  -3.159  33.983  0.76 46.43 LIG-0.23  N 
ATOM     19  NH1 ARG C  10      -9.515  -2.774  32.371  0.76 45.50 LIG-0.23  N 
ATOM     20 2HH2 ARG C  10      -8.493  -3.643  34.418  0.76 46.43 LIG 0.17  HD
ATOM     21 1HH2 ARG C  10      -7.133  -3.046  34.288  0.76 46.43 LIG 0.17  HD
ATOM     22 2HH1 ARG C  10     -10.075  -3.259  32.809  0.76 45.50 LIG 0.17  HD
ATOM     23 1HH1 ARG C  10      -9.750  -2.412  31.627  0.76 45.50 LIG 0.17  HD
ATOM     24 HE   ARG C  10      -6.634  -1.737  32.514  0.76 44.78 LIG 0.18  HD
ENDBRANCH 15 16
ENDBRANCH 14 15
ENDBRANCH 13 14
ENDBRANCH 11 13
ENDBRANCH 8 11
ENDBRANCH 6 7
BRANCH 6 25
ATOM     25  CB  GLN C  11      -1.463   3.036  29.703  0.76 25.68 LIG 0.04  C 
BRANCH 25 26
ATOM     26  CG  GLN C  11      -0.122   3.741  29.629  0.76 22.66 LIG 0.10  C 
BRANCH 26 27
ATOM     27  CD  GLN C  11       0.991   2.794  29.260  0.76 24.13 LIG 0.21  C 
ATOM     28 OE1  GLN C  11       0.769   1.587  29.117  0.76 19.83 LIG-0.27  OA
ATOM     29  NE2 GLN C  11       2.198   3.329  29.103  0.76 21.86 LIG-0.37  N 
ATOM     30 21HE GLN C  11       2.311   4.174  29.212  0.76 21.86 LIG 0.16  HD
ATOM     31 22HE GLN C  11       2.865   2.829  28.892  0.76 21.86 LIG 0.16  HD
ENDBRANCH 26 27
ENDBRANCH 25 26
ENDBRANCH 6 25
ENDBRANCH 4 6
ENDBRANCH 1 2
BRANCH 1 32
ATOM     32  CB  LEU C  12       0.705   4.129  34.955  0.76 24.07 LIG 0.04  C 
BRANCH 32 33
ATOM     33  CG  LEU C  12       0.228   2.751  35.432  0.76 21.16 LIG-0.02  C 
ATOM     34  CD1 LEU C  12       1.259   2.183  36.395  0.76 25.64 LIG 0.01  C 
ATOM     35  CD2 LEU C  12      -1.137   2.863  36.110  0.76 25.10 LIG 0.01  C 
ENDBRANCH 32 33
ENDBRANCH 1 32
BRANCH 1 36
ATOM     36  C   LEU C  12       0.773   5.675  32.966  0.76 25.30 LIG 0.24  C 
ATOM     37 O    LEU C  12       1.257   5.256  31.910  0.76 25.87 LIG-0.27  OA
ATOM     38  N   VAL C  13       0.985   6.912  33.413  0.76 25.62 LIG-0.35  N 
ATOM     39 H    VAL C  13       0.677   7.220  34.155  0.76 25.62 LIG 0.16  HD
BRANCH 38 40
ATOM     40  CA  VAL C  13       1.785   7.861  32.640  0.76 24.99 LIG 0.18  C 
BRANCH 40 41
ATOM     41  CB  VAL C  13       1.356   9.321  32.927  0.76 27.65 LIG 0.01  C 
ATOM     42  CG1 VAL C  13       2.576  10.166  33.277  0.76 28.12 LIG 0.01  C 
ATOM     43  CG2 VAL C  13       0.644   9.901  31.719  0.76 27.69 LIG 0.01  C 
ENDBRANCH 40 41
BRANCH 40 44
ATOM     44  C   VAL C  13       3.289   7.760  32.866  0.76 25.58 LIG 0.24  C 
ATOM     45  N   LEU C  14       4.037   7.853  31.774  0.76 25.74 LIG-0.35  N 
ATOM     46 H    LEU C  14       3.719   7.964  30.983  0.76 25.74 LIG 0.16  HD
ATOM     47 O    VAL C  13       3.768   7.611  33.991  0.76 23.74 LIG-0.27  OA
BRANCH 45 48
ATOM     48  CA  LEU C  14       5.490   7.775  31.834  0.76 27.54 LIG 0.18  C 
BRANCH 48 49
ATOM     49  CB  LEU C  14       6.034   7.079  30.583  0.76 27.94 LIG 0.04  C 
BRANCH 49 50
ATOM     50  CG  LEU C  14       7.352   7.602  30.011  0.76 29.52 LIG-0.02  C 
ATOM     51  CD2 LEU C  14       7.066   8.566  28.863  0.76 29.01 LIG 0.01  C 
ATOM     52  CD1 LEU C  14       8.198   6.428  29.550  0.76 31.53 LIG 0.01  C 
ENDBRANCH 49 50
ENDBRANCH 48 49
BRANCH 48 53
ATOM     53  C   LEU C  14       6.150   9.141  31.945  0.76 27.94 LIG 0.24  C 
ATOM     54  N   GLY C  15       5.478  10.149  31.404  0.76 27.74 LIG-0.35  N 
ATOM     55 H    GLY C  15       4.732  10.068  30.984  0.76 27.74 LIG 0.16  HD
ATOM     56 O    LEU C  14       7.246   9.280  32.501  0.76 29.25 LIG-0.27  OA
BRANCH 54 57
ATOM     57  CA  GLY C  15       5.986  11.505  31.497  0.76 32.19 LIG 0.23  C 
BRANCH 57 58
ATOM     58  C   GLY C  15       6.060  11.840  32.978  0.76 34.72 LIG 0.24  C 
ATOM     59  N   LEU C  16       7.129  12.526  33.369  0.76 34.76 LIG-0.34  N 
ATOM     60 H    LEU C  16       7.746  12.790  32.832  0.76 34.76 LIG 0.16  HD
ATOM     61 O    GLY C  15       5.173  11.479  33.753  0.76 36.88 LIG-0.27  OA
BRANCH 59 62
ATOM     62  CA  LEU C  16       7.355  12.896  34.763  0.76 35.63 LIG 0.18  C 
BRANCH 62 63
ATOM     63  CB  LEU C  16       8.417  11.978  35.368  0.76 32.88 LIG 0.04  C 
BRANCH 63 64
ATOM     64  CG  LEU C  16       9.484  11.527  34.367  0.76 27.62 LIG-0.02  C 
ATOM     65  CD1 LEU C  16      10.818  12.184  34.685  0.76 29.42 LIG 0.01  C 
ATOM     66  CD2 LEU C  16       9.601  10.013  34.407  0.76 30.85 LIG 0.01  C 
ENDBRANCH 63 64
ENDBRANCH 62 63
BRANCH 62 67
ATOM     67  C   LEU C  16       7.751  14.353  34.962  0.76 36.84 LIG 0.20  C 
ATOM     68 O    LEU C  16       7.947  14.751  36.134  0.76 37.63 LIG-0.65  OA
ATOM     69 OXT  LEU C  16       7.860  15.076  33.949  0.76 38.60 LIG-0.65  OA
ENDBRANCH 62 67
ENDBRANCH 59 62
ENDBRANCH 57 58
ENDBRANCH 54 57
ENDBRANCH 48 53
ENDBRANCH 45 48
ENDBRANCH 40 44
ENDBRANCH 38 40
ENDBRANCH 1 36
TORSDOF 27
ENDMDL
MODEL 11
USER: ADFR SOLUTION from run 110
USER: SCORE 18.230654 LL:  -4.453 LR: -15.993 RR:   0.000 FEB:  -7.938
USER: RMSD 2.727983
USER: SEED 109
USER: STATUS searching
USER: GENES 29
USER: genes 0 Translation |==|  0.52771 0.44365 0.56876
USER: genes 1 Rotation |==|  0.46470 0.50184 0.50702 0.99870
USER: genes 2 Torsion [CB]-CA--N-[C] |==|  0.48694
USER: genes 3 Torsion [N]-C--CA-[N] |==|  0.33563
USER: genes 4 Torsion [C]-CA--N-[C] |==|  0.77789
USER: genes 5 Torsion [N]-C--CA-[N] |==|  0.05661
USER: genes 6 Torsion [C]-CA--CB-[CG] |==|  0.23743
USER: genes 7 Torsion [CA]-CB--CG-[CD] |==|  0.34110
USER: genes 8 Torsion [CB]-CG--CD-[NE] |==|  0.38673
USER: genes 9 Torsion [CG]-CD--NE-[CZ] |==|  0.73703
USER: genes 10 Torsion [C]-CA--CB-[CG] |==|  0.06704
USER: genes 11 Torsion [CA]-CB--CG-[CD] |==|  0.29914
USER: genes 12 Torsion [CB]-CG--CD-[OE1] |==|  0.02604
USER: genes 13 Torsion [N]-CA--CB-[CG] |==|  0.92024
USER: genes 14 Torsion [CA]-CB--CG-[CD2] |==|  0.82523
USER: genes 15 Torsion [N]-CA--C-[N] |==|  0.46568
USER: genes 16 Torsion [C]-N--CA-[CB] |==|  0.29986
USER: genes 17 Torsion [N]-CA--CB-[CG1] |==|  0.90932
USER: genes 18 Torsion [N]-CA--C-[N] |==|  0.41773
USER: genes 19 Torsion [C]-N--CA-[CB] |==|  0.15043
USER: genes 20 Torsion [N]-CA--CB-[CG] |==|  0.57632
USER: genes 21 Torsion [CA]-CB--CG-[CD1] |==|  0.67695
USER: genes 22 Torsion [N]-CA--C-[N] |==|  0.11849
USER: genes 23 Torsion [C]-N--CA-[C] |==|  0.76169
USER: genes 24 Torsion [N]-CA--C-[N] |==|  0.93873
USER: genes 25 Torsion [C]-N--CA-[CB] |==|  0.35029
USER: genes 26 Torsion [N]-CA--CB-[CG] |==|  0.93483
USER: genes 27 Torsion [CA]-CB--CG-[CD1] |==|  0.46203
USER: genes 28 Torsion [N]-CA--C-[O] |==|  0.46893
ROOT
ATOM      1  CA  LEU C  12       0.030   4.808  33.617  0.76 25.89 LIG 0.18  C 
ENDROOT
BRANCH 1 2
ATOM      2  N   LEU C  12      -0.595   3.742  32.845  0.76 24.12 LIG-0.35  N 
ATOM      3 H    LEU C  12      -0.365   2.949  33.086  0.76 24.12 LIG 0.16  HD
ATOM      4  C   GLN C  11      -1.445   3.998  31.856  0.76 26.11 LIG 0.24  C 
ATOM      5 O    GLN C  11      -1.770   5.143  31.529  0.76 27.34 LIG-0.27  OA
BRANCH 4 6
ATOM      6  CA  GLN C  11      -1.997   2.782  31.116  0.76 26.16 LIG 0.18  C 
BRANCH 6 7
ATOM      7  N   GLN C  11      -3.449   2.662  31.157  0.76 28.86 LIG-0.35  N 
ATOM      8  C   ARG C  10      -4.107   2.172  32.201  0.76 30.48 LIG 0.26  C 
ATOM      9 O    ARG C  10      -3.551   1.806  33.240  0.76 24.30 LIG-0.27  OA
ATOM     10 H    GLN C  11      -3.840   2.938  30.442  0.76 28.86 LIG 0.16  HD
BRANCH 8 11
ATOM     11  CA  ARG C  10      -5.634   2.102  32.053  0.76 33.62 LIG 0.40  C 
ATOM     12  N   ARG C  10      -6.042   2.135  30.618  0.76 36.52 LIG 0.61  N 
BRANCH 11 13
ATOM     13  CB  ARG C  10      -6.138   0.817  32.709  0.76 36.98 LIG 0.05  C 
BRANCH 13 14
ATOM     14  CG  ARG C  10      -6.400   0.906  34.217  0.76 39.40 LIG 0.02  C 
BRANCH 14 15
ATOM     15  CD  ARG C  10      -7.835   0.537  34.577  0.76 42.42 LIG 0.14  C 
BRANCH 15 16
ATOM     16  NE  ARG C  10      -7.897  -0.276  35.791  0.76 44.78 LIG-0.23  N 
ATOM     17  CZ  ARG C  10      -7.937  -1.605  35.813  0.76 45.62 LIG 0.67  C 
ATOM     18  NH2 ARG C  10      -7.973  -2.246  36.973  0.76 46.43 LIG-0.23  N 
ATOM     19  NH1 ARG C  10      -7.926  -2.297  34.681  0.76 45.50 LIG-0.23  N 
ATOM     20 2HH2 ARG C  10      -7.999  -3.105  36.990  0.76 46.43 LIG 0.17  HD
ATOM     21 1HH2 ARG C  10      -7.971  -1.801  37.710  0.76 46.43 LIG 0.17  HD
ATOM     22 2HH1 ARG C  10      -7.952  -3.156  34.702  0.76 45.50 LIG 0.17  HD
ATOM     23 1HH1 ARG C  10      -7.893  -1.886  33.926  0.76 45.50 LIG 0.17  HD
ATOM     24 HE   ARG C  10      -7.909   0.136  36.546  0.76 44.78 LIG 0.18  HD
ENDBRANCH 15 16
ENDBRANCH 14 15
ENDBRANCH 13 14
ENDBRANCH 11 13
ENDBRANCH 8 11
ENDBRANCH 6 7
BRANCH 6 25
ATOM     25  CB  GLN C  11      -1.527   2.835  29.660  0.76 25.68 LIG 0.04  C 
BRANCH 25 26
ATOM     26  CG  GLN C  11      -0.258   3.641  29.453  0.76 22.66 LIG 0.10  C 
BRANCH 26 27
ATOM     27  CD  GLN C  11       0.926   2.758  29.155  0.76 24.13 LIG 0.21  C 
ATOM     28 OE1  GLN C  11       0.772   1.552  28.933  0.76 19.83 LIG-0.27  OA
ATOM     29  NE2 GLN C  11       2.118   3.346  29.147  0.76 21.86 LIG-0.37  N 
ATOM     30 21HE GLN C  11       2.184   4.189  29.307  0.76 21.86 LIG 0.16  HD
ATOM     31 22HE GLN C  11       2.824   2.884  28.981  0.76 21.86 LIG 0.16  HD
ENDBRANCH 26 27
ENDBRANCH 25 26
ENDBRANCH 6 25
ENDBRANCH 4 6
ENDBRANCH 1 2
BRANCH 1 32
ATOM     32  CB  LEU C  12       0.866   4.217  34.760  0.76 24.07 LIG 0.04  C 
BRANCH 32 33
ATOM     33  CG  LEU C  12       0.393   2.865  35.308  0.76 21.16 LIG-0.02  C 
ATOM     34  CD1 LEU C  12       1.392   2.381  36.346  0.76 25.64 LIG 0.01  C 
ATOM     35  CD2 LEU C  12      -1.000   2.995  35.921  0.76 25.10 LIG 0.01  C 
ENDBRANCH 32 33
ENDBRANCH 1 32
BRANCH 1 36
ATOM     36  C   LEU C  12       0.917   5.610  32.660  0.76 25.30 LIG 0.24  C 
ATOM     37 O    LEU C  12       1.173   5.172  31.534  0.76 25.87 LIG-0.27  OA
ATOM     38  N   VAL C  13       1.382   6.778  33.101  0.76 25.62 LIG-0.35  N 
ATOM     39 H    VAL C  13       1.236   7.093  33.887  0.76 25.62 LIG 0.16  HD
BRANCH 38 40
ATOM     40  CA  VAL C  13       2.203   7.628  32.241  0.76 24.99 LIG 0.18  C 
BRANCH 40 41
ATOM     41  CB  VAL C  13       1.419   8.880  31.776  0.76 27.65 LIG 0.01  C 
ATOM     42  CG1 VAL C  13      -0.060   8.543  31.618  0.76 28.12 LIG 0.01  C 
ATOM     43  CG2 VAL C  13       1.596  10.007  32.776  0.76 27.69 LIG 0.01  C 
ENDBRANCH 40 41
BRANCH 40 44
ATOM     44  C   VAL C  13       3.510   8.100  32.871  0.76 25.58 LIG 0.24  C 
ATOM     45  N   LEU C  14       4.505   8.315  32.022  0.76 25.74 LIG-0.35  N 
ATOM     46 H    LEU C  14       4.444   8.205  31.172  0.76 25.74 LIG 0.16  HD
ATOM     47 O    VAL C  13       3.618   8.275  34.085  0.76 23.74 LIG-0.27  OA
BRANCH 45 48
ATOM     48  CA  LEU C  14       5.813   8.769  32.477  0.76 27.54 LIG 0.18  C 
BRANCH 48 49
ATOM     49  CB  LEU C  14       6.353   7.827  33.558  0.76 27.94 LIG 0.04  C 
BRANCH 49 50
ATOM     50  CG  LEU C  14       7.321   8.422  34.580  0.76 29.52 LIG-0.02  C 
ATOM     51  CD2 LEU C  14       7.429   9.930  34.367  0.76 29.01 LIG 0.01  C 
ATOM     52  CD1 LEU C  14       8.674   7.747  34.440  0.76 31.53 LIG 0.01  C 
ENDBRANCH 49 50
ENDBRANCH 48 49
BRANCH 48 53
ATOM     53  C   LEU C  14       6.836   8.843  31.354  0.76 27.94 LIG 0.24  C 
ATOM     54  N   GLY C  15       6.398   9.359  30.213  0.76 27.74 LIG-0.35  N 
ATOM     55 H    GLY C  15       5.589   9.615  30.072  0.76 27.74 LIG 0.16  HD
ATOM     56 O    LEU C  14       7.992   8.436  31.513  0.76 29.25 LIG-0.27  OA
BRANCH 54 57
ATOM     57  CA  GLY C  15       7.301   9.527  29.089  0.76 32.19 LIG 0.23  C 
BRANCH 57 58
ATOM     58  C   GLY C  15       7.990  10.868  29.283  0.76 34.72 LIG 0.24  C 
ATOM     59  N   LEU C  16       7.360  11.741  30.062  0.76 34.76 LIG-0.34  N 
ATOM     60 H    LEU C  16       6.615  11.573  30.457  0.76 34.76 LIG 0.16  HD
ATOM     61 O    GLY C  15       9.065  11.112  28.733  0.76 36.88 LIG-0.27  OA
BRANCH 59 62
ATOM     62  CA  LEU C  16       7.882  13.080  30.319  0.76 35.63 LIG 0.18  C 
BRANCH 62 63
ATOM     63  CB  LEU C  16       6.812  14.118  29.978  0.76 32.88 LIG 0.04  C 
BRANCH 63 64
ATOM     64  CG  LEU C  16       5.766  13.620  28.977  0.76 27.62 LIG-0.02  C 
ATOM     65  CD1 LEU C  16       4.573  14.561  28.948  0.76 29.42 LIG 0.01  C 
ATOM     66  CD2 LEU C  16       6.403  13.505  27.602  0.76 30.85 LIG 0.01  C 
ENDBRANCH 63 64
ENDBRANCH 62 63
BRANCH 62 67
ATOM     67  C   LEU C  16       8.378  13.291  31.742  0.76 36.84 LIG 0.20  C 
ATOM     68 O    LEU C  16       9.032  14.331  31.986  0.76 37.63 LIG-0.65  OA
ATOM     69 OXT  LEU C  16       8.108  12.417  32.594  0.76 38.60 LIG-0.65  OA
ENDBRANCH 62 67
ENDBRANCH 59 62
ENDBRANCH 57 58
ENDBRANCH 54 57
ENDBRANCH 48 53
ENDBRANCH 45 48
ENDBRANCH 40 44
ENDBRANCH 38 40
ENDBRANCH 1 36
TORSDOF 27
ENDMDL
MODEL 12
USER: ADFR SOLUTION from run 199
USER: SCORE 18.097141 LL:  -5.216 LR: -15.764 RR:   0.000 FEB:  -7.710
USER: RMSD 3.294118
USER: SEED 198
USER: STATUS no improvement in best in 4 clusters for 5 generations
USER: GENES 29
USER: genes 0 Translation |==|  0.52330 0.44670 0.56191
USER: genes 1 Rotation |==|  0.45146 0.47788 0.52606 0.99646
USER: genes 2 Torsion [CB]-CA--N-[C] |==|  0.50556
USER: genes 3 Torsion [N]-C--CA-[N] |==|  0.35003
USER: genes 4 Torsion [C]-CA--N-[C] |==|  0.76336
USER: genes 5 Torsion [N]-C--CA-[N] |==|  0.75521
USER: genes 6 Torsion [C]-CA--CB-[CG] |==|  0.75948
USER: genes 7 Torsion [CA]-CB--CG-[CD] |==|  0.36298
USER: genes 8 Torsion [CB]-CG--CD-[NE] |==|  0.69656
USER: genes 9 Torsion [CG]-CD--NE-[CZ] |==|  0.59010
USER: genes 10 Torsion [C]-CA--CB-[CG] |==|  0.15813
USER: genes 11 Torsion [CA]-CB--CG-[CD] |==|  0.68950
USER: genes 12 Torsion [CB]-CG--CD-[OE1] |==|  0.05115
USER: genes 13 Torsion [N]-CA--CB-[CG] |==|  0.95877
USER: genes 14 Torsion [CA]-CB--CG-[CD2] |==|  0.77706
USER: genes 15 Torsion [N]-CA--C-[N] |==|  0.42325
USER: genes 16 Torsion [C]-N--CA-[CB] |==|  0.42229
USER: genes 17 Torsion [N]-CA--CB-[CG1] |==|  0.77384
USER: genes 18 Torsion [N]-CA--C-[N] |==|  0.34403
USER: genes 19 Torsion [C]-N--CA-[CB] |==|  0.51512
USER: genes 20 Torsion [N]-CA--CB-[CG] |==|  0.62098
USER: genes 21 Torsion [CA]-CB--CG-[CD1] |==|  0.61653
USER: genes 22 Torsion [N]-CA--C-[N] |==|  0.38427
USER: genes 23 Torsion [C]-N--CA-[C] |==|  0.82716
USER: genes 24 Torsion [N]-CA--C-[N] |==|  0.42765
USER: genes 25 Torsion [C]-N--CA-[CB] |==|  0.23232
USER: genes 26 Torsion [N]-CA--CB-[CG] |==|  0.76569
USER: genes 27 Torsion [CA]-CB--CG-[CD1] |==|  0.50935
USER: genes 28 Torsion [N]-CA--C-[O] |==|  0.35945
ROOT
ATOM      1  CA  LEU C  12      -0.102   4.890  33.504  0.76 25.89 LIG 0.18  C 
ENDROOT
BRANCH 1 2
ATOM      2  N   LEU C  12      -0.565   3.739  32.740  0.76 24.12 LIG-0.35  N 
ATOM      3 H    LEU C  12      -0.373   2.979  33.094  0.76 24.12 LIG 0.16  HD
ATOM      4  C   GLN C  11      -1.226   3.877  31.595  0.76 26.11 LIG 0.24  C 
ATOM      5 O    GLN C  11      -1.502   4.976  31.106  0.76 27.34 LIG-0.27  OA
BRANCH 4 6
ATOM      6  CA  GLN C  11      -1.622   2.582  30.890  0.76 26.16 LIG 0.18  C 
BRANCH 6 7
ATOM      7  N   GLN C  11      -3.041   2.477  30.577  0.76 28.86 LIG-0.35  N 
ATOM      8  C   ARG C  10      -3.943   2.029  31.443  0.76 30.48 LIG 0.26  C 
ATOM      9 O    ARG C  10      -3.666   1.693  32.597  0.76 24.30 LIG-0.27  OA
ATOM     10 H    GLN C  11      -3.240   2.732  29.780  0.76 28.86 LIG 0.16  HD
BRANCH 8 11
ATOM     11  CA  ARG C  10      -5.389   1.968  30.927  0.76 33.62 LIG 0.40  C 
ATOM     12  N   ARG C  10      -6.100   3.261  31.152  0.76 36.52 LIG 0.61  N 
BRANCH 11 13
ATOM     13  CB  ARG C  10      -5.371   1.635  29.436  0.76 36.98 LIG 0.05  C 
BRANCH 13 14
ATOM     14  CG  ARG C  10      -5.231   2.837  28.495  0.76 39.40 LIG 0.02  C 
BRANCH 14 15
ATOM     15  CD  ARG C  10      -4.141   2.628  27.449  0.76 42.42 LIG 0.14  C 
BRANCH 15 16
ATOM     16  NE  ARG C  10      -2.978   3.480  27.700  0.76 44.78 LIG-0.23  N 
ATOM     17  CZ  ARG C  10      -2.196   3.993  26.755  0.76 45.62 LIG 0.67  C 
ATOM     18  NH2 ARG C  10      -1.176   4.770  27.092  0.76 46.43 LIG-0.23  N 
ATOM     19  NH1 ARG C  10      -2.436   3.744  25.474  0.76 45.50 LIG-0.23  N 
ATOM     20 2HH2 ARG C  10      -0.668   5.103  26.482  0.76 46.43 LIG 0.17  HD
ATOM     21 1HH2 ARG C  10      -1.022   4.942  27.921  0.76 46.43 LIG 0.17  HD
ATOM     22 2HH1 ARG C  10      -1.926   4.078  24.868  0.76 45.50 LIG 0.17  HD
ATOM     23 1HH1 ARG C  10      -3.102   3.248  25.250  0.76 45.50 LIG 0.17  HD
ATOM     24 HE   ARG C  10      -2.787   3.662  28.518  0.76 44.78 LIG 0.18  HD
ENDBRANCH 15 16
ENDBRANCH 14 15
ENDBRANCH 13 14
ENDBRANCH 11 13
ENDBRANCH 8 11
ENDBRANCH 6 7
BRANCH 6 25
ATOM     25  CB  GLN C  11      -0.801   2.450  29.605  0.76 25.68 LIG 0.04  C 
BRANCH 25 26
ATOM     26  CG  GLN C  11       0.699   2.482  29.827  0.76 22.66 LIG 0.10  C 
BRANCH 26 27
ATOM     27  CD  GLN C  11       1.324   3.732  29.262  0.76 24.13 LIG 0.21  C 
ATOM     28 OE1  GLN C  11       0.631   4.722  29.008  0.76 19.83 LIG-0.27  OA
ATOM     29  NE2 GLN C  11       2.638   3.700  29.059  0.76 21.86 LIG-0.37  N 
ATOM     30 21HE GLN C  11       3.085   2.990  29.249  0.76 21.86 LIG 0.16  HD
ATOM     31 22HE GLN C  11       3.040   4.389  28.739  0.76 21.86 LIG 0.16  HD
ENDBRANCH 26 27
ENDBRANCH 25 26
ENDBRANCH 6 25
ENDBRANCH 4 6
ENDBRANCH 1 2
BRANCH 1 32
ATOM     32  CB  LEU C  12       0.668   4.428  34.747  0.76 24.07 LIG 0.04  C 
BRANCH 32 33
ATOM     33  CG  LEU C  12       0.501   2.952  35.131  0.76 21.16 LIG-0.02  C 
ATOM     34  CD1 LEU C  12       1.685   2.532  35.987  0.76 25.64 LIG 0.01  C 
ATOM     35  CD2 LEU C  12      -0.810   2.742  35.886  0.76 25.10 LIG 0.01  C 
ENDBRANCH 32 33
ENDBRANCH 1 32
BRANCH 1 36
ATOM     36  C   LEU C  12       0.802   5.718  32.586  0.76 25.30 LIG 0.24  C 
ATOM     37 O    LEU C  12       1.422   5.174  31.667  0.76 25.87 LIG-0.27  OA
ATOM     38  N   VAL C  13       0.878   7.025  32.830  0.76 25.62 LIG-0.35  N 
ATOM     39 H    VAL C  13       0.473   7.423  33.476  0.76 25.62 LIG 0.16  HD
BRANCH 38 40
ATOM     40  CA  VAL C  13       1.685   7.899  31.980  0.76 24.99 LIG 0.18  C 
BRANCH 40 41
ATOM     41  CB  VAL C  13       1.124   9.342  31.966  0.76 27.65 LIG 0.01  C 
ATOM     42  CG1 VAL C  13      -0.037   9.444  30.984  0.76 28.12 LIG 0.01  C 
ATOM     43  CG2 VAL C  13       0.669   9.738  33.359  0.76 27.69 LIG 0.01  C 
ENDBRANCH 40 41
BRANCH 40 44
ATOM     44  C   VAL C  13       3.160   7.972  32.359  0.76 25.58 LIG 0.24  C 
ATOM     45  N   LEU C  14       4.012   7.658  31.393  0.76 25.74 LIG-0.35  N 
ATOM     46 H    LEU C  14       3.775   7.426  30.600  0.76 25.74 LIG 0.16  HD
ATOM     47 O    VAL C  13       3.524   8.311  33.486  0.76 23.74 LIG-0.27  OA
BRANCH 45 48
ATOM     48  CA  LEU C  14       5.453   7.683  31.607  0.76 27.54 LIG 0.18  C 
BRANCH 48 49
ATOM     49  CB  LEU C  14       6.188   7.409  30.291  0.76 27.94 LIG 0.04  C 
BRANCH 49 50
ATOM     50  CG  LEU C  14       7.376   6.448  30.343  0.76 29.52 LIG-0.02  C 
ATOM     51  CD2 LEU C  14       7.820   6.260  31.791  0.76 29.01 LIG 0.01  C 
ATOM     52  CD1 LEU C  14       8.503   6.999  29.487  0.76 31.53 LIG 0.01  C 
ENDBRANCH 49 50
ENDBRANCH 48 49
BRANCH 48 53
ATOM     53  C   LEU C  14       5.945   9.012  32.160  0.76 27.94 LIG 0.24  C 
ATOM     54  N   GLY C  15       6.862   8.931  33.115  0.76 27.74 LIG-0.35  N 
ATOM     55 H    GLY C  15       7.159   8.195  33.446  0.76 27.74 LIG 0.16  HD
ATOM     56 O    LEU C  14       5.500  10.085  31.738  0.76 29.25 LIG-0.27  OA
BRANCH 54 57
ATOM     57  CA  GLY C  15       7.442  10.136  33.679  0.76 32.19 LIG 0.23  C 
BRANCH 57 58
ATOM     58  C   GLY C  15       8.158  10.847  32.542  0.76 34.72 LIG 0.24  C 
ATOM     59  N   LEU C  16       8.291  12.163  32.668  0.76 34.76 LIG-0.34  N 
ATOM     60 H    LEU C  16       8.012  12.605  33.351  0.76 34.76 LIG 0.16  HD
ATOM     61 O    GLY C  15       8.574  10.220  31.567  0.76 36.88 LIG-0.27  OA
BRANCH 59 62
ATOM     62  CA  LEU C  16       8.928  12.987  31.646  0.76 35.63 LIG 0.18  C 
BRANCH 62 63
ATOM     63  CB  LEU C  16       7.908  13.333  30.561  0.76 32.88 LIG 0.04  C 
BRANCH 63 64
ATOM     64  CG  LEU C  16       7.758  12.252  29.488  0.76 27.62 LIG-0.02  C 
ATOM     65  CD1 LEU C  16       6.790  12.710  28.409  0.76 29.42 LIG 0.01  C 
ATOM     66  CD2 LEU C  16       9.122  11.937  28.898  0.76 30.85 LIG 0.01  C 
ENDBRANCH 63 64
ENDBRANCH 62 63
BRANCH 62 67
ATOM     67  C   LEU C  16       9.569  14.259  32.184  0.76 36.84 LIG 0.20  C 
ATOM     68 O    LEU C  16      10.755  14.499  31.859  0.76 37.63 LIG-0.65  OA
ATOM     69 OXT  LEU C  16       8.880  14.998  32.919  0.76 38.60 LIG-0.65  OA
ENDBRANCH 62 67
ENDBRANCH 59 62
ENDBRANCH 57 58
ENDBRANCH 54 57
ENDBRANCH 48 53
ENDBRANCH 45 48
ENDBRANCH 40 44
ENDBRANCH 38 40
ENDBRANCH 1 36
TORSDOF 27
ENDMDL
