MODEL 1
USER: ADFR SOLUTION from run 74
USER: SCORE 24.278890 LL:  -1.710 LR: -25.366 RR:   0.000 FEB: -18.505
USER: RMSD 0.669269
USER: SEED 73
USER: STATUS no improvement in best in 1 clusters for 5 generations
USER: GENES 25
USER: genes 0 Translation |==|  0.62351 0.58455 0.52126
USER: genes 1 Rotation |==|  0.51282 0.51744 0.48832 0.99939
USER: genes 2 Torsion [C]-CA--CB-[CG] |==|  0.49563
USER: genes 3 Torsion [CA]-CB--CG-[CD] |==|  0.56897
USER: genes 4 Torsion [CB]-CG--CD-[CE] |==|  0.39576
USER: genes 5 Torsion [CG]-CD--CE-[NZ] |==|  0.30285
USER: genes 6 Torsion [CD]-CE--NZ-[HZ2] |==|  0.78236
USER: genes 7 Torsion [N]-CA--C-[N] |==|  0.32717
USER: genes 8 Torsion [C]-N--CA-[CB] |==|  0.44806
USER: genes 9 Torsion [N]-CA--CB-[CG] |==|  0.61479
USER: genes 10 Torsion [CA]-CB--CG-[CD] |==|  0.69197
USER: genes 11 Torsion [CB]-CG--CD-[CE] |==|  0.62038
USER: genes 12 Torsion [CG]-CD--CE-[NZ] |==|  0.84791
USER: genes 13 Torsion [CD]-CE--NZ-[HZ1] |==|  0.46822
USER: genes 14 Torsion [N]-CA--C-[N] |==|  0.37318
USER: genes 15 Torsion [C]-N--CA-[CB] |==|  0.44791
USER: genes 16 Torsion [N]-CA--C-[OXT] |==|  0.82161
USER: genes 17 Torsion [CB]-CA--N-[C] |==|  0.43338
USER: genes 18 Torsion [N]-C--CA-[N] |==|  0.37629
USER: genes 19 Torsion [C]-CA--CB-[CG] |==|  0.78952
USER: genes 20 Torsion [CA]-CB--CG-[CD] |==|  0.51950
USER: genes 21 Torsion [CB]-CG--CD-[CE] |==|  0.21932
USER: genes 22 Torsion [CG]-CD--CE-[NZ] |==|  0.09724
USER: genes 23 Torsion [CD]-CE--NZ-[HZ1] |==|  0.54754
USER: genes 24 Torsion [C]-CA--N-[H3] |==|  0.10333
ROOT
ATOM      1  CA  LYS B   2       4.073  20.773  16.211  1.00  9.55 LIG 0.18  C 
ENDROOT
BRANCH 1 2
ATOM      2  CB  LYS B   2       4.583  22.182  16.696  1.00  7.13 LIG 0.04  C 
BRANCH 2 3
ATOM      3  CG  LYS B   2       5.859  21.979  17.527  1.00  9.06 LIG 0.00  C 
BRANCH 3 4
ATOM      4  CD  LYS B   2       6.276  22.949  18.536  1.00 20.34 LIG 0.03  C 
BRANCH 4 5
ATOM      5  CE  LYS B   2       6.909  22.431  19.845  1.00 19.41 LIG 0.23  C 
BRANCH 5 6
ATOM      6  NZ  LYS B   2       8.358  22.716  19.937  1.00 27.89 LIG-0.08  N 
ATOM      7 HZ2  LYS B   2       8.808  22.131  19.440  1.00 27.89 LIG 0.27  HD
ATOM      8 HZ3  LYS B   2       8.518  23.540  19.641  1.00 27.89 LIG 0.27  HD
ATOM      9 HZ1  LYS B   2       8.620  22.650  20.785  1.00 27.89 LIG 0.27  HD
ENDBRANCH 5 6
ENDBRANCH 4 5
ENDBRANCH 3 4
ENDBRANCH 2 3
ENDBRANCH 1 2
BRANCH 1 10
ATOM     10  C   LYS B   2       2.794  20.861  15.412  1.00  8.95 LIG 0.24  C 
ATOM     11 O    LYS B   2       2.702  21.436  14.312  1.00  5.49 LIG-0.27  OA
ATOM     12  N   LYS B   3       1.701  20.199  15.901  1.00  9.84 LIG-0.35  N 
ATOM     13 H    LYS B   3       1.688  19.786  16.655  1.00  9.84 LIG 0.16  HD
BRANCH 12 14
ATOM     14  CA  LYS B   3       0.479  20.143  15.180  1.00  6.67 LIG 0.18  C 
BRANCH 14 15
ATOM     15  CB  LYS B   3      -0.470  18.967  15.678  1.00  5.08 LIG 0.04  C 
BRANCH 15 16
ATOM     16  CG  LYS B   3      -1.017  18.419  14.309  1.00 11.87 LIG 0.00  C 
BRANCH 16 17
ATOM     17  CD  LYS B   3      -2.457  18.724  14.157  1.00 16.50 LIG 0.03  C 
BRANCH 17 18
ATOM     18  CE  LYS B   3      -3.227  17.529  13.607  1.00 11.29 LIG 0.23  C 
BRANCH 18 19
ATOM     19  NZ  LYS B   3      -2.646  17.039  12.337  1.00 14.74 LIG-0.08  N 
ATOM     20 HZ1  LYS B   3      -3.007  16.252  12.130  1.00 14.74 LIG 0.27  HD
ATOM     21 HZ2  LYS B   3      -2.816  17.623  11.687  1.00 14.74 LIG 0.27  HD
ATOM     22 HZ3  LYS B   3      -1.766  16.946  12.429  1.00 14.74 LIG 0.27  HD
ENDBRANCH 18 19
ENDBRANCH 17 18
ENDBRANCH 16 17
ENDBRANCH 15 16
ENDBRANCH 14 15
BRANCH 14 23
ATOM     23  C   LYS B   3      -0.355  21.414  15.376  1.00 11.62 LIG 0.24  C 
ATOM     24  N   ALA B   4      -0.870  21.920  14.265  1.00 11.21 LIG-0.34  N 
ATOM     25 H    ALA B   4      -0.726  21.615  13.475  1.00 11.21 LIG 0.16  HD
ATOM     26 O    LYS B   3      -0.540  21.875  16.520  1.00  6.98 LIG-0.27  OA
BRANCH 24 27
ATOM     27  CA  ALA B   4      -1.767  23.097  14.334  1.00 15.60 LIG 0.18  C 
ATOM     28  CB  ALA B   4      -1.868  23.786  12.968  1.00  9.87 LIG 0.04  C 
BRANCH 27 29
ATOM     29  C   ALA B   4      -3.185  22.627  14.762  1.00 11.70 LIG 0.20  C 
ATOM     30 OXT  ALA B   4      -3.727  21.874  13.937  1.00 11.31 LIG-0.65  OA
ATOM     31 O    ALA B   4      -3.720  23.050  15.808  1.00 13.41 LIG-0.65  OA
ENDBRANCH 27 29
ENDBRANCH 24 27
ENDBRANCH 14 23
ENDBRANCH 12 14
ENDBRANCH 1 10
BRANCH 1 32
ATOM     32  N   LYS B   2       5.132  20.118  15.429  1.00  9.26 LIG-0.35  N 
ATOM     33 H    LYS B   2       5.685  20.681  15.086  1.00  9.26 LIG 0.16  HD
ATOM     34  C   LYS B   1       5.258  18.821  15.247  1.00  9.39 LIG 0.25  C 
ATOM     35 O    LYS B   1       4.526  17.984  15.822  1.00 10.41 LIG-0.27  OA
BRANCH 34 36
ATOM     36  CA  LYS B   1       6.377  18.294  14.354  1.00 10.02 LIG 0.27  C 
BRANCH 36 37
ATOM     37  CB  LYS B   1       5.860  17.902  12.946  1.00  9.48 LIG 0.04  C 
BRANCH 37 38
ATOM     38  CG  LYS B   1       5.095  16.604  12.862  1.00 17.99 LIG 0.00  C 
BRANCH 38 39
ATOM     39  CD  LYS B   1       4.750  16.172  11.429  1.00 11.58 LIG 0.03  C 
BRANCH 39 40
ATOM     40  CE  LYS B   1       5.935  15.526  10.702  1.00 12.42 LIG 0.23  C 
BRANCH 40 41
ATOM     41  NZ  LYS B   1       6.729  14.751  11.687  1.00 15.26 LIG-0.08  N 
ATOM     42 HZ1  LYS B   1       7.535  14.581  11.350  1.00 15.26 LIG 0.27  HD
ATOM     43 HZ2  LYS B   1       6.815  15.222  12.437  1.00 15.26 LIG 0.27  HD
ATOM     44 HZ3  LYS B   1       6.314  13.985  11.865  1.00 15.26 LIG 0.27  HD
ENDBRANCH 40 41
ENDBRANCH 39 40
ENDBRANCH 38 39
ENDBRANCH 37 38
ENDBRANCH 36 37
BRANCH 36 45
ATOM     45  N   LYS B   1       7.023  17.137  15.029  1.00  7.61 LIG-0.07  N 
ATOM     46 H1   LYS B   1       7.427  16.626  14.421  1.00  7.61 LIG 0.28  HD
ATOM     47 H3   LYS B   1       6.405  16.658  15.454  1.00  7.61 LIG 0.28  HD
ATOM     48 H2   LYS B   1       7.624  17.432  15.615  1.00  7.61 LIG 0.28  HD
ENDBRANCH 36 45
ENDBRANCH 34 36
ENDBRANCH 1 32
TORSDOF 23
ENDMDL
