MODEL 1
USER: ADFR SOLUTION from run 161
USER: SCORE 24.683733 LL:  -1.010 LR: -23.702 RR:   0.000 FEB: -17.736
USER: RMSD 0.488240
USER: SEED 160
USER: STATUS 1 or 2 clusters left
USER: GENES 22
USER: genes 0 Translation |==|  0.59259 0.60507 0.49716
USER: genes 1 Rotation |==|  0.49952 0.52395 0.50066 0.99943
USER: genes 2 Torsion [N]-CA--C-[N] |==|  0.39361
USER: genes 3 Torsion [C]-N--CA-[CB] |==|  0.24014
USER: genes 4 Torsion [N]-CA--CB-[CG] |==|  0.60162
USER: genes 5 Torsion [CA]-CB--CG-[CD] |==|  0.49910
USER: genes 6 Torsion [CB]-CG--CD-[CE] |==|  0.47797
USER: genes 7 Torsion [CG]-CD--CE-[NZ] |==|  0.16140
USER: genes 8 Torsion [CD]-CE--NZ-[HZ2] |==|  0.90584
USER: genes 9 Torsion [N]-CA--C-[OXT] |==|  0.09819
USER: genes 10 Torsion [C]-CA--CB-[CG] |==|  0.48346
USER: genes 11 Torsion [CA]-CB--CG-[CD] |==|  0.75884
USER: genes 12 Torsion [CB]-CG--CD-[NE] |==|  0.48276
USER: genes 13 Torsion [CG]-CD--NE-[CZ] |==|  0.58275
USER: genes 14 Torsion [C]-CA--N-[C] |==|  0.79465
USER: genes 15 Torsion [N]-C--CA-[N] |==|  0.42514
USER: genes 16 Torsion [C]-CA--CB-[CG] |==|  0.78359
USER: genes 17 Torsion [CA]-CB--CG-[CD] |==|  0.55390
USER: genes 18 Torsion [CB]-CG--CD-[CE] |==|  0.24382
USER: genes 19 Torsion [CG]-CD--CE-[NZ] |==|  0.08973
USER: genes 20 Torsion [CD]-CE--NZ-[HZ1] |==|  0.58119
USER: genes 21 Torsion [C]-CA--N-[H3] |==|  0.99039
ROOT
ATOM      1  CA  ARG B   2       4.085  20.332  16.097  1.00 11.61 LIG 0.18  C 
ENDROOT
BRANCH 1 2
ATOM      2  C   ARG B   2       2.675  20.157  15.508  1.00 11.69 LIG 0.24  C 
ATOM      3 O    ARG B   2       2.492  20.318  14.288  1.00 13.49 LIG-0.27  OA
ATOM      4  N   LYS B   3       1.734  20.006  16.431  1.00 11.79 LIG-0.34  N 
ATOM      5 H    LYS B   3       1.891  19.935  17.274  1.00 11.79 LIG 0.16  HD
BRANCH 4 6
ATOM      6  CA  LYS B   3       0.323  19.947  16.073  1.00 12.23 LIG 0.18  C 
BRANCH 6 7
ATOM      7  CB  LYS B   3      -0.223  18.577  15.695  1.00 16.61 LIG 0.04  C 
BRANCH 7 8
ATOM      8  CG  LYS B   3      -1.258  18.801  14.550  1.00 15.25 LIG 0.00  C 
BRANCH 8 9
ATOM      9  CD  LYS B   3      -1.828  17.475  14.127  1.00 19.49 LIG 0.03  C 
BRANCH 9 10
ATOM     10  CE  LYS B   3      -2.978  17.536  13.159  1.00 20.50 LIG 0.23  C 
BRANCH 10 11
ATOM     11  NZ  LYS B   3      -2.772  18.212  11.864  1.00 17.12 LIG-0.08  N 
ATOM     12 HZ3  LYS B   3      -2.429  17.636  11.278  1.00 17.12 LIG 0.27  HD
ATOM     13 HZ2  LYS B   3      -2.211  18.895  11.971  1.00 17.12 LIG 0.27  HD
ATOM     14 HZ1  LYS B   3      -3.552  18.515  11.560  1.00 17.12 LIG 0.27  HD
ENDBRANCH 10 11
ENDBRANCH 9 10
ENDBRANCH 8 9
ENDBRANCH 7 8
ENDBRANCH 6 7
BRANCH 6 15
ATOM     15  C   LYS B   3      -0.566  20.531  17.186  1.00 15.15 LIG 0.20  C 
ATOM     16 OXT  LYS B   3      -0.190  21.503  17.874  1.00 13.10 LIG-0.65  OA
ATOM     17 O    LYS B   3      -1.746  20.132  17.277  1.00 18.27 LIG-0.65  OA
ENDBRANCH 6 15
ENDBRANCH 4 6
ENDBRANCH 1 2
BRANCH 1 18
ATOM     18  CB  ARG B   2       4.265  21.874  16.159  1.00  9.62 LIG 0.04  C 
BRANCH 18 19
ATOM     19  CG  ARG B   2       5.577  22.290  16.865  1.00 12.84 LIG 0.02  C 
BRANCH 19 20
ATOM     20  CD  ARG B   2       5.451  22.411  18.392  1.00 14.09 LIG 0.14  C 
BRANCH 20 21
ATOM     21  NE  ARG B   2       6.792  22.661  18.930  1.00 12.97 LIG-0.23  N 
ATOM     22  CZ  ARG B   2       7.318  22.335  20.105  1.00 16.36 LIG 0.67  C 
ATOM     23  NH1 ARG B   2       6.597  21.724  21.031  1.00 13.20 LIG-0.23  N 
ATOM     24  NH2 ARG B   2       8.613  22.598  20.353  1.00 14.54 LIG-0.23  N 
ATOM     25 2HH1 ARG B   2       6.952  21.520  21.787  1.00 13.20 LIG 0.17  HD
ATOM     26 1HH1 ARG B   2       5.774  21.532  20.876  1.00 13.20 LIG 0.17  HD
ATOM     27 2HH2 ARG B   2       8.956  22.389  21.113  1.00 14.54 LIG 0.17  HD
ATOM     28 1HH2 ARG B   2       9.097  22.977  19.752  1.00 14.54 LIG 0.17  HD
ATOM     29 HE   ARG B   2       7.321  23.084  18.401  1.00 12.97 LIG 0.18  HD
ENDBRANCH 20 21
ENDBRANCH 19 20
ENDBRANCH 18 19
ENDBRANCH 1 18
BRANCH 1 30
ATOM     30  N   ARG B   2       5.106  19.669  15.345  1.00 10.63 LIG-0.35  N 
ATOM     31 H    ARG B   2       5.594  20.212  14.889  1.00 10.63 LIG 0.16  HD
ATOM     32  C   LYS B   1       5.301  18.365  15.333  1.00 11.74 LIG 0.25  C 
ATOM     33 O    LYS B   1       4.670  17.570  16.051  1.00 12.52 LIG-0.27  OA
BRANCH 32 34
ATOM     34  CA  LYS B   1       6.441  17.835  14.466  1.00  9.37 LIG 0.27  C 
BRANCH 34 35
ATOM     35  CB  LYS B   1       5.949  17.704  13.011  1.00 13.51 LIG 0.04  C 
BRANCH 35 36
ATOM     36  CG  LYS B   1       5.079  16.467  12.750  1.00 12.33 LIG 0.00  C 
BRANCH 36 37
ATOM     37  CD  LYS B   1       5.085  16.211  11.224  1.00 17.49 LIG 0.03  C 
BRANCH 37 38
ATOM     38  CE  LYS B   1       6.288  15.323  10.881  1.00 17.87 LIG 0.23  C 
BRANCH 38 39
ATOM     39  NZ  LYS B   1       6.571  14.395  12.011  1.00 17.55 LIG-0.08  N 
ATOM     40 HZ1  LYS B   1       7.439  14.202  12.027  1.00 17.55 LIG 0.27  HD
ATOM     41 HZ2  LYS B   1       6.340  14.783  12.778  1.00 17.55 LIG 0.27  HD
ATOM     42 HZ3  LYS B   1       6.103  13.645  11.905  1.00 17.55 LIG 0.27  HD
ENDBRANCH 38 39
ENDBRANCH 37 38
ENDBRANCH 36 37
ENDBRANCH 35 36
ENDBRANCH 34 35
BRANCH 34 43
ATOM     43  N   LYS B   1       6.946  16.541  15.027  1.00  9.31 LIG-0.07  N 
ATOM     44 H1   LYS B   1       6.803  15.887  14.440  1.00  9.31 LIG 0.28  HD
ATOM     45 H3   LYS B   1       6.517  16.358  15.785  1.00  9.31 LIG 0.28  HD
ATOM     46 H2   LYS B   1       7.818  16.608  15.190  1.00  9.31 LIG 0.28  HD
ENDBRANCH 34 43
ENDBRANCH 32 34
ENDBRANCH 1 30
TORSDOF 20
ENDMDL
