MODEL 1
USER: ADFR SOLUTION from run 104
USER: SCORE 21.544686 LL:  -4.412 LR: -19.825 RR:   0.000 FEB: -12.069
USER: RMSD 2.948698
USER: SEED 103
USER: STATUS searching
USER: GENES 28
USER: genes 0 Translation |==|  0.50133 0.56099 0.37813
USER: genes 1 Rotation |==|  0.52842 0.46760 0.51718 0.99784
USER: genes 2 Torsion [CB]-CA--N-[C] |==|  0.47803
USER: genes 3 Torsion [N]-C--CA-[N] |==|  0.31787
USER: genes 4 Torsion [C]-CA--N-[C] |==|  0.87778
USER: genes 5 Torsion [N]-C--CA-[N] |==|  0.49398
USER: genes 6 Torsion [C]-CA--CB-[CG2] |==|  0.26816
USER: genes 7 Torsion [C]-CA--N-[C] |==|  0.79268
USER: genes 8 Torsion [C]-CA--CB-[CG] |==|  0.77557
USER: genes 9 Torsion [CA]-CB--CG-[CD] |==|  0.30062
USER: genes 10 Torsion [CB]-CG--CD-[CE] |==|  0.51487
USER: genes 11 Torsion [CG]-CD--CE-[NZ] |==|  0.50450
USER: genes 12 Torsion [CD]-CE--NZ-[HZ1] |==|  0.28123
USER: genes 13 Torsion [N]-CA--CB-[CG] |==|  0.25965
USER: genes 14 Torsion [CA]-CB--CG-[CD] |==|  0.56696
USER: genes 15 Torsion [CB]-CG--CD-[OE2] |==|  0.37810
USER: genes 16 Torsion [N]-CA--C-[N] |==|  0.44065
USER: genes 17 Torsion [C]-N--CA-[CB] |==|  0.26101
USER: genes 18 Torsion [N]-CA--CB-[OG] |==|  0.47662
USER: genes 19 Torsion [CA]-CB--OG-[HG] |==|  0.60108
USER: genes 20 Torsion [N]-CA--C-[N] |==|  0.30871
USER: genes 21 Torsion [C]-N--CA-[C] |==|  0.82687
USER: genes 22 Torsion [N]-CA--CB-[CG] |==|  0.50299
USER: genes 23 Torsion [CA]-CB--CG-[CD2] |==|  0.51160
USER: genes 24 Torsion [N]-CA--C-[N] |==|  0.40258
USER: genes 25 Torsion [C]-N--CA-[CB] |==|  0.28159
USER: genes 26 Torsion [N]-CA--CB-[CG2] |==|  0.02386
USER: genes 27 Torsion [N]-CA--C-[OXT] |==|  0.40844
ROOT
ATOM      1  CA  GLU B   4      12.438  28.020   0.812  1.00 36.20 LIG 0.18  C 
ENDROOT
BRANCH 1 2
ATOM      2  N   GLU B   4      11.284  27.678  -0.006  1.00 38.17 LIG-0.35  N 
ATOM      3  C   LYS B   3      11.366  26.731  -0.932  1.00 41.21 LIG 0.24  C 
ATOM      4 O    LYS B   3      12.404  26.124  -1.164  1.00 41.12 LIG-0.27  OA
ATOM      5 H    GLU B   4      10.574  28.132   0.163  1.00 38.17 LIG 0.16  HD
BRANCH 3 6
ATOM      6  CA  LYS B   3      10.103  26.430  -1.728  1.00 44.69 LIG 0.18  C 
BRANCH 6 7
ATOM      7  N   LYS B   3      10.342  26.804  -3.116  1.00 47.57 LIG-0.35  N 
ATOM      8 H    LYS B   3      10.063  26.229  -3.692  1.00 47.57 LIG 0.16  HD
ATOM      9  C   VAL B   2      10.942  27.943  -3.440  1.00 51.36 LIG 0.24  C 
ATOM     10 O    VAL B   2      11.309  28.768  -2.602  1.00 50.65 LIG-0.27  OA
BRANCH 9 11
ATOM     11  CA  VAL B   2      11.151  28.193  -4.933  1.00 54.60 LIG 0.18  C 
BRANCH 11 12
ATOM     12  CB  VAL B   2      12.023  27.053  -5.502  1.00 55.00 LIG 0.01  C 
ATOM     13  CG2 VAL B   2      11.138  25.988  -6.130  1.00 55.89 LIG 0.01  C 
ATOM     14  CG1 VAL B   2      12.886  26.455  -4.402  1.00 55.16 LIG 0.01  C 
ENDBRANCH 11 12
BRANCH 11 15
ATOM     15  N   VAL B   2      11.770  29.492  -5.163  1.00 57.28 LIG-0.35  N 
ATOM     16  C   ACE B   1      11.080  30.620  -5.037  1.00 59.28 LIG 0.21  C 
ATOM     17  CH3 ACE B   1      11.652  31.731  -5.919  1.00 59.28 LIG 0.12  C 
ATOM     18 O    ACE B   1      10.407  30.885  -4.037  1.00 59.66 LIG-0.27  OA
ATOM     19 H    VAL B   2      12.601  29.458  -5.382  1.00 57.28 LIG 0.16  HD
ENDBRANCH 11 15
ENDBRANCH 9 11
ENDBRANCH 6 7
BRANCH 6 20
ATOM     20  CB  LYS B   3       9.778  24.939  -1.626  1.00 46.54 LIG 0.04  C 
BRANCH 20 21
ATOM     21  CG  LYS B   3      10.584  24.047  -2.571  1.00 48.43 LIG 0.00  C 
BRANCH 21 22
ATOM     22  CD  LYS B   3      11.620  23.217  -1.830  1.00 51.26 LIG 0.03  C 
BRANCH 22 23
ATOM     23  CE  LYS B   3      12.498  22.435  -2.807  1.00 52.85 LIG 0.23  C 
BRANCH 23 24
ATOM     24  NZ  LYS B   3      13.502  21.579  -2.103  1.00 53.96 LIG-0.08  N 
ATOM     25 HZ1  LYS B   3      13.219  20.734  -2.094  1.00 53.96 LIG 0.27  HD
ATOM     26 HZ2  LYS B   3      14.283  21.625  -2.528  1.00 53.96 LIG 0.27  HD
ATOM     27 HZ3  LYS B   3      13.604  21.866  -1.267  1.00 53.96 LIG 0.27  HD
ENDBRANCH 23 24
ENDBRANCH 22 23
ENDBRANCH 21 22
ENDBRANCH 20 21
ENDBRANCH 6 20
ENDBRANCH 3 6
ENDBRANCH 1 2
BRANCH 1 28
ATOM     28  CB  GLU B   4      12.150  29.266   1.664  1.00 35.98 LIG 0.04  C 
BRANCH 28 29
ATOM     29  CG  GLU B   4      11.630  28.997   3.053  1.00 37.93 LIG 0.12  C 
BRANCH 29 30
ATOM     30  CD  GLU B   4      10.837  30.172   3.606  1.00 39.47 LIG 0.17  C 
ATOM     31 OE2  GLU B   4       9.762  29.938   4.198  1.00 43.33 LIG-0.65  OA
ATOM     32 OE1  GLU B   4      11.284  31.330   3.461  1.00 37.30 LIG-0.65  OA
ENDBRANCH 29 30
ENDBRANCH 28 29
ENDBRANCH 1 28
BRANCH 1 33
ATOM     33  C   GLU B   4      12.846  26.839   1.674  1.00 33.76 LIG 0.24  C 
ATOM     34  N   SER B   5      14.098  26.856   2.117  1.00 31.01 LIG-0.34  N 
ATOM     35 H    SER B   5      14.648  27.499   1.959  1.00 31.01 LIG 0.16  HD
ATOM     36 O    GLU B   4      12.052  25.935   1.921  1.00 33.71 LIG-0.27  OA
BRANCH 34 37
ATOM     37  CA  SER B   5      14.662  25.779   2.920  1.00 29.36 LIG 0.20  C 
BRANCH 37 38
ATOM     38  CB  SER B   5      15.379  24.789   1.989  1.00 29.82 LIG 0.20  C 
BRANCH 38 39
ATOM     39 OG   SER B   5      16.113  23.819   2.715  1.00 30.14 LIG-0.40  OA
ATOM     40 HG   SER B   5      16.824  23.639   2.304  1.00 30.14 LIG 0.21  HD
ENDBRANCH 38 39
ENDBRANCH 37 38
BRANCH 37 41
ATOM     41  C   SER B   5      15.626  26.319   3.973  1.00 27.47 LIG 0.24  C 
ATOM     42  N   LEU B   6      15.227  26.223   5.240  1.00 25.92 LIG-0.35  N 
ATOM     43 H    LEU B   6      14.480  25.870   5.480  1.00 25.92 LIG 0.16  HD
ATOM     44 O    SER B   5      16.700  26.827   3.636  1.00 25.56 LIG-0.27  OA
BRANCH 42 45
ATOM     45  CA  LEU B   6      16.037  26.718   6.349  1.00 26.46 LIG 0.18  C 
BRANCH 45 46
ATOM     46  CB  LEU B   6      15.285  26.532   7.665  1.00 26.39 LIG 0.04  C 
BRANCH 46 47
ATOM     47  CG  LEU B   6      15.967  27.017   8.948  1.00 27.12 LIG-0.02  C 
ATOM     48  CD2 LEU B   6      15.119  26.658  10.175  1.00 29.87 LIG 0.01  C 
ATOM     49  CD1 LEU B   6      16.152  28.529   8.866  1.00 28.95 LIG 0.01  C 
ENDBRANCH 46 47
ENDBRANCH 45 46
BRANCH 45 50
ATOM     50  C   LEU B   6      17.381  25.991   6.457  1.00 25.78 LIG 0.24  C 
ATOM     51 O    LEU B   6      17.491  24.795   6.183  1.00 25.66 LIG-0.27  OA
ATOM     52  N   VAL B   7      18.402  26.731   6.855  1.00 26.68 LIG-0.34  N 
ATOM     53 H    VAL B   7      18.351  27.574   7.016  1.00 26.68 LIG 0.16  HD
BRANCH 52 54
ATOM     54  CA  VAL B   7      19.723  26.158   7.054  1.00 27.56 LIG 0.19  C 
BRANCH 54 55
ATOM     55  CB  VAL B   7      20.659  26.470   5.859  1.00 27.96 LIG 0.01  C 
ATOM     56  CG1 VAL B   7      20.996  25.172   5.120  1.00 28.38 LIG 0.01  C 
ATOM     57  CG2 VAL B   7      20.019  27.454   4.911  1.00 27.67 LIG 0.01  C 
ENDBRANCH 54 55
BRANCH 54 58
ATOM     58  C   VAL B   7      20.261  26.782   8.344  1.00 29.18 LIG 0.20  C 
ATOM     59 OXT  VAL B   7      21.013  26.107   9.088  1.00 29.88 LIG-0.65  OA
ATOM     60 O    VAL B   7      19.897  27.956   8.593  1.00 27.49 LIG-0.65  OA
ENDBRANCH 54 58
ENDBRANCH 52 54
ENDBRANCH 45 50
ENDBRANCH 42 45
ENDBRANCH 37 41
ENDBRANCH 34 37
ENDBRANCH 1 33
TORSDOF 26
ENDMDL
MODEL 2
USER: ADFR SOLUTION from run 170
USER: SCORE 20.981539 LL:  -4.569 LR: -19.372 RR:   0.000 FEB: -11.616
USER: RMSD 2.809850
USER: SEED 169
USER: STATUS searching
USER: GENES 28
USER: genes 0 Translation |==|  0.50423 0.56171 0.37637
USER: genes 1 Rotation |==|  0.52638 0.45436 0.51927 0.99684
USER: genes 2 Torsion [CB]-CA--N-[C] |==|  0.35894
USER: genes 3 Torsion [N]-C--CA-[N] |==|  0.34666
USER: genes 4 Torsion [C]-CA--N-[C] |==|  0.84713
USER: genes 5 Torsion [N]-C--CA-[N] |==|  0.96729
USER: genes 6 Torsion [C]-CA--CB-[CG2] |==|  0.25726
USER: genes 7 Torsion [C]-CA--N-[C] |==|  0.79269
USER: genes 8 Torsion [C]-CA--CB-[CG] |==|  0.78257
USER: genes 9 Torsion [CA]-CB--CG-[CD] |==|  0.43762
USER: genes 10 Torsion [CB]-CG--CD-[CE] |==|  0.33601
USER: genes 11 Torsion [CG]-CD--CE-[NZ] |==|  0.19373
USER: genes 12 Torsion [CD]-CE--NZ-[HZ1] |==|  0.55958
USER: genes 13 Torsion [N]-CA--CB-[CG] |==|  0.28570
USER: genes 14 Torsion [CA]-CB--CG-[CD] |==|  0.56827
USER: genes 15 Torsion [CB]-CG--CD-[OE2] |==|  0.36467
USER: genes 16 Torsion [N]-CA--C-[N] |==|  0.43017
USER: genes 17 Torsion [C]-N--CA-[CB] |==|  0.26410
USER: genes 18 Torsion [N]-CA--CB-[OG] |==|  0.46345
USER: genes 19 Torsion [CA]-CB--OG-[HG] |==|  0.62727
USER: genes 20 Torsion [N]-CA--C-[N] |==|  0.31687
USER: genes 21 Torsion [C]-N--CA-[C] |==|  0.82730
USER: genes 22 Torsion [N]-CA--CB-[CG] |==|  0.51443
USER: genes 23 Torsion [CA]-CB--CG-[CD2] |==|  0.49045
USER: genes 24 Torsion [N]-CA--C-[N] |==|  0.39931
USER: genes 25 Torsion [C]-N--CA-[CB] |==|  0.28399
USER: genes 26 Torsion [N]-CA--CB-[CG2] |==|  0.01802
USER: genes 27 Torsion [N]-CA--C-[OXT] |==|  0.40380
ROOT
ATOM      1  CA  GLU B   4      12.512  28.034   0.774  1.00 36.20 LIG 0.18  C 
ENDROOT
BRANCH 1 2
ATOM      2  N   GLU B   4      11.405  27.681  -0.103  1.00 38.17 LIG-0.35  N 
ATOM      3  C   LYS B   3      11.606  27.467  -1.397  1.00 41.21 LIG 0.24  C 
ATOM      4 O    LYS B   3      12.708  27.581  -1.920  1.00 41.12 LIG-0.27  OA
ATOM      5 H    GLU B   4      10.640  27.626   0.286  1.00 38.17 LIG 0.16  HD
BRANCH 3 6
ATOM      6  CA  LYS B   3      10.392  27.086  -2.233  1.00 44.69 LIG 0.18  C 
BRANCH 6 7
ATOM      7  N   LYS B   3      10.288  28.029  -3.338  1.00 47.57 LIG-0.35  N 
ATOM      8 H    LYS B   3      10.265  27.663  -4.117  1.00 47.57 LIG 0.16  HD
ATOM      9  C   VAL B   2      10.234  29.340  -3.135  1.00 51.36 LIG 0.24  C 
ATOM     10 O    VAL B   2      10.239  29.844  -2.011  1.00 50.65 LIG-0.27  OA
BRANCH 9 11
ATOM     11  CA  VAL B   2      10.152  30.212  -4.388  1.00 54.60 LIG 0.18  C 
BRANCH 11 12
ATOM     12  CB  VAL B   2       8.747  30.848  -4.449  1.00 55.00 LIG 0.01  C 
ATOM     13  CG2 VAL B   2       8.765  32.212  -3.778  1.00 55.89 LIG 0.01  C 
ATOM     14  CG1 VAL B   2       7.729  29.935  -3.784  1.00 55.16 LIG 0.01  C 
ENDBRANCH 11 12
BRANCH 11 15
ATOM     15  N   VAL B   2      10.427  29.430  -5.586  1.00 57.28 LIG-0.35  N 
ATOM     16  C   ACE B   1      11.660  29.045  -5.894  1.00 59.28 LIG 0.21  C 
ATOM     17  CH3 ACE B   1      11.830  28.860  -7.403  1.00 59.28 LIG 0.12  C 
ATOM     18 O    ACE B   1      12.400  28.467  -5.095  1.00 59.66 LIG-0.27  OA
ATOM     19 H    VAL B   2       9.732  29.247  -6.060  1.00 57.28 LIG 0.16  HD
ENDBRANCH 11 15
ENDBRANCH 9 11
ENDBRANCH 6 7
BRANCH 6 20
ATOM     20  CB  LYS B   3      10.564  25.661  -2.762  1.00 46.54 LIG 0.04  C 
BRANCH 20 21
ATOM     21  CG  LYS B   3      11.499  25.538  -3.966  1.00 48.43 LIG 0.00  C 
BRANCH 21 22
ATOM     22  CD  LYS B   3      12.063  24.134  -4.111  1.00 51.26 LIG 0.03  C 
BRANCH 22 23
ATOM     23  CE  LYS B   3      11.691  23.531  -5.466  1.00 52.85 LIG 0.23  C 
BRANCH 23 24
ATOM     24  NZ  LYS B   3      12.404  24.199  -6.598  1.00 53.96 LIG-0.08  N 
ATOM     25 HZ1  LYS B   3      11.958  24.058  -7.355  1.00 53.96 LIG 0.27  HD
ATOM     26 HZ2  LYS B   3      12.454  25.075  -6.442  1.00 53.96 LIG 0.27  HD
ATOM     27 HZ3  LYS B   3      13.225  23.865  -6.670  1.00 53.96 LIG 0.27  HD
ENDBRANCH 23 24
ENDBRANCH 22 23
ENDBRANCH 21 22
ENDBRANCH 20 21
ENDBRANCH 6 20
ENDBRANCH 3 6
ENDBRANCH 1 2
BRANCH 1 28
ATOM     28  CB  GLU B   4      12.172  29.284   1.600  1.00 35.98 LIG 0.04  C 
BRANCH 28 29
ATOM     29  CG  GLU B   4      11.790  29.029   3.036  1.00 37.93 LIG 0.12  C 
BRANCH 29 30
ATOM     30  CD  GLU B   4      10.923  30.143   3.605  1.00 39.47 LIG 0.17  C 
ATOM     31 OE2  GLU B   4       9.876  29.832   4.211  1.00 43.33 LIG-0.65  OA
ATOM     32 OE1  GLU B   4      11.285  31.331   3.459  1.00 37.30 LIG-0.65  OA
ENDBRANCH 29 30
ENDBRANCH 28 29
ENDBRANCH 1 28
BRANCH 1 33
ATOM     33  C   GLU B   4      12.878  26.861   1.665  1.00 33.76 LIG 0.24  C 
ATOM     34  N   SER B   5      14.130  26.847   2.111  1.00 31.01 LIG-0.34  N 
ATOM     35 H    SER B   5      14.701  27.467   1.939  1.00 31.01 LIG 0.16  HD
ATOM     36 O    GLU B   4      12.054  25.990   1.929  1.00 33.71 LIG-0.27  OA
BRANCH 34 37
ATOM     37  CA  SER B   5      14.656  25.771   2.941  1.00 29.36 LIG 0.20  C 
BRANCH 37 38
ATOM     38  CB  SER B   5      15.366  24.750   2.038  1.00 29.82 LIG 0.20  C 
BRANCH 38 39
ATOM     39 OG   SER B   5      16.153  23.841   2.787  1.00 30.14 LIG-0.40  OA
ATOM     40 HG   SER B   5      16.907  23.757   2.425  1.00 30.14 LIG 0.21  HD
ENDBRANCH 38 39
ENDBRANCH 37 38
BRANCH 37 41
ATOM     41  C   SER B   5      15.614  26.307   4.001  1.00 27.47 LIG 0.24  C 
ATOM     42  N   LEU B   6      15.217  26.185   5.266  1.00 25.92 LIG-0.35  N 
ATOM     43 H    LEU B   6      14.475  25.818   5.501  1.00 25.92 LIG 0.16  HD
ATOM     44 O    SER B   5      16.680  26.834   3.671  1.00 25.56 LIG-0.27  OA
BRANCH 42 45
ATOM     45  CA  LEU B   6      16.022  26.673   6.383  1.00 26.46 LIG 0.18  C 
BRANCH 45 46
ATOM     46  CB  LEU B   6      15.275  26.452   7.696  1.00 26.39 LIG 0.04  C 
BRANCH 46 47
ATOM     47  CG  LEU B   6      15.907  27.011   8.976  1.00 27.12 LIG-0.02  C 
ATOM     48  CD2 LEU B   6      14.985  26.772  10.178  1.00 29.87 LIG 0.01  C 
ATOM     49  CD1 LEU B   6      16.151  28.505   8.793  1.00 28.95 LIG 0.01  C 
ENDBRANCH 46 47
ENDBRANCH 45 46
BRANCH 45 50
ATOM     50  C   LEU B   6      17.377  25.965   6.475  1.00 25.78 LIG 0.24  C 
ATOM     51 O    LEU B   6      17.500  24.771   6.201  1.00 25.66 LIG-0.27  OA
ATOM     52  N   VAL B   7      18.392  26.719   6.861  1.00 26.68 LIG-0.34  N 
ATOM     53 H    VAL B   7      18.332  27.562   7.023  1.00 26.68 LIG 0.16  HD
BRANCH 52 54
ATOM     54  CA  VAL B   7      19.724  26.164   7.045  1.00 27.56 LIG 0.19  C 
BRANCH 54 55
ATOM     55  CB  VAL B   7      20.647  26.507   5.849  1.00 27.96 LIG 0.01  C 
ATOM     56  CG1 VAL B   7      21.043  25.219   5.123  1.00 28.38 LIG 0.01  C 
ATOM     57  CG2 VAL B   7      19.967  27.454   4.892  1.00 27.67 LIG 0.01  C 
ENDBRANCH 54 55
BRANCH 54 58
ATOM     58  C   VAL B   7      20.259  26.780   8.340  1.00 29.18 LIG 0.20  C 
ATOM     59 OXT  VAL B   7      21.000  26.096   9.087  1.00 29.88 LIG-0.65  OA
ATOM     60 O    VAL B   7      19.904  27.956   8.590  1.00 27.49 LIG-0.65  OA
ENDBRANCH 54 58
ENDBRANCH 52 54
ENDBRANCH 45 50
ENDBRANCH 42 45
ENDBRANCH 37 41
ENDBRANCH 34 37
ENDBRANCH 1 33
TORSDOF 26
ENDMDL
MODEL 3
USER: ADFR SOLUTION from run 45
USER: SCORE 21.467649 LL:  -4.563 LR: -19.229 RR:   0.000 FEB: -11.473
USER: RMSD 3.397258
USER: SEED 44
USER: STATUS no improvement in best in 2 clusters for 5 generations
USER: GENES 28
USER: genes 0 Translation |==|  0.49968 0.55578 0.37791
USER: genes 1 Rotation |==|  0.50998 0.44412 0.53321 0.99566
USER: genes 2 Torsion [CB]-CA--N-[C] |==|  0.52419
USER: genes 3 Torsion [N]-C--CA-[N] |==|  0.31275
USER: genes 4 Torsion [C]-CA--N-[C] |==|  0.87170
USER: genes 5 Torsion [N]-C--CA-[N] |==|  0.98120
USER: genes 6 Torsion [C]-CA--CB-[CG2] |==|  0.19158
USER: genes 7 Torsion [C]-CA--N-[C] |==|  0.78195
USER: genes 8 Torsion [C]-CA--CB-[CG] |==|  0.75570
USER: genes 9 Torsion [CA]-CB--CG-[CD] |==|  0.31599
USER: genes 10 Torsion [CB]-CG--CD-[CE] |==|  0.45737
USER: genes 11 Torsion [CG]-CD--CE-[NZ] |==|  0.34734
USER: genes 12 Torsion [CD]-CE--NZ-[HZ1] |==|  0.72459
USER: genes 13 Torsion [N]-CA--CB-[CG] |==|  0.32137
USER: genes 14 Torsion [CA]-CB--CG-[CD] |==|  0.55619
USER: genes 15 Torsion [CB]-CG--CD-[OE2] |==|  0.33351
USER: genes 16 Torsion [N]-CA--C-[N] |==|  0.39336
USER: genes 17 Torsion [C]-N--CA-[CB] |==|  0.28535
USER: genes 18 Torsion [N]-CA--CB-[OG] |==|  0.38352
USER: genes 19 Torsion [CA]-CB--OG-[HG] |==|  0.57305
USER: genes 20 Torsion [N]-CA--C-[N] |==|  0.32148
USER: genes 21 Torsion [C]-N--CA-[C] |==|  0.80912
USER: genes 22 Torsion [N]-CA--CB-[CG] |==|  0.44320
USER: genes 23 Torsion [CA]-CB--CG-[CD2] |==|  0.56191
USER: genes 24 Torsion [N]-CA--C-[N] |==|  0.40974
USER: genes 25 Torsion [C]-N--CA-[CB] |==|  0.28460
USER: genes 26 Torsion [N]-CA--CB-[CG2] |==|  0.02890
USER: genes 27 Torsion [N]-CA--C-[OXT] |==|  0.42051
ROOT
ATOM      1  CA  GLU B   4      12.396  27.919   0.808  1.00 36.20 LIG 0.18  C 
ENDROOT
BRANCH 1 2
ATOM      2  N   GLU B   4      11.350  27.453  -0.092  1.00 38.17 LIG-0.35  N 
ATOM      3  C   LYS B   3      11.443  26.271  -0.686  1.00 41.21 LIG 0.24  C 
ATOM      4 O    LYS B   3      12.408  25.532  -0.536  1.00 41.12 LIG-0.27  OA
ATOM      5 H    GLU B   4      10.693  27.999  -0.195  1.00 38.17 LIG 0.16  HD
BRANCH 3 6
ATOM      6  CA  LYS B   3      10.293  25.861  -1.596  1.00 44.69 LIG 0.18  C 
BRANCH 6 7
ATOM      7  N   LYS B   3      10.790  25.825  -2.966  1.00 47.57 LIG-0.35  N 
ATOM      8 H    LYS B   3      10.561  25.123  -3.408  1.00 47.57 LIG 0.16  HD
ATOM      9  C   VAL B   2      11.532  26.806  -3.466  1.00 51.36 LIG 0.24  C 
ATOM     10 O    VAL B   2      11.825  27.817  -2.826  1.00 50.65 LIG-0.27  OA
BRANCH 9 11
ATOM     11  CA  VAL B   2      12.005  26.623  -4.908  1.00 54.60 LIG 0.18  C 
BRANCH 11 12
ATOM     12  CB  VAL B   2      11.361  27.725  -5.777  1.00 55.00 LIG 0.01  C 
ATOM     13  CG2 VAL B   2      11.947  29.080  -5.415  1.00 55.89 LIG 0.01  C 
ATOM     14  CG1 VAL B   2       9.851  27.725  -5.589  1.00 55.16 LIG 0.01  C 
ENDBRANCH 11 12
BRANCH 11 15
ATOM     15  N   VAL B   2      11.663  25.296  -5.405  1.00 57.28 LIG-0.35  N 
ATOM     16  C   ACE B   1      12.378  24.228  -5.073  1.00 59.28 LIG 0.21  C 
ATOM     17  CH3 ACE B   1      12.299  23.143  -6.149  1.00 59.28 LIG 0.12  C 
ATOM     18 O    ACE B   1      12.659  23.946  -3.905  1.00 59.66 LIG-0.27  OA
ATOM     19 H    VAL B   2      10.973  25.275  -5.918  1.00 57.28 LIG 0.16  HD
ENDBRANCH 11 15
ENDBRANCH 9 11
ENDBRANCH 6 7
BRANCH 6 20
ATOM     20  CB  LYS B   3       9.778  24.483  -1.179  1.00 46.54 LIG 0.04  C 
BRANCH 20 21
ATOM     21  CG  LYS B   3      10.501  23.308  -1.839  1.00 48.43 LIG 0.00  C 
BRANCH 21 22
ATOM     22  CD  LYS B   3      11.286  22.482  -0.834  1.00 51.26 LIG 0.03  C 
BRANCH 22 23
ATOM     23  CE  LYS B   3      11.680  21.127  -1.424  1.00 52.85 LIG 0.23  C 
BRANCH 23 24
ATOM     24  NZ  LYS B   3      13.154  20.885  -1.347  1.00 53.96 LIG-0.08  N 
ATOM     25 HZ1  LYS B   3      13.528  21.070  -2.134  1.00 53.96 LIG 0.27  HD
ATOM     26 HZ2  LYS B   3      13.509  21.408  -0.720  1.00 53.96 LIG 0.27  HD
ATOM     27 HZ3  LYS B   3      13.304  20.032  -1.141  1.00 53.96 LIG 0.27  HD
ENDBRANCH 23 24
ENDBRANCH 22 23
ENDBRANCH 21 22
ENDBRANCH 20 21
ENDBRANCH 6 20
ENDBRANCH 3 6
ENDBRANCH 1 2
BRANCH 1 28
ATOM     28  CB  GLU B   4      11.960  29.203   1.529  1.00 35.98 LIG 0.04  C 
BRANCH 28 29
ATOM     29  CG  GLU B   4      11.812  29.089   3.025  1.00 37.93 LIG 0.12  C 
BRANCH 29 30
ATOM     30  CD  GLU B   4      10.934  30.192   3.599  1.00 39.47 LIG 0.17  C 
ATOM     31 OE2  GLU B   4       9.894  29.867   4.211  1.00 43.33 LIG-0.65  OA
ATOM     32 OE1  GLU B   4      11.281  31.384   3.452  1.00 37.30 LIG-0.65  OA
ENDBRANCH 29 30
ENDBRANCH 28 29
ENDBRANCH 1 28
BRANCH 1 33
ATOM     33  C   GLU B   4      12.773  26.827   1.793  1.00 33.76 LIG 0.24  C 
ATOM     34  N   SER B   5      14.065  26.738   2.085  1.00 31.01 LIG-0.34  N 
ATOM     35 H    SER B   5      14.661  27.271   1.767  1.00 31.01 LIG 0.16  HD
ATOM     36 O    GLU B   4      11.917  26.083   2.265  1.00 33.71 LIG-0.27  OA
BRANCH 34 37
ATOM     37  CA  SER B   5      14.600  25.719   2.979  1.00 29.36 LIG 0.20  C 
BRANCH 37 38
ATOM     38  CB  SER B   5      15.266  24.619   2.137  1.00 29.82 LIG 0.20  C 
BRANCH 38 39
ATOM     39 OG   SER B   5      16.492  24.192   2.703  1.00 30.14 LIG-0.40  OA
ATOM     40 HG   SER B   5      16.991  23.890   2.097  1.00 30.14 LIG 0.21  HD
ENDBRANCH 38 39
ENDBRANCH 37 38
BRANCH 37 41
ATOM     41  C   SER B   5      15.599  26.317   3.966  1.00 27.47 LIG 0.24  C 
ATOM     42  N   LEU B   6      15.254  26.268   5.252  1.00 25.92 LIG-0.35  N 
ATOM     43 H    LEU B   6      14.524  25.913   5.538  1.00 25.92 LIG 0.16  HD
ATOM     44 O    SER B   5      16.648  26.825   3.563  1.00 25.56 LIG-0.27  OA
BRANCH 42 45
ATOM     45  CA  LEU B   6      16.101  26.820   6.304  1.00 26.46 LIG 0.18  C 
BRANCH 45 46
ATOM     46  CB  LEU B   6      15.346  26.824   7.631  1.00 26.39 LIG 0.04  C 
BRANCH 46 47
ATOM     47  CG  LEU B   6      16.173  26.902   8.920  1.00 27.12 LIG-0.02  C 
ATOM     48  CD2 LEU B   6      15.370  26.353  10.106  1.00 29.87 LIG 0.01  C 
ATOM     49  CD1 LEU B   6      16.551  28.357   9.174  1.00 28.95 LIG 0.01  C 
ENDBRANCH 46 47
ENDBRANCH 45 46
BRANCH 45 50
ATOM     50  C   LEU B   6      17.395  26.021   6.489  1.00 25.78 LIG 0.24  C 
ATOM     51 O    LEU B   6      17.434  24.805   6.297  1.00 25.66 LIG-0.27  OA
ATOM     52  N   VAL B   7      18.453  26.721   6.861  1.00 26.68 LIG-0.34  N 
ATOM     53 H    VAL B   7      18.453  27.574   6.965  1.00 26.68 LIG 0.16  HD
BRANCH 52 54
ATOM     54  CA  VAL B   7      19.732  26.081   7.126  1.00 27.56 LIG 0.19  C 
BRANCH 54 55
ATOM     55  CB  VAL B   7      20.716  26.277   5.946  1.00 27.96 LIG 0.01  C 
ATOM     56  CG1 VAL B   7      20.958  24.934   5.253  1.00 28.38 LIG 0.01  C 
ATOM     57  CG2 VAL B   7      20.182  27.283   4.955  1.00 27.67 LIG 0.01  C 
ENDBRANCH 54 55
BRANCH 54 58
ATOM     58  C   VAL B   7      20.272  26.737   8.400  1.00 29.18 LIG 0.20  C 
ATOM     59 OXT  VAL B   7      21.028  26.081   9.157  1.00 29.88 LIG-0.65  OA
ATOM     60 O    VAL B   7      19.904  27.914   8.624  1.00 27.49 LIG-0.65  OA
ENDBRANCH 54 58
ENDBRANCH 52 54
ENDBRANCH 45 50
ENDBRANCH 42 45
ENDBRANCH 37 41
ENDBRANCH 34 37
ENDBRANCH 1 33
TORSDOF 26
ENDMDL
MODEL 4
USER: ADFR SOLUTION from run 160
USER: SCORE 20.556163 LL:  -4.446 LR: -18.415 RR:   0.000 FEB: -10.660
USER: RMSD 1.510093
USER: SEED 159
USER: STATUS no improvement in best in 3 clusters for 5 generations
USER: GENES 28
USER: genes 0 Translation |==|  0.49795 0.53763 0.37168
USER: genes 1 Rotation |==|  0.50887 0.43345 0.54725 0.99321
USER: genes 2 Torsion [CB]-CA--N-[C] |==|  0.25950
USER: genes 3 Torsion [N]-C--CA-[N] |==|  0.40216
USER: genes 4 Torsion [C]-CA--N-[C] |==|  0.80949
USER: genes 5 Torsion [N]-C--CA-[N] |==|  0.41296
USER: genes 6 Torsion [C]-CA--CB-[CG2] |==|  0.18155
USER: genes 7 Torsion [C]-CA--N-[C] |==|  0.77770
USER: genes 8 Torsion [C]-CA--CB-[CG] |==|  0.22890
USER: genes 9 Torsion [CA]-CB--CG-[CD] |==|  0.57794
USER: genes 10 Torsion [CB]-CG--CD-[CE] |==|  0.46976
USER: genes 11 Torsion [CG]-CD--CE-[NZ] |==|  0.49801
USER: genes 12 Torsion [CD]-CE--NZ-[HZ1] |==|  0.51906
USER: genes 13 Torsion [N]-CA--CB-[CG] |==|  0.36871
USER: genes 14 Torsion [CA]-CB--CG-[CD] |==|  0.54950
USER: genes 15 Torsion [CB]-CG--CD-[OE2] |==|  0.30291
USER: genes 16 Torsion [N]-CA--C-[N] |==|  0.40126
USER: genes 17 Torsion [C]-N--CA-[CB] |==|  0.26573
USER: genes 18 Torsion [N]-CA--CB-[OG] |==|  0.20162
USER: genes 19 Torsion [CA]-CB--OG-[HG] |==|  0.31645
USER: genes 20 Torsion [N]-CA--C-[N] |==|  0.33324
USER: genes 21 Torsion [C]-N--CA-[C] |==|  0.81369
USER: genes 22 Torsion [N]-CA--CB-[CG] |==|  0.49751
USER: genes 23 Torsion [CA]-CB--CG-[CD2] |==|  0.53868
USER: genes 24 Torsion [N]-CA--C-[N] |==|  0.43479
USER: genes 25 Torsion [C]-N--CA-[CB] |==|  0.26991
USER: genes 26 Torsion [N]-CA--CB-[CG2] |==|  0.02967
USER: genes 27 Torsion [N]-CA--C-[OXT] |==|  0.40500
ROOT
ATOM      1  CA  GLU B   4      12.352  27.565   0.672  1.00 36.20 LIG 0.18  C 
ENDROOT
BRANCH 1 2
ATOM      2  N   GLU B   4      11.375  27.037  -0.269  1.00 38.17 LIG-0.35  N 
ATOM      3  C   LYS B   3      11.410  27.381  -1.549  1.00 41.21 LIG 0.24  C 
ATOM      4 O    LYS B   3      12.233  28.170  -1.997  1.00 41.12 LIG-0.27  OA
ATOM      5 H    GLU B   4      10.796  26.500   0.074  1.00 38.17 LIG 0.16  HD
BRANCH 3 6
ATOM      6  CA  LYS B   3      10.359  26.765  -2.462  1.00 44.69 LIG 0.18  C 
BRANCH 6 7
ATOM      7  N   LYS B   3       9.988  27.758  -3.462  1.00 47.57 LIG-0.35  N 
ATOM      8 H    LYS B   3      10.241  27.567  -4.263  1.00 47.57 LIG 0.16  HD
ATOM      9  C   VAL B   2       9.317  28.858  -3.140  1.00 51.36 LIG 0.24  C 
ATOM     10 O    VAL B   2       8.939  29.100  -1.994  1.00 50.65 LIG-0.27  OA
BRANCH 9 11
ATOM     11  CA  VAL B   2       9.019  29.824  -4.287  1.00 54.60 LIG 0.18  C 
BRANCH 11 12
ATOM     12  CB  VAL B   2      10.199  30.813  -4.411  1.00 55.00 LIG 0.01  C 
ATOM     13  CG2 VAL B   2      11.457  30.070  -4.829  1.00 55.89 LIG 0.01  C 
ATOM     14  CG1 VAL B   2      10.415  31.537  -3.091  1.00 55.16 LIG 0.01  C 
ENDBRANCH 11 12
BRANCH 11 15
ATOM     15  N   VAL B   2       7.764  30.529  -4.062  1.00 57.28 LIG-0.35  N 
ATOM     16  C   ACE B   1       6.594  29.959  -4.324  1.00 59.28 LIG 0.21  C 
ATOM     17  CH3 ACE B   1       5.525  31.001  -4.661  1.00 59.28 LIG 0.12  C 
ATOM     18 O    ACE B   1       6.283  28.843  -3.901  1.00 59.66 LIG-0.27  OA
ATOM     19 H    VAL B   2       7.854  31.327  -3.752  1.00 57.28 LIG 0.16  HD
ENDBRANCH 11 15
ENDBRANCH 9 11
ENDBRANCH 6 7
BRANCH 6 20
ATOM     20  CB  LYS B   3      10.934  25.518  -3.136  1.00 46.54 LIG 0.04  C 
BRANCH 20 21
ATOM     21  CG  LYS B   3      10.878  24.251  -2.281  1.00 48.43 LIG 0.00  C 
BRANCH 21 22
ATOM     22  CD  LYS B   3      11.989  23.275  -2.632  1.00 51.26 LIG 0.03  C 
BRANCH 22 23
ATOM     23  CE  LYS B   3      12.079  22.151  -1.600  1.00 52.85 LIG 0.23  C 
BRANCH 23 24
ATOM     24  NZ  LYS B   3      13.154  21.166  -1.930  1.00 53.96 LIG-0.08  N 
ATOM     25 HZ1  LYS B   3      13.110  20.478  -1.366  1.00 53.96 LIG 0.27  HD
ATOM     26 HZ2  LYS B   3      13.043  20.872  -2.764  1.00 53.96 LIG 0.27  HD
ATOM     27 HZ3  LYS B   3      13.949  21.558  -1.858  1.00 53.96 LIG 0.27  HD
ENDBRANCH 23 24
ENDBRANCH 22 23
ENDBRANCH 21 22
ENDBRANCH 20 21
ENDBRANCH 6 20
ENDBRANCH 3 6
ENDBRANCH 1 2
BRANCH 1 28
ATOM     28  CB  GLU B   4      11.814  28.828   1.362  1.00 35.98 LIG 0.04  C 
BRANCH 28 29
ATOM     29  CG  GLU B   4      11.978  28.869   2.860  1.00 37.93 LIG 0.12  C 
BRANCH 29 30
ATOM     30  CD  GLU B   4      11.065  29.901   3.508  1.00 39.47 LIG 0.17  C 
ATOM     31 OE2  GLU B   4      10.096  29.496   4.184  1.00 43.33 LIG-0.65  OA
ATOM     32 OE1  GLU B   4      11.315  31.115   3.353  1.00 37.30 LIG-0.65  OA
ENDBRANCH 29 30
ENDBRANCH 28 29
ENDBRANCH 1 28
BRANCH 1 33
ATOM     33  C   GLU B   4      12.743  26.502   1.683  1.00 33.76 LIG 0.24  C 
ATOM     34  N   SER B   5      14.011  26.523   2.077  1.00 31.01 LIG-0.34  N 
ATOM     35 H    SER B   5      14.582  27.109   1.809  1.00 31.01 LIG 0.16  HD
ATOM     36 O    GLU B   4      11.921  25.682   2.084  1.00 33.71 LIG-0.27  OA
BRANCH 34 37
ATOM     37  CA  SER B   5      14.560  25.547   3.010  1.00 29.36 LIG 0.20  C 
BRANCH 37 38
ATOM     38  CB  SER B   5      15.235  24.421   2.210  1.00 29.82 LIG 0.20  C 
BRANCH 38 39
ATOM     39 OG   SER B   5      16.452  24.846   1.624  1.00 30.14 LIG-0.40  OA
ATOM     40 HG   SER B   5      17.093  24.431   1.975  1.00 30.14 LIG 0.21  HD
ENDBRANCH 38 39
ENDBRANCH 37 38
BRANCH 37 41
ATOM     41  C   SER B   5      15.556  26.195   3.967  1.00 27.47 LIG 0.24  C 
ATOM     42  N   LEU B   6      15.260  26.118   5.264  1.00 25.92 LIG-0.35  N 
ATOM     43 H    LEU B   6      14.562  25.721   5.571  1.00 25.92 LIG 0.16  HD
ATOM     44 O    SER B   5      16.561  26.766   3.532  1.00 25.56 LIG-0.27  OA
BRANCH 42 45
ATOM     45  CA  LEU B   6      16.111  26.712   6.291  1.00 26.46 LIG 0.18  C 
BRANCH 45 46
ATOM     46  CB  LEU B   6      15.420  26.627   7.650  1.00 26.39 LIG 0.04  C 
BRANCH 46 47
ATOM     47  CG  LEU B   6      16.171  27.183   8.865  1.00 27.12 LIG-0.02  C 
ATOM     48  CD2 LEU B   6      15.507  26.714  10.166  1.00 29.87 LIG 0.01  C 
ATOM     49  CD1 LEU B   6      16.162  28.706   8.794  1.00 28.95 LIG 0.01  C 
ENDBRANCH 46 47
ENDBRANCH 45 46
BRANCH 45 50
ATOM     50  C   LEU B   6      17.469  26.013   6.397  1.00 25.78 LIG 0.24  C 
ATOM     51 O    LEU B   6      17.627  24.852   6.017  1.00 25.66 LIG-0.27  OA
ATOM     52  N   VAL B   7      18.447  26.736   6.915  1.00 26.68 LIG-0.34  N 
ATOM     53 H    VAL B   7      18.364  27.558   7.153  1.00 26.68 LIG 0.16  HD
BRANCH 52 54
ATOM     54  CA  VAL B   7      19.774  26.179   7.125  1.00 27.56 LIG 0.19  C 
BRANCH 54 55
ATOM     55  CB  VAL B   7      20.728  26.542   5.961  1.00 27.96 LIG 0.01  C 
ATOM     56  CG1 VAL B   7      21.062  25.281   5.160  1.00 28.38 LIG 0.01  C 
ATOM     57  CG2 VAL B   7      20.112  27.581   5.057  1.00 27.67 LIG 0.01  C 
ENDBRANCH 54 55
BRANCH 54 58
ATOM     58  C   VAL B   7      20.274  26.774   8.444  1.00 29.18 LIG 0.20  C 
ATOM     59 OXT  VAL B   7      21.002  26.081   9.196  1.00 29.88 LIG-0.65  OA
ATOM     60 O    VAL B   7      19.904  27.942   8.708  1.00 27.49 LIG-0.65  OA
ENDBRANCH 54 58
ENDBRANCH 52 54
ENDBRANCH 45 50
ENDBRANCH 42 45
ENDBRANCH 37 41
ENDBRANCH 34 37
ENDBRANCH 1 33
TORSDOF 26
ENDMDL
MODEL 5
USER: ADFR SOLUTION from run 25
USER: SCORE 19.573439 LL:  -4.769 LR: -18.415 RR:   0.000 FEB: -10.659
USER: RMSD 2.756877
USER: SEED 24
USER: STATUS no improvement in best in 3 clusters for 5 generations
USER: GENES 28
USER: genes 0 Translation |==|  0.48434 0.57897 0.45063
USER: genes 1 Rotation |==|  0.63060 0.37958 0.66495 0.93731
USER: genes 2 Torsion [CB]-CA--N-[C] |==|  0.30756
USER: genes 3 Torsion [N]-C--CA-[N] |==|  0.43846
USER: genes 4 Torsion [C]-CA--N-[C] |==|  0.55341
USER: genes 5 Torsion [N]-C--CA-[N] |==|  0.91461
USER: genes 6 Torsion [C]-CA--CB-[CG2] |==|  0.37977
USER: genes 7 Torsion [C]-CA--N-[C] |==|  0.82268
USER: genes 8 Torsion [C]-CA--CB-[CG] |==|  0.39011
USER: genes 9 Torsion [CA]-CB--CG-[CD] |==|  0.33463
USER: genes 10 Torsion [CB]-CG--CD-[CE] |==|  0.40492
USER: genes 11 Torsion [CG]-CD--CE-[NZ] |==|  0.50927
USER: genes 12 Torsion [CD]-CE--NZ-[HZ1] |==|  0.35071
USER: genes 13 Torsion [N]-CA--CB-[CG] |==|  0.83927
USER: genes 14 Torsion [CA]-CB--CG-[CD] |==|  0.77038
USER: genes 15 Torsion [CB]-CG--CD-[OE2] |==|  0.53087
USER: genes 16 Torsion [N]-CA--C-[N] |==|  0.16407
USER: genes 17 Torsion [C]-N--CA-[CB] |==|  0.43952
USER: genes 18 Torsion [N]-CA--CB-[OG] |==|  0.59773
USER: genes 19 Torsion [CA]-CB--OG-[HG] |==|  0.68467
USER: genes 20 Torsion [N]-CA--C-[N] |==|  0.23910
USER: genes 21 Torsion [C]-N--CA-[C] |==|  0.83613
USER: genes 22 Torsion [N]-CA--CB-[CG] |==|  0.51233
USER: genes 23 Torsion [CA]-CB--CG-[CD2] |==|  0.49933
USER: genes 24 Torsion [N]-CA--C-[N] |==|  0.39990
USER: genes 25 Torsion [C]-N--CA-[CB] |==|  0.27948
USER: genes 26 Torsion [N]-CA--CB-[CG2] |==|  0.03505
USER: genes 27 Torsion [N]-CA--C-[OXT] |==|  0.41254
ROOT
ATOM      1  CA  GLU B   4      12.005  28.371   2.389  1.00 36.20 LIG 0.18  C 
ENDROOT
BRANCH 1 2
ATOM      2  N   GLU B   4      11.552  27.960   1.068  1.00 38.17 LIG-0.35  N 
ATOM      3  C   LYS B   3      11.793  28.713   0.003  1.00 41.21 LIG 0.24  C 
ATOM      4 O    LYS B   3      12.373  29.790   0.076  1.00 41.12 LIG-0.27  OA
ATOM      5 H    GLU B   4      11.131  27.210   1.048  1.00 38.17 LIG 0.16  HD
BRANCH 3 6
ATOM      6  CA  LYS B   3      11.297  28.195  -1.339  1.00 44.69 LIG 0.18  C 
BRANCH 6 7
ATOM      7  N   LYS B   3      11.170  29.329  -2.245  1.00 47.57 LIG-0.35  N 
ATOM      8 H    LYS B   3      11.615  30.025  -2.007  1.00 47.57 LIG 0.16  HD
ATOM      9  C   VAL B   2      10.422  29.268  -3.341  1.00 51.36 LIG 0.24  C 
ATOM     10 O    VAL B   2       9.814  28.252  -3.680  1.00 50.65 LIG-0.27  OA
BRANCH 9 11
ATOM     11  CA  VAL B   2      10.359  30.540  -4.185  1.00 54.60 LIG 0.18  C 
BRANCH 11 12
ATOM     12  CB  VAL B   2      11.478  30.477  -5.248  1.00 55.00 LIG 0.01  C 
ATOM     13  CG2 VAL B   2      10.941  30.942  -6.592  1.00 55.89 LIG 0.01  C 
ATOM     14  CG1 VAL B   2      12.026  29.062  -5.348  1.00 55.16 LIG 0.01  C 
ENDBRANCH 11 12
BRANCH 11 15
ATOM     15  N   VAL B   2      10.496  31.727  -3.350  1.00 57.28 LIG-0.35  N 
ATOM     16  C   ACE B   1       9.591  32.031  -2.427  1.00 59.28 LIG 0.21  C 
ATOM     17  CH3 ACE B   1       9.542  33.537  -2.163  1.00 59.28 LIG 0.12  C 
ATOM     18 O    ACE B   1       9.202  31.224  -1.578  1.00 59.66 LIG-0.27  OA
ATOM     19 H    VAL B   2      11.200  32.196  -3.509  1.00 57.28 LIG 0.16  HD
ENDBRANCH 11 15
ENDBRANCH 9 11
ENDBRANCH 6 7
BRANCH 6 20
ATOM     20  CB  LYS B   3      12.295  27.178  -1.895  1.00 46.54 LIG 0.04  C 
BRANCH 20 21
ATOM     21  CG  LYS B   3      11.656  25.968  -2.578  1.00 48.43 LIG 0.00  C 
BRANCH 21 22
ATOM     22  CD  LYS B   3      12.079  25.844  -4.033  1.00 51.26 LIG 0.03  C 
BRANCH 22 23
ATOM     23  CE  LYS B   3      12.191  24.376  -4.448  1.00 52.85 LIG 0.23  C 
BRANCH 23 24
ATOM     24  NZ  LYS B   3      12.683  24.223  -5.852  1.00 53.96 LIG-0.08  N 
ATOM     25 HZ1  LYS B   3      13.391  23.683  -5.862  1.00 53.96 LIG 0.27  HD
ATOM     26 HZ2  LYS B   3      12.038  23.873  -6.357  1.00 53.96 LIG 0.27  HD
ATOM     27 HZ3  LYS B   3      12.912  25.019  -6.176  1.00 53.96 LIG 0.27  HD
ENDBRANCH 23 24
ENDBRANCH 22 23
ENDBRANCH 21 22
ENDBRANCH 20 21
ENDBRANCH 6 20
ENDBRANCH 3 6
ENDBRANCH 1 2
BRANCH 1 28
ATOM     28  CB  GLU B   4      10.811  28.751   3.278  1.00 35.98 LIG 0.04  C 
BRANCH 28 29
ATOM     29  CG  GLU B   4       9.929  29.851   2.746  1.00 37.93 LIG 0.12  C 
BRANCH 29 30
ATOM     30  CD  GLU B   4      10.488  31.233   3.052  1.00 39.47 LIG 0.17  C 
ATOM     31 OE2  GLU B   4       9.758  32.227   2.855  1.00 43.33 LIG-0.65  OA
ATOM     32 OE1  GLU B   4      11.652  31.333   3.497  1.00 37.30 LIG-0.65  OA
ENDBRANCH 29 30
ENDBRANCH 28 29
ENDBRANCH 1 28
BRANCH 1 33
ATOM     33  C   GLU B   4      12.847  27.279   3.024  1.00 33.76 LIG 0.24  C 
ATOM     34  N   SER B   5      13.934  26.926   2.347  1.00 31.01 LIG-0.34  N 
ATOM     35 H    SER B   5      14.175  27.298   1.609  1.00 31.01 LIG 0.16  HD
ATOM     36 O    GLU B   4      12.515  26.768   4.090  1.00 33.71 LIG-0.27  OA
BRANCH 34 37
ATOM     37  CA  SER B   5      14.828  25.865   2.795  1.00 29.36 LIG 0.20  C 
BRANCH 37 38
ATOM     38  CB  SER B   5      15.625  25.345   1.589  1.00 29.82 LIG 0.20  C 
BRANCH 38 39
ATOM     39 OG   SER B   5      15.864  23.951   1.676  1.00 30.14 LIG-0.40  OA
ATOM     40 HG   SER B   5      16.687  23.813   1.772  1.00 30.14 LIG 0.21  HD
ENDBRANCH 38 39
ENDBRANCH 37 38
BRANCH 37 41
ATOM     41  C   SER B   5      15.772  26.361   3.887  1.00 27.47 LIG 0.24  C 
ATOM     42  N   LEU B   6      15.306  26.308   5.134  1.00 25.92 LIG-0.35  N 
ATOM     43 H    LEU B   6      14.528  26.004   5.341  1.00 25.92 LIG 0.16  HD
ATOM     44 O    SER B   5      16.890  26.797   3.597  1.00 25.56 LIG-0.27  OA
BRANCH 42 45
ATOM     45  CA  LEU B   6      16.091  26.769   6.276  1.00 26.46 LIG 0.18  C 
BRANCH 45 46
ATOM     46  CB  LEU B   6      15.297  26.571   7.565  1.00 26.39 LIG 0.04  C 
BRANCH 46 47
ATOM     47  CG  LEU B   6      15.914  27.092   8.867  1.00 27.12 LIG-0.02  C 
ATOM     48  CD2 LEU B   6      14.981  26.814  10.052  1.00 29.87 LIG 0.01  C 
ATOM     49  CD1 LEU B   6      16.154  28.592   8.733  1.00 28.95 LIG 0.01  C 
ENDBRANCH 46 47
ENDBRANCH 45 46
BRANCH 45 50
ATOM     50  C   LEU B   6      17.419  26.018   6.409  1.00 25.78 LIG 0.24  C 
ATOM     51 O    LEU B   6      17.514  24.821   6.134  1.00 25.66 LIG-0.27  OA
ATOM     52  N   VAL B   7      18.444  26.738   6.832  1.00 26.68 LIG-0.34  N 
ATOM     53 H    VAL B   7      18.405  27.581   6.996  1.00 26.68 LIG 0.16  HD
BRANCH 52 54
ATOM     54  CA  VAL B   7      19.751  26.140   7.058  1.00 27.56 LIG 0.19  C 
BRANCH 54 55
ATOM     55  CB  VAL B   7      20.711  26.424   5.876  1.00 27.96 LIG 0.01  C 
ATOM     56  CG1 VAL B   7      20.955  25.132   5.092  1.00 28.38 LIG 0.01  C 
ATOM     57  CG2 VAL B   7      20.150  27.485   4.962  1.00 27.67 LIG 0.01  C 
ENDBRANCH 54 55
BRANCH 54 58
ATOM     58  C   VAL B   7      20.280  26.764   8.351  1.00 29.18 LIG 0.20  C 
ATOM     59 OXT  VAL B   7      21.029  26.090   9.099  1.00 29.88 LIG-0.65  OA
ATOM     60 O    VAL B   7      19.913  27.937   8.599  1.00 27.49 LIG-0.65  OA
ENDBRANCH 54 58
ENDBRANCH 52 54
ENDBRANCH 45 50
ENDBRANCH 42 45
ENDBRANCH 37 41
ENDBRANCH 34 37
ENDBRANCH 1 33
TORSDOF 26
ENDMDL
MODEL 6
USER: ADFR SOLUTION from run 92
USER: SCORE 20.028473 LL:  -4.811 LR: -18.248 RR:   0.000 FEB: -10.492
USER: RMSD 2.367295
USER: SEED 91
USER: STATUS no improvement in best in 2 clusters for 5 generations
USER: GENES 28
USER: genes 0 Translation |==|  0.50100 0.55511 0.37113
USER: genes 1 Rotation |==|  0.52001 0.43305 0.53897 0.99356
USER: genes 2 Torsion [CB]-CA--N-[C] |==|  0.35438
USER: genes 3 Torsion [N]-C--CA-[N] |==|  0.09809
USER: genes 4 Torsion [C]-CA--N-[C] |==|  0.15949
USER: genes 5 Torsion [N]-C--CA-[N] |==|  0.36085
USER: genes 6 Torsion [C]-CA--CB-[CG2] |==|  0.38523
USER: genes 7 Torsion [C]-CA--N-[C] |==|  0.76088
USER: genes 8 Torsion [C]-CA--CB-[CG] |==|  0.25932
USER: genes 9 Torsion [CA]-CB--CG-[CD] |==|  0.08530
USER: genes 10 Torsion [CB]-CG--CD-[CE] |==|  0.55007
USER: genes 11 Torsion [CG]-CD--CE-[NZ] |==|  0.86867
USER: genes 12 Torsion [CD]-CE--NZ-[HZ1] |==|  0.77197
USER: genes 13 Torsion [N]-CA--CB-[CG] |==|  0.34682
USER: genes 14 Torsion [CA]-CB--CG-[CD] |==|  0.55250
USER: genes 15 Torsion [CB]-CG--CD-[OE2] |==|  0.32245
USER: genes 16 Torsion [N]-CA--C-[N] |==|  0.40484
USER: genes 17 Torsion [C]-N--CA-[CB] |==|  0.26615
USER: genes 18 Torsion [N]-CA--CB-[OG] |==|  0.43637
USER: genes 19 Torsion [CA]-CB--OG-[HG] |==|  0.62833
USER: genes 20 Torsion [N]-CA--C-[N] |==|  0.32663
USER: genes 21 Torsion [C]-N--CA-[C] |==|  0.81992
USER: genes 22 Torsion [N]-CA--CB-[CG] |==|  0.50691
USER: genes 23 Torsion [CA]-CB--CG-[CD2] |==|  0.51781
USER: genes 24 Torsion [N]-CA--C-[N] |==|  0.42221
USER: genes 25 Torsion [C]-N--CA-[CB] |==|  0.27203
USER: genes 26 Torsion [N]-CA--CB-[CG2] |==|  0.02681
USER: genes 27 Torsion [N]-CA--C-[OXT] |==|  0.40742
ROOT
ATOM      1  CA  GLU B   4      12.430  27.906   0.660  1.00 36.20 LIG 0.18  C 
ENDROOT
BRANCH 1 2
ATOM      2  N   GLU B   4      11.436  27.450  -0.301  1.00 38.17 LIG-0.35  N 
ATOM      3  C   LYS B   3      11.762  27.250  -1.571  1.00 41.21 LIG 0.24  C 
ATOM      4 O    LYS B   3      12.889  27.461  -2.003  1.00 41.12 LIG-0.27  OA
ATOM      5 H    GLU B   4      10.649  27.328   0.023  1.00 38.17 LIG 0.16  HD
BRANCH 3 6
ATOM      6  CA  LYS B   3      10.661  26.757  -2.500  1.00 44.69 LIG 0.18  C 
BRANCH 6 7
ATOM      7  N   LYS B   3       9.407  27.372  -2.084  1.00 47.57 LIG-0.35  N 
ATOM      8 H    LYS B   3       8.785  26.811  -1.888  1.00 47.57 LIG 0.16  HD
ATOM      9  C   VAL B   2       9.263  28.690  -2.022  1.00 51.36 LIG 0.24  C 
ATOM     10 O    VAL B   2      10.175  29.477  -2.279  1.00 50.65 LIG-0.27  OA
BRANCH 9 11
ATOM     11  CA  VAL B   2       7.885  29.196  -1.595  1.00 54.60 LIG 0.18  C 
BRANCH 11 12
ATOM     12  CB  VAL B   2       7.181  29.799  -2.831  1.00 55.00 LIG 0.01  C 
ATOM     13  CG2 VAL B   2       5.717  29.392  -2.843  1.00 55.89 LIG 0.01  C 
ATOM     14  CG1 VAL B   2       7.877  29.342  -4.104  1.00 55.16 LIG 0.01  C 
ENDBRANCH 11 12
BRANCH 11 15
ATOM     15  N   VAL B   2       7.998  30.179  -0.525  1.00 57.28 LIG-0.35  N 
ATOM     16  C   ACE B   1       8.063  29.809   0.749  1.00 59.28 LIG 0.21  C 
ATOM     17  CH3 ACE B   1       7.519  30.897   1.677  1.00 59.28 LIG 0.12  C 
ATOM     18 O    ACE B   1       8.858  28.961   1.161  1.00 59.66 LIG-0.27  OA
ATOM     19 H    VAL B   2       8.019  30.996  -0.792  1.00 57.28 LIG 0.16  HD
ENDBRANCH 11 15
ENDBRANCH 9 11
ENDBRANCH 6 7
BRANCH 6 20
ATOM     20  CB  LYS B   3      10.995  27.149  -3.941  1.00 46.54 LIG 0.04  C 
BRANCH 20 21
ATOM     21  CG  LYS B   3      11.744  26.077  -4.733  1.00 48.43 LIG 0.00  C 
BRANCH 21 22
ATOM     22  CD  LYS B   3      11.378  24.672  -4.283  1.00 51.26 LIG 0.03  C 
BRANCH 22 23
ATOM     23  CE  LYS B   3      12.423  23.657  -4.747  1.00 52.85 LIG 0.23  C 
BRANCH 23 24
ATOM     24  NZ  LYS B   3      12.779  23.831  -6.189  1.00 53.96 LIG-0.08  N 
ATOM     25 HZ1  LYS B   3      12.169  23.427  -6.696  1.00 53.96 LIG 0.27  HD
ATOM     26 HZ2  LYS B   3      12.801  24.699  -6.387  1.00 53.96 LIG 0.27  HD
ATOM     27 HZ3  LYS B   3      13.578  23.472  -6.344  1.00 53.96 LIG 0.27  HD
ENDBRANCH 23 24
ENDBRANCH 22 23
ENDBRANCH 21 22
ENDBRANCH 20 21
ENDBRANCH 6 20
ENDBRANCH 3 6
ENDBRANCH 1 2
BRANCH 1 28
ATOM     28  CB  GLU B   4      11.928  29.148   1.412  1.00 35.98 LIG 0.04  C 
BRANCH 28 29
ATOM     29  CG  GLU B   4      11.925  29.039   2.916  1.00 37.93 LIG 0.12  C 
BRANCH 29 30
ATOM     30  CD  GLU B   4      11.017  30.074   3.564  1.00 39.47 LIG 0.17  C 
ATOM     31 OE2  GLU B   4      10.022  29.675   4.206  1.00 43.33 LIG-0.65  OA
ATOM     32 OE1  GLU B   4      11.294  31.287   3.443  1.00 37.30 LIG-0.65  OA
ENDBRANCH 29 30
ENDBRANCH 28 29
ENDBRANCH 1 28
BRANCH 1 33
ATOM     33  C   GLU B   4      12.795  26.785   1.617  1.00 33.76 LIG 0.24  C 
ATOM     34  N   SER B   5      14.058  26.769   2.027  1.00 31.01 LIG-0.34  N 
ATOM     35 H    SER B   5      14.639  27.361   1.798  1.00 31.01 LIG 0.16  HD
ATOM     36 O    GLU B   4      11.958  25.955   1.963  1.00 33.71 LIG-0.27  OA
BRANCH 34 37
ATOM     37  CA  SER B   5      14.583  25.737   2.912  1.00 29.36 LIG 0.20  C 
BRANCH 37 38
ATOM     38  CB  SER B   5      15.258  24.649   2.062  1.00 29.82 LIG 0.20  C 
BRANCH 38 39
ATOM     39 OG   SER B   5      16.213  23.914   2.806  1.00 30.14 LIG-0.40  OA
ATOM     40 HG   SER B   5      16.919  23.837   2.357  1.00 30.14 LIG 0.21  HD
ENDBRANCH 38 39
ENDBRANCH 37 38
BRANCH 37 41
ATOM     41  C   SER B   5      15.571  26.321   3.918  1.00 27.47 LIG 0.24  C 
ATOM     42  N   LEU B   6      15.231  26.219   5.202  1.00 25.92 LIG-0.35  N 
ATOM     43 H    LEU B   6      14.509  25.840   5.477  1.00 25.92 LIG 0.16  HD
ATOM     44 O    SER B   5      16.609  26.864   3.531  1.00 25.56 LIG-0.27  OA
BRANCH 42 45
ATOM     45  CA  LEU B   6      16.070  26.752   6.272  1.00 26.46 LIG 0.18  C 
BRANCH 45 46
ATOM     46  CB  LEU B   6      15.356  26.605   7.614  1.00 26.39 LIG 0.04  C 
BRANCH 46 47
ATOM     47  CG  LEU B   6      16.057  27.163   8.857  1.00 27.12 LIG-0.02  C 
ATOM     48  CD2 LEU B   6      15.279  26.789  10.124  1.00 29.87 LIG 0.01  C 
ATOM     49  CD1 LEU B   6      16.151  28.680   8.730  1.00 28.95 LIG 0.01  C 
ENDBRANCH 46 47
ENDBRANCH 45 46
BRANCH 45 50
ATOM     50  C   LEU B   6      17.420  26.035   6.364  1.00 25.78 LIG 0.24  C 
ATOM     51 O    LEU B   6      17.554  24.865   6.003  1.00 25.66 LIG-0.27  OA
ATOM     52  N   VAL B   7      18.418  26.753   6.848  1.00 26.68 LIG-0.34  N 
ATOM     53 H    VAL B   7      18.352  27.581   7.072  1.00 26.68 LIG 0.16  HD
BRANCH 52 54
ATOM     54  CA  VAL B   7      19.741  26.182   7.043  1.00 27.56 LIG 0.19  C 
BRANCH 54 55
ATOM     55  CB  VAL B   7      20.683  26.524   5.861  1.00 27.96 LIG 0.01  C 
ATOM     56  CG1 VAL B   7      21.009  25.249   5.080  1.00 28.38 LIG 0.01  C 
ATOM     57  CG2 VAL B   7      20.055  27.546   4.945  1.00 27.67 LIG 0.01  C 
ENDBRANCH 54 55
BRANCH 54 58
ATOM     58  C   VAL B   7      20.269  26.779   8.349  1.00 29.18 LIG 0.20  C 
ATOM     59 OXT  VAL B   7      21.013  26.088   9.087  1.00 29.88 LIG-0.65  OA
ATOM     60 O    VAL B   7      19.904  27.948   8.619  1.00 27.49 LIG-0.65  OA
ENDBRANCH 54 58
ENDBRANCH 52 54
ENDBRANCH 45 50
ENDBRANCH 42 45
ENDBRANCH 37 41
ENDBRANCH 34 37
ENDBRANCH 1 33
TORSDOF 26
ENDMDL
MODEL 7
USER: ADFR SOLUTION from run 109
USER: SCORE 19.728506 LL:  -4.728 LR: -18.037 RR:   0.000 FEB: -10.281
USER: RMSD 3.340017
USER: SEED 108
USER: STATUS no improvement in best in 4 clusters for 5 generations
USER: GENES 28
USER: genes 0 Translation |==|  0.50015 0.55375 0.37240
USER: genes 1 Rotation |==|  0.50967 0.43842 0.52941 0.99523
USER: genes 2 Torsion [CB]-CA--N-[C] |==|  0.34740
USER: genes 3 Torsion [N]-C--CA-[N] |==|  0.00327
USER: genes 4 Torsion [C]-CA--N-[C] |==|  0.76961
USER: genes 5 Torsion [N]-C--CA-[N] |==|  0.41380
USER: genes 6 Torsion [C]-CA--CB-[CG2] |==|  0.56304
USER: genes 7 Torsion [C]-CA--N-[C] |==|  0.71685
USER: genes 8 Torsion [C]-CA--CB-[CG] |==|  0.16441
USER: genes 9 Torsion [CA]-CB--CG-[CD] |==|  0.24586
USER: genes 10 Torsion [CB]-CG--CD-[CE] |==|  0.79413
USER: genes 11 Torsion [CG]-CD--CE-[NZ] |==|  0.54439
USER: genes 12 Torsion [CD]-CE--NZ-[HZ1] |==|  0.36755
USER: genes 13 Torsion [N]-CA--CB-[CG] |==|  0.35483
USER: genes 14 Torsion [CA]-CB--CG-[CD] |==|  0.56953
USER: genes 15 Torsion [CB]-CG--CD-[OE2] |==|  0.31952
USER: genes 16 Torsion [N]-CA--C-[N] |==|  0.40739
USER: genes 17 Torsion [C]-N--CA-[CB] |==|  0.27021
USER: genes 18 Torsion [N]-CA--CB-[OG] |==|  0.34192
USER: genes 19 Torsion [CA]-CB--OG-[HG] |==|  0.52925
USER: genes 20 Torsion [N]-CA--C-[N] |==|  0.33850
USER: genes 21 Torsion [C]-N--CA-[C] |==|  0.81654
USER: genes 22 Torsion [N]-CA--CB-[CG] |==|  0.50936
USER: genes 23 Torsion [CA]-CB--CG-[CD2] |==|  0.51236
USER: genes 24 Torsion [N]-CA--C-[N] |==|  0.41776
USER: genes 25 Torsion [C]-N--CA-[CB] |==|  0.27703
USER: genes 26 Torsion [N]-CA--CB-[CG2] |==|  0.01995
USER: genes 27 Torsion [N]-CA--C-[OXT] |==|  0.40266
ROOT
ATOM      1  CA  GLU B   4      12.408  27.879   0.688  1.00 36.20 LIG 0.18  C 
ENDROOT
BRANCH 1 2
ATOM      2  N   GLU B   4      11.376  27.431  -0.236  1.00 38.17 LIG-0.35  N 
ATOM      3  C   LYS B   3      11.656  27.218  -1.515  1.00 41.21 LIG 0.24  C 
ATOM      4 O    LYS B   3      12.770  27.409  -1.986  1.00 41.12 LIG-0.27  OA
ATOM      5 H    GLU B   4      10.598  27.324   0.116  1.00 38.17 LIG 0.16  HD
BRANCH 3 6
ATOM      6  CA  LYS B   3      10.517  26.735  -2.402  1.00 44.69 LIG 0.18  C 
BRANCH 6 7
ATOM      7  N   LYS B   3       9.313  26.644  -1.586  1.00 47.57 LIG-0.35  N 
ATOM      8 H    LYS B   3       8.794  27.328  -1.640  1.00 47.57 LIG 0.16  HD
ATOM      9  C   VAL B   2       9.060  25.581  -0.830  1.00 51.36 LIG 0.24  C 
ATOM     10 O    VAL B   2       9.800  24.598  -0.788  1.00 50.65 LIG-0.27  OA
BRANCH 9 11
ATOM     11  CA  VAL B   2       7.773  25.633  -0.007  1.00 54.60 LIG 0.18  C 
BRANCH 11 12
ATOM     12  CB  VAL B   2       8.090  26.292   1.353  1.00 55.00 LIG 0.01  C 
ATOM     13  CG2 VAL B   2       7.053  25.878   2.384  1.00 55.89 LIG 0.01  C 
ATOM     14  CG1 VAL B   2       8.125  27.806   1.205  1.00 55.16 LIG 0.01  C 
ENDBRANCH 11 12
BRANCH 11 15
ATOM     15  N   VAL B   2       7.216  24.299   0.174  1.00 57.28 LIG-0.35  N 
ATOM     16  C   ACE B   1       6.183  23.877  -0.546  1.00 59.28 LIG 0.21  C 
ATOM     17  CH3 ACE B   1       5.371  22.818   0.202  1.00 59.28 LIG 0.12  C 
ATOM     18 O    ACE B   1       6.152  23.950  -1.778  1.00 59.66 LIG-0.27  OA
ATOM     19 H    VAL B   2       7.610  23.826   0.776  1.00 57.28 LIG 0.16  HD
ENDBRANCH 11 15
ENDBRANCH 9 11
ENDBRANCH 6 7
BRANCH 6 20
ATOM     20  CB  LYS B   3      10.309  27.724  -3.550  1.00 46.54 LIG 0.04  C 
BRANCH 20 21
ATOM     21  CG  LYS B   3      11.533  27.927  -4.444  1.00 48.43 LIG 0.00  C 
BRANCH 21 22
ATOM     22  CD  LYS B   3      11.578  26.925  -5.587  1.00 51.26 LIG 0.03  C 
BRANCH 22 23
ATOM     23  CE  LYS B   3      11.980  25.538  -5.086  1.00 52.85 LIG 0.23  C 
BRANCH 23 24
ATOM     24  NZ  LYS B   3      12.404  24.636  -6.201  1.00 53.96 LIG-0.08  N 
ATOM     25 HZ1  LYS B   3      13.169  24.235  -5.984  1.00 53.96 LIG 0.27  HD
ATOM     26 HZ2  LYS B   3      11.776  24.020  -6.340  1.00 53.96 LIG 0.27  HD
ATOM     27 HZ3  LYS B   3      12.519  25.113  -6.943  1.00 53.96 LIG 0.27  HD
ENDBRANCH 23 24
ENDBRANCH 22 23
ENDBRANCH 21 22
ENDBRANCH 20 21
ENDBRANCH 6 20
ENDBRANCH 3 6
ENDBRANCH 1 2
BRANCH 1 28
ATOM     28  CB  GLU B   4      11.976  29.169   1.401  1.00 35.98 LIG 0.04  C 
BRANCH 28 29
ATOM     29  CG  GLU B   4      12.065  29.139   2.906  1.00 37.93 LIG 0.12  C 
BRANCH 29 30
ATOM     30  CD  GLU B   4      11.104  30.124   3.557  1.00 39.47 LIG 0.17  C 
ATOM     31 OE2  GLU B   4      10.174  29.673   4.258  1.00 43.33 LIG-0.65  OA
ATOM     32 OE1  GLU B   4      11.277  31.349   3.379  1.00 37.30 LIG-0.65  OA
ENDBRANCH 29 30
ENDBRANCH 28 29
ENDBRANCH 1 28
BRANCH 1 33
ATOM     33  C   GLU B   4      12.745  26.780   1.679  1.00 33.76 LIG 0.24  C 
ATOM     34  N   SER B   5      14.011  26.736   2.080  1.00 31.01 LIG-0.34  N 
ATOM     35 H    SER B   5      14.609  27.301   1.825  1.00 31.01 LIG 0.16  HD
ATOM     36 O    GLU B   4      11.885  25.990   2.060  1.00 33.71 LIG-0.27  OA
BRANCH 34 37
ATOM     37  CA  SER B   5      14.510  25.718   2.995  1.00 29.36 LIG 0.20  C 
BRANCH 37 38
ATOM     38  CB  SER B   5      15.174  24.598   2.178  1.00 29.82 LIG 0.20  C 
BRANCH 38 39
ATOM     39 OG   SER B   5      16.520  24.390   2.565  1.00 30.14 LIG-0.40  OA
ATOM     40 HG   SER B   5      16.896  23.880   2.012  1.00 30.14 LIG 0.21  HD
ENDBRANCH 38 39
ENDBRANCH 37 38
BRANCH 37 41
ATOM     41  C   SER B   5      15.500  26.310   3.995  1.00 27.47 LIG 0.24  C 
ATOM     42  N   LEU B   6      15.188  26.168   5.283  1.00 25.92 LIG-0.35  N 
ATOM     43 H    LEU B   6      14.484  25.760   5.562  1.00 25.92 LIG 0.16  HD
ATOM     44 O    SER B   5      16.512  26.896   3.601  1.00 25.56 LIG-0.27  OA
BRANCH 42 45
ATOM     45  CA  LEU B   6      16.031  26.703   6.348  1.00 26.46 LIG 0.18  C 
BRANCH 45 46
ATOM     46  CB  LEU B   6      15.336  26.529   7.696  1.00 26.39 LIG 0.04  C 
BRANCH 46 47
ATOM     47  CG  LEU B   6      16.032  27.104   8.935  1.00 27.12 LIG-0.02  C 
ATOM     48  CD2 LEU B   6      15.252  26.742  10.205  1.00 29.87 LIG 0.01  C 
ATOM     49  CD1 LEU B   6      16.122  28.619   8.791  1.00 28.95 LIG 0.01  C 
ENDBRANCH 46 47
ENDBRANCH 45 46
BRANCH 45 50
ATOM     50  C   LEU B   6      17.394  26.008   6.416  1.00 25.78 LIG 0.24  C 
ATOM     51 O    LEU B   6      17.536  24.835   6.068  1.00 25.66 LIG-0.27  OA
ATOM     52  N   VAL B   7      18.392  26.748   6.866  1.00 26.68 LIG-0.34  N 
ATOM     53 H    VAL B   7      18.319  27.577   7.080  1.00 26.68 LIG 0.16  HD
BRANCH 52 54
ATOM     54  CA  VAL B   7      19.728  26.198   7.035  1.00 27.56 LIG 0.19  C 
BRANCH 54 55
ATOM     55  CB  VAL B   7      20.648  26.576   5.847  1.00 27.96 LIG 0.01  C 
ATOM     56  CG1 VAL B   7      21.038  25.311   5.079  1.00 28.38 LIG 0.01  C 
ATOM     57  CG2 VAL B   7      19.966  27.554   4.923  1.00 27.67 LIG 0.01  C 
ENDBRANCH 54 55
BRANCH 54 58
ATOM     58  C   VAL B   7      20.261  26.787   8.345  1.00 29.18 LIG 0.20  C 
ATOM     59 OXT  VAL B   7      21.001  26.087   9.078  1.00 29.88 LIG-0.65  OA
ATOM     60 O    VAL B   7      19.904  27.956   8.620  1.00 27.49 LIG-0.65  OA
ENDBRANCH 54 58
ENDBRANCH 52 54
ENDBRANCH 45 50
ENDBRANCH 42 45
ENDBRANCH 37 41
ENDBRANCH 34 37
ENDBRANCH 1 33
TORSDOF 26
ENDMDL
MODEL 8
USER: ADFR SOLUTION from run 100
USER: SCORE 21.331032 LL:  -5.103 LR: -17.827 RR:   0.000 FEB: -10.071
USER: RMSD 4.371850
USER: SEED 99
USER: STATUS no improvement in best in 3 clusters for 5 generations
USER: GENES 28
USER: genes 0 Translation |==|  0.51445 0.58257 0.37860
USER: genes 1 Rotation |==|  0.57349 0.30422 0.61188 0.94017
USER: genes 2 Torsion [CB]-CA--N-[C] |==|  0.86329
USER: genes 3 Torsion [N]-C--CA-[N] |==|  0.37526
USER: genes 4 Torsion [C]-CA--N-[C] |==|  0.64913
USER: genes 5 Torsion [N]-C--CA-[N] |==|  0.39078
USER: genes 6 Torsion [C]-CA--CB-[CG2] |==|  0.49163
USER: genes 7 Torsion [C]-CA--N-[C] |==|  0.76879
USER: genes 8 Torsion [C]-CA--CB-[CG] |==|  0.36059
USER: genes 9 Torsion [CA]-CB--CG-[CD] |==|  0.07161
USER: genes 10 Torsion [CB]-CG--CD-[CE] |==|  0.23280
USER: genes 11 Torsion [CG]-CD--CE-[NZ] |==|  0.52752
USER: genes 12 Torsion [CD]-CE--NZ-[HZ1] |==|  0.45894
USER: genes 13 Torsion [N]-CA--CB-[CG] |==|  0.39824
USER: genes 14 Torsion [CA]-CB--CG-[CD] |==|  0.40134
USER: genes 15 Torsion [CB]-CG--CD-[OE2] |==|  0.38404
USER: genes 16 Torsion [N]-CA--C-[N] |==|  0.33600
USER: genes 17 Torsion [C]-N--CA-[CB] |==|  0.23272
USER: genes 18 Torsion [N]-CA--CB-[OG] |==|  0.29030
USER: genes 19 Torsion [CA]-CB--OG-[HG] |==|  0.41733
USER: genes 20 Torsion [N]-CA--C-[N] |==|  0.32222
USER: genes 21 Torsion [C]-N--CA-[C] |==|  0.83240
USER: genes 22 Torsion [N]-CA--CB-[CG] |==|  0.56924
USER: genes 23 Torsion [CA]-CB--CG-[CD2] |==|  0.06999
USER: genes 24 Torsion [N]-CA--C-[N] |==|  0.38031
USER: genes 25 Torsion [C]-N--CA-[CB] |==|  0.28817
USER: genes 26 Torsion [N]-CA--CB-[CG2] |==|  0.02243
USER: genes 27 Torsion [N]-CA--C-[OXT] |==|  0.41133
ROOT
ATOM      1  CA  GLU B   4      12.772  28.441   0.823  1.00 36.20 LIG 0.18  C 
ENDROOT
BRANCH 1 2
ATOM      2  N   GLU B   4      12.580  28.065  -0.570  1.00 38.17 LIG-0.35  N 
ATOM      3  C   LYS B   3      11.445  27.508  -0.973  1.00 41.21 LIG 0.24  C 
ATOM      4 O    LYS B   3      10.525  27.259  -0.203  1.00 41.12 LIG-0.27  OA
ATOM      5 H    GLU B   4      13.248  28.232  -1.085  1.00 38.17 LIG 0.16  HD
BRANCH 3 6
ATOM      6  CA  LYS B   3      11.328  27.164  -2.451  1.00 44.69 LIG 0.18  C 
BRANCH 6 7
ATOM      7  N   LYS B   3      10.761  25.826  -2.562  1.00 47.57 LIG-0.35  N 
ATOM      8 H    LYS B   3      10.020  25.718  -2.138  1.00 47.57 LIG 0.16  HD
ATOM      9  C   VAL B   2      11.358  24.870  -3.265  1.00 51.36 LIG 0.24  C 
ATOM     10 O    VAL B   2      12.404  25.052  -3.889  1.00 50.65 LIG-0.27  OA
BRANCH 9 11
ATOM     11  CA  VAL B   2      10.664  23.508  -3.272  1.00 54.60 LIG 0.18  C 
BRANCH 11 12
ATOM     12  CB  VAL B   2      11.330  22.615  -2.203  1.00 55.00 LIG 0.01  C 
ATOM     13  CG2 VAL B   2      10.617  21.275  -2.130  1.00 55.89 LIG 0.01  C 
ATOM     14  CG1 VAL B   2      11.306  23.311  -0.851  1.00 55.16 LIG 0.01  C 
ENDBRANCH 11 12
BRANCH 11 15
ATOM     15  N   VAL B   2      10.738  22.892  -4.591  1.00 57.28 LIG-0.35  N 
ATOM     16  C   ACE B   1       9.872  23.201  -5.548  1.00 59.28 LIG 0.21  C 
ATOM     17  CH3 ACE B   1       9.692  22.047  -6.537  1.00 59.28 LIG 0.12  C 
ATOM     18 O    ACE B   1       9.622  24.364  -5.876  1.00 59.66 LIG-0.27  OA
ATOM     19 H    VAL B   2      11.380  22.326  -4.685  1.00 57.28 LIG 0.16  HD
ENDBRANCH 11 15
ENDBRANCH 9 11
ENDBRANCH 6 7
BRANCH 6 20
ATOM     20  CB  LYS B   3      10.424  28.185  -3.143  1.00 46.54 LIG 0.04  C 
BRANCH 20 21
ATOM     21  CG  LYS B   3      11.013  28.796  -4.415  1.00 48.43 LIG 0.00  C 
BRANCH 21 22
ATOM     22  CD  LYS B   3      12.029  27.876  -5.074  1.00 51.26 LIG 0.03  C 
BRANCH 22 23
ATOM     23  CE  LYS B   3      11.338  26.844  -5.967  1.00 52.85 LIG 0.23  C 
BRANCH 23 24
ATOM     24  NZ  LYS B   3      12.280  25.784  -6.439  1.00 53.96 LIG-0.08  N 
ATOM     25 HZ1  LYS B   3      11.816  25.098  -6.767  1.00 53.96 LIG 0.27  HD
ATOM     26 HZ2  LYS B   3      12.808  26.116  -7.074  1.00 53.96 LIG 0.27  HD
ATOM     27 HZ3  LYS B   3      12.779  25.505  -5.757  1.00 53.96 LIG 0.27  HD
ENDBRANCH 23 24
ENDBRANCH 22 23
ENDBRANCH 21 22
ENDBRANCH 20 21
ENDBRANCH 6 20
ENDBRANCH 3 6
ENDBRANCH 1 2
BRANCH 1 28
ATOM     28  CB  GLU B   4      11.575  29.254   1.336  1.00 35.98 LIG 0.04  C 
BRANCH 28 29
ATOM     29  CG  GLU B   4      11.180  28.995   2.768  1.00 37.93 LIG 0.12  C 
BRANCH 29 30
ATOM     30  CD  GLU B   4      10.690  30.257   3.465  1.00 39.47 LIG 0.17  C 
ATOM     31 OE2  GLU B   4       9.691  30.175   4.210  1.00 43.33 LIG-0.65  OA
ATOM     32 OE1  GLU B   4      11.303  31.330   3.280  1.00 37.30 LIG-0.65  OA
ENDBRANCH 29 30
ENDBRANCH 28 29
ENDBRANCH 1 28
BRANCH 1 33
ATOM     33  C   GLU B   4      13.017  27.210   1.676  1.00 33.76 LIG 0.24  C 
ATOM     34  N   SER B   5      14.169  27.187   2.336  1.00 31.01 LIG-0.34  N 
ATOM     35 H    SER B   5      14.741  27.831   2.314  1.00 31.01 LIG 0.16  HD
ATOM     36 O    GLU B   4      12.189  26.304   1.726  1.00 33.71 LIG-0.27  OA
BRANCH 34 37
ATOM     37  CA  SER B   5      14.578  26.061   3.165  1.00 29.36 LIG 0.20  C 
BRANCH 37 38
ATOM     38  CB  SER B   5      15.226  24.993   2.269  1.00 29.82 LIG 0.20  C 
BRANCH 38 39
ATOM     39 OG   SER B   5      16.636  24.979   2.401  1.00 30.14 LIG-0.40  OA
ATOM     40 HG   SER B   5      16.923  24.201   2.261  1.00 30.14 LIG 0.21  HD
ENDBRANCH 38 39
ENDBRANCH 37 38
BRANCH 37 41
ATOM     41  C   SER B   5      15.546  26.501   4.259  1.00 27.47 LIG 0.24  C 
ATOM     42  N   LEU B   6      15.119  26.362   5.513  1.00 25.92 LIG-0.35  N 
ATOM     43 H    LEU B   6      14.351  26.033   5.722  1.00 25.92 LIG 0.16  HD
ATOM     44 O    SER B   5      16.649  26.972   3.966  1.00 25.56 LIG-0.27  OA
BRANCH 42 45
ATOM     45  CA  LEU B   6      15.930  26.762   6.659  1.00 26.46 LIG 0.18  C 
BRANCH 45 46
ATOM     46  CB  LEU B   6      15.163  26.501   7.954  1.00 26.39 LIG 0.04  C 
BRANCH 46 47
ATOM     47  CG  LEU B   6      15.535  27.341   9.181  1.00 27.12 LIG-0.02  C 
ATOM     48  CD2 LEU B   6      16.151  28.677   8.750  1.00 29.87 LIG 0.01  C 
ATOM     49  CD1 LEU B   6      16.529  26.557  10.031  1.00 28.95 LIG 0.01  C 
ENDBRANCH 46 47
ENDBRANCH 45 46
BRANCH 45 50
ATOM     50  C   LEU B   6      17.258  26.001   6.725  1.00 25.78 LIG 0.24  C 
ATOM     51 O    LEU B   6      17.318  24.790   6.510  1.00 25.66 LIG-0.27  OA
ATOM     52  N   VAL B   7      18.320  26.729   7.021  1.00 26.68 LIG-0.34  N 
ATOM     53 H    VAL B   7      18.303  27.581   7.140  1.00 26.68 LIG 0.16  HD
BRANCH 52 54
ATOM     54  CA  VAL B   7      19.636  26.127   7.171  1.00 27.56 LIG 0.19  C 
BRANCH 54 55
ATOM     55  CB  VAL B   7      20.525  26.399   5.932  1.00 27.96 LIG 0.01  C 
ATOM     56  CG1 VAL B   7      20.809  25.081   5.207  1.00 28.38 LIG 0.01  C 
ATOM     57  CG2 VAL B   7      19.862  27.375   4.991  1.00 27.67 LIG 0.01  C 
ENDBRANCH 54 55
BRANCH 54 58
ATOM     58  C   VAL B   7      20.245  26.758   8.426  1.00 29.18 LIG 0.20  C 
ATOM     59 OXT  VAL B   7      21.028  26.082   9.137  1.00 29.88 LIG-0.65  OA
ATOM     60 O    VAL B   7      19.904  27.936   8.683  1.00 27.49 LIG-0.65  OA
ENDBRANCH 54 58
ENDBRANCH 52 54
ENDBRANCH 45 50
ENDBRANCH 42 45
ENDBRANCH 37 41
ENDBRANCH 34 37
ENDBRANCH 1 33
TORSDOF 26
ENDMDL
