MODEL 1
USER: ADFR SOLUTION from run 181
USER: SCORE 12.069160 LL:  -2.104 LR: -10.051 RR:   0.000 FEB:  -7.068
USER: RMSD 5.200842
USER: SEED 180
USER: STATUS no improvement in best in 2 clusters for 5 generations
USER: GENES 12
USER: genes 0 Translation |==|  0.44400 0.36188 0.47904
USER: genes 1 Rotation |==|  0.40885 0.91417 0.23870 0.54333
USER: genes 2 Torsion [C]-CA--N-[C] |==|  0.75003
USER: genes 3 Torsion [N]-C--CA-[N] |==|  0.36285
USER: genes 4 Torsion [C]-CA--N-[H2] |==|  0.94965
USER: genes 5 Torsion [N]-CA--C-[N] |==|  0.40261
USER: genes 6 Torsion [C]-N--CA-[CB] |==|  0.27649
USER: genes 7 Torsion [N]-CA--CB-[CG] |==|  0.07887
USER: genes 8 Torsion [CA]-CB--CG-[CD2] |==|  0.81140
USER: genes 9 Torsion [N]-CA--C-[OXT] |==|  0.69444
USER: genes 10 Torsion [N]-CA--CB-[CG2] |==|  0.44155
USER: genes 11 Torsion [CA]-CB--CG1-[CD1] |==|  0.21034
ROOT
ATOM      1  CA  ILE B   2      75.335  43.971  16.520  1.00 64.17 LIG 0.18  C 
ENDROOT
BRANCH 1 2
ATOM      2  N   ILE B   2      75.559  45.302  15.970  1.00 64.56 LIG-0.35  N 
ATOM      3  C   ALA B   1      74.910  46.369  16.429  1.00 64.53 LIG 0.25  C 
ATOM      4 O    ALA B   1      74.090  46.310  17.347  1.00 64.21 LIG-0.27  OA
ATOM      5 H    ILE B   2      76.138  45.330  15.334  1.00 64.56 LIG 0.16  HD
BRANCH 3 6
ATOM      6  CA  ALA B   1      75.243  47.700  15.753  1.00 64.34 LIG 0.27  C 
ATOM      7  CB  ALA B   1      76.083  48.565  16.686  1.00 65.15 LIG 0.05  C 
BRANCH 6 8
ATOM      8  N   ALA B   1      74.010  48.436  15.350  1.00 63.44 LIG-0.07  N 
ATOM      9 H2   ALA B   1      73.321  47.873  15.331  1.00 63.44 LIG 0.28  HD
ATOM     10 H3   ALA B   1      73.847  49.085  15.937  1.00 63.44 LIG 0.28  HD
ATOM     11 H1   ALA B   1      74.127  48.790  14.542  1.00 63.44 LIG 0.28  HD
ENDBRANCH 6 8
ENDBRANCH 3 6
ENDBRANCH 1 2
BRANCH 1 12
ATOM     12  C   ILE B   2      76.282  43.681  17.680  1.00 63.93 LIG 0.24  C 
ATOM     13  N   HIS B   3      75.788  42.943  18.669  1.00 63.34 LIG-0.34  N 
ATOM     14 H    HIS B   3      74.986  42.633  18.686  1.00 63.34 LIG 0.16  HD
ATOM     15 O    ILE B   2      77.435  44.115  17.679  1.00 63.64 LIG-0.27  OA
BRANCH 13 16
ATOM     16  CA  HIS B   3      76.597  42.598  19.830  1.00 63.18 LIG 0.19  C 
BRANCH 16 17
ATOM     17  CB  HIS B   3      76.269  43.526  21.002  1.00 62.24 LIG 0.10  C 
BRANCH 17 18
ATOM     18  CG  HIS B   3      74.868  44.055  20.983  1.00 63.21 LIG 0.06  A 
ATOM     19  CD2 HIS B   3      74.250  44.918  20.141  1.00 62.69 LIG 0.14  A 
ATOM     20 NE2  HIS B   3      72.958  45.061  20.582  1.00 63.05 LIG-0.25  NA
ATOM     21  CE1 HIS B   3      72.785  44.311  21.656  1.00 63.79 LIG 0.23  A 
ATOM     22 ND1  HIS B   3      73.922  43.693  21.920  1.00 63.44 LIG-0.24  NA
ENDBRANCH 17 18
ENDBRANCH 16 17
BRANCH 16 23
ATOM     23  C   HIS B   3      76.339  41.151  20.232  1.00 63.55 LIG 0.20  C 
ATOM     24 OXT  HIS B   3      75.722  40.936  21.294  1.00 62.89 LIG-0.65  OA
ATOM     25 O    HIS B   3      76.754  40.247  19.474  1.00 64.85 LIG-0.65  OA
ENDBRANCH 16 23
ENDBRANCH 13 16
ENDBRANCH 1 12
BRANCH 1 26
ATOM     26  CB  ILE B   2      75.530  42.887  15.442  1.00 64.73 LIG 0.01  C 
ATOM     27  CG2 ILE B   2      75.810  41.538  16.100  1.00 64.62 LIG 0.01  C 
BRANCH 26 28
ATOM     28  CG1 ILE B   2      74.285  42.811  14.556  1.00 64.82 LIG 0.00  C 
ATOM     29  CD1 ILE B   2      74.169  43.942  13.559  1.00 66.82 LIG 0.01  C 
ENDBRANCH 26 28
ENDBRANCH 1 26
TORSDOF 10
ENDMDL
MODEL 2
USER: ADFR SOLUTION from run 130
USER: SCORE 11.670635 LL:  -1.896 LR:  -9.862 RR:   0.000 FEB:  -6.879
USER: RMSD 5.959698
USER: SEED 129
USER: STATUS no improvement in best in 15 clusters for 5 generations
USER: GENES 12
USER: genes 0 Translation |==|  0.43021 0.36510 0.47786
USER: genes 1 Rotation |==|  0.41486 0.92763 0.25777 0.53480
USER: genes 2 Torsion [C]-CA--N-[C] |==|  0.75256
USER: genes 3 Torsion [N]-C--CA-[N] |==|  0.30512
USER: genes 4 Torsion [C]-CA--N-[H2] |==|  0.72549
USER: genes 5 Torsion [N]-CA--C-[N] |==|  0.37900
USER: genes 6 Torsion [C]-N--CA-[CB] |==|  0.43822
USER: genes 7 Torsion [N]-CA--CB-[CG] |==|  0.53194
USER: genes 8 Torsion [CA]-CB--CG-[CD2] |==|  0.75258
USER: genes 9 Torsion [N]-CA--C-[OXT] |==|  0.46037
USER: genes 10 Torsion [N]-CA--CB-[CG2] |==|  0.45674
USER: genes 11 Torsion [CA]-CB--CG1-[CD1] |==|  0.22071
ROOT
ATOM      1  CA  ILE B   2      75.180  44.032  16.501  1.00 64.17 LIG 0.18  C 
ENDROOT
BRANCH 1 2
ATOM      2  N   ILE B   2      75.442  45.396  16.060  1.00 64.56 LIG-0.35  N 
ATOM      3  C   ALA B   1      74.868  46.444  16.644  1.00 64.53 LIG 0.25  C 
ATOM      4 O    ALA B   1      74.090  46.338  17.594  1.00 64.21 LIG-0.27  OA
ATOM      5 H    ILE B   2      75.991  45.456  15.401  1.00 64.56 LIG 0.16  HD
BRANCH 3 6
ATOM      6  CA  ALA B   1      75.233  47.815  16.073  1.00 64.34 LIG 0.27  C 
ATOM      7  CB  ALA B   1      75.700  48.741  17.191  1.00 65.15 LIG 0.05  C 
BRANCH 6 8
ATOM      8  N   ALA B   1      74.085  48.433  15.349  1.00 63.44 LIG-0.07  N 
ATOM      9 H2   ALA B   1      74.179  48.299  14.474  1.00 63.44 LIG 0.28  HD
ATOM     10 H3   ALA B   1      73.325  48.062  15.626  1.00 63.44 LIG 0.28  HD
ATOM     11 H1   ALA B   1      74.065  49.307  15.515  1.00 63.44 LIG 0.28  HD
ENDBRANCH 6 8
ENDBRANCH 3 6
ENDBRANCH 1 2
BRANCH 1 12
ATOM     12  C   ILE B   2      76.150  43.604  17.598  1.00 63.93 LIG 0.24  C 
ATOM     13  N   HIS B   3      75.622  42.950  18.626  1.00 63.34 LIG-0.34  N 
ATOM     14 H    HIS B   3      74.785  42.763  18.701  1.00 63.34 LIG 0.16  HD
ATOM     15 O    ILE B   2      77.353  43.859  17.512  1.00 63.64 LIG-0.27  OA
BRANCH 13 16
ATOM     16  CA  HIS B   3      76.448  42.488  19.733  1.00 63.18 LIG 0.19  C 
BRANCH 16 17
ATOM     17  CB  HIS B   3      75.593  42.281  20.985  1.00 62.24 LIG 0.10  C 
BRANCH 17 18
ATOM     18  CG  HIS B   3      76.390  42.071  22.236  1.00 63.21 LIG 0.06  A 
ATOM     19  CD2 HIS B   3      76.876  40.943  22.806  1.00 62.69 LIG 0.14  A 
ATOM     20 NE2  HIS B   3      77.536  41.318  23.950  1.00 63.05 LIG-0.25  NA
ATOM     21  CE1 HIS B   3      77.459  42.630  24.080  1.00 63.79 LIG 0.23  A 
ATOM     22 ND1  HIS B   3      76.773  43.110  23.058  1.00 63.44 LIG-0.24  NA
ENDBRANCH 17 18
ENDBRANCH 16 17
BRANCH 16 23
ATOM     23  C   HIS B   3      77.135  41.180  19.358  1.00 63.55 LIG 0.20  C 
ATOM     24 OXT  HIS B   3      78.080  40.786  20.070  1.00 62.89 LIG-0.65  OA
ATOM     25 O    HIS B   3      76.715  40.561  18.356  1.00 64.85 LIG-0.65  OA
ENDBRANCH 16 23
ENDBRANCH 13 16
ENDBRANCH 1 12
BRANCH 1 26
ATOM     26  CB  ILE B   2      75.294  43.039  15.327  1.00 64.73 LIG 0.01  C 
ATOM     27  CG2 ILE B   2      75.401  41.611  15.857  1.00 64.62 LIG 0.01  C 
BRANCH 26 28
ATOM     28  CG1 ILE B   2      74.080  43.187  14.408  1.00 64.82 LIG 0.00  C 
ATOM     29  CD1 ILE B   2      74.164  44.363  13.462  1.00 66.82 LIG 0.01  C 
ENDBRANCH 26 28
ENDBRANCH 1 26
TORSDOF 10
ENDMDL
MODEL 3
USER: ADFR SOLUTION from run 157
USER: SCORE 11.338307 LL:  -1.740 LR:  -9.797 RR:   0.000 FEB:  -6.814
USER: RMSD 6.029188
USER: SEED 156
USER: STATUS no improvement in best in 11 clusters for 5 generations
USER: GENES 12
USER: genes 0 Translation |==|  0.51961 0.34943 0.52355
USER: genes 1 Rotation |==|  0.51434 0.93928 0.26751 0.55266
USER: genes 2 Torsion [C]-CA--N-[C] |==|  0.67155
USER: genes 3 Torsion [N]-C--CA-[N] |==|  0.98229
USER: genes 4 Torsion [C]-CA--N-[H2] |==|  0.75517
USER: genes 5 Torsion [N]-CA--C-[N] |==|  0.47635
USER: genes 6 Torsion [C]-N--CA-[CB] |==|  0.86601
USER: genes 7 Torsion [N]-CA--CB-[CG] |==|  0.38638
USER: genes 8 Torsion [CA]-CB--CG-[CD2] |==|  0.72161
USER: genes 9 Torsion [N]-CA--C-[OXT] |==|  0.34084
USER: genes 10 Torsion [N]-CA--CB-[CG2] |==|  0.58453
USER: genes 11 Torsion [CA]-CB--CG1-[CD1] |==|  0.76517
ROOT
ATOM      1  CA  ILE B   2      76.186  43.738  17.221  1.00 64.17 LIG 0.18  C 
ENDROOT
BRANCH 1 2
ATOM      2  N   ILE B   2      76.939  44.972  17.033  1.00 64.56 LIG-0.35  N 
ATOM      3  C   ALA B   1      76.353  46.164  17.083  1.00 64.53 LIG 0.25  C 
ATOM      4 O    ALA B   1      75.148  46.311  17.296  1.00 64.21 LIG-0.27  OA
ATOM      5 H    ILE B   2      77.779  44.856  16.891  1.00 64.56 LIG 0.16  HD
BRANCH 3 6
ATOM      6  CA  ALA B   1      77.266  47.371  16.863  1.00 64.34 LIG 0.27  C 
ATOM      7  CB  ALA B   1      76.862  48.110  15.592  1.00 65.15 LIG 0.05  C 
BRANCH 6 8
ATOM      8  N   ALA B   1      78.700  46.969  16.782  1.00 63.44 LIG-0.07  N 
ATOM      9 H2   ALA B   1      79.052  46.958  17.600  1.00 63.44 LIG 0.28  HD
ATOM     10 H3   ALA B   1      78.761  46.157  16.422  1.00 63.44 LIG 0.28  HD
ATOM     11 H1   ALA B   1      79.143  47.552  16.276  1.00 63.44 LIG 0.28  HD
ENDBRANCH 6 8
ENDBRANCH 3 6
ENDBRANCH 1 2
BRANCH 1 12
ATOM     12  C   ILE B   2      76.677  42.964  18.441  1.00 63.93 LIG 0.24  C 
ATOM     13  N   HIS B   3      75.946  41.916  18.803  1.00 63.34 LIG-0.34  N 
ATOM     14 H    HIS B   3      75.232  41.661  18.397  1.00 63.34 LIG 0.16  HD
ATOM     15 O    ILE B   2      77.698  43.310  19.039  1.00 63.64 LIG-0.27  OA
BRANCH 13 16
ATOM     16  CA  HIS B   3      76.316  41.098  19.950  1.00 63.18 LIG 0.19  C 
BRANCH 16 17
ATOM     17  CB  HIS B   3      77.800  40.728  19.883  1.00 62.24 LIG 0.10  C 
BRANCH 17 18
ATOM     18  CG  HIS B   3      78.503  40.794  21.203  1.00 63.21 LIG 0.06  A 
ATOM     19  CD2 HIS B   3      79.308  41.743  21.739  1.00 62.69 LIG 0.14  A 
ATOM     20 NE2  HIS B   3      79.686  41.300  22.983  1.00 63.05 LIG-0.25  NA
ATOM     21  CE1 HIS B   3      79.132  40.121  23.205  1.00 63.79 LIG 0.23  A 
ATOM     22 ND1  HIS B   3      78.412  39.793  22.147  1.00 63.44 LIG-0.24  NA
ENDBRANCH 17 18
ENDBRANCH 16 17
BRANCH 16 23
ATOM     23  C   HIS B   3      76.035  41.856  21.242  1.00 63.55 LIG 0.20  C 
ATOM     24 OXT  HIS B   3      75.272  41.332  22.078  1.00 62.89 LIG-0.65  OA
ATOM     25 O    HIS B   3      76.586  42.967  21.404  1.00 64.85 LIG-0.65  OA
ENDBRANCH 16 23
ENDBRANCH 13 16
ENDBRANCH 1 12
BRANCH 1 26
ATOM     26  CB  ILE B   2      76.298  42.827  15.982  1.00 64.73 LIG 0.01  C 
ATOM     27  CG2 ILE B   2      75.029  41.993  15.828  1.00 64.62 LIG 0.01  C 
BRANCH 26 28
ATOM     28  CG1 ILE B   2      76.542  43.680  14.736  1.00 64.82 LIG 0.00  C 
ATOM     29  CD1 ILE B   2      75.281  44.233  14.111  1.00 66.82 LIG 0.01  C 
ENDBRANCH 26 28
ENDBRANCH 1 26
TORSDOF 10
ENDMDL
MODEL 4
USER: ADFR SOLUTION from run 184
USER: SCORE 12.025312 LL:  -2.371 LR:  -9.692 RR:   0.000 FEB:  -6.709
USER: RMSD 5.161022
USER: SEED 183
USER: STATUS no improvement in best in 4 clusters for 5 generations
USER: GENES 12
USER: genes 0 Translation |==|  0.44200 0.36486 0.51166
USER: genes 1 Rotation |==|  0.41978 0.87052 0.19114 0.60436
USER: genes 2 Torsion [C]-CA--N-[C] |==|  0.78347
USER: genes 3 Torsion [N]-C--CA-[N] |==|  0.40902
USER: genes 4 Torsion [C]-CA--N-[H2] |==|  0.28445
USER: genes 5 Torsion [N]-CA--C-[N] |==|  0.40123
USER: genes 6 Torsion [C]-N--CA-[CB] |==|  0.26651
USER: genes 7 Torsion [N]-CA--CB-[CG] |==|  0.82818
USER: genes 8 Torsion [CA]-CB--CG-[CD2] |==|  0.73145
USER: genes 9 Torsion [N]-CA--C-[OXT] |==|  0.23571
USER: genes 10 Torsion [N]-CA--CB-[CG2] |==|  0.40943
USER: genes 11 Torsion [CA]-CB--CG1-[CD1] |==|  0.16248
ROOT
ATOM      1  CA  ILE B   2      75.313  44.027  17.034  1.00 64.17 LIG 0.18  C 
ENDROOT
BRANCH 1 2
ATOM      2  N   ILE B   2      75.578  45.253  16.291  1.00 64.56 LIG-0.35  N 
ATOM      3  C   ALA B   1      74.884  46.367  16.506  1.00 64.53 LIG 0.25  C 
ATOM      4 O    ALA B   1      73.983  46.444  17.344  1.00 64.21 LIG-0.27  OA
ATOM      5 H    ILE B   2      76.213  45.187  15.715  1.00 64.56 LIG 0.16  HD
BRANCH 3 6
ATOM      6  CA  ALA B   1      75.270  47.574  15.650  1.00 64.34 LIG 0.27  C 
ATOM      7  CB  ALA B   1      76.345  48.394  16.355  1.00 65.15 LIG 0.05  C 
BRANCH 6 8
ATOM      8  N   ALA B   1      74.090  48.436  15.350  1.00 63.44 LIG-0.07  N 
ATOM      9 H2   ALA B   1      74.106  49.154  15.875  1.00 63.44 LIG 0.28  HD
ATOM     10 H3   ALA B   1      74.118  48.691  14.498  1.00 63.44 LIG 0.28  HD
ATOM     11 H1   ALA B   1      73.342  47.976  15.497  1.00 63.44 LIG 0.28  HD
ENDBRANCH 6 8
ENDBRANCH 3 6
ENDBRANCH 1 2
BRANCH 1 12
ATOM     12  C   ILE B   2      75.914  44.082  18.435  1.00 63.93 LIG 0.24  C 
ATOM     13  N   HIS B   3      75.216  43.487  19.396  1.00 63.34 LIG-0.34  N 
ATOM     14 H    HIS B   3      74.465  43.087  19.270  1.00 63.34 LIG 0.16  HD
ATOM     15 O    ILE B   2      76.989  44.649  18.639  1.00 63.64 LIG-0.27  OA
BRANCH 13 16
ATOM     16  CA  HIS B   3      75.690  43.471  20.773  1.00 63.18 LIG 0.19  C 
BRANCH 16 17
ATOM     17  CB  HIS B   3      75.049  44.611  21.569  1.00 62.24 LIG 0.10  C 
BRANCH 17 18
ATOM     18  CG  HIS B   3      75.385  45.976  21.052  1.00 63.21 LIG 0.06  A 
ATOM     19  CD2 HIS B   3      76.328  46.869  21.437  1.00 62.69 LIG 0.14  A 
ATOM     20 NE2  HIS B   3      76.201  47.969  20.624  1.00 63.05 LIG-0.25  NA
ATOM     21  CE1 HIS B   3      75.215  47.760  19.769  1.00 63.79 LIG 0.23  A 
ATOM     22 ND1  HIS B   3      74.706  46.564  20.006  1.00 63.44 LIG-0.24  NA
ENDBRANCH 17 18
ENDBRANCH 16 17
BRANCH 16 23
ATOM     23  C   HIS B   3      75.351  42.136  21.424  1.00 63.55 LIG 0.20  C 
ATOM     24 OXT  HIS B   3      76.137  41.182  21.257  1.00 62.89 LIG-0.65  OA
ATOM     25 O    HIS B   3      74.301  42.061  22.100  1.00 64.85 LIG-0.65  OA
ENDBRANCH 16 23
ENDBRANCH 13 16
ENDBRANCH 1 12
BRANCH 1 26
ATOM     26  CB  ILE B   2      75.886  42.799  16.299  1.00 64.73 LIG 0.01  C 
ATOM     27  CG2 ILE B   2      76.340  41.749  17.309  1.00 64.62 LIG 0.01  C 
BRANCH 26 28
ATOM     28  CG1 ILE B   2      74.829  42.224  15.354  1.00 64.82 LIG 0.00  C 
ATOM     29  CD1 ILE B   2      74.331  43.205  14.317  1.00 66.82 LIG 0.01  C 
ENDBRANCH 26 28
ENDBRANCH 1 26
TORSDOF 10
ENDMDL
MODEL 5
USER: ADFR SOLUTION from run 140
USER: SCORE 11.475110 LL:  -2.433 LR:  -9.225 RR:   0.000 FEB:  -6.242
USER: RMSD 1.715662
USER: SEED 139
USER: STATUS no improvement in best in 3 clusters for 5 generations
USER: GENES 12
USER: genes 0 Translation |==|  0.46344 0.50938 0.54300
USER: genes 1 Rotation |==|  0.42272 0.45529 0.56396 0.98779
USER: genes 2 Torsion [C]-CA--N-[C] |==|  0.72042
USER: genes 3 Torsion [N]-C--CA-[N] |==|  0.23891
USER: genes 4 Torsion [C]-CA--N-[H2] |==|  0.54970
USER: genes 5 Torsion [N]-CA--C-[N] |==|  0.30556
USER: genes 6 Torsion [C]-N--CA-[CB] |==|  0.32239
USER: genes 7 Torsion [N]-CA--CB-[CG] |==|  0.92206
USER: genes 8 Torsion [CA]-CB--CG-[CD2] |==|  0.21686
USER: genes 9 Torsion [N]-CA--C-[OXT] |==|  0.05321
USER: genes 10 Torsion [N]-CA--CB-[CG2] |==|  0.43487
USER: genes 11 Torsion [CA]-CB--CG1-[CD1] |==|  0.24013
ROOT
ATOM      1  CA  ILE B   2      75.554  46.737  17.527  1.00 64.17 LIG 0.18  C 
ENDROOT
BRANCH 1 2
ATOM      2  N   ILE B   2      74.793  47.191  16.370  1.00 64.56 LIG-0.35  N 
ATOM      3  C   ALA B   1      75.316  47.200  15.147  1.00 64.53 LIG 0.25  C 
ATOM      4 O    ALA B   1      76.464  46.821  14.906  1.00 64.21 LIG-0.27  OA
ATOM      5 H    ILE B   2      73.992  47.447  16.551  1.00 64.56 LIG 0.16  HD
BRANCH 3 6
ATOM      6  CA  ALA B   1      74.403  47.707  14.030  1.00 64.34 LIG 0.27  C 
ATOM      7  CB  ALA B   1      74.782  47.053  12.706  1.00 65.15 LIG 0.05  C 
BRANCH 6 8
ATOM      8  N   ALA B   1      74.465  49.192  13.899  1.00 63.44 LIG-0.07  N 
ATOM      9 H2   ALA B   1      73.758  49.479  13.442  1.00 63.44 LIG 0.28  HD
ATOM     10 H3   ALA B   1      74.465  49.561  14.708  1.00 63.44 LIG 0.28  HD
ATOM     11 H1   ALA B   1      75.210  49.420  13.468  1.00 63.44 LIG 0.28  HD
ENDBRANCH 6 8
ENDBRANCH 3 6
ENDBRANCH 1 2
BRANCH 1 12
ATOM     12  C   ILE B   2      75.177  45.311  17.918  1.00 63.93 LIG 0.24  C 
ATOM     13  N   HIS B   3      76.097  44.380  17.695  1.00 63.34 LIG-0.34  N 
ATOM     14 H    HIS B   3      76.870  44.537  17.351  1.00 63.34 LIG 0.16  HD
ATOM     15 O    ILE B   2      74.076  45.062  18.413  1.00 63.64 LIG-0.27  OA
BRANCH 13 16
ATOM     16  CA  HIS B   3      75.854  42.983  18.029  1.00 63.18 LIG 0.19  C 
BRANCH 16 17
ATOM     17  CB  HIS B   3      75.855  42.125  16.761  1.00 62.24 LIG 0.10  C 
BRANCH 17 18
ATOM     18  CG  HIS B   3      75.437  42.865  15.528  1.00 63.21 LIG 0.06  A 
ATOM     19  CD2 HIS B   3      76.111  43.733  14.736  1.00 62.69 LIG 0.14  A 
ATOM     20 NE2  HIS B   3      75.254  44.119  13.735  1.00 63.05 LIG-0.25  NA
ATOM     21  CE1 HIS B   3      74.094  43.508  13.903  1.00 63.79 LIG 0.23  A 
ATOM     22 ND1  HIS B   3      74.178  42.745  14.978  1.00 63.44 LIG-0.24  NA
ENDBRANCH 17 18
ENDBRANCH 16 17
BRANCH 16 23
ATOM     23  C   HIS B   3      76.928  42.483  18.988  1.00 63.55 LIG 0.20  C 
ATOM     24 OXT  HIS B   3      77.590  43.328  19.623  1.00 62.89 LIG-0.65  OA
ATOM     25 O    HIS B   3      77.090  41.248  19.096  1.00 64.85 LIG-0.65  OA
ENDBRANCH 16 23
ENDBRANCH 13 16
ENDBRANCH 1 12
BRANCH 1 26
ATOM     26  CB  ILE B   2      75.319  47.659  18.741  1.00 64.73 LIG 0.01  C 
ATOM     27  CG2 ILE B   2      75.612  46.905  20.036  1.00 64.62 LIG 0.01  C 
BRANCH 26 28
ATOM     28  CG1 ILE B   2      76.204  48.901  18.623  1.00 64.82 LIG 0.00  C 
ATOM     29  CD1 ILE B   2      75.590  50.020  17.814  1.00 66.82 LIG 0.01  C 
ENDBRANCH 26 28
ENDBRANCH 1 26
TORSDOF 10
ENDMDL
MODEL 6
USER: ADFR SOLUTION from run 124
USER: SCORE 11.229891 LL:  -2.252 LR:  -9.120 RR:   0.000 FEB:  -6.137
USER: RMSD 1.941907
USER: SEED 123
USER: STATUS no improvement in best in 3 clusters for 5 generations
USER: GENES 12
USER: genes 0 Translation |==|  0.49318 0.49505 0.60458
USER: genes 1 Rotation |==|  0.53907 0.40940 0.52202 0.98967
USER: genes 2 Torsion [C]-CA--N-[C] |==|  0.69714
USER: genes 3 Torsion [N]-C--CA-[N] |==|  0.87462
USER: genes 4 Torsion [C]-CA--N-[H2] |==|  0.65511
USER: genes 5 Torsion [N]-CA--C-[N] |==|  0.38871
USER: genes 6 Torsion [C]-N--CA-[CB] |==|  0.26864
USER: genes 7 Torsion [N]-CA--CB-[CG] |==|  0.81175
USER: genes 8 Torsion [CA]-CB--CG-[CD2] |==|  0.74572
USER: genes 9 Torsion [N]-CA--C-[OXT] |==|  0.06159
USER: genes 10 Torsion [N]-CA--CB-[CG2] |==|  0.92974
USER: genes 11 Torsion [CA]-CB--CG1-[CD1] |==|  0.30433
ROOT
ATOM      1  CA  ILE B   2      75.888  46.468  18.497  1.00 64.17 LIG 0.18  C 
ENDROOT
BRANCH 1 2
ATOM      2  N   ILE B   2      75.353  47.505  17.624  1.00 64.56 LIG-0.35  N 
ATOM      3  C   ALA B   1      76.116  48.137  16.736  1.00 64.53 LIG 0.25  C 
ATOM      4 O    ALA B   1      77.313  47.887  16.584  1.00 64.21 LIG-0.27  OA
ATOM      5 H    ILE B   2      74.516  47.665  17.736  1.00 64.56 LIG 0.16  HD
BRANCH 3 6
ATOM      6  CA  ALA B   1      75.420  49.204  15.891  1.00 64.34 LIG 0.27  C 
ATOM      7  CB  ALA B   1      75.226  50.476  16.710  1.00 65.15 LIG 0.05  C 
BRANCH 6 8
ATOM      8  N   ALA B   1      74.104  48.728  15.375  1.00 63.44 LIG-0.07  N 
ATOM      9 H2   ALA B   1      74.089  48.800  14.488  1.00 63.44 LIG 0.28  HD
ATOM     10 H3   ALA B   1      73.986  47.876  15.605  1.00 63.44 LIG 0.28  HD
ATOM     11 H1   ALA B   1      73.452  49.222  15.725  1.00 63.44 LIG 0.28  HD
ENDBRANCH 6 8
ENDBRANCH 3 6
ENDBRANCH 1 2
BRANCH 1 12
ATOM     12  C   ILE B   2      75.374  45.087  18.103  1.00 63.93 LIG 0.24  C 
ATOM     13  N   HIS B   3      76.256  44.095  18.160  1.00 63.34 LIG-0.34  N 
ATOM     14 H    HIS B   3      77.077  44.192  18.399  1.00 63.34 LIG 0.16  HD
ATOM     15 O    ILE B   2      74.202  44.924  17.757  1.00 63.64 LIG-0.27  OA
BRANCH 13 16
ATOM     16  CA  HIS B   3      75.882  42.732  17.810  1.00 63.18 LIG 0.19  C 
BRANCH 16 17
ATOM     17  CB  HIS B   3      76.267  42.430  16.359  1.00 62.24 LIG 0.10  C 
BRANCH 17 18
ATOM     18  CG  HIS B   3      75.475  43.201  15.348  1.00 63.21 LIG 0.06  A 
ATOM     19  CD2 HIS B   3      74.325  42.900  14.698  1.00 62.69 LIG 0.14  A 
ATOM     20 NE2  HIS B   3      74.034  43.962  13.877  1.00 63.05 LIG-0.25  NA
ATOM     21  CE1 HIS B   3      74.970  44.884  14.019  1.00 63.79 LIG 0.23  A 
ATOM     22 ND1  HIS B   3      75.852  44.449  14.901  1.00 63.44 LIG-0.24  NA
ENDBRANCH 17 18
ENDBRANCH 16 17
BRANCH 16 23
ATOM     23  C   HIS B   3      76.577  41.746  18.741  1.00 63.55 LIG 0.20  C 
ATOM     24 OXT  HIS B   3      76.972  42.161  19.849  1.00 62.89 LIG-0.65  OA
ATOM     25 O    HIS B   3      76.715  40.566  18.351  1.00 64.85 LIG-0.65  OA
ENDBRANCH 16 23
ENDBRANCH 13 16
ENDBRANCH 1 12
BRANCH 1 26
ATOM     26  CB  ILE B   2      75.510  46.734  19.968  1.00 64.73 LIG 0.01  C 
ATOM     27  CG2 ILE B   2      75.263  48.224  20.185  1.00 64.62 LIG 0.01  C 
BRANCH 26 28
ATOM     28  CG1 ILE B   2      74.270  45.918  20.336  1.00 64.82 LIG 0.00  C 
ATOM     29  CD1 ILE B   2      74.544  44.775  21.287  1.00 66.82 LIG 0.01  C 
ENDBRANCH 26 28
ENDBRANCH 1 26
TORSDOF 10
ENDMDL
MODEL 7
USER: ADFR SOLUTION from run 55
USER: SCORE 10.492731 LL:  -1.814 LR:  -9.024 RR:   0.000 FEB:  -6.041
USER: RMSD 5.706143
USER: SEED 54
USER: STATUS no improvement in best in 7 clusters for 5 generations
USER: GENES 12
USER: genes 0 Translation |==|  0.51161 0.36433 0.49433
USER: genes 1 Rotation |==|  0.55079 0.91158 0.22309 0.53663
USER: genes 2 Torsion [C]-CA--N-[C] |==|  0.69445
USER: genes 3 Torsion [N]-C--CA-[N] |==|  0.81895
USER: genes 4 Torsion [C]-CA--N-[H2] |==|  0.39492
USER: genes 5 Torsion [N]-CA--C-[N] |==|  0.88718
USER: genes 6 Torsion [C]-N--CA-[CB] |==|  0.87007
USER: genes 7 Torsion [N]-CA--CB-[CG] |==|  0.33371
USER: genes 8 Torsion [CA]-CB--CG-[CD2] |==|  0.71723
USER: genes 9 Torsion [N]-CA--C-[OXT] |==|  0.90697
USER: genes 10 Torsion [N]-CA--CB-[CG2] |==|  0.38438
USER: genes 11 Torsion [CA]-CB--CG1-[CD1] |==|  0.18616
ROOT
ATOM      1  CA  ILE B   2      76.096  44.017  16.761  1.00 64.17 LIG 0.18  C 
ENDROOT
BRANCH 1 2
ATOM      2  N   ILE B   2      77.058  45.040  16.372  1.00 64.56 LIG-0.35  N 
ATOM      3  C   ALA B   1      76.734  46.329  16.333  1.00 64.53 LIG 0.25  C 
ATOM      4 O    ALA B   1      75.612  46.747  16.627  1.00 64.21 LIG-0.27  OA
ATOM      5 H    ILE B   2      77.838  44.736  16.175  1.00 64.56 LIG 0.16  HD
BRANCH 3 6
ATOM      6  CA  ALA B   1      77.844  47.289  15.903  1.00 64.34 LIG 0.27  C 
ATOM      7  CB  ALA B   1      78.370  46.898  14.526  1.00 65.15 LIG 0.05  C 
BRANCH 6 8
ATOM      8  N   ALA B   1      78.965  47.311  16.887  1.00 63.44 LIG-0.07  N 
ATOM      9 H2   ALA B   1      79.739  47.377  16.453  1.00 63.44 LIG 0.28  HD
ATOM     10 H3   ALA B   1      78.869  48.009  17.430  1.00 63.44 LIG 0.28  HD
ATOM     11 H1   ALA B   1      78.955  46.560  17.365  1.00 63.44 LIG 0.28  HD
ENDBRANCH 6 8
ENDBRANCH 3 6
ENDBRANCH 1 2
BRANCH 1 12
ATOM     12  C   ILE B   2      76.439  43.416  18.120  1.00 63.93 LIG 0.24  C 
ATOM     13  N   HIS B   3      77.727  43.186  18.351  1.00 63.34 LIG-0.34  N 
ATOM     14 H    HIS B   3      78.356  43.354  17.789  1.00 63.34 LIG 0.16  HD
ATOM     15 O    ILE B   2      75.555  43.168  18.943  1.00 63.64 LIG-0.27  OA
BRANCH 13 16
ATOM     16  CA  HIS B   3      78.177  42.617  19.614  1.00 63.18 LIG 0.19  C 
BRANCH 16 17
ATOM     17  CB  HIS B   3      77.512  43.338  20.789  1.00 62.24 LIG 0.10  C 
BRANCH 17 18
ATOM     18  CG  HIS B   3      76.692  42.441  21.665  1.00 63.21 LIG 0.06  A 
ATOM     19  CD2 HIS B   3      75.352  42.250  21.742  1.00 62.69 LIG 0.14  A 
ATOM     20 NE2  HIS B   3      75.132  41.311  22.720  1.00 63.05 LIG-0.25  NA
ATOM     21  CE1 HIS B   3      76.294  40.936  23.225  1.00 63.79 LIG 0.23  A 
ATOM     22 ND1  HIS B   3      77.252  41.603  22.605  1.00 63.44 LIG-0.24  NA
ENDBRANCH 17 18
ENDBRANCH 16 17
BRANCH 16 23
ATOM     23  C   HIS B   3      77.841  41.132  19.665  1.00 63.55 LIG 0.20  C 
ATOM     24 OXT  HIS B   3      76.799  40.744  19.100  1.00 62.89 LIG-0.65  OA
ATOM     25 O    HIS B   3      78.630  40.371  20.267  1.00 64.85 LIG-0.65  OA
ENDBRANCH 16 23
ENDBRANCH 13 16
ENDBRANCH 1 12
BRANCH 1 26
ATOM     26  CB  ILE B   2      76.043  42.882  15.719  1.00 64.73 LIG 0.01  C 
ATOM     27  CG2 ILE B   2      75.965  41.529  16.422  1.00 64.62 LIG 0.01  C 
BRANCH 26 28
ATOM     28  CG1 ILE B   2      74.840  43.085  14.796  1.00 64.82 LIG 0.00  C 
ATOM     29  CD1 ILE B   2      74.944  44.304  13.907  1.00 66.82 LIG 0.01  C 
ENDBRANCH 26 28
ENDBRANCH 1 26
TORSDOF 10
ENDMDL
MODEL 8
USER: ADFR SOLUTION from run 20
USER: SCORE 10.535503 LL:  -2.142 LR:  -9.012 RR:   0.000 FEB:  -6.029
USER: RMSD 4.844419
USER: SEED 19
USER: STATUS no improvement in best in 6 clusters for 5 generations
USER: GENES 12
USER: genes 0 Translation |==|  0.40013 0.41908 0.51808
USER: genes 1 Rotation |==|  0.35867 0.78483 0.25330 0.79671
USER: genes 2 Torsion [C]-CA--N-[C] |==|  0.50105
USER: genes 3 Torsion [N]-C--CA-[N] |==|  0.10586
USER: genes 4 Torsion [C]-CA--N-[H2] |==|  0.48263
USER: genes 5 Torsion [N]-CA--C-[N] |==|  0.50416
USER: genes 6 Torsion [C]-N--CA-[CB] |==|  0.45062
USER: genes 7 Torsion [N]-CA--CB-[CG] |==|  0.11299
USER: genes 8 Torsion [CA]-CB--CG-[CD2] |==|  0.78217
USER: genes 9 Torsion [N]-CA--C-[OXT] |==|  0.60533
USER: genes 10 Torsion [N]-CA--CB-[CG2] |==|  0.25535
USER: genes 11 Torsion [CA]-CB--CG1-[CD1] |==|  0.09858
ROOT
ATOM      1  CA  ILE B   2      74.841  45.044  17.135  1.00 64.17 LIG 0.18  C 
ENDROOT
BRANCH 1 2
ATOM      2  N   ILE B   2      74.439  46.248  16.419  1.00 64.56 LIG-0.35  N 
ATOM      3  C   ALA B   1      74.532  46.341  15.096  1.00 64.53 LIG 0.25  C 
ATOM      4 O    ALA B   1      74.952  45.423  14.387  1.00 64.21 LIG-0.27  OA
ATOM      5 H    ILE B   2      74.143  46.878  16.924  1.00 64.56 LIG 0.16  HD
BRANCH 3 6
ATOM      6  CA  ALA B   1      74.078  47.665  14.481  1.00 64.34 LIG 0.27  C 
ATOM      7  CB  ALA B   1      74.668  47.825  13.084  1.00 65.15 LIG 0.05  C 
BRANCH 6 8
ATOM      8  N   ALA B   1      74.465  48.828  15.331  1.00 63.44 LIG-0.07  N 
ATOM      9 H2   ALA B   1      74.269  49.585  14.906  1.00 63.44 LIG 0.28  HD
ATOM     10 H3   ALA B   1      74.018  48.796  16.100  1.00 63.44 LIG 0.28  HD
ATOM     11 H1   ALA B   1      75.339  48.798  15.495  1.00 63.44 LIG 0.28  HD
ENDBRANCH 6 8
ENDBRANCH 3 6
ENDBRANCH 1 2
BRANCH 1 12
ATOM     12  C   ILE B   2      74.627  45.191  18.638  1.00 63.93 LIG 0.24  C 
ATOM     13  N   HIS B   3      74.992  44.155  19.386  1.00 63.34 LIG-0.34  N 
ATOM     14 H    HIS B   3      75.332  43.430  19.073  1.00 63.34 LIG 0.16  HD
ATOM     15 O    ILE B   2      74.142  46.221  19.109  1.00 63.64 LIG-0.27  OA
BRANCH 13 16
ATOM     16  CA  HIS B   3      74.839  44.179  20.834  1.00 63.18 LIG 0.19  C 
BRANCH 16 17
ATOM     17  CB  HIS B   3      74.908  42.758  21.400  1.00 62.24 LIG 0.10  C 
BRANCH 17 18
ATOM     18  CG  HIS B   3      75.954  41.900  20.757  1.00 63.21 LIG 0.06  A 
ATOM     19  CD2 HIS B   3      75.965  41.241  19.573  1.00 62.69 LIG 0.14  A 
ATOM     20 NE2  HIS B   3      77.177  40.603  19.475  1.00 63.05 LIG-0.25  NA
ATOM     21  CE1 HIS B   3      77.887  40.860  20.559  1.00 63.79 LIG 0.23  A 
ATOM     22 ND1  HIS B   3      77.172  41.641  21.349  1.00 63.44 LIG-0.24  NA
ENDBRANCH 17 18
ENDBRANCH 16 17
BRANCH 16 23
ATOM     23  C   HIS B   3      75.933  45.035  21.460  1.00 63.55 LIG 0.20  C 
ATOM     24 OXT  HIS B   3      76.430  44.659  22.540  1.00 62.89 LIG-0.65  OA
ATOM     25 O    HIS B   3      76.286  46.071  20.856  1.00 64.85 LIG-0.65  OA
ENDBRANCH 16 23
ENDBRANCH 13 16
ENDBRANCH 1 12
BRANCH 1 26
ATOM     26  CB  ILE B   2      76.326  44.718  16.879  1.00 64.73 LIG 0.01  C 
ATOM     27  CG2 ILE B   2      77.198  45.365  17.952  1.00 64.62 LIG 0.01  C 
BRANCH 26 28
ATOM     28  CG1 ILE B   2      76.524  43.201  16.859  1.00 64.82 LIG 0.00  C 
ATOM     29  CD1 ILE B   2      75.369  42.436  16.256  1.00 66.82 LIG 0.01  C 
ENDBRANCH 26 28
ENDBRANCH 1 26
TORSDOF 10
ENDMDL
MODEL 9
USER: ADFR SOLUTION from run 94
USER: SCORE 11.016531 LL:  -2.139 LR:  -8.978 RR:   0.000 FEB:  -5.995
USER: RMSD 3.251023
USER: SEED 93
USER: STATUS no improvement in best in 3 clusters for 5 generations
USER: GENES 12
USER: genes 0 Translation |==|  0.46099 0.62147 0.42503
USER: genes 1 Rotation |==|  0.38246 0.49799 0.64367 0.96426
USER: genes 2 Torsion [C]-CA--N-[C] |==|  0.79005
USER: genes 3 Torsion [N]-C--CA-[N] |==|  0.13103
USER: genes 4 Torsion [C]-CA--N-[H2] |==|  0.62135
USER: genes 5 Torsion [N]-CA--C-[N] |==|  0.88606
USER: genes 6 Torsion [C]-N--CA-[CB] |==|  0.85582
USER: genes 7 Torsion [N]-CA--CB-[CG] |==|  0.81009
USER: genes 8 Torsion [CA]-CB--CG-[CD2] |==|  0.69745
USER: genes 9 Torsion [N]-CA--C-[OXT] |==|  0.75251
USER: genes 10 Torsion [N]-CA--CB-[CG2] |==|  0.41160
USER: genes 11 Torsion [CA]-CB--CG1-[CD1] |==|  0.28592
ROOT
ATOM      1  CA  ILE B   2      75.526  48.838  15.669  1.00 64.17 LIG 0.18  C 
ENDROOT
BRANCH 1 2
ATOM      2  N   ILE B   2      74.498  48.787  14.637  1.00 64.56 LIG-0.35  N 
ATOM      3  C   ALA B   1      74.700  48.168  13.477  1.00 64.53 LIG 0.25  C 
ATOM      4 O    ALA B   1      75.754  47.593  13.199  1.00 64.21 LIG-0.27  OA
ATOM      5 H    ILE B   2      73.766  49.186  14.846  1.00 64.56 LIG 0.16  HD
BRANCH 3 6
ATOM      6  CA  ALA B   1      73.535  48.198  12.488  1.00 64.34 LIG 0.27  C 
ATOM      7  CB  ALA B   1      73.990  47.686  11.126  1.00 65.15 LIG 0.05  C 
BRANCH 6 8
ATOM      8  N   ALA B   1      72.965  49.570  12.350  1.00 63.44 LIG-0.07  N 
ATOM      9 H2   ALA B   1      72.076  49.524  12.354  1.00 63.44 LIG 0.28  HD
ATOM     10 H3   ALA B   1      73.239  50.075  13.029  1.00 63.44 LIG 0.28  HD
ATOM     11 H1   ALA B   1      73.240  49.929  11.583  1.00 63.44 LIG 0.28  HD
ENDBRANCH 6 8
ENDBRANCH 3 6
ENDBRANCH 1 2
BRANCH 1 12
ATOM     12  C   ILE B   2      75.654  47.504  16.397  1.00 63.93 LIG 0.24  C 
ATOM     13  N   HIS B   3      74.516  46.880  16.681  1.00 63.34 LIG-0.34  N 
ATOM     14 H    HIS B   3      73.736  47.184  16.483  1.00 63.34 LIG 0.16  HD
ATOM     15 O    ILE B   2      76.760  47.048  16.691  1.00 63.64 LIG-0.27  OA
BRANCH 13 16
ATOM     16  CA  HIS B   3      74.510  45.597  17.371  1.00 63.18 LIG 0.19  C 
BRANCH 16 17
ATOM     17  CB  HIS B   3      75.437  44.607  16.661  1.00 62.24 LIG 0.10  C 
BRANCH 17 18
ATOM     18  CG  HIS B   3      74.950  44.182  15.310  1.00 63.21 LIG 0.06  A 
ATOM     19  CD2 HIS B   3      74.450  43.001  14.873  1.00 62.69 LIG 0.14  A 
ATOM     20 NE2  HIS B   3      74.158  43.153  13.540  1.00 63.05 LIG-0.25  NA
ATOM     21  CE1 HIS B   3      74.465  44.383  13.170  1.00 63.79 LIG 0.23  A 
ATOM     22 ND1  HIS B   3      74.945  45.026  14.220  1.00 63.44 LIG-0.24  NA
ENDBRANCH 17 18
ENDBRANCH 16 17
BRANCH 16 23
ATOM     23  C   HIS B   3      74.963  45.781  18.814  1.00 63.55 LIG 0.20  C 
ATOM     24 OXT  HIS B   3      76.182  45.699  19.064  1.00 62.89 LIG-0.65  OA
ATOM     25 O    HIS B   3      74.090  46.009  19.680  1.00 64.85 LIG-0.65  OA
ENDBRANCH 16 23
ENDBRANCH 13 16
ENDBRANCH 1 12
BRANCH 1 26
ATOM     26  CB  ILE B   2      75.215  49.937  16.706  1.00 64.73 LIG 0.01  C 
ATOM     27  CG2 ILE B   2      75.735  49.523  18.080  1.00 64.62 LIG 0.01  C 
BRANCH 26 28
ATOM     28  CG1 ILE B   2      75.846  51.258  16.261  1.00 64.82 LIG 0.00  C 
ATOM     29  CD1 ILE B   2      74.863  52.240  15.666  1.00 66.82 LIG 0.01  C 
ENDBRANCH 26 28
ENDBRANCH 1 26
TORSDOF 10
ENDMDL
MODEL 10
USER: ADFR SOLUTION from run 189
USER: SCORE 10.506872 LL:  -1.691 LR:  -8.938 RR:   0.000 FEB:  -5.955
USER: RMSD 4.253009
USER: SEED 188
USER: STATUS no improvement in best in 8 clusters for 5 generations
USER: GENES 12
USER: genes 0 Translation |==|  0.45533 0.55456 0.40148
USER: genes 1 Rotation |==|  0.34770 0.57314 0.50253 0.97058
USER: genes 2 Torsion [C]-CA--N-[C] |==|  0.69173
USER: genes 3 Torsion [N]-C--CA-[N] |==|  0.13845
USER: genes 4 Torsion [C]-CA--N-[H2] |==|  0.27129
USER: genes 5 Torsion [N]-CA--C-[N] |==|  0.41628
USER: genes 6 Torsion [C]-N--CA-[CB] |==|  0.49040
USER: genes 7 Torsion [N]-CA--CB-[CG] |==|  0.51116
USER: genes 8 Torsion [CA]-CB--CG-[CD2] |==|  0.86369
USER: genes 9 Torsion [N]-CA--C-[OXT] |==|  0.77808
USER: genes 10 Torsion [N]-CA--CB-[CG2] |==|  0.00973
USER: genes 11 Torsion [CA]-CB--CG1-[CD1] |==|  0.59251
ROOT
ATOM      1  CA  ILE B   2      75.462  47.584  15.298  1.00 64.17 LIG 0.18  C 
ENDROOT
BRANCH 1 2
ATOM      2  N   ILE B   2      74.430  47.971  14.345  1.00 64.56 LIG-0.35  N 
ATOM      3  C   ALA B   1      74.491  47.620  13.064  1.00 64.53 LIG 0.25  C 
ATOM      4 O    ALA B   1      75.410  46.943  12.598  1.00 64.21 LIG-0.27  OA
ATOM      5 H    ILE B   2      73.792  48.437  14.684  1.00 64.56 LIG 0.16  HD
BRANCH 3 6
ATOM      6  CA  ALA B   1      73.340  48.101  12.180  1.00 64.34 LIG 0.27  C 
ATOM      7  CB  ALA B   1      73.639  47.793  10.717  1.00 65.15 LIG 0.05  C 
BRANCH 6 8
ATOM      8  N   ALA B   1      73.087  49.561  12.350  1.00 63.44 LIG-0.07  N 
ATOM      9 H2   ALA B   1      73.492  50.010  11.697  1.00 63.44 LIG 0.28  HD
ATOM     10 H3   ALA B   1      72.212  49.716  12.318  1.00 63.44 LIG 0.28  HD
ATOM     11 H1   ALA B   1      73.406  49.827  13.137  1.00 63.44 LIG 0.28  HD
ENDBRANCH 6 8
ENDBRANCH 3 6
ENDBRANCH 1 2
BRANCH 1 12
ATOM     12  C   ILE B   2      74.938  46.565  16.306  1.00 63.93 LIG 0.24  C 
ATOM     13  N   HIS B   3      75.829  45.705  16.786  1.00 63.34 LIG-0.34  N 
ATOM     14 H    HIS B   3      76.660  45.694  16.563  1.00 63.34 LIG 0.16  HD
ATOM     15 O    ILE B   2      73.753  46.561  16.641  1.00 63.64 LIG-0.27  OA
BRANCH 13 16
ATOM     16  CA  HIS B   3      75.448  44.687  17.757  1.00 63.18 LIG 0.19  C 
BRANCH 16 17
ATOM     17  CB  HIS B   3      76.642  43.782  18.074  1.00 62.24 LIG 0.10  C 
BRANCH 17 18
ATOM     18  CG  HIS B   3      76.314  42.647  18.994  1.00 63.21 LIG 0.06  A 
ATOM     19  CD2 HIS B   3      75.658  42.618  20.179  1.00 62.69 LIG 0.14  A 
ATOM     20 NE2  HIS B   3      75.637  41.311  20.600  1.00 63.05 LIG-0.25  NA
ATOM     21  CE1 HIS B   3      76.257  40.562  19.706  1.00 63.79 LIG 0.23  A 
ATOM     22 ND1  HIS B   3      76.675  41.343  18.726  1.00 63.44 LIG-0.24  NA
ENDBRANCH 17 18
ENDBRANCH 16 17
BRANCH 16 23
ATOM     23  C   HIS B   3      74.951  45.349  19.036  1.00 63.55 LIG 0.20  C 
ATOM     24 OXT  HIS B   3      75.797  45.776  19.846  1.00 62.89 LIG-0.65  OA
ATOM     25 O    HIS B   3      73.715  45.436  19.210  1.00 64.85 LIG-0.65  OA
ENDBRANCH 16 23
ENDBRANCH 13 16
ENDBRANCH 1 12
BRANCH 1 26
ATOM     26  CB  ILE B   2      75.993  48.810  16.068  1.00 64.73 LIG 0.01  C 
ATOM     27  CG2 ILE B   2      75.215  50.060  15.663  1.00 64.62 LIG 0.01  C 
BRANCH 26 28
ATOM     28  CG1 ILE B   2      75.878  48.562  17.573  1.00 64.82 LIG 0.00  C 
ATOM     29  CD1 ILE B   2      75.590  49.806  18.382  1.00 66.82 LIG 0.01  C 
ENDBRANCH 26 28
ENDBRANCH 1 26
TORSDOF 10
ENDMDL
MODEL 11
USER: ADFR SOLUTION from run 37
USER: SCORE 10.659191 LL:  -1.910 LR:  -8.886 RR:   0.000 FEB:  -5.903
USER: RMSD 3.788102
USER: SEED 36
USER: STATUS no improvement in best in 5 clusters for 5 generations
USER: GENES 12
USER: genes 0 Translation |==|  0.52902 0.50079 0.57334
USER: genes 1 Rotation |==|  0.61670 0.37234 0.53582 0.96776
USER: genes 2 Torsion [C]-CA--N-[C] |==|  0.70904
USER: genes 3 Torsion [N]-C--CA-[N] |==|  0.90966
USER: genes 4 Torsion [C]-CA--N-[H2] |==|  0.03768
USER: genes 5 Torsion [N]-CA--C-[N] |==|  0.36528
USER: genes 6 Torsion [C]-N--CA-[CB] |==|  0.82311
USER: genes 7 Torsion [N]-CA--CB-[CG] |==|  0.84664
USER: genes 8 Torsion [CA]-CB--CG-[CD2] |==|  0.12695
USER: genes 9 Torsion [N]-CA--C-[OXT] |==|  0.68424
USER: genes 10 Torsion [N]-CA--CB-[CG2] |==|  0.91917
USER: genes 11 Torsion [CA]-CB--CG1-[CD1] |==|  0.45115
ROOT
ATOM      1  CA  ILE B   2      76.291  46.576  18.005  1.00 64.17 LIG 0.18  C 
ENDROOT
BRANCH 1 2
ATOM      2  N   ILE B   2      75.753  47.788  17.401  1.00 64.56 LIG-0.35  N 
ATOM      3  C   ALA B   1      76.536  48.681  16.803  1.00 64.53 LIG 0.25  C 
ATOM      4 O    ALA B   1      77.758  48.545  16.710  1.00 64.21 LIG-0.27  OA
ATOM      5 H    ILE B   2      74.899  47.867  17.467  1.00 64.56 LIG 0.16  HD
BRANCH 3 6
ATOM      6  CA  ALA B   1      75.833  49.906  16.217  1.00 64.34 LIG 0.27  C 
ATOM      7  CB  ALA B   1      75.754  51.013  17.262  1.00 65.15 LIG 0.05  C 
BRANCH 6 8
ATOM      8  N   ALA B   1      74.465  49.574  15.725  1.00 63.44 LIG-0.07  N 
ATOM      9 H2   ALA B   1      74.225  48.774  16.033  1.00 63.44 LIG 0.28  HD
ATOM     10 H3   ALA B   1      73.889  50.188  16.013  1.00 63.44 LIG 0.28  HD
ATOM     11 H1   ALA B   1      74.465  49.561  14.835  1.00 63.44 LIG 0.28  HD
ENDBRANCH 6 8
ENDBRANCH 3 6
ENDBRANCH 1 2
BRANCH 1 12
ATOM     12  C   ILE B   2      76.010  45.350  17.142  1.00 63.93 LIG 0.24  C 
ATOM     13  N   HIS B   3      77.044  44.549  16.906  1.00 63.34 LIG-0.34  N 
ATOM     14 H    HIS B   3      77.839  44.686  17.206  1.00 63.34 LIG 0.16  HD
ATOM     15 O    ILE B   2      74.880  45.132  16.702  1.00 63.64 LIG-0.27  OA
BRANCH 13 16
ATOM     16  CA  HIS B   3      76.898  43.346  16.098  1.00 63.18 LIG 0.19  C 
BRANCH 16 17
ATOM     17  CB  HIS B   3      75.945  42.360  16.779  1.00 62.24 LIG 0.10  C 
BRANCH 17 18
ATOM     18  CG  HIS B   3      76.340  42.004  18.179  1.00 63.21 LIG 0.06  A 
ATOM     19  CD2 HIS B   3      76.747  42.776  19.216  1.00 62.69 LIG 0.14  A 
ATOM     20 NE2  HIS B   3      76.984  41.937  20.277  1.00 63.05 LIG-0.25  NA
ATOM     21  CE1 HIS B   3      76.731  40.694  19.908  1.00 63.79 LIG 0.23  A 
ATOM     22 ND1  HIS B   3      76.340  40.706  18.646  1.00 63.44 LIG-0.24  NA
ENDBRANCH 17 18
ENDBRANCH 16 17
BRANCH 16 23
ATOM     23  C   HIS B   3      76.363  43.708  14.718  1.00 63.55 LIG 0.20  C 
ATOM     24 OXT  HIS B   3      75.223  43.310  14.406  1.00 62.89 LIG-0.65  OA
ATOM     25 O    HIS B   3      77.091  44.392  13.966  1.00 64.85 LIG-0.65  OA
ENDBRANCH 16 23
ENDBRANCH 13 16
ENDBRANCH 1 12
BRANCH 1 26
ATOM     26  CB  ILE B   2      75.691  46.341  19.405  1.00 64.73 LIG 0.01  C 
ATOM     27  CG2 ILE B   2      75.320  47.676  20.046  1.00 64.62 LIG 0.01  C 
BRANCH 26 28
ATOM     28  CG1 ILE B   2      74.465  45.433  19.294  1.00 64.82 LIG 0.00  C 
ATOM     29  CD1 ILE B   2      74.048  44.799  20.602  1.00 66.82 LIG 0.01  C 
ENDBRANCH 26 28
ENDBRANCH 1 26
TORSDOF 10
ENDMDL
MODEL 12
USER: ADFR SOLUTION from run 38
USER: SCORE 10.875583 LL:  -2.084 LR:  -8.869 RR:   0.000 FEB:  -5.886
USER: RMSD 3.106053
USER: SEED 37
USER: STATUS 1 or 2 clusters left
USER: GENES 12
USER: genes 0 Translation |==|  0.45706 0.51713 0.61336
USER: genes 1 Rotation |==|  0.36960 0.44871 0.54258 0.97807
USER: genes 2 Torsion [C]-CA--N-[C] |==|  0.75878
USER: genes 3 Torsion [N]-C--CA-[N] |==|  0.10826
USER: genes 4 Torsion [C]-CA--N-[H2] |==|  0.58567
USER: genes 5 Torsion [N]-CA--C-[N] |==|  0.38898
USER: genes 6 Torsion [C]-N--CA-[CB] |==|  0.33579
USER: genes 7 Torsion [N]-CA--CB-[CG] |==|  0.84106
USER: genes 8 Torsion [CA]-CB--CG-[CD2] |==|  0.03307
USER: genes 9 Torsion [N]-CA--C-[OXT] |==|  0.45669
USER: genes 10 Torsion [N]-CA--CB-[CG2] |==|  0.45567
USER: genes 11 Torsion [CA]-CB--CG1-[CD1] |==|  0.22067
ROOT
ATOM      1  CA  ILE B   2      75.482  46.882  18.635  1.00 64.17 LIG 0.18  C 
ENDROOT
BRANCH 1 2
ATOM      2  N   ILE B   2      74.841  47.154  17.355  1.00 64.56 LIG-0.35  N 
ATOM      3  C   ALA B   1      75.296  46.635  16.219  1.00 64.53 LIG 0.25  C 
ATOM      4 O    ALA B   1      76.276  45.889  16.168  1.00 64.21 LIG-0.27  OA
ATOM      5 H    ILE B   2      74.155  47.671  17.405  1.00 64.56 LIG 0.16  HD
BRANCH 3 6
ATOM      6  CA  ALA B   1      74.526  47.011  14.952  1.00 64.34 LIG 0.27  C 
ATOM      7  CB  ALA B   1      75.386  46.751  13.720  1.00 65.15 LIG 0.05  C 
BRANCH 6 8
ATOM      8  N   ALA B   1      74.090  48.437  14.975  1.00 63.44 LIG-0.07  N 
ATOM      9 H2   ALA B   1      73.328  48.522  14.523  1.00 63.44 LIG 0.28  HD
ATOM     10 H3   ALA B   1      73.965  48.695  15.817  1.00 63.44 LIG 0.28  HD
ATOM     11 H1   ALA B   1      74.717  48.945  14.599  1.00 63.44 LIG 0.28  HD
ENDBRANCH 6 8
ENDBRANCH 3 6
ENDBRANCH 1 2
BRANCH 1 12
ATOM     12  C   ILE B   2      74.942  45.604  19.269  1.00 63.93 LIG 0.24  C 
ATOM     13  N   HIS B   3      75.835  44.824  19.868  1.00 63.34 LIG-0.34  N 
ATOM     14 H    HIS B   3      76.676  45.000  19.913  1.00 63.34 LIG 0.16  HD
ATOM     15 O    ILE B   2      73.741  45.332  19.218  1.00 63.64 LIG-0.27  OA
BRANCH 13 16
ATOM     16  CA  HIS B   3      75.440  43.579  20.512  1.00 63.18 LIG 0.19  C 
BRANCH 16 17
ATOM     17  CB  HIS B   3      76.178  42.396  19.880  1.00 62.24 LIG 0.10  C 
BRANCH 17 18
ATOM     18  CG  HIS B   3      75.965  42.267  18.403  1.00 63.21 LIG 0.06  A 
ATOM     19  CD2 HIS B   3      75.417  43.118  17.502  1.00 62.69 LIG 0.14  A 
ATOM     20 NE2  HIS B   3      75.469  42.500  16.277  1.00 63.05 LIG-0.25  NA
ATOM     21  CE1 HIS B   3      76.031  41.312  16.417  1.00 63.79 LIG 0.23  A 
ATOM     22 ND1  HIS B   3      76.340  41.147  17.691  1.00 63.44 LIG-0.24  NA
ENDBRANCH 17 18
ENDBRANCH 16 17
BRANCH 16 23
ATOM     23  C   HIS B   3      75.751  43.642  22.002  1.00 63.55 LIG 0.20  C 
ATOM     24 OXT  HIS B   3      75.218  42.799  22.751  1.00 62.89 LIG-0.65  OA
ATOM     25 O    HIS B   3      76.531  44.533  22.403  1.00 64.85 LIG-0.65  OA
ENDBRANCH 16 23
ENDBRANCH 13 16
ENDBRANCH 1 12
BRANCH 1 26
ATOM     26  CB  ILE B   2      75.268  48.049  19.620  1.00 64.73 LIG 0.01  C 
ATOM     27  CG2 ILE B   2      75.588  47.598  21.043  1.00 64.62 LIG 0.01  C 
BRANCH 26 28
ATOM     28  CG1 ILE B   2      76.148  49.233  19.215  1.00 64.82 LIG 0.00  C 
ATOM     29  CD1 ILE B   2      75.590  50.053  18.074  1.00 66.82 LIG 0.01  C 
ENDBRANCH 26 28
ENDBRANCH 1 26
TORSDOF 10
ENDMDL
MODEL 13
USER: ADFR SOLUTION from run 18
USER: SCORE 10.718372 LL:  -1.952 LR:  -8.826 RR:   0.000 FEB:  -5.843
USER: RMSD 4.542045
USER: SEED 17
USER: STATUS no improvement in best in 5 clusters for 5 generations
USER: GENES 12
USER: genes 0 Translation |==|  0.45711 0.49028 0.61613
USER: genes 1 Rotation |==|  0.41520 0.44052 0.54768 0.98682
USER: genes 2 Torsion [C]-CA--N-[C] |==|  0.77728
USER: genes 3 Torsion [N]-C--CA-[N] |==|  0.09222
USER: genes 4 Torsion [C]-CA--N-[H2] |==|  0.72039
USER: genes 5 Torsion [N]-CA--C-[N] |==|  0.38209
USER: genes 6 Torsion [C]-N--CA-[CB] |==|  0.39231
USER: genes 7 Torsion [N]-CA--CB-[CG] |==|  0.26747
USER: genes 8 Torsion [CA]-CB--CG-[CD2] |==|  0.81973
USER: genes 9 Torsion [N]-CA--C-[OXT] |==|  0.43239
USER: genes 10 Torsion [N]-CA--CB-[CG2] |==|  0.45132
USER: genes 11 Torsion [CA]-CB--CG1-[CD1] |==|  0.20608
ROOT
ATOM      1  CA  ILE B   2      75.483  46.379  18.679  1.00 64.17 LIG 0.18  C 
ENDROOT
BRANCH 1 2
ATOM      2  N   ILE B   2      74.833  46.853  17.463  1.00 64.56 LIG-0.35  N 
ATOM      3  C   ALA B   1      75.237  46.466  16.257  1.00 64.53 LIG 0.25  C 
ATOM      4 O    ALA B   1      76.171  45.681  16.082  1.00 64.21 LIG-0.27  OA
ATOM      5 H    ILE B   2      74.180  47.395  17.599  1.00 64.56 LIG 0.16  HD
BRANCH 3 6
ATOM      6  CA  ALA B   1      74.465  47.048  15.072  1.00 64.34 LIG 0.27  C 
ATOM      7  CB  ALA B   1      75.339  47.039  13.822  1.00 65.15 LIG 0.05  C 
BRANCH 6 8
ATOM      8  N   ALA B   1      73.992  48.435  15.350  1.00 63.44 LIG-0.07  N 
ATOM      9 H2   ALA B   1      73.131  48.416  15.574  1.00 63.44 LIG 0.28  HD
ATOM     10 H3   ALA B   1      74.465  48.781  16.020  1.00 63.44 LIG 0.28  HD
ATOM     11 H1   ALA B   1      74.099  48.937  14.622  1.00 63.44 LIG 0.28  HD
ENDBRANCH 6 8
ENDBRANCH 3 6
ENDBRANCH 1 2
BRANCH 1 12
ATOM     12  C   ILE B   2      74.998  44.984  19.062  1.00 63.93 LIG 0.24  C 
ATOM     13  N   HIS B   3      75.931  44.131  19.469  1.00 63.34 LIG-0.34  N 
ATOM     14 H    HIS B   3      76.768  44.321  19.524  1.00 63.34 LIG 0.16  HD
ATOM     15 O    ILE B   2      73.803  44.689  18.992  1.00 63.64 LIG-0.27  OA
BRANCH 13 16
ATOM     16  CA  HIS B   3      75.590  42.771  19.864  1.00 63.18 LIG 0.19  C 
BRANCH 16 17
ATOM     17  CB  HIS B   3      76.661  41.791  19.378  1.00 62.24 LIG 0.10  C 
BRANCH 17 18
ATOM     18  CG  HIS B   3      77.692  41.457  20.412  1.00 63.21 LIG 0.06  A 
ATOM     19  CD2 HIS B   3      78.624  42.225  21.025  1.00 62.69 LIG 0.14  A 
ATOM     20 NE2  HIS B   3      79.313  41.413  21.893  1.00 63.05 LIG-0.25  NA
ATOM     21  CE1 HIS B   3      78.821  40.189  21.818  1.00 63.79 LIG 0.23  A 
ATOM     22 ND1  HIS B   3      77.841  40.188  20.932  1.00 63.44 LIG-0.24  NA
ENDBRANCH 17 18
ENDBRANCH 16 17
BRANCH 16 23
ATOM     23  C   HIS B   3      75.466  42.685  21.380  1.00 63.55 LIG 0.20  C 
ATOM     24 OXT  HIS B   3      74.757  41.779  21.863  1.00 62.89 LIG-0.65  OA
ATOM     25 O    HIS B   3      76.085  43.525  22.069  1.00 64.85 LIG-0.65  OA
ENDBRANCH 16 23
ENDBRANCH 13 16
ENDBRANCH 1 12
BRANCH 1 26
ATOM     26  CB  ILE B   2      75.215  47.335  19.859  1.00 64.73 LIG 0.01  C 
ATOM     27  CG2 ILE B   2      75.513  46.632  21.181  1.00 64.62 LIG 0.01  C 
BRANCH 26 28
ATOM     28  CG1 ILE B   2      76.072  48.593  19.707  1.00 64.82 LIG 0.00  C 
ATOM     29  CD1 ILE B   2      75.587  49.543  18.635  1.00 66.82 LIG 0.01  C 
ENDBRANCH 26 28
ENDBRANCH 1 26
TORSDOF 10
ENDMDL
MODEL 14
USER: ADFR SOLUTION from run 61
USER: SCORE 10.342156 LL:  -1.911 LR:  -8.626 RR:   0.000 FEB:  -5.643
USER: RMSD 5.555482
USER: SEED 60
USER: STATUS no improvement in best in 7 clusters for 5 generations
USER: GENES 12
USER: genes 0 Translation |==|  0.45161 0.35329 0.51049
USER: genes 1 Rotation |==|  0.44204 0.91724 0.24619 0.59018
USER: genes 2 Torsion [C]-CA--N-[C] |==|  0.74962
USER: genes 3 Torsion [N]-C--CA-[N] |==|  0.33537
USER: genes 4 Torsion [C]-CA--N-[H2] |==|  0.35455
USER: genes 5 Torsion [N]-CA--C-[N] |==|  0.27596
USER: genes 6 Torsion [C]-N--CA-[CB] |==|  0.21520
USER: genes 7 Torsion [N]-CA--CB-[CG] |==|  0.72751
USER: genes 8 Torsion [CA]-CB--CG-[CD2] |==|  0.73600
USER: genes 9 Torsion [N]-CA--C-[OXT] |==|  0.80224
USER: genes 10 Torsion [N]-CA--CB-[CG2] |==|  0.44169
USER: genes 11 Torsion [CA]-CB--CG1-[CD1] |==|  0.19757
ROOT
ATOM      1  CA  ILE B   2      75.421  43.810  17.015  1.00 64.17 LIG 0.18  C 
ENDROOT
BRANCH 1 2
ATOM      2  N   ILE B   2      75.763  45.174  16.631  1.00 64.56 LIG-0.35  N 
ATOM      3  C   ALA B   1      75.032  46.215  17.018  1.00 64.53 LIG 0.25  C 
ATOM      4 O    ALA B   1      74.030  46.104  17.728  1.00 64.21 LIG-0.27  OA
ATOM      5 H    ILE B   2      76.467  45.238  16.142  1.00 64.56 LIG 0.16  HD
BRANCH 3 6
ATOM      6  CA  ALA B   1      75.508  47.586  16.536  1.00 64.34 LIG 0.27  C 
ATOM      7  CB  ALA B   1      75.897  48.455  17.728  1.00 65.15 LIG 0.05  C 
BRANCH 6 8
ATOM      8  N   ALA B   1      74.465  48.277  15.724  1.00 63.44 LIG-0.07  N 
ATOM      9 H2   ALA B   1      74.326  49.094  16.051  1.00 63.44 LIG 0.28  HD
ATOM     10 H3   ALA B   1      74.738  48.339  14.880  1.00 63.44 LIG 0.28  HD
ATOM     11 H1   ALA B   1      73.707  47.812  15.757  1.00 63.44 LIG 0.28  HD
ENDBRANCH 6 8
ENDBRANCH 3 6
ENDBRANCH 1 2
BRANCH 1 12
ATOM     12  C   ILE B   2      76.092  43.415  18.327  1.00 63.93 LIG 0.24  C 
ATOM     13  N   HIS B   3      75.337  43.490  19.417  1.00 63.34 LIG-0.34  N 
ATOM     14 H    HIS B   3      74.515  43.743  19.419  1.00 63.34 LIG 0.16  HD
ATOM     15 O    ILE B   2      77.268  43.048  18.349  1.00 63.64 LIG-0.27  OA
BRANCH 13 16
ATOM     16  CA  HIS B   3      75.865  43.135  20.728  1.00 63.18 LIG 0.19  C 
BRANCH 16 17
ATOM     17  CB  HIS B   3      76.744  44.266  21.270  1.00 62.24 LIG 0.10  C 
BRANCH 17 18
ATOM     18  CG  HIS B   3      78.211  44.050  21.055  1.00 63.21 LIG 0.06  A 
ATOM     19  CD2 HIS B   3      79.163  43.523  21.861  1.00 62.69 LIG 0.14  A 
ATOM     20 NE2  HIS B   3      80.349  43.563  21.169  1.00 63.05 LIG-0.25  NA
ATOM     21  CE1 HIS B   3      80.133  44.093  19.978  1.00 63.79 LIG 0.23  A 
ATOM     22 ND1  HIS B   3      78.850  44.396  19.883  1.00 63.44 LIG-0.24  NA
ENDBRANCH 17 18
ENDBRANCH 16 17
BRANCH 16 23
ATOM     23  C   HIS B   3      74.720  42.866  21.695  1.00 63.55 LIG 0.20  C 
ATOM     24 OXT  HIS B   3      74.038  43.835  22.086  1.00 62.89 LIG-0.65  OA
ATOM     25 O    HIS B   3      74.514  41.684  22.049  1.00 64.85 LIG-0.65  OA
ENDBRANCH 16 23
ENDBRANCH 13 16
ENDBRANCH 1 12
BRANCH 1 26
ATOM     26  CB  ILE B   2      75.842  42.806  15.924  1.00 64.73 LIG 0.01  C 
ATOM     27  CG2 ILE B   2      75.966  41.406  16.520  1.00 64.62 LIG 0.01  C 
BRANCH 26 28
ATOM     28  CG1 ILE B   2      74.819  42.823  14.786  1.00 64.82 LIG 0.00  C 
ATOM     29  CD1 ILE B   2      74.854  44.078  13.945  1.00 66.82 LIG 0.01  C 
ENDBRANCH 26 28
ENDBRANCH 1 26
TORSDOF 10
ENDMDL
MODEL 15
USER: ADFR SOLUTION from run 146
USER: SCORE 11.176839 LL:  -2.684 LR:  -8.600 RR:   0.000 FEB:  -5.617
USER: RMSD 5.191305
USER: SEED 145
USER: STATUS no improvement in best in 5 clusters for 5 generations
USER: GENES 12
USER: genes 0 Translation |==|  0.39673 0.40121 0.53490
USER: genes 1 Rotation |==|  0.60776 0.83660 0.16185 0.60363
USER: genes 2 Torsion [C]-CA--N-[C] |==|  0.83932
USER: genes 3 Torsion [N]-C--CA-[N] |==|  0.88521
USER: genes 4 Torsion [C]-CA--N-[H2] |==|  0.77722
USER: genes 5 Torsion [N]-CA--C-[N] |==|  0.86682
USER: genes 6 Torsion [C]-N--CA-[CB] |==|  0.26942
USER: genes 7 Torsion [N]-CA--CB-[CG] |==|  0.11770
USER: genes 8 Torsion [CA]-CB--CG-[CD2] |==|  0.71274
USER: genes 9 Torsion [N]-CA--C-[OXT] |==|  0.55000
USER: genes 10 Torsion [N]-CA--CB-[CG2] |==|  0.76829
USER: genes 11 Torsion [CA]-CB--CG1-[CD1] |==|  0.72484
ROOT
ATOM      1  CA  ILE B   2      74.803  44.709  17.400  1.00 64.17 LIG 0.18  C 
ENDROOT
BRANCH 1 2
ATOM      2  N   ILE B   2      75.981  45.488  17.039  1.00 64.56 LIG-0.35  N 
ATOM      3  C   ALA B   1      76.118  46.760  17.402  1.00 64.53 LIG 0.25  C 
ATOM      4 O    ALA B   1      75.273  47.362  18.068  1.00 64.21 LIG-0.27  OA
ATOM      5 H    ILE B   2      76.565  45.055  16.580  1.00 64.56 LIG 0.16  HD
BRANCH 3 6
ATOM      6  CA  ALA B   1      77.403  47.453  16.949  1.00 64.34 LIG 0.27  C 
ATOM      7  CB  ALA B   1      77.270  47.912  15.501  1.00 65.15 LIG 0.05  C 
BRANCH 6 8
ATOM      8  N   ALA B   1      78.590  46.561  17.091  1.00 63.44 LIG-0.07  N 
ATOM      9 H2   ALA B   1      78.861  46.561  17.939  1.00 63.44 LIG 0.28  HD
ATOM     10 H3   ALA B   1      78.369  45.733  16.850  1.00 63.44 LIG 0.28  HD
ATOM     11 H1   ALA B   1      79.247  46.856  16.569  1.00 63.44 LIG 0.28  HD
ENDBRANCH 6 8
ENDBRANCH 3 6
ENDBRANCH 1 2
BRANCH 1 12
ATOM     12  C   ILE B   2      74.606  44.663  18.912  1.00 63.93 LIG 0.24  C 
ATOM     13  N   HIS B   3      75.680  44.364  19.634  1.00 63.34 LIG-0.34  N 
ATOM     14 H    HIS B   3      76.455  44.198  19.301  1.00 63.34 LIG 0.16  HD
ATOM     15 O    ILE B   2      73.504  44.897  19.412  1.00 63.64 LIG-0.27  OA
BRANCH 13 16
ATOM     16  CA  HIS B   3      75.616  44.293  21.088  1.00 63.18 LIG 0.19  C 
BRANCH 16 17
ATOM     17  CB  HIS B   3      75.432  42.843  21.542  1.00 62.24 LIG 0.10  C 
BRANCH 17 18
ATOM     18  CG  HIS B   3      76.277  41.860  20.792  1.00 63.21 LIG 0.06  A 
ATOM     19  CD2 HIS B   3      75.965  40.982  19.808  1.00 62.69 LIG 0.14  A 
ATOM     20 NE2  HIS B   3      77.121  40.318  19.475  1.00 63.05 LIG-0.25  NA
ATOM     21  CE1 HIS B   3      78.109  40.773  20.225  1.00 63.79 LIG 0.23  A 
ATOM     22 ND1  HIS B   3      77.626  41.705  21.029  1.00 63.44 LIG-0.24  NA
ENDBRANCH 17 18
ENDBRANCH 16 17
BRANCH 16 23
ATOM     23  C   HIS B   3      76.893  44.862  21.693  1.00 63.55 LIG 0.20  C 
ATOM     24 OXT  HIS B   3      77.162  44.578  22.877  1.00 62.89 LIG-0.65  OA
ATOM     25 O    HIS B   3      77.615  45.584  20.970  1.00 64.85 LIG-0.65  OA
ENDBRANCH 16 23
ENDBRANCH 13 16
ENDBRANCH 1 12
BRANCH 1 26
ATOM     26  CB  ILE B   2      74.913  43.264  16.873  1.00 64.73 LIG 0.01  C 
ATOM     27  CG2 ILE B   2      74.465  43.202  15.415  1.00 64.62 LIG 0.01  C 
BRANCH 26 28
ATOM     28  CG1 ILE B   2      76.354  42.770  17.020  1.00 64.82 LIG 0.00  C 
ATOM     29  CD1 ILE B   2      77.167  42.856  15.749  1.00 66.82 LIG 0.01  C 
ENDBRANCH 26 28
ENDBRANCH 1 26
TORSDOF 10
ENDMDL
MODEL 16
USER: ADFR SOLUTION from run 20
USER: SCORE 10.336590 LL:  -1.824 LR:  -8.559 RR:   0.000 FEB:  -5.576
USER: RMSD 4.097409
USER: SEED 19
USER: STATUS no improvement in best in 6 clusters for 5 generations
USER: GENES 12
USER: genes 0 Translation |==|  0.50606 0.51482 0.49445
USER: genes 1 Rotation |==|  0.47109 0.49378 0.60158 0.98868
USER: genes 2 Torsion [C]-CA--N-[C] |==|  0.78738
USER: genes 3 Torsion [N]-C--CA-[N] |==|  0.22663
USER: genes 4 Torsion [C]-CA--N-[H2] |==|  0.86107
USER: genes 5 Torsion [N]-CA--C-[N] |==|  0.38235
USER: genes 6 Torsion [C]-N--CA-[CB] |==|  0.84480
USER: genes 7 Torsion [N]-CA--CB-[CG] |==|  0.63934
USER: genes 8 Torsion [CA]-CB--CG-[CD2] |==|  0.22520
USER: genes 9 Torsion [N]-CA--C-[OXT] |==|  0.53494
USER: genes 10 Torsion [N]-CA--CB-[CG2] |==|  0.87585
USER: genes 11 Torsion [CA]-CB--CG1-[CD1] |==|  0.32157
ROOT
ATOM      1  CA  ILE B   2      76.033  46.839  16.763  1.00 64.17 LIG 0.18  C 
ENDROOT
BRANCH 1 2
ATOM      2  N   ILE B   2      74.999  47.329  15.860  1.00 64.56 LIG-0.35  N 
ATOM      3  C   ALA B   1      75.077  47.153  14.544  1.00 64.53 LIG 0.25  C 
ATOM      4 O    ALA B   1      76.013  46.563  14.001  1.00 64.21 LIG-0.27  OA
ATOM      5 H    ILE B   2      74.349  47.733  16.252  1.00 64.56 LIG 0.16  HD
BRANCH 3 6
ATOM      6  CA  ALA B   1      73.922  47.724  13.721  1.00 64.34 LIG 0.27  C 
ATOM      7  CB  ALA B   1      73.809  46.985  12.392  1.00 65.15 LIG 0.05  C 
BRANCH 6 8
ATOM      8  N   ALA B   1      74.090  49.186  13.475  1.00 63.44 LIG-0.07  N 
ATOM      9 H2   ALA B   1      74.264  49.598  14.244  1.00 63.44 LIG 0.28  HD
ATOM     10 H3   ALA B   1      74.765  49.316  12.910  1.00 63.44 LIG 0.28  HD
ATOM     11 H1   ALA B   1      73.342  49.516  13.123  1.00 63.44 LIG 0.28  HD
ENDBRANCH 6 8
ENDBRANCH 3 6
ENDBRANCH 1 2
BRANCH 1 12
ATOM     12  C   ILE B   2      75.924  45.332  16.970  1.00 63.93 LIG 0.24  C 
ATOM     13  N   HIS B   3      77.067  44.654  16.964  1.00 63.34 LIG-0.34  N 
ATOM     14 H    HIS B   3      77.840  45.014  16.850  1.00 63.34 LIG 0.16  HD
ATOM     15 O    ILE B   2      74.827  44.795  17.136  1.00 63.64 LIG-0.27  OA
BRANCH 13 16
ATOM     16  CA  HIS B   3      77.090  43.211  17.155  1.00 63.18 LIG 0.19  C 
BRANCH 16 17
ATOM     17  CB  HIS B   3      76.396  42.837  18.467  1.00 62.24 LIG 0.10  C 
BRANCH 17 18
ATOM     18  CG  HIS B   3      77.200  41.923  19.340  1.00 63.21 LIG 0.06  A 
ATOM     19  CD2 HIS B   3      78.215  42.175  20.201  1.00 62.69 LIG 0.14  A 
ATOM     20 NE2  HIS B   3      78.595  40.972  20.744  1.00 63.05 LIG-0.25  NA
ATOM     21  CE1 HIS B   3      77.840  40.014  20.236  1.00 63.79 LIG 0.23  A 
ATOM     22 ND1  HIS B   3      76.990  40.561  19.385  1.00 63.44 LIG-0.24  NA
ENDBRANCH 17 18
ENDBRANCH 16 17
BRANCH 16 23
ATOM     23  C   HIS B   3      76.391  42.520  15.990  1.00 63.55 LIG 0.20  C 
ATOM     24 OXT  HIS B   3      76.110  41.311  16.105  1.00 62.89 LIG-0.65  OA
ATOM     25 O    HIS B   3      76.129  43.202  14.975  1.00 64.85 LIG-0.65  OA
ENDBRANCH 16 23
ENDBRANCH 13 16
ENDBRANCH 1 12
BRANCH 1 26
ATOM     26  CB  ILE B   2      75.944  47.534  18.136  1.00 64.73 LIG 0.01  C 
ATOM     27  CG2 ILE B   2      75.741  49.035  17.951  1.00 64.62 LIG 0.01  C 
BRANCH 26 28
ATOM     28  CG1 ILE B   2      74.797  46.926  18.947  1.00 64.82 LIG 0.00  C 
ATOM     29  CD1 ILE B   2      75.242  46.213  20.203  1.00 66.82 LIG 0.01  C 
ENDBRANCH 26 28
ENDBRANCH 1 26
TORSDOF 10
ENDMDL
MODEL 17
USER: ADFR SOLUTION from run 105
USER: SCORE 10.399612 LL:  -2.414 LR:  -8.509 RR:   0.000 FEB:  -5.526
USER: RMSD 5.086796
USER: SEED 104
USER: STATUS no improvement in best in 8 clusters for 5 generations
USER: GENES 12
USER: genes 0 Translation |==|  0.50568 0.39922 0.50314
USER: genes 1 Rotation |==|  0.42949 0.89267 0.23035 0.63464
USER: genes 2 Torsion [C]-CA--N-[C] |==|  0.68739
USER: genes 3 Torsion [N]-C--CA-[N] |==|  0.53040
USER: genes 4 Torsion [C]-CA--N-[H2] |==|  0.94180
USER: genes 5 Torsion [N]-CA--C-[N] |==|  0.81260
USER: genes 6 Torsion [C]-N--CA-[CB] |==|  0.24436
USER: genes 7 Torsion [N]-CA--CB-[CG] |==|  0.80597
USER: genes 8 Torsion [CA]-CB--CG-[CD2] |==|  0.81254
USER: genes 9 Torsion [N]-CA--C-[OXT] |==|  0.18686
USER: genes 10 Torsion [N]-CA--CB-[CG2] |==|  0.52259
USER: genes 11 Torsion [CA]-CB--CG1-[CD1] |==|  0.83418
ROOT
ATOM      1  CA  ILE B   2      76.029  44.671  16.899  1.00 64.17 LIG 0.18  C 
ENDROOT
BRANCH 1 2
ATOM      2  N   ILE B   2      76.253  46.034  16.433  1.00 64.56 LIG-0.35  N 
ATOM      3  C   ALA B   1      75.245  46.869  16.197  1.00 64.53 LIG 0.25  C 
ATOM      4 O    ALA B   1      74.064  46.557  16.363  1.00 64.21 LIG-0.27  OA
ATOM      5 H    ILE B   2      77.081  46.240  16.327  1.00 64.56 LIG 0.16  HD
BRANCH 3 6
ATOM      6  CA  ALA B   1      75.630  48.265  15.707  1.00 64.34 LIG 0.27  C 
ATOM      7  CB  ALA B   1      76.758  48.829  16.564  1.00 65.15 LIG 0.05  C 
BRANCH 6 8
ATOM      8  N   ALA B   1      74.465  49.196  15.724  1.00 63.44 LIG-0.07  N 
ATOM      9 H2   ALA B   1      73.710  48.726  15.721  1.00 63.44 LIG 0.28  HD
ATOM     10 H3   ALA B   1      74.498  49.699  16.458  1.00 63.44 LIG 0.28  HD
ATOM     11 H1   ALA B   1      74.493  49.719  15.005  1.00 63.44 LIG 0.28  HD
ENDBRANCH 6 8
ENDBRANCH 3 6
ENDBRANCH 1 2
BRANCH 1 12
ATOM     12  C   ILE B   2      76.535  44.480  18.326  1.00 63.93 LIG 0.24  C 
ATOM     13  N   HIS B   3      77.851  44.547  18.494  1.00 63.34 LIG-0.34  N 
ATOM     14 H    HIS B   3      78.413  44.687  17.858  1.00 63.34 LIG 0.16  HD
ATOM     15 O    ILE B   2      75.749  44.278  19.253  1.00 63.64 LIG-0.27  OA
BRANCH 13 16
ATOM     16  CA  HIS B   3      78.453  44.382  19.811  1.00 63.18 LIG 0.19  C 
BRANCH 16 17
ATOM     17  CB  HIS B   3      78.727  42.902  20.089  1.00 62.24 LIG 0.10  C 
BRANCH 17 18
ATOM     18  CG  HIS B   3      77.489  42.085  20.297  1.00 63.21 LIG 0.06  A 
ATOM     19  CD2 HIS B   3      76.568  42.096  21.290  1.00 62.69 LIG 0.14  A 
ATOM     20 NE2  HIS B   3      75.632  41.138  20.987  1.00 63.05 LIG-0.25  NA
ATOM     21  CE1 HIS B   3      75.965  40.558  19.847  1.00 63.79 LIG 0.23  A 
ATOM     22 ND1  HIS B   3      77.082  41.111  19.410  1.00 63.44 LIG-0.24  NA
ENDBRANCH 17 18
ENDBRANCH 16 17
BRANCH 16 23
ATOM     23  C   HIS B   3      79.755  45.169  19.889  1.00 63.55 LIG 0.20  C 
ATOM     24 OXT  HIS B   3      79.695  46.414  19.853  1.00 62.89 LIG-0.65  OA
ATOM     25 O    HIS B   3      80.824  44.528  19.991  1.00 64.85 LIG-0.65  OA
ENDBRANCH 16 23
ENDBRANCH 13 16
ENDBRANCH 1 12
BRANCH 1 26
ATOM     26  CB  ILE B   2      76.734  43.650  15.985  1.00 64.73 LIG 0.01  C 
ATOM     27  CG2 ILE B   2      76.323  42.231  16.370  1.00 64.62 LIG 0.01  C 
BRANCH 26 28
ATOM     28  CG1 ILE B   2      76.384  43.939  14.524  1.00 64.82 LIG 0.00  C 
ATOM     29  CD1 ILE B   2      74.905  43.869  14.219  1.00 66.82 LIG 0.01  C 
ENDBRANCH 26 28
ENDBRANCH 1 26
TORSDOF 10
ENDMDL
MODEL 18
USER: ADFR SOLUTION from run 62
USER: SCORE 10.083199 LL:  -1.860 LR:  -8.263 RR:   0.000 FEB:  -5.280
USER: RMSD 4.052011
USER: SEED 61
USER: STATUS no improvement in best in 10 clusters for 5 generations
USER: GENES 12
USER: genes 0 Translation |==|  0.46262 0.57384 0.39956
USER: genes 1 Rotation |==|  0.43666 0.50400 0.56725 0.99138
USER: genes 2 Torsion [C]-CA--N-[C] |==|  0.81819
USER: genes 3 Torsion [N]-C--CA-[N] |==|  0.10541
USER: genes 4 Torsion [C]-CA--N-[H2] |==|  0.25123
USER: genes 5 Torsion [N]-CA--C-[N] |==|  0.35556
USER: genes 6 Torsion [C]-N--CA-[CB] |==|  0.84975
USER: genes 7 Torsion [N]-CA--CB-[CG] |==|  0.58686
USER: genes 8 Torsion [CA]-CB--CG-[CD2] |==|  0.92794
USER: genes 9 Torsion [N]-CA--C-[OXT] |==|  0.56176
USER: genes 10 Torsion [N]-CA--CB-[CG2] |==|  0.46685
USER: genes 11 Torsion [CA]-CB--CG1-[CD1] |==|  0.29399
ROOT
ATOM      1  CA  ILE B   2      75.544  47.946  15.268  1.00 64.17 LIG 0.18  C 
ENDROOT
BRANCH 1 2
ATOM      2  N   ILE B   2      74.576  48.445  14.300  1.00 64.56 LIG-0.35  N 
ATOM      3  C   ALA B   1      74.470  47.922  13.082  1.00 64.53 LIG 0.25  C 
ATOM      4 O    ALA B   1      75.167  46.983  12.692  1.00 64.21 LIG-0.27  OA
ATOM      5 H    ILE B   2      74.092  49.095  14.586  1.00 64.56 LIG 0.16  HD
BRANCH 3 6
ATOM      6  CA  ALA B   1      73.414  48.549  12.171  1.00 64.34 LIG 0.27  C 
ATOM      7  CB  ALA B   1      73.714  48.217  10.713  1.00 65.15 LIG 0.05  C 
BRANCH 6 8
ATOM      8  N   ALA B   1      73.340  50.028  12.350  1.00 63.44 LIG-0.07  N 
ATOM      9 H2   ALA B   1      73.898  50.424  11.781  1.00 63.44 LIG 0.28  HD
ATOM     10 H3   ALA B   1      72.509  50.305  12.192  1.00 63.44 LIG 0.28  HD
ATOM     11 H1   ALA B   1      73.568  50.237  13.184  1.00 63.44 LIG 0.28  HD
ENDBRANCH 6 8
ENDBRANCH 3 6
ENDBRANCH 1 2
BRANCH 1 12
ATOM     12  C   ILE B   2      75.229  46.512  15.685  1.00 63.93 LIG 0.24  C 
ATOM     13  N   HIS B   3      76.227  45.641  15.588  1.00 63.34 LIG-0.34  N 
ATOM     14 H    HIS B   3      77.016  45.839  15.310  1.00 63.34 LIG 0.16  HD
ATOM     15 O    ILE B   2      74.105  46.204  16.087  1.00 63.64 LIG-0.27  OA
BRANCH 13 16
ATOM     16  CA  HIS B   3      76.047  44.244  15.960  1.00 63.18 LIG 0.19  C 
BRANCH 16 17
ATOM     17  CB  HIS B   3      75.501  44.139  17.386  1.00 62.24 LIG 0.10  C 
BRANCH 17 18
ATOM     18  CG  HIS B   3      75.949  42.912  18.118  1.00 63.21 LIG 0.06  A 
ATOM     19  CD2 HIS B   3      76.340  41.695  17.667  1.00 62.69 LIG 0.14  A 
ATOM     20 NE2  HIS B   3      76.647  40.934  18.768  1.00 63.05 LIG-0.25  NA
ATOM     21  CE1 HIS B   3      76.454  41.656  19.858  1.00 63.79 LIG 0.23  A 
ATOM     22 ND1  HIS B   3      76.033  42.854  19.494  1.00 63.44 LIG-0.24  NA
ENDBRANCH 17 18
ENDBRANCH 16 17
BRANCH 16 23
ATOM     23  C   HIS B   3      75.086  43.567  14.991  1.00 63.55 LIG 0.20  C 
ATOM     24 OXT  HIS B   3      74.494  42.537  15.370  1.00 62.89 LIG-0.65  OA
ATOM     25 O    HIS B   3      74.932  44.081  13.861  1.00 64.85 LIG-0.65  OA
ENDBRANCH 16 23
ENDBRANCH 13 16
ENDBRANCH 1 12
BRANCH 1 26
ATOM     26  CB  ILE B   2      75.572  48.831  16.530  1.00 64.73 LIG 0.01  C 
ATOM     27  CG2 ILE B   2      76.360  48.138  17.639  1.00 64.62 LIG 0.01  C 
BRANCH 26 28
ATOM     28  CG1 ILE B   2      76.189  50.190  16.192  1.00 64.82 LIG 0.00  C 
ATOM     29  CD1 ILE B   2      75.186  51.318  16.110  1.00 66.82 LIG 0.01  C 
ENDBRANCH 26 28
ENDBRANCH 1 26
TORSDOF 10
ENDMDL
MODEL 19
USER: ADFR SOLUTION from run 98
USER: SCORE 10.178095 LL:  -2.383 LR:  -8.252 RR:   0.000 FEB:  -5.269
USER: RMSD 5.292851
USER: SEED 97
USER: STATUS no improvement in best in 10 clusters for 5 generations
USER: GENES 12
USER: genes 0 Translation |==|  0.51460 0.36989 0.50539
USER: genes 1 Rotation |==|  0.56262 0.91577 0.23975 0.57407
USER: genes 2 Torsion [C]-CA--N-[C] |==|  0.71406
USER: genes 3 Torsion [N]-C--CA-[N] |==|  0.83904
USER: genes 4 Torsion [C]-CA--N-[H2] |==|  0.76301
USER: genes 5 Torsion [N]-CA--C-[N] |==|  0.82778
USER: genes 6 Torsion [C]-N--CA-[CB] |==|  0.83407
USER: genes 7 Torsion [N]-CA--CB-[CG] |==|  0.87296
USER: genes 8 Torsion [CA]-CB--CG-[CD2] |==|  0.32795
USER: genes 9 Torsion [N]-CA--C-[OXT] |==|  0.65540
USER: genes 10 Torsion [N]-CA--CB-[CG2] |==|  0.45500
USER: genes 11 Torsion [CA]-CB--CG1-[CD1] |==|  0.75979
ROOT
ATOM      1  CA  ILE B   2      76.129  44.121  16.935  1.00 64.17 LIG 0.18  C 
ENDROOT
BRANCH 1 2
ATOM      2  N   ILE B   2      77.083  45.208  16.751  1.00 64.56 LIG-0.35  N 
ATOM      3  C   ALA B   1      76.722  46.483  16.861  1.00 64.53 LIG 0.25  C 
ATOM      4 O    ALA B   1      75.572  46.833  17.132  1.00 64.21 LIG-0.27  OA
ATOM      5 H    ILE B   2      77.883  44.950  16.569  1.00 64.56 LIG 0.16  HD
BRANCH 3 6
ATOM      6  CA  ALA B   1      77.828  47.516  16.637  1.00 64.34 LIG 0.27  C 
ATOM      7  CB  ALA B   1      78.330  47.443  15.199  1.00 65.15 LIG 0.05  C 
BRANCH 6 8
ATOM      8  N   ALA B   1      78.965  47.319  17.582  1.00 63.44 LIG-0.07  N 
ATOM      9 H2   ALA B   1      78.791  47.739  18.347  1.00 63.44 LIG 0.28  HD
ATOM     10 H3   ALA B   1      79.073  46.450  17.739  1.00 63.44 LIG 0.28  HD
ATOM     11 H1   ALA B   1      79.709  47.651  17.224  1.00 63.44 LIG 0.28  HD
ENDBRANCH 6 8
ENDBRANCH 3 6
ENDBRANCH 1 2
BRANCH 1 12
ATOM     12  C   ILE B   2      76.292  43.461  18.301  1.00 63.93 LIG 0.24  C 
ATOM     13  N   HIS B   3      77.465  42.883  18.536  1.00 63.34 LIG-0.34  N 
ATOM     14 H    HIS B   3      78.115  42.863  17.973  1.00 63.34 LIG 0.16  HD
ATOM     15 O    ILE B   2      75.376  43.478  19.124  1.00 63.64 LIG-0.27  OA
BRANCH 13 16
ATOM     16  CA  HIS B   3      77.740  42.223  19.805  1.00 63.18 LIG 0.19  C 
BRANCH 16 17
ATOM     17  CB  HIS B   3      77.610  43.218  20.961  1.00 62.24 LIG 0.10  C 
BRANCH 17 18
ATOM     18  CG  HIS B   3      78.286  44.531  20.710  1.00 63.21 LIG 0.06  A 
ATOM     19  CD2 HIS B   3      77.790  45.789  20.631  1.00 62.69 LIG 0.14  A 
ATOM     20 NE2  HIS B   3      78.849  46.628  20.382  1.00 63.05 LIG-0.25  NA
ATOM     21  CE1 HIS B   3      79.957  45.911  20.312  1.00 63.79 LIG 0.23  A 
ATOM     22 ND1  HIS B   3      79.645  44.642  20.507  1.00 63.44 LIG-0.24  NA
ENDBRANCH 17 18
ENDBRANCH 16 17
BRANCH 16 23
ATOM     23  C   HIS B   3      76.770  41.067  20.011  1.00 63.55 LIG 0.20  C 
ATOM     24 OXT  HIS B   3      76.079  41.055  21.049  1.00 62.89 LIG-0.65  OA
ATOM     25 O    HIS B   3      76.708  40.186  19.125  1.00 64.85 LIG-0.65  OA
ENDBRANCH 16 23
ENDBRANCH 13 16
ENDBRANCH 1 12
BRANCH 1 26
ATOM     26  CB  ILE B   2      76.299  43.045  15.844  1.00 64.73 LIG 0.01  C 
ATOM     27  CG2 ILE B   2      75.597  41.757  16.265  1.00 64.62 LIG 0.01  C 
BRANCH 26 28
ATOM     28  CG1 ILE B   2      75.736  43.562  14.519  1.00 64.82 LIG 0.00  C 
ATOM     29  CD1 ILE B   2      74.254  43.324  14.344  1.00 66.82 LIG 0.01  C 
ENDBRANCH 26 28
ENDBRANCH 1 26
TORSDOF 10
ENDMDL
MODEL 20
USER: ADFR SOLUTION from run 39
USER: SCORE 10.091193 LL:  -1.944 LR:  -8.250 RR:   0.000 FEB:  -5.267
USER: RMSD 4.065220
USER: SEED 38
USER: STATUS no improvement in best in 5 clusters for 5 generations
USER: GENES 12
USER: genes 0 Translation |==|  0.48295 0.58193 0.50885
USER: genes 1 Rotation |==|  0.33270 0.49928 0.59519 0.96147
USER: genes 2 Torsion [C]-CA--N-[C] |==|  0.74164
USER: genes 3 Torsion [N]-C--CA-[N] |==|  0.17073
USER: genes 4 Torsion [C]-CA--N-[H2] |==|  0.95624
USER: genes 5 Torsion [N]-CA--C-[N] |==|  0.37788
USER: genes 6 Torsion [C]-N--CA-[CB] |==|  0.27166
USER: genes 7 Torsion [N]-CA--CB-[CG] |==|  0.54425
USER: genes 8 Torsion [CA]-CB--CG-[CD2] |==|  0.04315
USER: genes 9 Torsion [N]-CA--C-[OXT] |==|  0.52467
USER: genes 10 Torsion [N]-CA--CB-[CG2] |==|  0.46228
USER: genes 11 Torsion [CA]-CB--CG1-[CD1] |==|  0.25824
ROOT
ATOM      1  CA  ILE B   2      75.773  48.097  16.989  1.00 64.17 LIG 0.18  C 
ENDROOT
BRANCH 1 2
ATOM      2  N   ILE B   2      74.840  48.018  15.873  1.00 64.56 LIG-0.35  N 
ATOM      3  C   ALA B   1      75.168  47.430  14.726  1.00 64.53 LIG 0.25  C 
ATOM      4 O    ALA B   1      76.267  46.908  14.531  1.00 64.21 LIG-0.27  OA
ATOM      5 H    ILE B   2      74.075  48.381  16.024  1.00 64.56 LIG 0.16  HD
BRANCH 3 6
ATOM      6  CA  ALA B   1      74.090  47.426  13.641  1.00 64.34 LIG 0.27  C 
ATOM      7  CB  ALA B   1      74.571  46.640  12.427  1.00 65.15 LIG 0.05  C 
BRANCH 6 8
ATOM      8  N   ALA B   1      73.715  48.811  13.232  1.00 63.44 LIG-0.07  N 
ATOM      9 H2   ALA B   1      74.010  49.390  13.840  1.00 63.44 LIG 0.28  HD
ATOM     10 H3   ALA B   1      74.081  48.997  12.443  1.00 63.44 LIG 0.28  HD
ATOM     11 H1   ALA B   1      72.829  48.872  13.169  1.00 63.44 LIG 0.28  HD
ENDBRANCH 6 8
ENDBRANCH 3 6
ENDBRANCH 1 2
BRANCH 1 12
ATOM     12  C   ILE B   2      75.591  46.928  17.952  1.00 63.93 LIG 0.24  C 
ATOM     13  N   HIS B   3      76.704  46.346  18.385  1.00 63.34 LIG-0.34  N 
ATOM     14 H    HIS B   3      77.497  46.589  18.155  1.00 63.34 LIG 0.16  HD
ATOM     15 O    ILE B   2      74.466  46.562  18.296  1.00 63.64 LIG-0.27  OA
BRANCH 13 16
ATOM     16  CA  HIS B   3      76.658  45.221  19.309  1.00 63.18 LIG 0.19  C 
BRANCH 16 17
ATOM     17  CB  HIS B   3      76.792  43.901  18.547  1.00 62.24 LIG 0.10  C 
BRANCH 17 18
ATOM     18  CG  HIS B   3      76.385  42.698  19.341  1.00 63.21 LIG 0.06  A 
ATOM     19  CD2 HIS B   3      75.673  42.584  20.488  1.00 62.69 LIG 0.14  A 
ATOM     20 NE2  HIS B   3      75.590  41.246  20.783  1.00 63.05 LIG-0.25  NA
ATOM     21  CE1 HIS B   3      76.226  40.559  19.850  1.00 63.79 LIG 0.23  A 
ATOM     22 ND1  HIS B   3      76.715  41.412  18.967  1.00 63.44 LIG-0.24  NA
ENDBRANCH 17 18
ENDBRANCH 16 17
BRANCH 16 23
ATOM     23  C   HIS B   3      77.782  45.341  20.331  1.00 63.55 LIG 0.20  C 
ATOM     24 OXT  HIS B   3      77.992  44.376  21.092  1.00 62.89 LIG-0.65  OA
ATOM     25 O    HIS B   3      78.445  46.401  20.353  1.00 64.85 LIG-0.65  OA
ENDBRANCH 16 23
ENDBRANCH 13 16
ENDBRANCH 1 12
BRANCH 1 26
ATOM     26  CB  ILE B   2      75.590  49.413  17.772  1.00 64.73 LIG 0.01  C 
ATOM     27  CG2 ILE B   2      76.322  49.333  19.110  1.00 64.62 LIG 0.01  C 
BRANCH 26 28
ATOM     28  CG1 ILE B   2      76.110  50.585  16.938  1.00 64.82 LIG 0.00  C 
ATOM     29  CD1 ILE B   2      75.050  51.260  16.097  1.00 66.82 LIG 0.01  C 
ENDBRANCH 26 28
ENDBRANCH 1 26
TORSDOF 10
ENDMDL
MODEL 21
USER: ADFR SOLUTION from run 183
USER: SCORE 10.632825 LL:  -2.547 LR:  -8.212 RR:   0.000 FEB:  -5.229
USER: RMSD 5.712984
USER: SEED 182
USER: STATUS no improvement in best in 8 clusters for 5 generations
USER: GENES 12
USER: genes 0 Translation |==|  0.49933 0.38154 0.51532
USER: genes 1 Rotation |==|  0.56722 0.72871 0.11868 0.71856
USER: genes 2 Torsion [C]-CA--N-[C] |==|  0.81674
USER: genes 3 Torsion [N]-C--CA-[N] |==|  0.86003
USER: genes 4 Torsion [C]-CA--N-[H2] |==|  0.07007
USER: genes 5 Torsion [N]-CA--C-[N] |==|  0.87049
USER: genes 6 Torsion [C]-N--CA-[CB] |==|  0.33311
USER: genes 7 Torsion [N]-CA--CB-[CG] |==|  0.81759
USER: genes 8 Torsion [CA]-CB--CG-[CD2] |==|  0.86008
USER: genes 9 Torsion [N]-CA--C-[OXT] |==|  0.38485
USER: genes 10 Torsion [N]-CA--CB-[CG2] |==|  0.38155
USER: genes 11 Torsion [CA]-CB--CG1-[CD1] |==|  0.90778
ROOT
ATOM      1  CA  ILE B   2      75.957  44.340  17.091  1.00 64.17 LIG 0.18  C 
ENDROOT
BRANCH 1 2
ATOM      2  N   ILE B   2      77.001  45.205  16.556  1.00 64.56 LIG-0.35  N 
ATOM      3  C   ALA B   1      76.724  46.396  16.034  1.00 64.53 LIG 0.25  C 
ATOM      4 O    ALA B   1      75.581  46.852  15.973  1.00 64.21 LIG-0.27  OA
ATOM      5 H    ILE B   2      77.794  44.878  16.610  1.00 64.56 LIG 0.16  HD
BRANCH 3 6
ATOM      6  CA  ALA B   1      77.918  47.193  15.507  1.00 64.34 LIG 0.27  C 
ATOM      7  CB  ALA B   1      78.442  46.563  14.221  1.00 65.15 LIG 0.05  C 
BRANCH 6 8
ATOM      8  N   ALA B   1      79.015  47.274  16.515  1.00 63.44 LIG-0.07  N 
ATOM      9 H2   ALA B   1      78.959  46.581  17.070  1.00 63.44 LIG 0.28  HD
ATOM     10 H3   ALA B   1      79.801  47.259  16.100  1.00 63.44 LIG 0.28  HD
ATOM     11 H1   ALA B   1      78.937  48.031  16.977  1.00 63.44 LIG 0.28  HD
ENDBRANCH 6 8
ENDBRANCH 3 6
ENDBRANCH 1 2
BRANCH 1 12
ATOM     12  C   ILE B   2      75.305  44.951  18.328  1.00 63.93 LIG 0.24  C 
ATOM     13  N   HIS B   3      76.132  45.443  19.244  1.00 63.34 LIG-0.34  N 
ATOM     14 H    HIS B   3      76.990  45.432  19.176  1.00 63.34 LIG 0.16  HD
ATOM     15 O    ILE B   2      74.079  44.978  18.447  1.00 63.64 LIG-0.27  OA
BRANCH 13 16
ATOM     16  CA  HIS B   3      75.628  46.054  20.466  1.00 63.18 LIG 0.19  C 
BRANCH 16 17
ATOM     17  CB  HIS B   3      76.146  45.298  21.692  1.00 62.24 LIG 0.10  C 
BRANCH 17 18
ATOM     18  CG  HIS B   3      75.632  43.896  21.802  1.00 63.21 LIG 0.06  A 
ATOM     19  CD2 HIS B   3      74.373  43.399  21.737  1.00 62.69 LIG 0.14  A 
ATOM     20 NE2  HIS B   3      74.465  42.038  21.901  1.00 63.05 LIG-0.25  NA
ATOM     21  CE1 HIS B   3      75.735  41.710  22.061  1.00 63.79 LIG 0.23  A 
ATOM     22 ND1  HIS B   3      76.460  42.812  22.005  1.00 63.44 LIG-0.24  NA
ENDBRANCH 17 18
ENDBRANCH 16 17
BRANCH 16 23
ATOM     23  C   HIS B   3      76.067  47.511  20.538  1.00 63.55 LIG 0.20  C 
ATOM     24 OXT  HIS B   3      75.241  48.357  20.937  1.00 62.89 LIG-0.65  OA
ATOM     25 O    HIS B   3      77.238  47.790  20.198  1.00 64.85 LIG-0.65  OA
ENDBRANCH 16 23
ENDBRANCH 13 16
ENDBRANCH 1 12
BRANCH 1 26
ATOM     26  CB  ILE B   2      76.524  42.956  17.466  1.00 64.73 LIG 0.01  C 
ATOM     27  CG2 ILE B   2      75.951  42.500  18.806  1.00 64.62 LIG 0.01  C 
BRANCH 26 28
ATOM     28  CG1 ILE B   2      76.194  41.948  16.363  1.00 64.82 LIG 0.00  C 
ATOM     29  CD1 ILE B   2      74.873  42.201  15.673  1.00 66.82 LIG 0.01  C 
ENDBRANCH 26 28
ENDBRANCH 1 26
TORSDOF 10
ENDMDL
MODEL 22
USER: ADFR SOLUTION from run 104
USER: SCORE 9.817044 LL:  -1.824 LR:  -8.151 RR:   0.000 FEB:  -5.168
USER: RMSD 5.175005
USER: SEED 103
USER: STATUS no improvement in best in 5 clusters for 5 generations
USER: GENES 12
USER: genes 0 Translation |==|  0.54539 0.44733 0.48387
USER: genes 1 Rotation |==|  0.30555 0.53745 0.59022 0.95016
USER: genes 2 Torsion [C]-CA--N-[C] |==|  0.68009
USER: genes 3 Torsion [N]-C--CA-[N] |==|  0.43536
USER: genes 4 Torsion [C]-CA--N-[H2] |==|  0.31148
USER: genes 5 Torsion [N]-CA--C-[N] |==|  0.38433
USER: genes 6 Torsion [C]-N--CA-[CB] |==|  0.86936
USER: genes 7 Torsion [N]-CA--CB-[CG] |==|  0.47153
USER: genes 8 Torsion [CA]-CB--CG-[CD2] |==|  0.68768
USER: genes 9 Torsion [N]-CA--C-[OXT] |==|  0.46388
USER: genes 10 Torsion [N]-CA--CB-[CG2] |==|  0.86077
USER: genes 11 Torsion [CA]-CB--CG1-[CD1] |==|  0.35007
ROOT
ATOM      1  CA  ILE B   2      76.476  45.573  16.596  1.00 64.17 LIG 0.18  C 
ENDROOT
BRANCH 1 2
ATOM      2  N   ILE B   2      75.415  45.403  15.611  1.00 64.56 LIG-0.35  N 
ATOM      3  C   ALA B   1      75.672  45.025  14.362  1.00 64.53 LIG 0.25  C 
ATOM      4 O    ALA B   1      76.811  44.786  13.956  1.00 64.21 LIG-0.27  OA
ATOM      5 H    ILE B   2      74.625  45.567  15.909  1.00 64.56 LIG 0.16  HD
BRANCH 3 6
ATOM      6  CA  ALA B   1      74.462  44.892  13.437  1.00 64.34 LIG 0.27  C 
ATOM      7  CB  ALA B   1      73.768  43.554  13.671  1.00 65.15 LIG 0.05  C 
BRANCH 6 8
ATOM      8  N   ALA B   1      74.848  45.020  12.002  1.00 63.44 LIG-0.07  N 
ATOM      9 H2   ALA B   1      74.736  44.237  11.594  1.00 63.44 LIG 0.28  HD
ATOM     10 H3   ALA B   1      74.337  45.634  11.611  1.00 63.44 LIG 0.28  HD
ATOM     11 H1   ALA B   1      75.702  45.265  11.946  1.00 63.44 LIG 0.28  HD
ENDBRANCH 6 8
ENDBRANCH 3 6
ENDBRANCH 1 2
BRANCH 1 12
ATOM     12  C   ILE B   2      76.347  44.566  17.734  1.00 63.93 LIG 0.24  C 
ATOM     13  N   HIS B   3      77.477  44.011  18.156  1.00 63.34 LIG-0.34  N 
ATOM     14 H    HIS B   3      78.253  44.186  17.829  1.00 63.34 LIG 0.16  HD
ATOM     15 O    ILE B   2      75.246  44.299  18.220  1.00 63.64 LIG-0.27  OA
BRANCH 13 16
ATOM     16  CA  HIS B   3      77.482  43.037  19.239  1.00 63.18 LIG 0.19  C 
BRANCH 16 17
ATOM     17  CB  HIS B   3      76.632  43.538  20.409  1.00 62.24 LIG 0.10  C 
BRANCH 17 18
ATOM     18  CG  HIS B   3      76.380  42.505  21.463  1.00 63.21 LIG 0.06  A 
ATOM     19  CD2 HIS B   3      75.242  41.876  21.844  1.00 62.69 LIG 0.14  A 
ATOM     20 NE2  HIS B   3      75.573  41.018  22.864  1.00 63.05 LIG-0.25  NA
ATOM     21  CE1 HIS B   3      76.870  41.114  23.101  1.00 63.79 LIG 0.23  A 
ATOM     22 ND1  HIS B   3      77.380  42.004  22.269  1.00 63.44 LIG-0.24  NA
ENDBRANCH 17 18
ENDBRANCH 16 17
BRANCH 16 23
ATOM     23  C   HIS B   3      76.936  41.704  18.742  1.00 63.55 LIG 0.20  C 
ATOM     24 OXT  HIS B   3      77.096  40.697  19.460  1.00 62.89 LIG-0.65  OA
ATOM     25 O    HIS B   3      76.348  41.684  17.638  1.00 64.85 LIG-0.65  OA
ENDBRANCH 16 23
ENDBRANCH 13 16
ENDBRANCH 1 12
BRANCH 1 26
ATOM     26  CB  ILE B   2      76.455  46.995  17.192  1.00 64.73 LIG 0.01  C 
ATOM     27  CG2 ILE B   2      76.408  48.032  16.072  1.00 64.62 LIG 0.01  C 
BRANCH 26 28
ATOM     28  CG1 ILE B   2      75.250  47.146  18.123  1.00 64.82 LIG 0.00  C 
ATOM     29  CD1 ILE B   2      75.603  47.622  19.513  1.00 66.82 LIG 0.01  C 
ENDBRANCH 26 28
ENDBRANCH 1 26
TORSDOF 10
ENDMDL
MODEL 23
USER: ADFR SOLUTION from run 166
USER: SCORE 10.828333 LL:  -2.786 LR:  -8.090 RR:   0.000 FEB:  -5.107
USER: RMSD 5.395788
USER: SEED 165
USER: STATUS no improvement in best in 9 clusters for 5 generations
USER: GENES 12
USER: genes 0 Translation |==|  0.51660 0.39006 0.43330
USER: genes 1 Rotation |==|  0.59623 0.82857 0.13971 0.55451
USER: genes 2 Torsion [C]-CA--N-[C] |==|  0.75910
USER: genes 3 Torsion [N]-C--CA-[N] |==|  0.74530
USER: genes 4 Torsion [C]-CA--N-[H2] |==|  0.05425
USER: genes 5 Torsion [N]-CA--C-[N] |==|  0.95587
USER: genes 6 Torsion [C]-N--CA-[CB] |==|  0.28016
USER: genes 7 Torsion [N]-CA--CB-[CG] |==|  0.76212
USER: genes 8 Torsion [CA]-CB--CG-[CD2] |==|  0.81349
USER: genes 9 Torsion [N]-CA--C-[OXT] |==|  0.56976
USER: genes 10 Torsion [N]-CA--CB-[CG2] |==|  0.30277
USER: genes 11 Torsion [CA]-CB--CG1-[CD1] |==|  0.13095
ROOT
ATOM      1  CA  ILE B   2      76.152  44.500  15.799  1.00 64.17 LIG 0.18  C 
ENDROOT
BRANCH 1 2
ATOM      2  N   ILE B   2      77.333  45.104  15.197  1.00 64.56 LIG-0.35  N 
ATOM      3  C   ALA B   1      77.410  46.412  14.965  1.00 64.53 LIG 0.25  C 
ATOM      4 O    ALA B   1      76.504  47.197  15.248  1.00 64.21 LIG-0.27  OA
ATOM      5 H    ILE B   2      77.960  44.547  15.010  1.00 64.56 LIG 0.16  HD
BRANCH 3 6
ATOM      6  CA  ALA B   1      78.708  46.905  14.323  1.00 64.34 LIG 0.27  C 
ATOM      7  CB  ALA B   1      79.294  45.820  13.426  1.00 65.15 LIG 0.05  C 
BRANCH 6 8
ATOM      8  N   ALA B   1      79.710  47.311  15.350  1.00 63.44 LIG-0.07  N 
ATOM      9 H2   ALA B   1      79.501  46.942  16.132  1.00 63.44 LIG 0.28  HD
ATOM     10 H3   ALA B   1      80.519  47.037  15.100  1.00 63.44 LIG 0.28  HD
ATOM     11 H1   ALA B   1      79.710  48.197  15.431  1.00 63.44 LIG 0.28  HD
ENDBRANCH 6 8
ENDBRANCH 3 6
ENDBRANCH 1 2
BRANCH 1 12
ATOM     12  C   ILE B   2      76.222  44.536  17.323  1.00 63.93 LIG 0.24  C 
ATOM     13  N   HIS B   3      77.418  44.782  17.848  1.00 63.34 LIG-0.34  N 
ATOM     14 H    HIS B   3      78.130  44.916  17.386  1.00 63.34 LIG 0.16  HD
ATOM     15 O    ILE B   2      75.215  44.348  18.007  1.00 63.64 LIG-0.27  OA
BRANCH 13 16
ATOM     16  CA  HIS B   3      77.609  44.845  19.291  1.00 63.18 LIG 0.19  C 
BRANCH 16 17
ATOM     17  CB  HIS B   3      78.216  43.536  19.804  1.00 62.24 LIG 0.10  C 
BRANCH 17 18
ATOM     18  CG  HIS B   3      77.204  42.473  20.099  1.00 63.21 LIG 0.06  A 
ATOM     19  CD2 HIS B   3      76.239  42.397  21.047  1.00 62.69 LIG 0.14  A 
ATOM     20 NE2  HIS B   3      75.590  41.199  20.871  1.00 63.05 LIG-0.25  NA
ATOM     21  CE1 HIS B   3      76.135  40.561  19.850  1.00 63.79 LIG 0.23  A 
ATOM     22 ND1  HIS B   3      77.112  41.308  19.366  1.00 63.44 LIG-0.24  NA
ENDBRANCH 17 18
ENDBRANCH 16 17
BRANCH 16 23
ATOM     23  C   HIS B   3      78.527  46.009  19.644  1.00 63.55 LIG 0.20  C 
ATOM     24 OXT  HIS B   3      79.174  45.948  20.708  1.00 62.89 LIG-0.65  OA
ATOM     25 O    HIS B   3      78.591  46.970  18.846  1.00 64.85 LIG-0.65  OA
ENDBRANCH 16 23
ENDBRANCH 13 16
ENDBRANCH 1 12
BRANCH 1 26
ATOM     26  CB  ILE B   2      75.989  43.034  15.349  1.00 64.73 LIG 0.01  C 
ATOM     27  CG2 ILE B   2      76.295  42.092  16.510  1.00 64.62 LIG 0.01  C 
BRANCH 26 28
ATOM     28  CG1 ILE B   2      74.568  42.811  14.827  1.00 64.82 LIG 0.00  C 
ATOM     29  CD1 ILE B   2      74.092  43.872  13.862  1.00 66.82 LIG 0.01  C 
ENDBRANCH 26 28
ENDBRANCH 1 26
TORSDOF 10
ENDMDL
