MODEL 1
USER: ADFR SOLUTION from run 70
USER: SCORE 20.546968 LL:  -6.305 LR: -16.960 RR:   0.000 FEB: -10.397
USER: RMSD 1.023354
USER: SEED 69
USER: STATUS 1 or 2 clusters left
USER: GENES 24
USER: genes 0 Translation |==|  0.39730 0.39404 0.60502
USER: genes 1 Rotation |==|  0.45821 0.50378 0.49223 0.99818
USER: genes 2 Torsion [C]-CA--CB-[CG] |==|  0.40833
USER: genes 3 Torsion [CA]-CB--CG-[CD2] |==|  0.69888
USER: genes 4 Torsion [CE2]-CZ--OH-[HH] |==|  0.52229
USER: genes 5 Torsion [N]-CA--C-[N] |==|  0.90484
USER: genes 6 Torsion [C]-N--CA-[CB] |==|  0.23231
USER: genes 7 Torsion [N]-CA--C-[N] |==|  0.29172
USER: genes 8 Torsion [C]-N--CA-[C] |==|  0.78630
USER: genes 9 Torsion [N]-CA--CB-[CG2] |==|  0.42050
USER: genes 10 Torsion [CA]-CB--CG1-[CD1] |==|  0.34954
USER: genes 11 Torsion [N]-CA--C-[N] |==|  0.39164
USER: genes 12 Torsion [N]-CA--C-[O] |==|  0.68246
USER: genes 13 Torsion [N]-CA--CB-[CG] |==|  0.44628
USER: genes 14 Torsion [CA]-CB--CG-[CD2] |==|  0.18400
USER: genes 15 Torsion [CB]-CA--N-[C] |==|  0.51123
USER: genes 16 Torsion [N]-C--CA-[N] |==|  0.23864
USER: genes 17 Torsion [C]-CA--N-[C] |==|  0.78889
USER: genes 18 Torsion [N]-C--CA-[N] |==|  0.41783
USER: genes 19 Torsion [C]-CA--CB-[CG2] |==|  0.37297
USER: genes 20 Torsion [CA]-CB--CG1-[CD1] |==|  0.42922
USER: genes 21 Torsion [C]-CA--N-[C] |==|  0.63583
USER: genes 22 Torsion [N]-C--CA-[N] |==|  0.37824
USER: genes 23 Torsion [C]-CA--N-[H3] |==|  0.15416
ROOT
ATOM      1  CA  TYR B   4      52.229  24.360   0.135  1.00 23.69 LIG 0.18  C 
ENDROOT
BRANCH 1 2
ATOM      2  CB  TYR B   4      51.187  24.766   1.175  1.00 21.78 LIG 0.07  C 
BRANCH 2 3
ATOM      3  CG  TYR B   4      51.518  24.250   2.560  1.00 24.88 LIG-0.06  A 
ATOM      4  CD2 TYR B   4      50.773  23.218   3.128  1.00 24.05 LIG 0.01  A 
ATOM      5  CE2 TYR B   4      51.090  22.702   4.382  1.00 20.83 LIG 0.04  A 
ATOM      6  CZ  TYR B   4      52.164  23.218   5.083  1.00 22.15 LIG 0.07  A 
ATOM      7  CE1 TYR B   4      52.925  24.252   4.545  1.00 19.14 LIG 0.04  A 
ATOM      8  CD1 TYR B   4      52.599  24.762   3.287  1.00 18.71 LIG 0.01  A 
BRANCH 6 9
ATOM      9 OH   TYR B   4      52.475  22.687   6.314  1.00 23.41 LIG-0.36  OA
ATOM     10 HH   TYR B   4      53.069  23.155   6.679  1.00 23.41 LIG 0.22  HD
ENDBRANCH 6 9
ENDBRANCH 2 3
ENDBRANCH 1 2
BRANCH 1 11
ATOM     11  C   TYR B   4      51.595  24.135  -1.236  1.00 26.86 LIG 0.24  C 
ATOM     12 O    TYR B   4      51.206  23.018  -1.578  1.00 26.35 LIG-0.27  OA
ATOM     13  N   PHE B   5      51.505  25.206  -2.018  1.00 27.52 LIG-0.35  N 
ATOM     14 H    PHE B   5      51.758  25.993  -1.778  1.00 27.52 LIG 0.16  HD
BRANCH 13 15
ATOM     15  CA  PHE B   5      50.963  25.139  -3.372  1.00 31.98 LIG 0.18  C 
BRANCH 15 16
ATOM     16  C   PHE B   5      51.523  26.250  -4.249  1.00 33.78 LIG 0.24  C 
ATOM     17  N   ILE B   6      52.440  25.884  -5.137  1.00 31.71 LIG-0.35  N 
ATOM     18 H    ILE B   6      52.721  25.077  -5.232  1.00 31.71 LIG 0.16  HD
ATOM     19 O    PHE B   5      51.138  27.415  -4.122  1.00 29.51 LIG-0.27  OA
BRANCH 17 20
ATOM     20  CA  ILE B   6      53.055  26.844  -6.042  1.00 36.87 LIG 0.18  C 
BRANCH 20 21
ATOM     21  CB  ILE B   6      54.356  26.279  -6.646  1.00 37.14 LIG 0.01  C 
ATOM     22  CG2 ILE B   6      54.599  26.887  -8.016  1.00 36.45 LIG 0.01  C 
BRANCH 21 23
ATOM     23  CG1 ILE B   6      55.535  26.587  -5.720  1.00 37.87 LIG 0.00  C 
ATOM     24  CD1 ILE B   6      56.342  25.373  -5.320  1.00 36.09 LIG 0.01  C 
ENDBRANCH 21 23
ENDBRANCH 20 21
BRANCH 20 25
ATOM     25  C   ILE B   6      52.076  27.174  -7.168  1.00 41.32 LIG 0.24  C 
ATOM     26 O    ILE B   6      51.365  26.294  -7.659  1.00 41.04 LIG-0.27  OA
ATOM     27  N   PRO B   7      52.022  28.451  -7.586  1.00 42.91 LIG-0.34  N 
ATOM     28  CA  PRO B   7      51.123  28.891  -8.657  1.00 43.88 LIG 0.17  C 
ATOM     29  CD  PRO B   7      52.853  29.573  -7.109  1.00 40.67 LIG 0.13  C 
ATOM     30  CB  PRO B   7      51.670  30.269  -9.014  1.00 44.00 LIG 0.04  C 
ATOM     31  CG  PRO B   7      52.136  30.778  -7.688  1.00 40.06 LIG 0.02  C 
BRANCH 28 32
ATOM     32  C   PRO B   7      51.105  27.942  -9.854  1.00 46.53 LIG 0.22  C 
ATOM     33 O    PRO B   7      51.530  28.302 -10.952  1.00 48.18 LIG-0.29  OA
ENDBRANCH 28 32
ENDBRANCH 20 25
ENDBRANCH 17 20
ENDBRANCH 15 16
BRANCH 15 34
ATOM     34  CB  PHE B   5      49.435  25.220  -3.365  1.00 34.18 LIG 0.07  C 
BRANCH 34 35
ATOM     35  CG  PHE B   5      48.849  25.616  -4.694  1.00 39.37 LIG-0.06  A 
ATOM     36  CD2 PHE B   5      48.959  24.774  -5.798  1.00 41.89 LIG 0.01  A 
ATOM     37  CE2 PHE B   5      48.447  25.154  -7.041  1.00 44.83 LIG 0.00  A 
ATOM     38  CZ  PHE B   5      47.817  26.387  -7.187  1.00 42.42 LIG 0.00  A 
ATOM     39  CE1 PHE B   5      47.700  27.236  -6.090  1.00 44.61 LIG 0.00  A 
ATOM     40  CD1 PHE B   5      48.215  26.847  -4.851  1.00 43.39 LIG 0.01  A 
ENDBRANCH 34 35
ENDBRANCH 15 34
ENDBRANCH 13 15
ENDBRANCH 1 11
BRANCH 1 41
ATOM     41  N   TYR B   4      53.272  25.367   0.047  1.00 19.41 LIG-0.35  N 
ATOM     42 H    TYR B   4      53.204  26.012   0.611  1.00 19.41 LIG 0.16  HD
ATOM     43  C   ALA B   3      54.238  25.252  -0.854  1.00 19.00 LIG 0.24  C 
ATOM     44 O    ALA B   3      54.317  24.294  -1.623  1.00 18.56 LIG-0.27  OA
BRANCH 43 45
ATOM     45  CA  ALA B   3      55.282  26.364  -0.880  1.00 21.06 LIG 0.17  C 
ATOM     46  CB  ALA B   3      55.886  26.483  -2.267  1.00 20.02 LIG 0.04  C 
BRANCH 45 47
ATOM     47  N   ALA B   3      56.318  26.054   0.092  1.00 19.71 LIG-0.35  N 
ATOM     48 H    ALA B   3      57.051  25.760  -0.248  1.00 19.71 LIG 0.16  HD
ATOM     49  C   ILE B   2      56.114  26.222   1.392  1.00 19.11 LIG 0.24  C 
ATOM     50 O    ILE B   2      55.075  26.686   1.853  1.00 19.33 LIG-0.27  OA
BRANCH 49 51
ATOM     51  CA  ILE B   2      57.264  25.828   2.306  1.00 18.55 LIG 0.18  C 
BRANCH 51 52
ATOM     52  CB  ILE B   2      57.143  24.330   2.654  1.00 21.29 LIG 0.01  C 
ATOM     53  CG2 ILE B   2      58.499  23.642   2.513  1.00 18.18 LIG 0.01  C 
BRANCH 52 54
ATOM     54  CG1 ILE B   2      56.598  24.171   4.076  1.00 26.11 LIG 0.00  C 
ATOM     55  CD1 ILE B   2      55.875  22.860   4.328  1.00 36.60 LIG 0.01  C 
ENDBRANCH 52 54
ENDBRANCH 51 52
BRANCH 51 56
ATOM     56  N   ILE B   2      57.247  26.641   3.510  1.00 18.11 LIG-0.35  N 
ATOM     57 H    ILE B   2      56.480  26.689   3.895  1.00 18.11 LIG 0.16  HD
ATOM     58  C   ALA B   1      58.337  27.249   3.958  1.00 22.52 LIG 0.25  C 
ATOM     59 O    ALA B   1      59.431  27.163   3.403  1.00 25.87 LIG-0.27  OA
BRANCH 58 60
ATOM     60  CA  ALA B   1      58.167  28.073   5.226  1.00 19.14 LIG 0.27  C 
ATOM     61  CB  ALA B   1      58.101  29.556   4.873  1.00 16.49 LIG 0.05  C 
BRANCH 60 62
ATOM     62  N   ALA B   1      59.279  27.820   6.130  1.00 20.16 LIG-0.07  N 
ATOM     63 H3   ALA B   1      60.046  27.984   5.710  1.00 20.16 LIG 0.28  HD
ATOM     64 H2   ALA B   1      59.260  26.969   6.392  1.00 20.16 LIG 0.28  HD
ATOM     65 H1   ALA B   1      59.211  28.351   6.841  1.00 20.16 LIG 0.28  HD
ENDBRANCH 60 62
ENDBRANCH 58 60
ENDBRANCH 51 56
ENDBRANCH 49 51
ENDBRANCH 45 47
ENDBRANCH 43 45
ENDBRANCH 1 41
TORSDOF 22
ENDMDL
MODEL 2
USER: ADFR SOLUTION from run 28
USER: SCORE 20.445971 LL:  -6.511 LR: -16.906 RR:   0.000 FEB: -10.343
USER: RMSD 3.053364
USER: SEED 27
USER: STATUS 1 or 2 clusters left
USER: GENES 24
USER: genes 0 Translation |==|  0.38217 0.39425 0.60510
USER: genes 1 Rotation |==|  0.48413 0.50064 0.48850 0.99962
USER: genes 2 Torsion [C]-CA--CB-[CG] |==|  0.43415
USER: genes 3 Torsion [CA]-CB--CG-[CD2] |==|  0.75201
USER: genes 4 Torsion [CE2]-CZ--OH-[HH] |==|  0.47899
USER: genes 5 Torsion [N]-CA--C-[N] |==|  0.92259
USER: genes 6 Torsion [C]-N--CA-[CB] |==|  0.25263
USER: genes 7 Torsion [N]-CA--C-[N] |==|  0.41146
USER: genes 8 Torsion [C]-N--CA-[C] |==|  0.16023
USER: genes 9 Torsion [N]-CA--CB-[CG2] |==|  0.53120
USER: genes 10 Torsion [CA]-CB--CG1-[CD1] |==|  0.68672
USER: genes 11 Torsion [N]-CA--C-[N] |==|  0.14153
USER: genes 12 Torsion [N]-CA--C-[O] |==|  0.57849
USER: genes 13 Torsion [N]-CA--CB-[CG] |==|  0.51957
USER: genes 14 Torsion [CA]-CB--CG-[CD2] |==|  0.11143
USER: genes 15 Torsion [CB]-CA--N-[C] |==|  0.48548
USER: genes 16 Torsion [N]-C--CA-[N] |==|  0.27343
USER: genes 17 Torsion [C]-CA--N-[C] |==|  0.77228
USER: genes 18 Torsion [N]-C--CA-[N] |==|  0.37306
USER: genes 19 Torsion [C]-CA--CB-[CG2] |==|  0.86916
USER: genes 20 Torsion [CA]-CB--CG1-[CD1] |==|  0.07249
USER: genes 21 Torsion [C]-CA--N-[C] |==|  0.73950
USER: genes 22 Torsion [N]-C--CA-[N] |==|  0.42789
USER: genes 23 Torsion [C]-CA--N-[H3] |==|  0.02810
ROOT
ATOM      1  CA  TYR B   4      51.911  24.363   0.137  1.00 23.69 LIG 0.18  C 
ENDROOT
BRANCH 1 2
ATOM      2  CB  TYR B   4      50.858  24.676   1.198  1.00 21.78 LIG 0.07  C 
BRANCH 2 3
ATOM      3  CG  TYR B   4      51.269  24.206   2.578  1.00 24.88 LIG-0.06  A 
ATOM      4  CD2 TYR B   4      50.952  22.920   3.013  1.00 24.05 LIG 0.01  A 
ATOM      5  CE2 TYR B   4      51.359  22.457   4.261  1.00 20.83 LIG 0.04  A 
ATOM      6  CZ  TYR B   4      52.091  23.284   5.092  1.00 22.15 LIG 0.07  A 
ATOM      7  CE1 TYR B   4      52.420  24.575   4.690  1.00 19.14 LIG 0.04  A 
ATOM      8  CD1 TYR B   4      52.008  25.030   3.436  1.00 18.71 LIG 0.01  A 
BRANCH 6 9
ATOM      9 OH   TYR B   4      52.500  22.807   6.317  1.00 23.41 LIG-0.36  OA
ATOM     10 HH   TYR B   4      53.018  23.363   6.675  1.00 23.41 LIG 0.22  HD
ENDBRANCH 6 9
ENDBRANCH 2 3
ENDBRANCH 1 2
BRANCH 1 11
ATOM     11  C   TYR B   4      51.296  24.291  -1.259  1.00 26.86 LIG 0.24  C 
ATOM     12 O    TYR B   4      50.792  23.248  -1.676  1.00 26.35 LIG-0.27  OA
ATOM     13  N   PHE B   5      51.353  25.407  -1.978  1.00 27.52 LIG-0.35  N 
ATOM     14 H    PHE B   5      51.687  26.145  -1.687  1.00 27.52 LIG 0.16  HD
BRANCH 13 15
ATOM     15  CA  PHE B   5      50.847  25.480  -3.346  1.00 31.98 LIG 0.18  C 
BRANCH 15 16
ATOM     16  C   PHE B   5      51.674  26.437  -4.192  1.00 33.78 LIG 0.24  C 
ATOM     17  N   ILE B   6      51.777  26.134  -5.481  1.00 31.71 LIG-0.35  N 
ATOM     18 H    ILE B   6      51.413  25.444  -5.843  1.00 31.71 LIG 0.16  HD
ATOM     19 O    PHE B   5      52.210  27.428  -3.690  1.00 29.51 LIG-0.27  OA
BRANCH 17 20
ATOM     20  CA  ILE B   6      52.535  26.966  -6.405  1.00 36.87 LIG 0.18  C 
BRANCH 20 21
ATOM     21  CB  ILE B   6      51.919  28.375  -6.510  1.00 37.14 LIG 0.01  C 
ATOM     22  CG2 ILE B   6      52.545  29.131  -7.669  1.00 36.45 LIG 0.01  C 
BRANCH 21 23
ATOM     23  CG1 ILE B   6      50.405  28.265  -6.713  1.00 37.87 LIG 0.00  C 
ATOM     24  CD1 ILE B   6      49.928  28.734  -8.069  1.00 36.09 LIG 0.01  C 
ENDBRANCH 21 23
ENDBRANCH 20 21
BRANCH 20 25
ATOM     25  C   ILE B   6      53.977  27.080  -5.911  1.00 41.32 LIG 0.24  C 
ATOM     26 O    ILE B   6      54.514  28.183  -5.790  1.00 41.04 LIG-0.27  OA
ATOM     27  N   PRO B   7      54.620  25.937  -5.613  1.00 42.91 LIG-0.34  N 
ATOM     28  CA  PRO B   7      56.004  25.916  -5.130  1.00 43.88 LIG 0.17  C 
ATOM     29  CD  PRO B   7      54.100  24.565  -5.763  1.00 40.67 LIG 0.13  C 
ATOM     30  CB  PRO B   7      56.396  24.451  -5.287  1.00 44.00 LIG 0.04  C 
ATOM     31  CG  PRO B   7      55.113  23.745  -4.986  1.00 40.06 LIG 0.02  C 
BRANCH 28 32
ATOM     32  C   PRO B   7      56.926  26.854  -5.907  1.00 46.53 LIG 0.22  C 
ATOM     33 O    PRO B   7      58.129  26.614  -6.012  1.00 48.18 LIG-0.29  OA
ENDBRANCH 28 32
ENDBRANCH 20 25
ENDBRANCH 17 20
ENDBRANCH 15 16
BRANCH 15 34
ATOM     34  CB  PHE B   5      49.380  25.914  -3.375  1.00 34.18 LIG 0.07  C 
BRANCH 34 35
ATOM     35  CG  PHE B   5      48.760  25.843  -4.745  1.00 39.37 LIG-0.06  A 
ATOM     36  CD2 PHE B   5      49.043  24.779  -5.598  1.00 41.89 LIG 0.01  A 
ATOM     37  CE2 PHE B   5      48.498  24.729  -6.884  1.00 44.83 LIG 0.00  A 
ATOM     38  CZ  PHE B   5      47.659  25.749  -7.325  1.00 42.42 LIG 0.00  A 
ATOM     39  CE1 PHE B   5      47.368  26.816  -6.479  1.00 44.61 LIG 0.00  A 
ATOM     40  CD1 PHE B   5      47.918  26.858  -5.196  1.00 43.39 LIG 0.01  A 
ENDBRANCH 34 35
ENDBRANCH 15 34
ENDBRANCH 13 15
ENDBRANCH 1 11
BRANCH 1 41
ATOM     41  N   TYR B   4      52.969  25.358   0.169  1.00 19.41 LIG-0.35  N 
ATOM     42 H    TYR B   4      52.838  26.012   0.711  1.00 19.41 LIG 0.16  HD
ATOM     43  C   ALA B   3      54.040  25.221  -0.601  1.00 19.00 LIG 0.24  C 
ATOM     44 O    ALA B   3      54.204  24.250  -1.341  1.00 18.56 LIG-0.27  OA
BRANCH 43 45
ATOM     45  CA  ALA B   3      55.092  26.321  -0.509  1.00 21.06 LIG 0.17  C 
ATOM     46  CB  ALA B   3      55.654  26.625  -1.885  1.00 20.02 LIG 0.04  C 
BRANCH 45 47
ATOM     47  N   ALA B   3      56.155  25.876   0.378  1.00 19.71 LIG-0.35  N 
ATOM     48 H    ALA B   3      56.844  25.553  -0.023  1.00 19.71 LIG 0.16  HD
ATOM     49  C   ILE B   2      56.038  25.975   1.695  1.00 19.11 LIG 0.24  C 
ATOM     50 O    ILE B   2      55.065  26.483   2.246  1.00 19.33 LIG-0.27  OA
BRANCH 49 51
ATOM     51  CA  ILE B   2      57.205  25.444   2.513  1.00 18.55 LIG 0.18  C 
BRANCH 51 52
ATOM     52  CB  ILE B   2      56.817  24.079   3.121  1.00 21.29 LIG 0.01  C 
ATOM     53  CG2 ILE B   2      55.431  24.158   3.759  1.00 18.18 LIG 0.01  C 
BRANCH 52 54
ATOM     54  CG1 ILE B   2      56.856  23.000   2.036  1.00 26.11 LIG 0.00  C 
ATOM     55  CD1 ILE B   2      57.799  23.301   0.885  1.00 36.60 LIG 0.01  C 
ENDBRANCH 52 54
ENDBRANCH 51 52
BRANCH 51 56
ATOM     56  N   ILE B   2      57.559  26.392   3.556  1.00 18.11 LIG-0.35  N 
ATOM     57 H    ILE B   2      57.107  26.304   4.282  1.00 18.11 LIG 0.16  HD
ATOM     58  C   ALA B   1      58.504  27.305   3.379  1.00 22.52 LIG 0.25  C 
ATOM     59 O    ALA B   1      59.151  27.410   2.338  1.00 25.87 LIG-0.27  OA
BRANCH 58 60
ATOM     60  CA  ALA B   1      58.761  28.234   4.556  1.00 19.14 LIG 0.27  C 
ATOM     61  CB  ALA B   1      57.777  29.399   4.518  1.00 16.49 LIG 0.05  C 
BRANCH 60 62
ATOM     62  N   ALA B   1      60.128  28.729   4.503  1.00 20.16 LIG-0.07  N 
ATOM     63 H3   ALA B   1      60.493  28.509   3.722  1.00 20.16 LIG 0.28  HD
ATOM     64 H2   ALA B   1      60.601  28.366   5.164  1.00 20.16 LIG 0.28  HD
ATOM     65 H1   ALA B   1      60.128  29.615   4.591  1.00 20.16 LIG 0.28  HD
ENDBRANCH 60 62
ENDBRANCH 58 60
ENDBRANCH 51 56
ENDBRANCH 49 51
ENDBRANCH 45 47
ENDBRANCH 43 45
ENDBRANCH 1 41
TORSDOF 22
ENDMDL
MODEL 3
USER: ADFR SOLUTION from run 71
USER: SCORE 18.202762 LL:  -6.310 LR: -15.120 RR:   0.000 FEB:  -8.557
USER: RMSD 1.850301
USER: SEED 70
USER: STATUS no improvement in best in 1 clusters for 5 generations
USER: GENES 24
USER: genes 0 Translation |==|  0.37673 0.39082 0.60328
USER: genes 1 Rotation |==|  0.49565 0.49096 0.48065 0.99952
USER: genes 2 Torsion [C]-CA--CB-[CG] |==|  0.45269
USER: genes 3 Torsion [CA]-CB--CG-[CD2] |==|  0.71385
USER: genes 4 Torsion [CE2]-CZ--OH-[HH] |==|  0.50056
USER: genes 5 Torsion [N]-CA--C-[N] |==|  0.93721
USER: genes 6 Torsion [C]-N--CA-[CB] |==|  0.25859
USER: genes 7 Torsion [N]-CA--C-[N] |==|  0.28897
USER: genes 8 Torsion [C]-N--CA-[C] |==|  0.70746
USER: genes 9 Torsion [N]-CA--CB-[CG2] |==|  0.55316
USER: genes 10 Torsion [CA]-CB--CG1-[CD1] |==|  0.47333
USER: genes 11 Torsion [N]-CA--C-[N] |==|  0.85583
USER: genes 12 Torsion [N]-CA--C-[O] |==|  0.71527
USER: genes 13 Torsion [N]-CA--CB-[CG] |==|  0.50386
USER: genes 14 Torsion [CA]-CB--CG-[CD2] |==|  0.77738
USER: genes 15 Torsion [CB]-CA--N-[C] |==|  0.44319
USER: genes 16 Torsion [N]-C--CA-[N] |==|  0.30626
USER: genes 17 Torsion [C]-CA--N-[C] |==|  0.74323
USER: genes 18 Torsion [N]-C--CA-[N] |==|  0.36779
USER: genes 19 Torsion [C]-CA--CB-[CG2] |==|  0.10440
USER: genes 20 Torsion [CA]-CB--CG1-[CD1] |==|  0.71165
USER: genes 21 Torsion [C]-CA--N-[C] |==|  0.70795
USER: genes 22 Torsion [N]-C--CA-[N] |==|  0.48261
USER: genes 23 Torsion [C]-CA--N-[H3] |==|  0.83868
ROOT
ATOM      1  CA  TYR B   4      51.797  24.307   0.089  1.00 23.69 LIG 0.18  C 
ENDROOT
BRANCH 1 2
ATOM      2  CB  TYR B   4      50.710  24.604   1.121  1.00 21.78 LIG 0.07  C 
BRANCH 2 3
ATOM      3  CG  TYR B   4      51.118  24.206   2.524  1.00 24.88 LIG-0.06  A 
ATOM      4  CD2 TYR B   4      50.617  23.041   3.104  1.00 24.05 LIG 0.01  A 
ATOM      5  CE2 TYR B   4      51.015  22.637   4.375  1.00 20.83 LIG 0.04  A 
ATOM      6  CZ  TYR B   4      51.923  23.402   5.084  1.00 22.15 LIG 0.07  A 
ATOM      7  CE1 TYR B   4      52.439  24.572   4.535  1.00 19.14 LIG 0.04  A 
ATOM      8  CD1 TYR B   4      52.034  24.968   3.258  1.00 18.71 LIG 0.01  A 
BRANCH 6 9
ATOM      9 OH   TYR B   4      52.319  22.981   6.333  1.00 23.41 LIG-0.36  OA
ATOM     10 HH   TYR B   4      52.866  23.532   6.653  1.00 23.41 LIG 0.22  HD
ENDBRANCH 6 9
ENDBRANCH 2 3
ENDBRANCH 1 2
BRANCH 1 11
ATOM     11  C   TYR B   4      51.238  24.315  -1.332  1.00 26.86 LIG 0.24  C 
ATOM     12 O    TYR B   4      50.637  23.341  -1.782  1.00 26.35 LIG-0.27  OA
ATOM     13  N   PHE B   5      51.454  25.423  -2.034  1.00 27.52 LIG-0.35  N 
ATOM     14 H    PHE B   5      51.857  26.115  -1.720  1.00 27.52 LIG 0.16  HD
BRANCH 13 15
ATOM     15  CA  PHE B   5      51.019  25.564  -3.421  1.00 31.98 LIG 0.18  C 
BRANCH 15 16
ATOM     16  C   PHE B   5      52.013  26.382  -4.234  1.00 33.78 LIG 0.24  C 
ATOM     17  N   ILE B   6      52.797  25.695  -5.056  1.00 31.71 LIG-0.35  N 
ATOM     18 H    ILE B   6      52.770  24.840  -5.144  1.00 31.71 LIG 0.16  HD
ATOM     19 O    PHE B   5      52.071  27.608  -4.116  1.00 29.51 LIG-0.27  OA
BRANCH 17 20
ATOM     20  CA  ILE B   6      53.789  26.353  -5.895  1.00 36.87 LIG 0.18  C 
BRANCH 20 21
ATOM     21  CB  ILE B   6      55.141  25.614  -5.834  1.00 37.14 LIG 0.01  C 
ATOM     22  CG2 ILE B   6      56.256  26.532  -6.303  1.00 36.45 LIG 0.01  C 
BRANCH 21 23
ATOM     23  CG1 ILE B   6      55.413  25.151  -4.400  1.00 37.87 LIG 0.00  C 
ATOM     24  CD1 ILE B   6      56.597  24.220  -4.265  1.00 36.09 LIG 0.01  C 
ENDBRANCH 21 23
ENDBRANCH 20 21
BRANCH 20 25
ATOM     25  C   ILE B   6      53.290  26.376  -7.340  1.00 41.32 LIG 0.24  C 
ATOM     26 O    ILE B   6      53.268  27.429  -7.980  1.00 41.04 LIG-0.27  OA
ATOM     27  N   PRO B   7      52.890  25.207  -7.873  1.00 42.91 LIG-0.34  N 
ATOM     28  CA  PRO B   7      52.394  25.100  -9.248  1.00 43.88 LIG 0.17  C 
ATOM     29  CD  PRO B   7      52.828  23.900  -7.193  1.00 40.67 LIG 0.13  C 
ATOM     30  CB  PRO B   7      51.741  23.722  -9.266  1.00 44.00 LIG 0.04  C 
ATOM     31  CG  PRO B   7      52.625  22.940  -8.350  1.00 40.06 LIG 0.02  C 
BRANCH 28 32
ATOM     32  C   PRO B   7      51.418  26.214  -9.623  1.00 46.53 LIG 0.22  C 
ATOM     33 O    PRO B   7      50.205  26.006  -9.659  1.00 48.18 LIG-0.29  OA
ENDBRANCH 28 32
ENDBRANCH 20 25
ENDBRANCH 17 20
ENDBRANCH 15 16
BRANCH 15 34
ATOM     34  CB  PHE B   5      49.636  26.212  -3.509  1.00 34.18 LIG 0.07  C 
BRANCH 34 35
ATOM     35  CG  PHE B   5      49.125  26.349  -4.918  1.00 39.37 LIG-0.06  A 
ATOM     36  CD2 PHE B   5      49.560  27.392  -5.732  1.00 41.89 LIG 0.01  A 
ATOM     37  CE2 PHE B   5      49.061  27.543  -7.029  1.00 44.83 LIG 0.00  A 
ATOM     38  CZ  PHE B   5      48.119  26.644  -7.521  1.00 42.42 LIG 0.00  A 
ATOM     39  CE1 PHE B   5      47.678  25.598  -6.716  1.00 44.61 LIG 0.00  A 
ATOM     40  CD1 PHE B   5      48.182  25.454  -5.421  1.00 43.39 LIG 0.01  A 
ENDBRANCH 34 35
ENDBRANCH 15 34
ENDBRANCH 13 15
ENDBRANCH 1 11
BRANCH 1 41
ATOM     41  N   TYR B   4      52.882  25.265   0.209  1.00 19.41 LIG-0.35  N 
ATOM     42 H    TYR B   4      52.677  25.999   0.608  1.00 19.41 LIG 0.16  HD
ATOM     43  C   ALA B   3      54.081  24.983  -0.278  1.00 19.00 LIG 0.24  C 
ATOM     44 O    ALA B   3      54.341  23.906  -0.816  1.00 18.56 LIG-0.27  OA
BRANCH 43 45
ATOM     45  CA  ALA B   3      55.154  26.055  -0.117  1.00 21.06 LIG 0.17  C 
ATOM     46  CB  ALA B   3      55.822  26.333  -1.451  1.00 20.02 LIG 0.04  C 
BRANCH 45 47
ATOM     47  N   ALA B   3      56.137  25.589   0.847  1.00 19.71 LIG-0.35  N 
ATOM     48 H    ALA B   3      56.775  25.121   0.511  1.00 19.71 LIG 0.16  HD
ATOM     49  C   ILE B   2      56.029  25.882   2.136  1.00 19.11 LIG 0.24  C 
ATOM     50 O    ILE B   2      55.136  26.592   2.589  1.00 19.33 LIG-0.27  OA
BRANCH 49 51
ATOM     51  CA  ILE B   2      57.103  25.308   3.046  1.00 18.55 LIG 0.18  C 
BRANCH 51 52
ATOM     52  CB  ILE B   2      56.507  24.137   3.856  1.00 21.29 LIG 0.01  C 
ATOM     53  CG2 ILE B   2      55.537  23.334   2.992  1.00 18.18 LIG 0.01  C 
BRANCH 52 54
ATOM     54  CG1 ILE B   2      57.634  23.245   4.383  1.00 26.11 LIG 0.00  C 
ATOM     55  CD1 ILE B   2      57.809  21.942   3.624  1.00 36.60 LIG 0.01  C 
ENDBRANCH 52 54
ENDBRANCH 51 52
BRANCH 51 56
ATOM     56  N   ILE B   2      57.616  26.340   3.931  1.00 18.11 LIG-0.35  N 
ATOM     57 H    ILE B   2      57.085  26.550   4.574  1.00 18.11 LIG 0.16  HD
ATOM     58  C   ALA B   1      58.805  26.895   3.743  1.00 22.52 LIG 0.25  C 
ATOM     59 O    ALA B   1      59.558  26.575   2.824  1.00 25.87 LIG-0.27  OA
BRANCH 58 60
ATOM     60  CA  ALA B   1      59.205  27.968   4.744  1.00 19.14 LIG 0.27  C 
ATOM     61  CB  ALA B   1      58.269  29.166   4.619  1.00 16.49 LIG 0.05  C 
BRANCH 60 62
ATOM     62  N   ALA B   1      60.581  28.377   4.503  1.00 20.16 LIG-0.07  N 
ATOM     63 H3   ALA B   1      61.117  27.669   4.565  1.00 20.16 LIG 0.28  HD
ATOM     64 H2   ALA B   1      60.820  28.984   5.108  1.00 20.16 LIG 0.28  HD
ATOM     65 H1   ALA B   1      60.648  28.728   3.688  1.00 20.16 LIG 0.28  HD
ENDBRANCH 60 62
ENDBRANCH 58 60
ENDBRANCH 51 56
ENDBRANCH 49 51
ENDBRANCH 45 47
ENDBRANCH 43 45
ENDBRANCH 1 41
TORSDOF 22
ENDMDL
