MODEL 1
USER: ADFR SOLUTION from run 200
USER: SCORE 20.137082 LL:  -4.490 LR: -16.285 RR:   0.000 FEB:  -9.722
USER: RMSD 3.619306
USER: SEED 199
USER: STATUS no improvement in best in 3 clusters for 5 generations
USER: GENES 24
USER: genes 0 Translation |==|  0.47103 0.49310 0.76777
USER: genes 1 Rotation |==|  0.52440 0.50232 0.39726 0.98872
USER: genes 2 Torsion [C]-CA--N-[C] |==|  0.83157
USER: genes 3 Torsion [N]-C--CA-[N] |==|  0.04753
USER: genes 4 Torsion [N]-C--CA-[N] |==|  0.13277
USER: genes 5 Torsion [C]-CA--CB-[CG] |==|  0.27178
USER: genes 6 Torsion [CA]-CB--CG-[CD2] |==|  0.35988
USER: genes 7 Torsion [C]-CA--N-[C] |==|  0.16667
USER: genes 8 Torsion [N]-C--CA-[N] |==|  0.92718
USER: genes 9 Torsion [C]-CA--CB-[SG] |==|  0.56263
USER: genes 10 Torsion [CA]-CB--SG-[HG] |==|  0.20701
USER: genes 11 Torsion [C]-CA--N-[C] |==|  0.82664
USER: genes 12 Torsion [N]-CA--CB-[CG] |==|  0.33498
USER: genes 13 Torsion [CA]-CB--CG-[CD] |==|  0.34235
USER: genes 14 Torsion [CB]-CG--CD-[NE2] |==|  0.70881
USER: genes 15 Torsion [N]-CA--C-[N] |==|  0.89636
USER: genes 16 Torsion [C]-N--CA-[C] |==|  0.61798
USER: genes 17 Torsion [N]-CA--CB-[CG] |==|  0.73581
USER: genes 18 Torsion [CA]-CB--CG-[ND2] |==|  0.98518
USER: genes 19 Torsion [N]-CA--C-[N] |==|  0.25556
USER: genes 20 Torsion [C]-N--CA-[C] |==|  0.81805
USER: genes 21 Torsion [N]-CA--C-[N] |==|  0.35891
USER: genes 22 Torsion [N]-CA--CB-[OG1] |==|  0.90969
USER: genes 23 Torsion [CA]-CB--OG1-[HG1] |==|  0.23934
ROOT
ATOM      1  CA  GLN M   4      35.148  13.631  -4.916  1.00 40.00 LIG 0.18  C 
ENDROOT
BRANCH 1 2
ATOM      2  N   GLN M   4      35.055  14.533  -6.022  1.00 41.31 LIG-0.35  N 
ATOM      3 H    GLN M   4      34.303  14.540  -6.440  1.00 41.31 LIG 0.16  HD
ATOM      4  C   PRO M   3      36.116  15.283  -6.319  1.00 42.91 LIG 0.24  C 
ATOM      5 O    PRO M   3      37.167  15.238  -5.644  1.00 42.50 LIG-0.27  OA
BRANCH 4 6
ATOM      6  CA  PRO M   3      35.965  16.238  -7.508  1.00 43.35 LIG 0.18  C 
ATOM      7  N   PRO M   3      34.613  16.531  -7.959  1.00 44.79 LIG-0.34  N 
ATOM      8  C   HIS M   2      33.815  15.657  -8.633  1.00 46.46 LIG 0.24  C 
ATOM      9  CD  PRO M   3      34.353  17.975  -7.790  1.00 43.94 LIG 0.13  C 
ATOM     10 O    HIS M   2      34.107  14.472  -8.861  1.00 45.68 LIG-0.27  OA
ATOM     11  CG  PRO M   3      35.351  18.390  -6.750  1.00 40.61 LIG 0.02  C 
ATOM     12  CB  PRO M   3      36.518  17.635  -7.278  1.00 40.36 LIG 0.04  C 
BRANCH 8 13
ATOM     13  CA  HIS M   2      32.481  16.192  -9.102  1.00 46.79 LIG 0.18  C 
BRANCH 13 14
ATOM     14  CB  HIS M   2      31.807  15.150 -10.055  1.00 44.05 LIG 0.10  C 
BRANCH 14 15
ATOM     15  CG  HIS M   2      30.780  14.288  -9.315  1.00 42.32 LIG 0.06  A 
ATOM     16  CD2 HIS M   2      29.491  14.067  -9.733  1.00 41.49 LIG 0.14  A 
ATOM     17 NE2  HIS M   2      28.949  13.498  -8.691  1.00 41.41 LIG-0.25  NA
ATOM     18  CE1 HIS M   2      29.840  13.375  -7.718  1.00 41.50 LIG 0.23  A 
ATOM     19 ND1  HIS M   2      31.006  13.859  -8.080  1.00 40.17 LIG-0.24  NA
ENDBRANCH 14 15
ENDBRANCH 13 14
BRANCH 13 20
ATOM     20  N   HIS M   2      32.693  17.475  -9.761  1.00 53.14 LIG-0.35  N 
ATOM     21 H    HIS M   2      32.277  18.131  -9.392  1.00 53.14 LIG 0.16  HD
ATOM     22  C   CYS M   1      33.467  17.608 -10.842  0.42 52.47 LIG 0.24  C 
ATOM     23 O    CYS M   1      34.025  16.660 -11.405  0.42 50.41 LIG-0.27  OA
BRANCH 22 24
ATOM     24  CA  CYS M   1      33.593  19.050 -11.334  0.42 53.64 LIG 0.18  C 
BRANCH 24 25
ATOM     25  CB  CYS M   1      34.848  19.675 -10.770  0.42 54.18 LIG 0.10  C 
BRANCH 25 26
ATOM     26 SG   CYS M   1      34.603  21.463 -10.807  0.42 57.26 LIG-0.18  SA
ATOM     27 HG   CYS M   1      33.844  21.781  -9.934  0.42 57.26 LIG 0.10  HD
ENDBRANCH 25 26
ENDBRANCH 24 25
BRANCH 24 28
ATOM     28  N   CYS M   1      32.433  19.842 -10.953  0.42 53.99 LIG-0.38  N 
ATOM     29  C   ACE M   0      31.204  19.559 -11.388  0.42 54.55 LIG 0.04  C 
ATOM     30  CH3 ACE M   0      30.013  20.395 -10.941  0.42 54.45 LIG 0.05  C 
ATOM     31 H    CYS M   1      32.613  20.499 -10.429  0.42 53.99 LIG 0.16  HD
ENDBRANCH 24 28
ENDBRANCH 22 24
ENDBRANCH 13 20
ENDBRANCH 8 13
ENDBRANCH 4 6
ENDBRANCH 1 2
BRANCH 1 32
ATOM     32  CB  GLN M   4      33.831  12.902  -4.733  1.00 35.03 LIG 0.04  C 
BRANCH 32 33
ATOM     33  CG  GLN M   4      34.078  11.397  -4.867  1.00 28.64 LIG 0.10  C 
BRANCH 33 34
ATOM     34  CD  GLN M   4      33.634  10.600  -3.659  1.00 28.38 LIG 0.21  C 
ATOM     35  NE2 GLN M   4      34.632  10.180  -2.878  1.00 21.52 LIG-0.37  N 
ATOM     36 22HE GLN M   4      34.462   9.715  -2.175  1.00 21.52 LIG 0.16  HD
ATOM     37 21HE GLN M   4      35.446  10.374  -3.078  1.00 21.52 LIG 0.16  HD
ATOM     38 OE1  GLN M   4      32.427  10.363  -3.441  1.00 23.11 LIG-0.27  OA
ENDBRANCH 33 34
ENDBRANCH 32 33
ENDBRANCH 1 32
BRANCH 1 39
ATOM     39  C   GLN M   4      36.261  12.638  -5.194  1.00 43.11 LIG 0.24  C 
ATOM     40  N   ASN M   5      36.366  12.254  -6.454  1.00 48.15 LIG-0.35  N 
ATOM     41 H    ASN M   5      35.888  12.551  -7.104  1.00 48.15 LIG 0.16  HD
ATOM     42 O    GLN M   4      37.051  12.269  -4.322  1.00 42.77 LIG-0.27  OA
BRANCH 40 43
ATOM     43  CA  ASN M   5      37.353  11.253  -6.808  1.00 54.08 LIG 0.18  C 
BRANCH 43 44
ATOM     44  CB  ASN M   5      36.618   9.880  -6.924  1.00 57.18 LIG 0.14  C 
BRANCH 44 45
ATOM     45  CG  ASN M   5      36.623   8.955  -5.673  1.00 60.38 LIG 0.22  C 
ATOM     46  ND2 ASN M   5      37.305   9.238  -4.562  1.00 60.67 LIG-0.37  N 
ATOM     47 22HD ASN M   5      37.783   9.951  -4.521  1.00 60.67 LIG 0.16  HD
ATOM     48 21HD ASN M   5      37.267   8.706  -3.887  1.00 60.67 LIG 0.16  HD
ATOM     49 OD1  ASN M   5      35.971   7.907  -5.622  1.00 60.50 LIG-0.27  OA
ENDBRANCH 44 45
ENDBRANCH 43 44
BRANCH 43 50
ATOM     50  C   ASN M   5      38.032  11.667  -8.098  1.00 53.60 LIG 0.24  C 
ATOM     51 O    ASN M   5      37.486  11.390  -9.166  1.00 54.31 LIG-0.27  OA
ATOM     52  N   THR M   6      39.147  12.386  -8.052  0.00 53.23 LIG-0.34  N 
ATOM     53 H    THR M   6      39.527  12.652  -7.327  0.00 53.23 LIG 0.16  HD
BRANCH 52 54
ATOM     54  CA  THR M   6      39.816  12.778  -9.272  0.00 52.61 LIG 0.21  C 
BRANCH 54 55
ATOM     55  C   THR M   6      40.342  11.530  -9.986  0.00 52.44 LIG 0.29  C 
ATOM     56  N   NH2 M   7      40.035  11.396 -11.270  0.00 52.35 LIG-0.11  N 
ATOM     57 O    THR M   6      40.965  10.641  -9.410  0.00 52.24 LIG-0.27  OA
ENDBRANCH 54 55
BRANCH 54 58
ATOM     58  CB  THR M   6      40.930  13.801  -8.881  0.00 52.38 LIG 0.15  C 
ATOM     59  CG2 THR M   6      41.354  14.773  -9.981  0.00 52.30 LIG 0.04  C 
BRANCH 58 60
ATOM     60 OG1  THR M   6      40.390  14.492  -7.762  0.00 52.26 LIG-0.39  OA
ATOM     61 HG1  THR M   6      40.561  14.065  -7.059  0.00 52.26 LIG 0.21  HD
ENDBRANCH 58 60
ENDBRANCH 54 58
ENDBRANCH 52 54
ENDBRANCH 43 50
ENDBRANCH 40 43
ENDBRANCH 1 39
TORSDOF 22
ENDMDL
MODEL 2
USER: ADFR SOLUTION from run 175
USER: SCORE 18.949346 LL:  -4.927 LR: -15.133 RR:   0.000 FEB:  -8.571
USER: RMSD 3.200416
USER: SEED 174
USER: STATUS no improvement in best in 7 clusters for 5 generations
USER: GENES 24
USER: genes 0 Translation |==|  0.47866 0.49058 0.76922
USER: genes 1 Rotation |==|  0.49395 0.51109 0.38296 0.98594
USER: genes 2 Torsion [C]-CA--N-[C] |==|  0.80909
USER: genes 3 Torsion [N]-C--CA-[N] |==|  0.02630
USER: genes 4 Torsion [N]-C--CA-[N] |==|  0.46470
USER: genes 5 Torsion [C]-CA--CB-[CG] |==|  0.59790
USER: genes 6 Torsion [CA]-CB--CG-[CD2] |==|  0.32234
USER: genes 7 Torsion [C]-CA--N-[C] |==|  0.80794
USER: genes 8 Torsion [N]-C--CA-[N] |==|  0.05411
USER: genes 9 Torsion [C]-CA--CB-[SG] |==|  0.45310
USER: genes 10 Torsion [CA]-CB--SG-[HG] |==|  0.62661
USER: genes 11 Torsion [C]-CA--N-[C] |==|  0.64809
USER: genes 12 Torsion [N]-CA--CB-[CG] |==|  0.30170
USER: genes 13 Torsion [CA]-CB--CG-[CD] |==|  0.35432
USER: genes 14 Torsion [CB]-CG--CD-[NE2] |==|  0.73125
USER: genes 15 Torsion [N]-CA--C-[N] |==|  0.94075
USER: genes 16 Torsion [C]-N--CA-[C] |==|  0.59426
USER: genes 17 Torsion [N]-CA--CB-[CG] |==|  0.70779
USER: genes 18 Torsion [CA]-CB--CG-[ND2] |==|  0.00119
USER: genes 19 Torsion [N]-CA--C-[N] |==|  0.25000
USER: genes 20 Torsion [C]-N--CA-[C] |==|  0.78287
USER: genes 21 Torsion [N]-CA--C-[N] |==|  0.20625
USER: genes 22 Torsion [N]-CA--CB-[OG1] |==|  0.90145
USER: genes 23 Torsion [CA]-CB--OG1-[HG1] |==|  0.21473
ROOT
ATOM      1  CA  GLN M   4      35.308  13.587  -4.884  1.00 40.00 LIG 0.18  C 
ENDROOT
BRANCH 1 2
ATOM      2  N   GLN M   4      35.190  14.367  -6.077  1.00 41.31 LIG-0.35  N 
ATOM      3 H    GLN M   4      34.450  14.288  -6.507  1.00 41.31 LIG 0.16  HD
ATOM      4  C   PRO M   3      36.214  15.144  -6.429  1.00 42.91 LIG 0.24  C 
ATOM      5 O    PRO M   3      37.250  15.229  -5.735  1.00 42.50 LIG-0.27  OA
BRANCH 4 6
ATOM      6  CA  PRO M   3      36.038  15.964  -7.712  1.00 43.35 LIG 0.18  C 
ATOM      7  N   PRO M   3      34.711  15.989  -8.309  1.00 44.79 LIG-0.34  N 
ATOM      8  C   HIS M   2      34.139  14.943  -8.967  1.00 46.46 LIG 0.24  C 
ATOM      9  CD  PRO M   3      34.207  17.378  -8.301  1.00 43.94 LIG 0.13  C 
ATOM     10 O    HIS M   2      34.639  13.810  -9.055  1.00 45.68 LIG-0.27  OA
ATOM     11  CG  PRO M   3      35.012  18.035  -7.219  1.00 40.61 LIG 0.02  C 
ATOM     12  CB  PRO M   3      36.333  17.449  -7.565  1.00 40.36 LIG 0.04  C 
BRANCH 8 13
ATOM     13  CA  HIS M   2      32.793  15.208  -9.603  1.00 46.79 LIG 0.18  C 
BRANCH 13 14
ATOM     14  CB  HIS M   2      31.712  15.381  -8.484  1.00 44.05 LIG 0.10  C 
BRANCH 14 15
ATOM     15  CG  HIS M   2      30.358  14.806  -8.912  1.00 42.32 LIG 0.06  A 
ATOM     16  CD2 HIS M   2      29.727  13.747  -8.309  1.00 41.49 LIG 0.14  A 
ATOM     17 NE2  HIS M   2      28.763  13.477  -9.146  1.00 41.41 LIG-0.25  NA
ATOM     18  CE1 HIS M   2      28.799  14.312 -10.174  1.00 41.50 LIG 0.23  A 
ATOM     19 ND1  HIS M   2      29.791  15.166 -10.056  1.00 40.17 LIG-0.24  NA
ENDBRANCH 14 15
ENDBRANCH 13 14
BRANCH 13 20
ATOM     20  N   HIS M   2      32.472  14.107 -10.503  1.00 53.14 LIG-0.35  N 
ATOM     21 H    HIS M   2      31.822  13.612 -10.233  1.00 53.14 LIG 0.16  HD
ATOM     22  C   CYS M   1      33.135  13.895 -11.644  0.42 52.47 LIG 0.24  C 
ATOM     23 O    CYS M   1      34.101  14.572 -12.010  0.42 50.41 LIG-0.27  OA
BRANCH 22 24
ATOM     24  CA  CYS M   1      32.593  12.719 -12.459  0.42 53.64 LIG 0.18  C 
BRANCH 24 25
ATOM     25  CB  CYS M   1      32.631  13.058 -13.931  0.42 54.18 LIG 0.10  C 
BRANCH 25 26
ATOM     26 SG   CYS M   1      32.470  11.500 -14.829  0.42 57.26 LIG-0.18  SA
ATOM     27 HG   CYS M   1      33.280  11.463 -15.713  0.42 57.26 LIG 0.10  HD
ENDBRANCH 25 26
ENDBRANCH 24 25
BRANCH 24 28
ATOM     28  N   CYS M   1      31.234  12.383 -12.064  0.42 53.99 LIG-0.38  N 
ATOM     29  C   ACE M   0      30.881  11.147 -11.709  0.42 54.55 LIG 0.04  C 
ATOM     30  CH3 ACE M   0      29.454  10.844 -11.274  0.42 54.45 LIG 0.05  C 
ATOM     31 H    CYS M   1      30.689  13.048 -12.081  0.42 53.99 LIG 0.16  HD
ENDBRANCH 24 28
ENDBRANCH 22 24
ENDBRANCH 13 20
ENDBRANCH 8 13
ENDBRANCH 4 6
ENDBRANCH 1 2
BRANCH 1 32
ATOM     32  CB  GLN M   4      33.970  12.962  -4.542  1.00 35.03 LIG 0.04  C 
BRANCH 32 33
ATOM     33  CG  GLN M   4      34.046  11.457  -4.810  1.00 28.64 LIG 0.10  C 
BRANCH 33 34
ATOM     34  CD  GLN M   4      33.615  10.609  -3.632  1.00 28.38 LIG 0.21  C 
ATOM     35  NE2 GLN M   4      34.621  10.167  -2.873  1.00 21.52 LIG-0.37  N 
ATOM     36 22HE GLN M   4      34.458   9.674  -2.188  1.00 21.52 LIG 0.16  HD
ATOM     37 21HE GLN M   4      35.432  10.377  -3.069  1.00 21.52 LIG 0.16  HD
ATOM     38 OE1  GLN M   4      32.411  10.353  -3.418  1.00 23.11 LIG-0.27  OA
ENDBRANCH 33 34
ENDBRANCH 32 33
ENDBRANCH 1 32
BRANCH 1 39
ATOM     39  C   GLN M   4      36.348  12.506  -5.112  1.00 43.11 LIG 0.24  C 
ATOM     40  N   ASN M   5      36.580  12.214  -6.380  1.00 48.15 LIG-0.35  N 
ATOM     41 H    ASN M   5      36.223  12.611  -7.054  1.00 48.15 LIG 0.16  HD
ATOM     42 O    GLN M   4      36.975  11.987  -4.188  1.00 42.77 LIG-0.27  OA
BRANCH 40 43
ATOM     43  CA  ASN M   5      37.505  11.144  -6.701  1.00 54.08 LIG 0.18  C 
BRANCH 43 44
ATOM     44  CB  ASN M   5      36.681   9.823  -6.818  1.00 57.18 LIG 0.14  C 
BRANCH 44 45
ATOM     45  CG  ASN M   5      36.790   8.803  -5.648  1.00 60.38 LIG 0.22  C 
ATOM     46  ND2 ASN M   5      37.540   9.014  -4.566  1.00 60.67 LIG-0.37  N 
ATOM     47 22HD ASN M   5      38.004   9.735  -4.499  1.00 60.67 LIG 0.16  HD
ATOM     48 21HD ASN M   5      37.559   8.430  -3.935  1.00 60.67 LIG 0.16  HD
ATOM     49 OD1  ASN M   5      36.165   7.737  -5.639  1.00 60.50 LIG-0.27  OA
ENDBRANCH 44 45
ENDBRANCH 43 44
BRANCH 43 50
ATOM     50  C   ASN M   5      38.238  11.495  -7.980  1.00 53.60 LIG 0.24  C 
ATOM     51 O    ASN M   5      37.714  11.209  -9.056  1.00 54.31 LIG-0.27  OA
ATOM     52  N   THR M   6      39.378  12.172  -7.919  0.00 53.23 LIG-0.34  N 
ATOM     53 H    THR M   6      39.745  12.445  -7.190  0.00 53.23 LIG 0.16  HD
BRANCH 52 54
ATOM     54  CA  THR M   6      40.099  12.503  -9.127  0.00 52.61 LIG 0.21  C 
BRANCH 54 55
ATOM     55  C   THR M   6      40.860  11.270  -9.619  0.00 52.44 LIG 0.29  C 
ATOM     56  N   NH2 M   7      40.146  10.307 -10.186  0.00 52.35 LIG-0.11  N 
ATOM     57 O    THR M   6      42.068  11.118  -9.450  0.00 52.24 LIG-0.27  OA
ENDBRANCH 54 55
BRANCH 54 58
ATOM     58  CB  THR M   6      41.014  13.726  -8.800  0.00 52.38 LIG 0.15  C 
ATOM     59  CG2 THR M   6      41.459  14.562  -9.999  0.00 52.30 LIG 0.04  C 
BRANCH 58 60
ATOM     60 OG1  THR M   6      40.249  14.500  -7.886  0.00 52.26 LIG-0.39  OA
ATOM     61 HG1  THR M   6      40.279  14.146  -7.125  0.00 52.26 LIG 0.21  HD
ENDBRANCH 58 60
ENDBRANCH 54 58
ENDBRANCH 52 54
ENDBRANCH 43 50
ENDBRANCH 40 43
ENDBRANCH 1 39
TORSDOF 22
ENDMDL
MODEL 3
USER: ADFR SOLUTION from run 109
USER: SCORE 17.846344 LL:  -4.123 LR: -15.077 RR:   0.000 FEB:  -8.514
USER: RMSD 3.913614
USER: SEED 108
USER: STATUS searching
USER: GENES 24
USER: genes 0 Translation |==|  0.45385 0.51136 0.73328
USER: genes 1 Rotation |==|  0.48292 0.46597 0.43558 0.99437
USER: genes 2 Torsion [C]-CA--N-[C] |==|  0.81788
USER: genes 3 Torsion [N]-C--CA-[N] |==|  0.10542
USER: genes 4 Torsion [N]-C--CA-[N] |==|  0.51626
USER: genes 5 Torsion [C]-CA--CB-[CG] |==|  0.36668
USER: genes 6 Torsion [CA]-CB--CG-[CD2] |==|  0.47161
USER: genes 7 Torsion [C]-CA--N-[C] |==|  0.18809
USER: genes 8 Torsion [N]-C--CA-[N] |==|  0.89631
USER: genes 9 Torsion [C]-CA--CB-[SG] |==|  0.52618
USER: genes 10 Torsion [CA]-CB--SG-[HG] |==|  0.99147
USER: genes 11 Torsion [C]-CA--N-[C] |==|  0.81821
USER: genes 12 Torsion [N]-CA--CB-[CG] |==|  0.49786
USER: genes 13 Torsion [CA]-CB--CG-[CD] |==|  0.54147
USER: genes 14 Torsion [CB]-CG--CD-[NE2] |==|  0.44491
USER: genes 15 Torsion [N]-CA--C-[N] |==|  0.87270
USER: genes 16 Torsion [C]-N--CA-[C] |==|  0.63448
USER: genes 17 Torsion [N]-CA--CB-[CG] |==|  0.83304
USER: genes 18 Torsion [CA]-CB--CG-[ND2] |==|  0.75489
USER: genes 19 Torsion [N]-CA--C-[N] |==|  0.29444
USER: genes 20 Torsion [C]-N--CA-[C] |==|  0.82334
USER: genes 21 Torsion [N]-CA--C-[N] |==|  0.35795
USER: genes 22 Torsion [N]-CA--CB-[OG1] |==|  0.91884
USER: genes 23 Torsion [CA]-CB--OG1-[HG1] |==|  0.18047
ROOT
ATOM      1  CA  GLN M   4      34.787  13.946  -5.692  1.00 40.00 LIG 0.18  C 
ENDROOT
BRANCH 1 2
ATOM      2  N   GLN M   4      34.716  14.606  -6.959  1.00 41.31 LIG-0.35  N 
ATOM      3 H    GLN M   4      34.066  14.369  -7.471  1.00 41.31 LIG 0.16  HD
ATOM      4  C   PRO M   3      35.640  15.521  -7.250  1.00 42.91 LIG 0.24  C 
ATOM      5 O    PRO M   3      36.539  15.833  -6.440  1.00 42.50 LIG-0.27  OA
BRANCH 4 6
ATOM      6  CA  PRO M   3      35.517  16.203  -8.617  1.00 43.35 LIG 0.18  C 
ATOM      7  N   PRO M   3      34.176  16.509  -9.091  1.00 44.79 LIG-0.34  N 
ATOM      8  C   HIS M   2      33.283  15.583  -9.536  1.00 46.46 LIG 0.24  C 
ATOM      9  CD  PRO M   3      34.040  17.972  -9.237  1.00 43.94 LIG 0.13  C 
ATOM     10 O    HIS M   2      33.468  14.356  -9.504  1.00 45.68 LIG-0.27  OA
ATOM     11  CG  PRO M   3      35.112  18.514  -8.338  1.00 40.61 LIG 0.02  C 
ATOM     12  CB  PRO M   3      36.190  17.563  -8.713  1.00 40.36 LIG 0.04  C 
BRANCH 8 13
ATOM     13  CA  HIS M   2      31.978  16.118 -10.081  1.00 46.79 LIG 0.18  C 
BRANCH 13 14
ATOM     14  CB  HIS M   2      31.343  17.100  -9.041  1.00 44.05 LIG 0.10  C 
BRANCH 14 15
ATOM     15  CG  HIS M   2      30.896  18.410  -9.699  1.00 42.32 LIG 0.06  A 
ATOM     16  CD2 HIS M   2      30.131  19.375  -9.092  1.00 41.49 LIG 0.14  A 
ATOM     17 NE2  HIS M   2      29.813  20.154 -10.089  1.00 41.41 LIG-0.25  NA
ATOM     18  CE1 HIS M   2      30.348  19.703 -11.214  1.00 41.50 LIG 0.23  A 
ATOM     19 ND1  HIS M   2      31.041  18.607 -11.004  1.00 40.17 LIG-0.24  NA
ENDBRANCH 14 15
ENDBRANCH 13 14
BRANCH 13 20
ATOM     20  N   HIS M   2      31.095  14.997 -10.379  1.00 53.14 LIG-0.35  N 
ATOM     21 H    HIS M   2      30.942  14.886 -11.218  1.00 53.14 LIG 0.16  HD
ATOM     22  C   CYS M   1      30.577  14.218  -9.425  0.42 52.47 LIG 0.24  C 
ATOM     23 O    CYS M   1      30.753  14.406  -8.217  0.42 50.41 LIG-0.27  OA
BRANCH 22 24
ATOM     24  CA  CYS M   1      29.725  13.069  -9.967  0.42 53.64 LIG 0.18  C 
BRANCH 24 25
ATOM     25  CB  CYS M   1      30.613  11.900 -10.326  0.42 54.18 LIG 0.10  C 
BRANCH 25 26
ATOM     26 SG   CYS M   1      29.581  10.711 -11.208  0.42 57.26 LIG-0.18  SA
ATOM     27 HG   CYS M   1      28.450  11.108 -11.238  0.42 57.26 LIG 0.10  HD
ENDBRANCH 25 26
ENDBRANCH 24 25
BRANCH 24 28
ATOM     28  N   CYS M   1      28.958  13.482 -11.132  0.42 53.99 LIG-0.38  N 
ATOM     29  C   ACE M   0      27.993  14.400 -11.059  0.42 54.55 LIG 0.04  C 
ATOM     30  CH3 ACE M   0      27.234  14.826 -12.309  0.42 54.45 LIG 0.05  C 
ATOM     31 H    CYS M   1      29.183  13.084 -11.860  0.42 53.99 LIG 0.16  HD
ENDBRANCH 24 28
ENDBRANCH 22 24
ENDBRANCH 13 20
ENDBRANCH 8 13
ENDBRANCH 4 6
ENDBRANCH 1 2
BRANCH 1 32
ATOM     32  CB  GLN M   4      33.569  13.064  -5.500  1.00 35.03 LIG 0.04  C 
BRANCH 32 33
ATOM     33  CG  GLN M   4      33.681  12.357  -4.146  1.00 28.64 LIG 0.10  C 
BRANCH 33 34
ATOM     34  CD  GLN M   4      32.726  11.192  -3.992  1.00 28.38 LIG 0.21  C 
ATOM     35  NE2 GLN M   4      33.069  10.321  -3.040  1.00 21.52 LIG-0.37  N 
ATOM     36 22HE GLN M   4      32.580   9.628  -2.895  1.00 21.52 LIG 0.16  HD
ATOM     37 21HE GLN M   4      33.778  10.452  -2.571  1.00 21.52 LIG 0.16  HD
ATOM     38 OE1  GLN M   4      31.714  11.077  -4.715  1.00 23.11 LIG-0.27  OA
ENDBRANCH 33 34
ENDBRANCH 32 33
ENDBRANCH 1 32
BRANCH 1 39
ATOM     39  C   GLN M   4      36.051  13.108  -5.653  1.00 43.11 LIG 0.24  C 
ATOM     40  N   ASN M   5      36.275  12.383  -6.735  1.00 48.15 LIG-0.35  N 
ATOM     41 H    ASN M   5      35.789  12.389  -7.445  1.00 48.15 LIG 0.16  HD
ATOM     42 O    GLN M   4      36.844  13.151  -4.711  1.00 42.77 LIG-0.27  OA
BRANCH 40 43
ATOM     43  CA  ASN M   5      37.419  11.493  -6.767  1.00 54.08 LIG 0.18  C 
BRANCH 43 44
ATOM     44  CB  ASN M   5      36.891  10.033  -6.609  1.00 57.18 LIG 0.14  C 
BRANCH 44 45
ATOM     45  CG  ASN M   5      36.107   9.689  -5.309  1.00 60.38 LIG 0.22  C 
ATOM     46  ND2 ASN M   5      36.700   9.270  -4.191  1.00 60.67 LIG-0.37  N 
ATOM     47 22HD ASN M   5      37.553   9.163  -4.171  1.00 60.67 LIG 0.16  HD
ATOM     48 21HD ASN M   5      36.230   9.107  -3.490  1.00 60.67 LIG 0.16  HD
ATOM     49 OD1  ASN M   5      34.880   9.809  -5.226  1.00 60.50 LIG-0.27  OA
ENDBRANCH 44 45
ENDBRANCH 43 44
BRANCH 43 50
ATOM     50  C   ASN M   5      38.174  11.709  -8.064  1.00 53.60 LIG 0.24  C 
ATOM     51 O    ASN M   5      37.653  11.341  -9.115  1.00 54.31 LIG-0.27  OA
ATOM     52  N   THR M   6      39.331  12.359  -8.049  0.00 53.23 LIG-0.34  N 
ATOM     53 H    THR M   6      39.699  12.687  -7.344  0.00 53.23 LIG 0.16  HD
BRANCH 52 54
ATOM     54  CA  THR M   6      40.072  12.562  -9.274  0.00 52.61 LIG 0.21  C 
BRANCH 54 55
ATOM     55  C   THR M   6      40.501  11.205  -9.839  0.00 52.44 LIG 0.29  C 
ATOM     56  N   NH2 M   7      40.217  10.964 -11.111  0.00 52.35 LIG-0.11  N 
ATOM     57 O    THR M   6      41.025  10.330  -9.152  0.00 52.24 LIG-0.27  OA
ENDBRANCH 54 55
BRANCH 54 58
ATOM     58  CB  THR M   6      41.263  13.517  -8.943  0.00 52.38 LIG 0.15  C 
ATOM     59  CG2 THR M   6      41.759  14.385 -10.098  0.00 52.30 LIG 0.04  C 
BRANCH 58 60
ATOM     60 OG1  THR M   6      40.782  14.313  -7.868  0.00 52.26 LIG-0.39  OA
ATOM     61 HG1  THR M   6      40.649  13.826  -7.196  0.00 52.26 LIG 0.21  HD
ENDBRANCH 58 60
ENDBRANCH 54 58
ENDBRANCH 52 54
ENDBRANCH 43 50
ENDBRANCH 40 43
ENDBRANCH 1 39
TORSDOF 22
ENDMDL
MODEL 4
USER: ADFR SOLUTION from run 17
USER: SCORE 18.976211 LL:  -5.285 LR: -15.073 RR:   0.000 FEB:  -8.510
USER: RMSD 4.365909
USER: SEED 16
USER: STATUS no improvement in best in 10 clusters for 5 generations
USER: GENES 24
USER: genes 0 Translation |==|  0.38421 0.45383 0.72099
USER: genes 1 Rotation |==|  0.46826 0.45698 0.55806 0.99373
USER: genes 2 Torsion [C]-CA--N-[C] |==|  0.82977
USER: genes 3 Torsion [N]-C--CA-[N] |==|  0.51247
USER: genes 4 Torsion [N]-C--CA-[N] |==|  0.34504
USER: genes 5 Torsion [C]-CA--CB-[CG] |==|  0.10695
USER: genes 6 Torsion [CA]-CB--CG-[CD2] |==|  0.14625
USER: genes 7 Torsion [C]-CA--N-[C] |==|  0.84999
USER: genes 8 Torsion [N]-C--CA-[N] |==|  0.38252
USER: genes 9 Torsion [C]-CA--CB-[SG] |==|  0.05766
USER: genes 10 Torsion [CA]-CB--SG-[HG] |==|  0.48262
USER: genes 11 Torsion [C]-CA--N-[C] |==|  0.26860
USER: genes 12 Torsion [N]-CA--CB-[CG] |==|  0.49212
USER: genes 13 Torsion [CA]-CB--CG-[CD] |==|  0.73144
USER: genes 14 Torsion [CB]-CG--CD-[NE2] |==|  0.42079
USER: genes 15 Torsion [N]-CA--C-[N] |==|  0.87572
USER: genes 16 Torsion [C]-N--CA-[C] |==|  0.64478
USER: genes 17 Torsion [N]-CA--CB-[CG] |==|  0.67963
USER: genes 18 Torsion [CA]-CB--CG-[ND2] |==|  0.36158
USER: genes 19 Torsion [N]-CA--C-[N] |==|  0.43376
USER: genes 20 Torsion [C]-N--CA-[C] |==|  0.83299
USER: genes 21 Torsion [N]-CA--C-[N] |==|  0.37417
USER: genes 22 Torsion [N]-CA--CB-[OG1] |==|  0.86484
USER: genes 23 Torsion [CA]-CB--OG1-[HG1] |==|  0.21705
ROOT
ATOM      1  CA  GLN M   4      33.324  12.954  -5.969  1.00 40.00 LIG 0.18  C 
ENDROOT
BRANCH 1 2
ATOM      2  N   GLN M   4      32.997  13.386  -7.292  1.00 41.31 LIG-0.35  N 
ATOM      3 H    GLN M   4      32.503  12.853  -7.751  1.00 41.31 LIG 0.16  HD
ATOM      4  C   PRO M   3      33.471  14.559  -7.711  1.00 42.91 LIG 0.24  C 
ATOM      5 O    PRO M   3      34.162  15.295  -6.973  1.00 42.50 LIG-0.27  OA
BRANCH 4 6
ATOM      6  CA  PRO M   3      33.088  14.981  -9.133  1.00 43.35 LIG 0.18  C 
ATOM      7  N   PRO M   3      33.677  16.209  -9.645  1.00 44.79 LIG-0.34  N 
ATOM      8  C   HIS M   2      33.328  17.462  -9.240  1.00 46.46 LIG 0.24  C 
ATOM      9  CD  PRO M   3      34.512  15.888 -10.820  1.00 43.94 LIG 0.13  C 
ATOM     10 O    HIS M   2      32.534  17.707  -8.318  1.00 45.68 LIG-0.27  OA
ATOM     11  CG  PRO M   3      34.824  14.432 -10.640  1.00 40.61 LIG 0.02  C 
ATOM     12  CB  PRO M   3      33.470  13.987 -10.218  1.00 40.36 LIG 0.04  C 
BRANCH 8 13
ATOM     13  CA  HIS M   2      33.988  18.610  -9.970  1.00 46.79 LIG 0.18  C 
BRANCH 13 14
ATOM     14  CB  HIS M   2      34.938  19.375  -8.989  1.00 44.05 LIG 0.10  C 
BRANCH 14 15
ATOM     15  CG  HIS M   2      35.673  18.413  -8.049  1.00 42.32 LIG 0.06  A 
ATOM     16  CD2 HIS M   2      36.402  17.322  -8.453  1.00 41.49 LIG 0.14  A 
ATOM     17 NE2  HIS M   2      36.621  16.696  -7.329  1.00 41.41 LIG-0.25  NA
ATOM     18  CE1 HIS M   2      36.075  17.357  -6.320  1.00 41.50 LIG 0.23  A 
ATOM     19 ND1  HIS M   2      35.472  18.447  -6.738  1.00 40.17 LIG-0.24  NA
ENDBRANCH 14 15
ENDBRANCH 13 14
BRANCH 13 20
ATOM     20  N   HIS M   2      32.953  19.481 -10.514  1.00 53.14 LIG-0.35  N 
ATOM     21 H    HIS M   2      33.033  20.305 -10.284  1.00 53.14 LIG 0.16  HD
ATOM     22  C   CYS M   1      31.972  19.026 -11.299  0.42 52.47 LIG 0.24  C 
ATOM     23 O    CYS M   1      31.824  17.835 -11.590  0.42 50.41 LIG-0.27  OA
BRANCH 22 24
ATOM     24  CA  CYS M   1      31.031  20.122 -11.802  0.42 53.64 LIG 0.18  C 
BRANCH 24 25
ATOM     25  CB  CYS M   1      29.765  20.127 -10.975  0.42 54.18 LIG 0.10  C 
BRANCH 25 26
ATOM     26 SG   CYS M   1      30.154  19.300  -9.419  0.42 57.26 LIG-0.18  SA
ATOM     27 HG   CYS M   1      29.216  19.384  -8.676  0.42 57.26 LIG 0.10  HD
ENDBRANCH 25 26
ENDBRANCH 24 25
BRANCH 24 28
ATOM     28  N   CYS M   1      30.702  19.934 -13.207  0.42 53.99 LIG-0.38  N 
ATOM     29  C   ACE M   0      29.583  19.325 -13.600  0.42 54.55 LIG 0.04  C 
ATOM     30  CH3 ACE M   0      29.262  19.175 -15.081  0.42 54.45 LIG 0.05  C 
ATOM     31 H    CYS M   1      31.290  20.248 -13.750  0.42 53.99 LIG 0.16  HD
ENDBRANCH 24 28
ENDBRANCH 22 24
ENDBRANCH 13 20
ENDBRANCH 8 13
ENDBRANCH 4 6
ENDBRANCH 1 2
BRANCH 1 32
ATOM     32  CB  GLN M   4      32.652  11.626  -5.678  1.00 35.03 LIG 0.04  C 
BRANCH 32 33
ATOM     33  CG  GLN M   4      33.076  11.154  -4.285  1.00 28.64 LIG 0.10  C 
BRANCH 33 34
ATOM     34  CD  GLN M   4      34.227  10.169  -4.304  1.00 28.38 LIG 0.21  C 
ATOM     35  NE2 GLN M   4      34.991  10.194  -3.209  1.00 21.52 LIG-0.37  N 
ATOM     36 22HE GLN M   4      35.669   9.669  -3.147  1.00 21.52 LIG 0.16  HD
ATOM     37 21HE GLN M   4      34.805  10.735  -2.567  1.00 21.52 LIG 0.16  HD
ATOM     38 OE1  GLN M   4      34.425   9.416  -5.280  1.00 23.11 LIG-0.27  OA
ENDBRANCH 33 34
ENDBRANCH 32 33
ENDBRANCH 1 32
BRANCH 1 39
ATOM     39  C   GLN M   4      34.832  12.811  -5.865  1.00 43.11 LIG 0.24  C 
ATOM     40  N   ASN M   5      35.407  12.199  -6.886  1.00 48.15 LIG-0.35  N 
ATOM     41 H    ASN M   5      35.000  11.926  -7.593  1.00 48.15 LIG 0.16  HD
ATOM     42 O    GLN M   4      35.478  13.288  -4.930  1.00 42.77 LIG-0.27  OA
BRANCH 40 43
ATOM     43  CA  ASN M   5      36.834  11.950  -6.848  1.00 54.08 LIG 0.18  C 
BRANCH 43 44
ATOM     44  CB  ASN M   5      37.044  10.413  -6.668  1.00 57.18 LIG 0.14  C 
BRANCH 44 45
ATOM     45  CG  ASN M   5      37.718   9.930  -5.351  1.00 60.38 LIG 0.22  C 
ATOM     46  ND2 ASN M   5      37.213   8.960  -4.588  1.00 60.67 LIG-0.37  N 
ATOM     47 22HD ASN M   5      36.474   8.580  -4.809  1.00 60.67 LIG 0.16  HD
ATOM     48 21HD ASN M   5      37.627   8.713  -3.876  1.00 60.67 LIG 0.16  HD
ATOM     49 OD1  ASN M   5      38.783  10.403  -4.941  1.00 60.50 LIG-0.27  OA
ENDBRANCH 44 45
ENDBRANCH 43 44
BRANCH 43 50
ATOM     50  C   ASN M   5      37.461  12.484  -8.121  1.00 53.60 LIG 0.24  C 
ATOM     51 O    ASN M   5      36.737  12.678  -9.096  1.00 54.31 LIG-0.27  OA
ATOM     52  N   THR M   6      38.748  12.808  -8.132  0.00 53.23 LIG-0.34  N 
ATOM     53 H    THR M   6      39.274  12.747  -7.454  0.00 53.23 LIG 0.16  HD
BRANCH 52 54
ATOM     54  CA  THR M   6      39.366  13.306  -9.341  0.00 52.61 LIG 0.21  C 
BRANCH 54 55
ATOM     55  C   THR M   6      39.248  12.252 -10.443  0.00 52.44 LIG 0.29  C 
ATOM     56  N   NH2 M   7      38.867  12.672 -11.642  0.00 52.35 LIG-0.11  N 
ATOM     57 O    THR M   6      39.424  11.051 -10.244  0.00 52.24 LIG-0.27  OA
ENDBRANCH 54 55
BRANCH 54 58
ATOM     58  CB  THR M   6      40.838  13.689  -8.984  0.00 52.38 LIG 0.15  C 
ATOM     59  CG2 THR M   6      41.612  14.433 -10.071  0.00 52.30 LIG 0.04  C 
BRANCH 58 60
ATOM     60 OG1  THR M   6      40.718  14.474  -7.806  0.00 52.26 LIG-0.39  OA
ATOM     61 HG1  THR M   6      40.594  13.971  -7.144  0.00 52.26 LIG 0.21  HD
ENDBRANCH 58 60
ENDBRANCH 54 58
ENDBRANCH 52 54
ENDBRANCH 43 50
ENDBRANCH 40 43
ENDBRANCH 1 39
TORSDOF 22
ENDMDL
MODEL 5
USER: ADFR SOLUTION from run 162
USER: SCORE 18.589392 LL:  -4.748 LR: -15.070 RR:   0.000 FEB:  -8.507
USER: RMSD 3.722164
USER: SEED 161
USER: STATUS no improvement in best in 7 clusters for 5 generations
USER: GENES 24
USER: genes 0 Translation |==|  0.45152 0.51507 0.72964
USER: genes 1 Rotation |==|  0.50760 0.47495 0.46951 0.99838
USER: genes 2 Torsion [C]-CA--N-[C] |==|  0.81895
USER: genes 3 Torsion [N]-C--CA-[N] |==|  0.16854
USER: genes 4 Torsion [N]-C--CA-[N] |==|  0.17929
USER: genes 5 Torsion [C]-CA--CB-[CG] |==|  0.81493
USER: genes 6 Torsion [CA]-CB--CG-[CD2] |==|  0.31528
USER: genes 7 Torsion [C]-CA--N-[C] |==|  0.56807
USER: genes 8 Torsion [N]-C--CA-[N] |==|  0.89388
USER: genes 9 Torsion [C]-CA--CB-[SG] |==|  0.31130
USER: genes 10 Torsion [CA]-CB--SG-[HG] |==|  0.60024
USER: genes 11 Torsion [C]-CA--N-[C] |==|  0.80115
USER: genes 12 Torsion [N]-CA--CB-[CG] |==|  0.55325
USER: genes 13 Torsion [CA]-CB--CG-[CD] |==|  0.73145
USER: genes 14 Torsion [CB]-CG--CD-[NE2] |==|  0.29472
USER: genes 15 Torsion [N]-CA--C-[N] |==|  0.85000
USER: genes 16 Torsion [C]-N--CA-[C] |==|  0.63346
USER: genes 17 Torsion [N]-CA--CB-[CG] |==|  0.75551
USER: genes 18 Torsion [CA]-CB--CG-[ND2] |==|  0.50091
USER: genes 19 Torsion [N]-CA--C-[N] |==|  0.33374
USER: genes 20 Torsion [C]-N--CA-[C] |==|  0.78784
USER: genes 21 Torsion [N]-CA--C-[N] |==|  0.41528
USER: genes 22 Torsion [N]-CA--CB-[OG1] |==|  0.04383
USER: genes 23 Torsion [CA]-CB--OG1-[HG1] |==|  0.24381
ROOT
ATOM      1  CA  GLN M   4      34.738  14.010  -5.774  1.00 40.00 LIG 0.18  C 
ENDROOT
BRANCH 1 2
ATOM      2  N   GLN M   4      34.531  14.765  -6.970  1.00 41.31 LIG-0.35  N 
ATOM      3 H    GLN M   4      33.900  14.489  -7.486  1.00 41.31 LIG 0.16  HD
ATOM      4  C   PRO M   3      35.312  15.821  -7.197  1.00 42.91 LIG 0.24  C 
ATOM      5 O    PRO M   3      36.192  16.179  -6.384  1.00 42.50 LIG-0.27  OA
BRANCH 4 6
ATOM      6  CA  PRO M   3      35.047  16.601  -8.489  1.00 43.35 LIG 0.18  C 
ATOM      7  N   PRO M   3      33.731  17.200  -8.647  1.00 44.79 LIG-0.34  N 
ATOM      8  C   HIS M   2      32.589  16.503  -8.901  1.00 46.46 LIG 0.24  C 
ATOM      9  CD  PRO M   3      33.878  18.667  -8.733  1.00 43.94 LIG 0.13  C 
ATOM     10 O    HIS M   2      32.514  15.264  -8.934  1.00 45.68 LIG-0.27  OA
ATOM     11  CG  PRO M   3      35.205  18.924  -8.084  1.00 40.61 LIG 0.02  C 
ATOM     12  CB  PRO M   3      35.955  17.801  -8.707  1.00 40.36 LIG 0.04  C 
BRANCH 8 13
ATOM     13  CA  HIS M   2      31.340  17.324  -9.132  1.00 46.79 LIG 0.18  C 
BRANCH 13 14
ATOM     14  CB  HIS M   2      30.101  16.373  -9.226  1.00 44.05 LIG 0.10  C 
BRANCH 14 15
ATOM     15  CG  HIS M   2      30.163  15.483 -10.471  1.00 42.32 LIG 0.06  A 
ATOM     16  CD2 HIS M   2      30.316  14.119 -10.457  1.00 41.49 LIG 0.14  A 
ATOM     17 NE2  HIS M   2      30.555  13.847 -11.711  1.00 41.41 LIG-0.25  NA
ATOM     18  CE1 HIS M   2      30.540  14.958 -12.433  1.00 41.50 LIG 0.23  A 
ATOM     19 ND1  HIS M   2      30.293  16.008 -11.684  1.00 40.17 LIG-0.24  NA
ENDBRANCH 14 15
ENDBRANCH 13 14
BRANCH 13 20
ATOM     20  N   HIS M   2      31.512  18.113 -10.346  1.00 53.14 LIG-0.35  N 
ATOM     21 H    HIS M   2      32.079  17.782 -10.901  1.00 53.14 LIG 0.16  HD
ATOM     22  C   CYS M   1      30.843  19.249 -10.564  0.42 52.47 LIG 0.24  C 
ATOM     23 O    CYS M   1      30.067  19.755  -9.747  0.42 50.41 LIG-0.27  OA
BRANCH 22 24
ATOM     24  CA  CYS M   1      31.136  19.881 -11.926  0.42 53.64 LIG 0.18  C 
BRANCH 24 25
ATOM     25  CB  CYS M   1      30.270  19.239 -12.985  0.42 54.18 LIG 0.10  C 
BRANCH 25 26
ATOM     26 SG   CYS M   1      29.100  20.497 -13.537  0.42 57.26 LIG-0.18  SA
ATOM     27 HG   CYS M   1      28.042  19.983 -13.774  0.42 57.26 LIG 0.10  HD
ENDBRANCH 25 26
ENDBRANCH 24 25
BRANCH 24 28
ATOM     28  N   CYS M   1      32.539  19.741 -12.283  0.42 53.99 LIG-0.38  N 
ATOM     29  C   ACE M   0      33.502  20.433 -11.672  0.42 54.55 LIG 0.04  C 
ATOM     30  CH3 ACE M   0      34.962  20.235 -12.056  0.42 54.45 LIG 0.05  C 
ATOM     31 H    CYS M   1      32.686  19.178 -12.916  0.42 53.99 LIG 0.16  HD
ENDBRANCH 24 28
ENDBRANCH 22 24
ENDBRANCH 13 20
ENDBRANCH 8 13
ENDBRANCH 4 6
ENDBRANCH 1 2
BRANCH 1 32
ATOM     32  CB  GLN M   4      33.663  12.950  -5.640  1.00 35.03 LIG 0.04  C 
BRANCH 32 33
ATOM     33  CG  GLN M   4      33.603  12.489  -4.181  1.00 28.64 LIG 0.10  C 
BRANCH 33 34
ATOM     34  CD  GLN M   4      34.393  11.225  -3.913  1.00 28.38 LIG 0.21  C 
ATOM     35  NE2 GLN M   4      35.536  11.419  -3.249  1.00 21.52 LIG-0.37  N 
ATOM     36 22HE GLN M   4      36.044  10.751  -3.064  1.00 21.52 LIG 0.16  HD
ATOM     37 21HE GLN M   4      35.763  12.213  -3.007  1.00 21.52 LIG 0.16  HD
ATOM     38 OE1  GLN M   4      33.989  10.108  -4.300  1.00 23.11 LIG-0.27  OA
ENDBRANCH 33 34
ENDBRANCH 32 33
ENDBRANCH 1 32
BRANCH 1 39
ATOM     39  C   GLN M   4      36.108  13.361  -5.843  1.00 43.11 LIG 0.24  C 
ATOM     40  N   ASN M   5      36.328  12.634  -6.924  1.00 48.15 LIG-0.35  N 
ATOM     41 H    ASN M   5      35.781  12.545  -7.582  1.00 48.15 LIG 0.16  HD
ATOM     42 O    GLN M   4      36.973  13.551  -4.986  1.00 42.77 LIG-0.27  OA
BRANCH 40 43
ATOM     43  CA  ASN M   5      37.581  11.915  -7.050  1.00 54.08 LIG 0.18  C 
BRANCH 43 44
ATOM     44  CB  ASN M   5      37.287  10.402  -6.796  1.00 57.18 LIG 0.14  C 
BRANCH 44 45
ATOM     45  CG  ASN M   5      37.345   9.897  -5.325  1.00 60.38 LIG 0.22  C 
ATOM     46  ND2 ASN M   5      37.120   8.627  -4.983  1.00 60.67 LIG-0.37  N 
ATOM     47 22HD ASN M   5      36.918   8.049  -5.586  1.00 60.67 LIG 0.16  HD
ATOM     48 21HD ASN M   5      37.178   8.388  -4.159  1.00 60.67 LIG 0.16  HD
ATOM     49 OD1  ASN M   5      37.628  10.641  -4.381  1.00 60.50 LIG-0.27  OA
ENDBRANCH 44 45
ENDBRANCH 43 44
BRANCH 43 50
ATOM     50  C   ASN M   5      38.164  12.178  -8.424  1.00 53.60 LIG 0.24  C 
ATOM     51 O    ASN M   5      37.475  11.930  -9.412  1.00 54.31 LIG-0.27  OA
ATOM     52  N   THR M   6      39.360  12.744  -8.531  0.00 53.23 LIG-0.34  N 
ATOM     53 H    THR M   6      39.846  12.990  -7.865  0.00 53.23 LIG 0.16  HD
BRANCH 52 54
ATOM     54  CA  THR M   6      39.938  12.990  -9.833  0.00 52.61 LIG 0.21  C 
BRANCH 54 55
ATOM     55  C   THR M   6      40.468  11.676 -10.411  0.00 52.44 LIG 0.29  C 
ATOM     56  N   NH2 M   7      40.452  11.546 -11.730  0.00 52.35 LIG-0.11  N 
ATOM     57 O    THR M   6      40.835  10.736  -9.708  0.00 52.24 LIG-0.27  OA
ENDBRANCH 54 55
BRANCH 54 58
ATOM     58  CB  THR M   6      41.032  14.091  -9.654  0.00 52.38 LIG 0.15  C 
ATOM     59  CG2 THR M   6      40.674  15.476 -10.190  0.00 52.30 LIG 0.04  C 
BRANCH 58 60
ATOM     60 OG1  THR M   6      41.265  14.125  -8.252  0.00 52.26 LIG-0.39  OA
ATOM     61 HG1  THR M   6      41.855  13.561  -8.052  0.00 52.26 LIG 0.21  HD
ENDBRANCH 58 60
ENDBRANCH 54 58
ENDBRANCH 52 54
ENDBRANCH 43 50
ENDBRANCH 40 43
ENDBRANCH 1 39
TORSDOF 22
ENDMDL
MODEL 6
USER: ADFR SOLUTION from run 5
USER: SCORE 19.116785 LL:  -5.453 LR: -14.849 RR:   0.000 FEB:  -8.286
USER: RMSD 3.453185
USER: SEED 872298
USER: STATUS no improvement in best in 12 clusters for 5 generations
USER: GENES 24
USER: genes 0 Translation |==|  0.48930 0.47823 0.77744
USER: genes 1 Rotation |==|  0.47479 0.54278 0.40516 0.98841
USER: genes 2 Torsion [C]-CA--N-[C] |==|  0.82832
USER: genes 3 Torsion [N]-C--CA-[N] |==|  0.07125
USER: genes 4 Torsion [N]-C--CA-[N] |==|  0.23827
USER: genes 5 Torsion [C]-CA--CB-[CG] |==|  0.71625
USER: genes 6 Torsion [CA]-CB--CG-[CD2] |==|  0.18747
USER: genes 7 Torsion [C]-CA--N-[C] |==|  0.70026
USER: genes 8 Torsion [N]-C--CA-[N] |==|  0.07214
USER: genes 9 Torsion [C]-CA--CB-[SG] |==|  0.21230
USER: genes 10 Torsion [CA]-CB--SG-[HG] |==|  0.81186
USER: genes 11 Torsion [C]-CA--N-[C] |==|  0.65843
USER: genes 12 Torsion [N]-CA--CB-[CG] |==|  0.18503
USER: genes 13 Torsion [CA]-CB--CG-[CD] |==|  0.62764
USER: genes 14 Torsion [CB]-CG--CD-[NE2] |==|  0.29133
USER: genes 15 Torsion [N]-CA--C-[N] |==|  0.93315
USER: genes 16 Torsion [C]-N--CA-[C] |==|  0.61697
USER: genes 17 Torsion [N]-CA--CB-[CG] |==|  0.83425
USER: genes 18 Torsion [CA]-CB--CG-[ND2] |==|  0.83784
USER: genes 19 Torsion [N]-CA--C-[N] |==|  0.20000
USER: genes 20 Torsion [C]-N--CA-[C] |==|  0.81432
USER: genes 21 Torsion [N]-CA--C-[N] |==|  0.36704
USER: genes 22 Torsion [N]-CA--CB-[OG1] |==|  0.08273
USER: genes 23 Torsion [CA]-CB--OG1-[HG1] |==|  0.79547
ROOT
ATOM      1  CA  GLN M   4      35.531  13.374  -4.699  1.00 40.00 LIG 0.18  C 
ENDROOT
BRANCH 1 2
ATOM      2  N   GLN M   4      35.178  14.082  -5.890  1.00 41.31 LIG-0.35  N 
ATOM      3 H    GLN M   4      34.365  13.991  -6.155  1.00 41.31 LIG 0.16  HD
ATOM      4  C   PRO M   3      36.113  14.817  -6.492  1.00 42.91 LIG 0.24  C 
ATOM      5 O    PRO M   3      37.269  14.924  -6.029  1.00 42.50 LIG-0.27  OA
BRANCH 4 6
ATOM      6  CA  PRO M   3      35.683  15.560  -7.761  1.00 43.35 LIG 0.18  C 
ATOM      7  N   PRO M   3      34.273  15.889  -7.896  1.00 44.79 LIG-0.34  N 
ATOM      8  C   HIS M   2      33.289  14.986  -8.160  1.00 46.46 LIG 0.24  C 
ATOM      9  CD  PRO M   3      34.124  17.358  -7.943  1.00 43.94 LIG 0.13  C 
ATOM     10 O    HIS M   2      33.462  13.758  -8.226  1.00 45.68 LIG-0.27  OA
ATOM     11  CG  PRO M   3      35.382  17.857  -7.296  1.00 40.61 LIG 0.02  C 
ATOM     12  CB  PRO M   3      36.332  16.922  -7.953  1.00 40.36 LIG 0.04  C 
BRANCH 8 13
ATOM     13  CA  HIS M   2      31.900  15.547  -8.362  1.00 46.79 LIG 0.18  C 
BRANCH 13 14
ATOM     14  CB  HIS M   2      30.838  14.477  -7.941  1.00 44.05 LIG 0.10  C 
BRANCH 14 15
ATOM     15  CG  HIS M   2      30.221  13.782  -9.159  1.00 42.32 LIG 0.06  A 
ATOM     16  CD2 HIS M   2      30.895  12.941 -10.009  1.00 41.49 LIG 0.14  A 
ATOM     17 NE2  HIS M   2      30.052  12.801 -10.996  1.00 41.41 LIG-0.25  NA
ATOM     18  CE1 HIS M   2      28.949  13.496 -10.761  1.00 41.50 LIG 0.23  A 
ATOM     19 ND1  HIS M   2      29.021  14.124  -9.610  1.00 40.17 LIG-0.24  NA
ENDBRANCH 14 15
ENDBRANCH 13 14
BRANCH 13 20
ATOM     20  N   HIS M   2      31.749  15.943  -9.757  1.00 53.14 LIG-0.35  N 
ATOM     21 H    HIS M   2      31.686  15.282 -10.303  1.00 53.14 LIG 0.16  HD
ATOM     22  C   CYS M   1      31.712  17.223 -10.141  0.42 52.47 LIG 0.24  C 
ATOM     23 O    CYS M   1      31.853  18.174  -9.366  0.42 50.41 LIG-0.27  OA
BRANCH 22 24
ATOM     24  CA  CYS M   1      31.490  17.407 -11.643  0.42 53.64 LIG 0.18  C 
BRANCH 24 25
ATOM     25  CB  CYS M   1      30.707  18.675 -11.893  0.42 54.18 LIG 0.10  C 
BRANCH 25 26
ATOM     26 SG   CYS M   1      31.858  20.049 -11.686  0.42 57.26 LIG-0.18  SA
ATOM     27 HG   CYS M   1      32.186  20.127 -10.535  0.42 57.26 LIG 0.10  HD
ENDBRANCH 25 26
ENDBRANCH 24 25
BRANCH 24 28
ATOM     28  N   CYS M   1      30.785  16.270 -12.217  0.42 53.99 LIG-0.38  N 
ATOM     29  C   ACE M   0      31.288  15.556 -13.224  0.42 54.55 LIG 0.04  C 
ATOM     30  CH3 ACE M   0      30.532  14.355 -13.776  0.42 54.45 LIG 0.05  C 
ATOM     31 H    CYS M   1      30.025  16.106 -11.850  0.42 53.99 LIG 0.16  HD
ENDBRANCH 24 28
ENDBRANCH 22 24
ENDBRANCH 13 20
ENDBRANCH 8 13
ENDBRANCH 4 6
ENDBRANCH 1 2
BRANCH 1 32
ATOM     32  CB  GLN M   4      34.317  12.655  -4.146  1.00 35.03 LIG 0.04  C 
BRANCH 32 33
ATOM     33  CG  GLN M   4      33.908  11.552  -5.128  1.00 28.64 LIG 0.10  C 
BRANCH 33 34
ATOM     34  CD  GLN M   4      32.421  11.513  -5.407  1.00 28.38 LIG 0.21  C 
ATOM     35  NE2 GLN M   4      32.071  12.001  -6.600  1.00 21.52 LIG-0.37  N 
ATOM     36 22HE GLN M   4      31.242  12.019  -6.831  1.00 21.52 LIG 0.16  HD
ATOM     37 21HE GLN M   4      32.674  12.296  -7.137  1.00 21.52 LIG 0.16  HD
ATOM     38 OE1  GLN M   4      31.610  11.064  -4.569  1.00 23.11 LIG-0.27  OA
ENDBRANCH 33 34
ENDBRANCH 32 33
ENDBRANCH 1 32
BRANCH 1 39
ATOM     39  C   GLN M   4      36.624  12.376  -5.035  1.00 43.11 LIG 0.24  C 
ATOM     40  N   ASN M   5      36.667  12.000  -6.301  1.00 48.15 LIG-0.35  N 
ATOM     41 H    ASN M   5      36.161  12.305  -6.926  1.00 48.15 LIG 0.16  HD
ATOM     42 O    GLN M   4      37.450  11.995  -4.203  1.00 42.77 LIG-0.27  OA
BRANCH 40 43
ATOM     43  CA  ASN M   5      37.629  10.995  -6.708  1.00 54.08 LIG 0.18  C 
BRANCH 43 44
ATOM     44  CB  ASN M   5      36.881   9.627  -6.790  1.00 57.18 LIG 0.14  C 
BRANCH 44 45
ATOM     45  CG  ASN M   5      36.207   9.098  -5.491  1.00 60.38 LIG 0.22  C 
ATOM     46  ND2 ASN M   5      36.880   8.873  -4.362  1.00 60.67 LIG-0.37  N 
ATOM     47 22HD ASN M   5      37.729   9.005  -4.334  1.00 60.67 LIG 0.16  HD
ATOM     48 21HD ASN M   5      36.464   8.595  -3.662  1.00 60.67 LIG 0.16  HD
ATOM     49 OD1  ASN M   5      34.994   8.875  -5.419  1.00 60.50 LIG-0.27  OA
ENDBRANCH 44 45
ENDBRANCH 43 44
BRANCH 43 50
ATOM     50  C   ASN M   5      38.244  11.409  -8.030  1.00 53.60 LIG 0.24  C 
ATOM     51 O    ASN M   5      37.871  10.842  -9.056  1.00 54.31 LIG-0.27  OA
ATOM     52  N   THR M   6      39.101  12.422  -8.066  0.00 53.23 LIG-0.34  N 
ATOM     53 H    THR M   6      39.339  12.885  -7.381  0.00 53.23 LIG 0.16  HD
BRANCH 52 54
ATOM     54  CA  THR M   6      39.708  12.823  -9.316  0.00 52.61 LIG 0.21  C 
BRANCH 54 55
ATOM     55  C   THR M   6      40.640  11.712  -9.806  0.00 52.44 LIG 0.29  C 
ATOM     56  N   NH2 M   7      40.526  11.345 -11.076  0.00 52.35 LIG-0.11  N 
ATOM     57 O    THR M   6      41.423  11.119  -9.066  0.00 52.24 LIG-0.27  OA
ENDBRANCH 54 55
BRANCH 54 58
ATOM     58  CB  THR M   6      40.424  14.188  -9.067  0.00 52.38 LIG 0.15  C 
ATOM     59  CG2 THR M   6      39.597  15.437  -9.370  0.00 52.30 LIG 0.04  C 
BRANCH 58 60
ATOM     60 OG1  THR M   6      40.801  14.139  -7.697  0.00 52.26 LIG-0.39  OA
ATOM     61 HG1  THR M   6      40.121  14.238  -7.215  0.00 52.26 LIG 0.21  HD
ENDBRANCH 58 60
ENDBRANCH 54 58
ENDBRANCH 52 54
ENDBRANCH 43 50
ENDBRANCH 40 43
ENDBRANCH 1 39
TORSDOF 22
ENDMDL
