MODEL 1
USER: ADFR SOLUTION from run 192
USER: SCORE 19.966019 LL:  -6.493 LR: -16.488 RR:   0.000 FEB:  -8.732
USER: RMSD 4.132485
USER: SEED 191
USER: STATUS searching
USER: GENES 28
USER: genes 0 Translation |==|  0.58408 0.58568 0.51674
USER: genes 1 Rotation |==|  0.52420 0.35295 0.50293 0.97727
USER: genes 2 Torsion [N]-CA--C-[O] |==|  0.51114
USER: genes 3 Torsion [C]-N--CA-[C] |==|  0.78960
USER: genes 4 Torsion [N]-CA--C-[N] |==|  0.97069
USER: genes 5 Torsion [C]-N--CA-[CB] |==|  0.23701
USER: genes 6 Torsion [N]-CA--CB-[CG] |==|  0.65024
USER: genes 7 Torsion [CA]-CB--CG-[ND2] |==|  0.10381
USER: genes 8 Torsion [N]-CA--C-[N] |==|  0.91949
USER: genes 9 Torsion [C]-N--CA-[CB] |==|  0.73934
USER: genes 10 Torsion [N]-CA--CB-[CG2] |==|  0.98302
USER: genes 11 Torsion [CA]-CB--OG1-[HG1] |==|  0.74874
USER: genes 12 Torsion [N]-CA--C-[N] |==|  0.25142
USER: genes 13 Torsion [N]-CA--CB-[CG] |==|  0.32401
USER: genes 14 Torsion [CA]-CB--CG-[CD] |==|  0.30814
USER: genes 15 Torsion [CB]-CG--CD-[OE1] |==|  0.24812
USER: genes 16 Torsion [N]-C--CA-[N] |==|  0.34834
USER: genes 17 Torsion [C]-CA--N-[C] |==|  0.37316
USER: genes 18 Torsion [N]-C--CA-[N] |==|  0.37259
USER: genes 19 Torsion [C]-CA--N-[C] |==|  0.66992
USER: genes 20 Torsion [N]-C--CA-[N] |==|  0.13211
USER: genes 21 Torsion [C]-CA--CB-[CG] |==|  0.41357
USER: genes 22 Torsion [CA]-CB--CG-[CD1] |==|  0.90048
USER: genes 23 Torsion [C]-CA--N-[H3] |==|  0.10610
USER: genes 24 Torsion [C]-CA--CB-[SG] |==|  0.71136
USER: genes 25 Torsion [CA]-CB--SG-[HG] |==|  0.61877
USER: genes 26 Torsion [C]-CA--CB-[CG] |==|  0.20072
USER: genes 27 Torsion [CA]-CB--CG-[ND1] |==|  0.74141
ROOT
ATOM      1  C   HIS P   3      19.002   3.374  17.421  1.00 29.14 LIG 0.24  C 
ATOM      2 O    HIS P   3      18.159   3.099  16.546  1.00 31.23 LIG-0.27  OA
ATOM      3  N   PRO P   4      19.119   4.624  17.904  1.00 24.67 LIG-0.34  N 
ATOM      4  CA  PRO P   4      18.347   5.730  17.387  1.00 22.95 LIG 0.18  C 
ATOM      5  CB  PRO P   4      18.740   6.920  18.250  1.00 20.99 LIG 0.04  C 
ATOM      6  CG  PRO P   4      19.536   6.370  19.413  1.00 22.70 LIG 0.02  C 
ATOM      7  CD  PRO P   4      20.080   5.070  18.942  1.00 21.81 LIG 0.13  C 
ENDROOT
BRANCH 4 8
ATOM      8  C   PRO P   4      18.508   6.063  15.910  1.00 19.64 LIG 0.24  C 
ATOM      9 O    PRO P   4      17.922   7.046  15.453  1.00 20.88 LIG-0.27  OA
ATOM     10  N   GLN P   5      19.331   5.305  15.167  1.00 22.98 LIG-0.35  N 
ATOM     11 H    GLN P   5      19.743   4.614  15.472  1.00 22.98 LIG 0.16  HD
BRANCH 10 12
ATOM     12  CA  GLN P   5      19.607   5.582  13.761  1.00 16.98 LIG 0.18  C 
BRANCH 12 13
ATOM     13  C   GLN P   5      18.488   5.199  12.815  1.00 21.89 LIG 0.24  C 
ATOM     14  N   ASN P   6      17.439   4.470  13.206  1.00 22.75 LIG-0.35  N 
ATOM     15 H    ASN P   6      17.300   4.150  13.992  1.00 22.75 LIG 0.16  HD
ATOM     16 O    GLN P   5      18.573   5.576  11.639  1.00 24.56 LIG-0.27  OA
BRANCH 14 17
ATOM     17  CA  ASN P   6      16.442   4.196  12.199  1.00 29.16 LIG 0.18  C 
BRANCH 17 18
ATOM     18  CB  ASN P   6      16.744   2.969  11.327  1.00 24.89 LIG 0.14  C 
BRANCH 18 19
ATOM     19  CG  ASN P   6      16.725   3.282   9.842  1.00 26.77 LIG 0.22  C 
ATOM     20 OD1  ASN P   6      16.271   2.525   8.965  1.00 24.78 LIG-0.27  OA
ATOM     21  ND2 ASN P   6      17.221   4.462   9.542  1.00 25.10 LIG-0.37  N 
ATOM     22 22HD ASN P   6      17.529   4.970  10.165  1.00 25.10 LIG 0.16  HD
ATOM     23 21HD ASN P   6      17.236   4.727   8.725  1.00 25.10 LIG 0.16  HD
ENDBRANCH 18 19
ENDBRANCH 17 18
BRANCH 17 24
ATOM     24  C   ASN P   6      15.118   3.964  12.812  1.00 33.65 LIG 0.24  C 
ATOM     25 O    ASN P   6      14.070   4.112  12.191  1.00 34.15 LIG-0.27  OA
ATOM     26  N   THR P   7      15.380   3.462  14.015  1.00 46.42 LIG-0.34  N 
ATOM     27 H    THR P   7      16.195   3.323  14.253  1.00 46.42 LIG 0.16  HD
BRANCH 26 28
ATOM     28  CA  THR P   7      14.464   3.079  15.079  1.00 55.98 LIG 0.21  C 
BRANCH 28 29
ATOM     29  CB  THR P   7      14.408   4.386  15.960  1.00 59.10 LIG 0.15  C 
ATOM     30  CG2 THR P   7      15.399   5.471  15.498  1.00 61.71 LIG 0.04  C 
BRANCH 29 31
ATOM     31 OG1  THR P   7      13.049   4.831  15.941  1.00 60.27 LIG-0.39  OA
ATOM     32 HG1  THR P   7      12.937   5.362  15.299  1.00 60.27 LIG 0.21  HD
ENDBRANCH 29 31
ENDBRANCH 28 29
BRANCH 28 33
ATOM     33  C   THR P   7      13.087   2.463  14.801  1.00 57.95 LIG 0.29  C 
ATOM     34  N   NH2 P   8      13.078   1.137  14.735  1.00 58.98 LIG-0.11  N 
ATOM     35 O    THR P   7      12.064   3.119  14.585  1.00 60.38 LIG-0.27  OA
ENDBRANCH 28 33
ENDBRANCH 26 28
ENDBRANCH 17 24
ENDBRANCH 14 17
ENDBRANCH 12 13
BRANCH 12 36
ATOM     36  CB  GLN P   5      20.893   4.885  13.359  1.00 11.38 LIG 0.04  C 
BRANCH 36 37
ATOM     37  CG  GLN P   5      20.664   3.824  12.286  1.00 11.43 LIG 0.10  C 
BRANCH 37 38
ATOM     38  CD  GLN P   5      21.244   4.160  10.920  1.00 11.64 LIG 0.21  C 
ATOM     39  NE2 GLN P   5      20.544   4.788   9.998  1.00  7.77 LIG-0.37  N 
ATOM     40 21HE GLN P   5      19.735   5.028  10.161  1.00  7.77 LIG 0.16  HD
ATOM     41 22HE GLN P   5      20.896   4.959   9.232  1.00  7.77 LIG 0.16  HD
ATOM     42 OE1  GLN P   5      22.392   3.830  10.662  1.00 11.36 LIG-0.27  OA
ENDBRANCH 37 38
ENDBRANCH 36 37
ENDBRANCH 12 36
ENDBRANCH 10 12
ENDBRANCH 4 8
BRANCH 1 43
ATOM     43  CA  HIS P   3      19.839   2.259  18.042  1.00 30.34 LIG 0.18  C 
BRANCH 43 44
ATOM     44  N   HIS P   3      18.730   1.381  18.343  1.00 35.71 LIG-0.35  N 
ATOM     45  C   CYS P   2      18.690   0.087  18.105  0.17 38.31 LIG 0.24  C 
ATOM     46 O    CYS P   2      19.560  -0.491  17.445  0.17 38.29 LIG-0.27  OA
ATOM     47 H    HIS P   3      18.071   1.796  18.708  1.00 35.71 LIG 0.16  HD
BRANCH 45 48
ATOM     48  CA  CYS P   2      17.420  -0.557  18.661  0.17 40.64 LIG 0.18  C 
BRANCH 48 49
ATOM     49  N   CYS P   2      16.704  -1.486  17.773  0.17 43.25 LIG-0.34  N 
ATOM     50  C   PHE P   1      15.448  -1.315  17.347  0.36 44.98 LIG 0.25  C 
ATOM     51 O    PHE P   1      14.713  -0.440  17.800  0.36 46.44 LIG-0.27  OA
ATOM     52 H    CYS P   2      17.178  -2.167  17.548  0.17 43.25 LIG 0.16  HD
BRANCH 50 53
ATOM     53  CA  PHE P   1      14.760  -2.270  16.376  0.36 46.68 LIG 0.28  C 
BRANCH 53 54
ATOM     54  CB  PHE P   1      13.271  -1.874  16.444  0.36 47.92 LIG 0.08  C 
BRANCH 54 55
ATOM     55  CG  PHE P   1      12.302  -1.999  15.270  0.36 47.93 LIG-0.06  A 
ATOM     56  CD1 PHE P   1      12.668  -1.774  13.938  0.36 48.98 LIG 0.01  A 
ATOM     57  CE1 PHE P   1      11.720  -1.922  12.920  0.36 50.12 LIG 0.00  A 
ATOM     58  CZ  PHE P   1      10.409  -2.293  13.222  0.36 48.72 LIG 0.00  A 
ATOM     59  CE2 PHE P   1      10.049  -2.519  14.548  0.36 48.48 LIG 0.00  A 
ATOM     60  CD2 PHE P   1      10.990  -2.374  15.570  0.36 48.25 LIG 0.01  A 
ENDBRANCH 54 55
ENDBRANCH 53 54
BRANCH 53 61
ATOM     61  N   PHE P   1      15.089  -3.542  16.995  0.36 46.83 LIG-0.07  N 
ATOM     62 H3   PHE P   1      15.051  -3.461  17.881  0.36 46.83 LIG 0.28  HD
ATOM     63 H1   PHE P   1      14.507  -4.161  16.729  0.36 46.83 LIG 0.28  HD
ATOM     64 H2   PHE P   1      15.911  -3.785  16.754  0.36 46.83 LIG 0.28  HD
ENDBRANCH 53 61
ENDBRANCH 50 53
ENDBRANCH 48 49
BRANCH 48 65
ATOM     65  CB  CYS P   2      17.819  -1.145  20.013  0.17 41.02 LIG 0.10  C 
BRANCH 65 66
ATOM     66 SG   CYS P   2      17.945  -2.916  19.673  0.17 41.68 LIG-0.18  SA
ATOM     67 HG   CYS P   2      17.441  -3.533  20.571  0.17 41.68 LIG 0.10  HD
ENDBRANCH 65 66
ENDBRANCH 48 65
ENDBRANCH 45 48
ENDBRANCH 43 44
BRANCH 43 68
ATOM     68  CB  HIS P   3      20.910   1.833  16.988  1.00 25.21 LIG 0.10  C 
BRANCH 68 69
ATOM     69  CG  HIS P   3      21.974   2.975  16.896  1.00 21.50 LIG 0.06  A 
ATOM     70 ND1  HIS P   3      21.872   3.952  15.994  1.00 15.93 LIG-0.24  NA
ATOM     71  CE1 HIS P   3      22.789   4.833  16.364  1.00 14.31 LIG 0.23  A 
ATOM     72 NE2  HIS P   3      23.424   4.422  17.452  1.00 14.39 LIG-0.25  NA
ATOM     73  CD2 HIS P   3      22.961   3.252  17.832  1.00 20.69 LIG 0.14  A 
ENDBRANCH 68 69
ENDBRANCH 43 68
ENDBRANCH 1 43
TORSDOF 26
ENDMDL
MODEL 2
USER: ADFR SOLUTION from run 192
USER: SCORE 19.030632 LL:  -6.692 LR: -15.336 RR:   0.000 FEB:  -7.580
USER: RMSD 3.460143
USER: SEED 191
USER: STATUS searching
USER: GENES 28
USER: genes 0 Translation |==|  0.58187 0.58535 0.51648
USER: genes 1 Rotation |==|  0.52377 0.35304 0.49926 0.97732
USER: genes 2 Torsion [N]-CA--C-[O] |==|  0.51026
USER: genes 3 Torsion [C]-N--CA-[C] |==|  0.78921
USER: genes 4 Torsion [N]-CA--C-[N] |==|  0.96802
USER: genes 5 Torsion [C]-N--CA-[CB] |==|  0.23846
USER: genes 6 Torsion [N]-CA--CB-[CG] |==|  0.65161
USER: genes 7 Torsion [CA]-CB--CG-[ND2] |==|  0.10036
USER: genes 8 Torsion [N]-CA--C-[N] |==|  0.91995
USER: genes 9 Torsion [C]-N--CA-[CB] |==|  0.74044
USER: genes 10 Torsion [N]-CA--CB-[CG2] |==|  0.98118
USER: genes 11 Torsion [CA]-CB--OG1-[HG1] |==|  0.74871
USER: genes 12 Torsion [N]-CA--C-[N] |==|  0.25028
USER: genes 13 Torsion [N]-CA--CB-[CG] |==|  0.32894
USER: genes 14 Torsion [CA]-CB--CG-[CD] |==|  0.30194
USER: genes 15 Torsion [CB]-CG--CD-[OE1] |==|  0.22485
USER: genes 16 Torsion [N]-C--CA-[N] |==|  0.34251
USER: genes 17 Torsion [C]-CA--N-[C] |==|  0.36825
USER: genes 18 Torsion [N]-C--CA-[N] |==|  0.38350
USER: genes 19 Torsion [C]-CA--N-[C] |==|  0.69183
USER: genes 20 Torsion [N]-C--CA-[N] |==|  0.94392
USER: genes 21 Torsion [C]-CA--CB-[CG] |==|  0.88717
USER: genes 22 Torsion [CA]-CB--CG-[CD1] |==|  0.75924
USER: genes 23 Torsion [C]-CA--N-[H3] |==|  0.94576
USER: genes 24 Torsion [C]-CA--CB-[SG] |==|  0.73138
USER: genes 25 Torsion [CA]-CB--SG-[HG] |==|  0.64020
USER: genes 26 Torsion [C]-CA--CB-[CG] |==|  0.20442
USER: genes 27 Torsion [CA]-CB--CG-[ND1] |==|  0.74301
ROOT
ATOM      1  C   HIS P   3      18.954   3.368  17.415  1.00 29.14 LIG 0.24  C 
ATOM      2 O    HIS P   3      18.106   3.108  16.541  1.00 31.23 LIG-0.27  OA
ATOM      3  N   PRO P   4      19.089   4.615  17.901  1.00 24.67 LIG-0.34  N 
ATOM      4  CA  PRO P   4      18.333   5.734  17.388  1.00 22.95 LIG 0.18  C 
ATOM      5  CB  PRO P   4      18.745   6.915  18.254  1.00 20.99 LIG 0.04  C 
ATOM      6  CG  PRO P   4      19.533   6.351  19.415  1.00 22.70 LIG 0.02  C 
ATOM      7  CD  PRO P   4      20.058   5.044  18.940  1.00 21.81 LIG 0.13  C 
ENDROOT
BRANCH 4 8
ATOM      8  C   PRO P   4      18.497   6.068  15.912  1.00 19.64 LIG 0.24  C 
ATOM      9 O    PRO P   4      17.920   7.057  15.457  1.00 20.88 LIG-0.27  OA
ATOM     10  N   GLN P   5      19.314   5.304  15.167  1.00 22.98 LIG-0.35  N 
ATOM     11 H    GLN P   5      19.719   4.609  15.471  1.00 22.98 LIG 0.16  HD
BRANCH 10 12
ATOM     12  CA  GLN P   5      19.592   5.582  13.762  1.00 16.98 LIG 0.18  C 
BRANCH 12 13
ATOM     13  C   GLN P   5      18.471   5.207  12.815  1.00 21.89 LIG 0.24  C 
ATOM     14  N   ASN P   6      17.427   4.469  13.199  1.00 22.75 LIG-0.35  N 
ATOM     15 H    ASN P   6      17.291   4.138  13.981  1.00 22.75 LIG 0.16  HD
ATOM     16 O    GLN P   5      18.551   5.601  11.644  1.00 24.56 LIG-0.27  OA
BRANCH 14 17
ATOM     17  CA  ASN P   6      16.426   4.206  12.192  1.00 29.16 LIG 0.18  C 
BRANCH 17 18
ATOM     18  CB  ASN P   6      16.724   2.985  11.310  1.00 24.89 LIG 0.14  C 
BRANCH 18 19
ATOM     19  CG  ASN P   6      16.714   3.311   9.828  1.00 26.77 LIG 0.22  C 
ATOM     20 OD1  ASN P   6      16.279   2.557   8.939  1.00 24.78 LIG-0.27  OA
ATOM     21  ND2 ASN P   6      17.197   4.502   9.545  1.00 25.10 LIG-0.37  N 
ATOM     22 22HD ASN P   6      17.493   5.007  10.174  1.00 25.10 LIG 0.16  HD
ATOM     23 21HD ASN P   6      17.216   4.775   8.730  1.00 25.10 LIG 0.16  HD
ENDBRANCH 18 19
ENDBRANCH 17 18
BRANCH 17 24
ATOM     24  C   ASN P   6      15.103   3.973  12.806  1.00 33.65 LIG 0.24  C 
ATOM     25 O    ASN P   6      14.055   4.125  12.187  1.00 34.15 LIG-0.27  OA
ATOM     26  N   THR P   7      15.366   3.464  14.006  1.00 46.42 LIG-0.34  N 
ATOM     27 H    THR P   7      16.181   3.323  14.242  1.00 46.42 LIG 0.16  HD
BRANCH 26 28
ATOM     28  CA  THR P   7      14.451   3.077  15.069  1.00 55.98 LIG 0.21  C 
BRANCH 28 29
ATOM     29  CB  THR P   7      14.390   4.383  15.951  1.00 59.10 LIG 0.15  C 
ATOM     30  CG2 THR P   7      15.388   5.466  15.500  1.00 61.71 LIG 0.04  C 
BRANCH 29 31
ATOM     31 OG1  THR P   7      13.033   4.832  15.919  1.00 60.27 LIG-0.39  OA
ATOM     32 HG1  THR P   7      12.929   5.364  15.277  1.00 60.27 LIG 0.21  HD
ENDBRANCH 29 31
ENDBRANCH 28 29
BRANCH 28 33
ATOM     33  C   THR P   7      13.077   2.457  14.791  1.00 57.95 LIG 0.29  C 
ATOM     34  N   NH2 P   8      13.074   1.131  14.715  1.00 58.98 LIG-0.11  N 
ATOM     35 O    THR P   7      12.050   3.109  14.581  1.00 60.38 LIG-0.27  OA
ENDBRANCH 28 33
ENDBRANCH 26 28
ENDBRANCH 17 24
ENDBRANCH 14 17
ENDBRANCH 12 13
BRANCH 12 36
ATOM     36  CB  GLN P   5      20.874   4.877  13.360  1.00 11.38 LIG 0.04  C 
BRANCH 36 37
ATOM     37  CG  GLN P   5      20.645   3.849  12.255  1.00 11.43 LIG 0.10  C 
BRANCH 37 38
ATOM     38  CD  GLN P   5      21.204   4.238  10.894  1.00 11.64 LIG 0.21  C 
ATOM     39  NE2 GLN P   5      20.444   4.742   9.943  1.00  7.77 LIG-0.37  N 
ATOM     40 21HE GLN P   5      19.605   4.866  10.083  1.00  7.77 LIG 0.16  HD
ATOM     41 22HE GLN P   5      20.788   4.946   9.181  1.00  7.77 LIG 0.16  HD
ATOM     42 OE1  GLN P   5      22.394   4.071  10.668  1.00 11.36 LIG-0.27  OA
ENDBRANCH 37 38
ENDBRANCH 36 37
ENDBRANCH 12 36
ENDBRANCH 10 12
ENDBRANCH 4 8
BRANCH 1 43
ATOM     43  CA  HIS P   3      19.775   2.239  18.032  1.00 30.34 LIG 0.18  C 
BRANCH 43 44
ATOM     44  N   HIS P   3      18.651   1.399  18.380  1.00 35.71 LIG-0.35  N 
ATOM     45  C   CYS P   2      18.552   0.110  18.136  0.17 38.31 LIG 0.24  C 
ATOM     46 O    CYS P   2      19.369  -0.494  17.433  0.17 38.29 LIG-0.27  OA
ATOM     47 H    HIS P   3      18.024   1.836  18.777  1.00 35.71 LIG 0.16  HD
BRANCH 45 48
ATOM     48  CA  CYS P   2      17.286  -0.492  18.746  0.17 40.64 LIG 0.18  C 
BRANCH 48 49
ATOM     49  N   CYS P   2      16.545  -1.456  17.920  0.17 43.25 LIG-0.34  N 
ATOM     50  C   PHE P   1      15.341  -1.231  17.384  0.36 44.98 LIG 0.25  C 
ATOM     51 O    PHE P   1      14.664  -0.248  17.676  0.36 46.44 LIG-0.27  OA
ATOM     52 H    CYS P   2      16.967  -2.198  17.810  0.17 43.25 LIG 0.16  HD
BRANCH 50 53
ATOM     53  CA  PHE P   1      14.630  -2.234  16.479  0.36 46.68 LIG 0.28  C 
BRANCH 53 54
ATOM     54  CB  PHE P   1      13.628  -2.944  17.412  0.36 47.92 LIG 0.08  C 
BRANCH 54 55
ATOM     55  CG  PHE P   1      13.948  -3.364  18.845  0.36 47.93 LIG-0.06  A 
ATOM     56  CD1 PHE P   1      14.545  -4.585  19.178  0.36 48.98 LIG 0.01  A 
ATOM     57  CE1 PHE P   1      14.816  -4.886  20.517  0.36 50.12 LIG 0.00  A 
ATOM     58  CZ  PHE P   1      14.494  -3.978  21.526  0.36 48.72 LIG 0.00  A 
ATOM     59  CE2 PHE P   1      13.902  -2.762  21.191  0.36 48.48 LIG 0.00  A 
ATOM     60  CD2 PHE P   1      13.630  -2.454  19.857  0.36 48.25 LIG 0.01  A 
ENDBRANCH 54 55
ENDBRANCH 53 54
BRANCH 53 61
ATOM     61  N   PHE P   1      15.761  -3.043  16.058  0.36 46.83 LIG-0.07  N 
ATOM     62 H3   PHE P   1      16.516  -2.589  16.187  0.36 46.83 LIG 0.28  HD
ATOM     63 H1   PHE P   1      15.782  -3.795  16.535  0.36 46.83 LIG 0.28  HD
ATOM     64 H2   PHE P   1      15.679  -3.241  15.194  0.36 46.83 LIG 0.28  HD
ENDBRANCH 53 61
ENDBRANCH 50 53
ENDBRANCH 48 49
BRANCH 48 65
ATOM     65  CB  CYS P   2      17.705  -1.015  20.119  0.17 41.02 LIG 0.10  C 
BRANCH 65 66
ATOM     66 SG   CYS P   2      18.020  -2.770  19.814  0.17 41.68 LIG-0.18  SA
ATOM     67 HG   CYS P   2      17.430  -3.429  20.625  0.17 41.68 LIG 0.10  HD
ENDBRANCH 65 66
ENDBRANCH 48 65
ENDBRANCH 45 48
ENDBRANCH 43 44
BRANCH 43 68
ATOM     68  CB  HIS P   3      20.803   1.764  16.956  1.00 25.21 LIG 0.10  C 
BRANCH 68 69
ATOM     69  CG  HIS P   3      21.915   2.857  16.840  1.00 21.50 LIG 0.06  A 
ATOM     70 ND1  HIS P   3      21.833   3.843  15.946  1.00 15.93 LIG-0.24  NA
ATOM     71  CE1 HIS P   3      22.800   4.679  16.294  1.00 14.31 LIG 0.23  A 
ATOM     72 NE2  HIS P   3      23.445   4.232  17.361  1.00 14.39 LIG-0.25  NA
ATOM     73  CD2 HIS P   3      22.941   3.082  17.748  1.00 20.69 LIG 0.14  A 
ENDBRANCH 68 69
ENDBRANCH 43 68
ENDBRANCH 1 43
TORSDOF 26
ENDMDL
MODEL 3
USER: ADFR SOLUTION from run 138
USER: SCORE 20.035817 LL:  -7.446 LR: -15.269 RR:   0.000 FEB:  -7.513
USER: RMSD 3.648299
USER: SEED 137
USER: STATUS no improvement in best in 4 clusters for 5 generations
USER: GENES 28
USER: genes 0 Translation |==|  0.56884 0.56607 0.53512
USER: genes 1 Rotation |==|  0.55610 0.34824 0.47863 0.97262
USER: genes 2 Torsion [N]-CA--C-[O] |==|  0.54397
USER: genes 3 Torsion [C]-N--CA-[C] |==|  0.75444
USER: genes 4 Torsion [N]-CA--C-[N] |==|  0.87334
USER: genes 5 Torsion [C]-N--CA-[CB] |==|  0.34144
USER: genes 6 Torsion [N]-CA--CB-[CG] |==|  0.75943
USER: genes 7 Torsion [CA]-CB--CG-[ND2] |==|  0.73520
USER: genes 8 Torsion [N]-CA--C-[N] |==|  0.93727
USER: genes 9 Torsion [C]-N--CA-[CB] |==|  0.74102
USER: genes 10 Torsion [N]-CA--CB-[CG2] |==|  0.99367
USER: genes 11 Torsion [CA]-CB--OG1-[HG1] |==|  0.80098
USER: genes 12 Torsion [N]-CA--C-[N] |==|  0.32470
USER: genes 13 Torsion [N]-CA--CB-[CG] |==|  0.33953
USER: genes 14 Torsion [CA]-CB--CG-[CD] |==|  0.28949
USER: genes 15 Torsion [CB]-CG--CD-[OE1] |==|  0.95964
USER: genes 16 Torsion [N]-C--CA-[N] |==|  0.37550
USER: genes 17 Torsion [C]-CA--N-[C] |==|  0.48333
USER: genes 18 Torsion [N]-C--CA-[N] |==|  0.98711
USER: genes 19 Torsion [C]-CA--N-[C] |==|  0.76422
USER: genes 20 Torsion [N]-C--CA-[N] |==|  0.41758
USER: genes 21 Torsion [C]-CA--CB-[CG] |==|  0.68432
USER: genes 22 Torsion [CA]-CB--CG-[CD1] |==|  0.84153
USER: genes 23 Torsion [C]-CA--N-[H3] |==|  0.90117
USER: genes 24 Torsion [C]-CA--CB-[SG] |==|  0.52196
USER: genes 25 Torsion [CA]-CB--SG-[HG] |==|  0.56148
USER: genes 26 Torsion [C]-CA--CB-[CG] |==|  0.18203
USER: genes 27 Torsion [CA]-CB--CG-[ND1] |==|  0.74328
ROOT
ATOM      1  C   HIS P   3      18.670   3.021  17.834  1.00 29.14 LIG 0.24  C 
ATOM      2 O    HIS P   3      17.834   2.930  16.917  1.00 31.23 LIG-0.27  OA
ATOM      3  N   PRO P   4      18.845   4.175  18.503  1.00 24.67 LIG-0.34  N 
ATOM      4  CA  PRO P   4      18.146   5.389  18.149  1.00 22.95 LIG 0.18  C 
ATOM      5  CB  PRO P   4      18.584   6.411  19.188  1.00 20.99 LIG 0.04  C 
ATOM      6  CG  PRO P   4      19.323   5.648  20.265  1.00 22.70 LIG 0.02  C 
ATOM      7  CD  PRO P   4      19.806   4.404  19.610  1.00 21.81 LIG 0.13  C 
ENDROOT
BRANCH 4 8
ATOM      8  C   PRO P   4      18.357   5.930  16.741  1.00 19.64 LIG 0.24  C 
ATOM      9 O    PRO P   4      18.029   7.092  16.494  1.00 20.88 LIG-0.27  OA
ATOM     10  N   GLN P   5      18.949   5.139  15.831  1.00 22.98 LIG-0.35  N 
ATOM     11 H    GLN P   5      19.179   4.325  15.989  1.00 22.98 LIG 0.16  HD
BRANCH 10 12
ATOM     12  CA  GLN P   5      19.259   5.587  14.478  1.00 16.98 LIG 0.18  C 
BRANCH 12 13
ATOM     13  C   GLN P   5      18.141   5.380  13.477  1.00 21.89 LIG 0.24  C 
ATOM     14  N   ASN P   6      17.455   4.237  13.397  1.00 22.75 LIG-0.35  N 
ATOM     15 H    ASN P   6      17.575   3.531  13.873  1.00 22.75 LIG 0.16  HD
ATOM     16 O    GLN P   5      17.876   6.314  12.708  1.00 24.56 LIG-0.27  OA
BRANCH 14 17
ATOM     17  CA  ASN P   6      16.406   4.191  12.407  1.00 29.16 LIG 0.18  C 
BRANCH 17 18
ATOM     18  CB  ASN P   6      16.550   3.053  11.386  1.00 24.89 LIG 0.14  C 
BRANCH 18 19
ATOM     19  CG  ASN P   6      17.421   3.430  10.202  1.00 26.77 LIG 0.22  C 
ATOM     20 OD1  ASN P   6      18.661   3.333  10.176  1.00 24.78 LIG-0.27  OA
ATOM     21  ND2 ASN P   6      16.743   3.861   9.161  1.00 25.10 LIG-0.37  N 
ATOM     22 22HD ASN P   6      15.885   3.919   9.200  1.00 25.10 LIG 0.16  HD
ATOM     23 21HD ASN P   6      17.156   4.083   8.441  1.00 25.10 LIG 0.16  HD
ENDBRANCH 18 19
ENDBRANCH 17 18
BRANCH 17 24
ATOM     24  C   ASN P   6      15.083   4.024  13.042  1.00 33.65 LIG 0.24  C 
ATOM     25 O    ASN P   6      14.034   4.245  12.445  1.00 34.15 LIG-0.27  OA
ATOM     26  N   THR P   7      15.338   3.485  14.231  1.00 46.42 LIG-0.34  N 
ATOM     27 H    THR P   7      16.148   3.294  14.449  1.00 46.42 LIG 0.16  HD
BRANCH 26 28
ATOM     28  CA  THR P   7      14.422   3.135  15.306  1.00 55.98 LIG 0.21  C 
BRANCH 28 29
ATOM     29  CB  THR P   7      14.447   4.433  16.203  1.00 59.10 LIG 0.15  C 
ATOM     30  CG2 THR P   7      15.416   5.511  15.682  1.00 61.71 LIG 0.04  C 
BRANCH 29 31
ATOM     31 OG1  THR P   7      13.097   4.895  16.287  1.00 60.27 LIG-0.39  OA
ATOM     32 HG1  THR P   7      12.865   5.217  15.547  1.00 60.27 LIG 0.21  HD
ENDBRANCH 29 31
ENDBRANCH 28 29
BRANCH 28 33
ATOM     33  C   THR P   7      13.011   2.594  15.045  1.00 57.95 LIG 0.29  C 
ATOM     34  N   NH2 P   8      12.801   1.361  15.491  1.00 58.98 LIG-0.11  N 
ATOM     35 O    THR P   7      12.139   3.201  14.416  1.00 60.38 LIG-0.27  OA
ENDBRANCH 28 33
ENDBRANCH 26 28
ENDBRANCH 17 24
ENDBRANCH 14 17
ENDBRANCH 12 13
BRANCH 12 36
ATOM     36  CB  GLN P   5      20.521   4.894  14.001  1.00 11.38 LIG 0.04  C 
BRANCH 36 37
ATOM     37  CG  GLN P   5      20.296   4.102  12.715  1.00 11.43 LIG 0.10  C 
BRANCH 37 38
ATOM     38  CD  GLN P   5      20.848   4.755  11.457  1.00 11.64 LIG 0.21  C 
ATOM     39  NE2 GLN P   5      20.998   4.089  10.330  1.00  7.77 LIG-0.37  N 
ATOM     40 21HE GLN P   5      20.775   3.260  10.288  1.00  7.77 LIG 0.16  HD
ATOM     41 22HE GLN P   5      21.319   4.484   9.637  1.00  7.77 LIG 0.16  HD
ATOM     42 OE1  GLN P   5      21.172   5.933  11.490  1.00 11.36 LIG-0.27  OA
ENDBRANCH 37 38
ENDBRANCH 36 37
ENDBRANCH 12 36
ENDBRANCH 10 12
ENDBRANCH 4 8
BRANCH 1 43
ATOM     43  CA  HIS P   3      19.432   1.779  18.291  1.00 30.34 LIG 0.18  C 
BRANCH 43 44
ATOM     44  N   HIS P   3      18.311   0.869  18.207  1.00 35.71 LIG-0.35  N 
ATOM     45  C   CYS P   2      18.366  -0.434  18.383  0.17 38.31 LIG 0.24  C 
ATOM     46 O    CYS P   2      19.437  -1.042  18.491  0.17 38.29 LIG-0.27  OA
ATOM     47 H    HIS P   3      17.573   1.272  18.024  1.00 35.71 LIG 0.16  HD
BRANCH 45 48
ATOM     48  CA  CYS P   2      16.979  -1.075  18.345  0.17 40.64 LIG 0.18  C 
BRANCH 48 49
ATOM     49  N   CYS P   2      15.829  -0.164  18.232  0.17 43.25 LIG-0.34  N 
ATOM     50  C   PHE P   1      15.238   0.445  19.264  0.36 44.98 LIG 0.25  C 
ATOM     51 O    PHE P   1      15.498   0.164  20.433  0.36 46.44 LIG-0.27  OA
ATOM     52 H    CYS P   2      15.565  -0.057  17.421  0.17 43.25 LIG 0.16  HD
BRANCH 50 53
ATOM     53  CA  PHE P   1      14.085   1.433  19.101  0.36 46.68 LIG 0.28  C 
BRANCH 53 54
ATOM     54  CB  PHE P   1      14.776   2.805  18.964  0.36 47.92 LIG 0.08  C 
BRANCH 54 55
ATOM     55  CG  PHE P   1      14.658   3.924  19.995  0.36 47.93 LIG-0.06  A 
ATOM     56  CD1 PHE P   1      13.438   4.472  20.406  0.36 48.98 LIG 0.01  A 
ATOM     57  CE1 PHE P   1      13.418   5.489  21.366  0.36 50.12 LIG 0.00  A 
ATOM     58  CZ  PHE P   1      14.608   5.963  21.920  0.36 48.72 LIG 0.00  A 
ATOM     59  CE2 PHE P   1      15.821   5.414  21.511  0.36 48.48 LIG 0.00  A 
ATOM     60  CD2 PHE P   1      15.848   4.398  20.553  0.36 48.25 LIG 0.01  A 
ENDBRANCH 54 55
ENDBRANCH 53 54
BRANCH 53 61
ATOM     61  N   PHE P   1      13.385   1.216  20.355  0.36 46.83 LIG-0.07  N 
ATOM     62 H3   PHE P   1      13.438   0.356  20.581  0.36 46.83 LIG 0.28  HD
ATOM     63 H1   PHE P   1      13.758   1.713  20.993  0.36 46.83 LIG 0.28  HD
ATOM     64 H2   PHE P   1      12.531   1.446  20.262  0.36 46.83 LIG 0.28  HD
ENDBRANCH 53 61
ENDBRANCH 50 53
ENDBRANCH 48 49
BRANCH 48 65
ATOM     65  CB  CYS P   2      17.055  -2.146  17.259  0.17 41.02 LIG 0.10  C 
BRANCH 65 66
ATOM     66 SG   CYS P   2      15.339  -2.694  17.098  0.17 41.68 LIG-0.18  SA
ATOM     67 HG   CYS P   2      15.313  -3.794  16.617  0.17 41.68 LIG 0.10  HD
ENDBRANCH 65 66
ENDBRANCH 48 65
ENDBRANCH 45 48
ENDBRANCH 43 44
BRANCH 43 68
ATOM     68  CB  HIS P   3      20.656   1.602  17.337  1.00 25.21 LIG 0.10  C 
BRANCH 68 69
ATOM     69  CG  HIS P   3      21.616   2.816  17.558  1.00 21.50 LIG 0.06  A 
ATOM     70 ND1  HIS P   3      21.527   3.919  16.814  1.00 15.93 LIG-0.24  NA
ATOM     71  CE1 HIS P   3      22.314   4.790  17.428  1.00 14.31 LIG 0.23  A 
ATOM     72 NE2  HIS P   3      22.858   4.251  18.508  1.00 14.39 LIG-0.25  NA
ATOM     73  CD2 HIS P   3      22.464   3.004  18.641  1.00 20.69 LIG 0.14  A 
ENDBRANCH 68 69
ENDBRANCH 43 68
ENDBRANCH 1 43
TORSDOF 26
ENDMDL
MODEL 4
USER: ADFR SOLUTION from run 95
USER: SCORE 18.174603 LL:  -5.767 LR: -14.936 RR:   0.000 FEB:  -7.180
USER: RMSD 3.090319
USER: SEED 94
USER: STATUS no improvement in best in 10 clusters for 5 generations
USER: GENES 28
USER: genes 0 Translation |==|  0.61444 0.57850 0.55112
USER: genes 1 Rotation |==|  0.52452 0.49970 0.46425 0.99812
USER: genes 2 Torsion [N]-CA--C-[O] |==|  0.47129
USER: genes 3 Torsion [C]-N--CA-[C] |==|  0.78327
USER: genes 4 Torsion [N]-CA--C-[N] |==|  0.91855
USER: genes 5 Torsion [C]-N--CA-[CB] |==|  0.24897
USER: genes 6 Torsion [N]-CA--CB-[CG] |==|  0.70569
USER: genes 7 Torsion [CA]-CB--CG-[ND2] |==|  0.35519
USER: genes 8 Torsion [N]-CA--C-[N] |==|  0.37495
USER: genes 9 Torsion [C]-N--CA-[CB] |==|  0.79456
USER: genes 10 Torsion [N]-CA--CB-[CG2] |==|  0.47464
USER: genes 11 Torsion [CA]-CB--OG1-[HG1] |==|  0.91168
USER: genes 12 Torsion [N]-CA--C-[N] |==|  0.40310
USER: genes 13 Torsion [N]-CA--CB-[CG] |==|  0.49598
USER: genes 14 Torsion [CA]-CB--CG-[CD] |==|  0.49310
USER: genes 15 Torsion [CB]-CG--CD-[OE1] |==|  0.94488
USER: genes 16 Torsion [N]-C--CA-[N] |==|  0.41438
USER: genes 17 Torsion [C]-CA--N-[C] |==|  0.44788
USER: genes 18 Torsion [N]-C--CA-[N] |==|  0.32138
USER: genes 19 Torsion [C]-CA--N-[C] |==|  0.61113
USER: genes 20 Torsion [N]-C--CA-[N] |==|  0.27812
USER: genes 21 Torsion [C]-CA--CB-[CG] |==|  0.49588
USER: genes 22 Torsion [CA]-CB--CG-[CD1] |==|  0.23934
USER: genes 23 Torsion [C]-CA--N-[H3] |==|  0.20645
USER: genes 24 Torsion [C]-CA--CB-[SG] |==|  0.66212
USER: genes 25 Torsion [CA]-CB--SG-[HG] |==|  0.48287
USER: genes 26 Torsion [C]-CA--CB-[CG] |==|  0.24957
USER: genes 27 Torsion [CA]-CB--CG-[ND1] |==|  0.68913
ROOT
ATOM      1  C   HIS P   3      19.662   3.245  18.194  1.00 29.14 LIG 0.24  C 
ATOM      2 O    HIS P   3      18.448   3.122  17.951  1.00 31.23 LIG-0.27  OA
ATOM      3  N   PRO P   4      20.186   4.438  18.528  1.00 24.67 LIG-0.34  N 
ATOM      4  CA  PRO P   4      19.403   5.652  18.543  1.00 22.95 LIG 0.18  C 
ATOM      5  CB  PRO P   4      20.360   6.729  19.033  1.00 20.99 LIG 0.04  C 
ATOM      6  CG  PRO P   4      21.595   6.018  19.539  1.00 22.70 LIG 0.02  C 
ATOM      7  CD  PRO P   4      21.612   4.706  18.840  1.00 21.81 LIG 0.13  C 
ENDROOT
BRANCH 4 8
ATOM      8  C   PRO P   4      18.746   6.073  17.235  1.00 19.64 LIG 0.24  C 
ATOM      9 O    PRO P   4      17.920   6.987  17.250  1.00 20.88 LIG-0.27  OA
ATOM     10  N   GLN P   5      19.133   5.470  16.098  1.00 22.98 LIG-0.35  N 
ATOM     11 H    GLN P   5      19.705   4.828  16.074  1.00 22.98 LIG 0.16  HD
BRANCH 10 12
ATOM     12  CA  GLN P   5      18.616   5.849  14.788  1.00 16.98 LIG 0.18  C 
BRANCH 12 13
ATOM     13  C   GLN P   5      17.231   5.316  14.482  1.00 21.89 LIG 0.24  C 
ATOM     14  N   ASN P   6      16.775   4.172  14.998  1.00 22.75 LIG-0.35  N 
ATOM     15 H    ASN P   6      17.200   3.639  15.523  1.00 22.75 LIG 0.16  HD
ATOM     16 O    GLN P   5      16.516   5.975  13.716  1.00 24.56 LIG-0.27  OA
BRANCH 14 17
ATOM     17  CA  ASN P   6      15.430   3.798  14.632  1.00 29.16 LIG 0.18  C 
BRANCH 17 18
ATOM     18  CB  ASN P   6      15.336   2.944  13.359  1.00 24.89 LIG 0.14  C 
BRANCH 18 19
ATOM     19  CG  ASN P   6      14.809   3.721  12.167  1.00 26.77 LIG 0.22  C 
ATOM     20 OD1  ASN P   6      13.768   4.403  12.169  1.00 24.78 LIG-0.27  OA
ATOM     21  ND2 ASN P   6      15.572   3.635  11.099  1.00 25.10 LIG-0.37  N 
ATOM     22 22HD ASN P   6      16.287   3.158  11.119  1.00 25.10 LIG 0.16  HD
ATOM     23 21HD ASN P   6      15.356   4.056  10.381  1.00 25.10 LIG 0.16  HD
ENDBRANCH 18 19
ENDBRANCH 17 18
BRANCH 17 24
ATOM     24  C   ASN P   6      14.782   3.023  15.710  1.00 33.65 LIG 0.24  C 
ATOM     25 O    ASN P   6      15.389   2.192  16.378  1.00 34.15 LIG-0.27  OA
ATOM     26  N   THR P   7      13.564   3.544  15.824  1.00 46.42 LIG-0.34  N 
ATOM     27 H    THR P   7      13.337   4.212  15.331  1.00 46.42 LIG 0.16  HD
BRANCH 26 28
ATOM     28  CA  THR P   7      12.468   3.156  16.698  1.00 55.98 LIG 0.21  C 
BRANCH 28 29
ATOM     29  CB  THR P   7      11.959   1.823  16.026  1.00 59.10 LIG 0.15  C 
ATOM     30  CG2 THR P   7      10.927   1.068  16.884  1.00 61.71 LIG 0.04  C 
BRANCH 29 31
ATOM     31 OG1  THR P   7      11.453   2.183  14.739  1.00 60.27 LIG-0.39  OA
ATOM     32 HG1  THR P   7      11.131   2.959  14.771  1.00 60.27 LIG 0.21  HD
ENDBRANCH 29 31
ENDBRANCH 28 29
BRANCH 28 33
ATOM     33  C   THR P   7      12.620   3.060  18.221  1.00 57.95 LIG 0.29  C 
ATOM     34  N   NH2 P   8      11.540   3.414  18.908  1.00 58.98 LIG-0.11  N 
ATOM     35 O    THR P   7      13.668   2.749  18.796  1.00 60.38 LIG-0.27  OA
ENDBRANCH 28 33
ENDBRANCH 26 28
ENDBRANCH 17 24
ENDBRANCH 14 17
ENDBRANCH 12 13
BRANCH 12 36
ATOM     36  CB  GLN P   5      19.595   5.404  13.718  1.00 11.38 LIG 0.04  C 
BRANCH 36 37
ATOM     37  CG  GLN P   5      19.104   5.735  12.311  1.00 11.43 LIG 0.10  C 
BRANCH 37 38
ATOM     38  CD  GLN P   5      20.070   5.366  11.194  1.00 11.64 LIG 0.21  C 
ATOM     39  NE2 GLN P   5      19.673   5.213   9.948  1.00  7.77 LIG-0.37  N 
ATOM     40 21HE GLN P   5      18.846   5.328   9.743  1.00  7.77 LIG 0.16  HD
ATOM     41 22HE GLN P   5      20.241   4.998   9.339  1.00  7.77 LIG 0.16  HD
ATOM     42 OE1  GLN P   5      21.251   5.197  11.459  1.00 11.36 LIG-0.27  OA
ENDBRANCH 37 38
ENDBRANCH 36 37
ENDBRANCH 12 36
ENDBRANCH 10 12
ENDBRANCH 4 8
BRANCH 1 43
ATOM     43  CA  HIS P   3      20.556   2.008  18.229  1.00 30.34 LIG 0.18  C 
BRANCH 43 44
ATOM     44  N   HIS P   3      19.510   1.069  18.569  1.00 35.71 LIG-0.35  N 
ATOM     45  C   CYS P   2      19.570  -0.236  18.413  0.17 38.31 LIG 0.24  C 
ATOM     46 O    CYS P   2      20.493  -0.787  17.803  0.17 38.29 LIG-0.27  OA
ATOM     47 H    HIS P   3      18.814   1.455  18.897  1.00 35.71 LIG 0.16  HD
BRANCH 45 48
ATOM     48  CA  CYS P   2      18.341  -0.939  18.989  0.17 40.64 LIG 0.18  C 
BRANCH 48 49
ATOM     49  N   CYS P   2      17.473  -1.647  18.036  0.17 43.25 LIG-0.34  N 
ATOM     50  C   PHE P   1      16.137  -1.652  18.084  0.36 44.98 LIG 0.25  C 
ATOM     51 O    PHE P   1      15.510  -1.198  19.039  0.36 46.44 LIG-0.27  OA
ATOM     52 H    CYS P   2      17.915  -2.068  17.430  0.17 43.25 LIG 0.16  HD
BRANCH 50 53
ATOM     53  CA  PHE P   1      15.268  -2.349  17.040  0.36 46.68 LIG 0.28  C 
BRANCH 53 54
ATOM     54  CB  PHE P   1      14.083  -1.386  16.827  0.36 47.92 LIG 0.08  C 
BRANCH 54 55
ATOM     55  CG  PHE P   1      12.949  -1.637  15.836  0.36 47.93 LIG-0.06  A 
ATOM     56  CD1 PHE P   1      11.808  -2.388  16.140  0.36 48.98 LIG 0.01  A 
ATOM     57  CE1 PHE P   1      10.809  -2.560  15.175  0.36 50.12 LIG 0.00  A 
ATOM     58  CZ  PHE P   1      10.941  -1.989  13.909  0.36 48.72 LIG 0.00  A 
ATOM     59  CE2 PHE P   1      12.077  -1.240  13.610  0.36 48.48 LIG 0.00  A 
ATOM     60  CD2 PHE P   1      13.078  -1.063  14.568  0.36 48.25 LIG 0.01  A 
ENDBRANCH 54 55
ENDBRANCH 53 54
BRANCH 53 61
ATOM     61  N   PHE P   1      14.949  -3.574  17.751  0.36 46.83 LIG-0.07  N 
ATOM     62 H3   PHE P   1      14.349  -3.402  18.386  0.36 46.83 LIG 0.28  HD
ATOM     63 H1   PHE P   1      14.614  -4.170  17.180  0.36 46.83 LIG 0.28  HD
ATOM     64 H2   PHE P   1      15.688  -3.903  18.123  0.36 46.83 LIG 0.28  HD
ENDBRANCH 53 61
ENDBRANCH 50 53
ENDBRANCH 48 49
BRANCH 48 65
ATOM     65  CB  CYS P   2      18.865  -1.799  20.138  0.17 41.02 LIG 0.10  C 
BRANCH 65 66
ATOM     66 SG   CYS P   2      18.355  -3.470  19.669  0.17 41.68 LIG-0.18  SA
ATOM     67 HG   CYS P   2      18.818  -4.261  20.443  0.17 41.68 LIG 0.10  HD
ENDBRANCH 65 66
ENDBRANCH 48 65
ENDBRANCH 45 48
ENDBRANCH 43 44
BRANCH 43 68
ATOM     68  CB  HIS P   3      21.276   1.909  16.846  1.00 25.21 LIG 0.10  C 
BRANCH 68 69
ATOM     69  CG  HIS P   3      22.616   2.708  16.945  1.00 21.50 LIG 0.06  A 
ATOM     70 ND1  HIS P   3      22.806   3.839  16.266  1.00 15.93 LIG-0.24  NA
ATOM     71  CE1 HIS P   3      23.925   4.337  16.770  1.00 14.31 LIG 0.23  A 
ATOM     72 NE2  HIS P   3      24.401   3.552  17.724  1.00 14.39 LIG-0.25  NA
ATOM     73  CD2 HIS P   3      23.625   2.502  17.877  1.00 20.69 LIG 0.14  A 
ENDBRANCH 68 69
ENDBRANCH 43 68
ENDBRANCH 1 43
TORSDOF 26
ENDMDL
MODEL 5
USER: ADFR SOLUTION from run 165
USER: SCORE 18.834457 LL:  -6.460 LR: -14.545 RR:   0.000 FEB:  -6.789
USER: RMSD 4.131449
USER: SEED 164
USER: STATUS no improvement in best in 10 clusters for 5 generations
USER: GENES 28
USER: genes 0 Translation |==|  0.66215 0.51416 0.51385
USER: genes 1 Rotation |==|  0.50525 0.45621 0.39020 0.98580
USER: genes 2 Torsion [N]-CA--C-[O] |==|  0.42096
USER: genes 3 Torsion [C]-N--CA-[C] |==|  0.86091
USER: genes 4 Torsion [N]-CA--C-[N] |==|  0.89481
USER: genes 5 Torsion [C]-N--CA-[CB] |==|  0.17738
USER: genes 6 Torsion [N]-CA--CB-[CG] |==|  0.54879
USER: genes 7 Torsion [CA]-CB--CG-[ND2] |==|  0.40036
USER: genes 8 Torsion [N]-CA--C-[N] |==|  0.24423
USER: genes 9 Torsion [C]-N--CA-[CB] |==|  0.78295
USER: genes 10 Torsion [N]-CA--CB-[CG2] |==|  0.33346
USER: genes 11 Torsion [CA]-CB--OG1-[HG1] |==|  0.45715
USER: genes 12 Torsion [N]-CA--C-[N] |==|  0.45661
USER: genes 13 Torsion [N]-CA--CB-[CG] |==|  0.92446
USER: genes 14 Torsion [CA]-CB--CG-[CD] |==|  0.84223
USER: genes 15 Torsion [CB]-CG--CD-[OE1] |==|  0.82805
USER: genes 16 Torsion [N]-C--CA-[N] |==|  0.39963
USER: genes 17 Torsion [C]-CA--N-[C] |==|  0.60138
USER: genes 18 Torsion [N]-C--CA-[N] |==|  0.18545
USER: genes 19 Torsion [C]-CA--N-[C] |==|  0.52943
USER: genes 20 Torsion [N]-C--CA-[N] |==|  0.29432
USER: genes 21 Torsion [C]-CA--CB-[CG] |==|  0.53921
USER: genes 22 Torsion [CA]-CB--CG-[CD1] |==|  0.76836
USER: genes 23 Torsion [C]-CA--N-[H3] |==|  0.14084
USER: genes 24 Torsion [C]-CA--CB-[SG] |==|  0.74362
USER: genes 25 Torsion [CA]-CB--SG-[HG] |==|  0.53484
USER: genes 26 Torsion [C]-CA--CB-[CG] |==|  0.27569
USER: genes 27 Torsion [CA]-CB--CG-[ND1] |==|  0.71707
ROOT
ATOM      1  C   HIS P   3      20.700   2.087  17.356  1.00 29.14 LIG 0.24  C 
ATOM      2 O    HIS P   3      19.552   2.303  16.925  1.00 31.23 LIG-0.27  OA
ATOM      3  N   PRO P   4      21.516   3.100  17.697  1.00 24.67 LIG-0.34  N 
ATOM      4  CA  PRO P   4      21.152   4.486  17.508  1.00 22.95 LIG 0.18  C 
ATOM      5  CB  PRO P   4      22.317   5.278  18.081  1.00 20.99 LIG 0.04  C 
ATOM      6  CG  PRO P   4      23.190   4.293  18.826  1.00 22.70 LIG 0.02  C 
ATOM      7  CD  PRO P   4      22.897   2.967  18.221  1.00 21.81 LIG 0.13  C 
ENDROOT
BRANCH 4 8
ATOM      8  C   PRO P   4      20.843   4.937  16.087  1.00 19.64 LIG 0.24  C 
ATOM      9 O    PRO P   4      20.058   5.872  15.915  1.00 20.88 LIG-0.27  OA
ATOM     10  N   GLN P   5      21.484   4.338  15.069  1.00 22.98 LIG-0.35  N 
ATOM     11 H    GLN P   5      22.031   3.682  15.174  1.00 22.98 LIG 0.16  HD
BRANCH 10 12
ATOM     12  CA  GLN P   5      21.311   4.744  13.678  1.00 16.98 LIG 0.18  C 
BRANCH 12 13
ATOM     13  C   GLN P   5      19.867   4.862  13.235  1.00 21.89 LIG 0.24  C 
ATOM     14  N   ASN P   6      18.921   4.013  13.644  1.00 22.75 LIG-0.35  N 
ATOM     15 H    ASN P   6      19.027   3.339  14.168  1.00 22.75 LIG 0.16  HD
ATOM     16 O    GLN P   5      19.577   5.780  12.456  1.00 24.56 LIG-0.27  OA
BRANCH 14 17
ATOM     17  CA  ASN P   6      17.586   4.259  13.153  1.00 29.16 LIG 0.18  C 
BRANCH 17 18
ATOM     18  CB  ASN P   6      17.438   4.121  11.631  1.00 24.89 LIG 0.14  C 
BRANCH 18 19
ATOM     19  CG  ASN P   6      16.179   4.781  11.099  1.00 26.77 LIG 0.22  C 
ATOM     20 OD1  ASN P   6      15.093   4.826  11.704  1.00 24.78 LIG-0.27  OA
ATOM     21  ND2 ASN P   6      16.332   5.341   9.919  1.00 25.10 LIG-0.37  N 
ATOM     22 22HD ASN P   6      17.092   5.298   9.518  1.00 25.10 LIG 0.16  HD
ATOM     23 21HD ASN P   6      15.673   5.750   9.549  1.00 25.10 LIG 0.16  HD
ENDBRANCH 18 19
ENDBRANCH 17 18
BRANCH 17 24
ATOM     24  C   ASN P   6      16.616   3.325  13.759  1.00 33.65 LIG 0.24  C 
ATOM     25 O    ASN P   6      16.404   2.207  13.300  1.00 34.15 LIG-0.27  OA
ATOM     26  N   THR P   7      16.225   3.917  14.884  1.00 46.42 LIG-0.34  N 
ATOM     27 H    THR P   7      16.566   4.674  15.110  1.00 46.42 LIG 0.16  HD
BRANCH 26 28
ATOM     28  CA  THR P   7      15.250   3.480  15.871  1.00 55.98 LIG 0.21  C 
BRANCH 28 29
ATOM     29  CB  THR P   7      13.882   3.836  15.171  1.00 59.10 LIG 0.15  C 
ATOM     30  CG2 THR P   7      12.979   2.608  14.947  1.00 61.71 LIG 0.04  C 
BRANCH 29 31
ATOM     31 OG1  THR P   7      13.261   4.840  15.978  1.00 60.27 LIG-0.39  OA
ATOM     32 HG1  THR P   7      12.644   5.207  15.543  1.00 60.27 LIG 0.21  HD
ENDBRANCH 29 31
ENDBRANCH 28 29
BRANCH 28 33
ATOM     33  C   THR P   7      15.278   2.080  16.495  1.00 57.95 LIG 0.29  C 
ATOM     34  N   NH2 P   8      14.542   1.949  17.592  1.00 58.98 LIG-0.11  N 
ATOM     35 O    THR P   7      15.970   1.147  16.077  1.00 60.38 LIG-0.27  OA
ENDBRANCH 28 33
ENDBRANCH 26 28
ENDBRANCH 17 24
ENDBRANCH 14 17
ENDBRANCH 12 13
BRANCH 12 36
ATOM     36  CB  GLN P   5      22.055   3.775  12.780  1.00 11.38 LIG 0.04  C 
BRANCH 36 37
ATOM     37  CG  GLN P   5      23.240   3.124  13.489  1.00 11.43 LIG 0.10  C 
BRANCH 37 38
ATOM     38  CD  GLN P   5      24.262   4.099  14.055  1.00 11.64 LIG 0.21  C 
ATOM     39  NE2 GLN P   5      24.516   4.177  15.345  1.00  7.77 LIG-0.37  N 
ATOM     40 21HE GLN P   5      24.103   3.661  15.896  1.00  7.77 LIG 0.16  HD
ATOM     41 22HE GLN P   5      25.094   4.743  15.636  1.00  7.77 LIG 0.16  HD
ATOM     42 OE1  GLN P   5      24.861   4.843  13.293  1.00 11.36 LIG-0.27  OA
ENDBRANCH 37 38
ENDBRANCH 36 37
ENDBRANCH 12 36
ENDBRANCH 10 12
ENDBRANCH 4 8
BRANCH 1 43
ATOM     43  CA  HIS P   3      21.154   0.652  17.613  1.00 30.34 LIG 0.18  C 
BRANCH 43 44
ATOM     44  N   HIS P   3      19.849   0.136  17.963  1.00 35.71 LIG-0.35  N 
ATOM     45  C   CYS P   2      19.606  -0.774  18.883  0.17 38.31 LIG 0.24  C 
ATOM     46 O    CYS P   2      20.509  -1.402  19.446  0.17 38.29 LIG-0.27  OA
ATOM     47 H    HIS P   3      19.219   0.490  17.498  1.00 35.71 LIG 0.16  HD
BRANCH 45 48
ATOM     48  CA  CYS P   2      18.107  -0.999  19.081  0.17 40.64 LIG 0.18  C 
BRANCH 48 49
ATOM     49  N   CYS P   2      17.372  -1.602  17.959  0.17 43.25 LIG-0.34  N 
ATOM     50  C   PHE P   1      16.040  -1.683  17.879  0.36 44.98 LIG 0.25  C 
ATOM     51 O    PHE P   1      15.306  -1.410  18.827  0.36 46.44 LIG-0.27  OA
ATOM     52 H    CYS P   2      17.890  -1.904  17.343  0.17 43.25 LIG 0.16  HD
BRANCH 50 53
ATOM     53  CA  PHE P   1      15.311  -2.260  16.669  0.36 46.68 LIG 0.28  C 
BRANCH 53 54
ATOM     54  CB  PHE P   1      14.174  -1.255  16.395  0.36 47.92 LIG 0.08  C 
BRANCH 54 55
ATOM     55  CG  PHE P   1      12.985  -1.543  15.481  0.36 47.93 LIG-0.06  A 
ATOM     56  CD1 PHE P   1      13.022  -1.389  14.091  0.36 48.98 LIG 0.01  A 
ATOM     57  CE1 PHE P   1      11.890  -1.687  13.326  0.36 50.12 LIG 0.00  A 
ATOM     58  CZ  PHE P   1      10.719  -2.137  13.938  0.36 48.72 LIG 0.00  A 
ATOM     59  CE2 PHE P   1      10.686  -2.291  15.322  0.36 48.48 LIG 0.00  A 
ATOM     60  CD2 PHE P   1      11.813  -1.997  16.092  0.36 48.25 LIG 0.01  A 
ENDBRANCH 54 55
ENDBRANCH 53 54
BRANCH 53 61
ATOM     61  N   PHE P   1      14.887  -3.538  17.213  0.36 46.83 LIG-0.07  N 
ATOM     62 H3   PHE P   1      14.477  -3.409  17.993  0.36 46.83 LIG 0.28  HD
ATOM     63 H1   PHE P   1      14.326  -3.931  16.644  0.36 46.83 LIG 0.28  HD
ATOM     64 H2   PHE P   1      15.598  -4.060  17.336  0.36 46.83 LIG 0.28  HD
ENDBRANCH 53 61
ENDBRANCH 50 53
ENDBRANCH 48 49
BRANCH 48 65
ATOM     65  CB  CYS P   2      17.981  -1.751  20.405  0.17 41.02 LIG 0.10  C 
BRANCH 65 66
ATOM     66 SG   CYS P   2      17.993  -3.487  19.898  0.17 41.68 LIG-0.18  SA
ATOM     67 HG   CYS P   2      17.655  -4.176  20.820  0.17 41.68 LIG 0.10  HD
ENDBRANCH 65 66
ENDBRANCH 48 65
ENDBRANCH 45 48
ENDBRANCH 43 44
BRANCH 43 68
ATOM     68  CB  HIS P   3      21.873   0.148  16.321  1.00 25.21 LIG 0.10  C 
BRANCH 68 69
ATOM     69  CG  HIS P   3      23.415   0.281  16.548  1.00 21.50 LIG 0.06  A 
ATOM     70 ND1  HIS P   3      24.114   1.285  16.018  1.00 15.93 LIG-0.24  NA
ATOM     71  CE1 HIS P   3      25.299   1.201  16.605  1.00 14.31 LIG 0.23  A 
ATOM     72 NE2  HIS P   3      25.327   0.194  17.465  1.00 14.39 LIG-0.25  NA
ATOM     73  CD2 HIS P   3      24.171  -0.431  17.469  1.00 20.69 LIG 0.14  A 
ENDBRANCH 68 69
ENDBRANCH 43 68
ENDBRANCH 1 43
TORSDOF 26
ENDMDL
