MODEL 1
USER: ADFR SOLUTION from run 99
USER: SCORE 12.847840 LL:  -1.956 LR: -11.223 RR:   0.000 FEB:  -7.942
USER: RMSD 3.531869
USER: SEED 98
USER: STATUS 1 or 2 clusters left
USER: GENES 13
USER: genes 0 Translation |==|  0.49909 0.52924 0.44789
USER: genes 1 Rotation |==|  0.56213 0.53192 0.45507 0.99305
USER: genes 2 Torsion [C]-N--CA-[CB] |==|  0.51667
USER: genes 3 Torsion [N]-CA--C-[N] |==|  0.43389
USER: genes 4 Torsion [C]-N--CA-[C] |==|  0.72651
USER: genes 5 Torsion [N]-CA--C-[O] |==|  0.60772
USER: genes 6 Torsion [N]-CA--CB-[CG] |==|  0.63158
USER: genes 7 Torsion [CA]-CB--CG-[CD1] |==|  0.07198
USER: genes 8 Torsion [N]-C--CA-[N] |==|  0.89888
USER: genes 9 Torsion [C]-CA--CB-[CG] |==|  0.27335
USER: genes 10 Torsion [CA]-CB--CG-[CD1] |==|  0.82493
USER: genes 11 Torsion [C]-CA--N-[C] |==|  0.78781
USER: genes 12 Torsion [N]-C--CA-[N] |==|  0.34812
ROOT
ATOM      1  C   LEU C 675      26.155   3.835  19.723  1.00 14.56 LIG 0.24  C 
ATOM      2 O    LEU C 675      26.926   3.762  20.700  0.66 14.97 LIG-0.27  OA
ATOM      3  N   ALA C 676      24.837   3.696  19.870  0.83 13.84 LIG-0.35  N 
ATOM      4 H    ALA C 676      24.294   3.744  19.205  0.83 13.84 LIG 0.16  HD
ENDROOT
BRANCH 3 5
ATOM      5  CA  ALA C 676      24.155   3.452  21.149  1.00 13.04 LIG 0.17  C 
ATOM      6  CB  ALA C 676      22.679   3.202  20.925  0.89 13.68 LIG 0.04  C 
BRANCH 5 7
ATOM      7  C   ALA C 676      24.862   2.389  21.959  0.69 12.60 LIG 0.24  C 
ATOM      8 O    ALA C 676      25.649   1.566  21.448  0.52 12.22 LIG-0.27  OA
ATOM      9  N   LEU C 677      24.639   2.451  23.278  0.89 12.12 LIG-0.34  N 
ATOM     10 H    LEU C 677      24.103   3.018  23.640  0.89 12.12 LIG 0.16  HD
BRANCH 9 11
ATOM     11  CA  LEU C 677      25.283   1.564  24.227  0.93 11.78 LIG 0.18  C 
BRANCH 11 12
ATOM     12  C   LEU C 677      24.572   0.378  24.728  0.42 11.73 LIG 0.20  C 
ATOM     13 O    LEU C 677      24.667   0.001  25.943  0.84 11.50 LIG-0.65  OA
ATOM     14 OXT  LEU C 677      23.866  -0.318  23.944  0.55 11.71 LIG-0.65  OA
ENDBRANCH 11 12
BRANCH 11 15
ATOM     15  CB  LEU C 677      26.358   2.295  24.983  1.00 11.60 LIG 0.04  C 
BRANCH 15 16
ATOM     16  CG  LEU C 677      27.746   1.774  25.205  0.82 11.89 LIG-0.02  C 
ATOM     17  CD2 LEU C 677      28.809   2.882  25.195  0.78 11.63 LIG 0.01  C 
ATOM     18  CD1 LEU C 677      28.113   0.781  24.069  1.00 11.42 LIG 0.01  C 
ENDBRANCH 15 16
ENDBRANCH 11 15
ENDBRANCH 9 11
ENDBRANCH 5 7
ENDBRANCH 3 5
BRANCH 1 19
ATOM     19  CA  LEU C 675      26.611   4.057  18.302  0.78 15.17 LIG 0.18  C 
BRANCH 19 20
ATOM     20  CB  LEU C 675      26.587   5.522  17.813  0.53 15.14 LIG 0.04  C 
BRANCH 20 21
ATOM     21  CG  LEU C 675      27.785   6.399  17.785  0.32 15.05 LIG-0.02  C 
ATOM     22  CD1 LEU C 675      28.396   6.683  19.158  0.18 15.17 LIG 0.01  C 
ATOM     23  CD2 LEU C 675      28.854   5.675  16.926  0.37 15.02 LIG 0.01  C 
ENDBRANCH 20 21
ENDBRANCH 19 20
BRANCH 19 24
ATOM     24  N   LEU C 675      25.848   3.318  17.319  0.88 15.36 LIG-0.35  N 
ATOM     25 H    LEU C 675      25.294   3.827  16.903  0.88 15.36 LIG 0.16  HD
ATOM     26  C   ALA C 674      25.929   2.025  17.033  0.61 16.05 LIG 0.26  C 
ATOM     27 O    ALA C 674      26.649   1.253  17.677  0.70 15.91 LIG-0.27  OA
BRANCH 26 28
ATOM     28  CA  ALA C 674      25.035   1.609  15.886  0.67 16.10 LIG 0.40  C 
ATOM     29  CB  ALA C 674      23.764   0.943  16.301  0.67 16.22 LIG 0.06  C 
ATOM     30  N   ALA C 674      25.725   0.923  14.797  0.74 16.71 LIG 0.61  N 
ENDBRANCH 26 28
ENDBRANCH 19 24
ENDBRANCH 1 19
TORSDOF 11
ENDMDL
MODEL 2
USER: ADFR SOLUTION from run 99
USER: SCORE 12.383306 LL:  -1.987 LR: -10.951 RR:   0.000 FEB:  -7.670
USER: RMSD 0.881221
USER: SEED 98
USER: STATUS 1 or 2 clusters left
USER: GENES 13
USER: genes 0 Translation |==|  0.48672 0.53080 0.44701
USER: genes 1 Rotation |==|  0.55058 0.53788 0.46609 0.99483
USER: genes 2 Torsion [C]-N--CA-[CB] |==|  0.50283
USER: genes 3 Torsion [N]-CA--C-[N] |==|  0.42357
USER: genes 4 Torsion [C]-N--CA-[C] |==|  0.74366
USER: genes 5 Torsion [N]-CA--C-[O] |==|  0.61310
USER: genes 6 Torsion [N]-CA--CB-[CG] |==|  0.62808
USER: genes 7 Torsion [CA]-CB--CG-[CD1] |==|  0.07353
USER: genes 8 Torsion [N]-C--CA-[N] |==|  0.43402
USER: genes 9 Torsion [C]-CA--CB-[CG] |==|  0.24878
USER: genes 10 Torsion [CA]-CB--CG-[CD1] |==|  0.43140
USER: genes 11 Torsion [C]-CA--N-[C] |==|  0.56547
USER: genes 12 Torsion [N]-C--CA-[N] |==|  0.49320
ROOT
ATOM      1  C   LEU C 675      25.960   3.859  19.706  1.00 14.56 LIG 0.24  C 
ATOM      2 O    LEU C 675      26.753   3.866  20.667  0.66 14.97 LIG-0.27  OA
ATOM      3  N   ALA C 676      24.654   3.662  19.889  0.83 13.84 LIG-0.35  N 
ATOM      4 H    ALA C 676      24.096   3.654  19.235  0.83 13.84 LIG 0.16  HD
ENDROOT
BRANCH 3 5
ATOM      5  CA  ALA C 676      24.012   3.438  21.192  1.00 13.04 LIG 0.17  C 
ATOM      6  CB  ALA C 676      22.522   3.227  21.021  0.89 13.68 LIG 0.04  C 
BRANCH 5 7
ATOM      7  C   ALA C 676      24.719   2.359  21.979  0.69 12.60 LIG 0.24  C 
ATOM      8 O    ALA C 676      25.412   1.473  21.436  0.52 12.22 LIG-0.27  OA
ATOM      9  N   LEU C 677      24.610   2.474  23.309  0.89 12.12 LIG-0.34  N 
ATOM     10 H    LEU C 677      24.140   3.083  23.693  0.89 12.12 LIG 0.16  HD
BRANCH 9 11
ATOM     11  CA  LEU C 677      25.276   1.577  24.234  0.93 11.78 LIG 0.18  C 
BRANCH 11 12
ATOM     12  C   LEU C 677      24.583   0.378  24.727  0.42 11.73 LIG 0.20  C 
ATOM     13 O    LEU C 677      24.672   0.003  25.943  0.84 11.50 LIG-0.65  OA
ATOM     14 OXT  LEU C 677      23.901  -0.333  23.933  0.55 11.71 LIG-0.65  OA
ENDBRANCH 11 12
BRANCH 11 15
ATOM     15  CB  LEU C 677      26.356   2.306  24.985  1.00 11.60 LIG 0.04  C 
BRANCH 15 16
ATOM     16  CG  LEU C 677      27.744   1.783  25.200  0.82 11.89 LIG-0.02  C 
ATOM     17  CD2 LEU C 677      28.808   2.890  25.200  0.78 11.63 LIG 0.01  C 
ATOM     18  CD1 LEU C 677      28.109   0.800  24.054  1.00 11.42 LIG 0.01  C 
ENDBRANCH 15 16
ENDBRANCH 11 15
ENDBRANCH 9 11
ENDBRANCH 5 7
ENDBRANCH 3 5
BRANCH 1 19
ATOM     19  CA  LEU C 675      26.375   4.044  18.268  0.78 15.17 LIG 0.18  C 
BRANCH 19 20
ATOM     20  CB  LEU C 675      26.558   2.744  17.452  0.53 15.14 LIG 0.04  C 
BRANCH 20 21
ATOM     21  CG  LEU C 675      25.464   2.092  16.689  0.32 15.05 LIG-0.02  C 
ATOM     22  CD1 LEU C 675      25.936   1.219  15.524  0.18 15.17 LIG 0.01  C 
ATOM     23  CD2 LEU C 675      24.696   1.185  17.685  0.37 15.02 LIG 0.01  C 
ENDBRANCH 20 21
ENDBRANCH 19 20
BRANCH 19 24
ATOM     24  N   LEU C 675      27.616   4.770  18.104  0.88 15.36 LIG-0.35  N 
ATOM     25 H    LEU C 675      28.106   4.718  18.809  0.88 15.36 LIG 0.16  HD
ATOM     26  C   ALA C 674      28.023   5.454  17.042  0.61 16.05 LIG 0.26  C 
ATOM     27 O    ALA C 674      27.301   5.621  16.053  0.70 15.91 LIG-0.27  OA
BRANCH 26 28
ATOM     28  CA  ALA C 674      29.417   6.020  17.194  0.67 16.10 LIG 0.40  C 
ATOM     29  CB  ALA C 674      29.654   6.748  18.476  0.67 16.22 LIG 0.06  C 
ATOM     30  N   ALA C 674      29.915   6.730  16.018  0.74 16.71 LIG 0.61  N 
ENDBRANCH 26 28
ENDBRANCH 19 24
ENDBRANCH 1 19
TORSDOF 11
ENDMDL
MODEL 3
USER: ADFR SOLUTION from run 164
USER: SCORE 11.079033 LL:  -1.828 LR:  -9.860 RR:   0.000 FEB:  -6.579
USER: RMSD 4.396360
USER: SEED 163
USER: STATUS searching
USER: GENES 13
USER: genes 0 Translation |==|  0.50037 0.51592 0.44852
USER: genes 1 Rotation |==|  0.55460 0.52369 0.41786 0.98960
USER: genes 2 Torsion [C]-N--CA-[CB] |==|  0.47778
USER: genes 3 Torsion [N]-CA--C-[N] |==|  0.46114
USER: genes 4 Torsion [C]-N--CA-[C] |==|  0.28131
USER: genes 5 Torsion [N]-CA--C-[O] |==|  0.94281
USER: genes 6 Torsion [N]-CA--CB-[CG] |==|  0.66077
USER: genes 7 Torsion [CA]-CB--CG-[CD1] |==|  0.94229
USER: genes 8 Torsion [N]-C--CA-[N] |==|  0.90326
USER: genes 9 Torsion [C]-CA--CB-[CG] |==|  0.19107
USER: genes 10 Torsion [CA]-CB--CG-[CD1] |==|  0.37354
USER: genes 11 Torsion [C]-CA--N-[C] |==|  0.80556
USER: genes 12 Torsion [N]-C--CA-[N] |==|  0.28990
ROOT
ATOM      1  C   LEU C 675      26.175   3.625  19.735  1.00 14.56 LIG 0.24  C 
ATOM      2 O    LEU C 675      26.919   3.478  20.724  0.66 14.97 LIG-0.27  OA
ATOM      3  N   ALA C 676      24.850   3.691  19.869  0.83 13.84 LIG-0.35  N 
ATOM      4 H    ALA C 676      24.325   3.792  19.196  0.83 13.84 LIG 0.16  HD
ENDROOT
BRANCH 3 5
ATOM      5  CA  ALA C 676      24.130   3.604  21.147  1.00 13.04 LIG 0.17  C 
ATOM      6  CB  ALA C 676      22.661   3.911  20.952  0.89 13.68 LIG 0.04  C 
BRANCH 5 7
ATOM      7  C   ALA C 676      24.416   2.300  21.857  0.69 12.60 LIG 0.24  C 
ATOM      8 O    ALA C 676      25.021   1.355  21.309  0.52 12.22 LIG-0.27  OA
ATOM      9  N   LEU C 677      24.041   2.268  23.141  0.89 12.12 LIG-0.34  N 
ATOM     10 H    LEU C 677      23.628   2.915  23.529  0.89 12.12 LIG 0.16  HD
BRANCH 9 11
ATOM     11  CA  LEU C 677      24.294   1.132  24.007  0.93 11.78 LIG 0.18  C 
BRANCH 11 12
ATOM     12  C   LEU C 677      25.406   1.171  24.968  0.42 11.73 LIG 0.20  C 
ATOM     13 O    LEU C 677      26.387   1.974  24.828  0.84 11.50 LIG-0.65  OA
ATOM     14 OXT  LEU C 677      25.426   0.374  25.950  0.55 11.71 LIG-0.65  OA
ENDBRANCH 11 12
BRANCH 11 15
ATOM     15  CB  LEU C 677      23.737  -0.125  23.400  1.00 11.60 LIG 0.04  C 
BRANCH 15 16
ATOM     16  CG  LEU C 677      22.725  -1.012  24.060  0.82 11.89 LIG-0.02  C 
ATOM     17  CD2 LEU C 677      21.292  -0.751  23.573  0.78 11.63 LIG 0.01  C 
ATOM     18  CD1 LEU C 677      22.738  -0.761  25.593  1.00 11.42 LIG 0.01  C 
ENDBRANCH 15 16
ENDBRANCH 11 15
ENDBRANCH 9 11
ENDBRANCH 5 7
ENDBRANCH 3 5
BRANCH 1 19
ATOM     19  CA  LEU C 675      26.670   3.718  18.313  0.78 15.17 LIG 0.18  C 
BRANCH 19 20
ATOM     20  CB  LEU C 675      26.905   5.148  17.778  0.53 15.14 LIG 0.04  C 
BRANCH 20 21
ATOM     21  CG  LEU C 675      27.990   6.039  18.265  0.32 15.05 LIG-0.02  C 
ATOM     22  CD1 LEU C 675      28.767   6.754  17.158  0.18 15.17 LIG 0.01  C 
ATOM     23  CD2 LEU C 675      27.322   7.119  19.155  0.37 15.02 LIG 0.01  C 
ENDBRANCH 20 21
ENDBRANCH 19 20
BRANCH 19 24
ATOM     24  N   LEU C 675      25.794   3.093  17.345  0.88 15.36 LIG-0.35  N 
ATOM     25 H    LEU C 675      25.406   3.677  16.848  0.88 15.36 LIG 0.16  HD
ATOM     26  C   ALA C 674      25.561   1.797  17.178  0.61 16.05 LIG 0.26  C 
ATOM     27 O    ALA C 674      26.033   0.942  17.937  0.70 15.91 LIG-0.27  OA
BRANCH 26 28
ATOM     28  CA  ALA C 674      24.647   1.499  16.011  0.67 16.10 LIG 0.40  C 
ATOM     29  CB  ALA C 674      23.407   0.749  16.370  0.67 16.22 LIG 0.06  C 
ATOM     30  N   ALA C 674      25.325   0.974  14.828  0.74 16.71 LIG 0.61  N 
ENDBRANCH 26 28
ENDBRANCH 19 24
ENDBRANCH 1 19
TORSDOF 11
ENDMDL
MODEL 4
USER: ADFR SOLUTION from run 4
USER: SCORE 10.625535 LL:  -1.889 LR:  -9.529 RR:   0.000 FEB:  -6.248
USER: RMSD 2.481551
USER: SEED 350182
USER: STATUS no improvement in best in 4 clusters for 5 generations
USER: GENES 13
USER: genes 0 Translation |==|  0.49926 0.51582 0.44783
USER: genes 1 Rotation |==|  0.55051 0.52578 0.41882 0.99010
USER: genes 2 Torsion [C]-N--CA-[CB] |==|  0.47222
USER: genes 3 Torsion [N]-CA--C-[N] |==|  0.45879
USER: genes 4 Torsion [C]-N--CA-[C] |==|  0.28180
USER: genes 5 Torsion [N]-CA--C-[O] |==|  0.93739
USER: genes 6 Torsion [N]-CA--CB-[CG] |==|  0.67651
USER: genes 7 Torsion [CA]-CB--CG-[CD1] |==|  0.59589
USER: genes 8 Torsion [N]-C--CA-[N] |==|  0.38603
USER: genes 9 Torsion [C]-CA--CB-[CG] |==|  0.21949
USER: genes 10 Torsion [CA]-CB--CG-[CD1] |==|  0.92278
USER: genes 11 Torsion [C]-CA--N-[C] |==|  0.60624
USER: genes 12 Torsion [N]-C--CA-[N] |==|  0.46974
ROOT
ATOM      1  C   LEU C 675      26.157   3.623  19.722  1.00 14.56 LIG 0.24  C 
ATOM      2 O    LEU C 675      26.912   3.495  20.705  0.66 14.97 LIG-0.27  OA
ATOM      3  N   ALA C 676      24.834   3.684  19.869  0.83 13.84 LIG-0.35  N 
ATOM      4 H    ALA C 676      24.301   3.772  19.200  0.83 13.84 LIG 0.16  HD
ENDROOT
BRANCH 3 5
ATOM      5  CA  ALA C 676      24.127   3.612  21.156  1.00 13.04 LIG 0.17  C 
ATOM      6  CB  ALA C 676      22.664   3.956  20.979  0.89 13.68 LIG 0.04  C 
BRANCH 5 7
ATOM      7  C   ALA C 676      24.390   2.299  21.859  0.69 12.60 LIG 0.24  C 
ATOM      8 O    ALA C 676      24.951   1.336  21.297  0.52 12.22 LIG-0.27  OA
ATOM      9  N   LEU C 677      24.046   2.279  23.152  0.89 12.12 LIG-0.34  N 
ATOM     10 H    LEU C 677      23.664   2.939  23.550  0.89 12.12 LIG 0.16  HD
BRANCH 9 11
ATOM     11  CA  LEU C 677      24.285   1.136  24.013  0.93 11.78 LIG 0.18  C 
BRANCH 11 12
ATOM     12  C   LEU C 677      25.419   1.141  24.948  0.42 11.73 LIG 0.20  C 
ATOM     13 O    LEU C 677      26.437   1.888  24.766  0.84 11.50 LIG-0.65  OA
ATOM     14 OXT  LEU C 677      25.420   0.369  25.950  0.55 11.71 LIG-0.65  OA
ENDBRANCH 11 12
BRANCH 11 15
ATOM     15  CB  LEU C 677      23.676  -0.104  23.418  1.00 11.60 LIG 0.04  C 
BRANCH 15 16
ATOM     16  CG  LEU C 677      22.568  -0.893  24.047  0.82 11.89 LIG-0.02  C 
ATOM     17  CD2 LEU C 677      22.524  -0.751  25.575  0.78 11.63 LIG 0.01  C 
ATOM     18  CD1 LEU C 677      22.766  -2.402  23.735  1.00 11.42 LIG 0.01  C 
ENDBRANCH 15 16
ENDBRANCH 11 15
ENDBRANCH 9 11
ENDBRANCH 5 7
ENDBRANCH 3 5
BRANCH 1 19
ATOM     19  CA  LEU C 675      26.637   3.698  18.293  0.78 15.17 LIG 0.18  C 
BRANCH 19 20
ATOM     20  CB  LEU C 675      26.983   2.345  17.632  0.53 15.14 LIG 0.04  C 
BRANCH 20 21
ATOM     21  CG  LEU C 675      25.964   1.410  17.090  0.32 15.05 LIG-0.02  C 
ATOM     22  CD1 LEU C 675      24.597   1.499  17.770  0.18 15.17 LIG 0.01  C 
ATOM     23  CD2 LEU C 675      25.776   1.766  15.592  0.37 15.02 LIG 0.01  C 
ENDBRANCH 20 21
ENDBRANCH 19 20
BRANCH 19 24
ATOM     24  N   LEU C 675      27.814   4.519  18.113  0.88 15.36 LIG-0.35  N 
ATOM     25 H    LEU C 675      28.367   4.426  18.765  0.88 15.36 LIG 0.16  HD
ATOM     26  C   ALA C 674      28.088   5.337  17.104  0.61 16.05 LIG 0.26  C 
ATOM     27 O    ALA C 674      27.274   5.559  16.200  0.70 15.91 LIG-0.27  OA
BRANCH 26 28
ATOM     28  CA  ALA C 674      29.455   5.976  17.205  0.67 16.10 LIG 0.40  C 
ATOM     29  CB  ALA C 674      29.686   6.749  18.462  0.67 16.22 LIG 0.06  C 
ATOM     30  N   ALA C 674      29.887   6.679  16.000  0.74 16.71 LIG 0.61  N 
ENDBRANCH 26 28
ENDBRANCH 19 24
ENDBRANCH 1 19
TORSDOF 11
ENDMDL
