MODEL 1
USER: ADFR SOLUTION from run 104
USER: SCORE 24.168064 LL:  -6.712 LR: -19.929 RR:   0.000 FEB: -13.366
USER: RMSD 2.091530
USER: SEED 103
USER: STATUS no improvement in best in 1 clusters for 5 generations
USER: GENES 24
USER: genes 0 Translation |==|  0.53728 0.53130 0.45062
USER: genes 1 Rotation |==|  0.57296 0.58352 0.43607 0.98334
USER: genes 2 Torsion [N]-C--CA-[N] |==|  0.42603
USER: genes 3 Torsion [C]-CA--N-[C] |==|  0.83729
USER: genes 4 Torsion [N]-C--CA-[N] |==|  0.40905
USER: genes 5 Torsion [C]-CA--N-[C] |==|  0.80795
USER: genes 6 Torsion [N]-C--CA-[CB] |==|  0.73154
USER: genes 7 Torsion [C]-CA--CB-[CG] |==|  0.52163
USER: genes 8 Torsion [CA]-CB--CG-[CD] |==|  0.81480
USER: genes 9 Torsion [CB]-CG--CD-[OE1] |==|  0.90258
USER: genes 10 Torsion [C]-CA--CB-[CG] |==|  0.17462
USER: genes 11 Torsion [CA]-CB--CG-[CD2] |==|  0.72218
USER: genes 12 Torsion [C]-N--CA-[C] |==|  0.56794
USER: genes 13 Torsion [N]-CA--C-[N] |==|  0.01669
USER: genes 14 Torsion [C]-N--CA-[CB] |==|  0.36121
USER: genes 15 Torsion [N]-CA--CB-[CG] |==|  0.77040
USER: genes 16 Torsion [CA]-CB--CG-[CD1] |==|  0.95685
USER: genes 17 Torsion [N]-CA--C-[N] |==|  0.03166
USER: genes 18 Torsion [C]-N--CA-[C] |==|  0.82761
USER: genes 19 Torsion [N]-CA--C-[O] |==|  0.90707
USER: genes 20 Torsion [N]-CA--CB-[CG] |==|  0.79070
USER: genes 21 Torsion [CA]-CB--CG-[CD2] |==|  0.92769
USER: genes 22 Torsion [N]-CA--CB-[OG] |==|  0.04458
USER: genes 23 Torsion [CA]-CB--OG-[HG] |==|  0.74843
ROOT
ATOM      1  C   PHE C   3      -0.350  13.669  33.409  1.00 30.25 LIG 0.24  C 
ATOM      2 O    PHE C   3      -0.607  14.788  32.942  1.00 30.55 LIG-0.27  OA
ATOM      3  N   SER C   4       0.865  13.132  33.382  1.00 32.44 LIG-0.34  N 
ATOM      4 H    SER C   4       1.045  12.334  33.646  1.00 32.44 LIG 0.16  HD
ENDROOT
BRANCH 1 5
ATOM      5  CA  PHE C   3      -1.417  12.801  34.054  1.00 26.21 LIG 0.18  C 
BRANCH 5 6
ATOM      6  N   PHE C   3      -2.516  13.558  34.623  1.00 23.98 LIG-0.35  N 
ATOM      7  C   GLN C   2      -2.317  14.477  35.571  1.00 28.84 LIG 0.24  C 
ATOM      8 O    GLN C   2      -1.194  14.779  35.993  1.00 27.39 LIG-0.27  OA
ATOM      9 H    PHE C   3      -3.288  13.362  34.298  1.00 23.98 LIG 0.16  HD
BRANCH 7 10
ATOM     10  CA  GLN C   2      -3.550  15.142  36.156  1.00 27.21 LIG 0.18  C 
BRANCH 10 11
ATOM     11  N   GLN C   2      -3.258  15.436  37.546  1.00 25.94 LIG-0.35  N 
ATOM     12  C   PRO C   1      -3.133  14.448  38.432  1.00 31.50 LIG 0.25  C 
ATOM     13 O    PRO C   1      -3.263  13.237  38.137  1.00 24.91 LIG-0.27  OA
ATOM     14 H    GLN C   2      -3.178  16.272  37.732  1.00 25.94 LIG 0.16  HD
BRANCH 12 15
ATOM     15  CA  PRO C   1      -2.784  14.876  39.857  1.00 31.39 LIG 0.28  C 
ATOM     16  CB  PRO C   1      -1.274  14.753  40.056  1.00 32.27 LIG 0.04  C 
ATOM     17  CG  PRO C   1      -1.181  14.045  41.448  1.00 38.02 LIG 0.03  C 
ATOM     18  CD  PRO C   1      -2.421  13.132  41.488  1.00 35.89 LIG 0.23  C 
ATOM     19  N   PRO C   1      -3.439  13.989  40.850  1.00 34.60 LIG-0.06  N 
ATOM     20 H3   PRO C   1      -3.845  14.459  41.446  1.00 34.60 LIG 0.28  HD
ATOM     21 H2   PRO C   1      -4.035  13.503  40.465  1.00 34.60 LIG 0.28  HD
ENDBRANCH 12 15
ENDBRANCH 10 11
BRANCH 10 22
ATOM     22  CB  GLN C   2      -3.929  16.417  35.400  1.00 25.76 LIG 0.04  C 
BRANCH 22 23
ATOM     23  CG  GLN C   2      -5.061  17.220  36.079  1.00 26.20 LIG 0.10  C 
BRANCH 23 24
ATOM     24  CD  GLN C   2      -6.436  16.520  36.095  1.00 24.22 LIG 0.21  C 
ATOM     25 OE1  GLN C   2      -6.815  15.809  35.163  1.00 24.67 LIG-0.27  OA
ATOM     26  NE2 GLN C   2      -7.182  16.753  37.155  1.00 25.16 LIG-0.37  N 
ATOM     27 21HE GLN C   2      -6.886  17.255  37.788  1.00 25.16 LIG 0.16  HD
ATOM     28 22HE GLN C   2      -7.966  16.403  37.215  1.00 25.16 LIG 0.16  HD
ENDBRANCH 23 24
ENDBRANCH 22 23
ENDBRANCH 10 22
ENDBRANCH 7 10
ENDBRANCH 5 6
BRANCH 5 29
ATOM     29  CB  PHE C   3      -1.922  11.741  33.083  1.00 22.10 LIG 0.07  C 
BRANCH 29 30
ATOM     30  CG  PHE C   3      -0.852  10.764  32.655  1.00 24.32 LIG-0.06  A 
ATOM     31  CD1 PHE C   3      -0.450   9.752  33.501  1.00 23.20 LIG 0.01  A 
ATOM     32  CE1 PHE C   3       0.601   8.875  33.132  1.00 24.47 LIG 0.00  A 
ATOM     33  CZ  PHE C   3       1.233   9.037  31.897  1.00 21.29 LIG 0.00  A 
ATOM     34  CE2 PHE C   3       0.828  10.047  31.043  1.00 28.99 LIG 0.00  A 
ATOM     35  CD2 PHE C   3      -0.205  10.901  31.421  1.00 24.32 LIG 0.01  A 
ENDBRANCH 29 30
ENDBRANCH 5 29
ENDBRANCH 1 5
BRANCH 3 36
ATOM     36  CA  SER C   4       2.017  13.879  32.887  1.00 37.32 LIG 0.20  C 
BRANCH 36 37
ATOM     37  C   SER C   4       3.236  13.137  32.343  1.00 37.03 LIG 0.24  C 
ATOM     38 O    SER C   4       4.237  13.778  32.018  1.00 37.42 LIG-0.27  OA
ATOM     39  N   LEU C   5       3.177  11.820  32.219  1.00 32.57 LIG-0.35  N 
ATOM     40 H    LEU C   5       2.483  11.339  32.384  1.00 32.57 LIG 0.16  HD
BRANCH 39 41
ATOM     41  CA  LEU C   5       4.353  11.089  31.772  1.00 32.69 LIG 0.18  C 
BRANCH 41 42
ATOM     42  CB  LEU C   5       4.616   9.921  32.734  1.00 33.51 LIG 0.04  C 
BRANCH 42 43
ATOM     43  CG  LEU C   5       5.386  10.297  34.005  1.00 35.50 LIG-0.02  C 
ATOM     44  CD1 LEU C   5       6.034  11.668  33.819  1.00 40.78 LIG 0.01  C 
ATOM     45  CD2 LEU C   5       4.438  10.306  35.205  1.00 38.12 LIG 0.01  C 
ENDBRANCH 42 43
ENDBRANCH 41 42
BRANCH 41 46
ATOM     46  C   LEU C   5       4.436  10.578  30.338  1.00 34.97 LIG 0.24  C 
ATOM     47 O    LEU C   5       5.328   9.781  30.026  1.00 35.54 LIG-0.27  OA
ATOM     48  N   TRP C   6       3.535  11.005  29.456  1.00 34.54 LIG-0.35  N 
ATOM     49 H    TRP C   6       2.907  11.567  29.624  1.00 34.54 LIG 0.16  HD
BRANCH 48 50
ATOM     50  CA  TRP C   6       3.580  10.507  28.088  1.00 36.31 LIG 0.17  C 
BRANCH 50 51
ATOM     51  C   TRP C   6       4.886  10.885  27.391  1.00 42.43 LIG 0.22  C 
ATOM     52 O    TRP C   6       5.421  11.972  27.685  1.00 44.49 LIG-0.29  OA
ENDBRANCH 50 51
BRANCH 50 53
ATOM     53  CB  TRP C   6       2.389  11.056  27.292  1.00 37.13 LIG 0.07  C 
BRANCH 53 54
ATOM     54  CG  TRP C   6       1.110  10.370  27.645  1.00 35.61 LIG-0.03  A 
ATOM     55  CD2 TRP C   6       0.944   9.039  28.166  1.00 38.42 LIG-0.00  A 
ATOM     56  CE2 TRP C   6      -0.444   8.812  28.297  1.00 38.54 LIG 0.04  A 
ATOM     57  CE3 TRP C   6       1.834   8.017  28.534  1.00 40.05 LIG 0.01  A 
ATOM     58  CZ2 TRP C   6      -0.972   7.594  28.779  1.00 36.38 LIG 0.03  A 
ATOM     59  NE1 TRP C   6      -1.084   9.949  27.879  1.00 34.74 LIG-0.36  N 
ATOM     60  CH2 TRP C   6      -0.077   6.614  29.132  1.00 37.49 LIG 0.00  A 
ATOM     61  CZ3 TRP C   6       1.312   6.812  29.017  1.00 37.02 LIG 0.00  A 
ATOM     62  CD1 TRP C   6      -0.139  10.878  27.494  1.00 33.83 LIG 0.10  A 
ATOM     63 HE1  TRP C   6      -1.936  10.065  27.860  1.00 34.74 LIG 0.17  HD
ENDBRANCH 53 54
ENDBRANCH 50 53
ENDBRANCH 48 50
ENDBRANCH 41 46
ENDBRANCH 39 41
ENDBRANCH 36 37
BRANCH 36 64
ATOM     64  CB  SER C   4       2.500  14.756  34.020  1.00 37.36 LIG 0.20  C 
BRANCH 64 65
ATOM     65 OG   SER C   4       1.927  14.278  35.224  1.00 45.19 LIG-0.40  OA
ATOM     66 HG   SER C   4       1.195  14.668  35.361  1.00 45.19 LIG 0.21  HD
ENDBRANCH 64 65
ENDBRANCH 36 64
ENDBRANCH 3 36
TORSDOF 22
ENDMDL
