MODEL 1
USER: ADFR SOLUTION from run 170
USER: SCORE 14.653075 LL:  -2.314 LR: -12.468 RR:   0.000 FEB:  -9.485
USER: RMSD 0.965467
USER: SEED 169
USER: STATUS 1 or 2 clusters left
USER: GENES 12
USER: genes 0 Translation |==|  0.54170 0.48465 0.42308
USER: genes 1 Rotation |==|  0.47818 0.53664 0.49323 0.99813
USER: genes 2 Torsion [N]-CA--C-[O] |==|  0.92927
USER: genes 3 Torsion [C]-N--CA-[C] |==|  0.82187
USER: genes 4 Torsion [N]-CA--C-[O] |==|  0.87066
USER: genes 5 Torsion [N]-CA--CB-[CG2] |==|  0.40939
USER: genes 6 Torsion [CA]-CB--CG1-[CD1] |==|  0.49576
USER: genes 7 Torsion [N]-C--CA-[N] |==|  0.42414
USER: genes 8 Torsion [C]-CA--CB-[CG1] |==|  0.58886
USER: genes 9 Torsion [C]-CA--N-[C] |==|  0.67417
USER: genes 10 Torsion [N]-C--CA-[N] |==|  0.43463
USER: genes 11 Torsion [C]-CA--N-[H2] |==|  0.67578
ROOT
ATOM      1  C   VAL C   2      81.633  62.378  14.811  1.00  9.13 LIG 0.24  C 
ATOM      2 O    VAL C   2      81.481  62.243  16.023  1.00  8.39 LIG-0.27  OA
ATOM      3  N   PRO C   3      80.908  63.246  14.105  1.00  8.40 LIG-0.34  N 
ATOM      4  CA  PRO C   3      79.849  64.027  14.759  1.00  9.15 LIG 0.18  C 
ATOM      5  CB  PRO C   3      79.298  64.898  13.627  1.00 10.26 LIG 0.04  C 
ATOM      6  CG  PRO C   3      80.391  64.941  12.618  1.00 11.14 LIG 0.02  C 
ATOM      7  CD  PRO C   3      81.038  63.591  12.679  1.00 11.16 LIG 0.13  C 
ENDROOT
BRANCH 4 8
ATOM      8  C   PRO C   3      78.748  63.152  15.375  1.00  9.70 LIG 0.24  C 
ATOM      9 O    PRO C   3      78.533  62.028  14.929  1.00  8.21 LIG-0.27  OA
ATOM     10  N   ILE C   4      78.063  63.674  16.388  1.00 10.20 LIG-0.35  N 
ATOM     11 H    ILE C   4      78.185  64.472  16.686  1.00 10.20 LIG 0.16  HD
BRANCH 10 12
ATOM     12  CA  ILE C   4      77.024  62.922  17.093  1.00 11.44 LIG 0.17  C 
BRANCH 12 13
ATOM     13  C   ILE C   4      75.858  62.596  16.161  1.00 10.89 LIG 0.22  C 
ATOM     14 O    ILE C   4      75.385  63.464  15.436  1.00  9.55 LIG-0.29  OA
ENDBRANCH 12 13
BRANCH 12 15
ATOM     15  CB  ILE C   4      76.531  63.713  18.332  1.00 10.54 LIG 0.01  C 
ATOM     16  CG2 ILE C   4      75.040  63.446  18.603  1.00 11.57 LIG 0.01  C 
BRANCH 15 17
ATOM     17  CG1 ILE C   4      77.382  63.347  19.554  1.00  9.08 LIG 0.00  C 
ATOM     18  CD1 ILE C   4      77.005  64.099  20.827  1.00  9.00 LIG 0.01  C 
ENDBRANCH 15 17
ENDBRANCH 12 15
ENDBRANCH 10 12
ENDBRANCH 4 8
BRANCH 1 19
ATOM     19  CA  VAL C   2      82.672  61.537  14.075  1.00  9.18 LIG 0.18  C 
BRANCH 19 20
ATOM     20  CB  VAL C   2      81.979  60.288  13.472  1.00  9.29 LIG 0.01  C 
ATOM     21  CG1 VAL C   2      82.934  59.103  13.443  1.00 10.46 LIG 0.01  C 
ATOM     22  CG2 VAL C   2      80.694  59.940  14.235  1.00 10.38 LIG 0.01  C 
ENDBRANCH 19 20
BRANCH 19 23
ATOM     23  N   VAL C   2      83.754  61.165  14.987  1.00 10.44 LIG-0.35  N 
ATOM     24 H    VAL C   2      83.501  60.674  15.646  1.00 10.44 LIG 0.16  HD
ATOM     25  C   ALA C   1      85.009  61.555  14.805  1.00  9.27 LIG 0.25  C 
ATOM     26 O    ALA C   1      85.377  62.222  13.838  1.00  8.72 LIG-0.27  OA
BRANCH 25 27
ATOM     27  CA  ALA C   1      86.007  61.101  15.859  1.00  8.36 LIG 0.27  C 
ATOM     28  CB  ALA C   1      85.950  62.000  17.083  1.00 10.14 LIG 0.05  C 
BRANCH 27 29
ATOM     29  N   ALA C   1      87.376  61.097  15.273  1.00  5.51 LIG-0.07  N 
ATOM     30 H1   ALA C   1      87.910  61.617  15.760  1.00  5.51 LIG 0.28  HD
ATOM     31 H2   ALA C   1      87.695  60.266  15.269  1.00  5.51 LIG 0.28  HD
ATOM     32 H3   ALA C   1      87.343  61.406  14.439  1.00  5.51 LIG 0.28  HD
ENDBRANCH 27 29
ENDBRANCH 25 27
ENDBRANCH 19 23
ENDBRANCH 1 19
TORSDOF 10
ENDMDL
MODEL 2
USER: ADFR SOLUTION from run 4
USER: SCORE 14.012201 LL:  -2.129 LR: -12.074 RR:   0.000 FEB:  -9.091
USER: RMSD 4.860260
USER: SEED 855269
USER: STATUS no improvement in best in 4 clusters for 5 generations
USER: GENES 12
USER: genes 0 Translation |==|  0.65282 0.42483 0.41646
USER: genes 1 Rotation |==|  0.09146 0.58293 0.48699 0.77577
USER: genes 2 Torsion [N]-CA--C-[O] |==|  0.94105
USER: genes 3 Torsion [C]-N--CA-[C] |==|  0.77910
USER: genes 4 Torsion [N]-CA--C-[O] |==|  0.12916
USER: genes 5 Torsion [N]-CA--CB-[CG2] |==|  0.44520
USER: genes 6 Torsion [CA]-CB--CG1-[CD1] |==|  0.48693
USER: genes 7 Torsion [N]-C--CA-[N] |==|  0.33206
USER: genes 8 Torsion [C]-CA--CB-[CG1] |==|  0.68993
USER: genes 9 Torsion [C]-CA--N-[C] |==|  0.68889
USER: genes 10 Torsion [N]-C--CA-[N] |==|  0.16604
USER: genes 11 Torsion [C]-CA--N-[H2] |==|  0.65247
ROOT
ATOM      1  C   VAL C   2      83.966  61.526  14.707  1.00  9.13 LIG 0.24  C 
ATOM      2 O    VAL C   2      83.985  62.740  14.523  1.00  8.39 LIG-0.27  OA
ATOM      3  N   PRO C   3      82.974  60.761  14.252  1.00  8.40 LIG-0.34  N 
ATOM      4  CA  PRO C   3      81.828  61.371  13.565  1.00  9.15 LIG 0.18  C 
ATOM      5  CB  PRO C   3      80.956  60.170  13.190  1.00 10.26 LIG 0.04  C 
ATOM      6  CG  PRO C   3      81.887  59.010  13.201  1.00 11.14 LIG 0.02  C 
ATOM      7  CD  PRO C   3      82.858  59.293  14.306  1.00 11.16 LIG 0.13  C 
ENDROOT
BRANCH 4 8
ATOM      8  C   PRO C   3      81.057  62.366  14.445  1.00  9.70 LIG 0.24  C 
ATOM      9 O    PRO C   3      81.150  62.307  15.669  1.00  8.21 LIG-0.27  OA
ATOM     10  N   ILE C   4      80.305  63.265  13.817  1.00 10.20 LIG-0.35  N 
ATOM     11 H    ILE C   4      80.209  63.295  12.963  1.00 10.20 LIG 0.16  HD
BRANCH 10 12
ATOM     12  CA  ILE C   4      79.563  64.299  14.541  1.00 11.44 LIG 0.17  C 
BRANCH 12 13
ATOM     13  C   ILE C   4      78.271  63.733  15.129  1.00 10.89 LIG 0.22  C 
ATOM     14 O    ILE C   4      78.283  62.668  15.734  1.00  9.55 LIG-0.29  OA
ENDBRANCH 12 13
BRANCH 12 15
ATOM     15  CB  ILE C   4      79.262  65.500  13.608  1.00 10.54 LIG 0.01  C 
ATOM     16  CG2 ILE C   4      78.103  66.351  14.158  1.00 11.57 LIG 0.01  C 
BRANCH 15 17
ATOM     17  CG1 ILE C   4      80.526  66.349  13.430  1.00  9.08 LIG 0.00  C 
ATOM     18  CD1 ILE C   4      80.372  67.499  12.438  1.00  9.00 LIG 0.01  C 
ENDBRANCH 15 17
ENDBRANCH 12 15
ENDBRANCH 10 12
ENDBRANCH 4 8
BRANCH 1 19
ATOM     19  CA  VAL C   2      85.100  60.855  15.479  1.00  9.18 LIG 0.18  C 
BRANCH 19 20
ATOM     20  CB  VAL C   2      85.132  61.416  16.923  1.00  9.29 LIG 0.01  C 
ATOM     21  CG1 VAL C   2      86.382  62.256  17.148  1.00 10.46 LIG 0.01  C 
ATOM     22  CG2 VAL C   2      83.865  62.222  17.238  1.00 10.38 LIG 0.01  C 
ENDBRANCH 19 20
BRANCH 19 23
ATOM     23  N   VAL C   2      86.372  61.069  14.789  1.00 10.44 LIG-0.35  N 
ATOM     24 H    VAL C   2      86.639  61.887  14.796  1.00 10.44 LIG 0.16  HD
ATOM     25  C   ALA C   1      87.046  60.085  14.208  1.00  9.27 LIG 0.25  C 
ATOM     26 O    ALA C   1      86.684  58.910  14.235  1.00  8.72 LIG-0.27  OA
BRANCH 25 27
ATOM     27  CA  ALA C   1      88.339  60.484  13.513  1.00  8.36 LIG 0.27  C 
ATOM     28  CB  ALA C   1      88.988  59.283  12.845  1.00 10.14 LIG 0.05  C 
BRANCH 27 29
ATOM     29  N   ALA C   1      89.264  61.097  14.507  1.00  5.51 LIG-0.07  N 
ATOM     30 H1   ALA C   1      89.983  60.580  14.603  1.00  5.51 LIG 0.28  HD
ATOM     31 H2   ALA C   1      89.514  61.902  14.222  1.00  5.51 LIG 0.28  HD
ATOM     32 H3   ALA C   1      88.849  61.176  15.290  1.00  5.51 LIG 0.28  HD
ENDBRANCH 27 29
ENDBRANCH 25 27
ENDBRANCH 19 23
ENDBRANCH 1 19
TORSDOF 10
ENDMDL
MODEL 3
USER: ADFR SOLUTION from run 51
USER: SCORE 14.027743 LL:  -2.470 LR: -11.700 RR:   0.000 FEB:  -8.717
USER: RMSD 2.186502
USER: SEED 50
USER: STATUS searching
USER: GENES 12
USER: genes 0 Translation |==|  0.54592 0.49097 0.42208
USER: genes 1 Rotation |==|  0.44240 0.56044 0.48591 0.99278
USER: genes 2 Torsion [N]-CA--C-[O] |==|  0.03846
USER: genes 3 Torsion [C]-N--CA-[C] |==|  0.15443
USER: genes 4 Torsion [N]-CA--C-[O] |==|  0.33145
USER: genes 5 Torsion [N]-CA--CB-[CG2] |==|  0.57263
USER: genes 6 Torsion [CA]-CB--CG1-[CD1] |==|  0.32644
USER: genes 7 Torsion [N]-C--CA-[N] |==|  0.44063
USER: genes 8 Torsion [C]-CA--CB-[CG1] |==|  0.57429
USER: genes 9 Torsion [C]-CA--N-[C] |==|  0.69575
USER: genes 10 Torsion [N]-C--CA-[N] |==|  0.43578
USER: genes 11 Torsion [C]-CA--N-[H2] |==|  0.67179
ROOT
ATOM      1  C   VAL C   2      81.721  62.468  14.796  1.00  9.13 LIG 0.24  C 
ATOM      2 O    VAL C   2      81.687  62.512  16.023  1.00  8.39 LIG-0.27  OA
ATOM      3  N   PRO C   3      80.945  63.248  14.043  1.00  8.40 LIG-0.34  N 
ATOM      4  CA  PRO C   3      79.968  64.146  14.675  1.00  9.15 LIG 0.18  C 
ATOM      5  CB  PRO C   3      79.322  64.862  13.486  1.00 10.26 LIG 0.04  C 
ATOM      6  CG  PRO C   3      80.311  64.727  12.382  1.00 11.14 LIG 0.02  C 
ATOM      7  CD  PRO C   3      80.939  63.382  12.576  1.00 11.16 LIG 0.13  C 
ENDROOT
BRANCH 4 8
ATOM      8  C   PRO C   3      78.919  63.401  15.513  1.00  9.70 LIG 0.24  C 
ATOM      9 O    PRO C   3      79.093  62.222  15.813  1.00  8.21 LIG-0.27  OA
ATOM     10  N   ILE C   4      77.844  64.091  15.879  1.00 10.20 LIG-0.35  N 
ATOM     11 H    ILE C   4      77.698  64.907  15.648  1.00 10.20 LIG 0.16  HD
BRANCH 10 12
ATOM     12  CA  ILE C   4      76.797  63.510  16.722  1.00 11.44 LIG 0.17  C 
BRANCH 12 13
ATOM     13  C   ILE C   4      77.382  62.972  18.027  1.00 10.89 LIG 0.22  C 
ATOM     14 O    ILE C   4      77.011  63.425  19.104  1.00  9.55 LIG-0.29  OA
ENDBRANCH 12 13
BRANCH 12 15
ATOM     15  CB  ILE C   4      76.044  62.393  15.956  1.00 10.54 LIG 0.01  C 
ATOM     16  CG2 ILE C   4      74.612  62.221  16.493  1.00 11.57 LIG 0.01  C 
BRANCH 15 17
ATOM     17  CG1 ILE C   4      76.031  62.710  14.456  1.00  9.08 LIG 0.00  C 
ATOM     18  CD1 ILE C   4      76.755  61.681  13.592  1.00  9.00 LIG 0.01  C 
ENDBRANCH 15 17
ENDBRANCH 12 15
ENDBRANCH 10 12
ENDBRANCH 4 8
BRANCH 1 19
ATOM     19  CA  VAL C   2      82.669  61.500  14.094  1.00  9.18 LIG 0.18  C 
BRANCH 19 20
ATOM     20  CB  VAL C   2      81.868  60.263  13.614  1.00  9.29 LIG 0.01  C 
ATOM     21  CG1 VAL C   2      82.768  59.039  13.523  1.00 10.46 LIG 0.01  C 
ATOM     22  CG2 VAL C   2      80.662  59.992  14.522  1.00 10.38 LIG 0.01  C 
ENDBRANCH 19 20
BRANCH 19 23
ATOM     23  N   VAL C   2      83.757  61.119  14.995  1.00 10.44 LIG-0.35  N 
ATOM     24 H    VAL C   2      83.511  60.610  15.643  1.00 10.44 LIG 0.16  HD
ATOM     25  C   ALA C   1      85.007  61.528  14.822  1.00  9.27 LIG 0.25  C 
ATOM     26 O    ALA C   1      85.366  62.222  13.871  1.00  8.72 LIG-0.27  OA
BRANCH 25 27
ATOM     27  CA  ALA C   1      86.011  61.061  15.865  1.00  8.36 LIG 0.27  C 
ATOM     28  CB  ALA C   1      85.937  61.924  17.114  1.00 10.14 LIG 0.05  C 
BRANCH 27 29
ATOM     29  N   ALA C   1      87.381  61.097  15.281  1.00  5.51 LIG-0.07  N 
ATOM     30 H1   ALA C   1      87.900  61.629  15.772  1.00  5.51 LIG 0.28  HD
ATOM     31 H2   ALA C   1      87.722  60.275  15.273  1.00  5.51 LIG 0.28  HD
ATOM     32 H3   ALA C   1      87.341  61.409  14.448  1.00  5.51 LIG 0.28  HD
ENDBRANCH 27 29
ENDBRANCH 25 27
ENDBRANCH 19 23
ENDBRANCH 1 19
TORSDOF 10
ENDMDL
MODEL 4
USER: ADFR SOLUTION from run 184
USER: SCORE 13.270863 LL:  -2.762 LR: -10.602 RR:   0.000 FEB:  -7.619
USER: RMSD 2.386634
USER: SEED 183
USER: STATUS 1 or 2 clusters left
USER: GENES 12
USER: genes 0 Translation |==|  0.52071 0.52369 0.41959
USER: genes 1 Rotation |==|  0.51190 0.49304 0.50058 0.99981
USER: genes 2 Torsion [N]-CA--C-[O] |==|  0.28832
USER: genes 3 Torsion [C]-N--CA-[C] |==|  0.15066
USER: genes 4 Torsion [N]-CA--C-[O] |==|  0.22431
USER: genes 5 Torsion [N]-CA--CB-[CG2] |==|  0.56454
USER: genes 6 Torsion [CA]-CB--CG1-[CD1] |==|  0.52876
USER: genes 7 Torsion [N]-C--CA-[N] |==|  0.43035
USER: genes 8 Torsion [C]-CA--CB-[CG1] |==|  0.37553
USER: genes 9 Torsion [C]-CA--N-[C] |==|  0.61545
USER: genes 10 Torsion [N]-C--CA-[N] |==|  0.51541
USER: genes 11 Torsion [C]-CA--N-[H2] |==|  0.73387
ROOT
ATOM      1  C   VAL C   2      81.192  62.935  14.757  1.00  9.13 LIG 0.24  C 
ATOM      2 O    VAL C   2      80.839  62.633  15.894  1.00  8.39 LIG-0.27  OA
ATOM      3  N   PRO C   3      80.567  63.879  14.054  1.00  8.40 LIG-0.34  N 
ATOM      4  CA  PRO C   3      79.382  64.548  14.609  1.00  9.15 LIG 0.18  C 
ATOM      5  CB  PRO C   3      79.000  65.556  13.522  1.00 10.26 LIG 0.04  C 
ATOM      6  CG  PRO C   3      80.247  65.752  12.734  1.00 11.14 LIG 0.02  C 
ATOM      7  CD  PRO C   3      80.926  64.417  12.731  1.00 11.16 LIG 0.13  C 
ENDROOT
BRANCH 4 8
ATOM      8  C   PRO C   3      78.226  63.581  14.902  1.00  9.70 LIG 0.24  C 
ATOM      9 O    PRO C   3      77.985  63.240  16.058  1.00  8.21 LIG-0.27  OA
ATOM     10  N   ILE C   4      77.527  63.147  13.858  1.00 10.20 LIG-0.35  N 
ATOM     11 H    ILE C   4      77.707  63.355  13.043  1.00 10.20 LIG 0.16  HD
BRANCH 10 12
ATOM     12  CA  ILE C   4      76.370  62.262  14.010  1.00 11.44 LIG 0.17  C 
BRANCH 12 13
ATOM     13  C   ILE C   4      75.348  62.860  14.976  1.00 10.89 LIG 0.22  C 
ATOM     14 O    ILE C   4      74.562  63.718  14.592  1.00  9.55 LIG-0.29  OA
ENDBRANCH 12 13
BRANCH 12 15
ATOM     15  CB  ILE C   4      76.822  60.859  14.488  1.00 10.54 LIG 0.01  C 
ATOM     16  CG2 ILE C   4      75.784  59.786  14.115  1.00 11.57 LIG 0.01  C 
BRANCH 15 17
ATOM     17  CG1 ILE C   4      78.193  60.523  13.890  1.00  9.08 LIG 0.00  C 
ATOM     18  CD1 ILE C   4      78.624  59.072  14.089  1.00  9.00 LIG 0.01  C 
ENDBRANCH 15 17
ENDBRANCH 12 15
ENDBRANCH 10 12
ENDBRANCH 4 8
BRANCH 1 19
ATOM     19  CA  VAL C   2      82.373  62.217  14.110  1.00  9.18 LIG 0.18  C 
BRANCH 19 20
ATOM     20  CB  VAL C   2      81.841  61.088  13.192  1.00  9.29 LIG 0.01  C 
ATOM     21  CG1 VAL C   2      82.572  61.088  11.856  1.00 10.46 LIG 0.01  C 
ATOM     22  CG2 VAL C   2      81.946  59.717  13.874  1.00 10.38 LIG 0.01  C 
ENDBRANCH 19 20
BRANCH 19 23
ATOM     23  N   VAL C   2      83.270  61.695  15.142  1.00 10.44 LIG-0.35  N 
ATOM     24 H    VAL C   2      82.862  61.341  15.812  1.00 10.44 LIG 0.16  HD
ATOM     25  C   ALA C   1      84.591  61.766  15.046  1.00  9.27 LIG 0.25  C 
ATOM     26 O    ALA C   1      85.174  62.233  14.068  1.00  8.72 LIG-0.27  OA
BRANCH 25 27
ATOM     27  CA  ALA C   1      85.376  61.197  16.219  1.00  8.36 LIG 0.27  C 
ATOM     28  CB  ALA C   1      84.892  61.788  17.532  1.00 10.14 LIG 0.05  C 
BRANCH 27 29
ATOM     29  N   ALA C   1      86.826  61.472  16.021  1.00  5.51 LIG-0.07  N 
ATOM     30 H1   ALA C   1      87.207  61.640  16.808  1.00  5.51 LIG 0.28  HD
ATOM     31 H2   ALA C   1      87.215  60.763  15.649  1.00  5.51 LIG 0.28  HD
ATOM     32 H3   ALA C   1      86.925  62.178  15.487  1.00  5.51 LIG 0.28  HD
ENDBRANCH 27 29
ENDBRANCH 25 27
ENDBRANCH 19 23
ENDBRANCH 1 19
TORSDOF 10
ENDMDL
