MODEL 1
USER: ADFR SOLUTION from run 134
USER: SCORE 19.185829 LL:  -4.597 LR: -15.201 RR:   0.000 FEB:  -7.445
USER: RMSD 2.518857
USER: SEED 133
USER: STATUS 1 or 2 clusters left
USER: GENES 28
USER: genes 0 Translation |==|  0.45358 0.54920 0.44433
USER: genes 1 Rotation |==|  0.44981 0.56107 0.54563 0.99160
USER: genes 2 Torsion [C]-N--CA-[C] |==|  0.79227
USER: genes 3 Torsion [N]-CA--C-[N] |==|  0.31901
USER: genes 4 Torsion [C]-N--CA-[C] |==|  0.72745
USER: genes 5 Torsion [N]-CA--C-[N] |==|  0.38722
USER: genes 6 Torsion [C]-N--CA-[C] |==|  0.74453
USER: genes 7 Torsion [N]-CA--CB-[OG] |==|  0.83236
USER: genes 8 Torsion [CA]-CB--OG-[HG] |==|  0.78305
USER: genes 9 Torsion [N]-CA--C-[N] |==|  0.46309
USER: genes 10 Torsion [C]-N--CA-[C] |==|  0.72818
USER: genes 11 Torsion [N]-CA--C-[O] |==|  0.98062
USER: genes 12 Torsion [N]-CA--CB-[CG] |==|  0.52416
USER: genes 13 Torsion [CA]-CB--CG-[CD2] |==|  0.41956
USER: genes 14 Torsion [N]-CA--CB-[CG] |==|  0.95932
USER: genes 15 Torsion [CA]-CB--CG-[CD2] |==|  0.74655
USER: genes 16 Torsion [N]-CA--CB-[CG2] |==|  0.41835
USER: genes 17 Torsion [CA]-CB--CG1-[CD1] |==|  0.71676
USER: genes 18 Torsion [O]-C--CA-[CB] |==|  0.21436
USER: genes 19 Torsion [N]-C--CA-[N] |==|  0.48217
USER: genes 20 Torsion [C]-CA--CB-[CG] |==|  0.58960
USER: genes 21 Torsion [CA]-CB--CG-[CD] |==|  0.33637
USER: genes 22 Torsion [CB]-CG--CD-[NE] |==|  0.77097
USER: genes 23 Torsion [CG]-CD--NE-[CZ] |==|  0.54056
USER: genes 24 Torsion [C]-CA--N-[C] |==|  0.74323
USER: genes 25 Torsion [N]-C--CA-[N] |==|  0.73586
USER: genes 26 Torsion [C]-CA--CB-[CG] |==|  0.59284
USER: genes 27 Torsion [CA]-CB--CG-[ND2] |==|  0.23576
ROOT
ATOM      1  C   PRO C  36      46.091  55.965  11.993  1.00 34.41 LIG 0.24  C 
ATOM      2 O    PRO C  36      46.462  55.524  13.085  1.00 29.89 LIG-0.27  OA
ATOM      3  N   ILE C  37      46.493  55.465  10.827  1.00 30.61 LIG-0.35  N 
ATOM      4 H    ILE C  37      46.211  55.755  10.068  1.00 30.61 LIG 0.16  HD
ENDROOT
BRANCH 3 5
ATOM      5  CA  ILE C  37      47.451  54.374  10.720  1.00 31.48 LIG 0.18  C 
BRANCH 5 6
ATOM      6  C   ILE C  37      48.800  54.993  11.038  1.00 31.96 LIG 0.24  C 
ATOM      7 O    ILE C  37      49.295  55.841  10.294  1.00 31.93 LIG-0.27  OA
ATOM      8  N   LEU C  38      49.399  54.560  12.141  1.00 30.89 LIG-0.35  N 
ATOM      9 H    LEU C  38      49.087  53.940  12.649  1.00 30.89 LIG 0.16  HD
BRANCH 8 10
ATOM     10  CA  LEU C  38      50.667  55.125  12.579  1.00 34.88 LIG 0.18  C 
BRANCH 10 11
ATOM     11  C   LEU C  38      51.934  54.357  12.220  1.00 39.33 LIG 0.24  C 
ATOM     12 O    LEU C  38      51.976  53.129  12.287  1.00 37.11 LIG-0.27  OA
ATOM     13  N   SER C  39      52.964  55.105  11.836  1.00 40.29 LIG-0.34  N 
ATOM     14 H    SER C  39      52.927  55.961  11.757  1.00 40.29 LIG 0.16  HD
BRANCH 13 15
ATOM     15  CA  SER C  39      54.265  54.535  11.508  1.00 42.99 LIG 0.20  C 
BRANCH 15 16
ATOM     16  CB  SER C  39      54.986  55.379  10.451  1.00 41.70 LIG 0.20  C 
BRANCH 16 17
ATOM     17 OG   SER C  39      54.245  55.454   9.245  1.00 43.46 LIG-0.40  OA
ATOM     18 HG   SER C  39      54.342  54.741   8.811  1.00 43.46 LIG 0.21  HD
ENDBRANCH 16 17
ENDBRANCH 15 16
BRANCH 15 19
ATOM     19  C   SER C  39      55.045  54.577  12.818  1.00 43.99 LIG 0.24  C 
ATOM     20  N   LEU C  40      56.171  53.874  12.879  1.00 44.48 LIG-0.34  N 
ATOM     21 H    LEU C  40      56.482  53.401  12.231  1.00 44.48 LIG 0.16  HD
ATOM     22 O    SER C  39      54.623  55.243  13.764  1.00 44.86 LIG-0.27  OA
BRANCH 20 23
ATOM     23  CA  LEU C  40      56.983  53.856  14.090  1.00 50.99 LIG 0.18  C 
BRANCH 23 24
ATOM     24  C   LEU C  40      58.137  54.852  13.980  1.00 53.79 LIG 0.20  C 
ATOM     25 O    LEU C  40      58.318  55.423  12.882  1.00 58.34 LIG-0.65  OA
ATOM     26 OXT  LEU C  40      58.852  55.044  14.986  1.00 54.01 LIG-0.65  OA
ENDBRANCH 23 24
BRANCH 23 27
ATOM     27  CB  LEU C  40      57.527  52.444  14.325  1.00 48.71 LIG 0.04  C 
BRANCH 27 28
ATOM     28  CG  LEU C  40      58.239  52.141  15.644  1.00 48.98 LIG-0.02  C 
ATOM     29  CD2 LEU C  40      58.053  50.675  15.982  1.00 51.62 LIG 0.01  C 
ATOM     30  CD1 LEU C  40      57.675  53.014  16.756  1.00 51.55 LIG 0.01  C 
ENDBRANCH 27 28
ENDBRANCH 23 27
ENDBRANCH 20 23
ENDBRANCH 15 19
ENDBRANCH 13 15
ENDBRANCH 10 11
BRANCH 10 31
ATOM     31  CB  LEU C  38      50.624  55.339  14.089  1.00 30.69 LIG 0.04  C 
BRANCH 31 32
ATOM     32  CG  LEU C  38      49.236  55.271  14.729  1.00 36.50 LIG-0.02  C 
ATOM     33  CD2 LEU C  38      48.612  56.664  14.769  1.00 35.12 LIG 0.01  C 
ATOM     34  CD1 LEU C  38      49.356  54.691  16.133  1.00 37.99 LIG 0.01  C 
ENDBRANCH 31 32
ENDBRANCH 10 31
ENDBRANCH 8 10
ENDBRANCH 5 6
BRANCH 5 35
ATOM     35  CB  ILE C  37      47.482  53.807   9.294  1.00 37.32 LIG 0.01  C 
ATOM     36  CG2 ILE C  37      48.864  53.251   8.987  1.00 35.15 LIG 0.01  C 
BRANCH 35 37
ATOM     37  CG1 ILE C  37      46.403  52.733   9.149  1.00 33.54 LIG 0.00  C 
ATOM     38  CD1 ILE C  37      46.936  51.320   9.213  1.00 46.98 LIG 0.01  C 
ENDBRANCH 35 37
ENDBRANCH 5 35
ENDBRANCH 3 5
BRANCH 1 39
ATOM     39  CA  PRO C  36      45.107  57.130  11.903  1.00 32.35 LIG 0.18  C 
ATOM     40  CB  PRO C  36      45.776  58.477  12.183  1.00 32.18 LIG 0.04  C 
ATOM     41  CG  PRO C  36      45.530  58.681  13.647  1.00 32.63 LIG 0.02  C 
ATOM     42  CD  PRO C  36      44.100  58.224  13.818  1.00 32.64 LIG 0.13  C 
ATOM     43  N   PRO C  36      44.024  57.084  12.888  1.00 32.06 LIG-0.34  N 
ATOM     44  C   ARG C  35      43.107  56.112  12.826  1.00 32.74 LIG 0.24  C 
ATOM     45 O    ARG C  35      43.138  55.248  11.953  1.00 32.93 LIG-0.27  OA
BRANCH 44 46
ATOM     46  CA  ARG C  35      42.008  56.119  13.879  1.00 37.56 LIG 0.18  C 
BRANCH 46 47
ATOM     47  CB  ARG C  35      42.605  55.857  15.261  1.00 40.42 LIG 0.04  C 
BRANCH 47 48
ATOM     48  CG  ARG C  35      41.681  55.108  16.186  1.00 36.41 LIG 0.02  C 
BRANCH 48 49
ATOM     49  CD  ARG C  35      42.302  53.804  16.657  1.00 39.80 LIG 0.14  C 
BRANCH 49 50
ATOM     50  NE  ARG C  35      42.120  52.752  15.662  1.00 32.60 LIG-0.23  N 
ATOM     51 HE   ARG C  35      41.879  52.987  14.871  1.00 32.60 LIG 0.18  HD
ATOM     52  CZ  ARG C  35      42.301  51.456  15.894  1.00 32.33 LIG 0.67  C 
ATOM     53  NH2 ARG C  35      42.675  51.041  17.095  1.00 28.83 LIG-0.23  N 
ATOM     54  NH1 ARG C  35      42.108  50.579  14.919  1.00 30.81 LIG-0.23  N 
ATOM     55 2HH2 ARG C  35      42.791  50.201  17.242  1.00 28.83 LIG 0.17  HD
ATOM     56 1HH2 ARG C  35      42.801  51.609  17.728  1.00 28.83 LIG 0.17  HD
ATOM     57 1HH1 ARG C  35      41.867  50.849  14.139  1.00 30.81 LIG 0.17  HD
ATOM     58 2HH1 ARG C  35      42.224  49.740  15.066  1.00 30.81 LIG 0.17  HD
ENDBRANCH 49 50
ENDBRANCH 48 49
ENDBRANCH 47 48
ENDBRANCH 46 47
BRANCH 46 59
ATOM     59  N   ARG C  35      41.046  55.082  13.537  1.00 36.73 LIG-0.35  N 
ATOM     60  C   ASN C  34      39.981  55.367  12.795  1.00 40.82 LIG 0.26  C 
ATOM     61 O    ASN C  34      39.751  56.499  12.371  1.00 33.40 LIG-0.27  OA
ATOM     62 H    ARG C  35      41.227  54.302  13.849  1.00 36.73 LIG 0.16  HD
BRANCH 60 63
ATOM     63  CA  ASN C  34      39.040  54.211  12.480  1.00 41.08 LIG 0.41  C 
ATOM     64  N   ASN C  34      39.385  53.623  11.155  1.00 44.32 LIG 0.61  N 
BRANCH 63 65
ATOM     65  CB  ASN C  34      39.163  53.156  13.585  1.00 43.19 LIG 0.15  C 
BRANCH 65 66
ATOM     66  CG  ASN C  34      38.977  51.735  13.073  1.00 48.82 LIG 0.22  C 
ATOM     67  ND2 ASN C  34      40.051  51.134  12.569  1.00 46.77 LIG-0.37  N 
ATOM     68 21HD ASN C  34      39.994  50.329  12.271  1.00 46.77 LIG 0.16  HD
ATOM     69 22HD ASN C  34      40.803  51.551  12.540  1.00 46.77 LIG 0.16  HD
ATOM     70 OD1  ASN C  34      37.878  51.184  13.137  1.00 54.33 LIG-0.27  OA
ENDBRANCH 65 66
ENDBRANCH 63 65
ENDBRANCH 60 63
ENDBRANCH 46 59
ENDBRANCH 44 46
ENDBRANCH 1 39
TORSDOF 26
ENDMDL
MODEL 2
USER: ADFR SOLUTION from run 91
USER: SCORE 19.203564 LL:  -5.343 LR: -14.257 RR:   0.000 FEB:  -6.501
USER: RMSD 2.595165
USER: SEED 90
USER: STATUS 1 or 2 clusters left
USER: GENES 28
USER: genes 0 Translation |==|  0.44948 0.54550 0.44087
USER: genes 1 Rotation |==|  0.44623 0.55214 0.55039 0.99178
USER: genes 2 Torsion [C]-N--CA-[C] |==|  0.78751
USER: genes 3 Torsion [N]-CA--C-[N] |==|  0.34202
USER: genes 4 Torsion [C]-N--CA-[C] |==|  0.71338
USER: genes 5 Torsion [N]-CA--C-[N] |==|  0.36333
USER: genes 6 Torsion [C]-N--CA-[C] |==|  0.80483
USER: genes 7 Torsion [N]-CA--CB-[OG] |==|  0.73208
USER: genes 8 Torsion [CA]-CB--OG-[HG] |==|  0.89947
USER: genes 9 Torsion [N]-CA--C-[N] |==|  0.89076
USER: genes 10 Torsion [C]-N--CA-[C] |==|  0.51630
USER: genes 11 Torsion [N]-CA--C-[O] |==|  0.05328
USER: genes 12 Torsion [N]-CA--CB-[CG] |==|  0.62425
USER: genes 13 Torsion [CA]-CB--CG-[CD2] |==|  0.20120
USER: genes 14 Torsion [N]-CA--CB-[CG] |==|  0.94929
USER: genes 15 Torsion [CA]-CB--CG-[CD2] |==|  0.75808
USER: genes 16 Torsion [N]-CA--CB-[CG2] |==|  0.37870
USER: genes 17 Torsion [CA]-CB--CG1-[CD1] |==|  0.24024
USER: genes 18 Torsion [O]-C--CA-[CB] |==|  0.20785
USER: genes 19 Torsion [N]-C--CA-[N] |==|  0.44691
USER: genes 20 Torsion [C]-CA--CB-[CG] |==|  0.60741
USER: genes 21 Torsion [CA]-CB--CG-[CD] |==|  0.49891
USER: genes 22 Torsion [CB]-CG--CD-[NE] |==|  0.15208
USER: genes 23 Torsion [CG]-CD--NE-[CZ] |==|  0.43682
USER: genes 24 Torsion [C]-CA--N-[C] |==|  0.73033
USER: genes 25 Torsion [N]-C--CA-[N] |==|  0.40784
USER: genes 26 Torsion [C]-CA--CB-[CG] |==|  0.28915
USER: genes 27 Torsion [CA]-CB--CG-[ND2] |==|  0.82261
ROOT
ATOM      1  C   PRO C  36      45.962  55.898  11.928  1.00 34.41 LIG 0.24  C 
ATOM      2 O    PRO C  36      46.305  55.476  13.036  1.00 29.89 LIG-0.27  OA
ATOM      3  N   ILE C  37      46.415  55.399  10.782  1.00 30.61 LIG-0.35  N 
ATOM      4 H    ILE C  37      46.154  55.676  10.010  1.00 30.61 LIG 0.16  HD
ENDROOT
BRANCH 3 5
ATOM      5  CA  ILE C  37      47.403  54.330  10.717  1.00 31.48 LIG 0.18  C 
BRANCH 5 6
ATOM      6  C   ILE C  37      48.732  54.993  11.034  1.00 31.96 LIG 0.24  C 
ATOM      7 O    ILE C  37      49.141  55.937  10.357  1.00 31.93 LIG-0.27  OA
ATOM      8  N   LEU C  38      49.409  54.490  12.059  1.00 30.89 LIG-0.35  N 
ATOM      9 H    LEU C  38      49.157  53.807  12.516  1.00 30.89 LIG 0.16  HD
BRANCH 8 10
ATOM     10  CA  LEU C  38      50.665  55.082  12.492  1.00 34.88 LIG 0.18  C 
BRANCH 10 11
ATOM     11  C   LEU C  38      51.949  54.360  12.100  1.00 39.33 LIG 0.24  C 
ATOM     12 O    LEU C  38      52.083  53.151  12.285  1.00 37.11 LIG-0.27  OA
ATOM     13  N   SER C  39      52.888  55.126  11.552  1.00 40.29 LIG-0.34  N 
ATOM     14 H    SER C  39      52.784  55.964  11.392  1.00 40.29 LIG 0.16  HD
BRANCH 13 15
ATOM     15  CA  SER C  39      54.195  54.606  11.167  1.00 42.99 LIG 0.20  C 
BRANCH 15 16
ATOM     16  CB  SER C  39      54.992  55.649  10.376  1.00 41.70 LIG 0.20  C 
BRANCH 16 17
ATOM     17 OG   SER C  39      54.867  55.454   8.977  1.00 43.46 LIG-0.40  OA
ATOM     18 HG   SER C  39      54.835  54.631   8.810  1.00 43.46 LIG 0.21  HD
ENDBRANCH 16 17
ENDBRANCH 15 16
BRANCH 15 19
ATOM     19  C   SER C  39      54.899  54.317  12.489  1.00 43.99 LIG 0.24  C 
ATOM     20  N   LEU C  40      54.721  55.189  13.476  1.00 44.48 LIG-0.34  N 
ATOM     21 H    LEU C  40      54.238  55.898  13.414  1.00 44.48 LIG 0.16  HD
ATOM     22 O    SER C  39      55.599  53.311  12.606  1.00 44.86 LIG-0.27  OA
BRANCH 20 23
ATOM     23  CA  LEU C  40      55.354  54.994  14.775  1.00 50.99 LIG 0.18  C 
BRANCH 23 24
ATOM     24  C   LEU C  40      54.877  56.051  15.771  1.00 53.79 LIG 0.20  C 
ATOM     25 O    LEU C  40      53.814  56.660  15.517  1.00 58.34 LIG-0.65  OA
ATOM     26 OXT  LEU C  40      55.571  56.266  16.786  1.00 54.01 LIG-0.65  OA
ENDBRANCH 23 24
BRANCH 23 27
ATOM     27  CB  LEU C  40      56.876  55.065  14.623  1.00 48.71 LIG 0.04  C 
BRANCH 27 28
ATOM     28  CG  LEU C  40      57.734  54.016  15.333  1.00 48.98 LIG-0.02  C 
ATOM     29  CD2 LEU C  40      57.582  52.687  14.620  1.00 51.62 LIG 0.01  C 
ATOM     30  CD1 LEU C  40      57.307  53.887  16.787  1.00 51.55 LIG 0.01  C 
ENDBRANCH 27 28
ENDBRANCH 23 27
ENDBRANCH 20 23
ENDBRANCH 15 19
ENDBRANCH 13 15
ENDBRANCH 10 11
BRANCH 10 31
ATOM     31  CB  LEU C  38      50.637  55.262  14.008  1.00 30.69 LIG 0.04  C 
BRANCH 31 32
ATOM     32  CG  LEU C  38      49.250  55.224  14.654  1.00 36.50 LIG-0.02  C 
ATOM     33  CD2 LEU C  38      48.630  56.619  14.638  1.00 35.12 LIG 0.01  C 
ATOM     34  CD1 LEU C  38      49.373  54.703  16.080  1.00 37.99 LIG 0.01  C 
ENDBRANCH 31 32
ENDBRANCH 10 31
ENDBRANCH 8 10
ENDBRANCH 5 6
BRANCH 5 35
ATOM     35  CB  ILE C  37      47.466  53.724   9.308  1.00 37.32 LIG 0.01  C 
ATOM     36  CG2 ILE C  37      48.916  53.520   8.897  1.00 35.15 LIG 0.01  C 
BRANCH 35 37
ATOM     37  CG1 ILE C  37      46.688  52.408   9.284  1.00 33.54 LIG 0.00  C 
ATOM     38  CD1 ILE C  37      45.211  52.579   9.010  1.00 46.98 LIG 0.01  C 
ENDBRANCH 35 37
ENDBRANCH 5 35
ENDBRANCH 3 5
BRANCH 1 39
ATOM     39  CA  PRO C  36      44.954  57.039  11.794  1.00 32.35 LIG 0.18  C 
ATOM     40  CB  PRO C  36      45.566  58.397  12.141  1.00 32.18 LIG 0.04  C 
ATOM     41  CG  PRO C  36      45.220  58.567  13.589  1.00 32.63 LIG 0.02  C 
ATOM     42  CD  PRO C  36      43.795  58.069  13.658  1.00 32.64 LIG 0.13  C 
ATOM     43  N   PRO C  36      43.811  56.945  12.705  1.00 32.06 LIG-0.34  N 
ATOM     44  C   ARG C  35      42.927  55.951  12.566  1.00 32.74 LIG 0.24  C 
ATOM     45 O    ARG C  35      43.038  55.105  11.682  1.00 32.93 LIG-0.27  OA
BRANCH 44 46
ATOM     46  CA  ARG C  35      41.762  55.909  13.544  1.00 37.56 LIG 0.18  C 
BRANCH 46 47
ATOM     47  CB  ARG C  35      42.222  55.332  14.883  1.00 40.42 LIG 0.04  C 
BRANCH 47 48
ATOM     48  CG  ARG C  35      41.208  54.427  15.532  1.00 36.41 LIG 0.02  C 
BRANCH 48 49
ATOM     49  CD  ARG C  35      41.718  53.875  16.852  1.00 39.80 LIG 0.14  C 
BRANCH 49 50
ATOM     50  NE  ARG C  35      42.129  54.955  17.743  1.00 32.60 LIG-0.23  N 
ATOM     51 HE   ARG C  35      42.337  55.709  17.388  1.00 32.60 LIG 0.18  HD
ATOM     52  CZ  ARG C  35      42.204  54.853  19.066  1.00 32.33 LIG 0.67  C 
ATOM     53  NH2 ARG C  35      41.892  53.712  19.664  1.00 28.83 LIG-0.23  N 
ATOM     54  NH1 ARG C  35      42.591  55.896  19.786  1.00 30.81 LIG-0.23  N 
ATOM     55 2HH2 ARG C  35      41.942  53.649  20.521  1.00 28.83 LIG 0.17  HD
ATOM     56 1HH2 ARG C  35      41.640  53.036  19.197  1.00 28.83 LIG 0.17  HD
ATOM     57 1HH1 ARG C  35      42.793  56.636  19.398  1.00 30.81 LIG 0.17  HD
ATOM     58 2HH1 ARG C  35      42.641  55.833  20.643  1.00 30.81 LIG 0.17  HD
ENDBRANCH 49 50
ENDBRANCH 48 49
ENDBRANCH 47 48
ENDBRANCH 46 47
BRANCH 46 59
ATOM     59  N   ARG C  35      40.715  55.078  12.967  1.00 36.73 LIG-0.35  N 
ATOM     60  C   ASN C  34      39.698  55.631  12.315  1.00 40.82 LIG 0.26  C 
ATOM     61 O    ASN C  34      39.582  56.847  12.173  1.00 33.40 LIG-0.27  OA
ATOM     62 H    ARG C  35      40.817  54.232  13.085  1.00 36.73 LIG 0.16  HD
BRANCH 60 63
ATOM     63  CA  ASN C  34      38.660  54.676  11.737  1.00 41.08 LIG 0.41  C 
ATOM     64  N   ASN C  34      37.311  55.309  11.777  1.00 44.32 LIG 0.61  N 
BRANCH 63 65
ATOM     65  CB  ASN C  34      39.051  54.333  10.295  1.00 43.19 LIG 0.15  C 
BRANCH 65 66
ATOM     66  CG  ASN C  34      39.651  52.940  10.158  1.00 48.82 LIG 0.22  C 
ATOM     67  ND2 ASN C  34      40.803  52.720  10.787  1.00 46.77 LIG-0.37  N 
ATOM     68 21HD ASN C  34      41.177  51.947  10.741  1.00 46.77 LIG 0.16  HD
ATOM     69 22HD ASN C  34      41.174  53.351  11.238  1.00 46.77 LIG 0.16  HD
ATOM     70 OD1  ASN C  34      39.079  52.073   9.500  1.00 54.33 LIG-0.27  OA
ENDBRANCH 65 66
ENDBRANCH 63 65
ENDBRANCH 60 63
ENDBRANCH 46 59
ENDBRANCH 44 46
ENDBRANCH 1 39
TORSDOF 26
ENDMDL
MODEL 3
USER: ADFR SOLUTION from run 6
USER: SCORE 18.329882 LL:  -4.993 LR: -13.764 RR:   0.000 FEB:  -6.008
USER: RMSD 2.764721
USER: SEED 141883
USER: STATUS no improvement in best in 3 clusters for 5 generations
USER: GENES 28
USER: genes 0 Translation |==|  0.45151 0.56260 0.45193
USER: genes 1 Rotation |==|  0.43852 0.58881 0.55415 0.98518
USER: genes 2 Torsion [C]-N--CA-[C] |==|  0.81865
USER: genes 3 Torsion [N]-CA--C-[N] |==|  0.35120
USER: genes 4 Torsion [C]-N--CA-[C] |==|  0.71224
USER: genes 5 Torsion [N]-CA--C-[N] |==|  0.34705
USER: genes 6 Torsion [C]-N--CA-[C] |==|  0.74844
USER: genes 7 Torsion [N]-CA--CB-[OG] |==|  0.80657
USER: genes 8 Torsion [CA]-CB--OG-[HG] |==|  0.78446
USER: genes 9 Torsion [N]-CA--C-[N] |==|  0.34089
USER: genes 10 Torsion [C]-N--CA-[C] |==|  0.51696
USER: genes 11 Torsion [N]-CA--C-[O] |==|  0.57974
USER: genes 12 Torsion [N]-CA--CB-[CG] |==|  0.63318
USER: genes 13 Torsion [CA]-CB--CG-[CD2] |==|  0.70462
USER: genes 14 Torsion [N]-CA--CB-[CG] |==|  0.93749
USER: genes 15 Torsion [CA]-CB--CG-[CD2] |==|  0.75495
USER: genes 16 Torsion [N]-CA--CB-[CG2] |==|  0.42261
USER: genes 17 Torsion [CA]-CB--CG1-[CD1] |==|  0.74569
USER: genes 18 Torsion [O]-C--CA-[CB] |==|  0.18159
USER: genes 19 Torsion [N]-C--CA-[N] |==|  0.47023
USER: genes 20 Torsion [C]-CA--CB-[CG] |==|  0.69233
USER: genes 21 Torsion [CA]-CB--CG-[CD] |==|  0.65282
USER: genes 22 Torsion [CB]-CG--CD-[NE] |==|  0.90885
USER: genes 23 Torsion [CG]-CD--NE-[CZ] |==|  0.60634
USER: genes 24 Torsion [C]-CA--N-[C] |==|  0.75079
USER: genes 25 Torsion [N]-C--CA-[N] |==|  0.95137
USER: genes 26 Torsion [C]-CA--CB-[CG] |==|  0.85399
USER: genes 27 Torsion [CA]-CB--CG-[ND2] |==|  0.41689
ROOT
ATOM      1  C   PRO C  36      46.025  56.206  12.136  1.00 34.41 LIG 0.24  C 
ATOM      2 O    PRO C  36      46.529  55.836  13.200  1.00 29.89 LIG-0.27  OA
ATOM      3  N   ILE C  37      46.312  55.655  10.959  1.00 30.61 LIG-0.35  N 
ATOM      4 H    ILE C  37      45.939  55.895  10.223  1.00 30.61 LIG 0.16  HD
ENDROOT
BRANCH 3 5
ATOM      5  CA  ILE C  37      47.289  54.585  10.801  1.00 31.48 LIG 0.18  C 
BRANCH 5 6
ATOM      6  C   ILE C  37      48.625  55.205  11.170  1.00 31.96 LIG 0.24  C 
ATOM      7 O    ILE C  37      49.015  56.235  10.617  1.00 31.93 LIG-0.27  OA
ATOM      8  N   LEU C  38      49.329  54.572  12.099  1.00 30.89 LIG-0.35  N 
ATOM      9 H    LEU C  38      49.090  53.831  12.466  1.00 30.89 LIG 0.16  HD
BRANCH 8 10
ATOM     10  CA  LEU C  38      50.596  55.105  12.576  1.00 34.88 LIG 0.18  C 
BRANCH 10 11
ATOM     11  C   LEU C  38      51.870  54.443  12.063  1.00 39.33 LIG 0.24  C 
ATOM     12 O    LEU C  38      52.052  53.232  12.184  1.00 37.11 LIG-0.27  OA
ATOM     13  N   SER C  39      52.745  55.262  11.486  1.00 40.29 LIG-0.34  N 
ATOM     14 H    SER C  39      52.605  56.103  11.372  1.00 40.29 LIG 0.16  HD
BRANCH 13 15
ATOM     15  CA  SER C  39      54.035  54.802  10.989  1.00 42.99 LIG 0.20  C 
BRANCH 15 16
ATOM     16  CB  SER C  39      54.512  55.664   9.814  1.00 41.70 LIG 0.20  C 
BRANCH 16 17
ATOM     17 OG   SER C  39      53.721  55.455   8.656  1.00 43.46 LIG-0.40  OA
ATOM     18 HG   SER C  39      53.946  54.733   8.289  1.00 43.46 LIG 0.21  HD
ENDBRANCH 16 17
ENDBRANCH 15 16
BRANCH 15 19
ATOM     19  C   SER C  39      54.986  54.973  12.169  1.00 43.99 LIG 0.24  C 
ATOM     20  N   LEU C  40      55.635  53.892  12.590  1.00 44.48 LIG-0.34  N 
ATOM     21 H    LEU C  40      55.550  53.110  12.240  1.00 44.48 LIG 0.16  HD
ATOM     22 O    SER C  39      55.125  56.079  12.692  1.00 44.86 LIG-0.27  OA
BRANCH 20 23
ATOM     23  CA  LEU C  40      56.565  53.960  13.710  1.00 50.99 LIG 0.18  C 
BRANCH 23 24
ATOM     24  C   LEU C  40      57.286  52.625  13.895  1.00 53.79 LIG 0.20  C 
ATOM     25 O    LEU C  40      57.667  52.317  15.046  1.00 58.34 LIG-0.65  OA
ATOM     26 OXT  LEU C  40      57.470  51.907  12.890  1.00 54.01 LIG-0.65  OA
ENDBRANCH 23 24
BRANCH 23 27
ATOM     27  CB  LEU C  40      55.806  54.329  14.989  1.00 48.71 LIG 0.04  C 
BRANCH 27 28
ATOM     28  CG  LEU C  40      56.364  55.439  15.880  1.00 48.98 LIG-0.02  C 
ATOM     29  CD2 LEU C  40      56.966  54.818  17.125  1.00 51.62 LIG 0.01  C 
ATOM     30  CD1 LEU C  40      55.258  56.413  16.258  1.00 51.55 LIG 0.01  C 
ENDBRANCH 27 28
ENDBRANCH 23 27
ENDBRANCH 20 23
ENDBRANCH 15 19
ENDBRANCH 13 15
ENDBRANCH 10 11
BRANCH 10 31
ATOM     31  CB  LEU C  38      50.604  55.086  14.102  1.00 30.69 LIG 0.04  C 
BRANCH 31 32
ATOM     32  CG  LEU C  38      49.228  55.064  14.772  1.00 36.50 LIG-0.02  C 
ATOM     33  CD2 LEU C  38      48.725  56.491  14.977  1.00 35.12 LIG 0.01  C 
ATOM     34  CD1 LEU C  38      49.327  54.329  16.103  1.00 37.99 LIG 0.01  C 
ENDBRANCH 31 32
ENDBRANCH 10 31
ENDBRANCH 8 10
ENDBRANCH 5 6
BRANCH 5 35
ATOM     35  CB  ILE C  37      47.344  54.102   9.346  1.00 37.32 LIG 0.01  C 
ATOM     36  CG2 ILE C  37      48.727  53.550   9.035  1.00 35.15 LIG 0.01  C 
BRANCH 35 37
ATOM     37  CG1 ILE C  37      46.258  53.050   9.117  1.00 33.54 LIG 0.00  C 
ATOM     38  CD1 ILE C  37      46.723  51.631   9.354  1.00 46.98 LIG 0.01  C 
ENDBRANCH 35 37
ENDBRANCH 5 35
ENDBRANCH 3 5
BRANCH 1 39
ATOM     39  CA  PRO C  36      45.000  57.337  12.097  1.00 32.35 LIG 0.18  C 
ATOM     40  CB  PRO C  36      45.601  58.680  12.516  1.00 32.18 LIG 0.04  C 
ATOM     41  CG  PRO C  36      45.286  58.753  13.979  1.00 32.63 LIG 0.02  C 
ATOM     42  CD  PRO C  36      43.870  58.230  14.048  1.00 32.64 LIG 0.13  C 
ATOM     43  N   PRO C  36      43.880  57.169  13.026  1.00 32.06 LIG-0.34  N 
ATOM     44  C   ARG C  35      43.006  56.173  12.844  1.00 32.74 LIG 0.24  C 
ATOM     45 O    ARG C  35      43.108  55.386  11.905  1.00 32.93 LIG-0.27  OA
BRANCH 44 46
ATOM     46  CA  ARG C  35      41.865  56.051  13.843  1.00 37.56 LIG 0.18  C 
BRANCH 46 47
ATOM     47  CB  ARG C  35      42.402  55.593  15.199  1.00 40.42 LIG 0.04  C 
BRANCH 47 48
ATOM     48  CG  ARG C  35      41.989  54.194  15.571  1.00 36.41 LIG 0.02  C 
BRANCH 48 49
ATOM     49  CD  ARG C  35      41.296  54.159  16.923  1.00 39.80 LIG 0.14  C 
BRANCH 49 50
ATOM     50  NE  ARG C  35      41.843  55.177  17.814  1.00 32.60 LIG-0.23  N 
ATOM     51 HE   ARG C  35      42.049  55.938  17.473  1.00 32.60 LIG 0.18  HD
ATOM     52  CZ  ARG C  35      42.043  55.008  19.117  1.00 32.33 LIG 0.67  C 
ATOM     53  NH2 ARG C  35      41.740  53.854  19.694  1.00 28.83 LIG-0.23  N 
ATOM     54  NH1 ARG C  35      42.547  55.999  19.840  1.00 30.81 LIG-0.23  N 
ATOM     55 2HH2 ARG C  35      41.871  53.749  20.537  1.00 28.83 LIG 0.17  HD
ATOM     56 1HH2 ARG C  35      41.412  53.212  19.226  1.00 28.83 LIG 0.17  HD
ATOM     57 1HH1 ARG C  35      42.743  56.748  19.465  1.00 30.81 LIG 0.17  HD
ATOM     58 2HH1 ARG C  35      42.678  55.893  20.683  1.00 30.81 LIG 0.17  HD
ENDBRANCH 49 50
ENDBRANCH 48 49
ENDBRANCH 47 48
ENDBRANCH 46 47
BRANCH 46 59
ATOM     59  N   ARG C  35      40.908  55.085  13.324  1.00 36.73 LIG-0.35  N 
ATOM     60  C   ASN C  34      39.909  55.478  12.542  1.00 40.82 LIG 0.26  C 
ATOM     61 O    ASN C  34      39.735  56.654  12.228  1.00 33.40 LIG-0.27  OA
ATOM     62 H    ARG C  35      41.049  54.271  13.563  1.00 36.73 LIG 0.16  HD
BRANCH 60 63
ATOM     63  CA  ASN C  34      38.968  54.389  12.039  1.00 41.08 LIG 0.41  C 
ATOM     64  N   ASN C  34      39.612  53.054  12.191  1.00 44.32 LIG 0.61  N 
BRANCH 63 65
ATOM     65  CB  ASN C  34      37.663  54.452  12.840  1.00 43.19 LIG 0.15  C 
BRANCH 65 66
ATOM     66  CG  ASN C  34      37.887  54.422  14.345  1.00 48.82 LIG 0.22  C 
ATOM     67  ND2 ASN C  34      36.992  55.056  15.098  1.00 46.77 LIG-0.37  N 
ATOM     68 21HD ASN C  34      37.076  55.061  15.953  1.00 46.77 LIG 0.16  HD
ATOM     69 22HD ASN C  34      36.330  55.461  14.728  1.00 46.77 LIG 0.16  HD
ATOM     70 OD1  ASN C  34      38.854  53.828  14.823  1.00 54.33 LIG-0.27  OA
ENDBRANCH 65 66
ENDBRANCH 63 65
ENDBRANCH 60 63
ENDBRANCH 46 59
ENDBRANCH 44 46
ENDBRANCH 1 39
TORSDOF 26
ENDMDL
MODEL 4
USER: ADFR SOLUTION from run 190
USER: SCORE 18.648560 LL:  -5.333 LR: -13.673 RR:   0.000 FEB:  -5.917
USER: RMSD 2.902925
USER: SEED 189
USER: STATUS 1 or 2 clusters left
USER: GENES 28
USER: genes 0 Translation |==|  0.45184 0.56135 0.45016
USER: genes 1 Rotation |==|  0.44686 0.57442 0.55303 0.98870
USER: genes 2 Torsion [C]-N--CA-[C] |==|  0.82458
USER: genes 3 Torsion [N]-CA--C-[N] |==|  0.35770
USER: genes 4 Torsion [C]-N--CA-[C] |==|  0.71708
USER: genes 5 Torsion [N]-CA--C-[N] |==|  0.34526
USER: genes 6 Torsion [C]-N--CA-[C] |==|  0.70389
USER: genes 7 Torsion [N]-CA--CB-[OG] |==|  0.85057
USER: genes 8 Torsion [CA]-CB--OG-[HG] |==|  0.74260
USER: genes 9 Torsion [N]-CA--C-[N] |==|  0.06019
USER: genes 10 Torsion [C]-N--CA-[C] |==|  0.76996
USER: genes 11 Torsion [N]-CA--C-[O] |==|  0.07524
USER: genes 12 Torsion [N]-CA--CB-[CG] |==|  0.03158
USER: genes 13 Torsion [CA]-CB--CG-[CD2] |==|  0.76213
USER: genes 14 Torsion [N]-CA--CB-[CG] |==|  0.87328
USER: genes 15 Torsion [CA]-CB--CG-[CD2] |==|  0.83332
USER: genes 16 Torsion [N]-CA--CB-[CG2] |==|  0.42303
USER: genes 17 Torsion [CA]-CB--CG1-[CD1] |==|  0.74982
USER: genes 18 Torsion [O]-C--CA-[CB] |==|  0.19890
USER: genes 19 Torsion [N]-C--CA-[N] |==|  0.47218
USER: genes 20 Torsion [C]-CA--CB-[CG] |==|  0.56748
USER: genes 21 Torsion [CA]-CB--CG-[CD] |==|  0.34956
USER: genes 22 Torsion [CB]-CG--CD-[NE] |==|  0.78201
USER: genes 23 Torsion [CG]-CD--NE-[CZ] |==|  0.51974
USER: genes 24 Torsion [C]-CA--N-[C] |==|  0.76602
USER: genes 25 Torsion [N]-C--CA-[N] |==|  0.44029
USER: genes 26 Torsion [C]-CA--CB-[CG] |==|  0.39402
USER: genes 27 Torsion [CA]-CB--CG-[ND2] |==|  0.62246
ROOT
ATOM      1  C   PRO C  36      46.036  56.183  12.103  1.00 34.41 LIG 0.24  C 
ATOM      2 O    PRO C  36      46.479  55.769  13.178  1.00 29.89 LIG-0.27  OA
ATOM      3  N   ILE C  37      46.386  55.677  10.923  1.00 30.61 LIG-0.35  N 
ATOM      4 H    ILE C  37      46.055  55.949  10.177  1.00 30.61 LIG 0.16  HD
ENDROOT
BRANCH 3 5
ATOM      5  CA  ILE C  37      47.366  54.609  10.777  1.00 31.48 LIG 0.18  C 
BRANCH 5 6
ATOM      6  C   ILE C  37      48.670  55.189  11.294  1.00 31.96 LIG 0.24  C 
ATOM      7 O    ILE C  37      49.089  56.269  10.873  1.00 31.93 LIG-0.27  OA
ATOM      8  N   LEU C  38      49.316  54.466  12.199  1.00 30.89 LIG-0.35  N 
ATOM      9 H    LEU C  38      49.058  53.692  12.474  1.00 30.89 LIG 0.16  HD
BRANCH 8 10
ATOM     10  CA  LEU C  38      50.545  54.949  12.810  1.00 34.88 LIG 0.18  C 
BRANCH 10 11
ATOM     11  C   LEU C  38      51.856  54.371  12.291  1.00 39.33 LIG 0.24  C 
ATOM     12 O    LEU C  38      52.059  53.157  12.280  1.00 37.11 LIG-0.27  OA
ATOM     13  N   SER C  39      52.741  55.265  11.860  1.00 40.29 LIG-0.34  N 
ATOM     14 H    SER C  39      52.589  56.111  11.837  1.00 40.29 LIG 0.16  HD
BRANCH 13 15
ATOM     15  CA  SER C  39      54.065  54.887  11.380  1.00 42.99 LIG 0.20  C 
BRANCH 15 16
ATOM     16  CB  SER C  39      54.415  55.628  10.085  1.00 41.70 LIG 0.20  C 
BRANCH 16 17
ATOM     17 OG   SER C  39      53.414  55.455   9.095  1.00 43.46 LIG-0.40  OA
ATOM     18 HG   SER C  39      53.611  54.799   8.609  1.00 43.46 LIG 0.21  HD
ENDBRANCH 16 17
ENDBRANCH 15 16
BRANCH 15 19
ATOM     19  C   SER C  39      55.015  55.319  12.492  1.00 43.99 LIG 0.24  C 
ATOM     20  N   LEU C  40      54.500  55.477  13.706  1.00 44.48 LIG-0.34  N 
ATOM     21 H    LEU C  40      53.671  55.351  13.900  1.00 44.48 LIG 0.16  HD
ATOM     22 O    SER C  39      56.206  55.510  12.243  1.00 44.86 LIG-0.27  OA
BRANCH 20 23
ATOM     23  CA  LEU C  40      55.333  55.887  14.830  1.00 50.99 LIG 0.18  C 
BRANCH 23 24
ATOM     24  C   LEU C  40      56.058  54.684  15.431  1.00 53.79 LIG 0.20  C 
ATOM     25 O    LEU C  40      56.298  53.710  14.685  1.00 58.34 LIG-0.65  OA
ATOM     26 OXT  LEU C  40      56.370  54.722  16.640  1.00 54.01 LIG-0.65  OA
ENDBRANCH 23 24
BRANCH 23 27
ATOM     27  CB  LEU C  40      54.465  56.564  15.895  1.00 48.71 LIG 0.04  C 
BRANCH 27 28
ATOM     28  CG  LEU C  40      52.943  56.469  15.772  1.00 48.98 LIG-0.02  C 
ATOM     29  CD2 LEU C  40      52.450  57.581  14.868  1.00 51.62 LIG 0.01  C 
ATOM     30  CD1 LEU C  40      52.299  56.582  17.146  1.00 51.55 LIG 0.01  C 
ENDBRANCH 27 28
ENDBRANCH 23 27
ENDBRANCH 20 23
ENDBRANCH 15 19
ENDBRANCH 13 15
ENDBRANCH 10 11
BRANCH 10 31
ATOM     31  CB  LEU C  38      50.469  54.738  14.320  1.00 30.69 LIG 0.04  C 
BRANCH 31 32
ATOM     32  CG  LEU C  38      49.154  55.154  14.983  1.00 36.50 LIG-0.02  C 
ATOM     33  CD2 LEU C  38      48.904  56.643  14.752  1.00 35.12 LIG 0.01  C 
ATOM     34  CD1 LEU C  38      49.219  54.842  16.472  1.00 37.99 LIG 0.01  C 
ENDBRANCH 31 32
ENDBRANCH 10 31
ENDBRANCH 8 10
ENDBRANCH 5 6
BRANCH 5 35
ATOM     35  CB  ILE C  37      47.538  54.219   9.302  1.00 37.32 LIG 0.01  C 
ATOM     36  CG2 ILE C  37      48.937  53.669   9.072  1.00 35.15 LIG 0.01  C 
BRANCH 35 37
ATOM     37  CG1 ILE C  37      46.466  53.199   8.916  1.00 33.54 LIG 0.00  C 
ATOM     38  CD1 ILE C  37      46.885  51.763   9.132  1.00 46.98 LIG 0.01  C 
ENDBRANCH 35 37
ENDBRANCH 5 35
ENDBRANCH 3 5
BRANCH 1 39
ATOM     39  CA  PRO C  36      45.018  57.321  12.052  1.00 32.35 LIG 0.18  C 
ATOM     40  CB  PRO C  36      45.640  58.672  12.411  1.00 32.18 LIG 0.04  C 
ATOM     41  CG  PRO C  36      45.364  58.796  13.878  1.00 32.63 LIG 0.02  C 
ATOM     42  CD  PRO C  36      43.946  58.288  14.000  1.00 32.64 LIG 0.13  C 
ATOM     43  N   PRO C  36      43.921  57.193  13.014  1.00 32.06 LIG-0.34  N 
ATOM     44  C   ARG C  35      43.036  56.199  12.888  1.00 32.74 LIG 0.24  C 
ATOM     45 O    ARG C  35      43.108  55.380  11.974  1.00 32.93 LIG-0.27  OA
BRANCH 44 46
ATOM     46  CA  ARG C  35      41.919  56.120  13.919  1.00 37.56 LIG 0.18  C 
BRANCH 46 47
ATOM     47  CB  ARG C  35      42.490  55.720  15.279  1.00 40.42 LIG 0.04  C 
BRANCH 47 48
ATOM     48  CG  ARG C  35      41.484  55.065  16.188  1.00 36.41 LIG 0.02  C 
BRANCH 48 49
ATOM     49  CD  ARG C  35      41.978  53.718  16.687  1.00 39.80 LIG 0.14  C 
BRANCH 49 50
ATOM     50  NE  ARG C  35      41.814  52.691  15.663  1.00 32.60 LIG-0.23  N 
ATOM     51 HE   ARG C  35      41.561  52.943  14.881  1.00 32.60 LIG 0.18  HD
ATOM     52  CZ  ARG C  35      42.031  51.395  15.855  1.00 32.33 LIG 0.67  C 
ATOM     53  NH2 ARG C  35      42.425  50.953  17.040  1.00 28.83 LIG-0.23  N 
ATOM     54  NH1 ARG C  35      41.852  50.542  14.855  1.00 30.81 LIG-0.23  N 
ATOM     55 2HH2 ARG C  35      42.565  50.113  17.161  1.00 28.83 LIG 0.17  HD
ATOM     56 1HH2 ARG C  35      42.542  51.506  17.688  1.00 28.83 LIG 0.17  HD
ATOM     57 1HH1 ARG C  35      41.598  50.829  14.085  1.00 30.81 LIG 0.17  HD
ATOM     58 2HH1 ARG C  35      41.992  49.702  14.976  1.00 30.81 LIG 0.17  HD
ENDBRANCH 49 50
ENDBRANCH 48 49
ENDBRANCH 47 48
ENDBRANCH 46 47
BRANCH 46 59
ATOM     59  N   ARG C  35      40.951  55.133  13.465  1.00 36.73 LIG-0.35  N 
ATOM     60  C   ASN C  34      39.996  55.470  12.606  1.00 40.82 LIG 0.26  C 
ATOM     61 O    ASN C  34      39.874  56.611  12.163  1.00 33.40 LIG-0.27  OA
ATOM     62 H    ARG C  35      41.055  54.345  13.794  1.00 36.73 LIG 0.16  HD
BRANCH 60 63
ATOM     63  CA  ASN C  34      39.039  54.363  12.182  1.00 41.08 LIG 0.41  C 
ATOM     64  N   ASN C  34      37.771  54.956  11.671  1.00 44.32 LIG 0.61  N 
BRANCH 63 65
ATOM     65  CB  ASN C  34      39.711  53.514  11.097  1.00 43.19 LIG 0.15  C 
BRANCH 65 66
ATOM     66  CG  ASN C  34      39.404  52.029  11.229  1.00 48.82 LIG 0.22  C 
ATOM     67  ND2 ASN C  34      40.426  51.190  11.079  1.00 46.77 LIG-0.37  N 
ATOM     68 21HD ASN C  34      40.300  50.342  11.150  1.00 46.77 LIG 0.16  HD
ATOM     69 22HD ASN C  34      41.211  51.495  10.910  1.00 46.77 LIG 0.16  HD
ATOM     70 OD1  ASN C  34      38.261  51.645  11.472  1.00 54.33 LIG-0.27  OA
ENDBRANCH 65 66
ENDBRANCH 63 65
ENDBRANCH 60 63
ENDBRANCH 46 59
ENDBRANCH 44 46
ENDBRANCH 1 39
TORSDOF 26
ENDMDL
MODEL 5
USER: ADFR SOLUTION from run 20
USER: SCORE 17.754305 LL:  -4.949 LR: -13.375 RR:   0.000 FEB:  -5.619
USER: RMSD 2.128260
USER: SEED 19
USER: STATUS no improvement in best in 5 clusters for 5 generations
USER: GENES 28
USER: genes 0 Translation |==|  0.45926 0.56533 0.44860
USER: genes 1 Rotation |==|  0.45083 0.56410 0.53997 0.99181
USER: genes 2 Torsion [C]-N--CA-[C] |==|  0.80100
USER: genes 3 Torsion [N]-CA--C-[N] |==|  0.33363
USER: genes 4 Torsion [C]-N--CA-[C] |==|  0.71899
USER: genes 5 Torsion [N]-CA--C-[N] |==|  0.44678
USER: genes 6 Torsion [C]-N--CA-[C] |==|  0.66523
USER: genes 7 Torsion [N]-CA--CB-[OG] |==|  0.60854
USER: genes 8 Torsion [CA]-CB--OG-[HG] |==|  0.19905
USER: genes 9 Torsion [N]-CA--C-[N] |==|  0.43184
USER: genes 10 Torsion [C]-N--CA-[C] |==|  0.79538
USER: genes 11 Torsion [N]-CA--C-[O] |==|  0.89758
USER: genes 12 Torsion [N]-CA--CB-[CG] |==|  0.55199
USER: genes 13 Torsion [CA]-CB--CG-[CD2] |==|  0.70675
USER: genes 14 Torsion [N]-CA--CB-[CG] |==|  0.96821
USER: genes 15 Torsion [CA]-CB--CG-[CD2] |==|  0.73527
USER: genes 16 Torsion [N]-CA--CB-[CG2] |==|  0.41917
USER: genes 17 Torsion [CA]-CB--CG1-[CD1] |==|  0.75571
USER: genes 18 Torsion [O]-C--CA-[CB] |==|  0.22700
USER: genes 19 Torsion [N]-C--CA-[N] |==|  0.27356
USER: genes 20 Torsion [C]-CA--CB-[CG] |==|  0.33860
USER: genes 21 Torsion [CA]-CB--CG-[CD] |==|  0.48227
USER: genes 22 Torsion [CB]-CG--CD-[NE] |==|  0.09048
USER: genes 23 Torsion [CG]-CD--NE-[CZ] |==|  0.40093
USER: genes 24 Torsion [C]-CA--N-[C] |==|  0.72476
USER: genes 25 Torsion [N]-C--CA-[N] |==|  0.48030
USER: genes 26 Torsion [C]-CA--CB-[CG] |==|  0.85219
USER: genes 27 Torsion [CA]-CB--CG-[ND2] |==|  0.32511
ROOT
ATOM      1  C   PRO C  36      46.270  56.255  12.073  1.00 34.41 LIG 0.24  C 
ATOM      2 O    PRO C  36      46.641  55.805  13.162  1.00 29.89 LIG-0.27  OA
ATOM      3  N   ILE C  37      46.648  55.746  10.904  1.00 30.61 LIG-0.35  N 
ATOM      4 H    ILE C  37      46.366  56.044  10.147  1.00 30.61 LIG 0.16  HD
ENDROOT
BRANCH 3 5
ATOM      5  CA  ILE C  37      47.579  54.632  10.787  1.00 31.48 LIG 0.18  C 
BRANCH 5 6
ATOM      6  C   ILE C  37      48.934  55.201  11.169  1.00 31.96 LIG 0.24  C 
ATOM      7 O    ILE C  37      49.431  56.127  10.527  1.00 31.93 LIG-0.27  OA
ATOM      8  N   LEU C  38      49.534  54.638  12.210  1.00 30.89 LIG-0.35  N 
ATOM      9 H    LEU C  38      49.219  53.964  12.644  1.00 30.89 LIG 0.16  HD
BRANCH 8 10
ATOM     10  CA  LEU C  38      50.807  55.138  12.705  1.00 34.88 LIG 0.18  C 
BRANCH 10 11
ATOM     11  C   LEU C  38      52.061  54.367  12.311  1.00 39.33 LIG 0.24  C 
ATOM     12 O    LEU C  38      51.996  53.204  11.913  1.00 37.11 LIG-0.27  OA
ATOM     13  N   SER C  39      53.203  55.038  12.427  1.00 40.29 LIG-0.34  N 
ATOM     14 H    SER C  39      53.248  55.861  12.674  1.00 40.29 LIG 0.16  HD
BRANCH 13 15
ATOM     15  CA  SER C  39      54.499  54.433  12.142  1.00 42.99 LIG 0.20  C 
BRANCH 15 16
ATOM     16  CB  SER C  39      55.234  55.200  11.037  1.00 41.70 LIG 0.20  C 
BRANCH 16 17
ATOM     17 OG   SER C  39      55.917  54.323  10.156  1.00 43.46 LIG-0.40  OA
ATOM     18 HG   SER C  39      55.359  53.915   9.678  1.00 43.46 LIG 0.21  HD
ENDBRANCH 16 17
ENDBRANCH 15 16
BRANCH 15 19
ATOM     19  C   SER C  39      55.274  54.549  13.450  1.00 43.99 LIG 0.24  C 
ATOM     20  N   LEU C  40      56.255  53.677  13.656  1.00 44.48 LIG-0.34  N 
ATOM     21 H    LEU C  40      56.476  53.057  13.101  1.00 44.48 LIG 0.16  HD
ATOM     22 O    SER C  39      54.979  55.424  14.265  1.00 44.86 LIG-0.27  OA
BRANCH 20 23
ATOM     23  CA  LEU C  40      57.051  53.712  14.877  1.00 50.99 LIG 0.18  C 
BRANCH 23 24
ATOM     24  C   LEU C  40      58.018  54.895  14.855  1.00 53.79 LIG 0.20  C 
ATOM     25 O    LEU C  40      58.545  55.204  13.763  1.00 58.34 LIG-0.65  OA
ATOM     26 OXT  LEU C  40      58.247  55.494  15.927  1.00 54.01 LIG-0.65  OA
ENDBRANCH 23 24
BRANCH 23 27
ATOM     27  CB  LEU C  40      57.828  52.400  15.025  1.00 48.71 LIG 0.04  C 
BRANCH 27 28
ATOM     28  CG  LEU C  40      58.377  52.024  16.401  1.00 48.98 LIG-0.02  C 
ATOM     29  CD2 LEU C  40      59.877  52.242  16.412  1.00 51.62 LIG 0.01  C 
ATOM     30  CD1 LEU C  40      58.053  50.570  16.715  1.00 51.55 LIG 0.01  C 
ENDBRANCH 27 28
ENDBRANCH 23 27
ENDBRANCH 20 23
ENDBRANCH 15 19
ENDBRANCH 13 15
ENDBRANCH 10 11
BRANCH 10 31
ATOM     31  CB  LEU C  38      50.745  55.246  14.226  1.00 30.69 LIG 0.04  C 
BRANCH 31 32
ATOM     32  CG  LEU C  38      49.355  55.090  14.845  1.00 36.50 LIG-0.02  C 
ATOM     33  CD2 LEU C  38      48.727  56.465  15.069  1.00 35.12 LIG 0.01  C 
ATOM     34  CD1 LEU C  38      49.471  54.329  16.160  1.00 37.99 LIG 0.01  C 
ENDBRANCH 31 32
ENDBRANCH 10 31
ENDBRANCH 8 10
ENDBRANCH 5 6
BRANCH 5 35
ATOM     35  CB  ILE C  37      47.639  54.115   9.343  1.00 37.32 LIG 0.01  C 
ATOM     36  CG2 ILE C  37      49.012  53.524   9.061  1.00 35.15 LIG 0.01  C 
BRANCH 35 37
ATOM     37  CG1 ILE C  37      46.532  53.084   9.124  1.00 33.54 LIG 0.00  C 
ATOM     38  CD1 ILE C  37      46.934  51.672   9.480  1.00 46.98 LIG 0.01  C 
ENDBRANCH 35 37
ENDBRANCH 5 35
ENDBRANCH 3 5
BRANCH 1 39
ATOM     39  CA  PRO C  36      45.314  57.444  11.993  1.00 32.35 LIG 0.18  C 
ATOM     40  CB  PRO C  36      46.037  58.782  12.156  1.00 32.18 LIG 0.04  C 
ATOM     41  CG  PRO C  36      45.902  59.065  13.621  1.00 32.63 LIG 0.02  C 
ATOM     42  CD  PRO C  36      44.476  58.660  13.916  1.00 32.64 LIG 0.13  C 
ATOM     43  N   PRO C  36      44.303  57.479  13.053  1.00 32.06 LIG-0.34  N 
ATOM     44  C   ARG C  35      43.359  56.533  13.106  1.00 32.74 LIG 0.24  C 
ATOM     45 O    ARG C  35      43.303  55.627  12.278  1.00 32.93 LIG-0.27  OA
BRANCH 44 46
ATOM     46  CA  ARG C  35      42.338  56.625  14.231  1.00 37.56 LIG 0.18  C 
BRANCH 46 47
ATOM     47  CB  ARG C  35      42.024  55.229  14.768  1.00 40.42 LIG 0.04  C 
BRANCH 47 48
ATOM     48  CG  ARG C  35      42.303  55.071  16.240  1.00 36.41 LIG 0.02  C 
BRANCH 48 49
ATOM     49  CD  ARG C  35      41.831  53.722  16.755  1.00 39.80 LIG 0.14  C 
BRANCH 49 50
ATOM     50  NE  ARG C  35      41.956  52.698  15.722  1.00 32.60 LIG-0.23  N 
ATOM     51 HE   ARG C  35      41.806  52.931  14.908  1.00 32.60 LIG 0.18  HD
ATOM     52  CZ  ARG C  35      42.287  51.433  15.953  1.00 32.33 LIG 0.67  C 
ATOM     53  NH2 ARG C  35      42.532  51.023  17.189  1.00 28.83 LIG-0.23  N 
ATOM     54  NH1 ARG C  35      42.373  50.579  14.942  1.00 30.81 LIG-0.23  N 
ATOM     55 2HH2 ARG C  35      42.746  50.203  17.335  1.00 28.83 LIG 0.17  HD
ATOM     56 1HH2 ARG C  35      42.478  51.576  17.845  1.00 28.83 LIG 0.17  HD
ATOM     57 1HH1 ARG C  35      42.216  50.846  14.139  1.00 30.81 LIG 0.17  HD
ATOM     58 2HH1 ARG C  35      42.588  49.759  15.088  1.00 30.81 LIG 0.17  HD
ENDBRANCH 49 50
ENDBRANCH 48 49
ENDBRANCH 47 48
ENDBRANCH 46 47
BRANCH 46 59
ATOM     59  N   ARG C  35      41.134  57.248  13.702  1.00 36.73 LIG-0.35  N 
ATOM     60  C   ASN C  34      40.899  58.540  13.901  1.00 40.82 LIG 0.26  C 
ATOM     61 O    ASN C  34      41.665  59.264  14.536  1.00 33.40 LIG-0.27  OA
ATOM     62 H    ARG C  35      40.613  56.719  13.268  1.00 36.73 LIG 0.16  HD
BRANCH 60 63
ATOM     63  CA  ASN C  34      39.618  59.101  13.297  1.00 41.08 LIG 0.41  C 
ATOM     64  N   ASN C  34      39.416  60.506  13.750  1.00 44.32 LIG 0.61  N 
BRANCH 63 65
ATOM     65  CB  ASN C  34      39.720  59.037  11.769  1.00 43.19 LIG 0.15  C 
BRANCH 65 66
ATOM     66  CG  ASN C  34      40.981  59.701  11.231  1.00 48.82 LIG 0.22  C 
ATOM     67  ND2 ASN C  34      41.843  58.917  10.588  1.00 46.77 LIG-0.37  N 
ATOM     68 21HD ASN C  34      42.566  59.250  10.263  1.00 46.77 LIG 0.16  HD
ATOM     69 22HD ASN C  34      41.676  58.078  10.499  1.00 46.77 LIG 0.16  HD
ATOM     70 OD1  ASN C  34      41.170  60.907  11.387  1.00 54.33 LIG-0.27  OA
ENDBRANCH 65 66
ENDBRANCH 63 65
ENDBRANCH 60 63
ENDBRANCH 46 59
ENDBRANCH 44 46
ENDBRANCH 1 39
TORSDOF 26
ENDMDL
