MODEL 1
USER: ADFR SOLUTION from run 128
USER: SCORE 13.355038 LL:  -3.534 LR: -10.778 RR:   0.000 FEB:  -7.497
USER: RMSD 0.852148
USER: SEED 127
USER: STATUS 1 or 2 clusters left
USER: GENES 13
USER: genes 0 Translation |==|  0.58549 0.53049 0.45269
USER: genes 1 Rotation |==|  0.55335 0.52319 0.55373 0.99369
USER: genes 2 Torsion [C]-N--CA-[CB] |==|  0.47778
USER: genes 3 Torsion [N]-CA--CB-[CG] |==|  0.20102
USER: genes 4 Torsion [CA]-CB--CG-[CD] |==|  0.78995
USER: genes 5 Torsion [CB]-CG--CD-[OE1] |==|  0.74643
USER: genes 6 Torsion [N]-CA--C-[N] |==|  0.46051
USER: genes 7 Torsion [N]-CA--C-[OXT] |==|  0.22889
USER: genes 8 Torsion [N]-C--CA-[N] |==|  0.00343
USER: genes 9 Torsion [C]-CA--N-[C] |==|  0.65644
USER: genes 10 Torsion [N]-C--CA-[N] |==|  0.88438
USER: genes 11 Torsion [C]-CA--CB-[CG] |==|  0.76248
USER: genes 12 Torsion [CA]-CB--CG-[CD2] |==|  0.73214
ROOT
ATOM      1  C   PHE B 724      42.293  37.939  84.803  1.00 20.38 LIG 0.24  C 
ATOM      2 O    PHE B 724      42.630  37.978  83.621  1.00 19.94 LIG-0.27  OA
ATOM      3  N   GLU B 725      41.231  37.269  85.227  1.00 20.55 LIG-0.35  N 
ATOM      4 H    GLU B 725      41.025  37.168  86.056  1.00 20.55 LIG 0.16  HD
ENDROOT
BRANCH 3 5
ATOM      5  CA  GLU B 725      40.309  36.637  84.297  1.00 20.80 LIG 0.18  C 
BRANCH 5 6
ATOM      6  CB  GLU B 725      39.299  35.775  85.068  1.00 21.18 LIG 0.04  C 
BRANCH 6 7
ATOM      7  CG  GLU B 725      38.247  36.549  85.852  1.00 23.39 LIG 0.12  C 
BRANCH 7 8
ATOM      8  CD  GLU B 725      38.776  37.171  87.138  1.00 26.43 LIG 0.17  C 
ATOM      9 OE1  GLU B 725      38.709  36.526  88.212  1.00 27.49 LIG-0.65  OA
ATOM     10 OE2  GLU B 725      39.258  38.326  87.074  1.00 27.53 LIG-0.65  OA
ENDBRANCH 7 8
ENDBRANCH 6 7
ENDBRANCH 5 6
BRANCH 5 11
ATOM     11  C   GLU B 725      39.624  37.741  83.474  1.00 20.17 LIG 0.24  C 
ATOM     12  N   PRO B 726      38.961  37.376  82.373  1.00 19.83 LIG-0.34  N 
ATOM     13  CD  PRO B 726      38.847  36.028  81.783  1.00 19.46 LIG 0.13  C 
ATOM     14  CA  PRO B 726      38.201  38.361  81.610  1.00 19.64 LIG 0.19  C 
ATOM     15  CG  PRO B 726      38.030  36.239  80.536  1.00 19.20 LIG 0.02  C 
ATOM     16  CB  PRO B 726      38.035  37.692  80.245  1.00 19.97 LIG 0.04  C 
ATOM     17 O    GLU B 725      39.699  38.926  83.846  1.00 19.41 LIG-0.27  OA
BRANCH 14 18
ATOM     18  C   PRO B 726      36.864  38.535  82.322  1.00 19.81 LIG 0.20  C 
ATOM     19 OXT  PRO B 726      36.829  39.305  83.300  1.00 20.16 LIG-0.65  OA
ATOM     20 O    PRO B 726      35.885  37.881  81.940  1.00 18.50 LIG-0.65  OA
ENDBRANCH 14 18
ENDBRANCH 5 11
ENDBRANCH 3 5
BRANCH 1 21
ATOM     21  CA  PHE B 724      43.091  38.673  85.882  1.00 20.36 LIG 0.18  C 
BRANCH 21 22
ATOM     22  N   PHE B 724      42.523  38.462  87.218  1.00 20.75 LIG-0.35  N 
ATOM     23  C   GLY B 723      42.155  39.475  87.995  1.00 21.06 LIG 0.25  C 
ATOM     24 O    GLY B 723      42.250  40.654  87.646  1.00 21.29 LIG-0.27  OA
ATOM     25 H    PHE B 724      42.453  37.636  87.446  1.00 20.75 LIG 0.16  HD
BRANCH 23 26
ATOM     26  CA  GLY B 723      41.593  39.111  89.361  1.00 21.22 LIG 0.47  C 
ATOM     27  N   GLY B 723      40.667  37.941  89.318  1.00 21.24 LIG 0.61  N 
ENDBRANCH 23 26
ENDBRANCH 21 22
BRANCH 21 28
ATOM     28  CB  PHE B 724      44.563  38.257  85.840  1.00 20.22 LIG 0.07  C 
BRANCH 28 29
ATOM     29  CG  PHE B 724      44.864  37.015  86.622  1.00 20.05 LIG-0.06  A 
ATOM     30  CD1 PHE B 724      44.650  35.763  86.068  1.00 20.54 LIG 0.01  A 
ATOM     31  CE1 PHE B 724      44.923  34.607  86.797  1.00 21.50 LIG 0.00  A 
ATOM     32  CZ  PHE B 724      45.408  34.707  88.100  1.00 21.54 LIG 0.00  A 
ATOM     33  CE2 PHE B 724      45.624  35.955  88.661  1.00 21.44 LIG 0.00  A 
ATOM     34  CD2 PHE B 724      45.350  37.102  87.922  1.00 20.20 LIG 0.01  A 
ENDBRANCH 28 29
ENDBRANCH 21 28
ENDBRANCH 1 21
TORSDOF 11
ENDMDL
MODEL 2
USER: ADFR SOLUTION from run 38
USER: SCORE 11.978606 LL:  -3.479 LR:  -9.736 RR:   0.000 FEB:  -6.454
USER: RMSD 2.223030
USER: SEED 37
USER: STATUS 1 or 2 clusters left
USER: GENES 13
USER: genes 0 Translation |==|  0.58018 0.48518 0.47428
USER: genes 1 Rotation |==|  0.56194 0.46915 0.52770 0.99441
USER: genes 2 Torsion [C]-N--CA-[CB] |==|  0.45000
USER: genes 3 Torsion [N]-CA--CB-[CG] |==|  0.14951
USER: genes 4 Torsion [CA]-CB--CG-[CD] |==|  0.74247
USER: genes 5 Torsion [CB]-CG--CD-[OE1] |==|  0.76993
USER: genes 6 Torsion [N]-CA--C-[N] |==|  0.47761
USER: genes 7 Torsion [N]-CA--C-[OXT] |==|  0.76177
USER: genes 8 Torsion [N]-C--CA-[N] |==|  0.06185
USER: genes 9 Torsion [C]-CA--N-[C] |==|  0.16889
USER: genes 10 Torsion [N]-C--CA-[N] |==|  0.33989
USER: genes 11 Torsion [C]-CA--CB-[CG] |==|  0.60281
USER: genes 12 Torsion [CA]-CB--CG-[CD2] |==|  0.32378
ROOT
ATOM      1  C   PHE B 724      42.197  37.294  85.208  1.00 20.38 LIG 0.24  C 
ATOM      2 O    PHE B 724      42.767  37.334  84.119  1.00 19.94 LIG-0.27  OA
ATOM      3  N   GLU B 725      40.998  36.754  85.374  1.00 20.55 LIG-0.35  N 
ATOM      4 H    GLU B 725      40.620  36.648  86.139  1.00 20.55 LIG 0.16  HD
ENDROOT
BRANCH 3 5
ATOM      5  CA  GLU B 725      40.212  36.285  84.244  1.00 20.80 LIG 0.18  C 
BRANCH 5 6
ATOM      6  CB  GLU B 725      39.115  35.329  84.732  1.00 21.18 LIG 0.04  C 
BRANCH 6 7
ATOM      7  CG  GLU B 725      38.213  35.878  85.832  1.00 23.39 LIG 0.12  C 
BRANCH 7 8
ATOM      8  CD  GLU B 725      38.687  35.538  87.239  1.00 26.43 LIG 0.17  C 
ATOM      9 OE1  GLU B 725      38.403  34.423  87.736  1.00 27.49 LIG-0.65  OA
ATOM     10 OE2  GLU B 725      39.346  36.405  87.859  1.00 27.53 LIG-0.65  OA
ENDBRANCH 7 8
ENDBRANCH 6 7
ENDBRANCH 5 6
BRANCH 5 11
ATOM     11  C   GLU B 725      39.634  37.513  83.519  1.00 20.17 LIG 0.24  C 
ATOM     12  N   PRO B 726      39.013  37.311  82.353  1.00 19.83 LIG-0.34  N 
ATOM     13  CD  PRO B 726      38.858  36.046  81.610  1.00 19.46 LIG 0.13  C 
ATOM     14  CA  PRO B 726      38.351  38.419  81.670  1.00 19.64 LIG 0.19  C 
ATOM     15  CG  PRO B 726      38.122  36.441  80.357  1.00 19.20 LIG 0.02  C 
ATOM     16  CB  PRO B 726      38.223  37.915  80.232  1.00 19.97 LIG 0.04  C 
ATOM     17 O    GLU B 725      39.754  38.642  84.025  1.00 19.41 LIG-0.27  OA
BRANCH 14 18
ATOM     18  C   PRO B 726      36.989  38.594  82.332  1.00 19.81 LIG 0.20  C 
ATOM     19 OXT  PRO B 726      36.051  37.891  81.913  1.00 20.16 LIG-0.65  OA
ATOM     20 O    PRO B 726      36.851  39.448  83.218  1.00 18.50 LIG-0.65  OA
ENDBRANCH 14 18
ENDBRANCH 5 11
ENDBRANCH 3 5
BRANCH 1 21
ATOM     21  CA  PHE B 724      42.846  37.874  86.466  1.00 20.36 LIG 0.18  C 
BRANCH 21 22
ATOM     22  N   PHE B 724      42.288  37.283  87.688  1.00 20.75 LIG-0.35  N 
ATOM     23  C   GLY B 723      42.371  35.982  87.942  1.00 21.06 LIG 0.25  C 
ATOM     24 O    GLY B 723      42.928  35.186  87.183  1.00 21.29 LIG-0.27  OA
ATOM     25 H    PHE B 724      41.910  37.849  88.213  1.00 20.75 LIG 0.16  HD
BRANCH 23 26
ATOM     26  CA  GLY B 723      41.738  35.504  89.241  1.00 21.22 LIG 0.47  C 
ATOM     27  N   GLY B 723      40.693  34.459  89.031  1.00 21.24 LIG 0.61  N 
ENDBRANCH 23 26
ENDBRANCH 21 22
BRANCH 21 28
ATOM     28  CB  PHE B 724      44.365  37.699  86.418  1.00 20.22 LIG 0.07  C 
BRANCH 28 29
ATOM     29  CG  PHE B 724      44.983  37.388  87.747  1.00 20.05 LIG-0.06  A 
ATOM     30  CD1 PHE B 724      44.930  38.308  88.782  1.00 20.54 LIG 0.01  A 
ATOM     31  CE1 PHE B 724      45.510  38.023  90.016  1.00 21.50 LIG 0.00  A 
ATOM     32  CZ  PHE B 724      46.159  36.805  90.214  1.00 21.54 LIG 0.00  A 
ATOM     33  CE2 PHE B 724      46.216  35.880  89.184  1.00 21.44 LIG 0.00  A 
ATOM     34  CD2 PHE B 724      45.631  36.175  87.956  1.00 20.20 LIG 0.01  A 
ENDBRANCH 28 29
ENDBRANCH 21 28
ENDBRANCH 1 21
TORSDOF 11
ENDMDL
