MODEL 1
USER: ADFR SOLUTION from run 130
USER: SCORE 14.047324 LL:  -2.170 LR: -12.510 RR:   0.000 FEB:  -8.632
USER: RMSD 2.408383
USER: SEED 129
USER: STATUS 1 or 2 clusters left
USER: GENES 15
USER: genes 0 Translation |==|  0.63700 0.58818 0.49743
USER: genes 1 Rotation |==|  0.46877 0.44459 0.48051 0.99556
USER: genes 2 Torsion [C]-CA--CB-[CG] |==|  0.83617
USER: genes 3 Torsion [CA]-CB--CG-[CD1] |==|  0.32689
USER: genes 4 Torsion [N]-CA--C-[N] |==|  0.01863
USER: genes 5 Torsion [C]-N--CA-[C] |==|  0.76710
USER: genes 6 Torsion [N]-CA--C-[N] |==|  0.47210
USER: genes 7 Torsion [N]-CA--C-[OXT] |==|  0.72144
USER: genes 8 Torsion [N]-CA--CB-[OG] |==|  0.32369
USER: genes 9 Torsion [CA]-CB--OG-[HG] |==|  0.67579
USER: genes 10 Torsion [CB]-CA--N-[C] |==|  0.23583
USER: genes 11 Torsion [N]-C--CA-[N] |==|  0.36578
USER: genes 12 Torsion [C]-CA--CB-[CG] |==|  0.75648
USER: genes 13 Torsion [CA]-CB--CG-[CD] |==|  0.37189
USER: genes 14 Torsion [CB]-CG--CD-[OE2] |==|  0.55772
ROOT
ATOM      1  CA  PHE B 724      43.009  38.619  84.639  1.00 26.49 LIG 0.18  C 
ENDROOT
BRANCH 1 2
ATOM      2  CB  PHE B 724      44.441  38.110  84.949  1.00 25.63 LIG 0.07  C 
BRANCH 2 3
ATOM      3  CG  PHE B 724      44.477  36.695  85.569  1.00 27.34 LIG-0.06  A 
ATOM      4  CD1 PHE B 724      45.112  35.647  84.899  1.00 28.02 LIG 0.01  A 
ATOM      5  CE1 PHE B 724      45.124  34.322  85.438  1.00 28.62 LIG 0.00  A 
ATOM      6  CZ  PHE B 724      44.452  34.033  86.695  1.00 35.24 LIG 0.00  A 
ATOM      7  CE2 PHE B 724      43.782  35.111  87.367  1.00 37.40 LIG 0.00  A 
ATOM      8  CD2 PHE B 724      43.805  36.423  86.777  1.00 30.54 LIG 0.01  A 
ENDBRANCH 2 3
ENDBRANCH 1 2
BRANCH 1 9
ATOM      9  C   PHE B 724      42.221  37.697  83.646  1.00 25.60 LIG 0.24  C 
ATOM     10 O    PHE B 724      42.672  37.414  82.584  1.00 24.31 LIG-0.27  OA
ATOM     11  N   SER B 725      41.023  37.281  84.036  1.00 25.14 LIG-0.34  N 
ATOM     12 H    SER B 725      40.713  37.390  84.830  1.00 25.14 LIG 0.16  HD
BRANCH 11 13
ATOM     13  CA  SER B 725      40.118  36.595  83.130  1.00 26.01 LIG 0.20  C 
BRANCH 13 14
ATOM     14  C   SER B 725      39.338  37.650  82.303  1.00 25.07 LIG 0.24  C 
ATOM     15  N   PRO B 726      38.604  37.226  81.270  1.00 24.50 LIG-0.34  N 
ATOM     16  CD  PRO B 726      38.556  35.871  80.677  1.00 23.05 LIG 0.13  C 
ATOM     17  CA  PRO B 726      37.775  38.175  80.533  1.00 23.41 LIG 0.19  C 
ATOM     18  CG  PRO B 726      37.588  36.067  79.512  1.00 23.09 LIG 0.02  C 
ATOM     19  CB  PRO B 726      37.556  37.473  79.194  1.00 23.24 LIG 0.04  C 
ATOM     20 O    SER B 725      39.391  38.863  82.612  1.00 24.38 LIG-0.27  OA
BRANCH 17 21
ATOM     21  C   PRO B 726      36.472  38.360  81.310  1.00 26.46 LIG 0.20  C 
ATOM     22 OXT  PRO B 726      35.413  37.737  80.937  1.00 26.95 LIG-0.65  OA
ATOM     23 O    PRO B 726      36.479  39.115  82.306  1.00 25.53 LIG-0.65  OA
ENDBRANCH 17 21
ENDBRANCH 13 14
BRANCH 13 24
ATOM     24  CB  SER B 725      39.188  35.684  83.957  1.00 27.74 LIG 0.20  C 
BRANCH 24 25
ATOM     25 OG   SER B 725      37.796  36.073  83.859  1.00 32.69 LIG-0.40  OA
ATOM     26 HG   SER B 725      37.516  36.307  84.615  1.00 32.69 LIG 0.21  HD
ENDBRANCH 24 25
ENDBRANCH 13 24
ENDBRANCH 11 13
ENDBRANCH 1 9
BRANCH 1 27
ATOM     27  N   PHE B 724      42.243  38.656  85.858  1.00 25.12 LIG-0.34  N 
ATOM     28  C   GLU B 723      42.284  39.691  86.677  1.00 28.42 LIG 0.26  C 
ATOM     29 O    GLU B 723      42.792  40.780  86.401  1.00 26.74 LIG-0.27  OA
ATOM     30 H    PHE B 724      41.766  37.954  85.997  1.00 25.12 LIG 0.16  HD
BRANCH 28 31
ATOM     31  CA  GLU B 723      41.624  39.445  88.019  1.00 29.87 LIG 0.40  C 
ATOM     32  N   GLU B 723      42.429  39.849  89.238  1.00 31.36 LIG 0.61  N 
BRANCH 31 33
ATOM     33  CB  GLU B 723      40.244  40.039  87.926  1.00 32.48 LIG 0.06  C 
BRANCH 33 34
ATOM     34  CG  GLU B 723      40.315  41.519  88.325  1.00 37.12 LIG 0.12  C 
BRANCH 34 35
ATOM     35  CD  GLU B 723      39.530  42.372  87.313  1.00 44.87 LIG 0.17  C 
ATOM     36 OE2  GLU B 723      39.795  43.624  87.233  1.00 46.35 LIG-0.65  OA
ATOM     37 OE1  GLU B 723      38.685  41.766  86.562  1.00 48.21 LIG-0.65  OA
ENDBRANCH 34 35
ENDBRANCH 33 34
ENDBRANCH 31 33
ENDBRANCH 28 31
ENDBRANCH 1 27
TORSDOF 13
ENDMDL
MODEL 2
USER: ADFR SOLUTION from run 17
USER: SCORE 13.322014 LL:  -2.760 LR: -10.952 RR:   0.000 FEB:  -7.074
USER: RMSD 2.218168
USER: SEED 16
USER: STATUS no improvement in best in 3 clusters for 5 generations
USER: GENES 15
USER: genes 0 Translation |==|  0.63572 0.58637 0.49234
USER: genes 1 Rotation |==|  0.47374 0.45971 0.48744 0.99752
USER: genes 2 Torsion [C]-CA--CB-[CG] |==|  0.83701
USER: genes 3 Torsion [CA]-CB--CG-[CD1] |==|  0.42930
USER: genes 4 Torsion [N]-CA--C-[N] |==|  0.02961
USER: genes 5 Torsion [C]-N--CA-[C] |==|  0.76843
USER: genes 6 Torsion [N]-CA--C-[N] |==|  0.46847
USER: genes 7 Torsion [N]-CA--C-[OXT] |==|  0.22790
USER: genes 8 Torsion [N]-CA--CB-[OG] |==|  0.01004
USER: genes 9 Torsion [CA]-CB--OG-[HG] |==|  0.21141
USER: genes 10 Torsion [CB]-CA--N-[C] |==|  0.20546
USER: genes 11 Torsion [N]-C--CA-[N] |==|  0.96403
USER: genes 12 Torsion [C]-CA--CB-[CG] |==|  0.87778
USER: genes 13 Torsion [CA]-CB--CG-[CD] |==|  0.43919
USER: genes 14 Torsion [CB]-CG--CD-[OE2] |==|  0.46213
ROOT
ATOM      1  CA  PHE B 724      42.986  38.593  84.543  1.00 26.49 LIG 0.18  C 
ENDROOT
BRANCH 1 2
ATOM      2  CB  PHE B 724      44.447  38.117  84.754  1.00 25.63 LIG 0.07  C 
BRANCH 2 3
ATOM      3  CG  PHE B 724      44.557  36.689  85.335  1.00 27.34 LIG-0.06  A 
ATOM      4  CD1 PHE B 724      45.699  35.920  85.103  1.00 28.02 LIG 0.01  A 
ATOM      5  CE1 PHE B 724      45.805  34.582  85.600  1.00 28.62 LIG 0.00  A 
ATOM      6  CZ  PHE B 724      44.708  33.986  86.346  1.00 35.24 LIG 0.00  A 
ATOM      7  CE2 PHE B 724      43.529  34.775  86.562  1.00 37.40 LIG 0.00  A 
ATOM      8  CD2 PHE B 724      43.480  36.115  86.040  1.00 30.54 LIG 0.01  A 
ENDBRANCH 2 3
ENDBRANCH 1 2
BRANCH 1 9
ATOM      9  C   PHE B 724      42.161  37.669  83.583  1.00 25.60 LIG 0.24  C 
ATOM     10 O    PHE B 724      42.585  37.362  82.515  1.00 24.31 LIG-0.27  OA
ATOM     11  N   SER B 725      40.965  37.280  84.004  1.00 25.14 LIG-0.34  N 
ATOM     12 H    SER B 725      40.674  37.406  84.803  1.00 25.14 LIG 0.16  HD
BRANCH 11 13
ATOM     13  CA  SER B 725      40.030  36.594  83.128  1.00 26.01 LIG 0.20  C 
BRANCH 13 14
ATOM     14  C   SER B 725      39.259  37.650  82.293  1.00 25.07 LIG 0.24  C 
ATOM     15  N   PRO B 726      38.519  37.223  81.265  1.00 24.50 LIG-0.34  N 
ATOM     16  CD  PRO B 726      38.457  35.862  80.685  1.00 23.05 LIG 0.13  C 
ATOM     17  CA  PRO B 726      37.698  38.172  80.520  1.00 23.41 LIG 0.19  C 
ATOM     18  CG  PRO B 726      37.489  36.056  79.520  1.00 23.09 LIG 0.02  C 
ATOM     19  CB  PRO B 726      37.470  37.459  79.189  1.00 23.24 LIG 0.04  C 
ATOM     20 O    SER B 725      39.324  38.865  82.589  1.00 24.38 LIG-0.27  OA
BRANCH 17 21
ATOM     21  C   PRO B 726      36.398  38.377  81.297  1.00 26.46 LIG 0.20  C 
ATOM     22 OXT  PRO B 726      36.367  39.198  82.283  1.00 26.95 LIG-0.65  OA
ATOM     23 O    PRO B 726      35.386  37.737  80.937  1.00 25.53 LIG-0.65  OA
ENDBRANCH 17 21
ENDBRANCH 13 14
BRANCH 13 24
ATOM     24  CB  SER B 725      39.096  35.722  83.991  1.00 27.74 LIG 0.20  C 
BRANCH 24 25
ATOM     25 OG   SER B 725      39.338  35.882  85.411  1.00 32.69 LIG-0.40  OA
ATOM     26 HG   SER B 725      39.011  36.610  85.671  1.00 32.69 LIG 0.21  HD
ENDBRANCH 24 25
ENDBRANCH 13 24
ENDBRANCH 11 13
ENDBRANCH 1 9
BRANCH 1 27
ATOM     27  N   PHE B 724      42.296  38.587  85.808  1.00 25.12 LIG-0.34  N 
ATOM     28  C   GLU B 723      42.525  39.502  86.733  1.00 28.42 LIG 0.26  C 
ATOM     29 O    GLU B 723      43.167  40.537  86.546  1.00 26.74 LIG-0.27  OA
ATOM     30 H    PHE B 724      41.732  37.944  85.900  1.00 25.12 LIG 0.16  HD
BRANCH 28 31
ATOM     31  CA  GLU B 723      41.906  39.188  88.080  1.00 29.87 LIG 0.40  C 
ATOM     32  N   GLU B 723      40.886  38.068  88.096  1.00 31.36 LIG 0.61  N 
BRANCH 31 33
ATOM     33  CB  GLU B 723      43.050  39.039  89.046  1.00 32.48 LIG 0.06  C 
BRANCH 33 34
ATOM     34  CG  GLU B 723      44.150  38.198  88.384  1.00 37.12 LIG 0.12  C 
BRANCH 34 35
ATOM     35  CD  GLU B 723      45.501  38.470  89.070  1.00 44.87 LIG 0.17  C 
ATOM     36 OE2  GLU B 723      46.478  37.673  88.835  1.00 46.35 LIG-0.65  OA
ATOM     37 OE1  GLU B 723      45.589  39.520  89.801  1.00 48.21 LIG-0.65  OA
ENDBRANCH 34 35
ENDBRANCH 33 34
ENDBRANCH 31 33
ENDBRANCH 28 31
ENDBRANCH 1 27
TORSDOF 13
ENDMDL
MODEL 3
USER: ADFR SOLUTION from run 115
USER: SCORE 13.010269 LL:  -3.040 LR: -10.688 RR:   0.000 FEB:  -6.810
USER: RMSD 2.321030
USER: SEED 114
USER: STATUS no improvement in best in 2 clusters for 5 generations
USER: GENES 15
USER: genes 0 Translation |==|  0.61973 0.56045 0.51350
USER: genes 1 Rotation |==|  0.55992 0.49075 0.56347 0.99224
USER: genes 2 Torsion [C]-CA--CB-[CG] |==|  0.76524
USER: genes 3 Torsion [CA]-CB--CG-[CD1] |==|  0.24594
USER: genes 4 Torsion [N]-CA--C-[N] |==|  0.13364
USER: genes 5 Torsion [C]-N--CA-[C] |==|  0.71703
USER: genes 6 Torsion [N]-CA--C-[N] |==|  0.49382
USER: genes 7 Torsion [N]-CA--C-[OXT] |==|  0.24932
USER: genes 8 Torsion [N]-CA--CB-[OG] |==|  0.02122
USER: genes 9 Torsion [CA]-CB--OG-[HG] |==|  0.45649
USER: genes 10 Torsion [CB]-CA--N-[C] |==|  0.75342
USER: genes 11 Torsion [N]-C--CA-[N] |==|  0.39747
USER: genes 12 Torsion [C]-CA--CB-[CG] |==|  0.64653
USER: genes 13 Torsion [CA]-CB--CG-[CD] |==|  0.22377
USER: genes 14 Torsion [CB]-CG--CD-[OE2] |==|  0.93301
ROOT
ATOM      1  CA  PHE B 724      42.698  38.223  84.940  1.00 26.49 LIG 0.18  C 
ENDROOT
BRANCH 1 2
ATOM      2  CB  PHE B 724      44.247  38.225  84.873  1.00 25.63 LIG 0.07  C 
BRANCH 2 3
ATOM      3  CG  PHE B 724      44.899  36.994  85.542  1.00 27.34 LIG-0.06  A 
ATOM      4  CD1 PHE B 724      45.125  35.828  84.808  1.00 28.02 LIG 0.01  A 
ATOM      5  CE1 PHE B 724      45.693  34.665  85.418  1.00 28.62 LIG 0.00  A 
ATOM      6  CZ  PHE B 724      46.031  34.669  86.833  1.00 35.24 LIG 0.00  A 
ATOM      7  CE2 PHE B 724      45.776  35.864  87.587  1.00 37.40 LIG 0.00  A 
ATOM      8  CD2 PHE B 724      45.204  37.003  86.918  1.00 30.54 LIG 0.01  A 
ENDBRANCH 2 3
ENDBRANCH 1 2
BRANCH 1 9
ATOM      9  C   PHE B 724      42.024  37.398  83.791  1.00 25.60 LIG 0.24  C 
ATOM     10 O    PHE B 724      42.650  37.042  82.845  1.00 24.31 LIG-0.27  OA
ATOM     11  N   SER B 725      40.727  37.151  83.910  1.00 25.14 LIG-0.34  N 
ATOM     12 H    SER B 725      40.272  37.312  84.622  1.00 25.14 LIG 0.16  HD
BRANCH 11 13
ATOM     13  CA  SER B 725      39.953  36.575  82.824  1.00 26.01 LIG 0.20  C 
BRANCH 13 14
ATOM     14  C   SER B 725      39.142  37.703  82.133  1.00 25.07 LIG 0.24  C 
ATOM     15  N   PRO B 726      38.394  37.383  81.072  1.00 24.50 LIG-0.34  N 
ATOM     16  CD  PRO B 726      38.355  36.101  80.333  1.00 23.05 LIG 0.13  C 
ATOM     17  CA  PRO B 726      37.537  38.394  80.459  1.00 23.41 LIG 0.19  C 
ATOM     18  CG  PRO B 726      37.363  36.409  79.213  1.00 23.09 LIG 0.02  C 
ATOM     19  CB  PRO B 726      37.304  37.841  79.055  1.00 23.24 LIG 0.04  C 
ATOM     20 O    SER B 725      39.182  38.875  82.574  1.00 24.38 LIG-0.27  OA
BRANCH 17 21
ATOM     21  C   PRO B 726      36.246  38.469  81.274  1.00 26.46 LIG 0.20  C 
ATOM     22 OXT  PRO B 726      36.165  39.278  82.268  1.00 26.95 LIG-0.65  OA
ATOM     23 O    PRO B 726      35.291  37.737  80.937  1.00 25.53 LIG-0.65  OA
ENDBRANCH 17 21
ENDBRANCH 13 14
BRANCH 13 24
ATOM     24  CB  SER B 725      39.053  35.461  83.395  1.00 27.74 LIG 0.20  C 
BRANCH 24 25
ATOM     25 OG   SER B 725      39.083  35.409  84.844  1.00 32.69 LIG-0.40  OA
ATOM     26 HG   SER B 725      38.437  34.951  85.121  1.00 32.69 LIG 0.21  HD
ENDBRANCH 24 25
ENDBRANCH 13 24
ENDBRANCH 11 13
ENDBRANCH 1 9
BRANCH 1 27
ATOM     27  N   PHE B 724      42.276  37.620  86.178  1.00 25.12 LIG-0.34  N 
ATOM     28  C   GLU B 723      42.073  36.319  86.287  1.00 28.42 LIG 0.26  C 
ATOM     29 O    GLU B 723      42.412  35.487  85.444  1.00 26.74 LIG-0.27  OA
ATOM     30 H    PHE B 724      42.170  38.176  86.825  1.00 25.12 LIG 0.16  HD
BRANCH 28 31
ATOM     31  CA  GLU B 723      41.390  35.906  87.575  1.00 29.87 LIG 0.40  C 
ATOM     32  N   GLU B 723      40.398  34.765  87.462  1.00 31.36 LIG 0.61  N 
BRANCH 31 33
ATOM     33  CB  GLU B 723      42.482  35.717  88.592  1.00 32.48 LIG 0.06  C 
BRANCH 33 34
ATOM     34  CG  GLU B 723      42.335  34.327  89.224  1.00 37.12 LIG 0.12  C 
BRANCH 34 35
ATOM     35  CD  GLU B 723      42.942  33.262  88.293  1.00 44.87 LIG 0.17  C 
ATOM     36 OE2  GLU B 723      43.026  33.521  87.040  1.00 46.35 LIG-0.65  OA
ATOM     37 OE1  GLU B 723      43.382  32.186  88.837  1.00 48.21 LIG-0.65  OA
ENDBRANCH 34 35
ENDBRANCH 33 34
ENDBRANCH 31 33
ENDBRANCH 28 31
ENDBRANCH 1 27
TORSDOF 13
ENDMDL
