MODEL 1
USER: ADFR SOLUTION from run 138
USER: SCORE 21.282652 LL:  -5.919 LR: -15.760 RR:   0.000 FEB:  -8.900
USER: RMSD 2.405856
USER: SEED 137
USER: STATUS no improvement in best in 4 clusters for 5 generations
USER: GENES 25
USER: genes 0 Translation |==|  0.51968 0.56477 0.48548
USER: genes 1 Rotation |==|  0.50986 0.49611 0.50052 0.99989
USER: genes 2 Torsion [C]-CA--N-[C] |==|  0.80592
USER: genes 3 Torsion [N]-C--CA-[N] |==|  0.22062
USER: genes 4 Torsion [C]-CA--N-[C] |==|  0.76648
USER: genes 5 Torsion [N]-C--CA-[N] |==|  0.13076
USER: genes 6 Torsion [C]-CA--CB-[CG] |==|  0.73374
USER: genes 7 Torsion [CA]-CB--CG-[ND2] |==|  0.30591
USER: genes 8 Torsion [C]-CA--CB-[CG] |==|  0.69857
USER: genes 9 Torsion [CA]-CB--CG-[CD] |==|  0.78122
USER: genes 10 Torsion [CB]-CG--CD-[OE1] |==|  0.74761
USER: genes 11 Torsion [N]-CA--CB-[CG] |==|  0.78414
USER: genes 12 Torsion [CA]-CB--CG-[CD1] |==|  0.67221
USER: genes 13 Torsion [CE2]-CZ--OH-[HH] |==|  0.73597
USER: genes 14 Torsion [N]-CA--C-[N] |==|  0.40417
USER: genes 15 Torsion [C]-N--CA-[C] |==|  0.67272
USER: genes 16 Torsion [N]-CA--CB-[CG] |==|  0.51872
USER: genes 17 Torsion [CA]-CB--CG-[CD] |==|  0.77520
USER: genes 18 Torsion [CB]-CG--CD-[CE] |==|  0.34022
USER: genes 19 Torsion [CG]-CD--CE-[NZ] |==|  0.94309
USER: genes 20 Torsion [CD]-CE--NZ-[HZ3] |==|  0.59279
USER: genes 21 Torsion [N]-CA--C-[N] |==|  0.36035
USER: genes 22 Torsion [C]-N--CA-[C] |==|  0.59636
USER: genes 23 Torsion [N]-CA--C-[O] |==|  0.95683
USER: genes 24 Torsion [N]-CA--CB-[CG2] |==|  0.09169
ROOT
ATOM      1  CA  TYR S   4       8.767 -17.740  40.856  1.00 28.42 LIG 0.18  C 
ENDROOT
BRANCH 1 2
ATOM      2  N   TYR S   4       8.298 -17.351  39.539  1.00 30.10 LIG-0.35  N 
ATOM      3 H    TYR S   4       8.686 -16.649  39.228  1.00 30.10 LIG 0.16  HD
ATOM      4  C   GLU S   3       7.361 -18.012  38.874  1.00 31.33 LIG 0.24  C 
ATOM      5 O    GLU S   3       6.750 -18.979  39.341  1.00 31.71 LIG-0.27  OA
BRANCH 4 6
ATOM      6  CA  GLU S   3       7.081 -17.509  37.471  1.00 32.63 LIG 0.18  C 
BRANCH 6 7
ATOM      7  N   GLU S   3       8.115 -18.012  36.551  1.00 32.63 LIG-0.35  N 
ATOM      8  C   ASN S   2       9.264 -17.380  36.425  1.00 33.77 LIG 0.26  C 
ATOM      9 O    ASN S   2       9.481 -16.296  36.944  1.00 34.52 LIG-0.27  OA
ATOM     10 H    GLU S   3       7.902 -18.728  36.124  1.00 32.63 LIG 0.16  HD
BRANCH 8 11
ATOM     11  CA  ASN S   2      10.345 -18.087  35.598  1.00 34.66 LIG 0.41  C 
ATOM     12  N   ASN S   2       9.795 -18.608  34.303  1.00 35.02 LIG 0.61  N 
BRANCH 11 13
ATOM     13  CB  ASN S   2      11.500 -17.093  35.372  1.00 35.18 LIG 0.15  C 
BRANCH 13 14
ATOM     14  CG  ASN S   2      11.407 -16.363  34.030  1.00 37.91 LIG 0.22  C 
ATOM     15 OD1  ASN S   2      11.585 -16.967  32.970  1.00 41.54 LIG-0.27  OA
ATOM     16  ND2 ASN S   2      11.112 -15.059  34.079  1.00 40.23 LIG-0.37  N 
ATOM     17 22HD ASN S   2      10.996 -14.673  34.838  1.00 40.23 LIG 0.16  HD
ATOM     18 21HD ASN S   2      11.039 -14.607  33.351  1.00 40.23 LIG 0.16  HD
ENDBRANCH 13 14
ENDBRANCH 11 13
ENDBRANCH 8 11
ENDBRANCH 6 7
BRANCH 6 19
ATOM     19  CB  GLU S   3       5.684 -17.903  37.003  1.00 32.72 LIG 0.04  C 
BRANCH 19 20
ATOM     20  CG  GLU S   3       5.605 -18.981  35.926  1.00 35.99 LIG 0.12  C 
BRANCH 20 21
ATOM     21  CD  GLU S   3       5.900 -18.455  34.522  1.00 39.18 LIG 0.17  C 
ATOM     22 OE1  GLU S   3       4.930 -18.050  33.843  1.00 41.46 LIG-0.65  OA
ATOM     23 OE2  GLU S   3       7.094 -18.434  34.095  1.00 41.34 LIG-0.65  OA
ENDBRANCH 20 21
ENDBRANCH 19 20
ENDBRANCH 6 19
ENDBRANCH 4 6
ENDBRANCH 1 2
BRANCH 1 24
ATOM     24  CB  TYR S   4      10.026 -16.957  41.177  1.00 28.42 LIG 0.07  C 
BRANCH 24 25
ATOM     25  CG  TYR S   4      11.243 -17.497  40.485  1.00 29.89 LIG-0.06  A 
ATOM     26  CD2 TYR S   4      11.330 -17.535  39.085  1.00 30.34 LIG 0.01  A 
ATOM     27  CE2 TYR S   4      12.481 -18.062  38.459  1.00 32.01 LIG 0.04  A 
ATOM     28  CZ  TYR S   4      13.526 -18.533  39.246  1.00 31.83 LIG 0.07  A 
ATOM     29  CE1 TYR S   4      13.436 -18.500  40.609  1.00 31.31 LIG 0.04  A 
ATOM     30  CD1 TYR S   4      12.309 -17.984  41.220  1.00 30.54 LIG 0.01  A 
BRANCH 28 31
ATOM     31 OH   TYR S   4      14.667 -19.095  38.704  1.00 36.86 LIG-0.36  OA
ATOM     32 HH   TYR S   4      14.585 -19.931  38.683  1.00 36.86 LIG 0.22  HD
ENDBRANCH 28 31
ENDBRANCH 24 25
ENDBRANCH 1 24
BRANCH 1 33
ATOM     33  C   TYR S   4       7.658 -17.477  41.863  1.00 27.93 LIG 0.24  C 
ATOM     34  N   LYS S   5       7.570 -18.334  42.870  1.00 28.19 LIG-0.35  N 
ATOM     35 H    LYS S   5       8.098 -19.007  42.960  1.00 28.19 LIG 0.16  HD
ATOM     36 O    TYR S   4       6.854 -16.563  41.688  1.00 25.57 LIG-0.27  OA
BRANCH 34 37
ATOM     37  CA  LYS S   5       6.573 -18.231  43.932  1.00 28.81 LIG 0.18  C 
BRANCH 37 38
ATOM     38  CB  LYS S   5       5.695 -19.492  43.979  1.00 29.54 LIG 0.04  C 
BRANCH 38 39
ATOM     39  CG  LYS S   5       4.503 -19.436  44.951  1.00 33.24 LIG 0.00  C 
BRANCH 39 40
ATOM     40  CD  LYS S   5       4.910 -19.728  46.386  1.00 37.34 LIG 0.03  C 
BRANCH 40 41
ATOM     41  CE  LYS S   5       4.524 -18.557  47.296  1.00 39.48 LIG 0.23  C 
BRANCH 41 42
ATOM     42  NZ  LYS S   5       4.328 -17.309  46.514  1.00 41.40 LIG-0.08  N 
ATOM     43 HZ2  LYS S   5       3.469 -17.224  46.300  1.00 41.40 LIG 0.27  HD
ATOM     44 HZ1  LYS S   5       4.817 -17.345  45.770  1.00 41.40 LIG 0.27  HD
ATOM     45 HZ3  LYS S   5       4.582 -16.609  47.002  1.00 41.40 LIG 0.27  HD
ENDBRANCH 41 42
ENDBRANCH 40 41
ENDBRANCH 39 40
ENDBRANCH 38 39
ENDBRANCH 37 38
BRANCH 37 46
ATOM     46  C   LYS S   5       7.324 -18.031  45.238  1.00 28.43 LIG 0.24  C 
ATOM     47  N   VAL S   6       6.927 -17.027  46.002  1.00 27.37 LIG-0.34  N 
ATOM     48 H    VAL S   6       6.222 -16.560  45.844  1.00 27.37 LIG 0.16  HD
ATOM     49 O    LYS S   5       8.254 -18.761  45.552  1.00 28.58 LIG-0.27  OA
BRANCH 47 50
ATOM     50  CA  VAL S   6       7.648 -16.618  47.184  1.00 26.91 LIG 0.19  C 
BRANCH 50 51
ATOM     51  C   VAL S   6       6.718 -16.122  48.302  1.00 27.47 LIG 0.20  C 
ATOM     52 O    VAL S   6       5.526 -15.814  48.123  1.00 25.37 LIG-0.65  OA
ATOM     53 OXT  VAL S   6       7.230 -16.081  49.421  1.00 29.74 LIG-0.65  OA
ENDBRANCH 50 51
BRANCH 50 54
ATOM     54  CB  VAL S   6       8.709 -15.540  46.851  1.00 26.80 LIG 0.01  C 
ATOM     55  CG2 VAL S   6       8.240 -14.629  45.702  1.00 26.48 LIG 0.01  C 
ATOM     56  CG1 VAL S   6      10.041 -16.184  46.498  1.00 26.60 LIG 0.01  C 
ENDBRANCH 50 54
ENDBRANCH 47 50
ENDBRANCH 37 46
ENDBRANCH 34 37
ENDBRANCH 1 33
TORSDOF 23
ENDMDL
MODEL 2
USER: ADFR SOLUTION from run 11
USER: SCORE 20.935178 LL:  -6.572 LR: -14.754 RR:   0.000 FEB:  -7.893
USER: RMSD 3.236956
USER: SEED 536949
USER: STATUS no improvement in best in 4 clusters for 5 generations
USER: GENES 25
USER: genes 0 Translation |==|  0.51200 0.53836 0.48791
USER: genes 1 Rotation |==|  0.53368 0.48916 0.45792 0.99697
USER: genes 2 Torsion [C]-CA--N-[C] |==|  0.79508
USER: genes 3 Torsion [N]-C--CA-[N] |==|  0.21755
USER: genes 4 Torsion [C]-CA--N-[C] |==|  0.76667
USER: genes 5 Torsion [N]-C--CA-[N] |==|  0.09841
USER: genes 6 Torsion [C]-CA--CB-[CG] |==|  0.72891
USER: genes 7 Torsion [CA]-CB--CG-[ND2] |==|  0.30697
USER: genes 8 Torsion [C]-CA--CB-[CG] |==|  0.74066
USER: genes 9 Torsion [CA]-CB--CG-[CD] |==|  0.76117
USER: genes 10 Torsion [CB]-CG--CD-[OE1] |==|  0.72705
USER: genes 11 Torsion [N]-CA--CB-[CG] |==|  0.46821
USER: genes 12 Torsion [CA]-CB--CG-[CD1] |==|  0.22626
USER: genes 13 Torsion [CE2]-CZ--OH-[HH] |==|  0.11724
USER: genes 14 Torsion [N]-CA--C-[N] |==|  0.41744
USER: genes 15 Torsion [C]-N--CA-[C] |==|  0.69692
USER: genes 16 Torsion [N]-CA--CB-[CG] |==|  0.53574
USER: genes 17 Torsion [CA]-CB--CG-[CD] |==|  0.76941
USER: genes 18 Torsion [CB]-CG--CD-[CE] |==|  0.36086
USER: genes 19 Torsion [CG]-CD--CE-[NZ] |==|  0.89677
USER: genes 20 Torsion [CD]-CE--NZ-[HZ3] |==|  0.35078
USER: genes 21 Torsion [N]-CA--C-[N] |==|  0.34560
USER: genes 22 Torsion [C]-N--CA-[C] |==|  0.64727
USER: genes 23 Torsion [N]-CA--C-[O] |==|  0.93460
USER: genes 24 Torsion [N]-CA--CB-[CG2] |==|  0.37853
ROOT
ATOM      1  CA  TYR S   4       8.606 -18.176  40.914  1.00 28.42 LIG 0.18  C 
ENDROOT
BRANCH 1 2
ATOM      2  N   TYR S   4       8.252 -17.590  39.634  1.00 30.10 LIG-0.35  N 
ATOM      3 H    TYR S   4       8.728 -16.905  39.425  1.00 30.10 LIG 0.16  HD
ATOM      4  C   GLU S   3       7.287 -18.063  38.858  1.00 31.33 LIG 0.24  C 
ATOM      5 O    GLU S   3       6.553 -19.002  39.182  1.00 31.71 LIG-0.27  OA
BRANCH 4 6
ATOM      6  CA  GLU S   3       7.138 -17.376  37.514  1.00 32.63 LIG 0.18  C 
BRANCH 6 7
ATOM      7  N   GLU S   3       8.177 -17.865  36.593  1.00 32.63 LIG-0.35  N 
ATOM      8  C   ASN S   2       9.384 -17.335  36.602  1.00 33.77 LIG 0.26  C 
ATOM      9 O    ASN S   2       9.663 -16.344  37.259  1.00 34.52 LIG-0.27  OA
ATOM     10 H    GLU S   3       7.928 -18.502  36.071  1.00 32.63 LIG 0.16  HD
BRANCH 8 11
ATOM     11  CA  ASN S   2      10.445 -18.040  35.749  1.00 34.66 LIG 0.41  C 
ATOM     12  N   ASN S   2       9.856 -18.599  34.488  1.00 35.02 LIG 0.61  N 
BRANCH 11 13
ATOM     13  CB  ASN S   2      11.572 -17.030  35.458  1.00 35.18 LIG 0.15  C 
BRANCH 13 14
ATOM     14  CG  ASN S   2      11.437 -16.362  34.087  1.00 37.91 LIG 0.22  C 
ATOM     15 OD1  ASN S   2      11.604 -17.011  33.051  1.00 41.54 LIG-0.27  OA
ATOM     16  ND2 ASN S   2      11.119 -15.063  34.084  1.00 40.23 LIG-0.37  N 
ATOM     17 22HD ASN S   2      11.012 -14.646  34.828  1.00 40.23 LIG 0.16  HD
ATOM     18 21HD ASN S   2      11.022 -14.646  33.339  1.00 40.23 LIG 0.16  HD
ENDBRANCH 13 14
ENDBRANCH 11 13
ENDBRANCH 8 11
ENDBRANCH 6 7
BRANCH 6 19
ATOM     19  CB  GLU S   3       5.742 -17.579  36.934  1.00 32.72 LIG 0.04  C 
BRANCH 19 20
ATOM     20  CG  GLU S   3       5.565 -18.760  35.983  1.00 35.99 LIG 0.12  C 
BRANCH 20 21
ATOM     21  CD  GLU S   3       5.921 -18.428  34.535  1.00 39.18 LIG 0.17  C 
ATOM     22 OE1  GLU S   3       4.979 -18.147  33.760  1.00 41.46 LIG-0.65  OA
ATOM     23 OE2  GLU S   3       7.135 -18.437  34.167  1.00 41.34 LIG-0.65  OA
ENDBRANCH 20 21
ENDBRANCH 19 20
ENDBRANCH 6 19
ENDBRANCH 4 6
ENDBRANCH 1 2
BRANCH 1 24
ATOM     24  CB  TYR S   4       9.967 -17.653  41.331  1.00 28.42 LIG 0.07  C 
BRANCH 24 25
ATOM     25  CG  TYR S   4      10.307 -17.978  42.756  1.00 29.89 LIG-0.06  A 
ATOM     26  CD2 TYR S   4      10.144 -17.031  43.779  1.00 30.34 LIG 0.01  A 
ATOM     27  CE2 TYR S   4      10.486 -17.358  45.110  1.00 32.01 LIG 0.04  A 
ATOM     28  CZ  TYR S   4      10.978 -18.628  45.393  1.00 31.83 LIG 0.07  A 
ATOM     29  CE1 TYR S   4      11.141 -19.545  44.393  1.00 31.31 LIG 0.04  A 
ATOM     30  CD1 TYR S   4      10.806 -19.224  43.091  1.00 30.54 LIG 0.01  A 
BRANCH 28 31
ATOM     31 OH   TYR S   4      11.367 -19.006  46.664  1.00 36.86 LIG-0.36  OA
ATOM     32 HH   TYR S   4      10.811 -18.719  47.225  1.00 36.86 LIG 0.22  HD
ENDBRANCH 28 31
ENDBRANCH 24 25
ENDBRANCH 1 24
BRANCH 1 33
ATOM     33  C   TYR S   4       7.525 -17.824  41.924  1.00 27.93 LIG 0.24  C 
ATOM     34  N   LYS S   5       7.329 -18.701  42.898  1.00 28.19 LIG-0.35  N 
ATOM     35 H    LYS S   5       7.776 -19.433  42.966  1.00 28.19 LIG 0.16  HD
ATOM     36 O    TYR S   4       6.833 -16.817  41.779  1.00 25.57 LIG-0.27  OA
BRANCH 34 37
ATOM     37  CA  LYS S   5       6.340 -18.522  43.958  1.00 28.81 LIG 0.18  C 
BRANCH 37 38
ATOM     38  CB  LYS S   5       5.457 -19.773  44.095  1.00 29.54 LIG 0.04  C 
BRANCH 38 39
ATOM     39  CG  LYS S   5       4.191 -19.602  44.953  1.00 33.24 LIG 0.00  C 
BRANCH 39 40
ATOM     40  CD  LYS S   5       4.472 -19.756  46.439  1.00 37.34 LIG 0.03  C 
BRANCH 40 41
ATOM     41  CE  LYS S   5       3.876 -18.579  47.217  1.00 39.48 LIG 0.23  C 
BRANCH 41 42
ATOM     42  NZ  LYS S   5       4.006 -17.309  46.456  1.00 41.40 LIG-0.08  N 
ATOM     43 HZ2  LYS S   5       4.326 -17.481  45.644  1.00 41.40 LIG 0.27  HD
ATOM     44 HZ1  LYS S   5       4.562 -16.762  46.884  1.00 41.40 LIG 0.27  HD
ATOM     45 HZ3  LYS S   5       3.207 -16.923  46.383  1.00 41.40 LIG 0.27  HD
ENDBRANCH 41 42
ENDBRANCH 40 41
ENDBRANCH 39 40
ENDBRANCH 38 39
ENDBRANCH 37 38
BRANCH 37 46
ATOM     46  C   LYS S   5       7.101 -18.239  45.242  1.00 28.43 LIG 0.24  C 
ATOM     47  N   VAL S   6       6.788 -17.126  45.884  1.00 27.37 LIG-0.34  N 
ATOM     48 H    VAL S   6       6.125 -16.624  45.666  1.00 27.37 LIG 0.16  HD
ATOM     49 O    LYS S   5       7.966 -19.005  45.647  1.00 28.58 LIG-0.27  OA
BRANCH 47 50
ATOM     50  CA  VAL S   6       7.538 -16.648  47.021  1.00 26.91 LIG 0.19  C 
BRANCH 50 51
ATOM     51  C   VAL S   6       6.647 -16.370  48.242  1.00 27.47 LIG 0.20  C 
ATOM     52 O    VAL S   6       5.429 -16.124  48.167  1.00 25.37 LIG-0.65  OA
ATOM     53 OXT  VAL S   6       7.221 -16.440  49.329  1.00 29.74 LIG-0.65  OA
ENDBRANCH 50 51
BRANCH 50 54
ATOM     54  CB  VAL S   6       8.363 -15.389  46.662  1.00 26.80 LIG 0.01  C 
ATOM     55  CG2 VAL S   6       8.261 -14.318  47.763  1.00 26.48 LIG 0.01  C 
ATOM     56  CG1 VAL S   6       7.915 -14.811  45.327  1.00 26.60 LIG 0.01  C 
ENDBRANCH 50 54
ENDBRANCH 47 50
ENDBRANCH 37 46
ENDBRANCH 34 37
ENDBRANCH 1 33
TORSDOF 23
ENDMDL
MODEL 3
USER: ADFR SOLUTION from run 98
USER: SCORE 18.423655 LL:  -4.811 LR: -14.085 RR:   0.000 FEB:  -7.224
USER: RMSD 2.849635
USER: SEED 97
USER: STATUS 1 or 2 clusters left
USER: GENES 25
USER: genes 0 Translation |==|  0.51080 0.56316 0.49248
USER: genes 1 Rotation |==|  0.51755 0.51382 0.50879 0.99942
USER: genes 2 Torsion [C]-CA--N-[C] |==|  0.64257
USER: genes 3 Torsion [N]-C--CA-[N] |==|  0.33779
USER: genes 4 Torsion [C]-CA--N-[C] |==|  0.83796
USER: genes 5 Torsion [N]-C--CA-[N] |==|  0.30728
USER: genes 6 Torsion [C]-CA--CB-[CG] |==|  0.55588
USER: genes 7 Torsion [CA]-CB--CG-[ND2] |==|  0.21295
USER: genes 8 Torsion [C]-CA--CB-[CG] |==|  0.73374
USER: genes 9 Torsion [CA]-CB--CG-[CD] |==|  0.77312
USER: genes 10 Torsion [CB]-CG--CD-[OE1] |==|  0.26403
USER: genes 11 Torsion [N]-CA--CB-[CG] |==|  0.72748
USER: genes 12 Torsion [CA]-CB--CG-[CD1] |==|  0.72755
USER: genes 13 Torsion [CE2]-CZ--OH-[HH] |==|  0.40884
USER: genes 14 Torsion [N]-CA--C-[N] |==|  0.36916
USER: genes 15 Torsion [C]-N--CA-[C] |==|  0.71883
USER: genes 16 Torsion [N]-CA--CB-[CG] |==|  0.91969
USER: genes 17 Torsion [CA]-CB--CG-[CD] |==|  0.23825
USER: genes 18 Torsion [CB]-CG--CD-[CE] |==|  0.64072
USER: genes 19 Torsion [CG]-CD--CE-[NZ] |==|  0.99641
USER: genes 20 Torsion [CD]-CE--NZ-[HZ3] |==|  0.16917
USER: genes 21 Torsion [N]-CA--C-[N] |==|  0.34690
USER: genes 22 Torsion [C]-N--CA-[C] |==|  0.60921
USER: genes 23 Torsion [N]-CA--C-[O] |==|  0.96236
USER: genes 24 Torsion [N]-CA--CB-[CG2] |==|  0.10547
ROOT
ATOM      1  CA  TYR S   4       8.581 -17.767  41.024  1.00 28.42 LIG 0.18  C 
ENDROOT
BRANCH 1 2
ATOM      2  N   TYR S   4       8.007 -17.357  39.755  1.00 30.10 LIG-0.35  N 
ATOM      3 H    TYR S   4       7.653 -16.574  39.775  1.00 30.10 LIG 0.16  HD
ATOM      4  C   GLU S   3       8.025 -18.114  38.668  1.00 31.33 LIG 0.24  C 
ATOM      5 O    GLU S   3       8.469 -19.267  38.650  1.00 31.71 LIG-0.27  OA
BRANCH 4 6
ATOM      6  CA  GLU S   3       7.466 -17.468  37.415  1.00 32.63 LIG 0.18  C 
BRANCH 6 7
ATOM      7  N   GLU S   3       8.497 -17.454  36.365  1.00 32.63 LIG-0.35  N 
ATOM      8  C   ASN S   2       9.652 -16.852  36.568  1.00 33.77 LIG 0.26  C 
ATOM      9 O    ASN S   2       9.876 -16.171  37.557  1.00 34.52 LIG-0.27  OA
ATOM     10 H    GLU S   3       8.280 -17.860  35.638  1.00 32.63 LIG 0.16  HD
BRANCH 8 11
ATOM     11  CA  ASN S   2      10.729 -17.061  35.496  1.00 34.66 LIG 0.41  C 
ATOM     12  N   ASN S   2      10.990 -15.802  34.724  1.00 35.02 LIG 0.61  N 
BRANCH 11 13
ATOM     13  CB  ASN S   2      12.001 -17.581  36.192  1.00 35.18 LIG 0.15  C 
BRANCH 13 14
ATOM     14  CG  ASN S   2      13.268 -17.372  35.359  1.00 37.91 LIG 0.22  C 
ATOM     15 OD1  ASN S   2      13.778 -18.310  34.741  1.00 41.54 LIG-0.27  OA
ATOM     16  ND2 ASN S   2      13.766 -16.131  35.331  1.00 40.23 LIG-0.37  N 
ATOM     17 22HD ASN S   2      13.381 -15.504  35.776  1.00 40.23 LIG 0.16  HD
ATOM     18 21HD ASN S   2      14.470 -15.961  34.868  1.00 40.23 LIG 0.16  HD
ENDBRANCH 13 14
ENDBRANCH 11 13
ENDBRANCH 8 11
ENDBRANCH 6 7
BRANCH 6 19
ATOM     19  CB  GLU S   3       6.199 -18.172  36.939  1.00 32.72 LIG 0.04  C 
BRANCH 19 20
ATOM     20  CG  GLU S   3       6.376 -19.231  35.854  1.00 35.99 LIG 0.12  C 
BRANCH 20 21
ATOM     21  CD  GLU S   3       6.473 -18.644  34.447  1.00 39.18 LIG 0.17  C 
ATOM     22 OE1  GLU S   3       7.618 -18.438  33.986  1.00 41.46 LIG-0.65  OA
ATOM     23 OE2  GLU S   3       5.414 -18.395  33.794  1.00 41.34 LIG-0.65  OA
ENDBRANCH 20 21
ENDBRANCH 19 20
ENDBRANCH 6 19
ENDBRANCH 4 6
ENDBRANCH 1 2
BRANCH 1 24
ATOM     24  CB  TYR S   4       9.832 -16.949  41.281  1.00 28.42 LIG 0.07  C 
BRANCH 24 25
ATOM     25  CG  TYR S   4      11.092 -17.672  40.905  1.00 29.89 LIG-0.06  A 
ATOM     26  CD2 TYR S   4      11.537 -17.718  39.574  1.00 30.34 LIG 0.01  A 
ATOM     27  CE2 TYR S   4      12.718 -18.418  39.244  1.00 32.01 LIG 0.04  A 
ATOM     28  CZ  TYR S   4      13.435 -19.054  40.252  1.00 31.83 LIG 0.07  A 
ATOM     29  CE1 TYR S   4      12.995 -19.013  41.545  1.00 31.31 LIG 0.04  A 
ATOM     30  CD1 TYR S   4      11.839 -18.327  41.867  1.00 30.54 LIG 0.01  A 
BRANCH 28 31
ATOM     31 OH   TYR S   4      14.578 -19.788  39.999  1.00 36.86 LIG-0.36  OA
ATOM     32 HH   TYR S   4      15.106 -19.720  40.650  1.00 36.86 LIG 0.22  HD
ENDBRANCH 28 31
ENDBRANCH 24 25
ENDBRANCH 1 24
BRANCH 1 33
ATOM     33  C   TYR S   4       7.537 -17.573  42.113  1.00 27.93 LIG 0.24  C 
ATOM     34  N   LYS S   5       7.374 -18.588  42.950  1.00 28.19 LIG-0.35  N 
ATOM     35 H    LYS S   5       7.820 -19.321  42.891  1.00 28.19 LIG 0.16  HD
ATOM     36 O    TYR S   4       6.845 -16.558  42.146  1.00 25.57 LIG-0.27  OA
BRANCH 34 37
ATOM     37  CA  LYS S   5       6.423 -18.573  44.059  1.00 28.81 LIG 0.18  C 
BRANCH 37 38
ATOM     38  CB  LYS S   5       5.678 -19.914  44.155  1.00 29.54 LIG 0.04  C 
BRANCH 38 39
ATOM     39  CG  LYS S   5       5.501 -20.673  42.828  1.00 33.24 LIG 0.00  C 
BRANCH 39 40
ATOM     40  CD  LYS S   5       6.702 -21.544  42.495  1.00 37.34 LIG 0.03  C 
BRANCH 40 41
ATOM     41  CE  LYS S   5       7.176 -21.270  41.064  1.00 39.48 LIG 0.23  C 
BRANCH 41 42
ATOM     42  NZ  LYS S   5       6.317 -20.259  40.396  1.00 41.40 LIG-0.08  N 
ATOM     43 HZ2  LYS S   5       5.476 -20.549  40.376  1.00 41.40 LIG 0.27  HD
ATOM     44 HZ1  LYS S   5       6.604 -20.128  39.564  1.00 41.40 LIG 0.27  HD
ATOM     45 HZ3  LYS S   5       6.354 -19.492  40.847  1.00 41.40 LIG 0.27  HD
ENDBRANCH 41 42
ENDBRANCH 40 41
ENDBRANCH 39 40
ENDBRANCH 38 39
ENDBRANCH 37 38
BRANCH 37 46
ATOM     46  C   LYS S   5       7.213 -18.288  45.326  1.00 28.43 LIG 0.24  C 
ATOM     47  N   VAL S   6       6.815 -17.257  46.053  1.00 27.37 LIG-0.34  N 
ATOM     48 H    VAL S   6       6.092 -16.818  45.898  1.00 27.37 LIG 0.16  HD
ATOM     49 O    LYS S   5       8.174 -18.977  45.642  1.00 28.58 LIG-0.27  OA
BRANCH 47 50
ATOM     50  CA  VAL S   6       7.565 -16.771  47.187  1.00 26.91 LIG 0.19  C 
BRANCH 50 51
ATOM     51  C   VAL S   6       6.663 -16.349  48.356  1.00 27.47 LIG 0.20  C 
ATOM     52 O    VAL S   6       5.432 -16.187  48.256  1.00 25.37 LIG-0.65  OA
ATOM     53 OXT  VAL S   6       7.241 -16.211  49.434  1.00 29.74 LIG-0.65  OA
ENDBRANCH 50 51
BRANCH 50 54
ATOM     54  CB  VAL S   6       8.501 -15.604  46.784  1.00 26.80 LIG 0.01  C 
ATOM     55  CG2 VAL S   6       7.832 -14.682  45.748  1.00 26.48 LIG 0.01  C 
ATOM     56  CG1 VAL S   6       9.820 -16.133  46.239  1.00 26.60 LIG 0.01  C 
ENDBRANCH 50 54
ENDBRANCH 47 50
ENDBRANCH 37 46
ENDBRANCH 34 37
ENDBRANCH 1 33
TORSDOF 23
ENDMDL
