MODEL 1
USER: ADFR SOLUTION from run 160
USER: SCORE 16.102182 LL:  -4.246 LR: -13.384 RR:   0.000 FEB:  -7.119
USER: RMSD 4.030519
USER: SEED 159
USER: STATUS no improvement in best in 6 clusters for 5 generations
USER: GENES 23
USER: genes 0 Translation |==|  0.45561 0.51735 0.71638
USER: genes 1 Rotation |==|  0.37459 0.48072 0.42223 0.97734
USER: genes 2 Torsion [C]-CA--N-[C] |==|  0.76597
USER: genes 3 Torsion [N]-C--CA-[CB] |==|  0.58013
USER: genes 4 Torsion [N]-C--CA-[N] |==|  0.44964
USER: genes 5 Torsion [C]-CA--N-[C] |==|  0.79930
USER: genes 6 Torsion [N]-C--CA-[N] |==|  0.47672
USER: genes 7 Torsion [C]-CA--CB-[OG] |==|  0.14831
USER: genes 8 Torsion [CA]-CB--OG-[HG] |==|  0.79419
USER: genes 9 Torsion [C]-CA--CB-[CG] |==|  0.42701
USER: genes 10 Torsion [CA]-CB--CG-[CD2] |==|  0.36776
USER: genes 11 Torsion [N]-CA--CB-[CG] |==|  0.32765
USER: genes 12 Torsion [CA]-CB--CG-[CD] |==|  0.58121
USER: genes 13 Torsion [CB]-CG--CD-[NE2] |==|  0.53373
USER: genes 14 Torsion [N]-CA--C-[N] |==|  0.94403
USER: genes 15 Torsion [C]-N--CA-[CB] |==|  0.29109
USER: genes 16 Torsion [N]-CA--C-[N] |==|  0.26111
USER: genes 17 Torsion [C]-N--CA-[C] |==|  0.46285
USER: genes 18 Torsion [N]-CA--C-[O] |==|  0.11656
USER: genes 19 Torsion [N]-CA--CB-[CG2] |==|  0.16553
USER: genes 20 Torsion [CA]-CB--OG1-[HG1] |==|  0.87168
USER: genes 21 Torsion [N]-CA--CB-[CG] |==|  0.79009
USER: genes 22 Torsion [CA]-CB--CG-[OD1] |==|  0.39830
ROOT
ATOM      1  CA  GLN M   5      34.705  14.136  -5.881  1.00 40.28 LIG 0.18  C 
ENDROOT
BRANCH 1 2
ATOM      2  N   GLN M   5      34.420  14.230  -7.292  1.00 45.46 LIG-0.35  N 
ATOM      3 H    GLN M   5      33.858  13.655  -7.598  1.00 45.46 LIG 0.16  HD
ATOM      4  C   PRO M   4      35.032  15.178  -8.015  1.00 50.59 LIG 0.24  C 
ATOM      5 O    PRO M   4      35.766  16.010  -7.458  1.00 50.33 LIG-0.27  OA
BRANCH 4 6
ATOM      6  CA  PRO M   4      34.798  15.253  -9.521  1.00 53.72 LIG 0.18  C 
ATOM      7  N   PRO M   4      33.664  16.055  -9.987  1.00 55.45 LIG-0.34  N 
ATOM      8  CD  PRO M   4      34.133  17.042 -10.968  1.00 56.03 LIG 0.13  C 
ATOM      9  C   HIS M   3      32.370  15.774  -9.716  1.00 54.96 LIG 0.24  C 
ATOM     10  CG  PRO M   4      35.567  17.258 -10.557  1.00 55.72 LIG 0.02  C 
ATOM     11  CB  PRO M   4      35.987  15.835 -10.281  1.00 52.77 LIG 0.04  C 
ATOM     12 O    HIS M   3      32.040  14.748  -9.101  1.00 54.31 LIG-0.27  OA
BRANCH 9 13
ATOM     13  CA  HIS M   3      31.265  16.735 -10.163  1.00 53.95 LIG 0.18  C 
BRANCH 13 14
ATOM     14  N   HIS M   3      30.014  16.002 -10.136  1.00 55.94 LIG-0.34  N 
ATOM     15  C   SER M   2      29.749  15.071 -11.046  0.19 53.43 LIG 0.26  C 
ATOM     16 O    SER M   2      30.472  14.885 -12.035  0.19 53.78 LIG-0.27  OA
ATOM     17 H    HIS M   3      29.482  16.221  -9.497  1.00 55.94 LIG 0.16  HD
BRANCH 15 18
ATOM     18  CA  SER M   2      28.482  14.238 -10.924  0.19 52.30 LIG 0.42  C 
ATOM     19  N   SER M   2      28.450  13.510 -12.171  0.19 52.36 LIG 0.62  N 
BRANCH 18 20
ATOM     20  CB  SER M   2      28.576  13.211  -9.802  0.19 51.64 LIG 0.21  C 
BRANCH 20 21
ATOM     21 OG   SER M   2      28.941  13.902  -8.604  0.19 50.47 LIG-0.40  OA
ATOM     22 HG   SER M   2      29.752  14.116  -8.640  0.19 50.47 LIG 0.21  HD
ENDBRANCH 20 21
ENDBRANCH 18 20
ENDBRANCH 15 18
ENDBRANCH 13 14
BRANCH 13 23
ATOM     23  CB  HIS M   3      31.217  17.929  -9.218  1.00 50.96 LIG 0.10  C 
BRANCH 23 24
ATOM     24  CG  HIS M   3      30.648  19.137  -9.946  1.00 47.24 LIG 0.06  A 
ATOM     25  CD2 HIS M   3      29.670  19.965  -9.473  1.00 45.19 LIG 0.14  A 
ATOM     26 NE2  HIS M   3      29.481  20.748 -10.494  1.00 45.41 LIG-0.25  NA
ATOM     27  CE1 HIS M   3      30.278  20.421 -11.493  1.00 46.27 LIG 0.23  A 
ATOM     28 ND1  HIS M   3      31.033  19.399 -11.175  1.00 45.18 LIG-0.24  NA
ENDBRANCH 23 24
ENDBRANCH 13 23
ENDBRANCH 9 13
ENDBRANCH 4 6
ENDBRANCH 1 2
BRANCH 1 29
ATOM     29  CB  GLN M   5      33.594  13.459  -5.128  1.00 37.25 LIG 0.04  C 
BRANCH 29 30
ATOM     30  CG  GLN M   5      34.086  12.168  -4.468  1.00 28.05 LIG 0.10  C 
BRANCH 30 31
ATOM     31  CD  GLN M   5      32.976  11.152  -4.338  1.00 28.89 LIG 0.21  C 
ATOM     32  NE2 GLN M   5      33.211  10.094  -3.562  1.00 21.10 LIG-0.37  N 
ATOM     33 22HE GLN M   5      32.598   9.503  -3.445  1.00 21.10 LIG 0.16  HD
ATOM     34 21HE GLN M   5      33.976  10.003  -3.180  1.00 21.10 LIG 0.16  HD
ATOM     35 OE1  GLN M   5      31.894  11.331  -4.911  1.00 23.17 LIG-0.27  OA
ENDBRANCH 30 31
ENDBRANCH 29 30
ENDBRANCH 1 29
BRANCH 1 36
ATOM     36  C   GLN M   5      35.959  13.316  -5.704  1.00 41.58 LIG 0.24  C 
ATOM     37  N   ASN M   6      36.340  12.512  -6.696  1.00 44.37 LIG-0.35  N 
ATOM     38 H    ASN M   6      35.947  12.464  -7.460  1.00 44.37 LIG 0.16  HD
ATOM     39 O    GLN M   5      36.589  13.407  -4.655  1.00 41.62 LIG-0.27  OA
BRANCH 37 40
ATOM     40  CA  ASN M   6      37.488  11.629  -6.544  1.00 43.99 LIG 0.18  C 
BRANCH 40 41
ATOM     41  C   ASN M   6      38.360  11.727  -7.776  1.00 43.58 LIG 0.24  C 
ATOM     42  N   THR M   7      39.350  12.602  -7.679  0.00 42.61 LIG-0.34  N 
ATOM     43 H    THR M   7      39.488  13.073  -6.973  0.00 42.61 LIG 0.16  HD
ATOM     44 O    ASN M   6      38.105  11.037  -8.766  1.00 43.76 LIG-0.27  OA
BRANCH 42 45
ATOM     45  CA  THR M   7      40.298  12.863  -8.729  0.00 41.90 LIG 0.21  C 
BRANCH 45 46
ATOM     46  C   THR M   7      41.057  14.149  -8.372  0.00 41.61 LIG 0.20  C 
ATOM     47 O    THR M   7      41.433  14.350  -7.213  0.00 41.59 LIG-0.65  OA
ATOM     48 OXT  THR M   7      41.276  14.962  -9.263  0.00 41.57 LIG-0.65  OA
ENDBRANCH 45 46
BRANCH 45 49
ATOM     49  CB  THR M   7      39.487  12.976 -10.055  0.00 41.89 LIG 0.15  C 
ATOM     50  CG2 THR M   7      38.434  14.086 -10.053  0.00 41.51 LIG 0.04  C 
BRANCH 49 51
ATOM     51 OG1  THR M   7      40.440  13.208 -11.084  0.00 41.42 LIG-0.39  OA
ATOM     52 HG1  THR M   7      40.980  13.802 -10.838  0.00 41.42 LIG 0.21  HD
ENDBRANCH 49 51
ENDBRANCH 45 49
ENDBRANCH 42 45
ENDBRANCH 40 41
BRANCH 40 53
ATOM     53  CB  ASN M   6      37.025  10.178  -6.339  1.00 43.29 LIG 0.14  C 
BRANCH 53 54
ATOM     54  CG  ASN M   6      36.464   9.814  -4.952  1.00 43.53 LIG 0.22  C 
ATOM     55 OD1  ASN M   6      35.528   9.034  -4.767  1.00 39.33 LIG-0.27  OA
ATOM     56  ND2 ASN M   6      36.961  10.383  -3.864  1.00 45.48 LIG-0.37  N 
ATOM     57 22HD ASN M   6      37.616  10.938  -3.929  1.00 45.48 LIG 0.16  HD
ATOM     58 21HD ASN M   6      36.629  10.199  -3.092  1.00 45.48 LIG 0.16  HD
ENDBRANCH 53 54
ENDBRANCH 40 53
ENDBRANCH 37 40
ENDBRANCH 1 36
TORSDOF 21
ENDMDL
MODEL 2
USER: ADFR SOLUTION from run 61
USER: SCORE 17.089477 LL:  -4.756 LR: -13.109 RR:   0.000 FEB:  -6.845
USER: RMSD 2.473603
USER: SEED 60
USER: STATUS no improvement in best in 2 clusters for 5 generations
USER: GENES 23
USER: genes 0 Translation |==|  0.43800 0.49587 0.69004
USER: genes 1 Rotation |==|  0.45675 0.54217 0.37736 0.98095
USER: genes 2 Torsion [C]-CA--N-[C] |==|  0.73600
USER: genes 3 Torsion [N]-C--CA-[CB] |==|  0.34122
USER: genes 4 Torsion [N]-C--CA-[N] |==|  0.36327
USER: genes 5 Torsion [C]-CA--N-[C] |==|  0.61236
USER: genes 6 Torsion [N]-C--CA-[N] |==|  0.83463
USER: genes 7 Torsion [C]-CA--CB-[OG] |==|  0.25375
USER: genes 8 Torsion [CA]-CB--OG-[HG] |==|  0.94471
USER: genes 9 Torsion [C]-CA--CB-[CG] |==|  0.20676
USER: genes 10 Torsion [CA]-CB--CG-[CD2] |==|  0.20441
USER: genes 11 Torsion [N]-CA--CB-[CG] |==|  0.50149
USER: genes 12 Torsion [CA]-CB--CG-[CD] |==|  0.56834
USER: genes 13 Torsion [CB]-CG--CD-[NE2] |==|  0.47258
USER: genes 14 Torsion [N]-CA--C-[N] |==|  0.39616
USER: genes 15 Torsion [C]-N--CA-[CB] |==|  0.80000
USER: genes 16 Torsion [N]-CA--C-[N] |==|  0.20874
USER: genes 17 Torsion [C]-N--CA-[C] |==|  0.56564
USER: genes 18 Torsion [N]-CA--C-[O] |==|  0.04668
USER: genes 19 Torsion [N]-CA--CB-[CG2] |==|  0.71453
USER: genes 20 Torsion [CA]-CB--OG1-[HG1] |==|  0.73939
USER: genes 21 Torsion [N]-CA--CB-[CG] |==|  0.91323
USER: genes 22 Torsion [CA]-CB--CG-[OD1] |==|  0.29735
ROOT
ATOM      1  CA  GLN M   5      34.322  13.766  -6.454  1.00 40.28 LIG 0.18  C 
ENDROOT
BRANCH 1 2
ATOM      2  N   GLN M   5      33.933  14.424  -7.677  1.00 45.46 LIG-0.35  N 
ATOM      3 H    GLN M   5      33.315  14.034  -8.131  1.00 45.46 LIG 0.16  HD
ATOM      4  C   PRO M   4      34.542  15.568  -8.018  1.00 50.59 LIG 0.24  C 
ATOM      5 O    PRO M   4      35.367  16.089  -7.250  1.00 50.33 LIG-0.27  OA
BRANCH 4 6
ATOM      6  CA  PRO M   4      34.196  16.247  -9.341  1.00 53.72 LIG 0.18  C 
ATOM      7  N   PRO M   4      33.156  15.625 -10.165  1.00 55.45 LIG-0.34  N 
ATOM      8  CD  PRO M   4      32.120  16.617 -10.475  1.00 56.03 LIG 0.13  C 
ATOM      9  C   HIS M   3      33.259  14.399 -10.724  1.00 54.96 LIG 0.24  C 
ATOM     10  CG  PRO M   4      32.208  17.562  -9.304  1.00 55.72 LIG 0.02  C 
ATOM     11  CB  PRO M   4      33.706  17.682  -9.166  1.00 52.77 LIG 0.04  C 
ATOM     12 O    HIS M   3      34.299  13.729 -10.640  1.00 54.31 LIG-0.27  OA
BRANCH 9 13
ATOM     13  CA  HIS M   3      32.072  13.798 -11.482  1.00 53.95 LIG 0.18  C 
BRANCH 13 14
ATOM     14  N   HIS M   3      32.568  13.320 -12.759  1.00 55.94 LIG-0.34  N 
ATOM     15  C   SER M   2      31.861  13.489 -13.870  0.19 53.43 LIG 0.26  C 
ATOM     16 O    SER M   2      30.700  13.918 -13.860  0.19 53.78 LIG-0.27  OA
ATOM     17 H    HIS M   3      33.335  12.932 -12.725  1.00 55.94 LIG 0.16  HD
BRANCH 15 18
ATOM     18  CA  SER M   2      32.457  13.083 -15.210  0.19 52.30 LIG 0.42  C 
ATOM     19  N   SER M   2      33.648  13.895 -15.297  0.19 52.36 LIG 0.62  N 
BRANCH 18 20
ATOM     20  CB  SER M   2      32.900  11.625 -15.224  0.19 51.64 LIG 0.21  C 
BRANCH 20 21
ATOM     21 OG   SER M   2      31.804  10.837 -15.694  0.19 50.47 LIG-0.40  OA
ATOM     22 HG   SER M   2      31.089  11.269 -15.606  0.19 50.47 LIG 0.21  HD
ENDBRANCH 20 21
ENDBRANCH 18 20
ENDBRANCH 15 18
ENDBRANCH 13 14
BRANCH 13 23
ATOM     23  CB  HIS M   3      31.475  12.656 -10.668  1.00 50.96 LIG 0.10  C 
BRANCH 23 24
ATOM     24  CG  HIS M   3      30.688  13.219  -9.495  1.00 47.24 LIG 0.06  A 
ATOM     25  CD2 HIS M   3      29.471  13.834  -9.573  1.00 45.19 LIG 0.14  A 
ATOM     26 NE2  HIS M   3      29.295  14.212  -8.342  1.00 45.41 LIG-0.25  NA
ATOM     27  CE1 HIS M   3      30.316  13.853  -7.587  1.00 46.27 LIG 0.23  A 
ATOM     28 ND1  HIS M   3      31.220  13.219  -8.292  1.00 45.18 LIG-0.24  NA
ENDBRANCH 23 24
ENDBRANCH 13 23
ENDBRANCH 9 13
ENDBRANCH 4 6
ENDBRANCH 1 2
BRANCH 1 29
ATOM     29  CB  GLN M   5      33.160  13.080  -5.793  1.00 37.25 LIG 0.04  C 
BRANCH 29 30
ATOM     30  CG  GLN M   5      33.591  12.399  -4.491  1.00 28.05 LIG 0.10  C 
BRANCH 30 31
ATOM     31  CD  GLN M   5      32.673  11.257  -4.130  1.00 28.89 LIG 0.21  C 
ATOM     32  NE2 GLN M   5      33.058  10.462  -3.132  1.00 21.10 LIG-0.37  N 
ATOM     33 22HE GLN M   5      32.554   9.812  -2.881  1.00 21.10 LIG 0.16  HD
ATOM     34 21HE GLN M   5      33.811  10.599  -2.739  1.00 21.10 LIG 0.16  HD
ATOM     35 OE1  GLN M   5      31.601  11.102  -4.727  1.00 23.17 LIG-0.27  OA
ENDBRANCH 30 31
ENDBRANCH 29 30
ENDBRANCH 1 29
BRANCH 1 36
ATOM     36  C   GLN M   5      35.355  12.719  -6.787  1.00 41.58 LIG 0.24  C 
ATOM     37  N   ASN M   6      36.362  12.522  -5.935  1.00 44.37 LIG-0.35  N 
ATOM     38 H    ASN M   6      36.438  12.917  -5.174  1.00 44.37 LIG 0.16  HD
ATOM     39 O    GLN M   5      35.246  12.083  -7.831  1.00 41.62 LIG-0.27  OA
BRANCH 37 40
ATOM     40  CA  ASN M   6      37.437  11.592  -6.250  1.00 43.99 LIG 0.18  C 
BRANCH 40 41
ATOM     41  C   ASN M   6      37.952  11.876  -7.642  1.00 43.58 LIG 0.24  C 
ATOM     42  N   THR M   7      38.712  12.959  -7.737  0.00 42.61 LIG-0.34  N 
ATOM     43 H    THR M   7      38.898  13.456  -7.060  0.00 42.61 LIG 0.16  HD
ATOM     44 O    ASN M   6      37.638  11.137  -8.578  1.00 43.76 LIG-0.27  OA
BRANCH 42 45
ATOM     45  CA  THR M   7      39.303  13.422  -8.963  0.00 41.90 LIG 0.21  C 
BRANCH 45 46
ATOM     46  C   THR M   7      40.527  14.277  -8.604  0.00 41.61 LIG 0.20  C 
ATOM     47 O    THR M   7      41.023  14.212  -7.475  0.00 41.59 LIG-0.65  OA
ATOM     48 OXT  THR M   7      40.990  15.019  -9.462  0.00 41.57 LIG-0.65  OA
ENDBRANCH 45 46
BRANCH 45 49
ATOM     49  CB  THR M   7      38.201  14.215  -9.728  0.00 41.89 LIG 0.15  C 
ATOM     50  CG2 THR M   7      37.565  13.444 -10.886  0.00 41.51 LIG 0.04  C 
BRANCH 49 51
ATOM     51 OG1  THR M   7      37.212  14.551  -8.763  0.00 41.42 LIG-0.39  OA
ATOM     52 HG1  THR M   7      36.610  13.966  -8.764  0.00 41.42 LIG 0.21  HD
ENDBRANCH 49 51
ENDBRANCH 45 49
ENDBRANCH 42 45
ENDBRANCH 40 41
BRANCH 40 53
ATOM     53  CB  ASN M   6      36.934  10.142  -6.159  1.00 43.29 LIG 0.14  C 
BRANCH 53 54
ATOM     54  CG  ASN M   6      35.823   9.851  -5.134  1.00 43.53 LIG 0.22  C 
ATOM     55 OD1  ASN M   6      34.649   9.625  -5.432  1.00 39.33 LIG-0.27  OA
ATOM     56  ND2 ASN M   6      36.092   9.877  -3.837  1.00 45.48 LIG-0.37  N 
ATOM     57 22HD ASN M   6      36.895  10.030  -3.567  1.00 45.48 LIG 0.16  HD
ATOM     58 21HD ASN M   6      35.465   9.740  -3.265  1.00 45.48 LIG 0.16  HD
ENDBRANCH 53 54
ENDBRANCH 40 53
ENDBRANCH 37 40
ENDBRANCH 1 36
TORSDOF 21
ENDMDL
MODEL 3
USER: ADFR SOLUTION from run 122
USER: SCORE 15.486634 LL:  -3.767 LR: -12.740 RR:   0.000 FEB:  -6.476
USER: RMSD 4.154176
USER: SEED 121
USER: STATUS no improvement in best in 6 clusters for 5 generations
USER: GENES 23
USER: genes 0 Translation |==|  0.40747 0.52314 0.68152
USER: genes 1 Rotation |==|  0.42615 0.39139 0.45907 0.98070
USER: genes 2 Torsion [C]-CA--N-[C] |==|  0.81426
USER: genes 3 Torsion [N]-C--CA-[CB] |==|  0.32893
USER: genes 4 Torsion [N]-C--CA-[N] |==|  0.90016
USER: genes 5 Torsion [C]-CA--N-[C] |==|  0.83201
USER: genes 6 Torsion [N]-C--CA-[N] |==|  0.29593
USER: genes 7 Torsion [C]-CA--CB-[OG] |==|  0.68755
USER: genes 8 Torsion [CA]-CB--OG-[HG] |==|  0.35184
USER: genes 9 Torsion [C]-CA--CB-[CG] |==|  0.20859
USER: genes 10 Torsion [CA]-CB--CG-[CD2] |==|  0.25053
USER: genes 11 Torsion [N]-CA--CB-[CG] |==|  0.26021
USER: genes 12 Torsion [CA]-CB--CG-[CD] |==|  0.35548
USER: genes 13 Torsion [CB]-CG--CD-[NE2] |==|  0.60955
USER: genes 14 Torsion [N]-CA--C-[N] |==|  0.95640
USER: genes 15 Torsion [C]-N--CA-[CB] |==|  0.23706
USER: genes 16 Torsion [N]-CA--C-[N] |==|  0.46665
USER: genes 17 Torsion [C]-N--CA-[C] |==|  0.21623
USER: genes 18 Torsion [N]-CA--C-[O] |==|  0.23542
USER: genes 19 Torsion [N]-CA--CB-[CG2] |==|  0.51396
USER: genes 20 Torsion [CA]-CB--OG1-[HG1] |==|  0.80299
USER: genes 21 Torsion [N]-CA--CB-[CG] |==|  0.57939
USER: genes 22 Torsion [CA]-CB--CG-[OD1] |==|  0.92108
ROOT
ATOM      1  CA  GLN M   5      33.657  14.236  -6.639  1.00 40.28 LIG 0.18  C 
ENDROOT
BRANCH 1 2
ATOM      2  N   GLN M   5      33.812  14.514  -8.046  1.00 45.46 LIG-0.35  N 
ATOM      3 H    GLN M   5      33.345  14.025  -8.577  1.00 45.46 LIG 0.16  HD
ATOM      4  C   PRO M   4      34.649  15.489  -8.426  1.00 50.59 LIG 0.24  C 
ATOM      5 O    PRO M   4      35.216  16.192  -7.573  1.00 50.33 LIG-0.27  OA
BRANCH 4 6
ATOM      6  CA  PRO M   4      34.880  15.757  -9.911  1.00 53.72 LIG 0.18  C 
ATOM      7  N   PRO M   4      34.195  14.882 -10.866  1.00 55.45 LIG-0.34  N 
ATOM      8  CD  PRO M   4      33.424  15.699 -11.811  1.00 56.03 LIG 0.13  C 
ATOM      9  C   HIS M   3      34.424  13.555 -10.983  1.00 54.96 LIG 0.24  C 
ATOM     10  CG  PRO M   4      33.121  16.936 -11.004  1.00 55.72 LIG 0.02  C 
ATOM     11  CB  PRO M   4      34.456  17.159 -10.338  1.00 52.77 LIG 0.04  C 
ATOM     12 O    HIS M   3      35.306  12.984 -10.325  1.00 54.31 LIG-0.27  OA
BRANCH 9 13
ATOM     13  CA  HIS M   3      33.579  12.712 -11.943  1.00 53.95 LIG 0.18  C 
BRANCH 13 14
ATOM     14  N   HIS M   3      32.230  13.242 -11.915  1.00 55.94 LIG-0.34  N 
ATOM     15  C   SER M   2      31.528  13.262 -10.788  0.19 53.43 LIG 0.26  C 
ATOM     16 O    SER M   2      31.920  12.706  -9.752  0.19 53.78 LIG-0.27  OA
ATOM     17 H    HIS M   3      31.940  13.531 -12.672  1.00 55.94 LIG 0.16  HD
BRANCH 15 18
ATOM     18  CA  SER M   2      30.162  13.930 -10.762  0.19 52.30 LIG 0.42  C 
ATOM     19  N   SER M   2      29.252  12.811 -10.708  0.19 52.36 LIG 0.62  N 
BRANCH 18 20
ATOM     20  CB  SER M   2      29.948  14.751  -9.496  0.19 51.64 LIG 0.21  C 
BRANCH 20 21
ATOM     21 OG   SER M   2      28.928  14.110  -8.724  0.19 50.47 LIG-0.40  OA
ATOM     22 HG   SER M   2      29.210  13.976  -7.944  0.19 50.47 LIG 0.21  HD
ENDBRANCH 20 21
ENDBRANCH 18 20
ENDBRANCH 15 18
ENDBRANCH 13 14
BRANCH 13 23
ATOM     23  CB  HIS M   3      34.169  12.797 -13.346  1.00 50.96 LIG 0.10  C 
BRANCH 23 24
ATOM     24  CG  HIS M   3      35.428  11.947 -13.426  1.00 47.24 LIG 0.06  A 
ATOM     25  CD2 HIS M   3      35.478  10.629 -13.780  1.00 45.19 LIG 0.14  A 
ATOM     26 NE2  HIS M   3      36.736  10.361 -13.590  1.00 45.41 LIG-0.25  NA
ATOM     27  CE1 HIS M   3      37.386  11.426 -13.162  1.00 46.27 LIG 0.23  A 
ATOM     28 ND1  HIS M   3      36.580  12.452 -13.047  1.00 45.18 LIG-0.24  NA
ENDBRANCH 23 24
ENDBRANCH 13 23
ENDBRANCH 9 13
ENDBRANCH 4 6
ENDBRANCH 1 2
BRANCH 1 29
ATOM     29  CB  GLN M   5      32.583  13.218  -6.383  1.00 37.25 LIG 0.04  C 
BRANCH 29 30
ATOM     30  CG  GLN M   5      33.171  11.807  -6.300  1.00 28.05 LIG 0.10  C 
BRANCH 30 31
ATOM     31  CD  GLN M   5      32.738  11.097  -5.040  1.00 28.89 LIG 0.21  C 
ATOM     32  NE2 GLN M   5      33.650  10.347  -4.423  1.00 21.10 LIG-0.37  N 
ATOM     33 22HE GLN M   5      33.449   9.943  -3.691  1.00 21.10 LIG 0.16  HD
ATOM     34 21HE GLN M   5      34.438  10.268  -4.756  1.00 21.10 LIG 0.16  HD
ATOM     35 OE1  GLN M   5      31.590  11.244  -4.602  1.00 23.17 LIG-0.27  OA
ENDBRANCH 30 31
ENDBRANCH 29 30
ENDBRANCH 1 29
BRANCH 1 36
ATOM     36  C   GLN M   5      34.961  13.682  -6.120  1.00 41.58 LIG 0.24  C 
ATOM     37  N   ASN M   6      35.864  13.246  -6.999  1.00 44.37 LIG-0.35  N 
ATOM     38 H    ASN M   6      35.778  13.306  -7.853  1.00 44.37 LIG 0.16  HD
ATOM     39 O    GLN M   5      35.153  13.642  -4.909  1.00 41.62 LIG-0.27  OA
BRANCH 37 40
ATOM     40  CA  ASN M   6      37.098  12.616  -6.553  1.00 43.99 LIG 0.18  C 
BRANCH 40 41
ATOM     41  C   ASN M   6      38.168  12.813  -7.603  1.00 43.58 LIG 0.24  C 
ATOM     42  N   THR M   7      39.394  12.505  -7.203  0.00 42.61 LIG-0.34  N 
ATOM     43 H    THR M   7      39.565  12.213  -6.412  0.00 42.61 LIG 0.16  HD
ATOM     44 O    ASN M   6      37.865  13.251  -8.716  1.00 43.76 LIG-0.27  OA
BRANCH 42 45
ATOM     45  CA  THR M   7      40.563  12.620  -8.032  0.00 41.90 LIG 0.21  C 
BRANCH 45 46
ATOM     46  C   THR M   7      40.963  14.101  -8.083  0.00 41.61 LIG 0.20  C 
ATOM     47 O    THR M   7      41.668  14.587  -7.193  0.00 41.59 LIG-0.65  OA
ATOM     48 OXT  THR M   7      40.566  14.779  -9.023  0.00 41.57 LIG-0.65  OA
ENDBRANCH 45 46
BRANCH 45 49
ATOM     49  CB  THR M   7      40.190  12.035  -9.427  0.00 41.89 LIG 0.15  C 
ATOM     50  CG2 THR M   7      41.361  11.965 -10.410  0.00 41.51 LIG 0.04  C 
BRANCH 49 51
ATOM     51 OG1  THR M   7      39.675  10.732  -9.186  0.00 41.42 LIG-0.39  OA
ATOM     52 HG1  THR M   7      40.300  10.223  -8.950  0.00 41.42 LIG 0.21  HD
ENDBRANCH 49 51
ENDBRANCH 45 49
ENDBRANCH 42 45
ENDBRANCH 40 41
BRANCH 40 53
ATOM     53  CB  ASN M   6      36.875  11.116  -6.303  1.00 43.29 LIG 0.14  C 
BRANCH 53 54
ATOM     54  CG  ASN M   6      37.768  10.444  -5.245  1.00 43.53 LIG 0.22  C 
ATOM     55 OD1  ASN M   6      38.908  10.819  -4.962  1.00 39.33 LIG-0.27  OA
ATOM     56  ND2 ASN M   6      37.342   9.367  -4.602  1.00 45.48 LIG-0.37  N 
ATOM     57 22HD ASN M   6      36.555   9.057  -4.757  1.00 45.48 LIG 0.16  HD
ATOM     58 21HD ASN M   6      37.853   8.977  -4.029  1.00 45.48 LIG 0.16  HD
ENDBRANCH 53 54
ENDBRANCH 40 53
ENDBRANCH 37 40
ENDBRANCH 1 36
TORSDOF 21
ENDMDL
MODEL 4
USER: ADFR SOLUTION from run 105
USER: SCORE 16.622359 LL:  -4.694 LR: -12.737 RR:   0.000 FEB:  -6.472
USER: RMSD 3.441023
USER: SEED 104
USER: STATUS searching
USER: GENES 23
USER: genes 0 Translation |==|  0.40795 0.53347 0.67311
USER: genes 1 Rotation |==|  0.42353 0.33811 0.44005 0.96298
USER: genes 2 Torsion [C]-CA--N-[C] |==|  0.80122
USER: genes 3 Torsion [N]-C--CA-[CB] |==|  0.37979
USER: genes 4 Torsion [N]-C--CA-[N] |==|  0.36509
USER: genes 5 Torsion [C]-CA--N-[C] |==|  0.83562
USER: genes 6 Torsion [N]-C--CA-[N] |==|  0.74885
USER: genes 7 Torsion [C]-CA--CB-[OG] |==|  0.62744
USER: genes 8 Torsion [CA]-CB--OG-[HG] |==|  0.58870
USER: genes 9 Torsion [C]-CA--CB-[CG] |==|  0.14850
USER: genes 10 Torsion [CA]-CB--CG-[CD2] |==|  0.60179
USER: genes 11 Torsion [N]-CA--CB-[CG] |==|  0.24160
USER: genes 12 Torsion [CA]-CB--CG-[CD] |==|  0.31888
USER: genes 13 Torsion [CB]-CG--CD-[NE2] |==|  0.50898
USER: genes 14 Torsion [N]-CA--C-[N] |==|  0.93333
USER: genes 15 Torsion [C]-N--CA-[CB] |==|  0.19390
USER: genes 16 Torsion [N]-CA--C-[N] |==|  0.20461
USER: genes 17 Torsion [C]-N--CA-[C] |==|  0.53928
USER: genes 18 Torsion [N]-CA--C-[O] |==|  0.20096
USER: genes 19 Torsion [N]-CA--CB-[CG2] |==|  0.74447
USER: genes 20 Torsion [CA]-CB--OG1-[HG1] |==|  0.38876
USER: genes 21 Torsion [N]-CA--CB-[CG] |==|  0.73972
USER: genes 22 Torsion [CA]-CB--CG-[OD1] |==|  0.40847
ROOT
ATOM      1  CA  GLN M   5      33.668  14.414  -6.822  1.00 40.28 LIG 0.18  C 
ENDROOT
BRANCH 1 2
ATOM      2  N   GLN M   5      34.154  14.647  -8.160  1.00 45.46 LIG-0.35  N 
ATOM      3 H    GLN M   5      33.842  14.123  -8.767  1.00 45.46 LIG 0.16  HD
ATOM      4  C   PRO M   4      35.035  15.635  -8.367  1.00 50.59 LIG 0.24  C 
ATOM      5 O    PRO M   4      35.360  16.386  -7.433  1.00 50.33 LIG-0.27  OA
BRANCH 4 6
ATOM      6  CA  PRO M   4      35.615  15.856  -9.761  1.00 53.72 LIG 0.18  C 
ATOM      7  N   PRO M   4      34.923  15.221 -10.886  1.00 55.45 LIG-0.34  N 
ATOM      8  CD  PRO M   4      34.597  16.236 -11.895  1.00 56.03 LIG 0.13  C 
ATOM      9  C   HIS M   3      34.809  13.885 -11.054  1.00 54.96 LIG 0.24  C 
ATOM     10  CG  PRO M   4      34.481  17.493 -11.071  1.00 55.72 LIG 0.02  C 
ATOM     11  CB  PRO M   4      35.671  17.329 -10.158  1.00 52.77 LIG 0.04  C 
ATOM     12 O    HIS M   3      35.362  13.081 -10.287  1.00 54.31 LIG-0.27  OA
BRANCH 9 13
ATOM     13  CA  HIS M   3      33.976  13.324 -12.209  1.00 53.95 LIG 0.18  C 
BRANCH 13 14
ATOM     14  N   HIS M   3      34.779  12.317 -12.876  1.00 55.94 LIG-0.34  N 
ATOM     15  C   SER M   2      35.956  12.626 -13.408  0.19 53.43 LIG 0.26  C 
ATOM     16 O    SER M   2      36.358  13.794 -13.496  0.19 53.78 LIG-0.27  OA
ATOM     17 H    HIS M   3      34.431  11.531 -12.892  1.00 55.94 LIG 0.16  HD
BRANCH 15 18
ATOM     18  CA  SER M   2      36.829  11.528 -13.996  0.19 52.30 LIG 0.42  C 
ATOM     19  N   SER M   2      37.637  11.116 -12.873  0.19 52.36 LIG 0.62  N 
BRANCH 18 20
ATOM     20  CB  SER M   2      36.012  10.319 -14.435  0.19 51.64 LIG 0.21  C 
BRANCH 20 21
ATOM     21 OG   SER M   2      36.673   9.144 -13.959  0.19 50.47 LIG-0.40  OA
ATOM     22 HG   SER M   2      36.544   8.512 -14.497  0.19 50.47 LIG 0.21  HD
ENDBRANCH 20 21
ENDBRANCH 18 20
ENDBRANCH 15 18
ENDBRANCH 13 14
BRANCH 13 23
ATOM     23  CB  HIS M   3      32.689  12.718 -11.661  1.00 50.96 LIG 0.10  C 
BRANCH 23 24
ATOM     24  CG  HIS M   3      31.967  13.741 -10.799  1.00 47.24 LIG 0.06  A 
ATOM     25  CD2 HIS M   3      31.271  13.471  -9.656  1.00 45.19 LIG 0.14  A 
ATOM     26 NE2  HIS M   3      30.773  14.639  -9.376  1.00 45.41 LIG-0.25  NA
ATOM     27  CE1 HIS M   3      31.140  15.535 -10.271  1.00 46.27 LIG 0.23  A 
ATOM     28 ND1  HIS M   3      31.901  14.994 -11.191  1.00 45.18 LIG-0.24  NA
ENDBRANCH 23 24
ENDBRANCH 13 23
ENDBRANCH 9 13
ENDBRANCH 4 6
ENDBRANCH 1 2
BRANCH 1 29
ATOM     29  CB  GLN M   5      32.512  13.455  -6.804  1.00 37.25 LIG 0.04  C 
BRANCH 29 30
ATOM     30  CG  GLN M   5      33.001  12.006  -6.732  1.00 28.05 LIG 0.10  C 
BRANCH 30 31
ATOM     31  CD  GLN M   5      32.596  11.346  -5.436  1.00 28.89 LIG 0.21  C 
ATOM     32  NE2 GLN M   5      33.024  10.100  -5.231  1.00 21.10 LIG-0.37  N 
ATOM     33 22HE GLN M   5      32.832   9.696  -4.496  1.00 21.10 LIG 0.16  HD
ATOM     34 21HE GLN M   5      33.491   9.702  -5.832  1.00 21.10 LIG 0.16  HD
ATOM     35 OE1  GLN M   5      31.921  11.964  -4.603  1.00 23.17 LIG-0.27  OA
ENDBRANCH 30 31
ENDBRANCH 29 30
ENDBRANCH 1 29
BRANCH 1 36
ATOM     36  C   GLN M   5      34.788  13.813  -6.009  1.00 41.58 LIG 0.24  C 
ATOM     37  N   ASN M   6      35.762  13.163  -6.647  1.00 44.37 LIG-0.35  N 
ATOM     38 H    ASN M   6      35.826  13.105  -7.503  1.00 44.37 LIG 0.16  HD
ATOM     39 O    GLN M   5      34.770  13.934  -4.788  1.00 41.62 LIG-0.27  OA
BRANCH 37 40
ATOM     40  CA  ASN M   6      36.817  12.485  -5.908  1.00 43.99 LIG 0.18  C 
BRANCH 40 41
ATOM     41  C   ASN M   6      37.913  12.075  -6.865  1.00 43.58 LIG 0.24  C 
ATOM     42  N   THR M   7      38.668  13.076  -7.297  0.00 42.61 LIG-0.34  N 
ATOM     43 H    THR M   7      38.545  13.891  -7.050  0.00 42.61 LIG 0.16  HD
ATOM     44 O    ASN M   6      38.031  10.893  -7.196  1.00 43.76 LIG-0.27  OA
BRANCH 42 45
ATOM     45  CA  THR M   7      39.763  12.919  -8.215  0.00 41.90 LIG 0.21  C 
BRANCH 45 46
ATOM     46  C   THR M   7      40.591  14.212  -8.189  0.00 41.61 LIG 0.20  C 
ATOM     47 O    THR M   7      41.296  14.481  -7.212  0.00 41.59 LIG-0.65  OA
ATOM     48 OXT  THR M   7      40.530  14.962  -9.157  0.00 41.57 LIG-0.65  OA
ENDBRANCH 45 46
BRANCH 45 49
ATOM     49  CB  THR M   7      39.145  12.613  -9.612  0.00 41.89 LIG 0.15  C 
ATOM     50  CG2 THR M   7      38.981  11.121  -9.910  0.00 41.51 LIG 0.04  C 
BRANCH 49 51
ATOM     51 OG1  THR M   7      37.877  13.257  -9.634  0.00 41.42 LIG-0.39  OA
ATOM     52 HG1  THR M   7      37.751  13.601 -10.390  0.00 41.42 LIG 0.21  HD
ENDBRANCH 49 51
ENDBRANCH 45 49
ENDBRANCH 42 45
ENDBRANCH 40 41
BRANCH 40 53
ATOM     53  CB  ASN M   6      36.256  11.248  -5.187  1.00 43.29 LIG 0.14  C 
BRANCH 53 54
ATOM     54  CG  ASN M   6      35.805  11.437  -3.728  1.00 43.53 LIG 0.22  C 
ATOM     55 OD1  ASN M   6      34.869  10.826  -3.208  1.00 39.33 LIG-0.27  OA
ATOM     56  ND2 ASN M   6      36.405  12.331  -2.956  1.00 45.48 LIG-0.37  N 
ATOM     57 22HD ASN M   6      37.066  12.789  -3.263  1.00 45.48 LIG 0.16  HD
ATOM     58 21HD ASN M   6      36.135  12.453  -2.148  1.00 45.48 LIG 0.16  HD
ENDBRANCH 53 54
ENDBRANCH 40 53
ENDBRANCH 37 40
ENDBRANCH 1 36
TORSDOF 21
ENDMDL
MODEL 5
USER: ADFR SOLUTION from run 93
USER: SCORE 14.738446 LL:  -3.745 LR: -12.541 RR:   0.000 FEB:  -6.276
USER: RMSD 1.956046
USER: SEED 92
USER: STATUS searching
USER: GENES 23
USER: genes 0 Translation |==|  0.43110 0.52183 0.69635
USER: genes 1 Rotation |==|  0.50543 0.43572 0.47973 0.99541
USER: genes 2 Torsion [C]-CA--N-[C] |==|  0.81772
USER: genes 3 Torsion [N]-C--CA-[CB] |==|  0.40190
USER: genes 4 Torsion [N]-C--CA-[N] |==|  0.26354
USER: genes 5 Torsion [C]-CA--N-[C] |==|  0.62778
USER: genes 6 Torsion [N]-C--CA-[N] |==|  0.39722
USER: genes 7 Torsion [C]-CA--CB-[OG] |==|  0.76657
USER: genes 8 Torsion [CA]-CB--OG-[HG] |==|  0.46428
USER: genes 9 Torsion [C]-CA--CB-[CG] |==|  0.23665
USER: genes 10 Torsion [CA]-CB--CG-[CD2] |==|  0.27199
USER: genes 11 Torsion [N]-CA--CB-[CG] |==|  0.42829
USER: genes 12 Torsion [CA]-CB--CG-[CD] |==|  0.40852
USER: genes 13 Torsion [CB]-CG--CD-[NE2] |==|  0.53308
USER: genes 14 Torsion [N]-CA--C-[N] |==|  0.86721
USER: genes 15 Torsion [C]-N--CA-[CB] |==|  0.24991
USER: genes 16 Torsion [N]-CA--C-[N] |==|  0.41824
USER: genes 17 Torsion [C]-N--CA-[C] |==|  0.71443
USER: genes 18 Torsion [N]-CA--C-[O] |==|  0.08574
USER: genes 19 Torsion [N]-CA--CB-[CG2] |==|  0.70416
USER: genes 20 Torsion [CA]-CB--OG1-[HG1] |==|  0.27597
USER: genes 21 Torsion [N]-CA--CB-[CG] |==|  0.73624
USER: genes 22 Torsion [CA]-CB--CG-[OD1] |==|  0.98020
ROOT
ATOM      1  CA  GLN M   5      34.171  14.214  -6.316  1.00 40.28 LIG 0.18  C 
ENDROOT
BRANCH 1 2
ATOM      2  N   GLN M   5      34.033  14.913  -7.571  1.00 45.46 LIG-0.35  N 
ATOM      3 H    GLN M   5      33.513  14.544  -8.148  1.00 45.46 LIG 0.16  HD
ATOM      4  C   PRO M   4      34.705  16.058  -7.751  1.00 50.59 LIG 0.24  C 
ATOM      5 O    PRO M   4      35.368  16.546  -6.821  1.00 50.33 LIG-0.27  OA
BRANCH 4 6
ATOM      6  CA  PRO M   4      34.628  16.780  -9.094  1.00 53.72 LIG 0.18  C 
ATOM      7  N   PRO M   4      33.451  16.525  -9.928  1.00 55.45 LIG-0.34  N 
ATOM      8  CD  PRO M   4      32.815  17.800 -10.281  1.00 56.03 LIG 0.13  C 
ATOM      9  C   HIS M   3      33.142  15.322 -10.462  1.00 54.96 LIG 0.24  C 
ATOM     10  CG  PRO M   4      33.201  18.689  -9.126  1.00 55.72 LIG 0.02  C 
ATOM     11  CB  PRO M   4      34.649  18.300  -8.957  1.00 52.77 LIG 0.04  C 
ATOM     12 O    HIS M   3      33.893  14.342 -10.342  1.00 54.31 LIG-0.27  OA
BRANCH 9 13
ATOM     13  CA  HIS M   3      31.833  15.138 -11.234  1.00 53.95 LIG 0.18  C 
BRANCH 13 14
ATOM     14  N   HIS M   3      32.127  15.327 -12.642  1.00 55.94 LIG-0.34  N 
ATOM     15  C   SER M   2      31.349  16.085 -13.405  0.19 53.43 LIG 0.26  C 
ATOM     16 O    SER M   2      30.268  16.540 -13.006  0.19 53.78 LIG-0.27  OA
ATOM     17 H    HIS M   3      32.829  14.916 -12.922  1.00 55.94 LIG 0.16  HD
BRANCH 15 18
ATOM     18  CA  SER M   2      31.746  16.361 -14.847  0.19 52.30 LIG 0.42  C 
ATOM     19  N   SER M   2      30.481  16.354 -15.542  0.19 52.36 LIG 0.62  N 
BRANCH 18 20
ATOM     20  CB  SER M   2      32.351  17.749 -15.020  0.19 51.64 LIG 0.21  C 
BRANCH 20 21
ATOM     21 OG   SER M   2      31.277  18.680 -15.175  0.19 50.47 LIG-0.40  OA
ATOM     22 HG   SER M   2      31.571  19.463 -15.095  0.19 50.47 LIG 0.21  HD
ENDBRANCH 20 21
ENDBRANCH 18 20
ENDBRANCH 15 18
ENDBRANCH 13 14
BRANCH 13 23
ATOM     23  CB  HIS M   3      31.284  13.739 -10.977  1.00 50.96 LIG 0.10  C 
BRANCH 23 24
ATOM     24  CG  HIS M   3      30.461  13.738  -9.697  1.00 47.24 LIG 0.06  A 
ATOM     25  CD2 HIS M   3      29.101  13.836  -9.624  1.00 45.19 LIG 0.14  A 
ATOM     26 NE2  HIS M   3      28.917  13.895  -8.338  1.00 45.41 LIG-0.25  NA
ATOM     27  CE1 HIS M   3      30.066  13.835  -7.694  1.00 46.27 LIG 0.23  A 
ATOM     28 ND1  HIS M   3      31.069  13.735  -8.532  1.00 45.18 LIG-0.24  NA
ENDBRANCH 23 24
ENDBRANCH 13 23
ENDBRANCH 9 13
ENDBRANCH 4 6
ENDBRANCH 1 2
BRANCH 1 29
ATOM     29  CB  GLN M   5      33.269  13.015  -6.240  1.00 37.25 LIG 0.04  C 
BRANCH 29 30
ATOM     30  CG  GLN M   5      33.831  11.963  -5.279  1.00 28.05 LIG 0.10  C 
BRANCH 30 31
ATOM     31  CD  GLN M   5      32.730  11.209  -4.574  1.00 28.89 LIG 0.21  C 
ATOM     32  NE2 GLN M   5      33.084  10.445  -3.542  1.00 21.10 LIG-0.37  N 
ATOM     33 22HE GLN M   5      32.485  10.015  -3.100  1.00 21.10 LIG 0.16  HD
ATOM     34 21HE GLN M   5      33.912  10.381  -3.318  1.00 21.10 LIG 0.16  HD
ATOM     35 OE1  GLN M   5      31.553  11.335  -4.936  1.00 23.17 LIG-0.27  OA
ENDBRANCH 30 31
ENDBRANCH 29 30
ENDBRANCH 1 29
BRANCH 1 36
ATOM     36  C   GLN M   5      35.597  13.734  -6.196  1.00 41.58 LIG 0.24  C 
ATOM     37  N   ASN M   6      36.149  13.107  -7.235  1.00 44.37 LIG-0.35  N 
ATOM     38 H    ASN M   6      35.764  13.000  -7.997  1.00 44.37 LIG 0.16  HD
ATOM     39 O    GLN M   5      36.206  13.929  -5.149  1.00 41.62 LIG-0.27  OA
BRANCH 37 40
ATOM     40  CA  ASN M   6      37.488  12.542  -7.142  1.00 43.99 LIG 0.18  C 
BRANCH 40 41
ATOM     41  C   ASN M   6      38.151  12.602  -8.500  1.00 43.58 LIG 0.24  C 
ATOM     42  N   THR M   7      39.471  12.714  -8.461  0.00 42.61 LIG-0.34  N 
ATOM     43 H    THR M   7      39.914  12.746  -7.725  0.00 42.61 LIG 0.16  HD
ATOM     44 O    ASN M   6      37.463  12.568  -9.523  1.00 43.76 LIG-0.27  OA
BRANCH 42 45
ATOM     45  CA  THR M   7      40.306  12.793  -9.630  0.00 41.90 LIG 0.21  C 
BRANCH 45 46
ATOM     46  C   THR M   7      40.963  11.421  -9.835  0.00 41.61 LIG 0.20  C 
ATOM     47 O    THR M   7      40.376  10.391  -9.489  0.00 41.59 LIG-0.65  OA
ATOM     48 OXT  THR M   7      42.076  11.379 -10.348  0.00 41.57 LIG-0.65  OA
ENDBRANCH 45 46
BRANCH 45 49
ATOM     49  CB  THR M   7      41.335  13.935  -9.376  0.00 41.89 LIG 0.15  C 
ATOM     50  CG2 THR M   7      41.063  15.212 -10.175  0.00 41.51 LIG 0.04  C 
BRANCH 49 51
ATOM     51 OG1  THR M   7      41.285  14.212  -7.982  0.00 41.42 LIG-0.39  OA
ATOM     52 HG1  THR M   7      41.923  13.826  -7.596  0.00 41.42 LIG 0.21  HD
ENDBRANCH 49 51
ENDBRANCH 45 49
ENDBRANCH 42 45
ENDBRANCH 40 41
BRANCH 40 53
ATOM     53  CB  ASN M   6      37.422  11.087  -6.651  1.00 43.29 LIG 0.14  C 
BRANCH 53 54
ATOM     54  CG  ASN M   6      37.603  10.852  -5.140  1.00 43.53 LIG 0.22  C 
ATOM     55 OD1  ASN M   6      37.919  11.732  -4.336  1.00 39.33 LIG-0.27  OA
ATOM     56  ND2 ASN M   6      37.461   9.636  -4.635  1.00 45.48 LIG-0.37  N 
ATOM     57 22HD ASN M   6      37.242   8.980  -5.147  1.00 45.48 LIG 0.16  HD
ATOM     58 21HD ASN M   6      37.588   9.502  -3.795  1.00 45.48 LIG 0.16  HD
ENDBRANCH 53 54
ENDBRANCH 40 53
ENDBRANCH 37 40
ENDBRANCH 1 36
TORSDOF 21
ENDMDL
MODEL 6
USER: ADFR SOLUTION from run 84
USER: SCORE 15.703051 LL:  -4.276 LR: -12.450 RR:   0.000 FEB:  -6.185
USER: RMSD 2.440035
USER: SEED 83
USER: STATUS searching
USER: GENES 23
USER: genes 0 Translation |==|  0.40245 0.46829 0.71572
USER: genes 1 Rotation |==|  0.50466 0.42161 0.50826 0.99373
USER: genes 2 Torsion [C]-CA--N-[C] |==|  0.84739
USER: genes 3 Torsion [N]-C--CA-[CB] |==|  0.32522
USER: genes 4 Torsion [N]-C--CA-[N] |==|  0.40691
USER: genes 5 Torsion [C]-CA--N-[C] |==|  0.81908
USER: genes 6 Torsion [N]-C--CA-[N] |==|  0.48028
USER: genes 7 Torsion [C]-CA--CB-[OG] |==|  0.36317
USER: genes 8 Torsion [CA]-CB--OG-[HG] |==|  0.68069
USER: genes 9 Torsion [C]-CA--CB-[CG] |==|  0.18166
USER: genes 10 Torsion [CA]-CB--CG-[CD2] |==|  0.22497
USER: genes 11 Torsion [N]-CA--CB-[CG] |==|  0.33789
USER: genes 12 Torsion [CA]-CB--CG-[CD] |==|  0.26551
USER: genes 13 Torsion [CB]-CG--CD-[NE2] |==|  0.61945
USER: genes 14 Torsion [N]-CA--C-[N] |==|  0.90065
USER: genes 15 Torsion [C]-N--CA-[CB] |==|  0.20475
USER: genes 16 Torsion [N]-CA--C-[N] |==|  0.41481
USER: genes 17 Torsion [C]-N--CA-[C] |==|  0.78504
USER: genes 18 Torsion [N]-CA--C-[O] |==|  0.14540
USER: genes 19 Torsion [N]-CA--CB-[CG2] |==|  0.52978
USER: genes 20 Torsion [CA]-CB--OG1-[HG1] |==|  0.18198
USER: genes 21 Torsion [N]-CA--CB-[CG] |==|  0.59490
USER: genes 22 Torsion [CA]-CB--CG-[OD1] |==|  0.95057
ROOT
ATOM      1  CA  GLN M   5      33.548  13.290  -5.895  1.00 40.28 LIG 0.18  C 
ENDROOT
BRANCH 1 2
ATOM      2  N   GLN M   5      33.407  13.948  -7.171  1.00 45.46 LIG-0.35  N 
ATOM      3 H    GLN M   5      32.851  13.586  -7.718  1.00 45.46 LIG 0.16  HD
ATOM      4  C   PRO M   4      34.131  15.049  -7.415  1.00 50.59 LIG 0.24  C 
ATOM      5 O    PRO M   4      34.846  15.536  -6.524  1.00 50.33 LIG-0.27  OA
BRANCH 4 6
ATOM      6  CA  PRO M   4      34.049  15.724  -8.782  1.00 53.72 LIG 0.18  C 
ATOM      7  N   PRO M   4      33.225  15.075  -9.804  1.00 55.45 LIG-0.34  N 
ATOM      8  CD  PRO M   4      32.247  16.037 -10.327  1.00 56.03 LIG 0.13  C 
ATOM      9  C   HIS M   3      33.481  13.855 -10.328  1.00 54.96 LIG 0.24  C 
ATOM     10  CG  PRO M   4      32.059  16.978  -9.165  1.00 55.72 LIG 0.02  C 
ATOM     11  CB  PRO M   4      33.490  17.143  -8.716  1.00 52.77 LIG 0.04  C 
ATOM     12 O    HIS M   3      34.500  13.217 -10.027  1.00 54.31 LIG-0.27  OA
BRANCH 9 13
ATOM     13  CA  HIS M   3      32.498  13.222 -11.317  1.00 53.95 LIG 0.18  C 
BRANCH 13 14
ATOM     14  N   HIS M   3      33.274  12.443 -12.263  1.00 55.94 LIG-0.34  N 
ATOM     15  C   SER M   2      34.125  13.032 -13.095  0.19 53.43 LIG 0.26  C 
ATOM     16 O    SER M   2      34.194  14.263 -13.212  0.19 53.78 LIG-0.27  OA
ATOM     17 H    HIS M   3      33.133  11.595 -12.233  1.00 55.94 LIG 0.16  HD
BRANCH 15 18
ATOM     18  CA  SER M   2      35.011  12.182 -13.993  0.19 52.30 LIG 0.42  C 
ATOM     19  N   SER M   2      35.645  13.159 -14.846  0.19 52.36 LIG 0.62  N 
BRANCH 18 20
ATOM     20  CB  SER M   2      36.113  11.478 -13.212  0.19 51.64 LIG 0.21  C 
BRANCH 20 21
ATOM     21 OG   SER M   2      36.105  10.098 -13.587  0.19 50.47 LIG-0.40  OA
ATOM     22 HG   SER M   2      35.894   9.628 -12.923  0.19 50.47 LIG 0.21  HD
ENDBRANCH 20 21
ENDBRANCH 18 20
ENDBRANCH 15 18
ENDBRANCH 13 14
BRANCH 13 23
ATOM     23  CB  HIS M   3      31.515  12.337 -10.560  1.00 50.96 LIG 0.10  C 
BRANCH 23 24
ATOM     24  CG  HIS M   3      30.652  13.193  -9.645  1.00 47.24 LIG 0.06  A 
ATOM     25  CD2 HIS M   3      29.553  13.907 -10.027  1.00 45.19 LIG 0.14  A 
ATOM     26 NE2  HIS M   3      29.256  14.530  -8.924  1.00 45.41 LIG-0.25  NA
ATOM     27  CE1 HIS M   3      30.102  14.215  -7.962  1.00 46.27 LIG 0.23  A 
ATOM     28 ND1  HIS M   3      31.004  13.366  -8.391  1.00 45.18 LIG-0.24  NA
ENDBRANCH 23 24
ENDBRANCH 13 23
ENDBRANCH 9 13
ENDBRANCH 4 6
ENDBRANCH 1 2
BRANCH 1 29
ATOM     29  CB  GLN M   5      32.781  11.999  -5.842  1.00 37.25 LIG 0.04  C 
BRANCH 29 30
ATOM     30  CG  GLN M   5      33.709  10.821  -5.534  1.00 28.05 LIG 0.10  C 
BRANCH 30 31
ATOM     31  CD  GLN M   5      33.721  10.493  -4.061  1.00 28.89 LIG 0.21  C 
ATOM     32  NE2 GLN M   5      34.906  10.231  -3.508  1.00 21.10 LIG-0.37  N 
ATOM     33 22HE GLN M   5      34.958  10.060  -2.667  1.00 21.10 LIG 0.16  HD
ATOM     34 21HE GLN M   5      35.616  10.233  -3.993  1.00 21.10 LIG 0.16  HD
ATOM     35 OE1  GLN M   5      32.670  10.503  -3.408  1.00 23.17 LIG-0.27  OA
ENDBRANCH 30 31
ENDBRANCH 29 30
ENDBRANCH 1 29
BRANCH 1 36
ATOM     36  C   GLN M   5      35.009  12.976  -5.683  1.00 41.58 LIG 0.24  C 
ATOM     37  N   ASN M   6      35.746  12.627  -6.738  1.00 44.37 LIG-0.35  N 
ATOM     38 H    ASN M   6      35.458  12.618  -7.549  1.00 44.37 LIG 0.16  HD
ATOM     39 O    GLN M   5      35.476  13.044  -4.550  1.00 41.62 LIG-0.27  OA
BRANCH 37 40
ATOM     40  CA  ASN M   6      37.136  12.224  -6.579  1.00 43.99 LIG 0.18  C 
BRANCH 40 41
ATOM     41  C   ASN M   6      37.820  12.243  -7.927  1.00 43.58 LIG 0.24  C 
ATOM     42  N   THR M   7      39.114  12.528  -7.882  0.00 42.61 LIG-0.34  N 
ATOM     43 H    THR M   7      39.530  12.686  -7.146  0.00 42.61 LIG 0.16  HD
ATOM     44 O    ASN M   6      37.168  12.025  -8.951  1.00 43.76 LIG-0.27  OA
BRANCH 42 45
ATOM     45  CA  THR M   7      39.961  12.606  -9.042  0.00 41.90 LIG 0.21  C 
BRANCH 45 46
ATOM     46  C   THR M   7      40.292  11.174  -9.482  0.00 41.61 LIG 0.20  C 
ATOM     47 O    THR M   7      39.387  10.354  -9.668  0.00 41.59 LIG-0.65  OA
ATOM     48 OXT  THR M   7      41.469  10.871  -9.643  0.00 41.57 LIG-0.65  OA
ENDBRANCH 45 46
BRANCH 45 49
ATOM     49  CB  THR M   7      41.218  13.430  -8.630  0.00 41.89 LIG 0.15  C 
ATOM     50  CG2 THR M   7      42.111  13.836  -9.805  0.00 41.51 LIG 0.04  C 
BRANCH 49 51
ATOM     51 OG1  THR M   7      40.733  14.587  -7.962  0.00 41.42 LIG-0.39  OA
ATOM     52 HG1  THR M   7      40.355  14.360  -7.247  0.00 41.42 LIG 0.21  HD
ENDBRANCH 49 51
ENDBRANCH 45 49
ENDBRANCH 42 45
ENDBRANCH 40 41
BRANCH 40 53
ATOM     53  CB  ASN M   6      37.218  10.817  -5.965  1.00 43.29 LIG 0.14  C 
BRANCH 53 54
ATOM     54  CG  ASN M   6      38.398  10.537  -5.016  1.00 43.53 LIG 0.22  C 
ATOM     55 OD1  ASN M   6      39.420  11.224  -4.962  1.00 39.33 LIG-0.27  OA
ATOM     56  ND2 ASN M   6      38.373   9.480  -4.219  1.00 45.48 LIG-0.37  N 
ATOM     57 22HD ASN M   6      37.686   8.962  -4.212  1.00 45.48 LIG 0.16  HD
ATOM     58 21HD ASN M   6      39.044   9.311  -3.707  1.00 45.48 LIG 0.16  HD
ENDBRANCH 53 54
ENDBRANCH 40 53
ENDBRANCH 37 40
ENDBRANCH 1 36
TORSDOF 21
ENDMDL
MODEL 7
USER: ADFR SOLUTION from run 140
USER: SCORE 15.463054 LL:  -4.431 LR: -12.389 RR:   0.000 FEB:  -6.125
USER: RMSD 2.730145
USER: SEED 139
USER: STATUS no improvement in best in 2 clusters for 5 generations
USER: GENES 23
USER: genes 0 Translation |==|  0.46260 0.46929 0.65338
USER: genes 1 Rotation |==|  0.48052 0.60182 0.40019 0.97884
USER: genes 2 Torsion [C]-CA--N-[C] |==|  0.74161
USER: genes 3 Torsion [N]-C--CA-[CB] |==|  0.31852
USER: genes 4 Torsion [N]-C--CA-[N] |==|  0.40690
USER: genes 5 Torsion [C]-CA--N-[C] |==|  0.61902
USER: genes 6 Torsion [N]-C--CA-[N] |==|  0.82028
USER: genes 7 Torsion [C]-CA--CB-[OG] |==|  0.23195
USER: genes 8 Torsion [CA]-CB--OG-[HG] |==|  0.05595
USER: genes 9 Torsion [C]-CA--CB-[CG] |==|  0.20914
USER: genes 10 Torsion [CA]-CB--CG-[CD2] |==|  0.22190
USER: genes 11 Torsion [N]-CA--CB-[CG] |==|  0.55223
USER: genes 12 Torsion [CA]-CB--CG-[CD] |==|  0.46090
USER: genes 13 Torsion [CB]-CG--CD-[NE2] |==|  0.43232
USER: genes 14 Torsion [N]-CA--C-[N] |==|  0.03871
USER: genes 15 Torsion [C]-N--CA-[CB] |==|  0.50556
USER: genes 16 Torsion [N]-CA--C-[N] |==|  0.79087
USER: genes 17 Torsion [C]-N--CA-[C] |==|  0.59343
USER: genes 18 Torsion [N]-CA--C-[O] |==|  0.89627
USER: genes 19 Torsion [N]-CA--CB-[CG2] |==|  0.34223
USER: genes 20 Torsion [CA]-CB--OG1-[HG1] |==|  0.69732
USER: genes 21 Torsion [N]-CA--CB-[CG] |==|  0.70408
USER: genes 22 Torsion [CA]-CB--CG-[OD1] |==|  0.76401
ROOT
ATOM      1  CA  GLN M   5      34.857  13.307  -7.251  1.00 40.28 LIG 0.18  C 
ENDROOT
BRANCH 1 2
ATOM      2  N   GLN M   5      34.186  14.111  -8.244  1.00 45.46 LIG-0.35  N 
ATOM      3 H    GLN M   5      33.485  13.759  -8.596  1.00 45.46 LIG 0.16  HD
ATOM      4  C   PRO M   4      34.684  15.318  -8.544  1.00 50.59 LIG 0.24  C 
ATOM      5 O    PRO M   4      35.658  15.765  -7.917  1.00 50.33 LIG-0.27  OA
BRANCH 4 6
ATOM      6  CA  PRO M   4      34.031  16.158  -9.639  1.00 53.72 LIG 0.18  C 
ATOM      7  N   PRO M   4      32.951  15.536 -10.410  1.00 55.45 LIG-0.34  N 
ATOM      8  CD  PRO M   4      31.760  16.391 -10.362  1.00 56.03 LIG 0.13  C 
ATOM      9  C   HIS M   3      33.111  14.460 -11.214  1.00 54.96 LIG 0.24  C 
ATOM     10  CG  PRO M   4      31.929  17.116  -9.051  1.00 55.72 LIG 0.02  C 
ATOM     11  CB  PRO M   4      33.401  17.443  -9.111  1.00 52.77 LIG 0.04  C 
ATOM     12 O    HIS M   3      34.227  13.958 -11.418  1.00 54.31 LIG-0.27  OA
BRANCH 9 13
ATOM     13  CA  HIS M   3      31.897  13.823 -11.895  1.00 53.95 LIG 0.18  C 
BRANCH 13 14
ATOM     14  N   HIS M   3      32.335  13.322 -13.184  1.00 55.94 LIG-0.34  N 
ATOM     15  C   SER M   2      31.592  13.495 -14.271  0.19 53.43 LIG 0.26  C 
ATOM     16 O    SER M   2      30.440  13.949 -14.222  0.19 53.78 LIG-0.27  OA
ATOM     17 H    HIS M   3      33.094  12.918 -13.175  1.00 55.94 LIG 0.16  HD
BRANCH 15 18
ATOM     18  CA  SER M   2      32.128  13.063 -15.627  0.19 52.30 LIG 0.42  C 
ATOM     19  N   SER M   2      33.261  13.937 -15.822  0.19 52.36 LIG 0.62  N 
BRANCH 18 20
ATOM     20  CB  SER M   2      32.656  11.634 -15.607  0.19 51.64 LIG 0.21  C 
BRANCH 20 21
ATOM     21 OG   SER M   2      31.545  10.753 -15.792  0.19 50.47 LIG-0.40  OA
ATOM     22 HG   SER M   2      30.907  11.174 -16.140  0.19 50.47 LIG 0.21  HD
ENDBRANCH 20 21
ENDBRANCH 18 20
ENDBRANCH 15 18
ENDBRANCH 13 14
BRANCH 13 23
ATOM     23  CB  HIS M   3      31.360  12.693 -11.025  1.00 50.96 LIG 0.10  C 
BRANCH 23 24
ATOM     24  CG  HIS M   3      30.607  13.272  -9.838  1.00 47.24 LIG 0.06  A 
ATOM     25  CD2 HIS M   3      29.327  13.746  -9.862  1.00 45.19 LIG 0.14  A 
ATOM     26 NE2  HIS M   3      29.203  14.212  -8.654  1.00 45.41 LIG-0.25  NA
ATOM     27  CE1 HIS M   3      30.312  14.031  -7.963  1.00 46.27 LIG 0.23  A 
ATOM     28 ND1  HIS M   3      31.225  13.435  -8.689  1.00 45.18 LIG-0.24  NA
ENDBRANCH 23 24
ENDBRANCH 13 23
ENDBRANCH 9 13
ENDBRANCH 4 6
ENDBRANCH 1 2
BRANCH 1 29
ATOM     29  CB  GLN M   5      33.894  12.447  -6.482  1.00 37.25 LIG 0.04  C 
BRANCH 29 30
ATOM     30  CG  GLN M   5      34.515  11.968  -5.167  1.00 28.05 LIG 0.10  C 
BRANCH 30 31
ATOM     31  CD  GLN M   5      33.472  11.400  -4.235  1.00 28.89 LIG 0.21  C 
ATOM     32  NE2 GLN M   5      33.889  10.525  -3.320  1.00 21.10 LIG-0.37  N 
ATOM     33 22HE GLN M   5      33.331  10.194  -2.756  1.00 21.10 LIG 0.16  HD
ATOM     34 21HE GLN M   5      34.717  10.293  -3.293  1.00 21.10 LIG 0.16  HD
ATOM     35 OE1  GLN M   5      32.293  11.767  -4.316  1.00 23.17 LIG-0.27  OA
ENDBRANCH 30 31
ENDBRANCH 29 30
ENDBRANCH 1 29
BRANCH 1 36
ATOM     36  C   GLN M   5      35.834  12.401  -7.957  1.00 41.58 LIG 0.24  C 
ATOM     37  N   ASN M   6      36.135  12.656  -9.231  1.00 44.37 LIG-0.35  N 
ATOM     38 H    ASN M   6      35.848  13.338  -9.670  1.00 44.37 LIG 0.16  HD
ATOM     39 O    GLN M   5      36.321  11.455  -7.345  1.00 41.62 LIG-0.27  OA
BRANCH 37 40
ATOM     40  CA  ASN M   6      36.999  11.761  -9.989  1.00 43.99 LIG 0.18  C 
BRANCH 40 41
ATOM     41  C   ASN M   6      38.322  11.619  -9.271  1.00 43.58 LIG 0.24  C 
ATOM     42  N   THR M   7      39.125  12.668  -9.387  0.00 42.61 LIG-0.34  N 
ATOM     43 H    THR M   7      38.908  13.372  -9.830  0.00 42.61 LIG 0.16  HD
ATOM     44 O    ASN M   6      38.585  10.578  -8.664  1.00 43.76 LIG-0.27  OA
BRANCH 42 45
ATOM     45  CA  THR M   7      40.432  12.750  -8.792  0.00 41.90 LIG 0.21  C 
BRANCH 45 46
ATOM     46  C   THR M   7      40.680  14.212  -8.396  0.00 41.61 LIG 0.20  C 
ATOM     47 O    THR M   7      40.273  15.130  -9.114  0.00 41.59 LIG-0.65  OA
ATOM     48 OXT  THR M   7      41.288  14.437  -7.356  0.00 41.57 LIG-0.65  OA
ENDBRANCH 45 46
BRANCH 45 49
ATOM     49  CB  THR M   7      41.445  12.219  -9.850  0.00 41.89 LIG 0.15  C 
ATOM     50  CG2 THR M   7      42.552  13.212 -10.210  0.00 41.51 LIG 0.04  C 
BRANCH 49 51
ATOM     51 OG1  THR M   7      42.011  11.036  -9.299  0.00 41.42 LIG-0.39  OA
ATOM     52 HG1  THR M   7      42.810  11.181  -9.085  0.00 41.42 LIG 0.21  HD
ENDBRANCH 49 51
ENDBRANCH 45 49
ENDBRANCH 42 45
ENDBRANCH 40 41
BRANCH 40 53
ATOM     53  CB  ASN M   6      37.224  12.308 -11.408  1.00 43.29 LIG 0.14  C 
BRANCH 53 54
ATOM     54  CG  ASN M   6      36.497  11.587 -12.557  1.00 43.53 LIG 0.22  C 
ATOM     55 OD1  ASN M   6      36.929  10.584 -13.128  1.00 39.33 LIG-0.27  OA
ATOM     56  ND2 ASN M   6      35.350  12.063 -13.021  1.00 45.48 LIG-0.37  N 
ATOM     57 22HD ASN M   6      34.998  12.761 -12.663  1.00 45.48 LIG 0.16  HD
ATOM     58 21HD ASN M   6      34.958  11.673 -13.680  1.00 45.48 LIG 0.16  HD
ENDBRANCH 53 54
ENDBRANCH 40 53
ENDBRANCH 37 40
ENDBRANCH 1 36
TORSDOF 21
ENDMDL
MODEL 8
USER: ADFR SOLUTION from run 132
USER: SCORE 15.430456 LL:  -4.540 LR: -12.239 RR:   0.000 FEB:  -5.975
USER: RMSD 3.904993
USER: SEED 131
USER: STATUS no improvement in best in 3 clusters for 5 generations
USER: GENES 23
USER: genes 0 Translation |==|  0.37960 0.45019 0.70723
USER: genes 1 Rotation |==|  0.38047 0.44235 0.55950 0.97838
USER: genes 2 Torsion [C]-CA--N-[C] |==|  0.81667
USER: genes 3 Torsion [N]-C--CA-[CB] |==|  0.75579
USER: genes 4 Torsion [N]-C--CA-[N] |==|  0.33335
USER: genes 5 Torsion [C]-CA--N-[C] |==|  0.82098
USER: genes 6 Torsion [N]-C--CA-[N] |==|  0.45075
USER: genes 7 Torsion [C]-CA--CB-[OG] |==|  0.39713
USER: genes 8 Torsion [CA]-CB--OG-[HG] |==|  0.62431
USER: genes 9 Torsion [C]-CA--CB-[CG] |==|  0.20227
USER: genes 10 Torsion [CA]-CB--CG-[CD2] |==|  0.27835
USER: genes 11 Torsion [N]-CA--CB-[CG] |==|  0.42660
USER: genes 12 Torsion [CA]-CB--CG-[CD] |==|  0.71142
USER: genes 13 Torsion [CB]-CG--CD-[NE2] |==|  0.49714
USER: genes 14 Torsion [N]-CA--C-[N] |==|  0.91153
USER: genes 15 Torsion [C]-N--CA-[CB] |==|  0.28587
USER: genes 16 Torsion [N]-CA--C-[N] |==|  0.37479
USER: genes 17 Torsion [C]-N--CA-[C] |==|  0.53778
USER: genes 18 Torsion [N]-CA--C-[O] |==|  0.95196
USER: genes 19 Torsion [N]-CA--CB-[CG2] |==|  0.41753
USER: genes 20 Torsion [CA]-CB--OG1-[HG1] |==|  0.09533
USER: genes 21 Torsion [N]-CA--CB-[CG] |==|  0.58785
USER: genes 22 Torsion [CA]-CB--CG-[OD1] |==|  0.94581
ROOT
ATOM      1  CA  GLN M   5      33.051  12.978  -6.080  1.00 40.28 LIG 0.18  C 
ENDROOT
BRANCH 1 2
ATOM      2  N   GLN M   5      32.787  12.878  -7.494  1.00 45.46 LIG-0.35  N 
ATOM      3 H    GLN M   5      32.398  12.155  -7.751  1.00 45.46 LIG 0.16  HD
ATOM      4  C   PRO M   4      33.153  13.888  -8.295  1.00 50.59 LIG 0.24  C 
ATOM      5 O    PRO M   4      33.636  14.925  -7.810  1.00 50.33 LIG-0.27  OA
BRANCH 4 6
ATOM      6  CA  PRO M   4      32.945  13.776  -9.803  1.00 53.72 LIG 0.18  C 
ATOM      7  N   PRO M   4      32.739  15.021 -10.547  1.00 55.45 LIG-0.34  N 
ATOM      8  CD  PRO M   4      33.711  15.102 -11.644  1.00 56.03 LIG 0.13  C 
ATOM      9  C   HIS M   3      31.680  15.844 -10.377  1.00 54.96 LIG 0.24  C 
ATOM     10  CG  PRO M   4      34.865  14.285 -11.121  1.00 55.72 LIG 0.02  C 
ATOM     11  CB  PRO M   4      34.120  13.118 -10.521  1.00 52.77 LIG 0.04  C 
ATOM     12 O    HIS M   3      30.746  15.557  -9.613  1.00 54.31 LIG-0.27  OA
BRANCH 9 13
ATOM     13  CA  HIS M   3      31.611  17.174 -11.133  1.00 53.95 LIG 0.18  C 
BRANCH 13 14
ATOM     14  N   HIS M   3      30.416  17.148 -11.954  1.00 55.94 LIG-0.34  N 
ATOM     15  C   SER M   2      30.290  16.274 -12.945  0.19 53.43 LIG 0.26  C 
ATOM     16 O    SER M   2      31.224  15.549 -13.314  0.19 53.78 LIG-0.27  OA
ATOM     17 H    HIS M   3      29.821  17.731 -11.742  1.00 55.94 LIG 0.16  HD
BRANCH 15 18
ATOM     18  CA  SER M   2      28.979  16.190 -13.714  0.19 52.30 LIG 0.42  C 
ATOM     19  N   SER M   2      29.353  15.493 -14.921  0.19 52.36 LIG 0.62  N 
BRANCH 18 20
ATOM     20  CB  SER M   2      27.947  15.331 -12.994  0.19 51.64 LIG 0.21  C 
BRANCH 20 21
ATOM     21 OG   SER M   2      26.663  15.929 -13.190  0.19 50.47 LIG-0.40  OA
ATOM     22 HG   SER M   2      26.244  15.940 -12.462  0.19 50.47 LIG 0.21  HD
ENDBRANCH 20 21
ENDBRANCH 18 20
ENDBRANCH 15 18
ENDBRANCH 13 14
BRANCH 13 23
ATOM     23  CB  HIS M   3      31.560  18.324 -10.133  1.00 50.96 LIG 0.10  C 
BRANCH 23 24
ATOM     24  CG  HIS M   3      32.923  18.501  -9.483  1.00 47.24 LIG 0.06  A 
ATOM     25  CD2 HIS M   3      33.852  19.441  -9.824  1.00 45.19 LIG 0.14  A 
ATOM     26 NE2  HIS M   3      34.851  19.103  -9.063  1.00 45.41 LIG-0.25  NA
ATOM     27  CE1 HIS M   3      34.547  18.052  -8.325  1.00 46.27 LIG 0.23  A 
ATOM     28 ND1  HIS M   3      33.326  17.645  -8.570  1.00 45.18 LIG-0.24  NA
ENDBRANCH 23 24
ENDBRANCH 13 23
ENDBRANCH 9 13
ENDBRANCH 4 6
ENDBRANCH 1 2
BRANCH 1 29
ATOM     29  CB  GLN M   5      32.471  11.820  -5.318  1.00 37.25 LIG 0.04  C 
BRANCH 29 30
ATOM     30  CG  GLN M   5      33.253  11.565  -4.026  1.00 28.05 LIG 0.10  C 
BRANCH 30 31
ATOM     31  CD  GLN M   5      34.157  10.363  -4.151  1.00 28.89 LIG 0.21  C 
ATOM     32  NE2 GLN M   5      34.905  10.055  -3.092  1.00 21.10 LIG-0.37  N 
ATOM     33 22HE GLN M   5      35.418   9.365  -3.115  1.00 21.10 LIG 0.16  HD
ATOM     34 21HE GLN M   5      34.875  10.546  -2.387  1.00 21.10 LIG 0.16  HD
ATOM     35 OE1  GLN M   5      34.163   9.690  -5.189  1.00 23.17 LIG-0.27  OA
ENDBRANCH 30 31
ENDBRANCH 29 30
ENDBRANCH 1 29
BRANCH 1 36
ATOM     36  C   GLN M   5      34.546  12.971  -5.876  1.00 41.58 LIG 0.24  C 
ATOM     37  N   ASN M   6      35.302  12.277  -6.727  1.00 44.37 LIG-0.35  N 
ATOM     38 H    ASN M   6      35.002  11.871  -7.424  1.00 44.37 LIG 0.16  HD
ATOM     39 O    GLN M   5      35.023  13.596  -4.934  1.00 41.62 LIG-0.27  OA
BRANCH 37 40
ATOM     40  CA  ASN M   6      36.740  12.159  -6.525  1.00 43.99 LIG 0.18  C 
BRANCH 40 41
ATOM     41  C   ASN M   6      37.449  12.369  -7.843  1.00 43.58 LIG 0.24  C 
ATOM     42  N   THR M   7      38.504  13.168  -7.778  0.00 42.61 LIG-0.34  N 
ATOM     43 H    THR M   7      38.765  13.535  -7.045  0.00 42.61 LIG 0.16  HD
ATOM     44 O    ASN M   6      37.019  11.830  -8.866  1.00 43.76 LIG-0.27  OA
BRANCH 42 45
ATOM     45  CA  THR M   7      39.324  13.512  -8.909  0.00 41.90 LIG 0.21  C 
BRANCH 45 46
ATOM     46  C   THR M   7      40.612  14.159  -8.380  0.00 41.61 LIG 0.20  C 
ATOM     47 O    THR M   7      40.664  14.589  -7.223  0.00 41.59 LIG-0.65  OA
ATOM     48 OXT  THR M   7      41.577  14.234  -9.132  0.00 41.57 LIG-0.65  OA
ENDBRANCH 45 46
BRANCH 45 49
ATOM     49  CB  THR M   7      38.481  14.466  -9.807  0.00 41.89 LIG 0.15  C 
ATOM     50  CG2 THR M   7      39.314  15.471 -10.606  0.00 41.51 LIG 0.04  C 
BRANCH 49 51
ATOM     51 OG1  THR M   7      37.744  13.631 -10.691  0.00 41.42 LIG-0.39  OA
ATOM     52 HG1  THR M   7      37.535  12.920 -10.295  0.00 41.42 LIG 0.21  HD
ENDBRANCH 49 51
ENDBRANCH 45 49
ENDBRANCH 42 45
ENDBRANCH 40 41
BRANCH 40 53
ATOM     53  CB  ASN M   6      37.088  10.776  -5.952  1.00 43.29 LIG 0.14  C 
BRANCH 53 54
ATOM     54  CG  ASN M   6      38.305  10.696  -5.013  1.00 43.53 LIG 0.22  C 
ATOM     55 OD1  ASN M   6      39.197  11.545  -4.962  1.00 39.33 LIG-0.27  OA
ATOM     56  ND2 ASN M   6      38.467   9.645  -4.222  1.00 45.48 LIG-0.37  N 
ATOM     57 22HD ASN M   6      37.877   9.019  -4.213  1.00 45.48 LIG 0.16  HD
ATOM     58 21HD ASN M   6      39.160   9.590  -3.716  1.00 45.48 LIG 0.16  HD
ENDBRANCH 53 54
ENDBRANCH 40 53
ENDBRANCH 37 40
ENDBRANCH 1 36
TORSDOF 21
ENDMDL
MODEL 9
USER: ADFR SOLUTION from run 84
USER: SCORE 14.871474 LL:  -3.952 LR: -12.172 RR:   0.000 FEB:  -5.908
USER: RMSD 3.856542
USER: SEED 83
USER: STATUS searching
USER: GENES 23
USER: genes 0 Translation |==|  0.46701 0.52237 0.72379
USER: genes 1 Rotation |==|  0.31938 0.50973 0.49054 0.96604
USER: genes 2 Torsion [C]-CA--N-[C] |==|  0.80292
USER: genes 3 Torsion [N]-C--CA-[CB] |==|  0.61623
USER: genes 4 Torsion [N]-C--CA-[N] |==|  0.39419
USER: genes 5 Torsion [C]-CA--N-[C] |==|  0.76140
USER: genes 6 Torsion [N]-C--CA-[N] |==|  0.45660
USER: genes 7 Torsion [C]-CA--CB-[OG] |==|  0.57628
USER: genes 8 Torsion [CA]-CB--OG-[HG] |==|  0.79076
USER: genes 9 Torsion [C]-CA--CB-[CG] |==|  0.17889
USER: genes 10 Torsion [CA]-CB--CG-[CD2] |==|  0.23776
USER: genes 11 Torsion [N]-CA--CB-[CG] |==|  0.17626
USER: genes 12 Torsion [CA]-CB--CG-[CD] |==|  0.60707
USER: genes 13 Torsion [CB]-CG--CD-[NE2] |==|  0.64269
USER: genes 14 Torsion [N]-CA--C-[N] |==|  0.95021
USER: genes 15 Torsion [C]-N--CA-[CB] |==|  0.27772
USER: genes 16 Torsion [N]-CA--C-[N] |==|  0.35820
USER: genes 17 Torsion [C]-N--CA-[C] |==|  0.77401
USER: genes 18 Torsion [N]-CA--C-[O] |==|  0.14250
USER: genes 19 Torsion [N]-CA--CB-[CG2] |==|  0.70124
USER: genes 20 Torsion [CA]-CB--OG1-[HG1] |==|  0.27073
USER: genes 21 Torsion [N]-CA--CB-[CG] |==|  0.86135
USER: genes 22 Torsion [CA]-CB--CG-[OD1] |==|  0.92551
ROOT
ATOM      1  CA  GLN M   5      34.952  14.223  -5.719  1.00 40.28 LIG 0.18  C 
ENDROOT
BRANCH 1 2
ATOM      2  N   GLN M   5      34.398  13.928  -7.018  1.00 45.46 LIG-0.35  N 
ATOM      3 H    GLN M   5      33.801  13.309  -7.037  1.00 45.46 LIG 0.16  HD
ATOM      4  C   PRO M   4      34.836  14.616  -8.081  1.00 50.59 LIG 0.24  C 
ATOM      5 O    PRO M   4      35.645  15.547  -7.932  1.00 50.33 LIG-0.27  OA
BRANCH 4 6
ATOM      6  CA  PRO M   4      34.314  14.276  -9.474  1.00 53.72 LIG 0.18  C 
ATOM      7  N   PRO M   4      33.279  15.148 -10.037  1.00 55.45 LIG-0.34  N 
ATOM      8  CD  PRO M   4      33.711  15.633 -11.353  1.00 56.03 LIG 0.13  C 
ATOM      9  C   HIS M   3      32.040  15.293  -9.516  1.00 54.96 LIG 0.24  C 
ATOM     10  CG  PRO M   4      35.213  15.606 -11.236  1.00 55.72 LIG 0.02  C 
ATOM     11  CB  PRO M   4      35.406  14.281 -10.540  1.00 52.77 LIG 0.04  C 
ATOM     12 O    HIS M   3      31.657  14.624  -8.544  1.00 54.31 LIG-0.27  OA
BRANCH 9 13
ATOM     13  CA  HIS M   3      31.067  16.309 -10.120  1.00 53.95 LIG 0.18  C 
BRANCH 13 14
ATOM     14  N   HIS M   3      29.744  15.716 -10.090  1.00 55.94 LIG-0.34  N 
ATOM     15  C   SER M   2      29.329  14.925 -11.073  0.19 53.43 LIG 0.26  C 
ATOM     16 O    SER M   2      29.974  14.772 -12.119  0.19 53.78 LIG-0.27  OA
ATOM     17 H    HIS M   3      29.273  15.919  -9.400  1.00 55.94 LIG 0.16  HD
BRANCH 15 18
ATOM     18  CA  SER M   2      27.984  14.223 -10.959  0.19 52.30 LIG 0.42  C 
ATOM     19  N   SER M   2      27.723  13.796 -12.313  0.19 52.36 LIG 0.62  N 
BRANCH 18 20
ATOM     20  CB  SER M   2      28.062  12.970 -10.095  0.19 51.64 LIG 0.21  C 
BRANCH 20 21
ATOM     21 OG   SER M   2      27.043  12.069 -10.534  0.19 50.47 LIG-0.40  OA
ATOM     22 HG   SER M   2      26.295  12.337 -10.262  0.19 50.47 LIG 0.21  HD
ENDBRANCH 20 21
ENDBRANCH 18 20
ENDBRANCH 15 18
ENDBRANCH 13 14
BRANCH 13 23
ATOM     23  CB  HIS M   3      31.105  17.596  -9.304  1.00 50.96 LIG 0.10  C 
BRANCH 23 24
ATOM     24  CG  HIS M   3      32.483  18.231  -9.411  1.00 47.24 LIG 0.06  A 
ATOM     25  CD2 HIS M   3      32.898  19.072 -10.404  1.00 45.19 LIG 0.14  A 
ATOM     26 NE2  HIS M   3      34.150  19.237 -10.093  1.00 45.41 LIG-0.25  NA
ATOM     27  CE1 HIS M   3      34.460  18.557  -9.006  1.00 46.27 LIG 0.23  A 
ATOM     28 ND1  HIS M   3      33.419  17.905  -8.548  1.00 45.18 LIG-0.24  NA
ENDBRANCH 23 24
ENDBRANCH 13 23
ENDBRANCH 9 13
ENDBRANCH 4 6
ENDBRANCH 1 2
BRANCH 1 29
ATOM     29  CB  GLN M   5      34.192  13.542  -4.617  1.00 37.25 LIG 0.04  C 
BRANCH 29 30
ATOM     30  CG  GLN M   5      34.287  12.019  -4.742  1.00 28.05 LIG 0.10  C 
BRANCH 30 31
ATOM     31  CD  GLN M   5      32.982  11.349  -4.389  1.00 28.89 LIG 0.21  C 
ATOM     32  NE2 GLN M   5      33.030  10.362  -3.495  1.00 21.10 LIG-0.37  N 
ATOM     33 22HE GLN M   5      32.306   9.968  -3.251  1.00 21.10 LIG 0.16  HD
ATOM     34 21HE GLN M   5      33.785  10.119  -3.163  1.00 21.10 LIG 0.16  HD
ATOM     35 OE1  GLN M   5      31.922  11.736  -4.896  1.00 23.17 LIG-0.27  OA
ENDBRANCH 30 31
ENDBRANCH 29 30
ENDBRANCH 1 29
BRANCH 1 36
ATOM     36  C   GLN M   5      36.375  13.720  -5.687  1.00 41.58 LIG 0.24  C 
ATOM     37  N   ASN M   6      36.756  12.826  -6.599  1.00 44.37 LIG-0.35  N 
ATOM     38 H    ASN M   6      36.260  12.550  -7.246  1.00 44.37 LIG 0.16  HD
ATOM     39 O    GLN M   5      37.137  14.141  -4.822  1.00 41.62 LIG-0.27  OA
BRANCH 37 40
ATOM     40  CA  ASN M   6      38.088  12.238  -6.558  1.00 43.99 LIG 0.18  C 
BRANCH 40 41
ATOM     41  C   ASN M   6      38.639  12.151  -7.963  1.00 43.58 LIG 0.24  C 
ATOM     42  N   THR M   7      39.852  12.665  -8.110  0.00 42.61 LIG-0.34  N 
ATOM     43 H    THR M   7      40.290  13.016  -7.458  0.00 42.61 LIG 0.16  HD
ATOM     44 O    ASN M   6      37.958  11.651  -8.862  1.00 43.76 LIG-0.27  OA
BRANCH 42 45
ATOM     45  CA  THR M   7      40.568  12.696  -9.357  0.00 41.90 LIG 0.21  C 
BRANCH 45 46
ATOM     46  C   THR M   7      41.216  11.320  -9.564  0.00 41.61 LIG 0.20  C 
ATOM     47 O    THR M   7      40.540  10.291  -9.468  0.00 41.59 LIG-0.65  OA
ATOM     48 OXT  THR M   7      42.413  11.274  -9.825  0.00 41.57 LIG-0.65  OA
ENDBRANCH 45 46
BRANCH 45 49
ATOM     49  CB  THR M   7      41.604  13.855  -9.257  0.00 41.89 LIG 0.15  C 
ATOM     50  CG2 THR M   7      41.254  15.082 -10.103  0.00 41.51 LIG 0.04  C 
BRANCH 49 51
ATOM     51 OG1  THR M   7      41.669  14.212  -7.883  0.00 41.42 LIG-0.39  OA
ATOM     52 HG1  THR M   7      42.327  13.831  -7.525  0.00 41.42 LIG 0.21  HD
ENDBRANCH 49 51
ENDBRANCH 45 49
ENDBRANCH 42 45
ENDBRANCH 40 41
BRANCH 40 53
ATOM     53  CB  ASN M   6      38.036  10.839  -5.924  1.00 43.29 LIG 0.14  C 
BRANCH 53 54
ATOM     54  CG  ASN M   6      37.297  10.709  -4.580  1.00 43.53 LIG 0.22  C 
ATOM     55 OD1  ASN M   6      37.170  11.628  -3.769  1.00 39.33 LIG-0.27  OA
ATOM     56  ND2 ASN M   6      36.785   9.543  -4.212  1.00 45.48 LIG-0.37  N 
ATOM     57 22HD ASN M   6      36.843   8.864  -4.736  1.00 45.48 LIG 0.16  HD
ATOM     58 21HD ASN M   6      36.395   9.466  -3.449  1.00 45.48 LIG 0.16  HD
ENDBRANCH 53 54
ENDBRANCH 40 53
ENDBRANCH 37 40
ENDBRANCH 1 36
TORSDOF 21
ENDMDL
MODEL 10
USER: ADFR SOLUTION from run 110
USER: SCORE 14.017283 LL:  -3.756 LR: -11.922 RR:   0.000 FEB:  -5.658
USER: RMSD 2.537006
USER: SEED 109
USER: STATUS no improvement in best in 7 clusters for 5 generations
USER: GENES 23
USER: genes 0 Translation |==|  0.44260 0.50970 0.67218
USER: genes 1 Rotation |==|  0.50969 0.49876 0.43202 0.99526
USER: genes 2 Torsion [C]-CA--N-[C] |==|  0.76493
USER: genes 3 Torsion [N]-C--CA-[CB] |==|  0.40269
USER: genes 4 Torsion [N]-C--CA-[N] |==|  0.28465
USER: genes 5 Torsion [C]-CA--N-[C] |==|  0.72548
USER: genes 6 Torsion [N]-C--CA-[N] |==|  0.10397
USER: genes 7 Torsion [C]-CA--CB-[OG] |==|  0.19402
USER: genes 8 Torsion [CA]-CB--OG-[HG] |==|  0.79918
USER: genes 9 Torsion [C]-CA--CB-[CG] |==|  0.23663
USER: genes 10 Torsion [CA]-CB--CG-[CD2] |==|  0.26060
USER: genes 11 Torsion [N]-CA--CB-[CG] |==|  0.44326
USER: genes 12 Torsion [CA]-CB--CG-[CD] |==|  0.40869
USER: genes 13 Torsion [CB]-CG--CD-[NE2] |==|  0.53971
USER: genes 14 Torsion [N]-CA--C-[N] |==|  0.90367
USER: genes 15 Torsion [C]-N--CA-[CB] |==|  0.49444
USER: genes 16 Torsion [N]-CA--C-[N] |==|  0.77838
USER: genes 17 Torsion [C]-N--CA-[C] |==|  0.48687
USER: genes 18 Torsion [N]-CA--C-[O] |==|  0.93575
USER: genes 19 Torsion [N]-CA--CB-[CG2] |==|  0.31736
USER: genes 20 Torsion [CA]-CB--OG1-[HG1] |==|  0.49092
USER: genes 21 Torsion [N]-CA--CB-[CG] |==|  0.49993
USER: genes 22 Torsion [CA]-CB--CG-[OD1] |==|  0.07957
ROOT
ATOM      1  CA  GLN M   5      34.422  14.004  -6.842  1.00 40.28 LIG 0.18  C 
ENDROOT
BRANCH 1 2
ATOM      2  N   GLN M   5      34.116  14.808  -8.001  1.00 45.46 LIG-0.35  N 
ATOM      3 H    GLN M   5      33.585  14.450  -8.574  1.00 45.46 LIG 0.16  HD
ATOM      4  C   PRO M   4      34.666  16.026  -8.107  1.00 50.59 LIG 0.24  C 
ATOM      5 O    PRO M   4      35.358  16.481  -7.182  1.00 50.33 LIG-0.27  OA
BRANCH 4 6
ATOM      6  CA  PRO M   4      34.412  16.867  -9.355  1.00 53.72 LIG 0.18  C 
ATOM      7  N   PRO M   4      33.193  16.587 -10.119  1.00 55.45 LIG-0.34  N 
ATOM      8  CD  PRO M   4      32.423  17.825 -10.284  1.00 56.03 LIG 0.13  C 
ATOM      9  C   HIS M   3      32.943  15.419 -10.752  1.00 54.96 LIG 0.24  C 
ATOM     10  CG  PRO M   4      32.830  18.628  -9.074  1.00 55.72 LIG 0.02  C 
ATOM     11  CB  PRO M   4      34.316  18.361  -9.059  1.00 52.77 LIG 0.04  C 
ATOM     12 O    HIS M   3      33.783  14.507 -10.796  1.00 54.31 LIG-0.27  OA
BRANCH 9 13
ATOM     13  CA  HIS M   3      31.593  15.190 -11.437  1.00 53.95 LIG 0.18  C 
BRANCH 13 14
ATOM     14  N   HIS M   3      31.791  15.369 -12.862  1.00 55.94 LIG-0.34  N 
ATOM     15  C   SER M   2      31.477  16.514 -13.456  0.19 53.43 LIG 0.26  C 
ATOM     16 O    SER M   2      30.871  17.421 -12.869  0.19 53.78 LIG-0.27  OA
ATOM     17 H    HIS M   3      32.120  14.686 -13.269  1.00 55.94 LIG 0.16  HD
BRANCH 15 18
ATOM     18  CA  SER M   2      31.805  16.715 -14.928  0.19 52.30 LIG 0.42  C 
ATOM     19  N   SER M   2      31.554  15.413 -15.498  0.19 52.36 LIG 0.62  N 
BRANCH 18 20
ATOM     20  CB  SER M   2      30.853  17.696 -15.600  0.19 51.64 LIG 0.21  C 
BRANCH 20 21
ATOM     21 OG   SER M   2      31.129  19.001 -15.083  0.19 50.47 LIG-0.40  OA
ATOM     22 HG   SER M   2      30.853  19.053 -14.291  0.19 50.47 LIG 0.21  HD
ENDBRANCH 20 21
ENDBRANCH 18 20
ENDBRANCH 15 18
ENDBRANCH 13 14
BRANCH 13 23
ATOM     23  CB  HIS M   3      31.099  13.781 -11.128  1.00 50.96 LIG 0.10  C 
BRANCH 23 24
ATOM     24  CG  HIS M   3      30.361  13.776  -9.799  1.00 47.24 LIG 0.06  A 
ATOM     25  CD2 HIS M   3      29.012  13.918  -9.635  1.00 45.19 LIG 0.14  A 
ATOM     26 NE2  HIS M   3      28.913  13.950  -8.339  1.00 45.41 LIG-0.25  NA
ATOM     27  CE1 HIS M   3      30.099  13.834  -7.772  1.00 46.27 LIG 0.23  A 
ATOM     28 ND1  HIS M   3      31.041  13.722  -8.675  1.00 45.18 LIG-0.24  NA
ENDBRANCH 23 24
ENDBRANCH 13 23
ENDBRANCH 9 13
ENDBRANCH 4 6
ENDBRANCH 1 2
BRANCH 1 29
ATOM     29  CB  GLN M   5      33.355  12.980  -6.573  1.00 37.25 LIG 0.04  C 
BRANCH 29 30
ATOM     30  CG  GLN M   5      33.894  11.842  -5.702  1.00 28.05 LIG 0.10  C 
BRANCH 30 31
ATOM     31  CD  GLN M   5      32.825  11.286  -4.792  1.00 28.89 LIG 0.21  C 
ATOM     32  NE2 GLN M   5      33.229  10.505  -3.790  1.00 21.10 LIG-0.37  N 
ATOM     33 22HE GLN M   5      32.654  10.184  -3.237  1.00 21.10 LIG 0.16  HD
ATOM     34 21HE GLN M   5      34.064  10.321  -3.698  1.00 21.10 LIG 0.16  HD
ATOM     35 OE1  GLN M   5      31.637  11.581  -4.968  1.00 23.17 LIG-0.27  OA
ENDBRANCH 30 31
ENDBRANCH 29 30
ENDBRANCH 1 29
BRANCH 1 36
ATOM     36  C   GLN M   5      35.717  13.275  -7.100  1.00 41.58 LIG 0.24  C 
ATOM     37  N   ASN M   6      35.984  12.869  -8.341  1.00 44.37 LIG-0.35  N 
ATOM     38 H    ASN M   6      35.490  13.039  -9.024  1.00 44.37 LIG 0.16  HD
ATOM     39 O    GLN M   5      36.484  13.072  -6.163  1.00 41.62 LIG-0.27  OA
BRANCH 37 40
ATOM     40  CA  ASN M   6      37.174  12.080  -8.629  1.00 43.99 LIG 0.18  C 
BRANCH 40 41
ATOM     41  C   ASN M   6      38.404  12.878  -8.259  1.00 43.58 LIG 0.24  C 
ATOM     42  N   THR M   7      38.762  13.785  -9.158  0.00 42.61 LIG-0.34  N 
ATOM     43 H    THR M   7      38.327  13.910  -9.889  0.00 42.61 LIG 0.16  HD
ATOM     44 O    ASN M   6      38.996  12.642  -7.203  1.00 43.76 LIG-0.27  OA
BRANCH 42 45
ATOM     45  CA  THR M   7      39.901  14.651  -9.017  0.00 41.90 LIG 0.21  C 
BRANCH 45 46
ATOM     46  C   THR M   7      40.040  15.463 -10.312  0.00 41.61 LIG 0.20  C 
ATOM     47 O    THR M   7      39.556  15.042 -11.367  0.00 41.59 LIG-0.65  OA
ATOM     48 OXT  THR M   7      40.641  16.531 -10.268  0.00 41.57 LIG-0.65  OA
ENDBRANCH 45 46
BRANCH 45 49
ATOM     49  CB  THR M   7      41.131  13.740  -8.727  0.00 41.89 LIG 0.15  C 
ATOM     50  CG2 THR M   7      42.188  13.744  -9.834  0.00 41.51 LIG 0.04  C 
BRANCH 49 51
ATOM     51 OG1  THR M   7      41.696  14.212  -7.510  0.00 41.42 LIG-0.39  OA
ATOM     52 HG1  THR M   7      42.340  13.719  -7.290  0.00 41.42 LIG 0.21  HD
ENDBRANCH 49 51
ENDBRANCH 45 49
ENDBRANCH 42 45
ENDBRANCH 40 41
BRANCH 40 53
ATOM     53  CB  ASN M   6      37.219  11.703 -10.119  1.00 43.29 LIG 0.14  C 
BRANCH 53 54
ATOM     54  CG  ASN M   6      38.421  10.865 -10.591  1.00 43.53 LIG 0.22  C 
ATOM     55 OD1  ASN M   6      39.039  10.077  -9.873  1.00 39.33 LIG-0.27  OA
ATOM     56  ND2 ASN M   6      38.879  10.997 -11.827  1.00 45.48 LIG-0.37  N 
ATOM     57 22HD ASN M   6      38.489  11.533 -12.375  1.00 45.48 LIG 0.16  HD
ATOM     58 21HD ASN M   6      39.567  10.547 -12.081  1.00 45.48 LIG 0.16  HD
ENDBRANCH 53 54
ENDBRANCH 40 53
ENDBRANCH 37 40
ENDBRANCH 1 36
TORSDOF 21
ENDMDL
MODEL 11
USER: ADFR SOLUTION from run 105
USER: SCORE 15.135839 LL:  -4.559 LR: -11.885 RR:   0.000 FEB:  -5.621
USER: RMSD 2.951232
USER: SEED 104
USER: STATUS searching
USER: GENES 23
USER: genes 0 Translation |==|  0.44120 0.51847 0.70513
USER: genes 1 Rotation |==|  0.48379 0.47213 0.44618 0.99605
USER: genes 2 Torsion [C]-CA--N-[C] |==|  0.79751
USER: genes 3 Torsion [N]-C--CA-[CB] |==|  0.26033
USER: genes 4 Torsion [N]-C--CA-[N] |==|  0.49436
USER: genes 5 Torsion [C]-CA--N-[C] |==|  0.58233
USER: genes 6 Torsion [N]-C--CA-[N] |==|  0.07188
USER: genes 7 Torsion [C]-CA--CB-[OG] |==|  0.66434
USER: genes 8 Torsion [CA]-CB--OG-[HG] |==|  0.56292
USER: genes 9 Torsion [C]-CA--CB-[CG] |==|  0.41880
USER: genes 10 Torsion [CA]-CB--CG-[CD2] |==|  0.31807
USER: genes 11 Torsion [N]-CA--CB-[CG] |==|  0.38738
USER: genes 12 Torsion [CA]-CB--CG-[CD] |==|  0.42618
USER: genes 13 Torsion [CB]-CG--CD-[NE2] |==|  0.58478
USER: genes 14 Torsion [N]-CA--C-[N] |==|  0.88451
USER: genes 15 Torsion [C]-N--CA-[CB] |==|  0.23079
USER: genes 16 Torsion [N]-CA--C-[N] |==|  0.41075
USER: genes 17 Torsion [C]-N--CA-[C] |==|  0.79172
USER: genes 18 Torsion [N]-CA--C-[O] |==|  0.91774
USER: genes 19 Torsion [N]-CA--CB-[CG2] |==|  0.86906
USER: genes 20 Torsion [CA]-CB--OG1-[HG1] |==|  0.54871
USER: genes 21 Torsion [N]-CA--CB-[CG] |==|  0.73088
USER: genes 22 Torsion [CA]-CB--CG-[OD1] |==|  0.96904
ROOT
ATOM      1  CA  GLN M   5      34.391  14.156  -6.125  1.00 40.28 LIG 0.18  C 
ENDROOT
BRANCH 1 2
ATOM      2  N   GLN M   5      34.159  14.802  -7.394  1.00 45.46 LIG-0.35  N 
ATOM      3 H    GLN M   5      33.578  14.426  -7.904  1.00 45.46 LIG 0.16  HD
ATOM      4  C   PRO M   4      34.845  15.915  -7.689  1.00 50.59 LIG 0.24  C 
ATOM      5 O    PRO M   4      35.604  16.421  -6.847  1.00 50.33 LIG-0.27  OA
BRANCH 4 6
ATOM      6  CA  PRO M   4      34.666  16.578  -9.052  1.00 53.72 LIG 0.18  C 
ATOM      7  N   PRO M   4      34.263  15.721 -10.170  1.00 55.45 LIG-0.34  N 
ATOM      8  CD  PRO M   4      33.059  16.275 -10.802  1.00 56.03 LIG 0.13  C 
ATOM      9  C   HIS M   3      35.013  14.711 -10.665  1.00 54.96 LIG 0.24  C 
ATOM     10  CG  PRO M   4      32.406  17.020  -9.665  1.00 55.72 LIG 0.02  C 
ATOM     11  CB  PRO M   4      33.613  17.682  -9.046  1.00 52.77 LIG 0.04  C 
ATOM     12 O    HIS M   3      36.158  14.483 -10.247  1.00 54.31 LIG-0.27  OA
BRANCH 9 13
ATOM     13  CA  HIS M   3      34.454  13.808 -11.768  1.00 53.95 LIG 0.18  C 
BRANCH 13 14
ATOM     14  N   HIS M   3      35.494  12.861 -12.123  1.00 55.94 LIG-0.34  N 
ATOM     15  C   SER M   2      35.572  12.365 -13.352  0.19 53.43 LIG 0.26  C 
ATOM     16 O    SER M   2      34.695  12.560 -14.205  0.19 53.78 LIG-0.27  OA
ATOM     17 H    HIS M   3      36.033  12.661 -11.484  1.00 55.94 LIG 0.16  HD
BRANCH 15 18
ATOM     18  CA  SER M   2      36.741  11.466 -13.729  0.19 52.30 LIG 0.42  C 
ATOM     19  N   SER M   2      37.137  10.899 -12.462  0.19 52.36 LIG 0.62  N 
BRANCH 18 20
ATOM     20  CB  SER M   2      36.311  10.312 -14.627  0.19 51.64 LIG 0.21  C 
BRANCH 20 21
ATOM     21 OG   SER M   2      36.642   9.090 -13.962  0.19 50.47 LIG-0.40  OA
ATOM     22 HG   SER M   2      36.709   8.472 -14.527  0.19 50.47 LIG 0.21  HD
ENDBRANCH 20 21
ENDBRANCH 18 20
ENDBRANCH 15 18
ENDBRANCH 13 14
BRANCH 13 23
ATOM     23  CB  HIS M   3      33.213  13.087 -11.254  1.00 50.96 LIG 0.10  C 
BRANCH 23 24
ATOM     24  CG  HIS M   3      32.271  12.798 -12.413  1.00 47.24 LIG 0.06  A 
ATOM     25  CD2 HIS M   3      31.937  11.558 -12.877  1.00 45.19 LIG 0.14  A 
ATOM     26 NE2  HIS M   3      31.211  11.860 -13.913  1.00 45.41 LIG-0.25  NA
ATOM     27  CE1 HIS M   3      31.115  13.168 -14.058  1.00 46.27 LIG 0.23  A 
ATOM     28 ND1  HIS M   3      31.780  13.793 -13.117  1.00 45.18 LIG-0.24  NA
ENDBRANCH 23 24
ENDBRANCH 13 23
ENDBRANCH 9 13
ENDBRANCH 4 6
ENDBRANCH 1 2
BRANCH 1 29
ATOM     29  CB  GLN M   5      33.355  13.107  -5.832  1.00 37.25 LIG 0.04  C 
BRANCH 29 30
ATOM     30  CG  GLN M   5      33.992  11.866  -5.202  1.00 28.05 LIG 0.10  C 
BRANCH 30 31
ATOM     31  CD  GLN M   5      33.009  11.114  -4.339  1.00 28.89 LIG 0.21  C 
ATOM     32  NE2 GLN M   5      33.504  10.450  -3.294  1.00 21.10 LIG-0.37  N 
ATOM     33 22HE GLN M   5      32.975  10.026  -2.765  1.00 21.10 LIG 0.16  HD
ATOM     34 21HE GLN M   5      34.351  10.446  -3.150  1.00 21.10 LIG 0.16  HD
ATOM     35 OE1  GLN M   5      31.798  11.151  -4.591  1.00 23.17 LIG-0.27  OA
ENDBRANCH 30 31
ENDBRANCH 29 30
ENDBRANCH 1 29
BRANCH 1 36
ATOM     36  C   GLN M   5      35.739  13.480  -6.178  1.00 41.58 LIG 0.24  C 
ATOM     37  N   ASN M   6      36.084  12.830  -7.290  1.00 44.37 LIG-0.35  N 
ATOM     38 H    ASN M   6      35.611  12.812  -8.008  1.00 44.37 LIG 0.16  HD
ATOM     39 O    GLN M   5      36.476  13.541  -5.198  1.00 41.62 LIG-0.27  OA
BRANCH 37 40
ATOM     40  CA  ASN M   6      37.332  12.083  -7.362  1.00 43.99 LIG 0.18  C 
BRANCH 40 41
ATOM     41  C   ASN M   6      37.763  11.968  -8.806  1.00 43.58 LIG 0.24  C 
ATOM     42  N   THR M   7      39.076  11.945  -8.988  0.00 42.61 LIG-0.34  N 
ATOM     43 H    THR M   7      39.636  11.988  -8.337  0.00 42.61 LIG 0.16  HD
ATOM     44 O    ASN M   6      36.914  11.925  -9.701  1.00 43.76 LIG-0.27  OA
BRANCH 42 45
ATOM     45  CA  THR M   7      39.708  11.845 -10.276  0.00 41.90 LIG 0.21  C 
BRANCH 45 46
ATOM     46  C   THR M   7      39.566  10.396 -10.762  0.00 41.61 LIG 0.20  C 
ATOM     47 O    THR M   7      39.508   9.469  -9.949  0.00 41.59 LIG-0.65  OA
ATOM     48 OXT  THR M   7      39.513  10.190 -11.969  0.00 41.57 LIG-0.65  OA
ENDBRANCH 45 46
BRANCH 45 49
ATOM     49  CB  THR M   7      41.190  12.289 -10.089  0.00 41.89 LIG 0.15  C 
ATOM     50  CG2 THR M   7      41.360  13.585  -9.294  0.00 41.51 LIG 0.04  C 
BRANCH 49 51
ATOM     51 OG1  THR M   7      41.844  11.217  -9.420  0.00 41.42 LIG-0.39  OA
ATOM     52 HG1  THR M   7      42.564  11.492  -9.087  0.00 41.42 LIG 0.21  HD
ENDBRANCH 49 51
ENDBRANCH 45 49
ENDBRANCH 42 45
ENDBRANCH 40 41
BRANCH 40 53
ATOM     53  CB  ASN M   6      37.154  10.684  -6.751  1.00 43.29 LIG 0.14  C 
BRANCH 53 54
ATOM     54  CG  ASN M   6      37.593  10.501  -5.287  1.00 43.53 LIG 0.22  C 
ATOM     55 OD1  ASN M   6      38.246  11.331  -4.651  1.00 39.33 LIG-0.27  OA
ATOM     56  ND2 ASN M   6      37.308   9.379  -4.642  1.00 45.48 LIG-0.37  N 
ATOM     57 22HD ASN M   6      36.854   8.762  -5.034  1.00 45.48 LIG 0.16  HD
ATOM     58 21HD ASN M   6      37.576   9.268  -3.832  1.00 45.48 LIG 0.16  HD
ENDBRANCH 53 54
ENDBRANCH 40 53
ENDBRANCH 37 40
ENDBRANCH 1 36
TORSDOF 21
ENDMDL
MODEL 12
USER: ADFR SOLUTION from run 87
USER: SCORE 16.450873 LL:  -5.403 LR: -11.802 RR:   0.000 FEB:  -5.538
USER: RMSD 2.478986
USER: SEED 86
USER: STATUS no improvement in best in 4 clusters for 5 generations
USER: GENES 23
USER: genes 0 Translation |==|  0.45595 0.49671 0.64970
USER: genes 1 Rotation |==|  0.49919 0.58045 0.48519 0.99326
USER: genes 2 Torsion [C]-CA--N-[C] |==|  0.78889
USER: genes 3 Torsion [N]-C--CA-[CB] |==|  0.30846
USER: genes 4 Torsion [N]-C--CA-[N] |==|  0.41606
USER: genes 5 Torsion [C]-CA--N-[C] |==|  0.63941
USER: genes 6 Torsion [N]-C--CA-[N] |==|  0.82398
USER: genes 7 Torsion [C]-CA--CB-[OG] |==|  0.22369
USER: genes 8 Torsion [CA]-CB--OG-[HG] |==|  0.62967
USER: genes 9 Torsion [C]-CA--CB-[CG] |==|  0.20783
USER: genes 10 Torsion [CA]-CB--CG-[CD2] |==|  0.21352
USER: genes 11 Torsion [N]-CA--CB-[CG] |==|  0.64535
USER: genes 12 Torsion [CA]-CB--CG-[CD] |==|  0.46433
USER: genes 13 Torsion [CB]-CG--CD-[NE2] |==|  0.34096
USER: genes 14 Torsion [N]-CA--C-[N] |==|  0.93780
USER: genes 15 Torsion [C]-N--CA-[CB] |==|  0.17445
USER: genes 16 Torsion [N]-CA--C-[N] |==|  0.65016
USER: genes 17 Torsion [C]-N--CA-[C] |==|  0.77742
USER: genes 18 Torsion [N]-CA--C-[O] |==|  0.09630
USER: genes 19 Torsion [N]-CA--CB-[CG2] |==|  0.93018
USER: genes 20 Torsion [CA]-CB--OG1-[HG1] |==|  0.24195
USER: genes 21 Torsion [N]-CA--CB-[CG] |==|  0.64581
USER: genes 22 Torsion [CA]-CB--CG-[OD1] |==|  0.66415
ROOT
ATOM      1  CA  GLN M   5      34.712  13.780  -7.331  1.00 40.28 LIG 0.18  C 
ENDROOT
BRANCH 1 2
ATOM      2  N   GLN M   5      33.890  14.463  -8.301  1.00 45.46 LIG-0.35  N 
ATOM      3 H    GLN M   5      33.220  14.016  -8.602  1.00 45.46 LIG 0.16  HD
ATOM      4  C   PRO M   4      34.215  15.712  -8.660  1.00 50.59 LIG 0.24  C 
ATOM      5 O    PRO M   4      35.159  16.296  -8.103  1.00 50.33 LIG-0.27  OA
BRANCH 4 6
ATOM      6  CA  PRO M   4      33.401  16.429  -9.734  1.00 53.72 LIG 0.18  C 
ATOM      7  N   PRO M   4      32.423  15.634 -10.480  1.00 55.45 LIG-0.34  N 
ATOM      8  CD  PRO M   4      31.105  16.275 -10.397  1.00 56.03 LIG 0.13  C 
ATOM      9  C   HIS M   3      32.742  14.601 -11.292  1.00 54.96 LIG 0.24  C 
ATOM     10  CG  PRO M   4      31.184  17.017  -9.087  1.00 55.72 LIG 0.02  C 
ATOM     11  CB  PRO M   4      32.577  17.590  -9.183  1.00 52.77 LIG 0.04  C 
ATOM     12 O    HIS M   3      33.920  14.295 -11.527  1.00 54.31 LIG-0.27  OA
BRANCH 9 13
ATOM     13  CA  HIS M   3      31.635  13.768 -11.945  1.00 53.95 LIG 0.18  C 
BRANCH 13 14
ATOM     14  N   HIS M   3      32.147  13.283 -13.213  1.00 55.94 LIG-0.34  N 
ATOM     15  C   SER M   2      31.449  13.433 -14.332  0.19 53.43 LIG 0.26  C 
ATOM     16 O    SER M   2      30.283  13.851 -14.336  0.19 53.78 LIG-0.27  OA
ATOM     17 H    HIS M   3      32.917  12.904 -13.169  1.00 55.94 LIG 0.16  HD
BRANCH 15 18
ATOM     18  CA  SER M   2      32.060  13.021 -15.663  0.19 52.30 LIG 0.42  C 
ATOM     19  N   SER M   2      33.191  13.909 -15.791  0.19 52.36 LIG 0.62  N 
BRANCH 18 20
ATOM     20  CB  SER M   2      32.603  11.597 -15.629  0.19 51.64 LIG 0.21  C 
BRANCH 20 21
ATOM     21 OG   SER M   2      31.503  10.703 -15.810  0.19 50.47 LIG-0.40  OA
ATOM     22 HG   SER M   2      31.545  10.087 -15.240  0.19 50.47 LIG 0.21  HD
ENDBRANCH 20 21
ENDBRANCH 18 20
ENDBRANCH 15 18
ENDBRANCH 13 14
BRANCH 13 23
ATOM     23  CB  HIS M   3      31.264  12.608 -11.028  1.00 50.96 LIG 0.10  C 
BRANCH 23 24
ATOM     24  CG  HIS M   3      30.438  13.123  -9.859  1.00 47.24 LIG 0.06  A 
ATOM     25  CD2 HIS M   3      29.118  13.467  -9.907  1.00 45.19 LIG 0.14  A 
ATOM     26 NE2  HIS M   3      28.931  13.931  -8.706  1.00 45.41 LIG-0.25  NA
ATOM     27  CE1 HIS M   3      30.042  13.869  -7.998  1.00 46.27 LIG 0.23  A 
ATOM     28 ND1  HIS M   3      31.020  13.359  -8.704  1.00 45.18 LIG-0.24  NA
ENDBRANCH 23 24
ENDBRANCH 13 23
ENDBRANCH 9 13
ENDBRANCH 4 6
ENDBRANCH 1 2
BRANCH 1 29
ATOM     29  CB  GLN M   5      34.029  12.563  -6.775  1.00 37.25 LIG 0.04  C 
BRANCH 29 30
ATOM     30  CG  GLN M   5      34.024  12.586  -5.244  1.00 28.05 LIG 0.10  C 
BRANCH 30 31
ATOM     31  CD  GLN M   5      33.085  11.550  -4.675  1.00 28.89 LIG 0.21  C 
ATOM     32  NE2 GLN M   5      33.607  10.653  -3.840  1.00 21.10 LIG-0.37  N 
ATOM     33 22HE GLN M   5      33.102  10.058  -3.478  1.00 21.10 LIG 0.16  HD
ATOM     34 21HE GLN M   5      34.448  10.668  -3.663  1.00 21.10 LIG 0.16  HD
ATOM     35 OE1  GLN M   5      31.882  11.571  -4.962  1.00 23.17 LIG-0.27  OA
ENDBRANCH 30 31
ENDBRANCH 29 30
ENDBRANCH 1 29
BRANCH 1 36
ATOM     36  C   GLN M   5      35.980  13.334  -8.015  1.00 41.58 LIG 0.24  C 
ATOM     37  N   ASN M   6      35.974  13.192  -9.341  1.00 44.37 LIG-0.35  N 
ATOM     38 H    ASN M   6      35.307  13.389  -9.847  1.00 44.37 LIG 0.16  HD
ATOM     39 O    GLN M   5      36.978  13.110  -7.336  1.00 41.62 LIG-0.27  OA
BRANCH 37 40
ATOM     40  CA  ASN M   6      37.141  12.676 -10.043  1.00 43.99 LIG 0.18  C 
BRANCH 40 41
ATOM     41  C   ASN M   6      36.887  12.717 -11.532  1.00 43.58 LIG 0.24  C 
ATOM     42  N   THR M   7      37.062  11.558 -12.152  0.00 42.61 LIG-0.34  N 
ATOM     43 H    THR M   7      37.298  10.842 -11.739  0.00 42.61 LIG 0.16  HD
ATOM     44 O    ASN M   6      36.567  13.779 -12.073  1.00 43.76 LIG-0.27  OA
BRANCH 42 45
ATOM     45  CA  THR M   7      36.882  11.366 -13.565  0.00 41.90 LIG 0.21  C 
BRANCH 45 46
ATOM     46  C   THR M   7      35.378  11.217 -13.834  0.00 41.61 LIG 0.20  C 
ATOM     47 O    THR M   7      34.559  11.851 -13.162  0.00 41.59 LIG-0.65  OA
ATOM     48 OXT  THR M   7      35.018  10.456 -14.726  0.00 41.57 LIG-0.65  OA
ENDBRANCH 45 46
BRANCH 45 49
ATOM     49  CB  THR M   7      37.706  10.104 -13.961  0.00 41.89 LIG 0.15  C 
ATOM     50  CG2 THR M   7      38.879   9.804 -13.025  0.00 41.51 LIG 0.04  C 
BRANCH 49 51
ATOM     51 OG1  THR M   7      36.790   9.017 -13.960  0.00 41.42 LIG-0.39  OA
ATOM     52 HG1  THR M   7      36.420   8.961 -14.712  0.00 41.42 LIG 0.21  HD
ENDBRANCH 49 51
ENDBRANCH 45 49
ENDBRANCH 42 45
ENDBRANCH 40 41
BRANCH 40 53
ATOM     53  CB  ASN M   6      37.440  11.235  -9.598  1.00 43.29 LIG 0.14  C 
BRANCH 53 54
ATOM     54  CG  ASN M   6      38.873  10.934  -9.123  1.00 43.53 LIG 0.22  C 
ATOM     55 OD1  ASN M   6      39.611  10.095  -9.642  1.00 39.33 LIG-0.27  OA
ATOM     56  ND2 ASN M   6      39.371  11.565  -8.070  1.00 45.48 LIG-0.37  N 
ATOM     57 22HD ASN M   6      38.902  12.162  -7.665  1.00 45.48 LIG 0.16  HD
ATOM     58 21HD ASN M   6      40.162  11.377  -7.790  1.00 45.48 LIG 0.16  HD
ENDBRANCH 53 54
ENDBRANCH 40 53
ENDBRANCH 37 40
ENDBRANCH 1 36
TORSDOF 21
ENDMDL
MODEL 13
USER: ADFR SOLUTION from run 174
USER: SCORE 15.187390 LL:  -4.122 LR: -11.549 RR:   0.000 FEB:  -5.285
USER: RMSD 3.806467
USER: SEED 173
USER: STATUS no improvement in best in 4 clusters for 5 generations
USER: GENES 23
USER: genes 0 Translation |==|  0.43013 0.52260 0.67967
USER: genes 1 Rotation |==|  0.49767 0.49542 0.51650 0.99970
USER: genes 2 Torsion [C]-CA--N-[C] |==|  0.82637
USER: genes 3 Torsion [N]-C--CA-[CB] |==|  0.31925
USER: genes 4 Torsion [N]-C--CA-[N] |==|  0.39012
USER: genes 5 Torsion [C]-CA--N-[C] |==|  0.82530
USER: genes 6 Torsion [N]-C--CA-[N] |==|  0.72118
USER: genes 7 Torsion [C]-CA--CB-[OG] |==|  0.83131
USER: genes 8 Torsion [CA]-CB--OG-[HG] |==|  0.95504
USER: genes 9 Torsion [C]-CA--CB-[CG] |==|  0.20152
USER: genes 10 Torsion [CA]-CB--CG-[CD2] |==|  0.21336
USER: genes 11 Torsion [N]-CA--CB-[CG] |==|  0.55566
USER: genes 12 Torsion [CA]-CB--CG-[CD] |==|  0.46342
USER: genes 13 Torsion [CB]-CG--CD-[NE2] |==|  0.38895
USER: genes 14 Torsion [N]-CA--C-[N] |==|  0.86778
USER: genes 15 Torsion [C]-N--CA-[CB] |==|  0.88333
USER: genes 16 Torsion [N]-CA--C-[N] |==|  0.88659
USER: genes 17 Torsion [C]-N--CA-[C] |==|  0.77398
USER: genes 18 Torsion [N]-CA--C-[O] |==|  0.87473
USER: genes 19 Torsion [N]-CA--CB-[CG2] |==|  0.96281
USER: genes 20 Torsion [CA]-CB--OG1-[HG1] |==|  0.39718
USER: genes 21 Torsion [N]-CA--CB-[CG] |==|  0.50923
USER: genes 22 Torsion [CA]-CB--CG-[OD1] |==|  0.32039
ROOT
ATOM      1  CA  GLN M   5      34.150  14.227  -6.679  1.00 40.28 LIG 0.18  C 
ENDROOT
BRANCH 1 2
ATOM      2  N   GLN M   5      33.621  14.827  -7.879  1.00 45.46 LIG-0.35  N 
ATOM      3 H    GLN M   5      33.011  14.377  -8.284  1.00 45.46 LIG 0.16  HD
ATOM      4  C   PRO M   4      34.100  16.014  -8.275  1.00 50.59 LIG 0.24  C 
ATOM      5 O    PRO M   4      34.926  16.620  -7.572  1.00 50.33 LIG-0.27  OA
BRANCH 4 6
ATOM      6  CA  PRO M   4      33.605  16.638  -9.578  1.00 53.72 LIG 0.18  C 
ATOM      7  N   PRO M   4      32.704  15.834 -10.408  1.00 55.45 LIG-0.34  N 
ATOM      8  CD  PRO M   4      31.482  16.597 -10.686  1.00 56.03 LIG 0.13  C 
ATOM      9  C   HIS M   3      33.051  14.668 -10.999  1.00 54.96 LIG 0.24  C 
ATOM     10  CG  PRO M   4      31.390  17.513  -9.492  1.00 55.72 LIG 0.02  C 
ATOM     11  CB  PRO M   4      32.832  17.936  -9.362  1.00 52.77 LIG 0.04  C 
ATOM     12 O    HIS M   3      34.208  14.225 -10.940  1.00 54.31 LIG-0.27  OA
BRANCH 9 13
ATOM     13  CA  HIS M   3      32.004  13.853 -11.762  1.00 53.95 LIG 0.18  C 
BRANCH 13 14
ATOM     14  N   HIS M   3      32.645  13.322 -12.949  1.00 55.94 LIG-0.34  N 
ATOM     15  C   SER M   2      33.122  14.133 -13.887  0.19 53.43 LIG 0.26  C 
ATOM     16 O    SER M   2      32.917  15.354 -13.874  0.19 53.78 LIG-0.27  OA
ATOM     17 H    HIS M   3      32.685  12.464 -12.984  1.00 55.94 LIG 0.16  HD
BRANCH 15 18
ATOM     18  CA  SER M   2      33.894  13.554 -15.063  0.19 52.30 LIG 0.42  C 
ATOM     19  N   SER M   2      35.270  13.791 -14.699  0.19 52.36 LIG 0.62  N 
BRANCH 18 20
ATOM     20  CB  SER M   2      33.710  12.046 -15.183  0.19 51.64 LIG 0.21  C 
BRANCH 20 21
ATOM     21 OG   SER M   2      34.201  11.445 -13.982  0.19 50.47 LIG-0.40  OA
ATOM     22 HG   SER M   2      34.679  11.998 -13.568  0.19 50.47 LIG 0.21  HD
ENDBRANCH 20 21
ENDBRANCH 18 20
ENDBRANCH 15 18
ENDBRANCH 13 14
BRANCH 13 23
ATOM     23  CB  HIS M   3      31.489  12.727 -10.872  1.00 50.96 LIG 0.10  C 
BRANCH 23 24
ATOM     24  CG  HIS M   3      30.593  13.300  -9.785  1.00 47.24 LIG 0.06  A 
ATOM     25  CD2 HIS M   3      29.303  13.715  -9.953  1.00 45.19 LIG 0.14  A 
ATOM     26 NE2  HIS M   3      29.036  14.204  -8.778  1.00 45.41 LIG-0.25  NA
ATOM     27  CE1 HIS M   3      30.074  14.091  -7.973  1.00 46.27 LIG 0.23  A 
ATOM     28 ND1  HIS M   3      31.082  13.519  -8.585  1.00 45.18 LIG-0.24  NA
ENDBRANCH 23 24
ENDBRANCH 13 23
ENDBRANCH 9 13
ENDBRANCH 4 6
ENDBRANCH 1 2
BRANCH 1 29
ATOM     29  CB  GLN M   5      33.478  12.921  -6.362  1.00 37.25 LIG 0.04  C 
BRANCH 29 30
ATOM     30  CG  GLN M   5      33.670  12.547  -4.890  1.00 28.05 LIG 0.10  C 
BRANCH 30 31
ATOM     31  CD  GLN M   5      32.750  11.424  -4.477  1.00 28.89 LIG 0.21  C 
ATOM     32  NE2 GLN M   5      33.255  10.494  -3.667  1.00 21.10 LIG-0.37  N 
ATOM     33 22HE GLN M   5      32.758   9.848  -3.392  1.00 21.10 LIG 0.16  HD
ATOM     34 21HE GLN M   5      34.077  10.539  -3.420  1.00 21.10 LIG 0.16  HD
ATOM     35 OE1  GLN M   5      31.574  11.404  -4.862  1.00 23.17 LIG-0.27  OA
ENDBRANCH 30 31
ENDBRANCH 29 30
ENDBRANCH 1 29
BRANCH 1 36
ATOM     36  C   GLN M   5      35.619  13.958  -6.892  1.00 41.58 LIG 0.24  C 
ATOM     37  N   ASN M   6      36.001  13.359  -8.021  1.00 44.37 LIG-0.35  N 
ATOM     38 H    ASN M   6      35.470  13.158  -8.667  1.00 44.37 LIG 0.16  HD
ATOM     39 O    GLN M   5      36.420  14.291  -6.024  1.00 41.62 LIG-0.27  OA
BRANCH 37 40
ATOM     40  CA  ASN M   6      37.393  12.991  -8.238  1.00 43.99 LIG 0.18  C 
BRANCH 40 41
ATOM     41  C   ASN M   6      37.695  11.713  -7.490  1.00 43.58 LIG 0.24  C 
ATOM     42  N   THR M   7      37.154  11.643  -6.282  0.00 42.61 LIG-0.34  N 
ATOM     43 H    THR M   7      36.668  12.272  -5.953  0.00 42.61 LIG 0.16  HD
ATOM     44 O    ASN M   6      38.413  10.852  -8.006  1.00 43.76 LIG-0.27  OA
BRANCH 42 45
ATOM     45  CA  THR M   7      37.313  10.524  -5.393  0.00 41.90 LIG 0.21  C 
BRANCH 45 46
ATOM     46  C   THR M   7      36.312   9.440  -5.813  0.00 41.61 LIG 0.20  C 
ATOM     47 O    THR M   7      35.142   9.739  -6.075  0.00 41.59 LIG-0.65  OA
ATOM     48 OXT  THR M   7      36.703   8.280  -5.880  0.00 41.57 LIG-0.65  OA
ENDBRANCH 45 46
BRANCH 45 49
ATOM     49  CB  THR M   7      37.074  11.055  -3.947  0.00 41.89 LIG 0.15  C 
ATOM     50  CG2 THR M   7      37.072  12.582  -3.833  0.00 41.51 LIG 0.04  C 
BRANCH 49 51
ATOM     51 OG1  THR M   7      35.817  10.533  -3.536  0.00 41.42 LIG-0.39  OA
ATOM     52 HG1  THR M   7      35.848  10.337  -2.720  0.00 41.42 LIG 0.21  HD
ENDBRANCH 49 51
ENDBRANCH 45 49
ENDBRANCH 42 45
ENDBRANCH 40 41
BRANCH 40 53
ATOM     53  CB  ASN M   6      38.325  14.116  -7.759  1.00 43.29 LIG 0.14  C 
BRANCH 53 54
ATOM     54  CG  ASN M   6      39.834  13.919  -7.991  1.00 43.53 LIG 0.22  C 
ATOM     55 OD1  ASN M   6      40.519  14.627  -8.732  1.00 39.33 LIG-0.27  OA
ATOM     56  ND2 ASN M   6      40.469  12.912  -7.410  1.00 45.48 LIG-0.37  N 
ATOM     57 22HD ASN M   6      40.044  12.382  -6.882  1.00 45.48 LIG 0.16  HD
ATOM     58 21HD ASN M   6      41.307  12.787  -7.561  1.00 45.48 LIG 0.16  HD
ENDBRANCH 53 54
ENDBRANCH 40 53
ENDBRANCH 37 40
ENDBRANCH 1 36
TORSDOF 21
ENDMDL
MODEL 14
USER: ADFR SOLUTION from run 159
USER: SCORE 14.474838 LL:  -4.082 LR: -11.482 RR:   0.000 FEB:  -5.218
USER: RMSD 3.794457
USER: SEED 158
USER: STATUS searching
USER: GENES 23
USER: genes 0 Translation |==|  0.43983 0.50223 0.70611
USER: genes 1 Rotation |==|  0.46080 0.48731 0.46330 0.99695
USER: genes 2 Torsion [C]-CA--N-[C] |==|  0.80509
USER: genes 3 Torsion [N]-C--CA-[CB] |==|  0.31524
USER: genes 4 Torsion [N]-C--CA-[N] |==|  0.89123
USER: genes 5 Torsion [C]-CA--N-[C] |==|  0.85146
USER: genes 6 Torsion [N]-C--CA-[N] |==|  0.57494
USER: genes 7 Torsion [C]-CA--CB-[OG] |==|  0.28666
USER: genes 8 Torsion [CA]-CB--OG-[HG] |==|  0.38754
USER: genes 9 Torsion [C]-CA--CB-[CG] |==|  0.25326
USER: genes 10 Torsion [CA]-CB--CG-[CD2] |==|  0.38682
USER: genes 11 Torsion [N]-CA--CB-[CG] |==|  0.50631
USER: genes 12 Torsion [CA]-CB--CG-[CD] |==|  0.70066
USER: genes 13 Torsion [CB]-CG--CD-[NE2] |==|  0.42244
USER: genes 14 Torsion [N]-CA--C-[N] |==|  0.89213
USER: genes 15 Torsion [C]-N--CA-[CB] |==|  0.22931
USER: genes 16 Torsion [N]-CA--C-[N] |==|  0.42291
USER: genes 17 Torsion [C]-N--CA-[C] |==|  0.80359
USER: genes 18 Torsion [N]-CA--C-[O] |==|  0.84509
USER: genes 19 Torsion [N]-CA--CB-[CG2] |==|  0.67447
USER: genes 20 Torsion [CA]-CB--OG1-[HG1] |==|  0.42707
USER: genes 21 Torsion [N]-CA--CB-[CG] |==|  0.71648
USER: genes 22 Torsion [CA]-CB--CG-[OD1] |==|  0.96737
ROOT
ATOM      1  CA  GLN M   5      34.361  13.876  -6.104  1.00 40.28 LIG 0.18  C 
ENDROOT
BRANCH 1 2
ATOM      2  N   GLN M   5      34.000  14.390  -7.403  1.00 45.46 LIG-0.35  N 
ATOM      3 H    GLN M   5      33.384  13.957  -7.818  1.00 45.46 LIG 0.16  HD
ATOM      4  C   PRO M   4      34.631  15.478  -7.866  1.00 50.59 LIG 0.24  C 
ATOM      5 O    PRO M   4      35.451  16.076  -7.151  1.00 50.33 LIG-0.27  OA
BRANCH 4 6
ATOM      6  CA  PRO M   4      34.314  16.000  -9.265  1.00 53.72 LIG 0.18  C 
ATOM      7  N   PRO M   4      33.436  15.183 -10.106  1.00 55.45 LIG-0.34  N 
ATOM      8  CD  PRO M   4      32.312  15.999 -10.579  1.00 56.03 LIG 0.13  C 
ATOM      9  C   HIS M   3      33.744  13.942 -10.547  1.00 54.96 LIG 0.24  C 
ATOM     10  CG  PRO M   4      32.178  17.034  -9.491  1.00 55.72 LIG 0.02  C 
ATOM     11  CB  PRO M   4      33.631  17.365  -9.253  1.00 52.77 LIG 0.04  C 
ATOM     12 O    HIS M   3      34.850  13.427 -10.328  1.00 54.31 LIG-0.27  OA
BRANCH 9 13
ATOM     13  CA  HIS M   3      32.712  13.130 -11.336  1.00 53.95 LIG 0.18  C 
BRANCH 13 14
ATOM     14  N   HIS M   3      31.416  13.367 -10.729  1.00 55.94 LIG-0.34  N 
ATOM     15  C   SER M   2      31.228  13.178  -9.428  0.19 53.43 LIG 0.26  C 
ATOM     16 O    SER M   2      32.085  12.658  -8.702  0.19 53.78 LIG-0.27  OA
ATOM     17 H    HIS M   3      30.806  13.632 -11.275  1.00 55.94 LIG 0.16  HD
BRANCH 15 18
ATOM     18  CA  SER M   2      29.892  13.547  -8.800  0.19 52.30 LIG 0.42  C 
ATOM     19  N   SER M   2      30.245  13.836  -7.430  0.19 52.36 LIG 0.62  N 
BRANCH 18 20
ATOM     20  CB  SER M   2      29.309  14.822  -9.397  0.19 51.64 LIG 0.21  C 
BRANCH 20 21
ATOM     21 OG   SER M   2      28.265  14.447 -10.299  0.19 50.47 LIG-0.40  OA
ATOM     22 HG   SER M   2      27.619  14.979 -10.216  0.19 50.47 LIG 0.21  HD
ENDBRANCH 20 21
ENDBRANCH 18 20
ENDBRANCH 15 18
ENDBRANCH 13 14
BRANCH 13 23
ATOM     23  CB  HIS M   3      32.721  13.576 -12.793  1.00 50.96 LIG 0.10  C 
BRANCH 23 24
ATOM     24  CG  HIS M   3      33.702  12.724 -13.585  1.00 47.24 LIG 0.06  A 
ATOM     25  CD2 HIS M   3      33.497  12.236 -14.844  1.00 45.19 LIG 0.14  A 
ATOM     26 NE2  HIS M   3      34.560  11.506 -15.011  1.00 45.41 LIG-0.25  NA
ATOM     27  CE1 HIS M   3      35.338  11.554 -13.947  1.00 46.27 LIG 0.23  A 
ATOM     28 ND1  HIS M   3      34.818  12.321 -13.020  1.00 45.18 LIG-0.24  NA
ENDBRANCH 23 24
ENDBRANCH 13 23
ENDBRANCH 9 13
ENDBRANCH 4 6
ENDBRANCH 1 2
BRANCH 1 29
ATOM     29  CB  GLN M   5      33.418  12.800  -5.645  1.00 37.25 LIG 0.04  C 
BRANCH 29 30
ATOM     30  CG  GLN M   5      33.786  12.308  -4.242  1.00 28.05 LIG 0.10  C 
BRANCH 30 31
ATOM     31  CD  GLN M   5      34.390  10.925  -4.279  1.00 28.89 LIG 0.21  C 
ATOM     32  NE2 GLN M   5      35.244  10.611  -3.305  1.00 21.10 LIG-0.37  N 
ATOM     33 22HE GLN M   5      35.594   9.826  -3.278  1.00 21.10 LIG 0.16  HD
ATOM     34 21HE GLN M   5      35.444  11.193  -2.704  1.00 21.10 LIG 0.16  HD
ATOM     35 OE1  GLN M   5      34.069  10.125  -5.167  1.00 23.17 LIG-0.27  OA
ENDBRANCH 30 31
ENDBRANCH 29 30
ENDBRANCH 1 29
BRANCH 1 36
ATOM     36  C   GLN M   5      35.743  13.277  -6.199  1.00 41.58 LIG 0.24  C 
ATOM     37  N   ASN M   6      36.070  12.597  -7.299  1.00 44.37 LIG-0.35  N 
ATOM     38 H    ASN M   6      35.562  12.518  -7.989  1.00 44.37 LIG 0.16  HD
ATOM     39 O    GLN M   5      36.524  13.427  -5.264  1.00 41.62 LIG-0.27  OA
BRANCH 37 40
ATOM     40  CA  ASN M   6      37.355  11.921  -7.405  1.00 43.99 LIG 0.18  C 
BRANCH 40 41
ATOM     41  C   ASN M   6      37.711  11.752  -8.864  1.00 43.58 LIG 0.24  C 
ATOM     42  N   THR M   7      39.013  11.703  -9.110  0.00 42.61 LIG-0.34  N 
ATOM     43 H    THR M   7      39.605  11.760  -8.489  0.00 42.61 LIG 0.16  HD
ATOM     44 O    ASN M   6      36.818  11.692  -9.714  1.00 43.76 LIG-0.27  OA
BRANCH 42 45
ATOM     45  CA  THR M   7      39.579  11.552 -10.423  0.00 41.90 LIG 0.21  C 
BRANCH 45 46
ATOM     46  C   THR M   7      39.298  10.119 -10.897  0.00 41.61 LIG 0.20  C 
ATOM     47 O    THR M   7      39.661   9.155 -10.216  0.00 41.59 LIG-0.65  OA
ATOM     48 OXT  THR M   7      38.711   9.963 -11.961  0.00 41.57 LIG-0.65  OA
ENDBRANCH 45 46
BRANCH 45 49
ATOM     49  CB  THR M   7      41.099  11.874 -10.302  0.00 41.89 LIG 0.15  C 
ATOM     50  CG2 THR M   7      41.548  13.089 -11.116  0.00 41.51 LIG 0.04  C 
BRANCH 49 51
ATOM     51 OG1  THR M   7      41.349  12.092  -8.920  0.00 41.42 LIG-0.39  OA
ATOM     52 HG1  THR M   7      42.152  11.915  -8.749  0.00 41.42 LIG 0.21  HD
ENDBRANCH 49 51
ENDBRANCH 45 49
ENDBRANCH 42 45
ENDBRANCH 40 41
BRANCH 40 53
ATOM     53  CB  ASN M   6      37.297  10.549  -6.714  1.00 43.29 LIG 0.14  C 
BRANCH 53 54
ATOM     54  CG  ASN M   6      37.937  10.444  -5.318  1.00 43.53 LIG 0.22  C 
ATOM     55 OD1  ASN M   6      38.660  11.310  -4.821  1.00 39.33 LIG-0.27  OA
ATOM     56  ND2 ASN M   6      37.761   9.354  -4.586  1.00 45.48 LIG-0.37  N 
ATOM     57 22HD ASN M   6      37.266   8.714  -4.879  1.00 45.48 LIG 0.16  HD
ATOM     58 21HD ASN M   6      38.140   9.286  -3.817  1.00 45.48 LIG 0.16  HD
ENDBRANCH 53 54
ENDBRANCH 40 53
ENDBRANCH 37 40
ENDBRANCH 1 36
TORSDOF 21
ENDMDL
