MODEL 1
USER: ADFR SOLUTION from run 52
USER: SCORE 22.918946 LL:  -5.397 LR: -17.812 RR:   0.000 FEB: -11.547
USER: RMSD 2.436715
USER: SEED 51
USER: STATUS no improvement in best in 1 clusters for 5 generations
USER: GENES 23
USER: genes 0 Translation |==|  0.49184 0.55048 0.48918
USER: genes 1 Rotation |==|  0.57435 0.49429 0.67469 0.96252
USER: genes 2 Torsion [C]-CA--N-[C] |==|  0.57184
USER: genes 3 Torsion [N]-C--CA-[N] |==|  0.33333
USER: genes 4 Torsion [C]-CA--CB-[CG] |==|  0.80215
USER: genes 5 Torsion [CA]-CB--CG-[CD] |==|  0.71016
USER: genes 6 Torsion [CB]-CG--CD-[OE2] |==|  0.24516
USER: genes 7 Torsion [C]-CA--N-[C] |==|  0.78686
USER: genes 8 Torsion [N]-C--CA-[N] |==|  0.72075
USER: genes 9 Torsion [C]-CA--CB-[CG] |==|  0.23864
USER: genes 10 Torsion [CA]-CB--CG-[OD1] |==|  0.51293
USER: genes 11 Torsion [N]-CA--C-[N] |==|  0.46514
USER: genes 12 Torsion [C]-N--CA-[C] |==|  0.78783
USER: genes 13 Torsion [N]-CA--C-[N] |==|  0.42975
USER: genes 14 Torsion [C]-N--CA-[C] |==|  0.61347
USER: genes 15 Torsion [N]-CA--C-[O] |==|  0.95102
USER: genes 16 Torsion [N]-CA--CB-[CG] |==|  0.71771
USER: genes 17 Torsion [CA]-CB--CG-[CD2] |==|  0.49281
USER: genes 18 Torsion [N]-CA--CB-[CG] |==|  0.52760
USER: genes 19 Torsion [CA]-CB--CG-[CD2] |==|  0.52602
USER: genes 20 Torsion [CE1]-CZ--OH-[HH] |==|  0.54311
USER: genes 21 Torsion [N]-CA--CB-[CG] |==|  0.11034
USER: genes 22 Torsion [CA]-CB--CG-[CD1] |==|  0.63288
ROOT
ATOM      1  CA  PHE S   4      43.700  54.807  53.544  1.00 21.41 LIG 0.18  C 
ENDROOT
BRANCH 1 2
ATOM      2  N   PHE S   4      43.714  53.923  54.702  1.00 22.57 LIG-0.35  N 
ATOM      3 H    PHE S   4      43.648  53.088  54.506  1.00 22.57 LIG 0.16  HD
ATOM      4  C   GLU S   3      43.821  54.377  55.950  1.00 26.46 LIG 0.24  C 
ATOM      5 O    GLU S   3      43.911  55.578  56.228  1.00 26.71 LIG-0.27  OA
BRANCH 4 6
ATOM      6  CA  GLU S   3      43.753  53.332  57.051  1.00 28.27 LIG 0.18  C 
BRANCH 6 7
ATOM      7  CB  GLU S   3      42.576  53.758  57.914  1.00 28.84 LIG 0.04  C 
BRANCH 7 8
ATOM      8  CG  GLU S   3      42.743  54.977  58.756  1.00 31.31 LIG 0.12  C 
BRANCH 8 9
ATOM      9  CD  GLU S   3      42.947  54.570  60.195  1.00 32.39 LIG 0.17  C 
ATOM     10 OE2  GLU S   3      44.100  54.349  60.568  1.00 38.97 LIG-0.65  OA
ATOM     11 OE1  GLU S   3      41.941  54.449  60.945  1.00 34.38 LIG-0.65  OA
ENDBRANCH 8 9
ENDBRANCH 7 8
ENDBRANCH 6 7
BRANCH 6 12
ATOM     12  N   GLU S   3      45.012  53.373  57.821  1.00 29.65 LIG-0.35  N 
ATOM     13 H    GLU S   3      44.938  53.768  58.581  1.00 29.65 LIG 0.16  HD
ATOM     14  C   ASN S   2      46.147  52.852  57.384  1.00 31.60 LIG 0.26  C 
ATOM     15 O    ASN S   2      46.221  52.099  56.422  1.00 31.89 LIG-0.27  OA
BRANCH 14 16
ATOM     16  CA  ASN S   2      47.403  53.276  58.165  1.00 33.47 LIG 0.41  C 
ATOM     17  N   ASN S   2      48.197  54.342  57.498  1.00 34.35 LIG 0.61  N 
BRANCH 16 18
ATOM     18  CB  ASN S   2      47.089  53.708  59.586  1.00 34.36 LIG 0.15  C 
BRANCH 18 19
ATOM     19  CG  ASN S   2      47.049  52.520  60.541  1.00 36.60 LIG 0.22  C 
ATOM     20 OD1  ASN S   2      46.719  52.657  61.750  1.00 40.55 LIG-0.27  OA
ATOM     21  ND2 ASN S   2      47.382  51.349  60.016  1.00 40.03 LIG-0.37  N 
ATOM     22 22HD ASN S   2      47.601  51.297  59.186  1.00 40.03 LIG 0.16  HD
ATOM     23 21HD ASN S   2      47.378  50.642  60.506  1.00 40.03 LIG 0.16  HD
ENDBRANCH 18 19
ENDBRANCH 16 18
ENDBRANCH 14 16
ENDBRANCH 6 12
ENDBRANCH 4 6
ENDBRANCH 1 2
BRANCH 1 24
ATOM     24  C   PHE S   4      42.960  54.156  52.378  1.00 20.14 LIG 0.24  C 
ATOM     25  N   TYR S   5      42.663  54.967  51.371  1.00 19.70 LIG-0.35  N 
ATOM     26 H    TYR S   5      42.817  55.813  51.382  1.00 19.70 LIG 0.16  HD
ATOM     27 O    PHE S   4      42.707  52.956  52.373  1.00 18.43 LIG-0.27  OA
BRANCH 25 28
ATOM     28  CA  TYR S   5      42.041  54.494  50.135  1.00 19.15 LIG 0.18  C 
BRANCH 28 29
ATOM     29  C   TYR S   5      43.138  53.809  49.335  1.00 19.17 LIG 0.24  C 
ATOM     30  N   PHE S   6      42.734  52.883  48.471  1.00 19.00 LIG-0.34  N 
ATOM     31 H    PHE S   6      41.909  52.660  48.371  1.00 19.00 LIG 0.16  HD
ATOM     32 O    TYR S   5      44.327  54.077  49.524  1.00 19.39 LIG-0.27  OA
BRANCH 30 33
ATOM     33  CA  PHE S   6      43.646  52.148  47.603  1.00 19.20 LIG 0.19  C 
BRANCH 33 34
ATOM     34  C   PHE S   6      43.114  51.953  46.190  1.00 19.81 LIG 0.20  C 
ATOM     35 O    PHE S   6      41.902  52.099  45.954  1.00 18.53 LIG-0.65  OA
ATOM     36 OXT  PHE S   6      43.965  51.626  45.320  1.00 20.48 LIG-0.65  OA
ENDBRANCH 33 34
BRANCH 33 37
ATOM     37  CB  PHE S   6      43.961  50.789  48.234  1.00 19.81 LIG 0.07  C 
BRANCH 37 38
ATOM     38  CG  PHE S   6      45.327  50.728  48.928  1.00 21.45 LIG-0.06  A 
ATOM     39  CD2 PHE S   6      45.729  49.584  49.590  1.00 24.56 LIG 0.01  A 
ATOM     40  CE2 PHE S   6      46.975  49.524  50.230  1.00 25.95 LIG 0.00  A 
ATOM     41  CZ  PHE S   6      47.819  50.599  50.161  1.00 23.46 LIG 0.00  A 
ATOM     42  CE1 PHE S   6      47.447  51.732  49.484  1.00 24.74 LIG 0.00  A 
ATOM     43  CD1 PHE S   6      46.224  51.803  48.873  1.00 22.31 LIG 0.01  A 
ENDBRANCH 37 38
ENDBRANCH 33 37
ENDBRANCH 30 33
ENDBRANCH 28 29
BRANCH 28 44
ATOM     44  CB  TYR S   5      41.437  55.689  49.376  1.00 19.45 LIG 0.07  C 
BRANCH 44 45
ATOM     45  CG  TYR S   5      40.556  55.373  48.197  1.00 19.88 LIG-0.06  A 
ATOM     46  CD1 TYR S   5      40.140  54.077  47.910  1.00 18.15 LIG 0.01  A 
ATOM     47  CE1 TYR S   5      39.358  53.803  46.818  1.00 18.26 LIG 0.04  A 
ATOM     48  CZ  TYR S   5      38.951  54.841  45.994  1.00 18.69 LIG 0.07  A 
ATOM     49  CE2 TYR S   5      39.331  56.123  46.263  1.00 19.96 LIG 0.04  A 
ATOM     50  CD2 TYR S   5      40.139  56.389  47.356  1.00 21.89 LIG 0.01  A 
BRANCH 48 51
ATOM     51 OH   TYR S   5      38.168  54.592  44.900  1.00 21.24 LIG-0.36  OA
ATOM     52 HH   TYR S   5      38.178  55.259  44.390  1.00 21.24 LIG 0.22  HD
ENDBRANCH 48 51
ENDBRANCH 44 45
ENDBRANCH 28 44
ENDBRANCH 25 28
ENDBRANCH 1 24
BRANCH 1 53
ATOM     53  CB  PHE S   4      45.130  55.088  53.135  1.00 21.76 LIG 0.07  C 
BRANCH 53 54
ATOM     54  CG  PHE S   4      46.020  53.895  53.231  1.00 21.60 LIG-0.06  A 
ATOM     55  CD2 PHE S   4      45.628  52.686  52.700  1.00 23.13 LIG 0.01  A 
ATOM     56  CE2 PHE S   4      46.419  51.583  52.814  1.00 23.23 LIG 0.00  A 
ATOM     57  CZ  PHE S   4      47.649  51.687  53.390  1.00 22.51 LIG 0.00  A 
ATOM     58  CE1 PHE S   4      48.063  52.886  53.930  1.00 22.53 LIG 0.00  A 
ATOM     59  CD1 PHE S   4      47.253  53.990  53.853  1.00 22.71 LIG 0.01  A 
ENDBRANCH 53 54
ENDBRANCH 1 53
TORSDOF 21
ENDMDL
MODEL 2
USER: ADFR SOLUTION from run 86
USER: SCORE 21.875738 LL:  -5.156 LR: -17.433 RR:   0.000 FEB: -11.169
USER: RMSD 3.676831
USER: SEED 85
USER: STATUS no improvement in best in 3 clusters for 5 generations
USER: GENES 23
USER: genes 0 Translation |==|  0.56120 0.52881 0.49641
USER: genes 1 Rotation |==|  0.57438 0.54793 0.62595 0.97572
USER: genes 2 Torsion [C]-CA--N-[C] |==|  0.54539
USER: genes 3 Torsion [N]-C--CA-[N] |==|  0.41612
USER: genes 4 Torsion [C]-CA--CB-[CG] |==|  0.78849
USER: genes 5 Torsion [CA]-CB--CG-[CD] |==|  0.67794
USER: genes 6 Torsion [CB]-CG--CD-[OE2] |==|  0.20557
USER: genes 7 Torsion [C]-CA--N-[C] |==|  0.53432
USER: genes 8 Torsion [N]-C--CA-[N] |==|  0.18835
USER: genes 9 Torsion [C]-CA--CB-[CG] |==|  0.26779
USER: genes 10 Torsion [CA]-CB--CG-[OD1] |==|  0.11543
USER: genes 11 Torsion [N]-CA--C-[N] |==|  0.48889
USER: genes 12 Torsion [C]-N--CA-[C] |==|  0.67180
USER: genes 13 Torsion [N]-CA--C-[N] |==|  0.43251
USER: genes 14 Torsion [C]-N--CA-[C] |==|  0.52706
USER: genes 15 Torsion [N]-CA--C-[O] |==|  0.01110
USER: genes 16 Torsion [N]-CA--CB-[CG] |==|  0.63683
USER: genes 17 Torsion [CA]-CB--CG-[CD2] |==|  0.34642
USER: genes 18 Torsion [N]-CA--CB-[CG] |==|  0.43232
USER: genes 19 Torsion [CA]-CB--CG-[CD2] |==|  0.68768
USER: genes 20 Torsion [CE1]-CZ--OH-[HH] |==|  0.87032
USER: genes 21 Torsion [N]-CA--CB-[CG] |==|  0.18798
USER: genes 22 Torsion [CA]-CB--CG-[CD1] |==|  0.75789
ROOT
ATOM      1  CA  PHE S   4      45.052  54.449  53.728  1.00 21.41 LIG 0.18  C 
ENDROOT
BRANCH 1 2
ATOM      2  N   PHE S   4      45.197  53.648  54.937  1.00 22.57 LIG-0.35  N 
ATOM      3 H    PHE S   4      44.841  52.867  54.883  1.00 22.57 LIG 0.16  HD
ATOM      4  C   GLU S   3      45.828  54.094  56.022  1.00 26.46 LIG 0.24  C 
ATOM      5 O    GLU S   3      46.335  55.219  56.096  1.00 26.71 LIG-0.27  OA
BRANCH 4 6
ATOM      6  CA  GLU S   3      45.835  53.163  57.222  1.00 28.27 LIG 0.18  C 
BRANCH 6 7
ATOM      7  CB  GLU S   3      44.609  53.563  58.027  1.00 28.84 LIG 0.04  C 
BRANCH 7 8
ATOM      8  CG  GLU S   3      44.690  54.815  58.832  1.00 31.31 LIG 0.12  C 
BRANCH 8 9
ATOM      9  CD  GLU S   3      44.569  54.479  60.298  1.00 32.39 LIG 0.17  C 
ATOM     10 OE2  GLU S   3      45.539  53.954  60.846  1.00 38.97 LIG-0.65  OA
ATOM     11 OE1  GLU S   3      43.485  54.723  60.895  1.00 34.38 LIG-0.65  OA
ENDBRANCH 8 9
ENDBRANCH 7 8
ENDBRANCH 6 7
BRANCH 6 12
ATOM     12  N   GLU S   3      47.071  53.397  57.996  1.00 29.65 LIG-0.35  N 
ATOM     13 H    GLU S   3      47.494  54.109  57.762  1.00 29.65 LIG 0.16  HD
ATOM     14  C   ASN S   2      47.489  52.591  58.957  1.00 31.60 LIG 0.26  C 
ATOM     15 O    ASN S   2      46.799  51.710  59.451  1.00 31.89 LIG-0.27  OA
BRANCH 14 16
ATOM     16  CA  ASN S   2      48.941  52.818  59.413  1.00 33.47 LIG 0.41  C 
ATOM     17  N   ASN S   2      49.159  54.110  60.116  1.00 34.35 LIG 0.61  N 
BRANCH 16 18
ATOM     18  CB  ASN S   2      49.464  51.688  60.281  1.00 34.36 LIG 0.15  C 
BRANCH 18 19
ATOM     19  CG  ASN S   2      50.262  50.674  59.469  1.00 36.60 LIG 0.22  C 
ATOM     20 OD1  ASN S   2      51.074  51.038  58.575  1.00 40.55 LIG-0.27  OA
ATOM     21  ND2 ASN S   2      50.045  49.401  59.766  1.00 40.03 LIG-0.37  N 
ATOM     22 22HD ASN S   2      49.482  49.193  60.383  1.00 40.03 LIG 0.16  HD
ATOM     23 21HD ASN S   2      50.466  48.783  59.342  1.00 40.03 LIG 0.16  HD
ENDBRANCH 18 19
ENDBRANCH 16 18
ENDBRANCH 14 16
ENDBRANCH 6 12
ENDBRANCH 4 6
ENDBRANCH 1 2
BRANCH 1 24
ATOM     24  C   PHE S   4      43.969  53.867  52.823  1.00 20.14 LIG 0.24  C 
ATOM     25  N   TYR S   5      43.702  54.574  51.732  1.00 19.70 LIG-0.35  N 
ATOM     26 H    TYR S   5      44.062  55.336  51.561  1.00 19.70 LIG 0.16  HD
ATOM     27 O    PHE S   4      43.429  52.798  53.081  1.00 18.43 LIG-0.27  OA
BRANCH 25 28
ATOM     28  CA  TYR S   5      42.763  54.119  50.708  1.00 19.15 LIG 0.18  C 
BRANCH 28 29
ATOM     29  C   TYR S   5      43.566  53.966  49.425  1.00 19.17 LIG 0.24  C 
ATOM     30  N   PHE S   6      43.070  53.118  48.528  1.00 19.00 LIG-0.34  N 
ATOM     31 H    PHE S   6      42.352  52.664  48.658  1.00 19.00 LIG 0.16  HD
ATOM     32 O    TYR S   5      44.632  54.565  49.265  1.00 19.39 LIG-0.27  OA
BRANCH 30 33
ATOM     33  CA  PHE S   6      43.693  52.872  47.234  1.00 19.20 LIG 0.19  C 
BRANCH 33 34
ATOM     34  C   PHE S   6      42.827  52.047  46.291  1.00 19.81 LIG 0.20  C 
ATOM     35 O    PHE S   6      41.676  51.719  46.629  1.00 18.53 LIG-0.65  OA
ATOM     36 OXT  PHE S   6      43.357  51.724  45.195  1.00 20.48 LIG-0.65  OA
ENDBRANCH 33 34
BRANCH 33 37
ATOM     37  CB  PHE S   6      45.041  52.176  47.444  1.00 19.81 LIG 0.07  C 
BRANCH 37 38
ATOM     38  CG  PHE S   6      46.200  52.822  46.675  1.00 21.45 LIG-0.06  A 
ATOM     39  CD2 PHE S   6      47.338  53.239  47.338  1.00 24.56 LIG 0.01  A 
ATOM     40  CE2 PHE S   6      48.398  53.833  46.640  1.00 25.95 LIG 0.00  A 
ATOM     41  CZ  PHE S   6      48.321  53.962  45.280  1.00 23.46 LIG 0.00  A 
ATOM     42  CE1 PHE S   6      47.210  53.528  44.603  1.00 24.74 LIG 0.00  A 
ATOM     43  CD1 PHE S   6      46.163  52.963  45.281  1.00 22.31 LIG 0.01  A 
ENDBRANCH 37 38
ENDBRANCH 33 37
ENDBRANCH 30 33
ENDBRANCH 28 29
BRANCH 28 44
ATOM     44  CB  TYR S   5      41.630  55.150  50.557  1.00 19.45 LIG 0.07  C 
BRANCH 44 45
ATOM     45  CG  TYR S   5      40.906  55.180  49.238  1.00 19.88 LIG-0.06  A 
ATOM     46  CD1 TYR S   5      40.102  54.128  48.810  1.00 18.15 LIG 0.01  A 
ATOM     47  CE1 TYR S   5      39.471  54.161  47.594  1.00 18.26 LIG 0.04  A 
ATOM     48  CZ  TYR S   5      39.615  55.275  46.781  1.00 18.69 LIG 0.07  A 
ATOM     49  CE2 TYR S   5      40.384  56.327  47.184  1.00 19.96 LIG 0.04  A 
ATOM     50  CD2 TYR S   5      41.037  56.277  48.406  1.00 21.89 LIG 0.01  A 
BRANCH 48 51
ATOM     51 OH   TYR S   5      38.992  55.331  45.565  1.00 21.24 LIG-0.36  OA
ATOM     52 HH   TYR S   5      39.114  54.609  45.153  1.00 21.24 LIG 0.22  HD
ENDBRANCH 48 51
ENDBRANCH 44 45
ENDBRANCH 28 44
ENDBRANCH 25 28
ENDBRANCH 1 24
BRANCH 1 53
ATOM     53  CB  PHE S   4      46.374  54.451  52.990  1.00 21.76 LIG 0.07  C 
BRANCH 53 54
ATOM     54  CG  PHE S   4      46.743  53.120  52.430  1.00 21.60 LIG-0.06  A 
ATOM     55  CD2 PHE S   4      46.404  52.788  51.137  1.00 23.13 LIG 0.01  A 
ATOM     56  CE2 PHE S   4      46.706  51.560  50.628  1.00 23.23 LIG 0.00  A 
ATOM     57  CZ  PHE S   4      47.420  50.674  51.375  1.00 22.51 LIG 0.00  A 
ATOM     58  CE1 PHE S   4      47.769  50.982  52.672  1.00 22.53 LIG 0.00  A 
ATOM     59  CD1 PHE S   4      47.432  52.202  53.203  1.00 22.71 LIG 0.01  A 
ENDBRANCH 53 54
ENDBRANCH 1 53
TORSDOF 21
ENDMDL
MODEL 3
USER: ADFR SOLUTION from run 74
USER: SCORE 20.641823 LL:  -4.510 LR: -16.987 RR:   0.000 FEB: -10.723
USER: RMSD 4.031139
USER: SEED 73
USER: STATUS no improvement in best in 3 clusters for 5 generations
USER: GENES 23
USER: genes 0 Translation |==|  0.53801 0.50174 0.50318
USER: genes 1 Rotation |==|  0.46439 0.49536 0.46444 0.99744
USER: genes 2 Torsion [C]-CA--N-[C] |==|  0.79069
USER: genes 3 Torsion [N]-C--CA-[N] |==|  0.82232
USER: genes 4 Torsion [C]-CA--CB-[CG] |==|  0.33956
USER: genes 5 Torsion [CA]-CB--CG-[CD] |==|  0.21856
USER: genes 6 Torsion [CB]-CG--CD-[OE2] |==|  0.46254
USER: genes 7 Torsion [C]-CA--N-[C] |==|  0.62229
USER: genes 8 Torsion [N]-C--CA-[N] |==|  0.20565
USER: genes 9 Torsion [C]-CA--CB-[CG] |==|  0.35190
USER: genes 10 Torsion [CA]-CB--CG-[OD1] |==|  0.18659
USER: genes 11 Torsion [N]-CA--C-[N] |==|  0.45206
USER: genes 12 Torsion [C]-N--CA-[C] |==|  0.61407
USER: genes 13 Torsion [N]-CA--C-[N] |==|  0.37223
USER: genes 14 Torsion [C]-N--CA-[C] |==|  0.66673
USER: genes 15 Torsion [N]-CA--C-[O] |==|  0.92364
USER: genes 16 Torsion [N]-CA--CB-[CG] |==|  0.82165
USER: genes 17 Torsion [CA]-CB--CG-[CD2] |==|  0.45731
USER: genes 18 Torsion [N]-CA--CB-[CG] |==|  0.46281
USER: genes 19 Torsion [CA]-CB--CG-[CD2] |==|  0.11027
USER: genes 20 Torsion [CE1]-CZ--OH-[HH] |==|  0.03510
USER: genes 21 Torsion [N]-CA--CB-[CG] |==|  0.75636
USER: genes 22 Torsion [CA]-CB--CG-[CD1] |==|  0.68637
ROOT
ATOM      1  CA  PHE S   4      44.600  54.003  53.901  1.00 21.41 LIG 0.18  C 
ENDROOT
BRANCH 1 2
ATOM      2  N   PHE S   4      44.133  53.932  55.280  1.00 22.57 LIG-0.35  N 
ATOM      3 H    PHE S   4      44.367  53.214  55.692  1.00 22.57 LIG 0.16  HD
ATOM      4  C   GLU S   3      43.410  54.900  55.842  1.00 26.46 LIG 0.24  C 
ATOM      5 O    GLU S   3      43.072  55.928  55.244  1.00 26.71 LIG-0.27  OA
BRANCH 4 6
ATOM      6  CA  GLU S   3      42.944  54.645  57.266  1.00 28.27 LIG 0.18  C 
BRANCH 6 7
ATOM      7  CB  GLU S   3      44.215  54.326  58.035  1.00 28.84 LIG 0.04  C 
BRANCH 7 8
ATOM      8  CG  GLU S   3      44.545  55.181  59.211  1.00 31.31 LIG 0.12  C 
BRANCH 8 9
ATOM      9  CD  GLU S   3      43.706  54.758  60.392  1.00 32.39 LIG 0.17  C 
ATOM     10 OE2  GLU S   3      44.027  55.184  61.502  1.00 38.97 LIG-0.65  OA
ATOM     11 OE1  GLU S   3      42.736  53.974  60.204  1.00 34.38 LIG-0.65  OA
ENDBRANCH 8 9
ENDBRANCH 7 8
ENDBRANCH 6 7
BRANCH 6 12
ATOM     12  N   GLU S   3      42.026  53.488  57.262  1.00 29.65 LIG-0.35  N 
ATOM     13 H    GLU S   3      42.302  52.831  56.780  1.00 29.65 LIG 0.16  HD
ATOM     14  C   ASN S   2      40.889  53.461  57.938  1.00 31.60 LIG 0.26  C 
ATOM     15 O    ASN S   2      40.591  54.281  58.796  1.00 31.89 LIG-0.27  OA
BRANCH 14 16
ATOM     16  CA  ASN S   2      39.929  52.322  57.554  1.00 33.47 LIG 0.41  C 
ATOM     17  N   ASN S   2      40.349  50.985  58.049  1.00 34.35 LIG 0.61  N 
BRANCH 16 18
ATOM     18  CB  ASN S   2      38.501  52.588  57.996  1.00 34.36 LIG 0.15  C 
BRANCH 18 19
ATOM     19  CG  ASN S   2      37.518  52.460  56.838  1.00 36.60 LIG 0.22  C 
ATOM     20 OD1  ASN S   2      37.291  51.349  56.285  1.00 40.55 LIG-0.27  OA
ATOM     21  ND2 ASN S   2      36.926  53.583  56.459  1.00 40.03 LIG-0.37  N 
ATOM     22 22HD ASN S   2      37.108  54.322  56.861  1.00 40.03 LIG 0.16  HD
ATOM     23 21HD ASN S   2      36.361  53.574  55.811  1.00 40.03 LIG 0.16  HD
ENDBRANCH 18 19
ENDBRANCH 16 18
ENDBRANCH 14 16
ENDBRANCH 6 12
ENDBRANCH 4 6
ENDBRANCH 1 2
BRANCH 1 24
ATOM     24  C   PHE S   4      43.454  53.730  52.930  1.00 20.14 LIG 0.24  C 
ATOM     25  N   TYR S   5      43.669  54.113  51.677  1.00 19.70 LIG-0.35  N 
ATOM     26 H    TYR S   5      44.374  54.538  51.426  1.00 19.70 LIG 0.16  HD
ATOM     27 O    PHE S   4      42.434  53.156  53.292  1.00 18.43 LIG-0.27  OA
BRANCH 25 28
ATOM     28  CA  TYR S   5      42.721  53.846  50.597  1.00 19.15 LIG 0.18  C 
BRANCH 28 29
ATOM     29  C   TYR S   5      43.549  53.440  49.388  1.00 19.17 LIG 0.24  C 
ATOM     30  N   PHE S   6      43.122  52.369  48.726  1.00 19.00 LIG-0.34  N 
ATOM     31 H    PHE S   6      42.433  51.912  48.964  1.00 19.00 LIG 0.16  HD
ATOM     32 O    TYR S   5      44.576  54.052  49.083  1.00 19.39 LIG-0.27  OA
BRANCH 30 33
ATOM     33  CA  PHE S   6      43.777  51.857  47.528  1.00 19.20 LIG 0.19  C 
BRANCH 33 34
ATOM     34  C   PHE S   6      42.872  51.837  46.304  1.00 19.81 LIG 0.20  C 
ATOM     35 O    PHE S   6      41.641  51.728  46.440  1.00 18.53 LIG-0.65  OA
ATOM     36 OXT  PHE S   6      43.452  51.916  45.188  1.00 20.48 LIG-0.65  OA
ENDBRANCH 33 34
BRANCH 33 37
ATOM     37  CB  PHE S   6      44.310  50.448  47.806  1.00 19.81 LIG 0.07  C 
BRANCH 37 38
ATOM     38  CG  PHE S   6      45.406  50.399  48.877  1.00 21.45 LIG-0.06  A 
ATOM     39  CD2 PHE S   6      45.763  49.200  49.463  1.00 24.56 LIG 0.01  A 
ATOM     40  CE2 PHE S   6      46.762  49.150  50.445  1.00 25.95 LIG 0.00  A 
ATOM     41  CZ  PHE S   6      47.420  50.298  50.796  1.00 23.46 LIG 0.00  A 
ATOM     42  CE1 PHE S   6      47.097  51.492  50.203  1.00 24.74 LIG 0.00  A 
ATOM     43  CD1 PHE S   6      46.110  51.550  49.257  1.00 22.31 LIG 0.01  A 
ENDBRANCH 37 38
ENDBRANCH 33 37
ENDBRANCH 30 33
ENDBRANCH 28 29
BRANCH 28 44
ATOM     44  CB  TYR S   5      41.886  55.111  50.324  1.00 19.45 LIG 0.07  C 
BRANCH 44 45
ATOM     45  CG  TYR S   5      41.079  55.133  49.053  1.00 19.88 LIG-0.06  A 
ATOM     46  CD1 TYR S   5      40.955  56.279  48.275  1.00 18.15 LIG 0.01  A 
ATOM     47  CE1 TYR S   5      40.196  56.287  47.134  1.00 18.26 LIG 0.04  A 
ATOM     48  CZ  TYR S   5      39.556  55.125  46.731  1.00 18.69 LIG 0.07  A 
ATOM     49  CE2 TYR S   5      39.675  53.983  47.468  1.00 19.96 LIG 0.04  A 
ATOM     50  CD2 TYR S   5      40.427  53.988  48.633  1.00 21.89 LIG 0.01  A 
BRANCH 48 51
ATOM     51 OH   TYR S   5      38.795  55.110  45.595  1.00 21.24 LIG-0.36  OA
ATOM     52 HH   TYR S   5      38.939  55.809  45.151  1.00 21.24 LIG 0.22  HD
ENDBRANCH 48 51
ENDBRANCH 44 45
ENDBRANCH 28 44
ENDBRANCH 25 28
ENDBRANCH 1 24
BRANCH 1 53
ATOM     53  CB  PHE S   4      45.681  52.961  53.705  1.00 21.76 LIG 0.07  C 
BRANCH 53 54
ATOM     54  CG  PHE S   4      47.047  53.450  54.048  1.00 21.60 LIG-0.06  A 
ATOM     55  CD2 PHE S   4      47.374  53.753  55.351  1.00 23.13 LIG 0.01  A 
ATOM     56  CE2 PHE S   4      48.608  54.235  55.668  1.00 23.23 LIG 0.00  A 
ATOM     57  CZ  PHE S   4      49.561  54.346  54.702  1.00 22.51 LIG 0.00  A 
ATOM     58  CE1 PHE S   4      49.257  54.051  53.390  1.00 22.53 LIG 0.00  A 
ATOM     59  CD1 PHE S   4      48.003  53.604  53.059  1.00 22.71 LIG 0.01  A 
ENDBRANCH 53 54
ENDBRANCH 1 53
TORSDOF 21
ENDMDL
MODEL 4
USER: ADFR SOLUTION from run 198
USER: SCORE 21.837457 LL:  -5.739 LR: -16.595 RR:   0.000 FEB: -10.331
USER: RMSD 3.094933
USER: SEED 197
USER: STATUS no improvement in best in 3 clusters for 5 generations
USER: GENES 23
USER: genes 0 Translation |==|  0.51878 0.54429 0.49149
USER: genes 1 Rotation |==|  0.55755 0.51162 0.64452 0.97504
USER: genes 2 Torsion [C]-CA--N-[C] |==|  0.71400
USER: genes 3 Torsion [N]-C--CA-[N] |==|  0.22653
USER: genes 4 Torsion [C]-CA--CB-[CG] |==|  0.78659
USER: genes 5 Torsion [CA]-CB--CG-[CD] |==|  0.71388
USER: genes 6 Torsion [CB]-CG--CD-[OE2] |==|  0.23773
USER: genes 7 Torsion [C]-CA--N-[C] |==|  0.77778
USER: genes 8 Torsion [N]-C--CA-[N] |==|  0.42605
USER: genes 9 Torsion [C]-CA--CB-[CG] |==|  0.84132
USER: genes 10 Torsion [CA]-CB--CG-[OD1] |==|  0.89519
USER: genes 11 Torsion [N]-CA--C-[N] |==|  0.43959
USER: genes 12 Torsion [C]-N--CA-[C] |==|  0.73165
USER: genes 13 Torsion [N]-CA--C-[N] |==|  0.41588
USER: genes 14 Torsion [C]-N--CA-[C] |==|  0.52839
USER: genes 15 Torsion [N]-CA--C-[O] |==|  0.46544
USER: genes 16 Torsion [N]-CA--CB-[CG] |==|  0.62233
USER: genes 17 Torsion [CA]-CB--CG-[CD2] |==|  0.87093
USER: genes 18 Torsion [N]-CA--CB-[CG] |==|  0.45982
USER: genes 19 Torsion [CA]-CB--CG-[CD2] |==|  0.62736
USER: genes 20 Torsion [CE1]-CZ--OH-[HH] |==|  0.58314
USER: genes 21 Torsion [N]-CA--CB-[CG] |==|  0.18977
USER: genes 22 Torsion [CA]-CB--CG-[CD1] |==|  0.25785
ROOT
ATOM      1  CA  PHE S   4      44.225  54.705  53.603  1.00 21.41 LIG 0.18  C 
ENDROOT
BRANCH 1 2
ATOM      2  N   PHE S   4      44.211  53.932  54.838  1.00 22.57 LIG-0.35  N 
ATOM      3 H    PHE S   4      44.697  53.222  54.812  1.00 22.57 LIG 0.16  HD
ATOM      4  C   GLU S   3      43.505  54.299  55.906  1.00 26.46 LIG 0.24  C 
ATOM      5 O    GLU S   3      42.804  55.317  55.937  1.00 26.71 LIG-0.27  OA
BRANCH 4 6
ATOM      6  CA  GLU S   3      43.543  53.350  57.092  1.00 28.27 LIG 0.18  C 
BRANCH 6 7
ATOM      7  CB  GLU S   3      42.318  53.714  57.916  1.00 28.84 LIG 0.04  C 
BRANCH 7 8
ATOM      8  CG  GLU S   3      42.389  54.947  58.751  1.00 31.31 LIG 0.12  C 
BRANCH 8 9
ATOM      9  CD  GLU S   3      42.605  54.564  60.195  1.00 32.39 LIG 0.17  C 
ATOM     10 OE2  GLU S   3      43.763  54.378  60.570  1.00 38.97 LIG-0.65  OA
ATOM     11 OE1  GLU S   3      41.603  54.427  60.948  1.00 34.38 LIG-0.65  OA
ENDBRANCH 8 9
ENDBRANCH 7 8
ENDBRANCH 6 7
BRANCH 6 12
ATOM     12  N   GLU S   3      44.782  53.597  57.856  1.00 29.65 LIG-0.35  N 
ATOM     13 H    GLU S   3      44.665  54.083  58.556  1.00 29.65 LIG 0.16  HD
ATOM     14  C   ASN S   2      45.962  53.117  57.499  1.00 31.60 LIG 0.26  C 
ATOM     15 O    ASN S   2      46.113  52.253  56.646  1.00 31.89 LIG-0.27  OA
BRANCH 14 16
ATOM     16  CA  ASN S   2      47.167  53.744  58.221  1.00 33.47 LIG 0.41  C 
ATOM     17  N   ASN S   2      48.351  52.849  58.311  1.00 34.35 LIG 0.61  N 
BRANCH 16 18
ATOM     18  CB  ASN S   2      47.592  55.067  57.609  1.00 34.36 LIG 0.15  C 
BRANCH 18 19
ATOM     19  CG  ASN S   2      47.926  54.923  56.129  1.00 36.60 LIG 0.22  C 
ATOM     20 OD1  ASN S   2      48.515  53.901  55.682  1.00 40.55 LIG-0.27  OA
ATOM     21  ND2 ASN S   2      47.558  55.935  55.356  1.00 40.03 LIG-0.37  N 
ATOM     22 22HD ASN S   2      47.159  56.615  55.699  1.00 40.03 LIG 0.16  HD
ATOM     23 21HD ASN S   2      47.720  55.911  54.512  1.00 40.03 LIG 0.16  HD
ENDBRANCH 18 19
ENDBRANCH 16 18
ENDBRANCH 14 16
ENDBRANCH 6 12
ENDBRANCH 4 6
ENDBRANCH 1 2
BRANCH 1 24
ATOM     24  C   PHE S   4      43.341  54.048  52.546  1.00 20.14 LIG 0.24  C 
ATOM     25  N   TYR S   5      42.919  54.853  51.579  1.00 19.70 LIG-0.35  N 
ATOM     26 H    TYR S   5      43.075  55.699  51.565  1.00 19.70 LIG 0.16  HD
ATOM     27 O    PHE S   4      43.087  52.849  52.582  1.00 18.43 LIG-0.27  OA
BRANCH 25 28
ATOM     28  CA  TYR S   5      42.143  54.374  50.436  1.00 19.15 LIG 0.18  C 
BRANCH 28 29
ATOM     29  C   TYR S   5      43.135  54.151  49.305  1.00 19.17 LIG 0.24  C 
ATOM     30  N   PHE S   6      42.824  53.188  48.442  1.00 19.00 LIG-0.34  N 
ATOM     31 H    PHE S   6      42.119  52.701  48.515  1.00 19.00 LIG 0.16  HD
ATOM     32 O    TYR S   5      44.181  54.801  49.237  1.00 19.39 LIG-0.27  OA
BRANCH 30 33
ATOM     33  CA  PHE S   6      43.645  52.859  47.284  1.00 19.20 LIG 0.19  C 
BRANCH 33 34
ATOM     34  C   PHE S   6      42.968  51.899  46.314  1.00 19.81 LIG 0.20  C 
ATOM     35 O    PHE S   6      43.449  51.715  45.182  1.00 18.53 LIG-0.65  OA
ATOM     36 OXT  PHE S   6      41.915  51.347  46.729  1.00 20.48 LIG-0.65  OA
ENDBRANCH 33 34
BRANCH 33 37
ATOM     37  CB  PHE S   6      44.976  52.268  47.758  1.00 19.81 LIG 0.07  C 
BRANCH 37 38
ATOM     38  CG  PHE S   6      46.199  52.817  47.014  1.00 21.45 LIG-0.06  A 
ATOM     39  CD2 PHE S   6      46.198  52.913  45.635  1.00 24.56 LIG 0.01  A 
ATOM     40  CE2 PHE S   6      47.316  53.410  44.950  1.00 25.95 LIG 0.00  A 
ATOM     41  CZ  PHE S   6      48.402  53.845  45.659  1.00 23.46 LIG 0.00  A 
ATOM     42  CE1 PHE S   6      48.407  53.782  47.029  1.00 24.74 LIG 0.00  A 
ATOM     43  CD1 PHE S   6      47.327  53.281  47.703  1.00 22.31 LIG 0.01  A 
ENDBRANCH 37 38
ENDBRANCH 33 37
ENDBRANCH 30 33
ENDBRANCH 28 29
BRANCH 28 44
ATOM     44  CB  TYR S   5      41.076  55.420  50.067  1.00 19.45 LIG 0.07  C 
BRANCH 44 45
ATOM     45  CG  TYR S   5      40.407  55.267  48.727  1.00 19.88 LIG-0.06  A 
ATOM     46  CD1 TYR S   5      39.939  54.040  48.269  1.00 18.15 LIG 0.01  A 
ATOM     47  CE1 TYR S   5      39.355  53.914  47.035  1.00 18.26 LIG 0.04  A 
ATOM     48  CZ  TYR S   5      39.203  55.036  46.235  1.00 18.69 LIG 0.07  A 
ATOM     49  CE2 TYR S   5      39.638  56.254  46.668  1.00 19.96 LIG 0.04  A 
ATOM     50  CD2 TYR S   5      40.247  56.370  47.908  1.00 21.89 LIG 0.01  A 
BRANCH 48 51
ATOM     51 OH   TYR S   5      38.620  54.935  45.002  1.00 21.24 LIG-0.36  OA
ATOM     52 HH   TYR S   5      38.939  55.521  44.492  1.00 21.24 LIG 0.22  HD
ENDBRANCH 48 51
ENDBRANCH 44 45
ENDBRANCH 28 44
ENDBRANCH 25 28
ENDBRANCH 1 24
BRANCH 1 53
ATOM     53  CB  PHE S   4      45.649  54.771  53.093  1.00 21.76 LIG 0.07  C 
BRANCH 53 54
ATOM     54  CG  PHE S   4      46.172  53.458  52.619  1.00 21.60 LIG-0.06  A 
ATOM     55  CD2 PHE S   4      46.765  52.583  53.502  1.00 23.13 LIG 0.01  A 
ATOM     56  CE2 PHE S   4      47.278  51.396  53.071  1.00 23.23 LIG 0.00  A 
ATOM     57  CZ  PHE S   4      47.135  51.029  51.767  1.00 22.51 LIG 0.00  A 
ATOM     58  CE1 PHE S   4      46.546  51.889  50.865  1.00 22.53 LIG 0.00  A 
ATOM     59  CD1 PHE S   4      46.065  53.102  51.286  1.00 22.71 LIG 0.01  A 
ENDBRANCH 53 54
ENDBRANCH 1 53
TORSDOF 21
ENDMDL
MODEL 5
USER: ADFR SOLUTION from run 14
USER: SCORE 20.625471 LL:  -4.557 LR: -16.564 RR:   0.000 FEB: -10.299
USER: RMSD 2.699147
USER: SEED 516153
USER: STATUS no improvement in best in 3 clusters for 5 generations
USER: GENES 23
USER: genes 0 Translation |==|  0.54914 0.50567 0.50025
USER: genes 1 Rotation |==|  0.49465 0.51263 0.49171 0.99974
USER: genes 2 Torsion [C]-CA--N-[C] |==|  0.63246
USER: genes 3 Torsion [N]-C--CA-[N] |==|  0.32844
USER: genes 4 Torsion [C]-CA--CB-[CG] |==|  0.39878
USER: genes 5 Torsion [CA]-CB--CG-[CD] |==|  0.22001
USER: genes 6 Torsion [CB]-CG--CD-[OE2] |==|  0.98300
USER: genes 7 Torsion [C]-CA--N-[C] |==|  0.80543
USER: genes 8 Torsion [N]-C--CA-[N] |==|  0.97900
USER: genes 9 Torsion [C]-CA--CB-[CG] |==|  0.78296
USER: genes 10 Torsion [CA]-CB--CG-[OD1] |==|  0.01019
USER: genes 11 Torsion [N]-CA--C-[N] |==|  0.47699
USER: genes 12 Torsion [C]-N--CA-[C] |==|  0.58161
USER: genes 13 Torsion [N]-CA--C-[N] |==|  0.40635
USER: genes 14 Torsion [C]-N--CA-[C] |==|  0.52996
USER: genes 15 Torsion [N]-CA--C-[O] |==|  0.05664
USER: genes 16 Torsion [N]-CA--CB-[CG] |==|  0.61384
USER: genes 17 Torsion [CA]-CB--CG-[CD2] |==|  0.32160
USER: genes 18 Torsion [N]-CA--CB-[CG] |==|  0.43930
USER: genes 19 Torsion [CA]-CB--CG-[CD2] |==|  0.65723
USER: genes 20 Torsion [CE1]-CZ--OH-[HH] |==|  0.90136
USER: genes 21 Torsion [N]-CA--CB-[CG] |==|  0.78445
USER: genes 22 Torsion [CA]-CB--CG-[CD1] |==|  0.69111
ROOT
ATOM      1  CA  PHE S   4      44.817  54.068  53.826  1.00 21.41 LIG 0.18  C 
ENDROOT
BRANCH 1 2
ATOM      2  N   PHE S   4      44.463  53.781  55.210  1.00 22.57 LIG-0.35  N 
ATOM      3 H    PHE S   4      44.073  53.022  55.322  1.00 22.57 LIG 0.16  HD
ATOM      4  C   GLU S   3      44.725  54.625  56.208  1.00 26.46 LIG 0.24  C 
ATOM      5 O    GLU S   3      45.281  55.716  56.042  1.00 26.71 LIG-0.27  OA
BRANCH 4 6
ATOM      6  CA  GLU S   3      44.232  54.208  57.583  1.00 28.27 LIG 0.18  C 
BRANCH 6 7
ATOM      7  CB  GLU S   3      43.346  55.357  58.038  1.00 28.84 LIG 0.04  C 
BRANCH 7 8
ATOM      8  CG  GLU S   3      42.128  55.018  58.828  1.00 31.31 LIG 0.12  C 
BRANCH 8 9
ATOM      9  CD  GLU S   3      42.517  54.746  60.261  1.00 32.39 LIG 0.17  C 
ATOM     10 OE2  GLU S   3      43.718  54.723  60.532  1.00 38.97 LIG-0.65  OA
ATOM     11 OE1  GLU S   3      41.610  54.531  61.110  1.00 34.38 LIG-0.65  OA
ENDBRANCH 8 9
ENDBRANCH 7 8
ENDBRANCH 6 7
BRANCH 6 12
ATOM     12  N   GLU S   3      45.398  54.058  58.477  1.00 29.65 LIG-0.35  N 
ATOM     13 H    GLU S   3      45.448  54.666  59.083  1.00 29.65 LIG 0.16  HD
ATOM     14  C   ASN S   2      46.281  53.080  58.359  1.00 31.60 LIG 0.26  C 
ATOM     15 O    ASN S   2      46.109  52.092  57.659  1.00 31.89 LIG-0.27  OA
BRANCH 14 16
ATOM     16  CA  ASN S   2      47.581  53.276  59.158  1.00 33.47 LIG 0.41  C 
ATOM     17  N   ASN S   2      47.706  54.615  59.792  1.00 34.35 LIG 0.61  N 
BRANCH 16 18
ATOM     18  CB  ASN S   2      47.783  52.206  60.216  1.00 34.36 LIG 0.15  C 
BRANCH 18 19
ATOM     19  CG  ASN S   2      46.926  52.463  61.450  1.00 36.60 LIG 0.22  C 
ATOM     20 OD1  ASN S   2      46.109  53.423  61.498  1.00 40.55 LIG-0.27  OA
ATOM     21  ND2 ASN S   2      47.097  51.617  62.455  1.00 40.03 LIG-0.37  N 
ATOM     22 22HD ASN S   2      47.665  50.974  62.384  1.00 40.03 LIG 0.16  HD
ATOM     23 21HD ASN S   2      46.641  51.710  63.179  1.00 40.03 LIG 0.16  HD
ENDBRANCH 18 19
ENDBRANCH 16 18
ENDBRANCH 14 16
ENDBRANCH 6 12
ENDBRANCH 4 6
ENDBRANCH 1 2
BRANCH 1 24
ATOM     24  C   PHE S   4      43.635  53.791  52.900  1.00 20.14 LIG 0.24  C 
ATOM     25  N   TYR S   5      43.797  54.183  51.642  1.00 19.70 LIG-0.35  N 
ATOM     26 H    TYR S   5      44.488  54.615  51.365  1.00 19.70 LIG 0.16  HD
ATOM     27 O    PHE S   4      42.635  53.207  53.299  1.00 18.43 LIG-0.27  OA
BRANCH 25 28
ATOM     28  CA  TYR S   5      42.808  53.914  50.599  1.00 19.15 LIG 0.18  C 
BRANCH 28 29
ATOM     29  C   TYR S   5      43.579  53.811  49.292  1.00 19.17 LIG 0.24  C 
ATOM     30  N   PHE S   6      43.098  52.948  48.402  1.00 19.00 LIG-0.34  N 
ATOM     31 H    PHE S   6      42.406  52.458  48.547  1.00 19.00 LIG 0.16  HD
ATOM     32 O    TYR S   5      44.610  54.462  49.107  1.00 19.39 LIG-0.27  OA
BRANCH 30 33
ATOM     33  CA  PHE S   6      43.693  52.743  47.087  1.00 19.20 LIG 0.19  C 
BRANCH 33 34
ATOM     34  C   PHE S   6      42.828  51.907  46.153  1.00 19.81 LIG 0.20  C 
ATOM     35 O    PHE S   6      41.609  51.791  46.370  1.00 18.53 LIG-0.65  OA
ATOM     36 OXT  PHE S   6      43.428  51.351  45.195  1.00 20.48 LIG-0.65  OA
ENDBRANCH 33 34
BRANCH 33 37
ATOM     37  CB  PHE S   6      45.068  52.088  47.250  1.00 19.81 LIG 0.07  C 
BRANCH 37 38
ATOM     38  CG  PHE S   6      46.140  52.654  46.312  1.00 21.45 LIG-0.06  A 
ATOM     39  CD2 PHE S   6      47.240  53.318  46.821  1.00 24.56 LIG 0.01  A 
ATOM     40  CE2 PHE S   6      48.221  53.841  45.967  1.00 25.95 LIG 0.00  A 
ATOM     41  CZ  PHE S   6      48.109  53.654  44.616  1.00 23.46 LIG 0.00  A 
ATOM     42  CE1 PHE S   6      47.037  52.973  44.097  1.00 24.74 LIG 0.00  A 
ATOM     43  CD1 PHE S   6      46.066  52.476  44.923  1.00 22.31 LIG 0.01  A 
ENDBRANCH 37 38
ENDBRANCH 33 37
ENDBRANCH 30 33
ENDBRANCH 28 29
BRANCH 28 44
ATOM     44  CB  TYR S   5      41.773  55.053  50.569  1.00 19.45 LIG 0.07  C 
BRANCH 44 45
ATOM     45  CG  TYR S   5      40.999  55.236  49.291  1.00 19.88 LIG-0.06  A 
ATOM     46  CD1 TYR S   5      40.253  54.208  48.724  1.00 18.15 LIG 0.01  A 
ATOM     47  CE1 TYR S   5      39.574  54.385  47.546  1.00 18.26 LIG 0.04  A 
ATOM     48  CZ  TYR S   5      39.610  55.620  46.917  1.00 18.69 LIG 0.07  A 
ATOM     49  CE2 TYR S   5      40.321  56.649  47.461  1.00 19.96 LIG 0.04  A 
ATOM     50  CD2 TYR S   5      41.022  56.456  48.641  1.00 21.89 LIG 0.01  A 
BRANCH 48 51
ATOM     51 OH   TYR S   5      38.938  55.820  45.742  1.00 21.24 LIG-0.36  OA
ATOM     52 HH   TYR S   5      38.967  55.119  45.280  1.00 21.24 LIG 0.22  HD
ENDBRANCH 48 51
ENDBRANCH 44 45
ENDBRANCH 28 44
ENDBRANCH 25 28
ENDBRANCH 1 24
BRANCH 1 53
ATOM     53  CB  PHE S   4      45.980  53.181  53.433  1.00 21.76 LIG 0.07  C 
BRANCH 53 54
ATOM     54  CG  PHE S   4      47.292  53.654  53.961  1.00 21.60 LIG-0.06  A 
ATOM     55  CD2 PHE S   4      47.561  53.602  55.310  1.00 23.13 LIG 0.01  A 
ATOM     56  CE2 PHE S   4      48.744  54.065  55.805  1.00 23.23 LIG 0.00  A 
ATOM     57  CZ  PHE S   4      49.707  54.512  54.953  1.00 22.51 LIG 0.00  A 
ATOM     58  CE1 PHE S   4      49.460  54.575  53.598  1.00 22.53 LIG 0.00  A 
ATOM     59  CD1 PHE S   4      48.255  54.148  53.099  1.00 22.71 LIG 0.01  A 
ENDBRANCH 53 54
ENDBRANCH 1 53
TORSDOF 21
ENDMDL
MODEL 6
USER: ADFR SOLUTION from run 116
USER: SCORE 21.130293 LL:  -5.412 LR: -16.194 RR:   0.000 FEB:  -9.929
USER: RMSD 2.966912
USER: SEED 115
USER: STATUS 1 or 2 clusters left
USER: GENES 23
USER: genes 0 Translation |==|  0.55375 0.50323 0.47878
USER: genes 1 Rotation |==|  0.51667 0.51224 0.50587 0.99954
USER: genes 2 Torsion [C]-CA--N-[C] |==|  0.80576
USER: genes 3 Torsion [N]-C--CA-[N] |==|  0.08631
USER: genes 4 Torsion [C]-CA--CB-[CG] |==|  0.40464
USER: genes 5 Torsion [CA]-CB--CG-[CD] |==|  0.28073
USER: genes 6 Torsion [CB]-CG--CD-[OE2] |==|  0.42431
USER: genes 7 Torsion [C]-CA--N-[C] |==|  0.19442
USER: genes 8 Torsion [N]-C--CA-[N] |==|  0.37739
USER: genes 9 Torsion [C]-CA--CB-[CG] |==|  0.47774
USER: genes 10 Torsion [CA]-CB--CG-[OD1] |==|  0.06792
USER: genes 11 Torsion [N]-CA--C-[N] |==|  0.42440
USER: genes 12 Torsion [C]-N--CA-[C] |==|  0.70034
USER: genes 13 Torsion [N]-CA--C-[N] |==|  0.30615
USER: genes 14 Torsion [C]-N--CA-[C] |==|  0.70425
USER: genes 15 Torsion [N]-CA--C-[O] |==|  0.92512
USER: genes 16 Torsion [N]-CA--CB-[CG] |==|  0.82263
USER: genes 17 Torsion [CA]-CB--CG-[CD2] |==|  0.44403
USER: genes 18 Torsion [N]-CA--CB-[CG] |==|  0.81069
USER: genes 19 Torsion [CA]-CB--CG-[CD2] |==|  0.59465
USER: genes 20 Torsion [CE1]-CZ--OH-[HH] |==|  0.90351
USER: genes 21 Torsion [N]-CA--CB-[CG] |==|  0.77837
USER: genes 22 Torsion [CA]-CB--CG-[CD1] |==|  0.69359
ROOT
ATOM      1  CA  PHE S   4      44.907  54.027  53.279  1.00 21.41 LIG 0.18  C 
ENDROOT
BRANCH 1 2
ATOM      2  N   PHE S   4      44.569  53.599  54.630  1.00 22.57 LIG-0.35  N 
ATOM      3 H    PHE S   4      44.999  52.902  54.894  1.00 22.57 LIG 0.16  HD
ATOM      4  C   GLU S   3      43.673  54.237  55.382  1.00 26.46 LIG 0.24  C 
ATOM      5 O    GLU S   3      43.054  55.235  54.997  1.00 26.71 LIG-0.27  OA
BRANCH 4 6
ATOM      6  CA  GLU S   3      43.385  53.625  56.743  1.00 28.27 LIG 0.18  C 
BRANCH 6 7
ATOM      7  CB  GLU S   3      43.024  54.808  57.627  1.00 28.84 LIG 0.04  C 
BRANCH 7 8
ATOM      8  CG  GLU S   3      41.997  54.591  58.686  1.00 31.31 LIG 0.12  C 
BRANCH 8 9
ATOM      9  CD  GLU S   3      42.680  54.411  60.020  1.00 32.39 LIG 0.17  C 
ATOM     10 OE2  GLU S   3      42.051  54.727  61.030  1.00 38.97 LIG-0.65  OA
ATOM     11 OE1  GLU S   3      43.863  53.974  60.048  1.00 34.38 LIG-0.65  OA
ENDBRANCH 8 9
ENDBRANCH 7 8
ENDBRANCH 6 7
BRANCH 6 12
ATOM     12  N   GLU S   3      44.609  52.958  57.230  1.00 29.65 LIG-0.35  N 
ATOM     13 H    GLU S   3      44.552  52.100  57.240  1.00 29.65 LIG 0.16  HD
ATOM     14  C   ASN S   2      45.690  53.616  57.613  1.00 31.60 LIG 0.26  C 
ATOM     15 O    ASN S   2      45.871  54.807  57.398  1.00 31.89 LIG-0.27  OA
BRANCH 14 16
ATOM     16  CA  ASN S   2      46.724  52.778  58.386  1.00 33.47 LIG 0.41  C 
ATOM     17  N   ASN S   2      48.129  53.007  57.959  1.00 34.35 LIG 0.61  N 
BRANCH 16 18
ATOM     18  CB  ASN S   2      46.625  52.970  59.889  1.00 34.36 LIG 0.15  C 
BRANCH 18 19
ATOM     19  CG  ASN S   2      47.517  51.992  60.644  1.00 36.60 LIG 0.22  C 
ATOM     20 OD1  ASN S   2      48.535  51.477  60.105  1.00 40.55 LIG-0.27  OA
ATOM     21  ND2 ASN S   2      47.152  51.724  61.889  1.00 40.03 LIG-0.37  N 
ATOM     22 22HD ASN S   2      46.450  52.095  62.221  1.00 40.03 LIG 0.16  HD
ATOM     23 21HD ASN S   2      47.616  51.179  62.365  1.00 40.03 LIG 0.16  HD
ENDBRANCH 18 19
ENDBRANCH 16 18
ENDBRANCH 14 16
ENDBRANCH 6 12
ENDBRANCH 4 6
ENDBRANCH 1 2
BRANCH 1 24
ATOM     24  C   PHE S   4      43.742  53.771  52.326  1.00 20.14 LIG 0.24  C 
ATOM     25  N   TYR S   5      43.682  54.578  51.274  1.00 19.70 LIG-0.35  N 
ATOM     26 H    TYR S   5      44.218  55.241  51.153  1.00 19.70 LIG 0.16  HD
ATOM     27 O    PHE S   4      42.955  52.850  52.513  1.00 18.43 LIG-0.27  OA
BRANCH 25 28
ATOM     28  CA  TYR S   5      42.690  54.417  50.212  1.00 19.15 LIG 0.18  C 
BRANCH 28 29
ATOM     29  C   TYR S   5      43.441  53.893  48.998  1.00 19.17 LIG 0.24  C 
ATOM     30  N   PHE S   6      43.184  52.634  48.656  1.00 19.00 LIG-0.34  N 
ATOM     31 H    PHE S   6      42.644  52.128  49.095  1.00 19.00 LIG 0.16  HD
ATOM     32 O    TYR S   5      44.267  54.594  48.408  1.00 19.39 LIG-0.27  OA
BRANCH 30 33
ATOM     33  CA  PHE S   6      43.792  51.980  47.504  1.00 19.20 LIG 0.19  C 
BRANCH 33 34
ATOM     34  C   PHE S   6      42.831  51.791  46.337  1.00 19.81 LIG 0.20  C 
ATOM     35 O    PHE S   6      41.609  51.696  46.545  1.00 18.53 LIG-0.65  OA
ATOM     36 OXT  PHE S   6      43.358  51.722  45.195  1.00 20.48 LIG-0.65  OA
ENDBRANCH 33 34
BRANCH 33 37
ATOM     37  CB  PHE S   6      44.363  50.626  47.933  1.00 19.81 LIG 0.07  C 
BRANCH 37 38
ATOM     38  CG  PHE S   6      45.503  50.728  48.954  1.00 21.45 LIG-0.06  A 
ATOM     39  CD2 PHE S   6      45.842  49.644  49.740  1.00 24.56 LIG 0.01  A 
ATOM     40  CE2 PHE S   6      46.881  49.734  50.678  1.00 25.95 LIG 0.00  A 
ATOM     41  CZ  PHE S   6      47.595  50.896  50.783  1.00 23.46 LIG 0.00  A 
ATOM     42  CE1 PHE S   6      47.289  51.972  49.989  1.00 24.74 LIG 0.00  A 
ATOM     43  CD1 PHE S   6      46.264  51.897  49.085  1.00 22.31 LIG 0.01  A 
ENDBRANCH 37 38
ENDBRANCH 33 37
ENDBRANCH 30 33
ENDBRANCH 28 29
BRANCH 28 44
ATOM     44  CB  TYR S   5      42.016  55.772  49.931  1.00 19.45 LIG 0.07  C 
BRANCH 44 45
ATOM     45  CG  TYR S   5      41.128  56.329  51.012  1.00 19.88 LIG-0.06  A 
ATOM     46  CD1 TYR S   5      41.393  56.130  52.363  1.00 18.15 LIG 0.01  A 
ATOM     47  CE1 TYR S   5      40.560  56.623  53.333  1.00 18.26 LIG 0.04  A 
ATOM     48  CZ  TYR S   5      39.442  57.356  52.965  1.00 18.69 LIG 0.07  A 
ATOM     49  CE2 TYR S   5      39.169  57.579  51.647  1.00 19.96 LIG 0.04  A 
ATOM     50  CD2 TYR S   5      40.004  57.059  50.671  1.00 21.89 LIG 0.01  A 
BRANCH 48 51
ATOM     51 OH   TYR S   5      38.598  57.860  53.917  1.00 21.24 LIG-0.36  OA
ATOM     52 HH   TYR S   5      38.554  57.325  54.563  1.00 21.24 LIG 0.22  HD
ENDBRANCH 48 51
ENDBRANCH 44 45
ENDBRANCH 28 44
ENDBRANCH 25 28
ENDBRANCH 1 24
BRANCH 1 53
ATOM     53  CB  PHE S   4      46.116  53.244  52.813  1.00 21.76 LIG 0.07  C 
BRANCH 53 54
ATOM     54  CG  PHE S   4      47.405  53.770  53.347  1.00 21.60 LIG-0.06  A 
ATOM     55  CD2 PHE S   4      47.714  53.640  54.683  1.00 23.13 LIG 0.01  A 
ATOM     56  CE2 PHE S   4      48.874  54.149  55.185  1.00 23.23 LIG 0.00  A 
ATOM     57  CZ  PHE S   4      49.780  54.724  54.347  1.00 22.51 LIG 0.00  A 
ATOM     58  CE1 PHE S   4      49.494  54.867  53.007  1.00 22.53 LIG 0.00  A 
ATOM     59  CD1 PHE S   4      48.309  54.392  52.503  1.00 22.71 LIG 0.01  A 
ENDBRANCH 53 54
ENDBRANCH 1 53
TORSDOF 21
ENDMDL
MODEL 7
USER: ADFR SOLUTION from run 100
USER: SCORE 21.570968 LL:  -5.997 LR: -15.945 RR:   0.000 FEB:  -9.681
USER: RMSD 2.962131
USER: SEED 99
USER: STATUS 1 or 2 clusters left
USER: GENES 23
USER: genes 0 Translation |==|  0.48601 0.55491 0.49233
USER: genes 1 Rotation |==|  0.56908 0.50824 0.68027 0.96115
USER: genes 2 Torsion [C]-CA--N-[C] |==|  0.56860
USER: genes 3 Torsion [N]-C--CA-[N] |==|  0.35755
USER: genes 4 Torsion [C]-CA--CB-[CG] |==|  0.79295
USER: genes 5 Torsion [CA]-CB--CG-[CD] |==|  0.72969
USER: genes 6 Torsion [CB]-CG--CD-[OE2] |==|  0.19750
USER: genes 7 Torsion [C]-CA--N-[C] |==|  0.79057
USER: genes 8 Torsion [N]-C--CA-[N] |==|  0.08227
USER: genes 9 Torsion [C]-CA--CB-[CG] |==|  0.69013
USER: genes 10 Torsion [CA]-CB--CG-[OD1] |==|  0.75370
USER: genes 11 Torsion [N]-CA--C-[N] |==|  0.48884
USER: genes 12 Torsion [C]-N--CA-[C] |==|  0.76862
USER: genes 13 Torsion [N]-CA--C-[N] |==|  0.47560
USER: genes 14 Torsion [C]-N--CA-[C] |==|  0.57818
USER: genes 15 Torsion [N]-CA--C-[O] |==|  0.44387
USER: genes 16 Torsion [N]-CA--CB-[CG] |==|  0.71884
USER: genes 17 Torsion [CA]-CB--CG-[CD2] |==|  0.49214
USER: genes 18 Torsion [N]-CA--CB-[CG] |==|  0.10567
USER: genes 19 Torsion [CA]-CB--CG-[CD2] |==|  0.64775
USER: genes 20 Torsion [CE1]-CZ--OH-[HH] |==|  0.13055
USER: genes 21 Torsion [N]-CA--CB-[CG] |==|  0.11159
USER: genes 22 Torsion [CA]-CB--CG-[CD1] |==|  0.64071
ROOT
ATOM      1  CA  PHE S   4      43.586  54.880  53.625  1.00 21.41 LIG 0.18  C 
ENDROOT
BRANCH 1 2
ATOM      2  N   PHE S   4      43.675  54.043  54.814  1.00 22.57 LIG-0.35  N 
ATOM      3 H    PHE S   4      43.611  53.200  54.653  1.00 22.57 LIG 0.16  HD
ATOM      4  C   GLU S   3      43.840  54.547  56.036  1.00 26.46 LIG 0.24  C 
ATOM      5 O    GLU S   3      43.926  55.759  56.262  1.00 26.71 LIG-0.27  OA
BRANCH 4 6
ATOM      6  CA  GLU S   3      43.846  53.545  57.178  1.00 28.27 LIG 0.18  C 
BRANCH 6 7
ATOM      7  CB  GLU S   3      42.582  53.852  57.965  1.00 28.84 LIG 0.04  C 
BRANCH 7 8
ATOM      8  CG  GLU S   3      42.578  55.075  58.817  1.00 31.31 LIG 0.12  C 
BRANCH 8 9
ATOM      9  CD  GLU S   3      42.901  54.696  60.242  1.00 32.39 LIG 0.17  C 
ATOM     10 OE2  GLU S   3      44.055  54.350  60.494  1.00 38.97 LIG-0.65  OA
ATOM     11 OE1  GLU S   3      41.981  54.724  61.105  1.00 34.38 LIG-0.65  OA
ENDBRANCH 8 9
ENDBRANCH 7 8
ENDBRANCH 6 7
BRANCH 6 12
ATOM     12  N   GLU S   3      45.048  53.776  58.003  1.00 29.65 LIG-0.35  N 
ATOM     13 H    GLU S   3      44.883  54.172  58.749  1.00 29.65 LIG 0.16  HD
ATOM     14  C   ASN S   2      46.264  53.410  57.633  1.00 31.60 LIG 0.26  C 
ATOM     15 O    ASN S   2      46.489  52.657  56.695  1.00 31.89 LIG-0.27  OA
BRANCH 14 16
ATOM     16  CA  ASN S   2      47.409  54.020  58.459  1.00 33.47 LIG 0.41  C 
ATOM     17  N   ASN S   2      47.045  54.321  59.869  1.00 34.35 LIG 0.61  N 
BRANCH 16 18
ATOM     18  CB  ASN S   2      48.662  53.163  58.443  1.00 34.36 LIG 0.15  C 
BRANCH 18 19
ATOM     19  CG  ASN S   2      48.942  52.547  59.809  1.00 36.60 LIG 0.22  C 
ATOM     20 OD1  ASN S   2      49.633  53.149  60.675  1.00 40.55 LIG-0.27  OA
ATOM     21  ND2 ASN S   2      48.414  51.349  60.019  1.00 40.03 LIG-0.37  N 
ATOM     22 22HD ASN S   2      47.949  50.970  59.402  1.00 40.03 LIG 0.16  HD
ATOM     23 21HD ASN S   2      48.538  50.950  60.771  1.00 40.03 LIG 0.16  HD
ENDBRANCH 18 19
ENDBRANCH 16 18
ENDBRANCH 14 16
ENDBRANCH 6 12
ENDBRANCH 4 6
ENDBRANCH 1 2
BRANCH 1 24
ATOM     24  C   PHE S   4      42.820  54.162  52.516  1.00 20.14 LIG 0.24  C 
ATOM     25  N   TYR S   5      42.613  54.875  51.416  1.00 19.70 LIG-0.35  N 
ATOM     26 H    TYR S   5      42.835  55.703  51.339  1.00 19.70 LIG 0.16  HD
ATOM     27 O    PHE S   4      42.471  52.993  52.636  1.00 18.43 LIG-0.27  OA
BRANCH 25 28
ATOM     28  CA  TYR S   5      41.980  54.317  50.222  1.00 19.15 LIG 0.18  C 
BRANCH 28 29
ATOM     29  C   TYR S   5      43.079  53.606  49.446  1.00 19.17 LIG 0.24  C 
ATOM     30  N   PHE S   6      42.677  52.873  48.412  1.00 19.00 LIG-0.34  N 
ATOM     31 H    PHE S   6      41.850  52.782  48.193  1.00 19.00 LIG 0.16  HD
ATOM     32 O    TYR S   5      44.259  53.681  49.798  1.00 19.39 LIG-0.27  OA
BRANCH 30 33
ATOM     33  CA  PHE S   6      43.596  52.149  47.542  1.00 19.20 LIG 0.19  C 
BRANCH 33 34
ATOM     34  C   PHE S   6      43.071  51.965  46.124  1.00 19.81 LIG 0.20  C 
ATOM     35 O    PHE S   6      43.859  51.717  45.195  1.00 18.53 LIG-0.65  OA
ATOM     36 OXT  PHE S   6      41.827  52.098  45.975  1.00 20.48 LIG-0.65  OA
ENDBRANCH 33 34
BRANCH 33 37
ATOM     37  CB  PHE S   6      43.912  50.786  48.162  1.00 19.81 LIG 0.07  C 
BRANCH 37 38
ATOM     38  CG  PHE S   6      45.270  50.726  48.871  1.00 21.45 LIG-0.06  A 
ATOM     39  CD2 PHE S   6      45.670  49.579  49.529  1.00 24.56 LIG 0.01  A 
ATOM     40  CE2 PHE S   6      46.909  49.521  50.182  1.00 25.95 LIG 0.00  A 
ATOM     41  CZ  PHE S   6      47.750  50.599  50.129  1.00 23.46 LIG 0.00  A 
ATOM     42  CE1 PHE S   6      47.380  51.735  49.456  1.00 24.74 LIG 0.00  A 
ATOM     43  CD1 PHE S   6      46.164  51.805  48.832  1.00 22.31 LIG 0.01  A 
ENDBRANCH 37 38
ENDBRANCH 33 37
ENDBRANCH 30 33
ENDBRANCH 28 29
BRANCH 28 44
ATOM     44  CB  TYR S   5      41.340  55.452  49.403  1.00 19.45 LIG 0.07  C 
BRANCH 44 45
ATOM     45  CG  TYR S   5      42.093  56.755  49.339  1.00 19.88 LIG-0.06  A 
ATOM     46  CD1 TYR S   5      43.426  56.821  48.948  1.00 18.15 LIG 0.01  A 
ATOM     47  CE1 TYR S   5      44.103  58.012  48.920  1.00 18.26 LIG 0.04  A 
ATOM     48  CZ  TYR S   5      43.441  59.181  49.264  1.00 18.69 LIG 0.07  A 
ATOM     49  CE2 TYR S   5      42.129  59.145  49.635  1.00 19.96 LIG 0.04  A 
ATOM     50  CD2 TYR S   5      41.457  57.934  49.682  1.00 21.89 LIG 0.01  A 
BRANCH 48 51
ATOM     51 OH   TYR S   5      44.096  60.382  49.240  1.00 21.24 LIG-0.36  OA
ATOM     52 HH   TYR S   5      44.525  60.453  48.521  1.00 21.24 LIG 0.22  HD
ENDBRANCH 48 51
ENDBRANCH 44 45
ENDBRANCH 28 44
ENDBRANCH 25 28
ENDBRANCH 1 24
BRANCH 1 53
ATOM     53  CB  PHE S   4      44.989  55.187  53.146  1.00 21.76 LIG 0.07  C 
BRANCH 53 54
ATOM     54  CG  PHE S   4      45.916  54.023  53.240  1.00 21.60 LIG-0.06  A 
ATOM     55  CD2 PHE S   4      45.561  52.802  52.712  1.00 23.13 LIG 0.01  A 
ATOM     56  CE2 PHE S   4      46.387  51.724  52.824  1.00 23.23 LIG 0.00  A 
ATOM     57  CZ  PHE S   4      47.615  51.868  53.395  1.00 22.51 LIG 0.00  A 
ATOM     58  CE1 PHE S   4      47.992  53.079  53.933  1.00 22.53 LIG 0.00  A 
ATOM     59  CD1 PHE S   4      47.148  54.158  53.858  1.00 22.71 LIG 0.01  A 
ENDBRANCH 53 54
ENDBRANCH 1 53
TORSDOF 21
ENDMDL
