MODEL 1
USER: ADFR SOLUTION from run 13
USER: SCORE 14.720182 LL:  -2.416 LR: -12.304 RR:   0.000 FEB:  -9.619
USER: RMSD 0.983687
USER: SEED 326242
USER: STATUS 1 or 2 clusters left
USER: GENES 11
USER: genes 0 Translation |==|  0.60000 0.63530 0.46775
USER: genes 1 Rotation |==|  0.52444 0.47792 0.51459 0.99870
USER: genes 2 Torsion [N]-CA--C-[O] |==|  0.69879
USER: genes 3 Torsion [C]-N--CA-[C] |==|  0.52520
USER: genes 4 Torsion [N]-CA--C-[OXT] |==|  0.07283
USER: genes 5 Torsion [N]-CA--CB-[CG2] |==|  0.21046
USER: genes 6 Torsion [CA]-CB--CG1-[CD1] |==|  0.11851
USER: genes 7 Torsion [N]-C--CA-[N] |==|  0.39285
USER: genes 8 Torsion [C]-CA--CB-[CG2] |==|  0.20344
USER: genes 9 Torsion [CA]-CB--CG1-[CD1] |==|  0.77932
USER: genes 10 Torsion [C]-CA--N-[H3] |==|  0.12686
ROOT
ATOM      1  C   ILE C   1      56.526  63.666  35.818  1.00 27.75 LIG 0.25  C 
ATOM      2 O    ILE C   1      57.040  62.697  35.255  1.00 26.33 LIG-0.27  OA
ATOM      3  N   PRO C   2      56.775  63.957  37.100  1.00 28.60 LIG-0.34  N 
ATOM      4  CA  PRO C   2      57.650  63.104  37.901  1.00 29.30 LIG 0.18  C 
ATOM      5  CB  PRO C   2      58.026  64.005  39.073  1.00 28.96 LIG 0.04  C 
ATOM      6  CG  PRO C   2      56.800  64.827  39.256  1.00 29.77 LIG 0.02  C 
ATOM      7  CD  PRO C   2      56.426  65.184  37.830  1.00 29.26 LIG 0.13  C 
ENDROOT
BRANCH 4 8
ATOM      8  C   PRO C   2      56.877  61.861  38.331  1.00 30.63 LIG 0.24  C 
ATOM      9 O    PRO C   2      56.526  61.706  39.503  1.00 29.31 LIG-0.27  OA
ATOM     10  N   ILE C   3      56.603  60.992  37.362  1.00 30.96 LIG-0.34  N 
ATOM     11 H    ILE C   3      56.829  61.112  36.541  1.00 30.96 LIG 0.16  HD
BRANCH 10 12
ATOM     12  CA  ILE C   3      55.889  59.746  37.602  1.00 33.52 LIG 0.19  C 
BRANCH 12 13
ATOM     13  C   ILE C   3      55.942  58.888  36.338  1.00 34.53 LIG 0.20  C 
ATOM     14 OXT  ILE C   3      56.901  59.056  35.552  1.00 37.77 LIG-0.65  OA
ATOM     15 O    ILE C   3      55.026  58.059  36.150  1.00 32.63 LIG-0.65  OA
ENDBRANCH 12 13
BRANCH 12 16
ATOM     16  CB  ILE C   3      54.408  60.005  37.963  1.00 35.15 LIG 0.01  C 
ATOM     17  CG2 ILE C   3      53.620  60.376  36.708  1.00 35.36 LIG 0.01  C 
BRANCH 16 18
ATOM     18  CG1 ILE C   3      53.796  58.751  38.594  1.00 35.72 LIG 0.00  C 
ATOM     19  CD1 ILE C   3      54.711  58.059  39.607  1.00 34.66 LIG 0.01  C 
ENDBRANCH 16 18
ENDBRANCH 12 16
ENDBRANCH 10 12
ENDBRANCH 4 8
BRANCH 1 20
ATOM     20  CA  ILE C   1      55.596  64.608  35.072  1.00 26.33 LIG 0.28  C 
BRANCH 20 21
ATOM     21  CB  ILE C   1      54.173  63.998  35.115  1.00 27.81 LIG 0.02  C 
ATOM     22  CG2 ILE C   1      53.586  64.147  36.514  1.00 28.56 LIG 0.01  C 
BRANCH 21 23
ATOM     23  CG1 ILE C   1      53.262  64.696  34.103  1.00 27.24 LIG 0.00  C 
ATOM     24  CD1 ILE C   1      52.731  66.041  34.593  1.00 25.82 LIG 0.01  C 
ENDBRANCH 21 23
ENDBRANCH 20 21
BRANCH 20 25
ATOM     25  N   ILE C   1      56.065  64.808  33.677  1.00 24.71 LIG-0.07  N 
ATOM     26 H1   ILE C   1      55.416  65.184  33.197  1.00 24.71 LIG 0.28  HD
ATOM     27 H3   ILE C   1      56.280  64.022  33.321  1.00 24.71 LIG 0.28  HD
ATOM     28 H2   ILE C   1      56.779  65.339  33.677  1.00 24.71 LIG 0.28  HD
ENDBRANCH 20 25
ENDBRANCH 1 20
TORSDOF 9
ENDMDL
MODEL 2
USER: ADFR SOLUTION from run 101
USER: SCORE 13.213582 LL:  -2.003 LR: -11.210 RR:   0.000 FEB:  -8.526
USER: RMSD 2.204323
USER: SEED 100
USER: STATUS 1 or 2 clusters left
USER: GENES 11
USER: genes 0 Translation |==|  0.59989 0.63146 0.46439
USER: genes 1 Rotation |==|  0.53909 0.47450 0.52068 0.99739
USER: genes 2 Torsion [N]-CA--C-[O] |==|  0.69953
USER: genes 3 Torsion [C]-N--CA-[C] |==|  0.16515
USER: genes 4 Torsion [N]-CA--C-[OXT] |==|  0.50100
USER: genes 5 Torsion [N]-CA--CB-[CG2] |==|  0.27001
USER: genes 6 Torsion [CA]-CB--CG1-[CD1] |==|  0.33312
USER: genes 7 Torsion [N]-C--CA-[N] |==|  0.39966
USER: genes 8 Torsion [C]-CA--CB-[CG2] |==|  0.98162
USER: genes 9 Torsion [CA]-CB--CG1-[CD1] |==|  0.24827
USER: genes 10 Torsion [C]-CA--N-[H3] |==|  0.12439
ROOT
ATOM      1  C   ILE C   1      56.524  63.603  35.768  1.00 27.75 LIG 0.25  C 
ATOM      2 O    ILE C   1      57.071  62.681  35.157  1.00 26.33 LIG-0.27  OA
ATOM      3  N   PRO C   2      56.749  63.825  37.067  1.00 28.60 LIG-0.34  N 
ATOM      4  CA  PRO C   2      57.637  62.950  37.830  1.00 29.30 LIG 0.18  C 
ATOM      5  CB  PRO C   2      57.974  63.791  39.058  1.00 28.96 LIG 0.04  C 
ATOM      6  CG  PRO C   2      56.724  64.568  39.270  1.00 29.77 LIG 0.02  C 
ATOM      7  CD  PRO C   2      56.358  64.998  37.862  1.00 29.26 LIG 0.13  C 
ENDROOT
BRANCH 4 8
ATOM      8  C   PRO C   2      56.891  61.664  38.177  1.00 30.63 LIG 0.24  C 
ATOM      9 O    PRO C   2      56.526  61.434  39.332  1.00 29.31 LIG-0.27  OA
ATOM     10  N   ILE C   3      56.658  60.844  37.157  1.00 30.96 LIG-0.34  N 
ATOM     11 H    ILE C   3      56.894  61.015  36.347  1.00 30.96 LIG 0.16  HD
BRANCH 10 12
ATOM     12  CA  ILE C   3      55.975  59.567  37.314  1.00 33.52 LIG 0.19  C 
BRANCH 12 13
ATOM     13  C   ILE C   3      54.580  59.814  37.888  1.00 34.53 LIG 0.20  C 
ATOM     14 OXT  ILE C   3      53.846  58.823  38.098  1.00 37.77 LIG-0.65  OA
ATOM     15 O    ILE C   3      54.240  60.994  38.122  1.00 32.63 LIG-0.65  OA
ENDBRANCH 12 13
BRANCH 12 16
ATOM     16  CB  ILE C   3      56.745  58.630  38.272  1.00 35.15 LIG 0.01  C 
ATOM     17  CG2 ILE C   3      56.151  58.711  39.677  1.00 35.36 LIG 0.01  C 
BRANCH 16 18
ATOM     18  CG1 ILE C   3      56.663  57.185  37.770  1.00 35.72 LIG 0.00  C 
ATOM     19  CD1 ILE C   3      58.026  56.559  37.462  1.00 34.66 LIG 0.01  C 
ENDBRANCH 16 18
ENDBRANCH 12 16
ENDBRANCH 10 12
ENDBRANCH 4 8
BRANCH 1 20
ATOM     20  CA  ILE C   1      55.579  64.562  35.064  1.00 26.33 LIG 0.28  C 
BRANCH 20 21
ATOM     21  CB  ILE C   1      54.160  63.942  35.107  1.00 27.81 LIG 0.02  C 
ATOM     22  CG2 ILE C   1      54.226  62.532  35.683  1.00 28.56 LIG 0.01  C 
BRANCH 21 23
ATOM     23  CG1 ILE C   1      53.228  64.799  35.966  1.00 27.24 LIG 0.00  C 
ATOM     24  CD1 ILE C   1      52.511  65.892  35.177  1.00 25.82 LIG 0.01  C 
ENDBRANCH 21 23
ENDBRANCH 20 21
BRANCH 20 25
ATOM     25  N   ILE C   1      56.027  64.809  33.670  1.00 24.71 LIG-0.07  N 
ATOM     26 H1   ILE C   1      55.366  65.184  33.207  1.00 24.71 LIG 0.28  HD
ATOM     27 H3   ILE C   1      56.255  64.037  33.291  1.00 24.71 LIG 0.28  HD
ATOM     28 H2   ILE C   1      56.731  65.354  33.677  1.00 24.71 LIG 0.28  HD
ENDBRANCH 20 25
ENDBRANCH 1 20
TORSDOF 9
ENDMDL
MODEL 3
USER: ADFR SOLUTION from run 72
USER: SCORE 13.398604 LL:  -2.421 LR: -10.978 RR:   0.000 FEB:  -8.293
USER: RMSD 1.611965
USER: SEED 71
USER: STATUS no improvement in best in 1 clusters for 5 generations
USER: GENES 11
USER: genes 0 Translation |==|  0.56896 0.62192 0.46336
USER: genes 1 Rotation |==|  0.47475 0.53416 0.44077 0.99466
USER: genes 2 Torsion [N]-CA--C-[O] |==|  0.68899
USER: genes 3 Torsion [C]-N--CA-[C] |==|  0.74324
USER: genes 4 Torsion [N]-CA--C-[OXT] |==|  0.29700
USER: genes 5 Torsion [N]-CA--CB-[CG2] |==|  0.51744
USER: genes 6 Torsion [CA]-CB--CG1-[CD1] |==|  0.55313
USER: genes 7 Torsion [N]-C--CA-[N] |==|  0.31155
USER: genes 8 Torsion [C]-CA--CB-[CG2] |==|  0.36827
USER: genes 9 Torsion [CA]-CB--CG1-[CD1] |==|  0.34123
USER: genes 10 Torsion [C]-CA--N-[H3] |==|  0.17314
ROOT
ATOM      1  C   ILE C   1      56.060  63.446  35.752  1.00 27.75 LIG 0.25  C 
ATOM      2 O    ILE C   1      56.140  62.291  35.326  1.00 26.33 LIG-0.27  OA
ATOM      3  N   PRO C   2      56.696  63.838  36.862  1.00 28.60 LIG-0.34  N 
ATOM      4  CA  PRO C   2      57.490  62.890  37.641  1.00 29.30 LIG 0.18  C 
ATOM      5  CB  PRO C   2      58.375  63.800  38.486  1.00 28.96 LIG 0.04  C 
ATOM      6  CG  PRO C   2      57.498  64.977  38.724  1.00 29.77 LIG 0.02  C 
ATOM      7  CD  PRO C   2      56.880  65.209  37.358  1.00 29.26 LIG 0.13  C 
ENDROOT
BRANCH 4 8
ATOM      8  C   PRO C   2      56.553  62.026  38.480  1.00 30.63 LIG 0.24  C 
ATOM      9 O    PRO C   2      56.531  62.122  39.709  1.00 29.31 LIG-0.27  OA
ATOM     10  N   ILE C   3      55.770  61.198  37.795  1.00 30.96 LIG-0.34  N 
ATOM     11 H    ILE C   3      55.770  61.147  36.937  1.00 30.96 LIG 0.16  HD
BRANCH 10 12
ATOM     12  CA  ILE C   3      54.830  60.291  38.440  1.00 33.52 LIG 0.19  C 
BRANCH 12 13
ATOM     13  C   ILE C   3      55.512  58.942  38.667  1.00 34.53 LIG 0.20  C 
ATOM     14 OXT  ILE C   3      55.839  58.636  39.835  1.00 37.77 LIG-0.65  OA
ATOM     15 O    ILE C   3      55.709  58.208  37.674  1.00 32.63 LIG-0.65  OA
ENDBRANCH 12 13
BRANCH 12 16
ATOM     16  CB  ILE C   3      53.573  60.069  37.568  1.00 35.15 LIG 0.01  C 
ATOM     17  CG2 ILE C   3      52.542  59.242  38.335  1.00 35.36 LIG 0.01  C 
BRANCH 16 18
ATOM     18  CG1 ILE C   3      52.956  61.417  37.185  1.00 35.72 LIG 0.00  C 
ATOM     19  CD1 ILE C   3      51.496  61.323  36.735  1.00 34.66 LIG 0.01  C 
ENDBRANCH 16 18
ENDBRANCH 12 16
ENDBRANCH 10 12
ENDBRANCH 4 8
BRANCH 1 20
ATOM     20  CA  ILE C   1      55.253  64.502  35.017  1.00 26.33 LIG 0.28  C 
BRANCH 20 21
ATOM     21  CB  ILE C   1      53.810  63.964  34.855  1.00 27.81 LIG 0.02  C 
ATOM     22  CG2 ILE C   1      52.805  65.035  35.262  1.00 28.56 LIG 0.01  C 
BRANCH 21 23
ATOM     23  CG1 ILE C   1      53.553  63.552  33.403  1.00 27.24 LIG 0.00  C 
ATOM     24  CD1 ILE C   1      53.123  62.095  33.254  1.00 25.82 LIG 0.01  C 
ENDBRANCH 21 23
ENDBRANCH 20 21
BRANCH 20 25
ATOM     25  N   ILE C   1      55.873  64.814  33.705  1.00 24.71 LIG-0.07  N 
ATOM     26 H1   ILE C   1      55.408  65.458  33.302  1.00 24.71 LIG 0.28  HD
ATOM     27 H3   ILE C   1      55.872  64.084  33.195  1.00 24.71 LIG 0.28  HD
ATOM     28 H2   ILE C   1      56.711  65.087  33.829  1.00 24.71 LIG 0.28  HD
ENDBRANCH 20 25
ENDBRANCH 1 20
TORSDOF 9
ENDMDL
