MODEL 1
USER: ADFR SOLUTION from run 148
USER: SCORE 15.052824 LL:  -2.759 LR: -12.412 RR:   0.000 FEB:  -9.131
USER: RMSD 2.612548
USER: SEED 147
USER: STATUS no improvement in best in 2 clusters for 5 generations
USER: GENES 13
USER: genes 0 Translation |==|  0.51612 0.59433 0.42048
USER: genes 1 Rotation |==|  0.47406 0.44241 0.52803 0.99520
USER: genes 2 Torsion [N]-CA--C-[N] |==|  0.24882
USER: genes 3 Torsion [C]-N--CA-[C] |==|  0.81201
USER: genes 4 Torsion [N]-CA--C-[N] |==|  0.93302
USER: genes 5 Torsion [C]-N--CA-[CB] |==|  0.24673
USER: genes 6 Torsion [N]-CA--C-[O] |==|  0.71567
USER: genes 7 Torsion [N]-CA--CB-[CG2] |==|  0.29237
USER: genes 8 Torsion [CA]-CB--CG1-[CD1] |==|  0.07424
USER: genes 9 Torsion [N]-C--CA-[N] |==|  0.43112
USER: genes 10 Torsion [C]-CA--CB-[CG1] |==|  0.59225
USER: genes 11 Torsion [C]-CA--N-[C] |==|  0.66643
USER: genes 12 Torsion [N]-C--CA-[N] |==|  0.40808
ROOT
ATOM      1  C   VAL J 902     119.602  78.191 -20.260  1.00 24.50 LIG 0.24  C 
ATOM      2 O    VAL J 902     120.235  78.743 -19.362  1.00 24.73 LIG-0.27  OA
ATOM      3  N   PRO J 903     118.357  77.727 -20.065  1.00 25.43 LIG-0.34  N 
ATOM      4  CA  PRO J 903     117.721  77.860 -18.748  1.00 29.14 LIG 0.18  C 
ATOM      5  CB  PRO J 903     116.267  77.469 -19.019  1.00 28.66 LIG 0.04  C 
ATOM      6  CG  PRO J 903     116.361  76.571 -20.207  1.00 26.54 LIG 0.02  C 
ATOM      7  CD  PRO J 903     117.393  77.244 -21.067  1.00 24.21 LIG 0.13  C 
ENDROOT
BRANCH 4 8
ATOM      8  C   PRO J 903     118.349  77.004 -17.653  1.00 32.58 LIG 0.24  C 
ATOM      9 O    PRO J 903     117.950  75.856 -17.431  1.00 31.49 LIG-0.27  OA
ATOM     10  N   ILE J 904     119.340  77.577 -16.976  1.00 35.09 LIG-0.35  N 
ATOM     11 H    ILE J 904     119.630  78.370 -17.139  1.00 35.09 LIG 0.16  HD
BRANCH 10 12
ATOM     12  CA  ILE J 904     120.034  76.903 -15.884  1.00 39.23 LIG 0.18  C 
BRANCH 12 13
ATOM     13  C   ILE J 904     119.050  76.744 -14.727  1.00 42.17 LIG 0.24  C 
ATOM     14 O    ILE J 904     119.213  75.852 -13.891  1.00 43.90 LIG-0.27  OA
ATOM     15  N   ALA J 905     118.034  77.598 -14.679  1.00 45.29 LIG-0.35  N 
ATOM     16 H    ALA J 905     117.902  78.226 -15.251  1.00 45.29 LIG 0.16  HD
BRANCH 15 17
ATOM     17  CA  ALA J 905     117.039  77.524 -13.611  1.00 47.78 LIG 0.16  C 
ATOM     18  CB  ALA J 905     117.485  78.368 -12.416  1.00 47.43 LIG 0.04  C 
BRANCH 17 19
ATOM     19  C   ALA J 905     115.671  77.992 -14.106  1.00 48.37 LIG 0.22  C 
ATOM     20 O    ALA J 905     115.247  79.118 -13.823  1.00 49.70 LIG-0.29  OA
ENDBRANCH 17 19
ENDBRANCH 15 17
ENDBRANCH 12 13
BRANCH 12 21
ATOM     21  CB  ILE J 904     121.216  77.739 -15.365  1.00 39.00 LIG 0.01  C 
ATOM     22  CG2 ILE J 904     120.856  78.368 -14.027  1.00 39.92 LIG 0.01  C 
BRANCH 21 23
ATOM     23  CG1 ILE J 904     122.466  76.872 -15.234  1.00 38.87 LIG 0.00  C 
ATOM     24  CD1 ILE J 904     122.469  75.693 -16.179  1.00 39.28 LIG 0.01  C 
ENDBRANCH 21 23
ENDBRANCH 12 21
ENDBRANCH 10 12
ENDBRANCH 4 8
BRANCH 1 25
ATOM     25  CA  VAL J 902     120.207  78.018 -21.655  1.00 23.95 LIG 0.18  C 
BRANCH 25 26
ATOM     26  CB  VAL J 902     120.789  76.579 -21.813  1.00 25.73 LIG 0.01  C 
ATOM     27  CG1 VAL J 902     122.002  76.584 -22.700  1.00 28.26 LIG 0.01  C 
ATOM     28  CG2 VAL J 902     121.165  76.026 -20.445  1.00 25.58 LIG 0.01  C 
ENDBRANCH 25 26
BRANCH 25 29
ATOM     29  N   VAL J 902     121.243  78.995 -21.955  1.00 22.50 LIG-0.34  N 
ATOM     30  C   ALA J 901     121.117  79.826 -22.983  1.00 20.52 LIG 0.26  C 
ATOM     31 O    ALA J 901     120.122  79.855 -23.690  1.00 24.49 LIG-0.27  OA
ATOM     32 H    VAL J 902     121.917  78.981 -21.421  1.00 22.50 LIG 0.16  HD
BRANCH 30 33
ATOM     33  CA  ALA J 901     122.260  80.789 -23.247  1.00 20.76 LIG 0.40  C 
ATOM     34  CB  ALA J 901     122.000  82.122 -22.511  1.00 20.79 LIG 0.06  C 
ATOM     35  N   ALA J 901     122.336  80.993 -24.706  1.00 14.38 LIG 0.61  N 
ENDBRANCH 30 33
ENDBRANCH 25 29
ENDBRANCH 1 25
TORSDOF 11
ENDMDL
MODEL 2
USER: ADFR SOLUTION from run 4
USER: SCORE 13.891514 LL:  -2.844 LR: -11.863 RR:   0.000 FEB:  -8.582
USER: RMSD 3.351459
USER: SEED 127919
USER: STATUS no improvement in best in 3 clusters for 5 generations
USER: GENES 13
USER: genes 0 Translation |==|  0.50537 0.59637 0.41528
USER: genes 1 Rotation |==|  0.48557 0.44911 0.52827 0.99639
USER: genes 2 Torsion [N]-CA--C-[N] |==|  0.25126
USER: genes 3 Torsion [C]-N--CA-[C] |==|  0.64549
USER: genes 4 Torsion [N]-CA--C-[N] |==|  0.66677
USER: genes 5 Torsion [C]-N--CA-[CB] |==|  0.27127
USER: genes 6 Torsion [N]-CA--C-[O] |==|  0.06503
USER: genes 7 Torsion [N]-CA--CB-[CG2] |==|  0.58483
USER: genes 8 Torsion [CA]-CB--CG1-[CD1] |==|  0.63920
USER: genes 9 Torsion [N]-C--CA-[N] |==|  0.44058
USER: genes 10 Torsion [C]-CA--CB-[CG1] |==|  0.33694
USER: genes 11 Torsion [C]-CA--N-[C] |==|  0.64238
USER: genes 12 Torsion [N]-C--CA-[N] |==|  0.41890
ROOT
ATOM      1  C   VAL J 902     119.448  78.228 -20.374  1.00 24.50 LIG 0.24  C 
ATOM      2 O    VAL J 902     120.106  78.743 -19.471  1.00 24.73 LIG-0.27  OA
ATOM      3  N   PRO J 903     118.212  77.749 -20.162  1.00 25.43 LIG-0.34  N 
ATOM      4  CA  PRO J 903     117.616  77.820 -18.823  1.00 29.14 LIG 0.18  C 
ATOM      5  CB  PRO J 903     116.155  77.434 -19.067  1.00 28.66 LIG 0.04  C 
ATOM      6  CG  PRO J 903     116.217  76.590 -20.297  1.00 26.54 LIG 0.02  C 
ATOM      7  CD  PRO J 903     117.220  77.305 -21.156  1.00 24.21 LIG 0.13  C 
ENDROOT
BRANCH 4 8
ATOM      8  C   PRO J 903     118.279  76.920 -17.785  1.00 32.58 LIG 0.24  C 
ATOM      9 O    PRO J 903     117.902  75.757 -17.614  1.00 31.49 LIG-0.27  OA
ATOM     10  N   ILE J 904     119.275  77.474 -17.101  1.00 35.09 LIG-0.35  N 
ATOM     11 H    ILE J 904     119.550  78.279 -17.229  1.00 35.09 LIG 0.16  HD
BRANCH 10 12
ATOM     12  CA  ILE J 904     120.002  76.756 -16.059  1.00 39.23 LIG 0.18  C 
BRANCH 12 13
ATOM     13  C   ILE J 904     119.994  77.618 -14.799  1.00 42.17 LIG 0.24  C 
ATOM     14 O    ILE J 904     118.926  77.942 -14.274  1.00 43.90 LIG-0.27  OA
ATOM     15  N   ALA J 905     121.174  77.991 -14.317  1.00 45.29 LIG-0.35  N 
ATOM     16 H    ALA J 905     121.929  77.777 -14.667  1.00 45.29 LIG 0.16  HD
BRANCH 15 17
ATOM     17  CA  ALA J 905     121.268  78.820 -13.117  1.00 47.78 LIG 0.16  C 
ATOM     18  CB  ALA J 905     121.535  77.944 -11.892  1.00 47.43 LIG 0.04  C 
BRANCH 17 19
ATOM     19  C   ALA J 905     122.370  79.870 -13.264  1.00 48.37 LIG 0.22  C 
ATOM     20 O    ALA J 905     122.747  80.239 -14.381  1.00 49.70 LIG-0.29  OA
ENDBRANCH 17 19
ENDBRANCH 15 17
ENDBRANCH 12 13
BRANCH 12 21
ATOM     21  CB  ILE J 904     121.474  76.533 -16.449  1.00 39.00 LIG 0.01  C 
ATOM     22  CG2 ILE J 904     121.984  75.245 -15.821  1.00 39.92 LIG 0.01  C 
BRANCH 21 23
ATOM     23  CG1 ILE J 904     121.622  76.490 -17.967  1.00 38.87 LIG 0.00  C 
ATOM     24  CD1 ILE J 904     122.402  75.290 -18.451  1.00 39.28 LIG 0.01  C 
ENDBRANCH 21 23
ENDBRANCH 12 21
ENDBRANCH 10 12
ENDBRANCH 4 8
BRANCH 1 25
ATOM     25  CA  VAL J 902     120.013  78.119 -21.792  1.00 23.95 LIG 0.18  C 
BRANCH 25 26
ATOM     26  CB  VAL J 902     120.517  76.668 -22.060  1.00 25.73 LIG 0.01  C 
ATOM     27  CG1 VAL J 902     119.805  76.059 -23.236  1.00 28.26 LIG 0.01  C 
ATOM     28  CG2 VAL J 902     122.015  76.690 -22.332  1.00 25.58 LIG 0.01  C 
ENDBRANCH 25 26
BRANCH 25 29
ATOM     29  N   VAL J 902     121.090  79.062 -22.053  1.00 22.50 LIG-0.34  N 
ATOM     30  C   ALA J 901     121.060  79.850 -23.121  1.00 20.52 LIG 0.26  C 
ATOM     31 O    ALA J 901     120.122  79.868 -23.903  1.00 24.49 LIG-0.27  OA
ATOM     32 H    VAL J 902     121.722  79.059 -21.470  1.00 22.50 LIG 0.16  HD
BRANCH 30 33
ATOM     33  CA  ALA J 901     122.241  80.779 -23.339  1.00 20.76 LIG 0.40  C 
ATOM     34  CB  ALA J 901     121.999  82.113 -22.598  1.00 20.79 LIG 0.06  C 
ATOM     35  N   ALA J 901     122.372  80.993 -24.792  1.00 14.38 LIG 0.61  N 
ENDBRANCH 30 33
ENDBRANCH 25 29
ENDBRANCH 1 25
TORSDOF 11
ENDMDL
MODEL 3
USER: ADFR SOLUTION from run 175
USER: SCORE 13.753002 LL:  -2.540 LR: -11.635 RR:   0.000 FEB:  -8.354
USER: RMSD 2.401981
USER: SEED 174
USER: STATUS no improvement in best in 6 clusters for 5 generations
USER: GENES 13
USER: genes 0 Translation |==|  0.53688 0.57554 0.40641
USER: genes 1 Rotation |==|  0.43913 0.41564 0.49566 0.98904
USER: genes 2 Torsion [N]-CA--C-[N] |==|  0.47692
USER: genes 3 Torsion [C]-N--CA-[C] |==|  0.58607
USER: genes 4 Torsion [N]-CA--C-[N] |==|  0.29653
USER: genes 5 Torsion [C]-N--CA-[CB] |==|  0.44951
USER: genes 6 Torsion [N]-CA--C-[O] |==|  0.46696
USER: genes 7 Torsion [N]-CA--CB-[CG2] |==|  0.45944
USER: genes 8 Torsion [CA]-CB--CG1-[CD1] |==|  0.44965
USER: genes 9 Torsion [N]-C--CA-[N] |==|  0.39318
USER: genes 10 Torsion [C]-CA--CB-[CG1] |==|  0.87731
USER: genes 11 Torsion [C]-CA--N-[C] |==|  0.81855
USER: genes 12 Torsion [N]-C--CA-[N] |==|  0.34683
ROOT
ATOM      1  C   VAL J 902     119.898  77.853 -20.566  1.00 24.50 LIG 0.24  C 
ATOM      2 O    VAL J 902     120.497  78.428 -19.659  1.00 24.73 LIG-0.27  OA
ATOM      3  N   PRO J 903     118.585  77.582 -20.486  1.00 25.43 LIG-0.34  N 
ATOM      4  CA  PRO J 903     117.829  77.961 -19.286  1.00 29.14 LIG 0.18  C 
ATOM      5  CB  PRO J 903     116.374  77.730 -19.701  1.00 28.66 LIG 0.04  C 
ATOM      6  CG  PRO J 903     116.473  76.685 -20.761  1.00 26.54 LIG 0.02  C 
ATOM      7  CD  PRO J 903     117.683  77.105 -21.546  1.00 24.21 LIG 0.13  C 
ENDROOT
BRANCH 4 8
ATOM      8  C   PRO J 903     118.196  77.177 -18.031  1.00 32.58 LIG 0.24  C 
ATOM      9 O    PRO J 903     118.956  76.205 -18.084  1.00 31.49 LIG-0.27  OA
ATOM     10  N   ILE J 904     117.651  77.618 -16.901  1.00 35.09 LIG-0.35  N 
ATOM     11 H    ILE J 904     117.134  78.303 -16.859  1.00 35.09 LIG 0.16  HD
BRANCH 10 12
ATOM     12  CA  ILE J 904     117.884  76.969 -15.615  1.00 39.23 LIG 0.18  C 
BRANCH 12 13
ATOM     13  C   ILE J 904     116.636  77.159 -14.757  1.00 42.17 LIG 0.24  C 
ATOM     14 O    ILE J 904     116.382  78.260 -14.265  1.00 43.90 LIG-0.27  OA
ATOM     15  N   ALA J 905     115.863  76.094 -14.575  1.00 45.29 LIG-0.35  N 
ATOM     16 H    ALA J 905     116.022  75.318 -14.908  1.00 45.29 LIG 0.16  HD
BRANCH 15 17
ATOM     17  CA  ALA J 905     114.649  76.176 -13.766  1.00 47.78 LIG 0.16  C 
ATOM     18  CB  ALA J 905     113.730  74.992 -14.074  1.00 47.43 LIG 0.04  C 
BRANCH 17 19
ATOM     19  C   ALA J 905     114.986  76.207 -12.275  1.00 48.37 LIG 0.22  C 
ATOM     20 O    ALA J 905     114.123  76.493 -11.438  1.00 49.70 LIG-0.29  OA
ENDBRANCH 17 19
ENDBRANCH 15 17
ENDBRANCH 12 13
BRANCH 12 21
ATOM     21  CB  ILE J 904     119.058  77.618 -14.861  1.00 39.00 LIG 0.01  C 
ATOM     22  CG2 ILE J 904     119.045  77.174 -13.405  1.00 39.92 LIG 0.01  C 
BRANCH 21 23
ATOM     23  CG1 ILE J 904     120.384  77.254 -15.524  1.00 38.87 LIG 0.00  C 
ATOM     24  CD1 ILE J 904     121.516  78.174 -15.129  1.00 39.28 LIG 0.01  C 
ENDBRANCH 21 23
ENDBRANCH 12 21
ENDBRANCH 10 12
ENDBRANCH 4 8
BRANCH 1 25
ATOM     25  CA  VAL J 902     120.627  77.428 -21.842  1.00 23.95 LIG 0.18  C 
BRANCH 25 26
ATOM     26  CB  VAL J 902     121.309  76.041 -21.635  1.00 25.73 LIG 0.01  C 
ATOM     27  CG1 VAL J 902     122.006  75.977 -20.304  1.00 28.26 LIG 0.01  C 
ATOM     28  CG2 VAL J 902     120.261  74.939 -21.709  1.00 25.58 LIG 0.01  C 
ENDBRANCH 25 26
BRANCH 25 29
ATOM     29  N   VAL J 902     121.622  78.395 -22.282  1.00 22.50 LIG-0.34  N 
ATOM     30  C   ALA J 901     121.259  79.606 -22.689  1.00 20.52 LIG 0.26  C 
ATOM     31 O    ALA J 901     120.100  79.990 -22.667  1.00 24.49 LIG-0.27  OA
ATOM     32 H    VAL J 902     122.435  78.116 -22.254  1.00 22.50 LIG 0.16  HD
BRANCH 30 33
ATOM     33  CA  ALA J 901     122.355  80.541 -23.166  1.00 20.76 LIG 0.40  C 
ATOM     34  CB  ALA J 901     122.472  81.743 -22.202  1.00 20.79 LIG 0.06  C 
ATOM     35  N   ALA J 901     121.997  80.983 -24.527  1.00 14.38 LIG 0.61  N 
ENDBRANCH 30 33
ENDBRANCH 25 29
ENDBRANCH 1 25
TORSDOF 11
ENDMDL
MODEL 4
USER: ADFR SOLUTION from run 42
USER: SCORE 13.342844 LL:  -2.770 LR: -10.830 RR:   0.000 FEB:  -7.549
USER: RMSD 3.607784
USER: SEED 41
USER: STATUS no improvement in best in 6 clusters for 5 generations
USER: GENES 13
USER: genes 0 Translation |==|  0.51186 0.59060 0.43226
USER: genes 1 Rotation |==|  0.47664 0.40748 0.49842 0.99081
USER: genes 2 Torsion [N]-CA--C-[N] |==|  0.50145
USER: genes 3 Torsion [C]-N--CA-[C] |==|  0.13336
USER: genes 4 Torsion [N]-CA--C-[N] |==|  0.13889
USER: genes 5 Torsion [C]-N--CA-[CB] |==|  0.26500
USER: genes 6 Torsion [N]-CA--C-[O] |==|  0.64575
USER: genes 7 Torsion [N]-CA--CB-[CG2] |==|  0.55359
USER: genes 8 Torsion [CA]-CB--CG1-[CD1] |==|  0.31769
USER: genes 9 Torsion [N]-C--CA-[N] |==|  0.38640
USER: genes 10 Torsion [C]-CA--CB-[CG1] |==|  0.54006
USER: genes 11 Torsion [C]-CA--N-[C] |==|  0.68028
USER: genes 12 Torsion [N]-C--CA-[N] |==|  0.40304
ROOT
ATOM      1  C   VAL J 902     119.541  78.124 -20.004  1.00 24.50 LIG 0.24  C 
ATOM      2 O    VAL J 902     120.090  78.583 -19.004  1.00 24.73 LIG-0.27  OA
ATOM      3  N   PRO J 903     118.240  77.795 -20.007  1.00 25.43 LIG-0.34  N 
ATOM      4  CA  PRO J 903     117.435  77.966 -18.792  1.00 29.14 LIG 0.18  C 
ATOM      5  CB  PRO J 903     116.003  77.744 -19.284  1.00 28.66 LIG 0.04  C 
ATOM      6  CG  PRO J 903     116.175  76.868 -20.480  1.00 26.54 LIG 0.02  C 
ATOM      7  CD  PRO J 903     117.388  77.443 -21.156  1.00 24.21 LIG 0.13  C 
ENDROOT
BRANCH 4 8
ATOM      8  C   PRO J 903     117.800  77.022 -17.651  1.00 32.58 LIG 0.24  C 
ATOM      9 O    PRO J 903     118.716  76.202 -17.769  1.00 31.49 LIG-0.27  OA
ATOM     10  N   ILE J 904     117.075  77.154 -16.545  1.00 35.09 LIG-0.35  N 
ATOM     11 H    ILE J 904     116.447  77.735 -16.454  1.00 35.09 LIG 0.16  HD
BRANCH 10 12
ATOM     12  CA  ILE J 904     117.283  76.316 -15.369  1.00 39.23 LIG 0.18  C 
BRANCH 12 13
ATOM     13  C   ILE J 904     118.779  76.289 -15.066  1.00 42.17 LIG 0.24  C 
ATOM     14 O    ILE J 904     119.357  75.216 -14.885  1.00 43.90 LIG-0.27  OA
ATOM     15  N   ALA J 905     119.403  77.461 -15.008  1.00 45.29 LIG-0.35  N 
ATOM     16 H    ALA J 905     119.019  78.220 -15.131  1.00 45.29 LIG 0.16  HD
BRANCH 15 17
ATOM     17  CA  ALA J 905     120.833  77.538 -14.722  1.00 47.78 LIG 0.16  C 
ATOM     18  CB  ALA J 905     121.628  77.618 -16.026  1.00 47.43 LIG 0.04  C 
BRANCH 17 19
ATOM     19  C   ALA J 905     121.149  78.744 -13.837  1.00 48.37 LIG 0.22  C 
ATOM     20 O    ALA J 905     122.019  79.559 -14.165  1.00 49.70 LIG-0.29  OA
ENDBRANCH 17 19
ENDBRANCH 15 17
ENDBRANCH 12 13
BRANCH 12 21
ATOM     21  CB  ILE J 904     116.844  74.864 -15.626  1.00 39.00 LIG 0.01  C 
ATOM     22  CG2 ILE J 904     116.620  74.150 -14.301  1.00 39.92 LIG 0.01  C 
BRANCH 21 23
ATOM     23  CG1 ILE J 904     115.577  74.833 -16.477  1.00 38.87 LIG 0.00  C 
ATOM     24  CD1 ILE J 904     115.795  74.221 -17.841  1.00 39.28 LIG 0.01  C 
ENDBRANCH 21 23
ENDBRANCH 12 21
ENDBRANCH 10 12
ENDBRANCH 4 8
BRANCH 1 25
ATOM     25  CA  VAL J 902     120.323  77.917 -21.303  1.00 23.95 LIG 0.18  C 
BRANCH 25 26
ATOM     26  CB  VAL J 902     121.107  76.570 -21.250  1.00 25.73 LIG 0.01  C 
ATOM     27  CG1 VAL J 902     122.141  76.505 -22.338  1.00 28.26 LIG 0.01  C 
ATOM     28  CG2 VAL J 902     121.788  76.428 -19.895  1.00 25.58 LIG 0.01  C 
ENDBRANCH 25 26
BRANCH 25 29
ATOM     29  N   VAL J 902     121.247  79.003 -21.594  1.00 22.50 LIG-0.34  N 
ATOM     30  C   ALA J 901     121.074  79.776 -22.660  1.00 20.52 LIG 0.26  C 
ATOM     31 O    ALA J 901     120.121  79.658 -23.414  1.00 24.49 LIG-0.27  OA
ATOM     32 H    VAL J 902     121.890  79.092 -21.029  1.00 22.50 LIG 0.16  HD
BRANCH 30 33
ATOM     33  CA  ALA J 901     122.104  80.863 -22.910  1.00 20.76 LIG 0.40  C 
ATOM     34  CB  ALA J 901     121.625  82.190 -22.281  1.00 20.79 LIG 0.06  C 
ATOM     35  N   ALA J 901     122.262  80.993 -24.371  1.00 14.38 LIG 0.61  N 
ENDBRANCH 30 33
ENDBRANCH 25 29
ENDBRANCH 1 25
TORSDOF 11
ENDMDL
MODEL 5
USER: ADFR SOLUTION from run 2
USER: SCORE 13.614023 LL:  -2.984 LR: -10.796 RR:   0.000 FEB:  -7.515
USER: RMSD 3.264190
USER: SEED 204659
USER: STATUS no improvement in best in 6 clusters for 5 generations
USER: GENES 13
USER: genes 0 Translation |==|  0.51072 0.59206 0.42316
USER: genes 1 Rotation |==|  0.45182 0.41589 0.51624 0.99024
USER: genes 2 Torsion [N]-CA--C-[N] |==|  0.54311
USER: genes 3 Torsion [C]-N--CA-[C] |==|  0.79268
USER: genes 4 Torsion [N]-CA--C-[N] |==|  0.93563
USER: genes 5 Torsion [C]-N--CA-[CB] |==|  0.17444
USER: genes 6 Torsion [N]-CA--C-[O] |==|  0.97872
USER: genes 7 Torsion [N]-CA--CB-[CG2] |==|  0.74339
USER: genes 8 Torsion [CA]-CB--CG1-[CD1] |==|  0.23965
USER: genes 9 Torsion [N]-C--CA-[N] |==|  0.40564
USER: genes 10 Torsion [C]-CA--CB-[CG1] |==|  0.55554
USER: genes 11 Torsion [C]-CA--N-[C] |==|  0.68679
USER: genes 12 Torsion [N]-C--CA-[N] |==|  0.44512
ROOT
ATOM      1  C   VAL J 902     119.525  78.150 -20.202  1.00 24.50 LIG 0.24  C 
ATOM      2 O    VAL J 902     120.082  78.743 -19.280  1.00 24.73 LIG-0.27  OA
ATOM      3  N   PRO J 903     118.243  77.761 -20.118  1.00 25.43 LIG-0.34  N 
ATOM      4  CA  PRO J 903     117.471  78.028 -18.899  1.00 29.14 LIG 0.18  C 
ATOM      5  CB  PRO J 903     116.037  77.683 -19.307  1.00 28.66 LIG 0.04  C 
ATOM      6  CG  PRO J 903     116.215  76.690 -20.406  1.00 26.54 LIG 0.02  C 
ATOM      7  CD  PRO J 903     117.372  77.243 -21.187  1.00 24.21 LIG 0.13  C 
ENDROOT
BRANCH 4 8
ATOM      8  C   PRO J 903     117.923  77.235 -17.677  1.00 32.58 LIG 0.24  C 
ATOM      9 O    PRO J 903     119.021  76.669 -17.652  1.00 31.49 LIG-0.27  OA
ATOM     10  N   ILE J 904     117.064  77.208 -16.663  1.00 35.09 LIG-0.35  N 
ATOM     11 H    ILE J 904     116.306  77.613 -16.671  1.00 35.09 LIG 0.16  HD
BRANCH 10 12
ATOM     12  CA  ILE J 904     117.334  76.479 -15.428  1.00 39.23 LIG 0.18  C 
BRANCH 12 13
ATOM     13  C   ILE J 904     117.157  74.989 -15.711  1.00 42.17 LIG 0.24  C 
ATOM     14 O    ILE J 904     117.719  74.151 -15.004  1.00 43.90 LIG-0.27  OA
ATOM     15  N   ALA J 905     116.385  74.660 -16.741  1.00 45.29 LIG-0.35  N 
ATOM     16 H    ALA J 905     115.984  75.227 -17.247  1.00 45.29 LIG 0.16  HD
BRANCH 15 17
ATOM     17  CA  ALA J 905     116.158  73.260 -17.093  1.00 47.78 LIG 0.16  C 
ATOM     18  CB  ALA J 905     115.443  72.538 -15.949  1.00 47.43 LIG 0.04  C 
BRANCH 17 19
ATOM     19  C   ALA J 905     115.341  73.146 -18.380  1.00 48.37 LIG 0.22  C 
ATOM     20 O    ALA J 905     114.843  74.148 -18.904  1.00 49.70 LIG-0.29  OA
ENDBRANCH 17 19
ENDBRANCH 15 17
ENDBRANCH 12 13
BRANCH 12 21
ATOM     21  CB  ILE J 904     116.333  76.853 -14.321  1.00 39.00 LIG 0.01  C 
ATOM     22  CG2 ILE J 904     116.894  77.992 -13.482  1.00 39.92 LIG 0.01  C 
BRANCH 21 23
ATOM     23  CG1 ILE J 904     114.987  77.243 -14.928  1.00 38.87 LIG 0.00  C 
ATOM     24  CD1 ILE J 904     114.084  76.058 -15.174  1.00 39.28 LIG 0.01  C 
ENDBRANCH 21 23
ENDBRANCH 12 21
ENDBRANCH 10 12
ENDBRANCH 4 8
BRANCH 1 25
ATOM     25  CA  VAL J 902     120.273  77.838 -21.500  1.00 23.95 LIG 0.18  C 
BRANCH 25 26
ATOM     26  CB  VAL J 902     120.986  76.455 -21.390  1.00 25.73 LIG 0.01  C 
ATOM     27  CG1 VAL J 902     122.089  76.336 -22.404  1.00 28.26 LIG 0.01  C 
ATOM     28  CG2 VAL J 902     121.564  76.288 -19.991  1.00 25.58 LIG 0.01  C 
ENDBRANCH 25 26
BRANCH 25 29
ATOM     29  N   VAL J 902     121.247  78.858 -21.858  1.00 22.50 LIG-0.34  N 
ATOM     30  C   ALA J 901     121.073  79.616 -22.935  1.00 20.52 LIG 0.26  C 
ATOM     31 O    ALA J 901     120.080  79.541 -23.642  1.00 24.49 LIG-0.27  OA
ATOM     32 H    VAL J 902     121.919  78.918 -21.326  1.00 22.50 LIG 0.16  HD
BRANCH 30 33
ATOM     33  CA  ALA J 901     122.155  80.631 -23.258  1.00 20.76 LIG 0.40  C 
ATOM     34  CB  ALA J 901     121.997  81.869 -22.347  1.00 20.79 LIG 0.06  C 
ATOM     35  N   ALA J 901     122.009  80.993 -24.680  1.00 14.38 LIG 0.61  N 
ENDBRANCH 30 33
ENDBRANCH 25 29
ENDBRANCH 1 25
TORSDOF 11
ENDMDL
MODEL 6
USER: ADFR SOLUTION from run 117
USER: SCORE 13.466476 LL:  -2.924 LR: -10.720 RR:   0.000 FEB:  -7.439
USER: RMSD 4.393960
USER: SEED 116
USER: STATUS no improvement in best in 11 clusters for 5 generations
USER: GENES 13
USER: genes 0 Translation |==|  0.48140 0.58606 0.38513
USER: genes 1 Rotation |==|  0.27571 0.24863 0.69372 0.81461
USER: genes 2 Torsion [N]-CA--C-[N] |==|  0.76590
USER: genes 3 Torsion [C]-N--CA-[C] |==|  0.66373
USER: genes 4 Torsion [N]-CA--C-[N] |==|  0.41807
USER: genes 5 Torsion [C]-N--CA-[CB] |==|  0.18540
USER: genes 6 Torsion [N]-CA--C-[O] |==|  0.99830
USER: genes 7 Torsion [N]-CA--CB-[CG2] |==|  0.60790
USER: genes 8 Torsion [CA]-CB--CG1-[CD1] |==|  0.25448
USER: genes 9 Torsion [N]-C--CA-[N] |==|  0.46111
USER: genes 10 Torsion [C]-CA--CB-[CG1] |==|  0.97049
USER: genes 11 Torsion [C]-CA--N-[C] |==|  0.78882
USER: genes 12 Torsion [N]-C--CA-[N] |==|  0.48268
ROOT
ATOM      1  C   VAL J 902     119.107  78.042 -21.029  1.00 24.50 LIG 0.24  C 
ATOM      2 O    VAL J 902     118.508  79.116 -21.069  1.00 24.73 LIG-0.27  OA
ATOM      3  N   PRO J 903     118.453  76.870 -20.994  1.00 25.43 LIG-0.34  N 
ATOM      4  CA  PRO J 903     116.986  76.847 -20.990  1.00 29.14 LIG 0.18  C 
ATOM      5  CB  PRO J 903     116.657  75.369 -21.216  1.00 28.66 LIG 0.04  C 
ATOM      6  CG  PRO J 903     117.858  74.658 -20.688  1.00 26.54 LIG 0.02  C 
ATOM      7  CD  PRO J 903     118.999  75.513 -21.159  1.00 24.21 LIG 0.13  C 
ENDROOT
BRANCH 4 8
ATOM      8  C   PRO J 903     116.348  77.385 -19.713  1.00 32.58 LIG 0.24  C 
ATOM      9 O    PRO J 903     115.963  78.555 -19.634  1.00 31.49 LIG-0.27  OA
ATOM     10  N   ILE J 904     116.237  76.510 -18.717  1.00 35.09 LIG-0.35  N 
ATOM     11 H    ILE J 904     116.490  75.690 -18.774  1.00 35.09 LIG 0.16  HD
BRANCH 10 12
ATOM     12  CA  ILE J 904     115.667  76.868 -17.422  1.00 39.23 LIG 0.18  C 
BRANCH 12 13
ATOM     13  C   ILE J 904     116.725  76.605 -16.353  1.00 42.17 LIG 0.24  C 
ATOM     14 O    ILE J 904     117.563  75.715 -16.513  1.00 43.90 LIG-0.27  OA
ATOM     15  N   ALA J 905     116.686  77.369 -15.267  1.00 45.29 LIG-0.35  N 
ATOM     16 H    ALA J 905     116.111  77.994 -15.134  1.00 45.29 LIG 0.16  HD
BRANCH 15 17
ATOM     17  CA  ALA J 905     117.654  77.191 -14.187  1.00 47.78 LIG 0.16  C 
ATOM     18  CB  ALA J 905     119.055  77.571 -14.667  1.00 47.43 LIG 0.04  C 
BRANCH 17 19
ATOM     19  C   ALA J 905     117.271  78.027 -12.965  1.00 48.37 LIG 0.22  C 
ATOM     20 O    ALA J 905     116.263  78.743 -12.980  1.00 49.70 LIG-0.29  OA
ENDBRANCH 17 19
ENDBRANCH 15 17
ENDBRANCH 12 13
BRANCH 12 21
ATOM     21  CB  ILE J 904     114.448  75.994 -17.081  1.00 39.00 LIG 0.01  C 
ATOM     22  CG2 ILE J 904     113.381  76.840 -16.402  1.00 39.92 LIG 0.01  C 
BRANCH 21 23
ATOM     23  CG1 ILE J 904     113.893  75.337 -18.343  1.00 38.87 LIG 0.00  C 
ATOM     24  CD1 ILE J 904     114.487  73.975 -18.610  1.00 39.28 LIG 0.01  C 
ENDBRANCH 21 23
ENDBRANCH 12 21
ENDBRANCH 10 12
ENDBRANCH 4 8
BRANCH 1 25
ATOM     25  CA  VAL J 902     120.636  77.996 -21.029  1.00 23.95 LIG 0.18  C 
BRANCH 25 26
ATOM     26  CB  VAL J 902     121.160  77.548 -19.630  1.00 25.73 LIG 0.01  C 
ATOM     27  CG1 VAL J 902     120.050  77.540 -18.617  1.00 28.26 LIG 0.01  C 
ATOM     28  CG2 VAL J 902     121.763  76.154 -19.732  1.00 25.58 LIG 0.01  C 
ENDBRANCH 25 26
BRANCH 25 29
ATOM     29  N   VAL J 902     121.247  79.267 -21.391  1.00 22.50 LIG-0.34  N 
ATOM     30  C   ALA J 901     121.274  79.673 -22.655  1.00 20.52 LIG 0.26  C 
ATOM     31 O    ALA J 901     120.751  79.044 -23.562  1.00 24.49 LIG-0.27  OA
ATOM     32 H    VAL J 902     121.576  79.710 -20.731  1.00 22.50 LIG 0.16  HD
BRANCH 30 33
ATOM     33  CA  ALA J 901     121.962  80.993 -22.951  1.00 20.76 LIG 0.40  C 
ATOM     34  CB  ALA J 901     121.186  82.148 -22.281  1.00 20.79 LIG 0.06  C 
ATOM     35  N   ALA J 901     121.997  81.153 -24.417  1.00 14.38 LIG 0.61  N 
ENDBRANCH 30 33
ENDBRANCH 25 29
ENDBRANCH 1 25
TORSDOF 11
ENDMDL
MODEL 7
USER: ADFR SOLUTION from run 62
USER: SCORE 13.205410 LL:  -2.885 LR: -10.527 RR:   0.000 FEB:  -7.245
USER: RMSD 3.220570
USER: SEED 61
USER: STATUS searching
USER: GENES 13
USER: genes 0 Translation |==|  0.51687 0.59457 0.40965
USER: genes 1 Rotation |==|  0.47555 0.45779 0.53847 0.99613
USER: genes 2 Torsion [N]-CA--C-[N] |==|  0.26437
USER: genes 3 Torsion [C]-N--CA-[C] |==|  0.15526
USER: genes 4 Torsion [N]-CA--C-[N] |==|  0.13888
USER: genes 5 Torsion [C]-N--CA-[CB] |==|  0.40303
USER: genes 6 Torsion [N]-CA--C-[O] |==|  0.08405
USER: genes 7 Torsion [N]-CA--CB-[CG2] |==|  0.56003
USER: genes 8 Torsion [CA]-CB--CG1-[CD1] |==|  0.40774
USER: genes 9 Torsion [N]-C--CA-[N] |==|  0.45358
USER: genes 10 Torsion [C]-CA--CB-[CG1] |==|  0.31655
USER: genes 11 Torsion [C]-CA--N-[C] |==|  0.65450
USER: genes 12 Torsion [N]-C--CA-[N] |==|  0.37856
ROOT
ATOM      1  C   VAL J 902     119.612  78.195 -20.496  1.00 24.50 LIG 0.24  C 
ATOM      2 O    VAL J 902     120.280  78.774 -19.641  1.00 24.73 LIG-0.27  OA
ATOM      3  N   PRO J 903     118.402  77.684 -20.221  1.00 25.43 LIG-0.34  N 
ATOM      4  CA  PRO J 903     117.847  77.797 -18.867  1.00 29.14 LIG 0.18  C 
ATOM      5  CB  PRO J 903     116.394  77.349 -19.044  1.00 28.66 LIG 0.04  C 
ATOM      6  CG  PRO J 903     116.447  76.452 -20.235  1.00 26.54 LIG 0.02  C 
ATOM      7  CD  PRO J 903     117.395  77.161 -21.159  1.00 24.21 LIG 0.13  C 
ENDROOT
BRANCH 4 8
ATOM      8  C   PRO J 903     118.575  76.969 -17.813  1.00 32.58 LIG 0.24  C 
ATOM      9 O    PRO J 903     118.304  75.778 -17.636  1.00 31.49 LIG-0.27  OA
ATOM     10  N   ILE J 904     119.507  77.618 -17.121  1.00 35.09 LIG-0.35  N 
ATOM     11 H    ILE J 904     119.709  78.444 -17.252  1.00 35.09 LIG 0.16  HD
BRANCH 10 12
ATOM     12  CA  ILE J 904     120.282  76.978 -16.062  1.00 39.23 LIG 0.18  C 
BRANCH 12 13
ATOM     13  C   ILE J 904     120.960  75.745 -16.654  1.00 42.17 LIG 0.24  C 
ATOM     14 O    ILE J 904     120.875  74.655 -16.084  1.00 43.90 LIG-0.27  OA
ATOM     15  N   ALA J 905     121.633  75.913 -17.787  1.00 45.29 LIG-0.35  N 
ATOM     16 H    ALA J 905     121.705  76.663 -18.201  1.00 45.29 LIG 0.16  HD
BRANCH 15 17
ATOM     17  CA  ALA J 905     122.318  74.793 -18.428  1.00 47.78 LIG 0.16  C 
ATOM     18  CB  ALA J 905     122.249  74.934 -19.949  1.00 47.43 LIG 0.04  C 
BRANCH 17 19
ATOM     19  C   ALA J 905     123.775  74.710 -17.972  1.00 48.37 LIG 0.22  C 
ATOM     20 O    ALA J 905     124.107  75.090 -16.844  1.00 49.70 LIG-0.29  OA
ENDBRANCH 17 19
ENDBRANCH 15 17
ENDBRANCH 12 13
BRANCH 12 21
ATOM     21  CB  ILE J 904     119.379  76.495 -14.914  1.00 39.00 LIG 0.01  C 
ATOM     22  CG2 ILE J 904     120.200  76.337 -13.643  1.00 39.92 LIG 0.01  C 
BRANCH 21 23
ATOM     23  CG1 ILE J 904     118.228  77.473 -14.694  1.00 38.87 LIG 0.00  C 
ATOM     24  CD1 ILE J 904     116.955  76.796 -14.244  1.00 39.28 LIG 0.01  C 
ENDBRANCH 21 23
ENDBRANCH 12 21
ENDBRANCH 10 12
ENDBRANCH 4 8
BRANCH 1 25
ATOM     25  CA  VAL J 902     120.134  78.041 -21.926  1.00 23.95 LIG 0.18  C 
BRANCH 25 26
ATOM     26  CB  VAL J 902     120.572  76.566 -22.182  1.00 25.73 LIG 0.01  C 
ATOM     27  CG1 VAL J 902     119.687  75.911 -23.205  1.00 28.26 LIG 0.01  C 
ATOM     28  CG2 VAL J 902     122.014  76.539 -22.670  1.00 25.58 LIG 0.01  C 
ENDBRANCH 25 26
BRANCH 25 29
ATOM     29  N   VAL J 902     121.241  78.935 -22.232  1.00 22.50 LIG-0.34  N 
ATOM     30  C   ALA J 901     121.178  79.768 -23.264  1.00 20.52 LIG 0.26  C 
ATOM     31 O    ALA J 901     120.187  79.869 -23.971  1.00 24.49 LIG-0.27  OA
ATOM     32 H    VAL J 902     121.913  78.873 -21.698  1.00 22.50 LIG 0.16  HD
BRANCH 30 33
ATOM     33  CA  ALA J 901     122.391  80.640 -23.534  1.00 20.76 LIG 0.40  C 
ATOM     34  CB  ALA J 901     122.121  82.077 -23.035  1.00 20.79 LIG 0.06  C 
ATOM     35  N   ALA J 901     122.634  80.618 -24.989  1.00 14.38 LIG 0.61  N 
ENDBRANCH 30 33
ENDBRANCH 25 29
ENDBRANCH 1 25
TORSDOF 11
ENDMDL
MODEL 8
USER: ADFR SOLUTION from run 56
USER: SCORE 12.936913 LL:  -2.489 LR: -10.471 RR:   0.000 FEB:  -7.190
USER: RMSD 1.292462
USER: SEED 55
USER: STATUS no improvement in best in 6 clusters for 5 generations
USER: GENES 13
USER: genes 0 Translation |==|  0.55573 0.57663 0.39742
USER: genes 1 Rotation |==|  0.45841 0.44763 0.50886 0.99543
USER: genes 2 Torsion [N]-CA--C-[N] |==|  0.33444
USER: genes 3 Torsion [C]-N--CA-[C] |==|  0.84113
USER: genes 4 Torsion [N]-CA--C-[N] |==|  0.36120
USER: genes 5 Torsion [C]-N--CA-[CB] |==|  0.23477
USER: genes 6 Torsion [N]-CA--C-[O] |==|  0.94359
USER: genes 7 Torsion [N]-CA--CB-[CG2] |==|  0.40559
USER: genes 8 Torsion [CA]-CB--CG1-[CD1] |==|  0.49097
USER: genes 9 Torsion [N]-C--CA-[N] |==|  0.40085
USER: genes 10 Torsion [C]-CA--CB-[CG1] |==|  0.56989
USER: genes 11 Torsion [C]-CA--N-[C] |==|  0.80556
USER: genes 12 Torsion [N]-C--CA-[N] |==|  0.30562
ROOT
ATOM      1  C   VAL J 902     120.166  77.872 -20.762  1.00 24.50 LIG 0.24  C 
ATOM      2 O    VAL J 902     120.857  78.416 -19.902  1.00 24.73 LIG-0.27  OA
ATOM      3  N   PRO J 903     118.891  77.526 -20.527  1.00 25.43 LIG-0.34  N 
ATOM      4  CA  PRO J 903     118.289  77.783 -19.213  1.00 29.14 LIG 0.18  C 
ATOM      5  CB  PRO J 903     116.803  77.502 -19.446  1.00 28.66 LIG 0.04  C 
ATOM      6  CG  PRO J 903     116.802  76.537 -20.585  1.00 26.54 LIG 0.02  C 
ATOM      7  CD  PRO J 903     117.874  77.073 -21.491  1.00 24.21 LIG 0.13  C 
ENDROOT
BRANCH 4 8
ATOM      8  C   PRO J 903     118.859  76.937 -18.080  1.00 32.58 LIG 0.24  C 
ATOM      9 O    PRO J 903     118.807  75.704 -18.114  1.00 31.49 LIG-0.27  OA
ATOM     10  N   ILE J 904     119.408  77.618 -17.079  1.00 35.09 LIG-0.35  N 
ATOM     11 H    ILE J 904     119.459  78.476 -17.059  1.00 35.09 LIG 0.16  HD
BRANCH 10 12
ATOM     12  CA  ILE J 904     119.982  76.962 -15.908  1.00 39.23 LIG 0.18  C 
BRANCH 12 13
ATOM     13  C   ILE J 904     118.896  76.100 -15.271  1.00 42.17 LIG 0.24  C 
ATOM     14 O    ILE J 904     117.785  76.577 -15.028  1.00 43.90 LIG-0.27  OA
ATOM     15  N   ALA J 905     119.212  74.839 -14.997  1.00 45.29 LIG-0.35  N 
ATOM     16 H    ALA J 905     119.979  74.486 -15.157  1.00 45.29 LIG 0.16  HD
BRANCH 15 17
ATOM     17  CA  ALA J 905     118.240  73.936 -14.384  1.00 47.78 LIG 0.16  C 
ATOM     18  CB  ALA J 905     117.345  73.317 -15.458  1.00 47.43 LIG 0.04  C 
BRANCH 17 19
ATOM     19  C   ALA J 905     118.943  72.837 -13.586  1.00 48.37 LIG 0.22  C 
ATOM     20 O    ALA J 905     120.125  72.555 -13.805  1.00 49.70 LIG-0.29  OA
ENDBRANCH 17 19
ENDBRANCH 15 17
ENDBRANCH 12 13
BRANCH 12 21
ATOM     21  CB  ILE J 904     120.429  77.986 -14.850  1.00 39.00 LIG 0.01  C 
ATOM     22  CG2 ILE J 904     120.220  77.413 -13.456  1.00 39.92 LIG 0.01  C 
BRANCH 21 23
ATOM     23  CG1 ILE J 904     121.892  78.368 -15.062  1.00 38.87 LIG 0.00  C 
ATOM     24  CD1 ILE J 904     122.372  79.431 -14.102  1.00 39.28 LIG 0.01  C 
ENDBRANCH 21 23
ENDBRANCH 12 21
ENDBRANCH 10 12
ENDBRANCH 4 8
BRANCH 1 25
ATOM     25  CA  VAL J 902     120.733  77.574 -22.151  1.00 23.95 LIG 0.18  C 
BRANCH 25 26
ATOM     26  CB  VAL J 902     121.438  76.183 -22.157  1.00 25.73 LIG 0.01  C 
ATOM     27  CG1 VAL J 902     122.486  76.114 -23.232  1.00 28.26 LIG 0.01  C 
ATOM     28  CG2 VAL J 902     122.086  75.932 -20.802  1.00 25.58 LIG 0.01  C 
ENDBRANCH 25 26
BRANCH 25 29
ATOM     29  N   VAL J 902     121.664  78.590 -22.620  1.00 22.50 LIG-0.34  N 
ATOM     30  C   ALA J 901     121.236  79.802 -22.955  1.00 20.52 LIG 0.26  C 
ATOM     31 O    ALA J 901     120.070  80.145 -22.840  1.00 24.49 LIG-0.27  OA
ATOM     32 H    VAL J 902     122.485  78.338 -22.658  1.00 22.50 LIG 0.16  HD
BRANCH 30 33
ATOM     33  CA  ALA J 901     122.267  80.791 -23.468  1.00 20.76 LIG 0.40  C 
ATOM     34  CB  ALA J 901     122.151  82.119 -22.687  1.00 20.79 LIG 0.06  C 
ATOM     35  N   ALA J 901     122.005  80.993 -24.906  1.00 14.38 LIG 0.61  N 
ENDBRANCH 30 33
ENDBRANCH 25 29
ENDBRANCH 1 25
TORSDOF 11
ENDMDL
