MODEL 1
USER: ADFR SOLUTION from run 192
USER: SCORE 17.048680 LL:  -3.554 LR: -14.569 RR:   0.000 FEB:  -9.796
USER: RMSD 2.176940
USER: SEED 191
USER: STATUS no improvement in best in 3 clusters for 5 generations
USER: GENES 18
USER: genes 0 Translation |==|  0.42996 0.47257 0.50030
USER: genes 1 Rotation |==|  0.49147 0.49365 0.53400 0.99873
USER: genes 2 Torsion [C]-N--CA-[C] |==|  0.60735
USER: genes 3 Torsion [N]-CA--C-[N] |==|  0.92915
USER: genes 4 Torsion [C]-N--CA-[C] |==|  0.21032
USER: genes 5 Torsion [N]-CA--C-[O] |==|  0.43856
USER: genes 6 Torsion [N]-CA--CB-[CG] |==|  0.75511
USER: genes 7 Torsion [CA]-CB--CG-[CD1] |==|  0.86141
USER: genes 8 Torsion [N]-CA--CB-[CG] |==|  0.80695
USER: genes 9 Torsion [CA]-CB--CG-[OD1] |==|  0.76642
USER: genes 10 Torsion [N]-C--CA-[N] |==|  0.30699
USER: genes 11 Torsion [C]-CA--N-[C] |==|  0.56710
USER: genes 12 Torsion [N]-C--CA-[N] |==|  0.10891
USER: genes 13 Torsion [C]-CA--CB-[OG] |==|  0.46468
USER: genes 14 Torsion [CA]-CB--OG-[HG] |==|  0.71210
USER: genes 15 Torsion [C]-CA--N-[C] |==|  0.16667
USER: genes 16 Torsion [C]-CA--CB-[CG] |==|  0.20668
USER: genes 17 Torsion [CA]-CB--CG-[CD2] |==|  0.07189
ROOT
ATOM      1  C   LEU I   2       2.680   3.037  10.472  1.00 17.40 LIG 0.24  C 
ATOM      2 O    LEU I   2       2.273   3.914  11.210  1.00 17.46 LIG-0.27  OA
ATOM      3  N   ASN I   3       2.814   1.771  10.822  1.00 16.24 LIG-0.35  N 
ATOM      4 H    ASN I   3       3.176   1.172  10.321  1.00 16.24 LIG 0.16  HD
ENDROOT
BRANCH 3 5
ATOM      5  CA  ASN I   3       2.358   1.280  12.095  1.00 15.86 LIG 0.18  C 
BRANCH 5 6
ATOM      6  C   ASN I   3       3.348   0.267  12.634  1.00 15.05 LIG 0.24  C 
ATOM      7  N   PHE I   4       4.078  -0.356  11.699  1.00 14.49 LIG-0.34  N 
ATOM      8 H    PHE I   4       3.991  -0.212  10.855  1.00 14.49 LIG 0.16  HD
ATOM      9 O    ASN I   3       3.416   0.050  13.868  1.00 16.10 LIG-0.27  OA
BRANCH 7 10
ATOM     10  CA  PHE I   4       5.097  -1.347  12.032  1.00 12.92 LIG 0.19  C 
BRANCH 10 11
ATOM     11  C   PHE I   4       4.413  -2.636  12.411  1.00 14.32 LIG 0.20  C 
ATOM     12 OXT  PHE I   4       3.223  -2.589  12.684  1.00 16.91 LIG-0.65  OA
ATOM     13 O    PHE I   4       5.013  -3.711  12.341  1.00 15.04 LIG-0.65  OA
ENDBRANCH 10 11
BRANCH 10 14
ATOM     14  CB  PHE I   4       5.952  -0.840  13.180  1.00 13.46 LIG 0.07  C 
BRANCH 14 15
ATOM     15  CG  PHE I   4       7.110  -0.024  12.662  1.00 17.43 LIG-0.06  A 
ATOM     16  CD1 PHE I   4       7.918  -0.543  11.640  1.00 19.70 LIG 0.01  A 
ATOM     17  CE1 PHE I   4       8.967   0.212  11.147  1.00 18.46 LIG 0.00  A 
ATOM     18  CZ  PHE I   4       9.214   1.477  11.666  1.00 20.27 LIG 0.00  A 
ATOM     19  CE2 PHE I   4       8.418   2.002  12.682  1.00 19.92 LIG 0.00  A 
ATOM     20  CD2 PHE I   4       7.357   1.250  13.189  1.00 19.48 LIG 0.01  A 
ENDBRANCH 14 15
ENDBRANCH 10 14
ENDBRANCH 7 10
ENDBRANCH 5 6
BRANCH 5 21
ATOM     21  CB  ASN I   3       0.990   0.647  11.899  1.00 15.02 LIG 0.14  C 
BRANCH 21 22
ATOM     22  CG  ASN I   3      -0.032   1.739  11.591  1.00 21.09 LIG 0.22  C 
ATOM     23  ND2 ASN I   3      -0.256   2.094  10.336  1.00 19.37 LIG-0.37  N 
ATOM     24 22HD ASN I   3       0.117   1.662   9.693  1.00 19.37 LIG 0.16  HD
ATOM     25 21HD ASN I   3      -0.775   2.758  10.162  1.00 19.37 LIG 0.16  HD
ATOM     26 OD1  ASN I   3      -0.585   2.385  12.478  1.00 22.58 LIG-0.27  OA
ENDBRANCH 21 22
ENDBRANCH 5 21
ENDBRANCH 3 5
BRANCH 1 27
ATOM     27  CA  LEU I   2       2.991   3.380   9.074  1.00 19.34 LIG 0.18  C 
BRANCH 27 28
ATOM     28  N   LEU I   2       1.713   3.710   8.485  1.00 20.62 LIG-0.35  N 
ATOM     29 H    LEU I   2       1.105   3.971   9.034  1.00 20.62 LIG 0.16  HD
ATOM     30  C   SER I   1       1.563   3.594   7.169  1.00 28.29 LIG 0.24  C 
ATOM     31 O    SER I   1       2.463   3.136   6.431  1.00 21.19 LIG-0.27  OA
BRANCH 30 32
ATOM     32  CA  SER I   1       0.232   4.123   6.644  1.00 32.71 LIG 0.20  C 
BRANCH 32 33
ATOM     33  CB  SER I   1       0.404   4.392   5.177  1.00 35.86 LIG 0.20  C 
BRANCH 33 34
ATOM     34 OG   SER I   1      -0.949   4.556   4.858  1.00 39.84 LIG-0.40  OA
ATOM     35 HG   SER I   1      -1.231   3.866   4.470  1.00 39.84 LIG 0.21  HD
ENDBRANCH 33 34
ENDBRANCH 32 33
BRANCH 32 36
ATOM     36  N   SER I   1       0.046   5.320   7.457  1.00 41.50 LIG-0.35  N 
ATOM     37  C   ACE I   0       0.806   6.427   7.578  1.00 42.61 LIG 0.21  C 
ATOM     38 O    ACE I   0       1.827   6.688   6.941  0.00 41.61 LIG-0.27  OA
ATOM     39  CH3 ACE I   0       0.247   7.425   8.580  0.00 41.50 LIG 0.12  C 
ATOM     40 H    SER I   1      -0.681   5.257   7.912  1.00 41.50 LIG 0.16  HD
ENDBRANCH 32 36
ENDBRANCH 30 32
ENDBRANCH 27 28
BRANCH 27 41
ATOM     41  CB  LEU I   2       3.926   4.540   9.033  1.00 22.58 LIG 0.04  C 
BRANCH 41 42
ATOM     42  CG  LEU I   2       5.339   4.100   9.432  1.00 27.49 LIG-0.02  C 
ATOM     43  CD2 LEU I   2       5.557   2.607   9.138  1.00 25.10 LIG 0.01  C 
ATOM     44  CD1 LEU I   2       5.545   4.461  10.887  1.00 31.16 LIG 0.01  C 
ENDBRANCH 41 42
ENDBRANCH 27 41
ENDBRANCH 1 27
TORSDOF 16
ENDMDL
MODEL 2
USER: ADFR SOLUTION from run 177
USER: SCORE 16.301887 LL:  -2.964 LR: -14.394 RR:   0.000 FEB:  -9.621
USER: RMSD 3.857629
USER: SEED 176
USER: STATUS no improvement in best in 3 clusters for 5 generations
USER: GENES 18
USER: genes 0 Translation |==|  0.42971 0.47179 0.49488
USER: genes 1 Rotation |==|  0.50159 0.48534 0.56152 0.99598
USER: genes 2 Torsion [C]-N--CA-[C] |==|  0.58333
USER: genes 3 Torsion [N]-CA--C-[N] |==|  0.49429
USER: genes 4 Torsion [C]-N--CA-[C] |==|  0.83220
USER: genes 5 Torsion [N]-CA--C-[O] |==|  0.76182
USER: genes 6 Torsion [N]-CA--CB-[CG] |==|  0.55009
USER: genes 7 Torsion [CA]-CB--CG-[CD1] |==|  0.61212
USER: genes 8 Torsion [N]-CA--CB-[CG] |==|  0.79081
USER: genes 9 Torsion [CA]-CB--CG-[OD1] |==|  0.81037
USER: genes 10 Torsion [N]-C--CA-[N] |==|  0.32289
USER: genes 11 Torsion [C]-CA--N-[C] |==|  0.58450
USER: genes 12 Torsion [N]-C--CA-[N] |==|  0.09570
USER: genes 13 Torsion [C]-CA--CB-[OG] |==|  0.45788
USER: genes 14 Torsion [CA]-CB--OG-[HG] |==|  0.74643
USER: genes 15 Torsion [C]-CA--N-[C] |==|  0.20392
USER: genes 16 Torsion [C]-CA--CB-[CG] |==|  0.22624
USER: genes 17 Torsion [CA]-CB--CG-[CD2] |==|  0.06754
ROOT
ATOM      1  C   LEU I   2       2.675   3.023  10.362  1.00 17.40 LIG 0.24  C 
ATOM      2 O    LEU I   2       2.153   3.818  11.121  1.00 17.46 LIG-0.27  OA
ATOM      3  N   ASN I   3       2.942   1.767  10.666  1.00 16.24 LIG-0.35  N 
ATOM      4 H    ASN I   3       3.381   1.233  10.153  1.00 16.24 LIG 0.16  HD
ENDROOT
BRANCH 3 5
ATOM      5  CA  ASN I   3       2.510   1.174  11.904  1.00 15.86 LIG 0.18  C 
BRANCH 5 6
ATOM      6  C   ASN I   3       3.493   0.099  12.323  1.00 15.05 LIG 0.24  C 
ATOM      7  N   PHE I   4       3.212  -0.493  13.492  1.00 14.49 LIG-0.34  N 
ATOM      8 H    PHE I   4       2.538  -0.279  13.982  1.00 14.49 LIG 0.16  HD
ATOM      9 O    ASN I   3       4.489  -0.155  11.604  1.00 16.10 LIG-0.27  OA
BRANCH 7 10
ATOM     10  CA  PHE I   4       4.033  -1.566  14.044  1.00 12.92 LIG 0.19  C 
BRANCH 10 11
ATOM     11  C   PHE I   4       4.035  -2.721  13.074  1.00 14.32 LIG 0.20  C 
ATOM     12 OXT  PHE I   4       5.005  -2.846  12.341  1.00 16.91 LIG-0.65  OA
ATOM     13 O    PHE I   4       3.138  -3.567  13.100  1.00 15.04 LIG-0.65  OA
ENDBRANCH 10 11
BRANCH 10 14
ATOM     14  CB  PHE I   4       3.476  -2.001  15.388  1.00 13.46 LIG 0.07  C 
BRANCH 14 15
ATOM     15  CG  PHE I   4       4.512  -2.768  16.170  1.00 17.43 LIG-0.06  A 
ATOM     16  CD1 PHE I   4       4.127  -3.900  16.903  1.00 19.70 LIG 0.01  A 
ATOM     17  CE1 PHE I   4       5.080  -4.619  17.603  1.00 18.46 LIG 0.00  A 
ATOM     18  CZ  PHE I   4       6.409  -4.216  17.577  1.00 20.27 LIG 0.00  A 
ATOM     19  CE2 PHE I   4       6.802  -3.093  16.852  1.00 19.92 LIG 0.00  A 
ATOM     20  CD2 PHE I   4       5.851  -2.358  16.143  1.00 19.48 LIG 0.01  A 
ENDBRANCH 14 15
ENDBRANCH 10 14
ENDBRANCH 7 10
ENDBRANCH 5 6
BRANCH 5 21
ATOM     21  CB  ASN I   3       1.124   0.587  11.694  1.00 15.02 LIG 0.14  C 
BRANCH 21 22
ATOM     22  CG  ASN I   3       0.097   1.717  11.657  1.00 21.09 LIG 0.22  C 
ATOM     23  ND2 ASN I   3      -0.441   2.078  10.502  1.00 19.37 LIG-0.37  N 
ATOM     24 22HD ASN I   3      -0.270   1.630   9.789  1.00 19.37 LIG 0.16  HD
ATOM     25 21HD ASN I   3      -0.963   2.760  10.466  1.00 19.37 LIG 0.16  HD
ATOM     26 OD1  ASN I   3      -0.175   2.385  12.651  1.00 22.58 LIG-0.27  OA
ENDBRANCH 21 22
ENDBRANCH 5 21
ENDBRANCH 3 5
BRANCH 1 27
ATOM     27  CA  LEU I   2       2.983   3.458   8.989  1.00 19.34 LIG 0.18  C 
BRANCH 27 28
ATOM     28  N   LEU I   2       1.700   3.802   8.418  1.00 20.62 LIG-0.35  N 
ATOM     29 H    LEU I   2       1.112   4.097   8.971  1.00 20.62 LIG 0.16  HD
ATOM     30  C   SER I   1       1.516   3.645   7.111  1.00 28.29 LIG 0.24  C 
ATOM     31 O    SER I   1       2.387   3.138   6.369  1.00 21.19 LIG-0.27  OA
BRANCH 30 32
ATOM     32  CA  SER I   1       0.188   4.190   6.598  1.00 32.71 LIG 0.20  C 
BRANCH 32 33
ATOM     33  CB  SER I   1       0.368   4.515   5.143  1.00 35.86 LIG 0.20  C 
BRANCH 33 34
ATOM     34 OG   SER I   1      -0.987   4.630   4.809  1.00 39.84 LIG-0.40  OA
ATOM     35 HG   SER I   1      -1.276   3.885   4.551  1.00 39.84 LIG 0.21  HD
ENDBRANCH 33 34
ENDBRANCH 32 33
BRANCH 32 36
ATOM     36  N   SER I   1      -0.006   5.355   7.454  1.00 41.50 LIG-0.35  N 
ATOM     37  C   ACE I   0       0.608   6.555   7.458  1.00 42.61 LIG 0.21  C 
ATOM     38 O    ACE I   0       1.451   6.950   6.650  0.00 41.61 LIG-0.27  OA
ATOM     39  CH3 ACE I   0       0.113   7.475   8.563  0.00 41.50 LIG 0.12  C 
ATOM     40 H    SER I   1      -0.623   5.197   8.032  1.00 41.50 LIG 0.16  HD
ENDBRANCH 32 36
ENDBRANCH 30 32
ENDBRANCH 27 28
BRANCH 27 41
ATOM     41  CB  LEU I   2       3.897   4.635   9.023  1.00 22.58 LIG 0.04  C 
BRANCH 41 42
ATOM     42  CG  LEU I   2       5.347   4.178   9.224  1.00 27.49 LIG-0.02  C 
ATOM     43  CD2 LEU I   2       5.542   2.731   8.744  1.00 25.10 LIG 0.01  C 
ATOM     44  CD1 LEU I   2       5.698   4.378  10.683  1.00 31.16 LIG 0.01  C 
ENDBRANCH 41 42
ENDBRANCH 27 41
ENDBRANCH 1 27
TORSDOF 16
ENDMDL
MODEL 3
USER: ADFR SOLUTION from run 143
USER: SCORE 16.262303 LL:  -2.932 LR: -13.946 RR:   0.000 FEB:  -9.173
USER: RMSD 3.370426
USER: SEED 142
USER: STATUS no improvement in best in 6 clusters for 5 generations
USER: GENES 18
USER: genes 0 Translation |==|  0.47408 0.46396 0.50636
USER: genes 1 Rotation |==|  0.49564 0.43218 0.49282 0.99531
USER: genes 2 Torsion [C]-N--CA-[C] |==|  0.62222
USER: genes 3 Torsion [N]-CA--C-[N] |==|  0.96244
USER: genes 4 Torsion [C]-N--CA-[C] |==|  0.21901
USER: genes 5 Torsion [N]-CA--C-[O] |==|  0.38464
USER: genes 6 Torsion [N]-CA--CB-[CG] |==|  0.53986
USER: genes 7 Torsion [CA]-CB--CG-[CD1] |==|  0.12769
USER: genes 8 Torsion [N]-CA--CB-[CG] |==|  0.74813
USER: genes 9 Torsion [CA]-CB--CG-[OD1] |==|  0.82941
USER: genes 10 Torsion [N]-C--CA-[N] |==|  0.37985
USER: genes 11 Torsion [C]-CA--N-[C] |==|  0.74184
USER: genes 12 Torsion [N]-C--CA-[N] |==|  0.43148
USER: genes 13 Torsion [C]-CA--CB-[OG] |==|  0.38438
USER: genes 14 Torsion [CA]-CB--OG-[HG] |==|  0.76768
USER: genes 15 Torsion [C]-CA--N-[C] |==|  0.82584
USER: genes 16 Torsion [C]-CA--CB-[CG] |==|  0.02804
USER: genes 17 Torsion [CA]-CB--CG-[CD2] |==|  0.68959
ROOT
ATOM      1  C   LEU I   2       3.441   2.888  10.595  1.00 17.40 LIG 0.24  C 
ATOM      2 O    LEU I   2       3.003   3.808  11.259  1.00 17.46 LIG-0.27  OA
ATOM      3  N   ASN I   3       3.290   1.612  10.897  1.00 16.24 LIG-0.35  N 
ATOM      4 H    ASN I   3       3.668   0.971  10.467  1.00 16.24 LIG 0.16  HD
ENDROOT
BRANCH 3 5
ATOM      5  CA  ASN I   3       2.464   1.182  11.994  1.00 15.86 LIG 0.18  C 
BRANCH 5 6
ATOM      6  C   ASN I   3       3.182   0.104  12.779  1.00 15.05 LIG 0.24  C 
ATOM      7  N   PHE I   4       4.251  -0.419  12.165  1.00 14.49 LIG-0.34  N 
ATOM      8 H    PHE I   4       4.512  -0.181  11.380  1.00 14.49 LIG 0.16  HD
ATOM      9 O    ASN I   3       2.747  -0.251  13.902  1.00 16.10 LIG-0.27  OA
BRANCH 7 10
ATOM     10  CA  PHE I   4       5.080  -1.453  12.779  1.00 12.92 LIG 0.19  C 
BRANCH 10 11
ATOM     11  C   PHE I   4       4.381  -2.782  12.635  1.00 14.32 LIG 0.20  C 
ATOM     12 OXT  PHE I   4       3.162  -2.794  12.717  1.00 16.91 LIG-0.65  OA
ATOM     13 O    PHE I   4       5.014  -3.797  12.339  1.00 15.04 LIG-0.65  OA
ENDBRANCH 10 11
BRANCH 10 14
ATOM     14  CB  PHE I   4       5.308  -1.127  14.244  1.00 13.46 LIG 0.07  C 
BRANCH 14 15
ATOM     15  CG  PHE I   4       6.427  -1.967  14.808  1.00 17.43 LIG-0.06  A 
ATOM     16  CD1 PHE I   4       7.619  -2.106  14.084  1.00 19.70 LIG 0.01  A 
ATOM     17  CE1 PHE I   4       8.655  -2.858  14.610  1.00 18.46 LIG 0.00  A 
ATOM     18  CZ  PHE I   4       8.508  -3.469  15.849  1.00 20.27 LIG 0.00  A 
ATOM     19  CE2 PHE I   4       7.328  -3.337  16.577  1.00 19.92 LIG 0.00  A 
ATOM     20  CD2 PHE I   4       6.274  -2.583  16.057  1.00 19.48 LIG 0.01  A 
ENDBRANCH 14 15
ENDBRANCH 10 14
ENDBRANCH 7 10
ENDBRANCH 5 6
BRANCH 5 21
ATOM     21  CB  ASN I   3       1.154   0.656  11.427  1.00 15.02 LIG 0.14  C 
BRANCH 21 22
ATOM     22  CG  ASN I   3       0.145   1.799  11.343  1.00 21.09 LIG 0.22  C 
ATOM     23  ND2 ASN I   3      -0.254   2.238  10.160  1.00 19.37 LIG-0.37  N 
ATOM     24 22HD ASN I   3      -0.004   1.833   9.444  1.00 19.37 LIG 0.16  HD
ATOM     25 21HD ASN I   3      -0.765   2.928  10.107  1.00 19.37 LIG 0.16  HD
ATOM     26 OD1  ASN I   3      -0.236   2.408  12.340  1.00 22.58 LIG-0.27  OA
ENDBRANCH 21 22
ENDBRANCH 5 21
ENDBRANCH 3 5
BRANCH 1 27
ATOM     27  CA  LEU I   2       4.137   3.198   9.335  1.00 19.34 LIG 0.18  C 
BRANCH 27 28
ATOM     28  N   LEU I   2       3.358   4.260   8.737  1.00 20.62 LIG-0.35  N 
ATOM     29 H    LEU I   2       3.565   5.058   8.982  1.00 20.62 LIG 0.16  HD
ATOM     30  C   SER I   1       2.399   3.946   7.873  1.00 28.29 LIG 0.24  C 
ATOM     31 O    SER I   1       2.094   2.760   7.614  1.00 21.19 LIG-0.27  OA
BRANCH 30 32
ATOM     32  CA  SER I   1       1.758   5.148   7.188  1.00 32.71 LIG 0.20  C 
BRANCH 32 33
ATOM     33  CB  SER I   1       0.688   5.668   8.104  1.00 35.86 LIG 0.20  C 
BRANCH 33 34
ATOM     34 OG   SER I   1       0.944   7.034   7.933  1.00 39.84 LIG-0.40  OA
ATOM     35 HG   SER I   1       1.567   7.268   8.446  1.00 39.84 LIG 0.21  HD
ENDBRANCH 33 34
ENDBRANCH 32 33
BRANCH 32 36
ATOM     36  N   SER I   1       1.255   4.554   5.954  1.00 41.50 LIG-0.35  N 
ATOM     37  C   ACE I   0       1.908   3.965   4.932  1.00 42.61 LIG 0.21  C 
ATOM     38 O    ACE I   0       3.118   3.740   4.868  0.00 41.61 LIG-0.27  OA
ATOM     39  CH3 ACE I   0       0.982   3.513   3.815  0.00 41.50 LIG 0.12  C 
ATOM     40 H    SER I   1       0.398   4.616   5.925  1.00 41.50 LIG 0.16  HD
ENDBRANCH 32 36
ENDBRANCH 30 32
ENDBRANCH 27 28
BRANCH 27 41
ATOM     41  CB  LEU I   2       5.531   3.640   9.620  1.00 22.58 LIG 0.04  C 
BRANCH 41 42
ATOM     42  CG  LEU I   2       5.876   3.394  11.094  1.00 27.49 LIG-0.02  C 
ATOM     43  CD2 LEU I   2       6.038   4.721  11.853  1.00 25.10 LIG 0.01  C 
ATOM     44  CD1 LEU I   2       7.112   2.522  11.142  1.00 31.16 LIG 0.01  C 
ENDBRANCH 41 42
ENDBRANCH 27 41
ENDBRANCH 1 27
TORSDOF 16
ENDMDL
MODEL 4
USER: ADFR SOLUTION from run 2
USER: SCORE 15.523219 LL:  -2.784 LR: -13.454 RR:   0.000 FEB:  -8.681
USER: RMSD 4.360021
USER: SEED 467219
USER: STATUS no improvement in best in 6 clusters for 5 generations
USER: GENES 18
USER: genes 0 Translation |==|  0.46182 0.46550 0.53130
USER: genes 1 Rotation |==|  0.59117 0.55331 0.43684 0.98462
USER: genes 2 Torsion [C]-N--CA-[C] |==|  0.64444
USER: genes 3 Torsion [N]-CA--C-[N] |==|  0.30641
USER: genes 4 Torsion [C]-N--CA-[C] |==|  0.91685
USER: genes 5 Torsion [N]-CA--C-[O] |==|  0.83557
USER: genes 6 Torsion [N]-CA--CB-[CG] |==|  0.55191
USER: genes 7 Torsion [CA]-CB--CG-[CD1] |==|  0.74236
USER: genes 8 Torsion [N]-CA--CB-[CG] |==|  0.86799
USER: genes 9 Torsion [CA]-CB--CG-[OD1] |==|  0.81751
USER: genes 10 Torsion [N]-C--CA-[N] |==|  0.90727
USER: genes 11 Torsion [C]-CA--N-[C] |==|  0.74763
USER: genes 12 Torsion [N]-C--CA-[N] |==|  0.23707
USER: genes 13 Torsion [C]-CA--CB-[OG] |==|  0.47505
USER: genes 14 Torsion [CA]-CB--OG-[HG] |==|  0.74448
USER: genes 15 Torsion [C]-CA--N-[C] |==|  0.76522
USER: genes 16 Torsion [C]-CA--CB-[CG] |==|  0.61197
USER: genes 17 Torsion [CA]-CB--CG-[CD2] |==|  0.75004
ROOT
ATOM      1  C   LEU I   2       3.229   2.915  11.100  1.00 17.40 LIG 0.24  C 
ATOM      2 O    LEU I   2       3.356   3.483  12.168  1.00 17.46 LIG-0.27  OA
ATOM      3  N   ASN I   3       2.885   1.648  10.966  1.00 16.24 LIG-0.35  N 
ATOM      4 H    ASN I   3       2.873   1.232  10.213  1.00 16.24 LIG 0.16  HD
ENDROOT
BRANCH 3 5
ATOM      5  CA  ASN I   3       2.493   0.842  12.092  1.00 15.86 LIG 0.18  C 
BRANCH 5 6
ATOM      6  C   ASN I   3       3.305  -0.438  12.109  1.00 15.05 LIG 0.24  C 
ATOM      7  N   PHE I   4       4.195  -0.524  13.106  1.00 14.49 LIG-0.34  N 
ATOM      8 H    PHE I   4       4.317   0.097  13.688  1.00 14.49 LIG 0.16  HD
ATOM      9 O    ASN I   3       3.131  -1.302  11.216  1.00 16.10 LIG-0.27  OA
BRANCH 7 10
ATOM     10  CA  PHE I   4       5.049  -1.693  13.295  1.00 12.92 LIG 0.19  C 
BRANCH 10 11
ATOM     11  C   PHE I   4       4.320  -2.912  12.785  1.00 14.32 LIG 0.20  C 
ATOM     12 OXT  PHE I   4       4.893  -3.615  11.967  1.00 16.91 LIG-0.65  OA
ATOM     13 O    PHE I   4       3.232  -3.239  13.262  1.00 15.04 LIG-0.65  OA
ENDBRANCH 10 11
BRANCH 10 14
ATOM     14  CB  PHE I   4       5.386  -1.852  14.767  1.00 13.46 LIG 0.07  C 
BRANCH 14 15
ATOM     15  CG  PHE I   4       6.595  -2.736  14.944  1.00 17.43 LIG-0.06  A 
ATOM     16  CD1 PHE I   4       6.421  -4.113  15.143  1.00 19.70 LIG 0.01  A 
ATOM     17  CE1 PHE I   4       7.528  -4.930  15.283  1.00 18.46 LIG 0.00  A 
ATOM     18  CZ  PHE I   4       8.804  -4.383  15.225  1.00 20.27 LIG 0.00  A 
ATOM     19  CE2 PHE I   4       8.988  -3.016  15.027  1.00 19.92 LIG 0.00  A 
ATOM     20  CD2 PHE I   4       7.879  -2.181  14.886  1.00 19.48 LIG 0.01  A 
ENDBRANCH 14 15
ENDBRANCH 10 14
ENDBRANCH 7 10
ENDBRANCH 5 6
BRANCH 5 21
ATOM     21  CB  ASN I   3       1.008   0.538  11.967  1.00 15.02 LIG 0.14  C 
BRANCH 21 22
ATOM     22  CG  ASN I   3       0.255   1.828  11.648  1.00 21.09 LIG 0.22  C 
ATOM     23  ND2 ASN I   3      -0.252   2.011  10.438  1.00 19.37 LIG-0.37  N 
ATOM     24 22HD ASN I   3      -0.222   1.377   9.859  1.00 19.37 LIG 0.16  HD
ATOM     25 21HD ASN I   3      -0.612   2.764  10.233  1.00 19.37 LIG 0.16  HD
ATOM     26 OD1  ASN I   3       0.190   2.761  12.445  1.00 22.58 LIG-0.27  OA
ENDBRANCH 21 22
ENDBRANCH 5 21
ENDBRANCH 3 5
BRANCH 1 27
ATOM     27  CA  LEU I   2       3.410   3.692   9.862  1.00 19.34 LIG 0.18  C 
BRANCH 27 28
ATOM     28  N   LEU I   2       3.928   2.741   8.904  1.00 20.62 LIG-0.35  N 
ATOM     29 H    LEU I   2       3.338   2.312   8.449  1.00 20.62 LIG 0.16  HD
ATOM     30  C   SER I   1       5.244   2.596   8.791  1.00 28.29 LIG 0.24  C 
ATOM     31 O    SER I   1       6.050   3.196   9.536  1.00 21.19 LIG-0.27  OA
BRANCH 30 32
ATOM     32  CA  SER I   1       5.675   1.691   7.642  1.00 32.71 LIG 0.20  C 
BRANCH 32 33
ATOM     33  CB  SER I   1       7.017   1.120   7.999  1.00 35.86 LIG 0.20  C 
BRANCH 33 34
ATOM     34 OG   SER I   1       7.109   0.192   6.955  1.00 39.84 LIG-0.40  OA
ATOM     35 HG   SER I   1       6.799  -0.547   7.209  1.00 39.84 LIG 0.21  HD
ENDBRANCH 33 34
ENDBRANCH 32 33
BRANCH 32 36
ATOM     36  N   SER I   1       5.697   2.624   6.520  1.00 41.50 LIG-0.35  N 
ATOM     37  C   ACE I   0       4.708   3.045   5.707  1.00 42.61 LIG 0.21  C 
ATOM     38 O    ACE I   0       3.513   2.761   5.799  0.00 41.61 LIG-0.27  OA
ATOM     39  CH3 ACE I   0       5.190   4.006   4.632  0.00 41.50 LIG 0.12  C 
ATOM     40 H    SER I   1       6.494   2.924   6.403  1.00 41.50 LIG 0.16  HD
ENDBRANCH 32 36
ENDBRANCH 30 32
ENDBRANCH 27 28
BRANCH 27 41
ATOM     41  CB  LEU I   2       2.102   4.253   9.420  1.00 22.58 LIG 0.04  C 
BRANCH 41 42
ATOM     42  CG  LEU I   2       1.967   4.153   7.896  1.00 27.49 LIG-0.02  C 
ATOM     43  CD2 LEU I   2       2.520   5.413   7.209  1.00 25.10 LIG 0.01  C 
ATOM     44  CD1 LEU I   2       0.513   3.885   7.574  1.00 31.16 LIG 0.01  C 
ENDBRANCH 41 42
ENDBRANCH 27 41
ENDBRANCH 1 27
TORSDOF 16
ENDMDL
MODEL 5
USER: ADFR SOLUTION from run 150
USER: SCORE 15.655202 LL:  -2.968 LR: -13.420 RR:   0.000 FEB:  -8.647
USER: RMSD 4.256432
USER: SEED 149
USER: STATUS no improvement in best in 5 clusters for 5 generations
USER: GENES 18
USER: genes 0 Translation |==|  0.47800 0.45590 0.52601
USER: genes 1 Rotation |==|  0.56138 0.43418 0.46664 0.99070
USER: genes 2 Torsion [C]-N--CA-[C] |==|  0.60149
USER: genes 3 Torsion [N]-CA--C-[N] |==|  0.27663
USER: genes 4 Torsion [C]-N--CA-[C] |==|  0.16102
USER: genes 5 Torsion [N]-CA--C-[O] |==|  0.15093
USER: genes 6 Torsion [N]-CA--CB-[CG] |==|  0.64292
USER: genes 7 Torsion [CA]-CB--CG-[CD1] |==|  0.76575
USER: genes 8 Torsion [N]-CA--CB-[CG] |==|  0.80279
USER: genes 9 Torsion [CA]-CB--CG-[OD1] |==|  0.83373
USER: genes 10 Torsion [N]-C--CA-[N] |==|  0.31199
USER: genes 11 Torsion [C]-CA--N-[C] |==|  0.69598
USER: genes 12 Torsion [N]-C--CA-[N] |==|  0.33889
USER: genes 13 Torsion [C]-CA--CB-[OG] |==|  0.40462
USER: genes 14 Torsion [CA]-CB--OG-[HG] |==|  0.68448
USER: genes 15 Torsion [C]-CA--N-[C] |==|  0.82847
USER: genes 16 Torsion [C]-CA--CB-[CG] |==|  0.24181
USER: genes 17 Torsion [CA]-CB--CG-[CD2] |==|  0.06589
ROOT
ATOM      1  C   LEU I   2       3.509   2.749  10.993  1.00 17.40 LIG 0.24  C 
ATOM      2 O    LEU I   2       3.128   3.481  11.887  1.00 17.46 LIG-0.27  OA
ATOM      3  N   ASN I   3       3.268   1.452  10.939  1.00 16.24 LIG-0.35  N 
ATOM      4 H    ASN I   3       3.606   0.928  10.346  1.00 16.24 LIG 0.16  HD
ENDROOT
BRANCH 3 5
ATOM      5  CA  ASN I   3       2.406   0.797  11.885  1.00 15.86 LIG 0.18  C 
BRANCH 5 6
ATOM      6  C   ASN I   3       2.950  -0.581  12.201  1.00 15.05 LIG 0.24  C 
ATOM      7  N   PHE I   4       3.639  -0.664  13.347  1.00 14.49 LIG-0.34  N 
ATOM      8 H    PHE I   4       3.781   0.008  13.865  1.00 14.49 LIG 0.16  HD
ATOM      9 O    ASN I   3       2.763  -1.529  11.399  1.00 16.10 LIG-0.27  OA
BRANCH 7 10
ATOM     10  CA  PHE I   4       4.218  -1.916  13.825  1.00 12.92 LIG 0.19  C 
BRANCH 10 11
ATOM     11  C   PHE I   4       5.164  -2.443  12.776  1.00 14.32 LIG 0.20  C 
ATOM     12 OXT  PHE I   4       4.927  -3.544  12.299  1.00 16.91 LIG-0.65  OA
ATOM     13 O    PHE I   4       6.077  -1.740  12.341  1.00 15.04 LIG-0.65  OA
ENDBRANCH 10 11
BRANCH 10 14
ATOM     14  CB  PHE I   4       3.113  -2.922  14.100  1.00 13.46 LIG 0.07  C 
BRANCH 14 15
ATOM     15  CG  PHE I   4       3.255  -3.502  15.485  1.00 17.43 LIG-0.06  A 
ATOM     16  CD1 PHE I   4       4.116  -4.589  15.694  1.00 19.70 LIG 0.01  A 
ATOM     17  CE1 PHE I   4       4.265  -5.109  16.967  1.00 18.46 LIG 0.00  A 
ATOM     18  CZ  PHE I   4       3.563  -4.553  18.029  1.00 20.27 LIG 0.00  A 
ATOM     19  CE2 PHE I   4       2.705  -3.473  17.832  1.00 19.92 LIG 0.00  A 
ATOM     20  CD2 PHE I   4       2.544  -2.940  16.552  1.00 19.48 LIG 0.01  A 
ENDBRANCH 14 15
ENDBRANCH 10 14
ENDBRANCH 7 10
ENDBRANCH 5 6
BRANCH 5 21
ATOM     21  CB  ASN I   3       1.015   0.702  11.277  1.00 15.02 LIG 0.14  C 
BRANCH 21 22
ATOM     22  CG  ASN I   3       0.389   2.094  11.231  1.00 21.09 LIG 0.22  C 
ATOM     23  ND2 ASN I   3       0.138   2.664  10.063  1.00 19.37 LIG-0.37  N 
ATOM     24 22HD ASN I   3       0.259   2.224   9.335  1.00 19.37 LIG 0.16  HD
ATOM     25 21HD ASN I   3      -0.146   3.475  10.032  1.00 19.37 LIG 0.16  HD
ATOM     26 OD1  ASN I   3       0.202   2.760  12.247  1.00 22.58 LIG-0.27  OA
ENDBRANCH 21 22
ENDBRANCH 5 21
ENDBRANCH 3 5
BRANCH 1 27
ATOM     27  CA  LEU I   2       4.235   3.342   9.857  1.00 19.34 LIG 0.18  C 
BRANCH 27 28
ATOM     28  N   LEU I   2       3.267   4.199   9.210  1.00 20.62 LIG-0.35  N 
ATOM     29 H    LEU I   2       3.049   4.910   9.643  1.00 20.62 LIG 0.16  HD
ATOM     30  C   SER I   1       2.787   3.846   8.022  1.00 28.29 LIG 0.24  C 
ATOM     31 O    SER I   1       3.086   2.760   7.477  1.00 21.19 LIG-0.27  OA
BRANCH 30 32
ATOM     32  CA  SER I   1       1.903   4.901   7.367  1.00 32.71 LIG 0.20  C 
BRANCH 32 33
ATOM     33  CB  SER I   1       0.533   4.306   7.214  1.00 35.86 LIG 0.20  C 
BRANCH 33 34
ATOM     34 OG   SER I   1      -0.204   5.478   7.422  1.00 39.84 LIG-0.40  OA
ATOM     35 HG   SER I   1      -0.640   5.411   8.137  1.00 39.84 LIG 0.21  HD
ENDBRANCH 33 34
ENDBRANCH 32 33
BRANCH 32 36
ATOM     36  N   SER I   1       2.601   5.134   6.108  1.00 41.50 LIG-0.35  N 
ATOM     37  C   ACE I   0       3.843   5.598   5.864  1.00 42.61 LIG 0.21  C 
ATOM     38 O    ACE I   0       4.703   5.867   6.704  0.00 41.61 LIG-0.27  OA
ATOM     39  CH3 ACE I   0       4.153   5.719   4.380  0.00 41.50 LIG 0.12  C 
ATOM     40 H    SER I   1       2.093   4.925   5.446  1.00 41.50 LIG 0.16  HD
ENDBRANCH 32 36
ENDBRANCH 30 32
ENDBRANCH 27 28
BRANCH 27 41
ATOM     41  CB  LEU I   2       5.405   4.120  10.354  1.00 22.58 LIG 0.04  C 
BRANCH 41 42
ATOM     42  CG  LEU I   2       6.625   3.205  10.511  1.00 27.49 LIG-0.02  C 
ATOM     43  CD2 LEU I   2       6.508   1.967   9.607  1.00 25.10 LIG 0.01  C 
ATOM     44  CD1 LEU I   2       6.763   2.864  11.979  1.00 31.16 LIG 0.01  C 
ENDBRANCH 41 42
ENDBRANCH 27 41
ENDBRANCH 1 27
TORSDOF 16
ENDMDL
MODEL 6
USER: ADFR SOLUTION from run 53
USER: SCORE 16.010786 LL:  -3.506 LR: -13.351 RR:   0.000 FEB:  -8.578
USER: RMSD 3.567366
USER: SEED 52
USER: STATUS searching
USER: GENES 18
USER: genes 0 Translation |==|  0.46852 0.46390 0.52628
USER: genes 1 Rotation |==|  0.59543 0.56166 0.43354 0.98236
USER: genes 2 Torsion [C]-N--CA-[C] |==|  0.63928
USER: genes 3 Torsion [N]-CA--C-[N] |==|  0.21667
USER: genes 4 Torsion [C]-N--CA-[C] |==|  0.88935
USER: genes 5 Torsion [N]-CA--C-[O] |==|  0.88316
USER: genes 6 Torsion [N]-CA--CB-[CG] |==|  0.80714
USER: genes 7 Torsion [CA]-CB--CG-[CD1] |==|  0.82120
USER: genes 8 Torsion [N]-CA--CB-[CG] |==|  0.87471
USER: genes 9 Torsion [CA]-CB--CG-[OD1] |==|  0.83715
USER: genes 10 Torsion [N]-C--CA-[N] |==|  0.90382
USER: genes 11 Torsion [C]-CA--N-[C] |==|  0.76789
USER: genes 12 Torsion [N]-C--CA-[N] |==|  0.21618
USER: genes 13 Torsion [C]-CA--CB-[OG] |==|  0.46140
USER: genes 14 Torsion [CA]-CB--OG-[HG] |==|  0.75590
USER: genes 15 Torsion [C]-CA--N-[C] |==|  0.76892
USER: genes 16 Torsion [C]-CA--CB-[CG] |==|  0.59198
USER: genes 17 Torsion [CA]-CB--CG-[CD2] |==|  0.68335
ROOT
ATOM      1  C   LEU I   2       3.345   2.887  10.998  1.00 17.40 LIG 0.24  C 
ATOM      2 O    LEU I   2       3.513   3.431  12.073  1.00 17.46 LIG-0.27  OA
ATOM      3  N   ASN I   3       2.983   1.626  10.850  1.00 16.24 LIG-0.35  N 
ATOM      4 H    ASN I   3       2.942   1.227  10.089  1.00 16.24 LIG 0.16  HD
ENDROOT
BRANCH 3 5
ATOM      5  CA  ASN I   3       2.621   0.801  11.971  1.00 15.86 LIG 0.18  C 
BRANCH 5 6
ATOM      6  C   ASN I   3       3.386  -0.506  11.909  1.00 15.05 LIG 0.24  C 
ATOM      7  N   PHE I   4       4.661  -0.429  12.313  1.00 14.49 LIG-0.34  N 
ATOM      8 H    PHE I   4       5.033   0.301  12.575  1.00 14.49 LIG 0.16  HD
ATOM      9 O    ASN I   3       2.825  -1.542  11.478  1.00 16.10 LIG-0.27  OA
BRANCH 7 10
ATOM     10  CA  PHE I   4       5.545  -1.591  12.344  1.00 12.92 LIG 0.19  C 
BRANCH 10 11
ATOM     11  C   PHE I   4       4.761  -2.782  12.836  1.00 14.32 LIG 0.20  C 
ATOM     12 OXT  PHE I   4       5.012  -3.871  12.341  1.00 16.91 LIG-0.65  OA
ATOM     13 O    PHE I   4       3.975  -2.672  13.778  1.00 15.04 LIG-0.65  OA
ENDBRANCH 10 11
BRANCH 10 14
ATOM     14  CB  PHE I   4       6.725  -1.316  13.259  1.00 13.46 LIG 0.07  C 
BRANCH 14 15
ATOM     15  CG  PHE I   4       7.637  -0.278  12.654  1.00 17.43 LIG-0.06  A 
ATOM     16  CD1 PHE I   4       8.310  -0.563  11.457  1.00 19.70 LIG 0.01  A 
ATOM     17  CE1 PHE I   4       9.130   0.395  10.888  1.00 18.46 LIG 0.00  A 
ATOM     18  CZ  PHE I   4       9.281   1.631  11.503  1.00 20.27 LIG 0.00  A 
ATOM     19  CE2 PHE I   4       8.617   1.925  12.692  1.00 19.92 LIG 0.00  A 
ATOM     20  CD2 PHE I   4       7.789   0.966  13.278  1.00 19.48 LIG 0.01  A 
ENDBRANCH 14 15
ENDBRANCH 10 14
ENDBRANCH 7 10
ENDBRANCH 5 6
BRANCH 5 21
ATOM     21  CB  ASN I   3       1.122   0.552  11.915  1.00 15.02 LIG 0.14  C 
BRANCH 21 22
ATOM     22  CG  ASN I   3       0.404   1.865  11.613  1.00 21.09 LIG 0.22  C 
ATOM     23  ND2 ASN I   3      -0.268   2.001  10.481  1.00 19.37 LIG-0.37  N 
ATOM     24 22HD ASN I   3      -0.362   1.330   9.953  1.00 19.37 LIG 0.16  HD
ATOM     25 21HD ASN I   3      -0.612   2.762  10.274  1.00 19.37 LIG 0.16  HD
ATOM     26 OD1  ASN I   3       0.513   2.851  12.339  1.00 22.58 LIG-0.27  OA
ENDBRANCH 21 22
ENDBRANCH 5 21
ENDBRANCH 3 5
BRANCH 1 27
ATOM     27  CA  LEU I   2       3.491   3.689   9.772  1.00 19.34 LIG 0.18  C 
BRANCH 27 28
ATOM     28  N   LEU I   2       3.996   2.761   8.785  1.00 20.62 LIG-0.35  N 
ATOM     29 H    LEU I   2       3.406   2.407   8.269  1.00 20.62 LIG 0.16  HD
ATOM     30  C   SER I   1       5.302   2.519   8.739  1.00 28.29 LIG 0.24  C 
ATOM     31 O    SER I   1       6.103   3.007   9.568  1.00 21.19 LIG-0.27  OA
BRANCH 30 32
ATOM     32  CA  SER I   1       5.736   1.654   7.560  1.00 32.71 LIG 0.20  C 
BRANCH 32 33
ATOM     33  CB  SER I   1       7.097   1.106   7.881  1.00 35.86 LIG 0.20  C 
BRANCH 33 34
ATOM     34 OG   SER I   1       7.143   0.127   6.883  1.00 39.84 LIG-0.40  OA
ATOM     35 HG   SER I   1       6.798  -0.583   7.170  1.00 39.84 LIG 0.21  HD
ENDBRANCH 33 34
ENDBRANCH 32 33
BRANCH 32 36
ATOM     36  N   SER I   1       5.719   2.617   6.464  1.00 41.50 LIG-0.35  N 
ATOM     37  C   ACE I   0       4.704   3.053   5.692  1.00 42.61 LIG 0.21  C 
ATOM     38 O    ACE I   0       3.513   2.760   5.813  0.00 41.61 LIG-0.27  OA
ATOM     39  CH3 ACE I   0       5.148   4.046   4.629  0.00 41.50 LIG 0.12  C 
ATOM     40 H    SER I   1       6.511   2.925   6.330  1.00 41.50 LIG 0.16  HD
ENDBRANCH 32 36
ENDBRANCH 30 32
ENDBRANCH 27 28
BRANCH 27 41
ATOM     41  CB  LEU I   2       2.169   4.246   9.369  1.00 22.58 LIG 0.04  C 
BRANCH 41 42
ATOM     42  CG  LEU I   2       2.074   4.340   7.841  1.00 27.49 LIG-0.02  C 
ATOM     43  CD2 LEU I   2       1.998   5.804   7.381  1.00 25.10 LIG 0.01  C 
ATOM     44  CD1 LEU I   2       0.888   3.510   7.398  1.00 31.16 LIG 0.01  C 
ENDBRANCH 41 42
ENDBRANCH 27 41
ENDBRANCH 1 27
TORSDOF 16
ENDMDL
MODEL 7
USER: ADFR SOLUTION from run 35
USER: SCORE 15.178351 LL:  -3.340 LR: -12.830 RR:   0.000 FEB:  -8.057
USER: RMSD 2.176779
USER: SEED 34
USER: STATUS searching
USER: GENES 18
USER: genes 0 Translation |==|  0.42837 0.49743 0.47268
USER: genes 1 Rotation |==|  0.51664 0.59565 0.54071 0.98879
USER: genes 2 Torsion [C]-N--CA-[C] |==|  0.61540
USER: genes 3 Torsion [N]-CA--C-[N] |==|  0.59679
USER: genes 4 Torsion [C]-N--CA-[C] |==|  0.58133
USER: genes 5 Torsion [N]-CA--C-[O] |==|  0.93033
USER: genes 6 Torsion [N]-CA--CB-[CG] |==|  0.76066
USER: genes 7 Torsion [CA]-CB--CG-[CD1] |==|  0.81617
USER: genes 8 Torsion [N]-CA--CB-[CG] |==|  0.83218
USER: genes 9 Torsion [CA]-CB--CG-[OD1] |==|  0.75647
USER: genes 10 Torsion [N]-C--CA-[N] |==|  0.44422
USER: genes 11 Torsion [C]-CA--N-[C] |==|  0.63067
USER: genes 12 Torsion [N]-C--CA-[N] |==|  0.13333
USER: genes 13 Torsion [C]-CA--CB-[OG] |==|  0.39687
USER: genes 14 Torsion [CA]-CB--OG-[HG] |==|  0.85030
USER: genes 15 Torsion [C]-CA--N-[C] |==|  0.16286
USER: genes 16 Torsion [C]-CA--CB-[CG] |==|  0.32360
USER: genes 17 Torsion [CA]-CB--CG-[CD2] |==|  0.56221
ROOT
ATOM      1  C   LEU I   2       2.652   3.466   9.913  1.00 17.40 LIG 0.24  C 
ATOM      2 O    LEU I   2       2.572   4.277  10.816  1.00 17.46 LIG-0.27  OA
ATOM      3  N   ASN I   3       2.928   2.186  10.083  1.00 16.24 LIG-0.35  N 
ATOM      4 H    ASN I   3       3.060   1.635   9.435  1.00 16.24 LIG 0.16  HD
ENDROOT
BRANCH 3 5
ATOM      5  CA  ASN I   3       3.031   1.596  11.391  1.00 15.86 LIG 0.18  C 
BRANCH 5 6
ATOM      6  C   ASN I   3       4.208   0.641  11.427  1.00 15.05 LIG 0.24  C 
ATOM      7  N   PHE I   4       4.028  -0.442  12.194  1.00 14.49 LIG-0.34  N 
ATOM      8 H    PHE I   4       3.312  -0.589  12.648  1.00 14.49 LIG 0.16  HD
ATOM      9 O    ASN I   3       5.254   0.911  10.788  1.00 16.10 LIG-0.27  OA
BRANCH 7 10
ATOM     10  CA  PHE I   4       5.043  -1.482  12.331  1.00 12.92 LIG 0.19  C 
BRANCH 10 11
ATOM     11  C   PHE I   4       4.355  -2.796  12.603  1.00 14.32 LIG 0.20  C 
ATOM     12 OXT  PHE I   4       4.985  -3.822  12.392  1.00 16.91 LIG-0.65  OA
ATOM     13 O    PHE I   4       3.237  -2.826  13.121  1.00 15.04 LIG-0.65  OA
ENDBRANCH 10 11
BRANCH 10 14
ATOM     14  CB  PHE I   4       5.988  -1.132  13.467  1.00 13.46 LIG 0.07  C 
BRANCH 14 15
ATOM     15  CG  PHE I   4       7.101  -0.240  12.976  1.00 17.43 LIG-0.06  A 
ATOM     16  CD1 PHE I   4       8.037  -0.741  12.061  1.00 19.70 LIG 0.01  A 
ATOM     17  CE1 PHE I   4       9.045   0.082  11.593  1.00 18.46 LIG 0.00  A 
ATOM     18  CZ  PHE I   4       9.124   1.398  12.030  1.00 20.27 LIG 0.00  A 
ATOM     19  CE2 PHE I   4       8.199   1.907  12.939  1.00 19.92 LIG 0.00  A 
ATOM     20  CD2 PHE I   4       7.178   1.086  13.421  1.00 19.48 LIG 0.01  A 
ENDBRANCH 14 15
ENDBRANCH 10 14
ENDBRANCH 7 10
ENDBRANCH 5 6
BRANCH 5 21
ATOM     21  CB  ASN I   3       1.732   0.864  11.687  1.00 15.02 LIG 0.14  C 
BRANCH 21 22
ATOM     22  CG  ASN I   3       0.574   1.859  11.658  1.00 21.09 LIG 0.22  C 
ATOM     23  ND2 ASN I   3      -0.020   2.142  10.510  1.00 19.37 LIG-0.37  N 
ATOM     24 22HD ASN I   3       0.195   1.713   9.797  1.00 19.37 LIG 0.16  HD
ATOM     25 21HD ASN I   3      -0.622   2.755  10.476  1.00 19.37 LIG 0.16  HD
ATOM     26 OD1  ASN I   3       0.236   2.497  12.653  1.00 22.58 LIG-0.27  OA
ENDBRANCH 21 22
ENDBRANCH 5 21
ENDBRANCH 3 5
BRANCH 1 27
ATOM     27  CA  LEU I   2       2.368   3.911   8.538  1.00 19.34 LIG 0.18  C 
BRANCH 27 28
ATOM     28  N   LEU I   2       1.652   5.157   8.698  1.00 20.62 LIG-0.35  N 
ATOM     29 H    LEU I   2       1.995   5.716   9.254  1.00 20.62 LIG 0.16  HD
ATOM     30  C   SER I   1       0.541   5.355   7.996  1.00 28.29 LIG 0.24  C 
ATOM     31 O    SER I   1       0.049   4.471   7.259  1.00 21.19 LIG-0.27  OA
BRANCH 30 32
ATOM     32  CA  SER I   1      -0.035   6.761   8.122  1.00 32.71 LIG 0.20  C 
BRANCH 32 33
ATOM     33  CB  SER I   1      -1.096   6.908   7.069  1.00 35.86 LIG 0.20  C 
BRANCH 33 34
ATOM     34 OG   SER I   1      -1.995   7.677   7.816  1.00 39.84 LIG-0.40  OA
ATOM     35 HG   SER I   1      -2.165   7.285   8.539  1.00 39.84 LIG 0.21  HD
ENDBRANCH 33 34
ENDBRANCH 32 33
BRANCH 32 36
ATOM     36  N   SER I   1       1.147   7.587   7.904  1.00 41.50 LIG-0.35  N 
ATOM     37  C   ACE I   0       1.989   7.656   6.854  1.00 42.61 LIG 0.21  C 
ATOM     38 O    ACE I   0       1.881   7.051   5.786  0.00 41.61 LIG-0.27  OA
ATOM     39  CH3 ACE I   0       3.126   8.643   7.067  0.00 41.50 LIG 0.12  C 
ATOM     40 H    SER I   1       1.282   8.094   8.585  1.00 41.50 LIG 0.16  HD
ENDBRANCH 32 36
ENDBRANCH 30 32
ENDBRANCH 27 28
BRANCH 27 41
ATOM     41  CB  LEU I   2       3.643   4.108   7.794  1.00 22.58 LIG 0.04  C 
BRANCH 41 42
ATOM     42  CG  LEU I   2       3.730   3.128   6.618  1.00 27.49 LIG-0.02  C 
ATOM     43  CD2 LEU I   2       5.190   2.909   6.188  1.00 25.10 LIG 0.01  C 
ATOM     44  CD1 LEU I   2       2.851   3.658   5.506  1.00 31.16 LIG 0.01  C 
ENDBRANCH 41 42
ENDBRANCH 27 41
ENDBRANCH 1 27
TORSDOF 16
ENDMDL
MODEL 8
USER: ADFR SOLUTION from run 125
USER: SCORE 15.038259 LL:  -3.549 LR: -12.734 RR:   0.000 FEB:  -7.961
USER: RMSD 3.652128
USER: SEED 124
USER: STATUS searching
USER: GENES 18
USER: genes 0 Translation |==|  0.42778 0.47954 0.49449
USER: genes 1 Rotation |==|  0.47882 0.49971 0.51888 0.99919
USER: genes 2 Torsion [C]-N--CA-[C] |==|  0.63224
USER: genes 3 Torsion [N]-CA--C-[N] |==|  0.97931
USER: genes 4 Torsion [C]-N--CA-[C] |==|  0.55926
USER: genes 5 Torsion [N]-CA--C-[O] |==|  0.46622
USER: genes 6 Torsion [N]-CA--CB-[CG] |==|  0.75234
USER: genes 7 Torsion [CA]-CB--CG-[CD1] |==|  0.85316
USER: genes 8 Torsion [N]-CA--CB-[CG] |==|  0.79637
USER: genes 9 Torsion [CA]-CB--CG-[OD1] |==|  0.76979
USER: genes 10 Torsion [N]-C--CA-[N] |==|  0.30689
USER: genes 11 Torsion [C]-CA--N-[C] |==|  0.56122
USER: genes 12 Torsion [N]-C--CA-[N] |==|  0.09373
USER: genes 13 Torsion [C]-CA--CB-[OG] |==|  0.44238
USER: genes 14 Torsion [CA]-CB--OG-[HG] |==|  0.76822
USER: genes 15 Torsion [C]-CA--N-[C] |==|  0.20553
USER: genes 16 Torsion [C]-CA--CB-[CG] |==|  0.17463
USER: genes 17 Torsion [CA]-CB--CG-[CD2] |==|  0.71761
ROOT
ATOM      1  C   LEU I   2       2.642   3.157  10.354  1.00 17.40 LIG 0.24  C 
ATOM      2 O    LEU I   2       2.305   4.094  11.053  1.00 17.46 LIG-0.27  OA
ATOM      3  N   ASN I   3       2.707   1.905  10.767  1.00 16.24 LIG-0.35  N 
ATOM      4 H    ASN I   3       3.020   1.260  10.291  1.00 16.24 LIG 0.16  HD
ENDROOT
BRANCH 3 5
ATOM      5  CA  ASN I   3       2.249   1.508  12.072  1.00 15.86 LIG 0.18  C 
BRANCH 5 6
ATOM      6  C   ASN I   3       3.296   0.636  12.735  1.00 15.05 LIG 0.24  C 
ATOM      7  N   PHE I   4       4.320   0.291  11.944  1.00 14.49 LIG-0.34  N 
ATOM      8 H    PHE I   4       4.384   0.526  11.119  1.00 14.49 LIG 0.16  HD
ATOM      9 O    ASN I   3       3.148   0.274  13.928  1.00 16.10 LIG-0.27  OA
BRANCH 7 10
ATOM     10  CA  PHE I   4       5.434  -0.527  12.417  1.00 12.92 LIG 0.19  C 
BRANCH 10 11
ATOM     11  C   PHE I   4       6.619  -0.301  11.511  1.00 14.32 LIG 0.20  C 
ATOM     12 OXT  PHE I   4       6.448   0.384  10.513  1.00 16.91 LIG-0.65  OA
ATOM     13 O    PHE I   4       7.740  -0.703  11.828  1.00 15.04 LIG-0.65  OA
ENDBRANCH 10 11
BRANCH 10 14
ATOM     14  CB  PHE I   4       5.035  -1.992  12.414  1.00 13.46 LIG 0.07  C 
BRANCH 14 15
ATOM     15  CG  PHE I   4       4.406  -2.374  13.731  1.00 17.43 LIG-0.06  A 
ATOM     16  CD1 PHE I   4       5.085  -2.100  14.927  1.00 19.70 LIG 0.01  A 
ATOM     17  CE1 PHE I   4       4.501  -2.429  16.137  1.00 18.46 LIG 0.00  A 
ATOM     18  CZ  PHE I   4       3.248  -3.028  16.160  1.00 20.27 LIG 0.00  A 
ATOM     19  CE2 PHE I   4       2.565  -3.305  14.978  1.00 19.92 LIG 0.00  A 
ATOM     20  CD2 PHE I   4       3.143  -2.979  13.751  1.00 19.48 LIG 0.01  A 
ENDBRANCH 14 15
ENDBRANCH 10 14
ENDBRANCH 7 10
ENDBRANCH 5 6
BRANCH 5 21
ATOM     21  CB  ASN I   3       0.940   0.751  11.908  1.00 15.02 LIG 0.14  C 
BRANCH 21 22
ATOM     22  CG  ASN I   3      -0.172   1.737  11.558  1.00 21.09 LIG 0.22  C 
ATOM     23  ND2 ASN I   3      -0.442   1.999  10.289  1.00 19.37 LIG-0.37  N 
ATOM     24 22HD ASN I   3      -0.044   1.562   9.665  1.00 19.37 LIG 0.16  HD
ATOM     25 21HD ASN I   3      -1.016   2.607  10.088  1.00 19.37 LIG 0.16  HD
ATOM     26 OD1  ASN I   3      -0.765   2.386  12.417  1.00 22.58 LIG-0.27  OA
ENDBRANCH 21 22
ENDBRANCH 5 21
ENDBRANCH 3 5
BRANCH 1 27
ATOM     27  CA  LEU I   2       2.944   3.409   8.935  1.00 19.34 LIG 0.18  C 
BRANCH 27 28
ATOM     28  N   LEU I   2       1.676   3.787   8.352  1.00 20.62 LIG-0.35  N 
ATOM     29 H    LEU I   2       1.086   4.085   8.903  1.00 20.62 LIG 0.16  HD
ATOM     30  C   SER I   1       1.506   3.653   7.041  1.00 28.29 LIG 0.24  C 
ATOM     31 O    SER I   1       2.377   3.141   6.302  1.00 21.19 LIG-0.27  OA
BRANCH 30 32
ATOM     32  CA  SER I   1       0.196   4.233   6.519  1.00 32.71 LIG 0.20  C 
BRANCH 32 33
ATOM     33  CB  SER I   1       0.407   4.592   5.077  1.00 35.86 LIG 0.20  C 
BRANCH 33 34
ATOM     34 OG   SER I   1      -0.938   4.606   4.690  1.00 39.84 LIG-0.40  OA
ATOM     35 HG   SER I   1      -1.187   3.824   4.513  1.00 39.84 LIG 0.21  HD
ENDBRANCH 33 34
ENDBRANCH 32 33
BRANCH 32 36
ATOM     36  N   SER I   1       0.005   5.378   7.402  1.00 41.50 LIG-0.35  N 
ATOM     37  C   ACE I   0       0.629   6.572   7.441  1.00 42.61 LIG 0.21  C 
ATOM     38 O    ACE I   0       1.484   6.978   6.652  0.00 41.61 LIG-0.27  OA
ATOM     39  CH3 ACE I   0       0.132   7.468   8.564  0.00 41.50 LIG 0.12  C 
ATOM     40 H    SER I   1      -0.619   5.212   7.970  1.00 41.50 LIG 0.16  HD
ENDBRANCH 32 36
ENDBRANCH 30 32
ENDBRANCH 27 28
BRANCH 27 41
ATOM     41  CB  LEU I   2       3.946   4.506   8.817  1.00 22.58 LIG 0.04  C 
BRANCH 41 42
ATOM     42  CG  LEU I   2       5.267   4.094   9.477  1.00 27.49 LIG-0.02  C 
ATOM     43  CD2 LEU I   2       5.417   4.738  10.865  1.00 25.10 LIG 0.01  C 
ATOM     44  CD1 LEU I   2       6.391   4.450   8.527  1.00 31.16 LIG 0.01  C 
ENDBRANCH 41 42
ENDBRANCH 27 41
ENDBRANCH 1 27
TORSDOF 16
ENDMDL
MODEL 9
USER: ADFR SOLUTION from run 22
USER: SCORE 15.200355 LL:  -3.183 LR: -12.634 RR:   0.000 FEB:  -7.861
USER: RMSD 5.358496
USER: SEED 21
USER: STATUS no improvement in best in 5 clusters for 5 generations
USER: GENES 18
USER: genes 0 Translation |==|  0.46282 0.46120 0.52510
USER: genes 1 Rotation |==|  0.57120 0.49265 0.43940 0.99113
USER: genes 2 Torsion [C]-N--CA-[C] |==|  0.62397
USER: genes 3 Torsion [N]-CA--C-[N] |==|  0.32451
USER: genes 4 Torsion [C]-N--CA-[C] |==|  0.13497
USER: genes 5 Torsion [N]-CA--C-[O] |==|  0.13379
USER: genes 6 Torsion [N]-CA--CB-[CG] |==|  0.66005
USER: genes 7 Torsion [CA]-CB--CG-[CD1] |==|  0.72997
USER: genes 8 Torsion [N]-CA--CB-[CG] |==|  0.85649
USER: genes 9 Torsion [CA]-CB--CG-[OD1] |==|  0.82389
USER: genes 10 Torsion [N]-C--CA-[N] |==|  0.91176
USER: genes 11 Torsion [C]-CA--N-[C] |==|  0.76547
USER: genes 12 Torsion [N]-C--CA-[N] |==|  0.22184
USER: genes 13 Torsion [C]-CA--CB-[OG] |==|  0.52979
USER: genes 14 Torsion [CA]-CB--OG-[HG] |==|  0.86038
USER: genes 15 Torsion [C]-CA--N-[C] |==|  0.76953
USER: genes 16 Torsion [C]-CA--CB-[CG] |==|  0.58581
USER: genes 17 Torsion [CA]-CB--CG-[CD2] |==|  0.74624
ROOT
ATOM      1  C   LEU I   2       3.247   2.841  10.974  1.00 17.40 LIG 0.24  C 
ATOM      2 O    LEU I   2       3.148   3.525  11.975  1.00 17.46 LIG-0.27  OA
ATOM      3  N   ASN I   3       2.897   1.570  10.903  1.00 16.24 LIG-0.35  N 
ATOM      4 H    ASN I   3       3.042   1.072  10.217  1.00 16.24 LIG 0.16  HD
ENDROOT
BRANCH 3 5
ATOM      5  CA  ASN I   3       2.232   0.901  11.990  1.00 15.86 LIG 0.18  C 
BRANCH 5 6
ATOM      6  C   ASN I   3       2.862  -0.460  12.211  1.00 15.05 LIG 0.24  C 
ATOM      7  N   PHE I   4       3.447  -0.619  13.405  1.00 14.49 LIG-0.34  N 
ATOM      8 H    PHE I   4       3.483  -0.002  14.002  1.00 14.49 LIG 0.16  HD
ATOM      9 O    ASN I   3       2.830  -1.322  11.299  1.00 16.10 LIG-0.27  OA
BRANCH 7 10
ATOM     10  CA  PHE I   4       4.085  -1.871  13.804  1.00 12.92 LIG 0.19  C 
BRANCH 10 11
ATOM     11  C   PHE I   4       4.998  -2.324  12.692  1.00 14.32 LIG 0.20  C 
ATOM     12 OXT  PHE I   4       4.847  -3.457  12.259  1.00 16.91 LIG-0.65  OA
ATOM     13 O    PHE I   4       5.793  -1.539  12.171  1.00 15.04 LIG-0.65  OA
ENDBRANCH 10 11
BRANCH 10 14
ATOM     14  CB  PHE I   4       3.026  -2.922  14.084  1.00 13.46 LIG 0.07  C 
BRANCH 14 15
ATOM     15  CG  PHE I   4       3.157  -3.447  15.492  1.00 17.43 LIG-0.06  A 
ATOM     16  CD1 PHE I   4       3.850  -4.643  15.722  1.00 19.70 LIG 0.01  A 
ATOM     17  CE1 PHE I   4       3.991  -5.115  17.015  1.00 18.46 LIG 0.00  A 
ATOM     18  CZ  PHE I   4       3.445  -4.402  18.076  1.00 20.27 LIG 0.00  A 
ATOM     19  CE2 PHE I   4       2.755  -3.212  17.858  1.00 19.92 LIG 0.00  A 
ATOM     20  CD2 PHE I   4       2.604  -2.726  16.558  1.00 19.48 LIG 0.01  A 
ENDBRANCH 14 15
ENDBRANCH 10 14
ENDBRANCH 7 10
ENDBRANCH 5 6
BRANCH 5 21
ATOM     21  CB  ASN I   3       0.760   0.763  11.635  1.00 15.02 LIG 0.14  C 
BRANCH 21 22
ATOM     22  CG  ASN I   3       0.210   2.128  11.224  1.00 21.09 LIG 0.22  C 
ATOM     23  ND2 ASN I   3      -0.125   2.348   9.962  1.00 19.37 LIG-0.37  N 
ATOM     24 22HD ASN I   3      -0.103   1.704   9.393  1.00 19.37 LIG 0.16  HD
ATOM     25 21HD ASN I   3      -0.364   3.135   9.712  1.00 19.37 LIG 0.16  HD
ATOM     26 OD1  ASN I   3       0.165   3.076  12.004  1.00 22.58 LIG-0.27  OA
ENDBRANCH 21 22
ENDBRANCH 5 21
ENDBRANCH 3 5
BRANCH 1 27
ATOM     27  CA  LEU I   2       3.730   3.471   9.734  1.00 19.34 LIG 0.18  C 
BRANCH 27 28
ATOM     28  N   LEU I   2       4.384   2.404   9.011  1.00 20.62 LIG-0.35  N 
ATOM     29 H    LEU I   2       3.903   2.003   8.421  1.00 20.62 LIG 0.16  HD
ATOM     30  C   SER I   1       5.650   2.117   9.295  1.00 28.29 LIG 0.24  C 
ATOM     31 O    SER I   1       6.274   2.686  10.219  1.00 21.19 LIG-0.27  OA
BRANCH 30 32
ATOM     32  CA  SER I   1       6.282   1.089   8.362  1.00 32.71 LIG 0.20  C 
BRANCH 32 33
ATOM     33  CB  SER I   1       7.472   0.510   9.072  1.00 35.86 LIG 0.20  C 
BRANCH 33 34
ATOM     34 OG   SER I   1       8.022  -0.176   7.982  1.00 39.84 LIG-0.40  OA
ATOM     35 HG   SER I   1       7.427  -0.642   7.616  1.00 39.84 LIG 0.21  HD
ENDBRANCH 33 34
ENDBRANCH 32 33
BRANCH 32 36
ATOM     36  N   SER I   1       6.614   1.907   7.201  1.00 41.50 LIG-0.35  N 
ATOM     37  C   ACE I   0       5.857   2.303   6.159  1.00 42.61 LIG 0.21  C 
ATOM     38 O    ACE I   0       4.651   2.098   6.009  0.00 41.61 LIG-0.27  OA
ATOM     39  CH3 ACE I   0       6.629   3.127   5.140  0.00 41.50 LIG 0.12  C 
ATOM     40 H    SER I   1       7.439   2.149   7.237  1.00 41.50 LIG 0.16  HD
ENDBRANCH 32 36
ENDBRANCH 30 32
ENDBRANCH 27 28
BRANCH 27 41
ATOM     41  CB  LEU I   2       2.580   4.024   8.965  1.00 22.58 LIG 0.04  C 
BRANCH 41 42
ATOM     42  CG  LEU I   2       2.872   3.975   7.460  1.00 27.49 LIG-0.02  C 
ATOM     43  CD2 LEU I   2       3.530   5.279   6.982  1.00 25.10 LIG 0.01  C 
ATOM     44  CD1 LEU I   2       1.575   3.660   6.746  1.00 31.16 LIG 0.01  C 
ENDBRANCH 41 42
ENDBRANCH 27 41
ENDBRANCH 1 27
TORSDOF 16
ENDMDL
MODEL 10
USER: ADFR SOLUTION from run 57
USER: SCORE 15.336126 LL:  -3.819 LR: -12.618 RR:   0.000 FEB:  -7.846
USER: RMSD 4.143554
USER: SEED 56
USER: STATUS no improvement in best in 4 clusters for 5 generations
USER: GENES 18
USER: genes 0 Translation |==|  0.43760 0.47632 0.51895
USER: genes 1 Rotation |==|  0.59961 0.60061 0.43056 0.97448
USER: genes 2 Torsion [C]-N--CA-[C] |==|  0.65411
USER: genes 3 Torsion [N]-CA--C-[N] |==|  0.28071
USER: genes 4 Torsion [C]-N--CA-[C] |==|  0.85384
USER: genes 5 Torsion [N]-CA--C-[O] |==|  0.93045
USER: genes 6 Torsion [N]-CA--CB-[CG] |==|  0.78072
USER: genes 7 Torsion [CA]-CB--CG-[CD1] |==|  0.84874
USER: genes 8 Torsion [N]-CA--CB-[CG] |==|  0.87339
USER: genes 9 Torsion [CA]-CB--CG-[OD1] |==|  0.81621
USER: genes 10 Torsion [N]-C--CA-[N] |==|  0.66652
USER: genes 11 Torsion [C]-CA--N-[C] |==|  0.17269
USER: genes 12 Torsion [N]-C--CA-[N] |==|  0.14999
USER: genes 13 Torsion [C]-CA--CB-[OG] |==|  0.41975
USER: genes 14 Torsion [CA]-CB--OG-[HG] |==|  0.71258
USER: genes 15 Torsion [C]-CA--N-[C] |==|  0.14268
USER: genes 16 Torsion [C]-CA--CB-[CG] |==|  0.47406
USER: genes 17 Torsion [CA]-CB--CG-[CD2] |==|  0.70608
ROOT
ATOM      1  C   LEU I   2       2.812   3.102  10.850  1.00 17.40 LIG 0.24  C 
ATOM      2 O    LEU I   2       3.139   3.605  11.908  1.00 17.46 LIG-0.27  OA
ATOM      3  N   ASN I   3       2.442   1.842  10.706  1.00 16.24 LIG-0.35  N 
ATOM      4 H    ASN I   3       2.288   1.473   9.944  1.00 16.24 LIG 0.16  HD
ENDROOT
BRANCH 3 5
ATOM      5  CA  ASN I   3       2.265   0.967  11.833  1.00 15.86 LIG 0.18  C 
BRANCH 5 6
ATOM      6  C   ASN I   3       3.126  -0.268  11.660  1.00 15.05 LIG 0.24  C 
ATOM      7  N   PHE I   4       4.265  -0.261  12.365  1.00 14.49 LIG-0.34  N 
ATOM      8 H    PHE I   4       4.507   0.393  12.869  1.00 14.49 LIG 0.16  HD
ATOM      9 O    ASN I   3       2.763  -1.182  10.881  1.00 16.10 LIG-0.27  OA
BRANCH 7 10
ATOM     10  CA  PHE I   4       5.209  -1.374  12.341  1.00 12.92 LIG 0.19  C 
BRANCH 10 11
ATOM     11  C   PHE I   4       4.464  -2.646  12.660  1.00 14.32 LIG 0.20  C 
ATOM     12 OXT  PHE I   4       4.985  -3.705  12.341  1.00 16.91 LIG-0.65  OA
ATOM     13 O    PHE I   4       3.420  -2.617  13.315  1.00 15.04 LIG-0.65  OA
ENDBRANCH 10 11
BRANCH 10 14
ATOM     14  CB  PHE I   4       6.313  -1.136  13.356  1.00 13.46 LIG 0.07  C 
BRANCH 14 15
ATOM     15  CG  PHE I   4       7.331  -0.163  12.816  1.00 17.43 LIG-0.06  A 
ATOM     16  CD1 PHE I   4       7.945  -0.420  11.582  1.00 19.70 LIG 0.01  A 
ATOM     17  CE1 PHE I   4       8.863   0.482  11.073  1.00 18.46 LIG 0.00  A 
ATOM     18  CZ  PHE I   4       9.171   1.633  11.787  1.00 20.27 LIG 0.00  A 
ATOM     19  CE2 PHE I   4       8.567   1.898  13.014  1.00 19.92 LIG 0.00  A 
ATOM     20  CD2 PHE I   4       7.640   0.996  13.539  1.00 19.48 LIG 0.01  A 
ENDBRANCH 14 15
ENDBRANCH 10 14
ENDBRANCH 7 10
ENDBRANCH 5 6
BRANCH 5 21
ATOM     21  CB  ASN I   3       0.793   0.591  11.918  1.00 15.02 LIG 0.14  C 
BRANCH 21 22
ATOM     22  CG  ASN I   3      -0.058   1.845  11.736  1.00 21.09 LIG 0.22  C 
ATOM     23  ND2 ASN I   3      -0.736   2.023  10.613  1.00 19.37 LIG-0.37  N 
ATOM     24 22HD ASN I   3      -0.755   1.401  10.020  1.00 19.37 LIG 0.16  HD
ATOM     25 21HD ASN I   3      -1.157   2.760  10.477  1.00 19.37 LIG 0.16  HD
ATOM     26 OD1  ASN I   3      -0.058   2.760  12.557  1.00 22.58 LIG-0.27  OA
ENDBRANCH 21 22
ENDBRANCH 5 21
ENDBRANCH 3 5
BRANCH 1 27
ATOM     27  CA  LEU I   2       2.760   3.954   9.650  1.00 19.34 LIG 0.18  C 
BRANCH 27 28
ATOM     28  N   LEU I   2       4.121   4.405   9.463  1.00 20.62 LIG-0.35  N 
ATOM     29 H    LEU I   2       4.243   5.255   9.516  1.00 20.62 LIG 0.16  HD
ATOM     30  C   SER I   1       5.070   3.505   9.227  1.00 28.29 LIG 0.24  C 
ATOM     31 O    SER I   1       4.817   2.288   9.086  1.00 21.19 LIG-0.27  OA
BRANCH 30 32
ATOM     32  CA  SER I   1       6.483   4.078   9.210  1.00 32.71 LIG 0.20  C 
BRANCH 32 33
ATOM     33  CB  SER I   1       7.434   2.924   9.073  1.00 35.86 LIG 0.20  C 
BRANCH 33 34
ATOM     34 OG   SER I   1       8.460   3.606   8.408  1.00 39.84 LIG-0.40  OA
ATOM     35 HG   SER I   1       8.447   3.406   7.592  1.00 39.84 LIG 0.21  HD
ENDBRANCH 33 34
ENDBRANCH 32 33
BRANCH 32 36
ATOM     36  N   SER I   1       6.545   4.758  10.499  1.00 41.50 LIG-0.35  N 
ATOM     37  C   ACE I   0       6.259   4.316  11.740  1.00 42.61 LIG 0.21  C 
ATOM     38 O    ACE I   0       5.938   3.168  12.053  0.00 41.61 LIG-0.27  OA
ATOM     39  CH3 ACE I   0       6.430   5.385  12.807  0.00 41.50 LIG 0.12  C 
ATOM     40 H    SER I   1       6.813   5.568  10.393  1.00 41.50 LIG 0.16  HD
ENDBRANCH 32 36
ENDBRANCH 30 32
ENDBRANCH 27 28
BRANCH 27 41
ATOM     41  CB  LEU I   2       2.285   3.160   8.483  1.00 22.58 LIG 0.04  C 
BRANCH 41 42
ATOM     42  CG  LEU I   2       2.006   4.081   7.289  1.00 27.49 LIG-0.02  C 
ATOM     43  CD2 LEU I   2       0.495   4.260   7.070  1.00 25.10 LIG 0.01  C 
ATOM     44  CD1 LEU I   2       2.723   3.510   6.085  1.00 31.16 LIG 0.01  C 
ENDBRANCH 41 42
ENDBRANCH 27 41
ENDBRANCH 1 27
TORSDOF 16
ENDMDL
