MODEL 1
USER: ADFR SOLUTION from run 52
USER: SCORE 17.740643 LL:  -3.382 LR: -15.434 RR:   0.000 FEB:  -9.767
USER: RMSD 2.402404
USER: SEED 51
USER: STATUS no improvement in best in 6 clusters for 5 generations
USER: GENES 21
USER: genes 0 Translation |==|  0.63616 0.56257 0.62172
USER: genes 1 Rotation |==|  0.47822 0.57388 0.48677 0.99385
USER: genes 2 Torsion [C]-N--CA-[C] |==|  0.67407
USER: genes 3 Torsion [N]-CA--C-[N] |==|  0.59091
USER: genes 4 Torsion [C]-N--CA-[CB] |==|  0.28075
USER: genes 5 Torsion [N]-CA--CB-[CG] |==|  0.80268
USER: genes 6 Torsion [CA]-CB--CG-[CD] |==|  0.40257
USER: genes 7 Torsion [CB]-CG--CD-[CE] |==|  0.79777
USER: genes 8 Torsion [CG]-CD--CE-[NZ] |==|  0.78141
USER: genes 9 Torsion [CD]-CE--NZ-[HZ3] |==|  0.85356
USER: genes 10 Torsion [N]-CA--C-[OXT] |==|  0.56919
USER: genes 11 Torsion [N]-CA--CB-[CG] |==|  0.86881
USER: genes 12 Torsion [CA]-CB--CG-[CD] |==|  0.62437
USER: genes 13 Torsion [CB]-CG--CD-[OE1] |==|  0.98314
USER: genes 14 Torsion [N]-C--CA-[N] |==|  0.33312
USER: genes 15 Torsion [C]-CA--CB-[CG] |==|  0.31238
USER: genes 16 Torsion [CA]-CB--CG-[CD2] |==|  0.53588
USER: genes 17 Torsion [C]-CA--N-[C] |==|  0.56861
USER: genes 18 Torsion [N]-C--CA-[N] |==|  0.31431
USER: genes 19 Torsion [C]-CA--CB-[CG] |==|  0.16939
USER: genes 20 Torsion [CA]-CB--CG-[CD2] |==|  0.61948
ROOT
ATOM      1  C   LEU I 102     -20.662  -3.941  -4.086  0.50 11.09 LIG 0.24  C 
ATOM      2 O    LEU I 102     -19.602  -4.498  -4.382  0.50  6.75 LIG-0.27  OA
ATOM      3  N   GLU I 103     -21.823  -4.562  -4.196  0.50 13.38 LIG-0.35  N 
ATOM      4 H    GLU I 103     -22.567  -4.242  -3.905  0.50 13.38 LIG 0.16  HD
ENDROOT
BRANCH 3 5
ATOM      5  CA  GLU I 103     -21.936  -5.865  -4.832  0.50 18.34 LIG 0.18  C 
BRANCH 5 6
ATOM      6  C   GLU I 103     -22.819  -5.766  -6.067  0.50 17.37 LIG 0.24  C 
ATOM      7  N   LYS I 104     -23.532  -6.844  -6.328  0.50 22.43 LIG-0.34  N 
ATOM      8 H    LYS I 104     -23.507  -7.549  -5.837  0.50 22.43 LIG 0.16  HD
ATOM      9 O    GLU I 103     -22.829  -4.742  -6.748  0.50 19.80 LIG-0.27  OA
BRANCH 7 10
ATOM     10  CA  LYS I 104     -24.426  -6.959  -7.458  0.50 29.15 LIG 0.18  C 
BRANCH 10 11
ATOM     11  CB  LYS I 104     -23.812  -7.744  -8.576  0.50 30.49 LIG 0.04  C 
BRANCH 11 12
ATOM     12  CG  LYS I 104     -22.697  -7.124  -9.353  0.50 30.90 LIG 0.00  C 
BRANCH 12 13
ATOM     13  CD  LYS I 104     -21.826  -8.319  -9.659  0.50 30.43 LIG 0.03  C 
BRANCH 13 14
ATOM     14  CE  LYS I 104     -21.184  -8.662  -8.363  0.50 34.48 LIG 0.23  C 
BRANCH 14 15
ATOM     15  NZ  LYS I 104     -20.108  -7.739  -8.165  0.50 39.75 LIG-0.08  N 
ATOM     16 HZ3  LYS I 104     -19.581  -7.739  -8.882  0.50 39.75 LIG 0.27  HD
ATOM     17 HZ2  LYS I 104     -19.636  -7.982  -7.450  0.50 39.75 LIG 0.27  HD
ATOM     18 HZ1  LYS I 104     -20.438  -6.922  -8.039  0.50 39.75 LIG 0.27  HD
ENDBRANCH 14 15
ENDBRANCH 13 14
ENDBRANCH 12 13
ENDBRANCH 11 12
ENDBRANCH 10 11
BRANCH 10 19
ATOM     19  C   LYS I 104     -25.639  -7.739  -6.993  0.50 31.87 LIG 0.20  C 
ATOM     20 OXT  LYS I 104     -26.287  -8.351  -7.843  0.50 33.47 LIG-0.65  OA
ATOM     21 O    LYS I 104     -25.892  -7.739  -5.778  0.50 36.52 LIG-0.65  OA
ENDBRANCH 10 19
ENDBRANCH 7 10
ENDBRANCH 5 6
BRANCH 5 22
ATOM     22  CB  GLU I 103     -22.534  -6.881  -3.891  0.50 17.76 LIG 0.04  C 
BRANCH 22 23
ATOM     23  CG  GLU I 103     -21.849  -6.791  -2.566  0.50 22.90 LIG 0.12  C 
BRANCH 23 24
ATOM     24  CD  GLU I 103     -21.478  -8.116  -1.962  0.50 27.65 LIG 0.17  C 
ATOM     25 OE1  GLU I 103     -21.836  -9.172  -2.496  0.50 28.22 LIG-0.65  OA
ATOM     26 OE2  GLU I 103     -20.803  -8.062  -0.940  0.50 31.39 LIG-0.65  OA
ENDBRANCH 23 24
ENDBRANCH 22 23
ENDBRANCH 5 22
ENDBRANCH 3 5
BRANCH 1 27
ATOM     27  CA  LEU I 102     -20.599  -2.519  -3.565  0.50 14.84 LIG 0.18  C 
BRANCH 27 28
ATOM     28  CB  LEU I 102     -19.977  -1.720  -4.672  0.50 17.78 LIG 0.04  C 
BRANCH 28 29
ATOM     29  CG  LEU I 102     -20.776  -0.688  -5.419  0.50 23.00 LIG-0.02  C 
ATOM     30  CD2 LEU I 102     -19.989  -0.299  -6.653  0.50 23.20 LIG 0.01  C 
ATOM     31  CD1 LEU I 102     -21.037   0.533  -4.549  0.50 25.90 LIG 0.01  C 
ENDBRANCH 28 29
ENDBRANCH 27 28
BRANCH 27 32
ATOM     32  N   LEU I 102     -19.765  -2.578  -2.363  0.50 17.71 LIG-0.35  N 
ATOM     33 H    LEU I 102     -19.228  -3.250  -2.381  0.50 17.71 LIG 0.16  HD
ATOM     34  C   PHE I 101     -19.778  -1.732  -1.326  0.50 15.00 LIG 0.26  C 
ATOM     35 O    PHE I 101     -20.395  -0.672  -1.243  0.50 13.40 LIG-0.27  OA
BRANCH 34 36
ATOM     36  CA  PHE I 101     -18.825  -2.074  -0.195  0.50 16.66 LIG 0.40  C 
ATOM     37  N   PHE I 101     -17.879  -0.984  -0.257  0.50 14.66 LIG 0.61  N 
BRANCH 36 38
ATOM     38  CB  PHE I 101     -19.598  -2.104   1.128  0.50 13.93 LIG 0.09  C 
BRANCH 38 39
ATOM     39  CG  PHE I 101     -20.700  -3.161   1.122  0.50 13.79 LIG-0.06  A 
ATOM     40  CD2 PHE I 101     -21.951  -2.853   1.646  0.50 13.65 LIG 0.01  A 
ATOM     41  CE2 PHE I 101     -22.998  -3.771   1.552  0.50 14.96 LIG 0.00  A 
ATOM     42  CZ  PHE I 101     -22.783  -4.994   0.938  0.50 12.06 LIG 0.00  A 
ATOM     43  CE1 PHE I 101     -21.533  -5.308   0.425  0.50 11.76 LIG 0.00  A 
ATOM     44  CD1 PHE I 101     -20.487  -4.395   0.516  0.50 13.16 LIG 0.01  A 
ENDBRANCH 38 39
ENDBRANCH 36 38
ENDBRANCH 34 36
ENDBRANCH 27 32
ENDBRANCH 1 27
TORSDOF 19
ENDMDL
MODEL 2
USER: ADFR SOLUTION from run 72
USER: SCORE 16.653015 LL:  -2.747 LR: -14.539 RR:   0.000 FEB:  -8.871
USER: RMSD 1.877404
USER: SEED 71
USER: STATUS no improvement in best in 2 clusters for 5 generations
USER: GENES 21
USER: genes 0 Translation |==|  0.64688 0.57298 0.61170
USER: genes 1 Rotation |==|  0.52926 0.50410 0.51311 0.99895
USER: genes 2 Torsion [C]-N--CA-[C] |==|  0.55924
USER: genes 3 Torsion [N]-CA--C-[N] |==|  0.40570
USER: genes 4 Torsion [C]-N--CA-[CB] |==|  0.50407
USER: genes 5 Torsion [N]-CA--CB-[CG] |==|  0.65511
USER: genes 6 Torsion [CA]-CB--CG-[CD] |==|  0.42939
USER: genes 7 Torsion [CB]-CG--CD-[CE] |==|  0.45164
USER: genes 8 Torsion [CG]-CD--CE-[NZ] |==|  0.46278
USER: genes 9 Torsion [CD]-CE--NZ-[HZ3] |==|  0.65443
USER: genes 10 Torsion [N]-CA--C-[OXT] |==|  0.22588
USER: genes 11 Torsion [N]-CA--CB-[CG] |==|  0.11220
USER: genes 12 Torsion [CA]-CB--CG-[CD] |==|  0.55972
USER: genes 13 Torsion [CB]-CG--CD-[OE1] |==|  0.26296
USER: genes 14 Torsion [N]-C--CA-[N] |==|  0.39061
USER: genes 15 Torsion [C]-CA--CB-[CG] |==|  0.10002
USER: genes 16 Torsion [CA]-CB--CG-[CD2] |==|  0.53594
USER: genes 17 Torsion [C]-CA--N-[C] |==|  0.54444
USER: genes 18 Torsion [N]-C--CA-[N] |==|  0.30030
USER: genes 19 Torsion [C]-CA--CB-[CG] |==|  0.14704
USER: genes 20 Torsion [CA]-CB--CG-[CD2] |==|  0.62646
ROOT
ATOM      1  C   LEU I 102     -20.509  -3.746  -4.326  0.50 11.09 LIG 0.24  C 
ATOM      2 O    LEU I 102     -19.352  -4.165  -4.412  0.50  6.75 LIG-0.27  OA
ATOM      3  N   GLU I 103     -21.520  -4.391  -4.881  0.50 13.38 LIG-0.35  N 
ATOM      4 H    GLU I 103     -22.346  -4.185  -4.757  0.50 13.38 LIG 0.16  HD
ENDROOT
BRANCH 3 5
ATOM      5  CA  GLU I 103     -21.310  -5.527  -5.764  0.50 18.34 LIG 0.18  C 
BRANCH 5 6
ATOM      6  C   GLU I 103     -22.532  -5.734  -6.645  0.50 17.37 LIG 0.24  C 
ATOM      7  N   LYS I 104     -22.274  -6.178  -7.859  0.50 22.43 LIG-0.34  N 
ATOM      8 H    LYS I 104     -21.477  -6.345  -8.134  0.50 22.43 LIG 0.16  HD
ATOM      9 O    GLU I 103     -23.660  -5.485  -6.220  0.50 19.80 LIG-0.27  OA
BRANCH 7 10
ATOM     10  CA  LYS I 104     -23.292  -6.433  -8.853  0.50 29.15 LIG 0.18  C 
BRANCH 10 11
ATOM     11  CB  LYS I 104     -22.707  -6.965 -10.126  0.50 30.49 LIG 0.04  C 
BRANCH 11 12
ATOM     12  CG  LYS I 104     -22.992  -6.238 -11.399  0.50 30.90 LIG 0.00  C 
BRANCH 12 13
ATOM     13  CD  LYS I 104     -21.804  -6.620 -12.250  0.50 30.43 LIG 0.03  C 
BRANCH 13 14
ATOM     14  CE  LYS I 104     -22.217  -6.302 -13.642  0.50 34.48 LIG 0.23  C 
BRANCH 14 15
ATOM     15  NZ  LYS I 104     -21.039  -6.341 -14.454  0.50 39.75 LIG-0.08  N 
ATOM     16 HZ3  LYS I 104     -20.948  -5.566 -14.882  0.50 39.75 LIG 0.27  HD
ATOM     17 HZ2  LYS I 104     -21.109  -7.001 -15.048  0.50 39.75 LIG 0.27  HD
ATOM     18 HZ1  LYS I 104     -20.327  -6.481 -13.938  0.50 39.75 LIG 0.27  HD
ENDBRANCH 14 15
ENDBRANCH 13 14
ENDBRANCH 12 13
ENDBRANCH 11 12
ENDBRANCH 10 11
BRANCH 10 19
ATOM     19  C   LYS I 104     -24.196  -7.518  -8.303  0.50 31.87 LIG 0.20  C 
ATOM     20 OXT  LYS I 104     -25.075  -7.182  -7.508  0.50 33.47 LIG-0.65  OA
ATOM     21 O    LYS I 104     -24.016  -8.677  -8.708  0.50 36.52 LIG-0.65  OA
ENDBRANCH 10 19
ENDBRANCH 7 10
ENDBRANCH 5 6
BRANCH 5 22
ATOM     22  CB  GLU I 103     -21.061  -6.790  -4.979  0.50 17.76 LIG 0.04  C 
BRANCH 22 23
ATOM     23  CG  GLU I 103     -21.975  -6.826  -3.796  0.50 22.90 LIG 0.12  C 
BRANCH 23 24
ATOM     24  CD  GLU I 103     -21.516  -7.721  -2.679  0.50 27.65 LIG 0.17  C 
ATOM     25 OE1  GLU I 103     -20.866  -7.263  -1.734  0.50 28.22 LIG-0.65  OA
ATOM     26 OE2  GLU I 103     -21.843  -8.899  -2.777  0.50 31.39 LIG-0.65  OA
ENDBRANCH 23 24
ENDBRANCH 22 23
ENDBRANCH 5 22
ENDBRANCH 3 5
BRANCH 1 27
ATOM     27  CA  LEU I 102     -20.751  -2.471  -3.542  0.50 14.84 LIG 0.18  C 
BRANCH 27 28
ATOM     28  CB  LEU I 102     -20.411  -1.356  -4.487  0.50 17.78 LIG 0.04  C 
BRANCH 28 29
ATOM     29  CG  LEU I 102     -20.720  -1.470  -5.954  0.50 23.00 LIG-0.02  C 
ATOM     30  CD2 LEU I 102     -19.982  -0.357  -6.668  0.50 23.20 LIG 0.01  C 
ATOM     31  CD1 LEU I 102     -22.215  -1.362  -6.206  0.50 25.90 LIG 0.01  C 
ENDBRANCH 28 29
ENDBRANCH 27 28
BRANCH 27 32
ATOM     32  N   LEU I 102     -19.848  -2.542  -2.392  0.50 17.71 LIG-0.35  N 
ATOM     33 H    LEU I 102     -19.236  -3.137  -2.503  0.50 17.71 LIG 0.16  HD
ATOM     34  C   PHE I 101     -19.903  -1.809  -1.273  0.50 15.00 LIG 0.26  C 
ATOM     35 O    PHE I 101     -20.637  -0.847  -1.053  0.50 13.40 LIG-0.27  OA
BRANCH 34 36
ATOM     36  CA  PHE I 101     -18.852  -2.137  -0.227  0.50 16.66 LIG 0.40  C 
ATOM     37  N   PHE I 101     -17.979  -0.989  -0.306  0.50 14.66 LIG 0.61  N 
BRANCH 36 38
ATOM     38  CB  PHE I 101     -19.525  -2.268   1.144  0.50 13.93 LIG 0.09  C 
BRANCH 38 39
ATOM     39  CG  PHE I 101     -20.693  -3.251   1.115  0.50 13.79 LIG-0.06  A 
ATOM     40  CD2 PHE I 101     -21.895  -2.907   1.724  0.50 13.65 LIG 0.01  A 
ATOM     41  CE2 PHE I 101     -23.003  -3.748   1.616  0.50 14.96 LIG 0.00  A 
ATOM     42  CZ  PHE I 101     -22.899  -4.931   0.903  0.50 12.06 LIG 0.00  A 
ATOM     43  CE1 PHE I 101     -21.697  -5.281   0.304  0.50 11.76 LIG 0.00  A 
ATOM     44  CD1 PHE I 101     -20.591  -4.445   0.409  0.50 13.16 LIG 0.01  A 
ENDBRANCH 38 39
ENDBRANCH 36 38
ENDBRANCH 34 36
ENDBRANCH 27 32
ENDBRANCH 1 27
TORSDOF 19
ENDMDL
MODEL 3
USER: ADFR SOLUTION from run 159
USER: SCORE 16.959291 LL:  -3.765 LR: -13.675 RR:   0.000 FEB:  -8.007
USER: RMSD 3.137019
USER: SEED 158
USER: STATUS no improvement in best in 6 clusters for 5 generations
USER: GENES 21
USER: genes 0 Translation |==|  0.62104 0.52099 0.60156
USER: genes 1 Rotation |==|  0.49738 0.60384 0.51988 0.98869
USER: genes 2 Torsion [C]-N--CA-[C] |==|  0.63222
USER: genes 3 Torsion [N]-CA--C-[N] |==|  0.34412
USER: genes 4 Torsion [C]-N--CA-[CB] |==|  0.53648
USER: genes 5 Torsion [N]-CA--CB-[CG] |==|  0.97599
USER: genes 6 Torsion [CA]-CB--CG-[CD] |==|  0.20918
USER: genes 7 Torsion [CB]-CG--CD-[CE] |==|  0.51411
USER: genes 8 Torsion [CG]-CD--CE-[NZ] |==|  0.17679
USER: genes 9 Torsion [CD]-CE--NZ-[HZ3] |==|  0.62044
USER: genes 10 Torsion [N]-CA--C-[OXT] |==|  0.78145
USER: genes 11 Torsion [N]-CA--CB-[CG] |==|  0.05258
USER: genes 12 Torsion [CA]-CB--CG-[CD] |==|  0.64137
USER: genes 13 Torsion [CB]-CG--CD-[OE1] |==|  0.30778
USER: genes 14 Torsion [N]-C--CA-[N] |==|  0.26579
USER: genes 15 Torsion [C]-CA--CB-[CG] |==|  0.29783
USER: genes 16 Torsion [CA]-CB--CG-[CD2] |==|  0.03146
USER: genes 17 Torsion [C]-CA--N-[C] |==|  0.77564
USER: genes 18 Torsion [N]-C--CA-[N] |==|  0.85007
USER: genes 19 Torsion [C]-CA--CB-[CG] |==|  0.09970
USER: genes 20 Torsion [CA]-CB--CG-[CD2] |==|  0.74293
ROOT
ATOM      1  C   LEU I 102     -20.877  -4.720  -4.570  0.50 11.09 LIG 0.24  C 
ATOM      2 O    LEU I 102     -19.811  -5.119  -5.046  0.50  6.75 LIG-0.27  OA
ATOM      3  N   GLU I 103     -21.970  -5.463  -4.605  0.50 13.38 LIG-0.35  N 
ATOM      4 H    GLU I 103     -22.699  -5.262  -4.196  0.50 13.38 LIG 0.16  HD
ENDROOT
BRANCH 3 5
ATOM      5  CA  GLU I 103     -22.025  -6.708  -5.355  0.50 18.34 LIG 0.18  C 
BRANCH 5 6
ATOM      6  C   GLU I 103     -23.290  -6.752  -6.198  0.50 17.37 LIG 0.24  C 
ATOM      7  N   LYS I 104     -23.092  -6.937  -7.488  0.50 22.43 LIG-0.34  N 
ATOM      8 H    LYS I 104     -22.309  -7.031  -7.831  0.50 22.43 LIG 0.16  HD
ATOM      9 O    GLU I 103     -24.395  -6.613  -5.675  0.50 19.80 LIG-0.27  OA
BRANCH 7 10
ATOM     10  CA  LYS I 104     -24.159  -7.001  -8.461  0.50 29.15 LIG 0.18  C 
BRANCH 10 11
ATOM     11  CB  LYS I 104     -23.679  -7.527  -9.779  0.50 30.49 LIG 0.04  C 
BRANCH 11 12
ATOM     12  CG  LYS I 104     -22.211  -7.713  -9.980  0.50 30.90 LIG 0.00  C 
BRANCH 12 13
ATOM     13  CD  LYS I 104     -21.942  -8.964  -9.178  0.50 30.43 LIG 0.03  C 
BRANCH 13 14
ATOM     14  CE  LYS I 104     -20.466  -9.138  -9.231  0.50 34.48 LIG 0.23  C 
BRANCH 14 15
ATOM     15  NZ  LYS I 104     -19.882  -8.012  -8.570  0.50 39.75 LIG-0.08  N 
ATOM     16 HZ3  LYS I 104     -19.188  -7.716  -9.043  0.50 39.75 LIG 0.27  HD
ATOM     17 HZ2  LYS I 104     -19.605  -8.253  -7.759  0.50 39.75 LIG 0.27  HD
ATOM     18 HZ1  LYS I 104     -20.487  -7.363  -8.496  0.50 39.75 LIG 0.27  HD
ENDBRANCH 14 15
ENDBRANCH 13 14
ENDBRANCH 12 13
ENDBRANCH 11 12
ENDBRANCH 10 11
BRANCH 10 19
ATOM     19  C   LYS I 104     -25.181  -7.993  -7.943  0.50 31.87 LIG 0.20  C 
ATOM     20 OXT  LYS I 104     -24.936  -9.193  -8.080  0.50 33.47 LIG-0.65  OA
ATOM     21 O    LYS I 104     -26.192  -7.539  -7.385  0.50 36.52 LIG-0.65  OA
ENDBRANCH 10 19
ENDBRANCH 7 10
ENDBRANCH 5 6
BRANCH 5 22
ATOM     22  CB  GLU I 103     -22.016  -7.901  -4.433  0.50 17.76 LIG 0.04  C 
BRANCH 22 23
ATOM     23  CG  GLU I 103     -22.414  -7.468  -3.059  0.50 22.90 LIG 0.12  C 
BRANCH 23 24
ATOM     24  CD  GLU I 103     -21.478  -7.910  -1.969  0.50 27.65 LIG 0.17  C 
ATOM     25 OE1  GLU I 103     -20.779  -7.086  -1.369  0.50 28.22 LIG-0.65  OA
ATOM     26 OE2  GLU I 103     -21.477  -9.112  -1.727  0.50 31.39 LIG-0.65  OA
ENDBRANCH 23 24
ENDBRANCH 22 23
ENDBRANCH 5 22
ENDBRANCH 3 5
BRANCH 1 27
ATOM     27  CA  LEU I 102     -20.900  -3.354  -3.914  0.50 14.84 LIG 0.18  C 
BRANCH 27 28
ATOM     28  CB  LEU I 102     -19.978  -2.505  -4.740  0.50 17.78 LIG 0.04  C 
BRANCH 28 29
ATOM     29  CG  LEU I 102     -20.523  -1.442  -5.653  0.50 23.00 LIG-0.02  C 
ATOM     30  CD2 LEU I 102     -21.992  -1.264  -5.329  0.50 23.20 LIG 0.01  C 
ATOM     31  CD1 LEU I 102     -20.347  -1.836  -7.112  0.50 25.90 LIG 0.01  C 
ENDBRANCH 28 29
ENDBRANCH 27 28
BRANCH 27 32
ATOM     32  N   LEU I 102     -20.415  -3.566  -2.550  0.50 17.71 LIG-0.35  N 
ATOM     33 H    LEU I 102     -19.584  -3.358  -2.471  0.50 17.71 LIG 0.16  HD
ATOM     34  C   PHE I 101     -21.114  -4.022  -1.503  0.50 15.00 LIG 0.26  C 
ATOM     35 O    PHE I 101     -22.326  -4.223  -1.453  0.50 13.40 LIG-0.27  OA
BRANCH 34 36
ATOM     36  CA  PHE I 101     -20.328  -4.180  -0.214  0.50 16.66 LIG 0.40  C 
ATOM     37  N   PHE I 101     -19.224  -5.012  -0.632  0.50 14.66 LIG 0.61  N 
BRANCH 36 38
ATOM     38  CB  PHE I 101     -19.871  -2.801   0.274  0.50 13.93 LIG 0.09  C 
BRANCH 38 39
ATOM     39  CG  PHE I 101     -20.911  -1.720  -0.011  0.50 13.79 LIG-0.06  A 
ATOM     40  CD2 PHE I 101     -20.834  -0.987  -1.191  0.50 13.65 LIG 0.01  A 
ATOM     41  CE2 PHE I 101     -21.835  -0.071  -1.514  0.50 14.96 LIG 0.00  A 
ATOM     42  CZ  PHE I 101     -22.905   0.109  -0.652  0.50 12.06 LIG 0.00  A 
ATOM     43  CE1 PHE I 101     -22.977  -0.613   0.530  0.50 11.76 LIG 0.00  A 
ATOM     44  CD1 PHE I 101     -21.982  -1.528   0.856  0.50 13.16 LIG 0.01  A 
ENDBRANCH 38 39
ENDBRANCH 36 38
ENDBRANCH 34 36
ENDBRANCH 27 32
ENDBRANCH 1 27
TORSDOF 19
ENDMDL
MODEL 4
USER: ADFR SOLUTION from run 100
USER: SCORE 17.447295 LL:  -4.195 LR: -13.519 RR:   0.000 FEB:  -7.851
USER: RMSD 2.891872
USER: SEED 99
USER: STATUS no improvement in best in 5 clusters for 5 generations
USER: GENES 21
USER: genes 0 Translation |==|  0.61827 0.55436 0.60138
USER: genes 1 Rotation |==|  0.55768 0.55459 0.57938 0.98723
USER: genes 2 Torsion [C]-N--CA-[C] |==|  0.59684
USER: genes 3 Torsion [N]-CA--C-[N] |==|  0.43066
USER: genes 4 Torsion [C]-N--CA-[CB] |==|  0.51091
USER: genes 5 Torsion [N]-CA--CB-[CG] |==|  0.74380
USER: genes 6 Torsion [CA]-CB--CG-[CD] |==|  0.41677
USER: genes 7 Torsion [CB]-CG--CD-[CE] |==|  0.98931
USER: genes 8 Torsion [CG]-CD--CE-[NZ] |==|  0.68651
USER: genes 9 Torsion [CD]-CE--NZ-[HZ3] |==|  0.23394
USER: genes 10 Torsion [N]-CA--C-[OXT] |==|  0.23174
USER: genes 11 Torsion [N]-CA--CB-[CG] |==|  0.17981
USER: genes 12 Torsion [CA]-CB--CG-[CD] |==|  0.59792
USER: genes 13 Torsion [CB]-CG--CD-[OE1] |==|  0.71109
USER: genes 14 Torsion [N]-C--CA-[N] |==|  0.11667
USER: genes 15 Torsion [C]-CA--CB-[CG] |==|  0.43550
USER: genes 16 Torsion [CA]-CB--CG-[CD2] |==|  0.82047
USER: genes 17 Torsion [C]-CA--N-[C] |==|  0.17444
USER: genes 18 Torsion [N]-C--CA-[N] |==|  0.33532
USER: genes 19 Torsion [C]-CA--CB-[CG] |==|  0.12300
USER: genes 20 Torsion [CA]-CB--CG-[CD2] |==|  0.66840
ROOT
ATOM      1  C   LEU I 102     -20.917  -4.095  -4.574  0.50 11.09 LIG 0.24  C 
ATOM      2 O    LEU I 102     -19.733  -4.160  -4.913  0.50  6.75 LIG-0.27  OA
ATOM      3  N   GLU I 103     -21.815  -4.950  -5.031  0.50 13.38 LIG-0.35  N 
ATOM      4 H    GLU I 103     -22.623  -4.998  -4.741  0.50 13.38 LIG 0.16  HD
ENDROOT
BRANCH 3 5
ATOM      5  CA  GLU I 103     -21.498  -5.901  -6.085  0.50 18.34 LIG 0.18  C 
BRANCH 5 6
ATOM      6  C   GLU I 103     -22.712  -6.115  -6.975  0.50 17.37 LIG 0.24  C 
ATOM      7  N   LYS I 104     -22.439  -6.512  -8.202  0.50 22.43 LIG-0.34  N 
ATOM      8 H    LYS I 104     -21.636  -6.647  -8.481  0.50 22.43 LIG 0.16  HD
ATOM      9 O    GLU I 103     -23.846  -5.912  -6.545  0.50 19.80 LIG-0.27  OA
BRANCH 7 10
ATOM     10  CA  LYS I 104     -23.447  -6.764  -9.207  0.50 29.15 LIG 0.18  C 
BRANCH 10 11
ATOM     11  CB  LYS I 104     -22.850  -7.293 -10.474  0.50 30.49 LIG 0.04  C 
BRANCH 11 12
ATOM     12  CG  LYS I 104     -22.474  -6.322 -11.544  0.50 30.90 LIG 0.00  C 
BRANCH 12 13
ATOM     13  CD  LYS I 104     -21.315  -7.024 -12.211  0.50 30.43 LIG 0.03  C 
BRANCH 13 14
ATOM     14  CE  LYS I 104     -21.099  -8.251 -11.402  0.50 34.48 LIG 0.23  C 
BRANCH 14 15
ATOM     15  NZ  LYS I 104     -19.832  -8.114 -10.751  0.50 39.75 LIG-0.08  N 
ATOM     16 HZ3  LYS I 104     -19.932  -7.646 -10.001  0.50 39.75 LIG 0.27  HD
ATOM     17 HZ2  LYS I 104     -19.265  -7.690 -11.291  0.50 39.75 LIG 0.27  HD
ATOM     18 HZ1  LYS I 104     -19.508  -8.920 -10.557  0.50 39.75 LIG 0.27  HD
ENDBRANCH 14 15
ENDBRANCH 13 14
ENDBRANCH 12 13
ENDBRANCH 11 12
ENDBRANCH 10 11
BRANCH 10 19
ATOM     19  C   LYS I 104     -24.357  -7.849  -8.667  0.50 31.87 LIG 0.20  C 
ATOM     20 OXT  LYS I 104     -25.268  -7.510  -7.911  0.50 33.47 LIG-0.65  OA
ATOM     21 O    LYS I 104     -24.148  -9.013  -9.042  0.50 36.52 LIG-0.65  OA
ENDBRANCH 10 19
ENDBRANCH 7 10
ENDBRANCH 5 6
BRANCH 5 22
ATOM     22  CB  GLU I 103     -21.078  -7.231  -5.512  0.50 17.76 LIG 0.04  C 
BRANCH 22 23
ATOM     23  CG  GLU I 103     -22.231  -7.841  -4.781  0.50 22.90 LIG 0.12  C 
BRANCH 23 24
ATOM     24  CD  GLU I 103     -21.852  -8.622  -3.554  0.50 27.65 LIG 0.17  C 
ATOM     25 OE1  GLU I 103     -21.852  -9.857  -3.571  0.50 28.22 LIG-0.65  OA
ATOM     26 OE2  GLU I 103     -21.541  -7.951  -2.576  0.50 31.39 LIG-0.65  OA
ENDBRANCH 23 24
ENDBRANCH 22 23
ENDBRANCH 5 22
ENDBRANCH 3 5
BRANCH 1 27
ATOM     27  CA  LEU I 102     -21.320  -3.013  -3.592  0.50 14.84 LIG 0.18  C 
BRANCH 27 28
ATOM     28  CB  LEU I 102     -20.037  -2.554  -2.962  0.50 17.78 LIG 0.04  C 
BRANCH 28 29
ATOM     29  CG  LEU I 102     -19.930  -1.188  -2.343  0.50 23.00 LIG-0.02  C 
ATOM     30  CD2 LEU I 102     -20.098  -0.166  -3.449  0.50 23.20 LIG 0.01  C 
ATOM     31  CD1 LEU I 102     -18.587  -1.006  -1.654  0.50 25.90 LIG 0.01  C 
ENDBRANCH 28 29
ENDBRANCH 27 28
BRANCH 27 32
ATOM     32  N   LEU I 102     -22.223  -3.663  -2.642  0.50 17.71 LIG-0.35  N 
ATOM     33 H    LEU I 102     -23.013  -3.321  -2.668  0.50 17.71 LIG 0.16  HD
ATOM     34  C   PHE I 101     -21.934  -4.667  -1.806  0.50 15.00 LIG 0.26  C 
ATOM     35 O    PHE I 101     -20.894  -5.324  -1.770  0.50 13.40 LIG-0.27  OA
BRANCH 34 36
ATOM     36  CA  PHE I 101     -23.069  -5.110  -0.900  0.50 16.66 LIG 0.40  C 
ATOM     37  N   PHE I 101     -23.223  -6.499  -1.265  0.50 14.66 LIG 0.61  N 
BRANCH 36 38
ATOM     38  CB  PHE I 101     -22.649  -4.931   0.563  0.50 13.93 LIG 0.09  C 
BRANCH 38 39
ATOM     39  CG  PHE I 101     -21.957  -3.590   0.799  0.50 13.79 LIG-0.06  A 
ATOM     40  CD2 PHE I 101     -20.647  -3.566   1.266  0.50 13.65 LIG 0.01  A 
ATOM     41  CE2 PHE I 101     -19.966  -2.354   1.386  0.50 14.96 LIG 0.00  A 
ATOM     42  CZ  PHE I 101     -20.604  -1.173   1.042  0.50 12.06 LIG 0.00  A 
ATOM     43  CE1 PHE I 101     -21.914  -1.194   0.587  0.50 11.76 LIG 0.00  A 
ATOM     44  CD1 PHE I 101     -22.596  -2.400   0.465  0.50 13.16 LIG 0.01  A 
ENDBRANCH 38 39
ENDBRANCH 36 38
ENDBRANCH 34 36
ENDBRANCH 27 32
ENDBRANCH 1 27
TORSDOF 19
ENDMDL
