MODEL 1
USER: ADFR SOLUTION from run 130
USER: SCORE 12.258076 LL:  -1.220 LR: -11.468 RR:   0.000 FEB:  -8.485
USER: RMSD 4.666962
USER: SEED 129
USER: STATUS no improvement in best in 8 clusters for 5 generations
USER: GENES 12
USER: genes 0 Translation |==|  0.63729 0.50760 0.36921
USER: genes 1 Rotation |==|  0.91290 0.55567 0.77400 0.53655
USER: genes 2 Torsion [C]-CA--N-[C] |==|  0.85434
USER: genes 3 Torsion [N]-C--CA-[N] |==|  0.91393
USER: genes 4 Torsion [C]-CA--N-[H2] |==|  0.85939
USER: genes 5 Torsion [C]-CA--CB-[CG] |==|  0.33712
USER: genes 6 Torsion [CA]-CB--CG-[SD] |==|  0.60151
USER: genes 7 Torsion [CB]-CG--SD-[CE] |==|  0.67016
USER: genes 8 Torsion [N]-CA--CB-[CG] |==|  0.75395
USER: genes 9 Torsion [CA]-CB--CG-[OD1] |==|  0.05321
USER: genes 10 Torsion [N]-CA--C-[N] |==|  0.83908
USER: genes 11 Torsion [N]-CA--C-[O] |==|  0.75713
ROOT
ATOM      1  CA  ASP Y   2      41.898  51.413  35.274  1.00 68.86 LIG 0.19  C 
ENDROOT
BRANCH 1 2
ATOM      2  N   ASP Y   2      40.461  51.575  35.073  1.00 67.90 LIG-0.34  N 
ATOM      3 H    ASP Y   2      40.274  51.828  34.273  1.00 67.90 LIG 0.16  HD
ATOM      4  C   MET Y   1      39.505  51.372  35.978  1.00 66.89 LIG 0.25  C 
ATOM      5 O    MET Y   1      39.705  51.083  37.176  1.00 66.99 LIG-0.27  OA
BRANCH 4 6
ATOM      6  CA  MET Y   1      38.092  51.485  35.376  1.00 65.69 LIG 0.28  C 
BRANCH 6 7
ATOM      7  N   MET Y   1      37.925  52.424  34.236  1.00 65.08 LIG-0.07  N 
ATOM      8 H2   MET Y   1      38.269  53.216  34.451  1.00 65.08 LIG 0.28  HD
ATOM      9 H1   MET Y   1      37.059  52.517  34.053  1.00 65.08 LIG 0.28  HD
ATOM     10 H3   MET Y   1      38.345  52.101  33.522  1.00 65.08 LIG 0.28  HD
ENDBRANCH 6 7
BRANCH 6 11
ATOM     11  CB  MET Y   1      37.558  50.084  35.021  1.00 64.83 LIG 0.05  C 
BRANCH 11 12
ATOM     12  CG  MET Y   1      36.271  49.759  35.734  1.00 63.52 LIG 0.08  C 
BRANCH 12 13
ATOM     13 SD   MET Y   1      36.061  48.064  36.261  1.00 62.62 LIG-0.17  SA
ATOM     14  CE  MET Y   1      34.602  47.631  35.320  1.00 61.34 LIG 0.09  C 
ENDBRANCH 12 13
ENDBRANCH 11 12
ENDBRANCH 6 11
ENDBRANCH 4 6
ENDBRANCH 1 2
BRANCH 1 15
ATOM     15  CB  ASP Y   2      42.601  51.927  34.008  1.00 68.96 LIG 0.15  C 
BRANCH 15 16
ATOM     16  CG  ASP Y   2      42.771  50.832  32.945  1.00 68.92 LIG 0.17  C 
ATOM     17 OD2  ASP Y   2      43.570  50.924  31.985  1.00 65.64 LIG-0.65  OA
ATOM     18 OD1  ASP Y   2      42.052  49.805  33.011  1.00 70.23 LIG-0.65  OA
ENDBRANCH 15 16
ENDBRANCH 1 15
BRANCH 1 19
ATOM     19  C   ASP Y   2      42.400  52.189  36.495  1.00 69.95 LIG 0.24  C 
ATOM     20 O    ASP Y   2      42.944  51.591  37.429  1.00 70.67 LIG-0.27  OA
ATOM     21  N   PRO Y   3      42.190  53.504  36.517  1.00 71.01 LIG-0.34  N 
ATOM     22  CA  PRO Y   3      42.779  54.361  37.569  1.00 71.12 LIG 0.17  C 
ATOM     23  CD  PRO Y   3      41.335  54.250  35.577  1.00 71.07 LIG 0.13  C 
ATOM     24  CB  PRO Y   3      42.431  55.788  37.131  1.00 71.47 LIG 0.04  C 
ATOM     25  CG  PRO Y   3      41.319  55.652  36.111  1.00 71.67 LIG 0.02  C 
BRANCH 22 26
ATOM     26  C   PRO Y   3      42.226  54.091  38.969  1.00 71.77 LIG 0.22  C 
ATOM     27 O    PRO Y   3      41.207  54.677  39.351  1.00 72.45 LIG-0.29  OA
ENDBRANCH 22 26
ENDBRANCH 1 19
TORSDOF 10
ENDMDL
MODEL 2
USER: ADFR SOLUTION from run 41
USER: SCORE 11.211783 LL:  -1.303 LR: -11.189 RR:   0.000 FEB:  -8.206
USER: RMSD 5.107452
USER: SEED 40
USER: STATUS no improvement in best in 8 clusters for 5 generations
USER: GENES 12
USER: genes 0 Translation |==|  0.62601 0.43132 0.36666
USER: genes 1 Rotation |==|  0.10594 0.56308 0.20180 0.54257
USER: genes 2 Torsion [C]-CA--N-[C] |==|  0.92434
USER: genes 3 Torsion [N]-C--CA-[N] |==|  0.93030
USER: genes 4 Torsion [C]-CA--N-[H2] |==|  0.72107
USER: genes 5 Torsion [C]-CA--CB-[CG] |==|  0.17477
USER: genes 6 Torsion [CA]-CB--CG-[SD] |==|  0.53050
USER: genes 7 Torsion [CB]-CG--SD-[CE] |==|  0.75654
USER: genes 8 Torsion [N]-CA--CB-[CG] |==|  0.73271
USER: genes 9 Torsion [CA]-CB--CG-[OD1] |==|  0.11934
USER: genes 10 Torsion [N]-CA--C-[N] |==|  0.25006
USER: genes 11 Torsion [N]-CA--C-[O] |==|  0.46492
ROOT
ATOM      1  CA  ASP Y   2      41.695  50.269  35.236  1.00 68.86 LIG 0.19  C 
ENDROOT
BRANCH 1 2
ATOM      2  N   ASP Y   2      40.359  50.829  35.059  1.00 67.90 LIG-0.34  N 
ATOM      3 H    ASP Y   2      40.267  51.208  34.292  1.00 67.90 LIG 0.16  HD
ATOM      4  C   MET Y   1      39.359  50.792  35.938  1.00 66.89 LIG 0.25  C 
ATOM      5 O    MET Y   1      39.442  50.332  37.096  1.00 66.99 LIG-0.27  OA
BRANCH 4 6
ATOM      6  CA  MET Y   1      38.044  51.342  35.357  1.00 65.69 LIG 0.28  C 
BRANCH 6 7
ATOM      7  N   MET Y   1      38.162  52.311  34.236  1.00 65.08 LIG-0.07  N 
ATOM      8 H2   MET Y   1      38.056  53.138  34.547  1.00 65.08 LIG 0.28  HD
ATOM      9 H1   MET Y   1      37.535  52.140  33.629  1.00 65.08 LIG 0.28  HD
ATOM     10 H3   MET Y   1      38.966  52.235  33.862  1.00 65.08 LIG 0.28  HD
ENDBRANCH 6 7
BRANCH 6 11
ATOM     11  CB  MET Y   1      37.105  50.179  34.985  1.00 64.83 LIG 0.05  C 
BRANCH 11 12
ATOM     12  CG  MET Y   1      36.698  49.359  36.181  1.00 63.52 LIG 0.08  C 
BRANCH 12 13
ATOM     13 SD   MET Y   1      35.864  47.815  35.840  1.00 62.62 LIG-0.17  SA
ATOM     14  CE  MET Y   1      34.174  48.395  35.752  1.00 61.34 LIG 0.09  C 
ENDBRANCH 12 13
ENDBRANCH 11 12
ENDBRANCH 6 11
ENDBRANCH 4 6
ENDBRANCH 1 2
BRANCH 1 15
ATOM     15  CB  ASP Y   2      42.676  51.164  34.464  1.00 68.96 LIG 0.15  C 
BRANCH 15 16
ATOM     16  CG  ASP Y   2      42.987  50.623  33.062  1.00 68.92 LIG 0.17  C 
ATOM     17 OD2  ASP Y   2      44.134  50.637  32.557  1.00 65.64 LIG-0.65  OA
ATOM     18 OD1  ASP Y   2      42.046  50.174  32.361  1.00 70.23 LIG-0.65  OA
ENDBRANCH 15 16
ENDBRANCH 1 15
BRANCH 1 19
ATOM     19  C   ASP Y   2      42.103  50.206  36.710  1.00 69.95 LIG 0.24  C 
ATOM     20 O    ASP Y   2      42.720  51.145  37.224  1.00 70.67 LIG-0.27  OA
ATOM     21  N   PRO Y   3      41.802  49.098  37.386  1.00 71.01 LIG-0.34  N 
ATOM     22  CA  PRO Y   3      42.006  49.008  38.848  1.00 71.12 LIG 0.17  C 
ATOM     23  CD  PRO Y   3      41.302  47.844  36.794  1.00 71.07 LIG 0.13  C 
ATOM     24  CB  PRO Y   3      41.390  47.658  39.231  1.00 71.47 LIG 0.04  C 
ATOM     25  CG  PRO Y   3      41.260  46.877  37.940  1.00 71.67 LIG 0.02  C 
BRANCH 22 26
ATOM     26  C   PRO Y   3      43.474  49.056  39.273  1.00 71.77 LIG 0.22  C 
ATOM     27 O    PRO Y   3      43.764  49.224  40.463  1.00 72.45 LIG-0.29  OA
ENDBRANCH 22 26
ENDBRANCH 1 19
TORSDOF 10
ENDMDL
MODEL 3
USER: ADFR SOLUTION from run 59
USER: SCORE 11.988511 LL:  -1.171 LR: -10.938 RR:   0.000 FEB:  -7.955
USER: RMSD 4.896677
USER: SEED 58
USER: STATUS no improvement in best in 7 clusters for 5 generations
USER: GENES 12
USER: genes 0 Translation |==|  0.63488 0.53563 0.35932
USER: genes 1 Rotation |==|  0.91180 0.60156 0.75339 0.57684
USER: genes 2 Torsion [C]-CA--N-[C] |==|  0.79904
USER: genes 3 Torsion [N]-C--CA-[N] |==|  0.93321
USER: genes 4 Torsion [C]-CA--N-[H2] |==|  0.85648
USER: genes 5 Torsion [C]-CA--CB-[CG] |==|  0.34894
USER: genes 6 Torsion [CA]-CB--CG-[SD] |==|  0.57746
USER: genes 7 Torsion [CB]-CG--SD-[CE] |==|  0.65146
USER: genes 8 Torsion [N]-CA--CB-[CG] |==|  0.73260
USER: genes 9 Torsion [CA]-CB--CG-[OD1] |==|  0.10826
USER: genes 10 Torsion [N]-CA--C-[N] |==|  0.47277
USER: genes 11 Torsion [N]-CA--C-[O] |==|  0.04660
ROOT
ATOM      1  CA  ASP Y   2      41.855  51.833  35.126  1.00 68.86 LIG 0.19  C 
ENDROOT
BRANCH 1 2
ATOM      2  N   ASP Y   2      40.401  51.870  34.990  1.00 67.90 LIG-0.34  N 
ATOM      3 H    ASP Y   2      40.157  52.180  34.226  1.00 67.90 LIG 0.16  HD
ATOM      4  C   MET Y   1      39.509  51.485  35.900  1.00 66.89 LIG 0.25  C 
ATOM      5 O    MET Y   1      39.786  51.101  37.055  1.00 66.99 LIG-0.27  OA
BRANCH 4 6
ATOM      6  CA  MET Y   1      38.067  51.514  35.359  1.00 65.69 LIG 0.28  C 
BRANCH 6 7
ATOM      7  N   MET Y   1      37.801  52.428  34.218  1.00 65.08 LIG-0.07  N 
ATOM      8 H2   MET Y   1      38.097  53.244  34.415  1.00 65.08 LIG 0.28  HD
ATOM      9 H1   MET Y   1      36.925  52.461  34.062  1.00 65.08 LIG 0.28  HD
ATOM     10 H3   MET Y   1      38.219  52.128  33.493  1.00 65.08 LIG 0.28  HD
ENDBRANCH 6 7
BRANCH 6 11
ATOM     11  CB  MET Y   1      37.594  50.083  35.043  1.00 64.83 LIG 0.05  C 
BRANCH 11 12
ATOM     12  CG  MET Y   1      36.302  49.735  35.736  1.00 63.52 LIG 0.08  C 
BRANCH 12 13
ATOM     13 SD   MET Y   1      36.039  48.006  36.105  1.00 62.62 LIG-0.17  SA
ATOM     14  CE  MET Y   1      34.453  47.764  35.314  1.00 61.34 LIG 0.09  C 
ENDBRANCH 12 13
ENDBRANCH 11 12
ENDBRANCH 6 11
ENDBRANCH 4 6
ENDBRANCH 1 2
BRANCH 1 15
ATOM     15  CB  ASP Y   2      42.454  52.059  33.729  1.00 68.96 LIG 0.15  C 
BRANCH 15 16
ATOM     16  CG  ASP Y   2      42.812  50.743  33.024  1.00 68.92 LIG 0.17  C 
ATOM     17 OD2  ASP Y   2      43.822  50.605  32.296  1.00 65.64 LIG-0.65  OA
ATOM     18 OD1  ASP Y   2      42.042  49.758  33.148  1.00 70.23 LIG-0.65  OA
ENDBRANCH 15 16
ENDBRANCH 1 15
BRANCH 1 19
ATOM     19  C   ASP Y   2      42.370  52.907  36.088  1.00 69.95 LIG 0.24  C 
ATOM     20 O    ASP Y   2      41.618  53.807  36.475  1.00 70.67 LIG-0.27  OA
ATOM     21  N   PRO Y   3      43.652  52.847  36.449  1.00 71.01 LIG-0.34  N 
ATOM     22  CA  PRO Y   3      44.200  53.734  37.496  1.00 71.12 LIG 0.17  C 
ATOM     23  CD  PRO Y   3      44.670  51.969  35.844  1.00 71.07 LIG 0.13  C 
ATOM     24  CB  PRO Y   3      45.631  53.228  37.707  1.00 71.47 LIG 0.04  C 
ATOM     25  CG  PRO Y   3      45.957  52.381  36.495  1.00 71.67 LIG 0.02  C 
BRANCH 22 26
ATOM     26  C   PRO Y   3      44.217  55.213  37.108  1.00 71.77 LIG 0.22  C 
ATOM     27 O    PRO Y   3      43.528  55.608  36.160  1.00 72.45 LIG-0.29  OA
ENDBRANCH 22 26
ENDBRANCH 1 19
TORSDOF 10
ENDMDL
MODEL 4
USER: ADFR SOLUTION from run 23
USER: SCORE 11.914099 LL:  -1.257 LR: -10.706 RR:   0.000 FEB:  -7.723
USER: RMSD 2.944691
USER: SEED 22
USER: STATUS no improvement in best in 7 clusters for 5 generations
USER: GENES 12
USER: genes 0 Translation |==|  0.52971 0.59860 0.55798
USER: genes 1 Rotation |==|  0.49057 0.55324 0.44659 0.99419
USER: genes 2 Torsion [C]-CA--N-[C] |==|  0.15383
USER: genes 3 Torsion [N]-C--CA-[N] |==|  0.14504
USER: genes 4 Torsion [C]-CA--N-[H2] |==|  0.83320
USER: genes 5 Torsion [C]-CA--CB-[CG] |==|  0.22278
USER: genes 6 Torsion [CA]-CB--CG-[SD] |==|  0.60968
USER: genes 7 Torsion [CB]-CG--SD-[CE] |==|  0.66244
USER: genes 8 Torsion [N]-CA--CB-[CG] |==|  0.78888
USER: genes 9 Torsion [CA]-CB--CG-[OD1] |==|  0.21790
USER: genes 10 Torsion [N]-CA--C-[N] |==|  0.11819
USER: genes 11 Torsion [N]-CA--C-[O] |==|  0.51353
ROOT
ATOM      1  CA  ASP Y   2      39.962  52.778  38.106  1.00 68.86 LIG 0.19  C 
ENDROOT
BRANCH 1 2
ATOM      2  N   ASP Y   2      38.978  52.559  37.049  1.00 67.90 LIG-0.34  N 
ATOM      3 H    ASP Y   2      38.678  53.299  36.730  1.00 67.90 LIG 0.16  HD
ATOM      4  C   MET Y   1      38.553  51.384  36.591  1.00 66.89 LIG 0.25  C 
ATOM      5 O    MET Y   1      38.882  50.273  37.058  1.00 66.99 LIG-0.27  OA
BRANCH 4 6
ATOM      6  CA  MET Y   1      37.631  51.528  35.366  1.00 65.69 LIG 0.28  C 
BRANCH 6 7
ATOM      7  N   MET Y   1      38.144  52.346  34.236  1.00 65.08 LIG-0.07  N 
ATOM      8 H2   MET Y   1      38.302  53.176  34.518  1.00 65.08 LIG 0.28  HD
ATOM      9 H1   MET Y   1      37.538  52.365  33.585  1.00 65.08 LIG 0.28  HD
ATOM     10 H3   MET Y   1      38.898  51.988  33.929  1.00 65.08 LIG 0.28  HD
ENDBRANCH 6 7
BRANCH 6 11
ATOM     11  CB  MET Y   1      37.177  50.139  34.881  1.00 64.83 LIG 0.05  C 
BRANCH 11 12
ATOM     12  CG  MET Y   1      36.042  49.582  35.701  1.00 63.52 LIG 0.08  C 
BRANCH 12 13
ATOM     13 SD   MET Y   1      36.106  47.833  36.062  1.00 62.62 LIG-0.17  SA
ATOM     14  CE  MET Y   1      34.557  47.315  35.332  1.00 61.34 LIG 0.09  C 
ENDBRANCH 12 13
ENDBRANCH 11 12
ENDBRANCH 6 11
ENDBRANCH 4 6
ENDBRANCH 1 2
BRANCH 1 15
ATOM     15  CB  ASP Y   2      39.362  52.238  39.413  1.00 68.96 LIG 0.15  C 
BRANCH 15 16
ATOM     16  CG  ASP Y   2      38.297  53.174  40.002  1.00 68.92 LIG 0.17  C 
ATOM     17 OD2  ASP Y   2      38.507  53.924  40.983  1.00 65.64 LIG-0.65  OA
ATOM     18 OD1  ASP Y   2      37.144  53.171  39.505  1.00 70.23 LIG-0.65  OA
ENDBRANCH 15 16
ENDBRANCH 1 15
BRANCH 1 19
ATOM     19  C   ASP Y   2      41.287  52.069  37.814  1.00 69.95 LIG 0.24  C 
ATOM     20 O    ASP Y   2      41.899  51.499  38.723  1.00 70.67 LIG-0.27  OA
ATOM     21  N   PRO Y   3      41.757  52.131  36.569  1.00 71.01 LIG-0.34  N 
ATOM     22  CA  PRO Y   3      42.938  51.345  36.151  1.00 71.12 LIG 0.17  C 
ATOM     23  CD  PRO Y   3      41.228  52.992  35.496  1.00 71.07 LIG 0.13  C 
ATOM     24  CB  PRO Y   3      43.030  51.578  34.639  1.00 71.47 LIG 0.04  C 
ATOM     25  CG  PRO Y   3      42.180  52.799  34.353  1.00 71.67 LIG 0.02  C 
BRANCH 22 26
ATOM     26  C   PRO Y   3      44.239  51.774  36.830  1.00 71.77 LIG 0.22  C 
ATOM     27 O    PRO Y   3      45.309  51.252  36.495  1.00 72.45 LIG-0.29  OA
ENDBRANCH 22 26
ENDBRANCH 1 19
TORSDOF 10
ENDMDL
MODEL 5
USER: ADFR SOLUTION from run 4
USER: SCORE 11.895782 LL:  -1.622 LR: -10.696 RR:   0.000 FEB:  -7.713
USER: RMSD 3.591270
USER: SEED 559869
USER: STATUS no improvement in best in 7 clusters for 5 generations
USER: GENES 12
USER: genes 0 Translation |==|  0.53844 0.48354 0.60150
USER: genes 1 Rotation |==|  0.40539 0.49608 0.25525 0.92560
USER: genes 2 Torsion [C]-CA--N-[C] |==|  0.61736
USER: genes 3 Torsion [N]-C--CA-[N] |==|  0.53524
USER: genes 4 Torsion [C]-CA--N-[H2] |==|  0.81453
USER: genes 5 Torsion [C]-CA--CB-[CG] |==|  0.28958
USER: genes 6 Torsion [CA]-CB--CG-[SD] |==|  0.55152
USER: genes 7 Torsion [CB]-CG--SD-[CE] |==|  0.66821
USER: genes 8 Torsion [N]-CA--CB-[CG] |==|  0.04888
USER: genes 9 Torsion [CA]-CB--CG-[OD1] |==|  0.18438
USER: genes 10 Torsion [N]-CA--C-[N] |==|  0.10063
USER: genes 11 Torsion [N]-CA--C-[O] |==|  0.50818
ROOT
ATOM      1  CA  ASP Y   2      40.119  51.052  38.758  1.00 68.86 LIG 0.19  C 
ENDROOT
BRANCH 1 2
ATOM      2  N   ASP Y   2      39.258  51.042  37.579  1.00 67.90 LIG-0.34  N 
ATOM      3 H    ASP Y   2      38.675  50.410  37.611  1.00 67.90 LIG 0.16  HD
ATOM      4  C   MET Y   1      39.316  51.880  36.546  1.00 66.89 LIG 0.25  C 
ATOM      5 O    MET Y   1      40.181  52.767  36.393  1.00 66.99 LIG-0.27  OA
BRANCH 4 6
ATOM      6  CA  MET Y   1      38.154  51.675  35.557  1.00 65.69 LIG 0.28  C 
BRANCH 6 7
ATOM      7  N   MET Y   1      38.275  52.346  34.236  1.00 65.08 LIG-0.07  N 
ATOM      8 H2   MET Y   1      38.239  53.228  34.347  1.00 65.08 LIG 0.28  HD
ATOM      9 H1   MET Y   1      37.606  52.086  33.709  1.00 65.08 LIG 0.28  HD
ATOM     10 H3   MET Y   1      39.051  52.125  33.861  1.00 65.08 LIG 0.28  HD
ENDBRANCH 6 7
BRANCH 6 11
ATOM     11  CB  MET Y   1      37.865  50.171  35.388  1.00 64.83 LIG 0.05  C 
BRANCH 11 12
ATOM     12  CG  MET Y   1      36.625  49.735  36.125  1.00 63.52 LIG 0.08  C 
BRANCH 12 13
ATOM     13 SD   MET Y   1      36.463  47.983  36.439  1.00 62.62 LIG-0.17  SA
ATOM     14  CE  MET Y   1      34.944  47.654  35.553  1.00 61.34 LIG 0.09  C 
ENDBRANCH 12 13
ENDBRANCH 11 12
ENDBRANCH 6 11
ENDBRANCH 4 6
ENDBRANCH 1 2
BRANCH 1 15
ATOM     15  CB  ASP Y   2      39.326  51.703  39.902  1.00 68.96 LIG 0.15  C 
BRANCH 15 16
ATOM     16  CG  ASP Y   2      37.817  51.738  39.625  1.00 68.92 LIG 0.17  C 
ATOM     17 OD2  ASP Y   2      37.166  52.799  39.486  1.00 65.64 LIG-0.65  OA
ATOM     18 OD1  ASP Y   2      37.184  50.654  39.570  1.00 70.23 LIG-0.65  OA
ENDBRANCH 15 16
ENDBRANCH 1 15
BRANCH 1 19
ATOM     19  C   ASP Y   2      40.552  49.642  39.168  1.00 69.95 LIG 0.24  C 
ATOM     20 O    ASP Y   2      40.704  49.361  40.361  1.00 70.67 LIG-0.27  OA
ATOM     21  N   PRO Y   3      40.791  48.764  38.194  1.00 71.01 LIG-0.34  N 
ATOM     22  CA  PRO Y   3      41.053  47.339  38.488  1.00 71.12 LIG 0.17  C 
ATOM     23  CD  PRO Y   3      40.881  49.083  36.758  1.00 71.07 LIG 0.13  C 
ATOM     24  CB  PRO Y   3      41.108  46.674  37.108  1.00 71.47 LIG 0.04  C 
ATOM     25  CG  PRO Y   3      41.302  47.797  36.111  1.00 71.67 LIG 0.02  C 
BRANCH 22 26
ATOM     26  C   PRO Y   3      42.359  47.093  39.244  1.00 71.77 LIG 0.22  C 
ATOM     27 O    PRO Y   3      42.714  45.936  39.498  1.00 72.45 LIG-0.29  OA
ENDBRANCH 22 26
ENDBRANCH 1 19
TORSDOF 10
ENDMDL
MODEL 6
USER: ADFR SOLUTION from run 177
USER: SCORE 11.836527 LL:  -1.422 LR: -10.588 RR:   0.000 FEB:  -7.605
USER: RMSD 3.337187
USER: SEED 176
USER: STATUS no improvement in best in 10 clusters for 5 generations
USER: GENES 12
USER: genes 0 Translation |==|  0.54762 0.43853 0.57626
USER: genes 1 Rotation |==|  0.46415 0.56270 0.28052 0.94341
USER: genes 2 Torsion [C]-CA--N-[C] |==|  0.77554
USER: genes 3 Torsion [N]-C--CA-[N] |==|  0.43181
USER: genes 4 Torsion [C]-CA--N-[H2] |==|  0.75442
USER: genes 5 Torsion [C]-CA--CB-[CG] |==|  0.25536
USER: genes 6 Torsion [CA]-CB--CG-[SD] |==|  0.59878
USER: genes 7 Torsion [CB]-CG--SD-[CE] |==|  0.72520
USER: genes 8 Torsion [N]-CA--CB-[CG] |==|  0.96984
USER: genes 9 Torsion [CA]-CB--CG-[OD1] |==|  0.75317
USER: genes 10 Torsion [N]-CA--C-[N] |==|  0.48834
USER: genes 11 Torsion [N]-CA--C-[O] |==|  0.30563
ROOT
ATOM      1  CA  ASP Y   2      40.284  50.377  38.380  1.00 68.86 LIG 0.19  C 
ENDROOT
BRANCH 1 2
ATOM      2  N   ASP Y   2      39.266  50.679  37.377  1.00 67.90 LIG-0.34  N 
ATOM      3 H    ASP Y   2      38.470  50.592  37.690  1.00 67.90 LIG 0.16  HD
ATOM      4  C   MET Y   1      39.479  51.048  36.116  1.00 66.89 LIG 0.25  C 
ATOM      5 O    MET Y   1      40.601  51.117  35.571  1.00 66.99 LIG-0.27  OA
BRANCH 4 6
ATOM      6  CA  MET Y   1      38.178  51.437  35.390  1.00 65.69 LIG 0.28  C 
BRANCH 6 7
ATOM      7  N   MET Y   1      38.309  52.365  34.236  1.00 65.08 LIG-0.07  N 
ATOM      8 H2   MET Y   1      38.266  53.206  34.525  1.00 65.08 LIG 0.28  HD
ATOM      9 H1   MET Y   1      37.648  52.216  33.659  1.00 65.08 LIG 0.28  HD
ATOM     10 H3   MET Y   1      39.090  52.229  33.833  1.00 65.08 LIG 0.28  HD
ENDBRANCH 6 7
BRANCH 6 11
ATOM     11  CB  MET Y   1      37.396  50.171  34.995  1.00 64.83 LIG 0.05  C 
BRANCH 11 12
ATOM     12  CG  MET Y   1      36.399  49.755  36.045  1.00 63.52 LIG 0.08  C 
BRANCH 12 13
ATOM     13 SD   MET Y   1      36.165  47.997  36.267  1.00 62.62 LIG-0.17  SA
ATOM     14  CE  MET Y   1      34.674  47.765  35.306  1.00 61.34 LIG 0.09  C 
ENDBRANCH 12 13
ENDBRANCH 11 12
ENDBRANCH 6 11
ENDBRANCH 4 6
ENDBRANCH 1 2
BRANCH 1 15
ATOM     15  CB  ASP Y   2      39.631  50.533  39.761  1.00 68.96 LIG 0.15  C 
BRANCH 15 16
ATOM     16  CG  ASP Y   2      38.248  51.197  39.686  1.00 68.92 LIG 0.17  C 
ATOM     17 OD2  ASP Y   2      37.184  50.555  39.532  1.00 65.64 LIG-0.65  OA
ATOM     18 OD1  ASP Y   2      38.172  52.449  39.744  1.00 70.23 LIG-0.65  OA
ENDBRANCH 15 16
ENDBRANCH 1 15
BRANCH 1 19
ATOM     19  C   ASP Y   2      40.839  48.958  38.229  1.00 69.95 LIG 0.24  C 
ATOM     20 O    ASP Y   2      40.340  48.181  37.408  1.00 70.67 LIG-0.27  OA
ATOM     21  N   PRO Y   3      41.836  48.597  39.035  1.00 71.01 LIG-0.34  N 
ATOM     22  CA  PRO Y   3      42.546  47.313  38.856  1.00 71.12 LIG 0.17  C 
ATOM     23  CD  PRO Y   3      42.315  49.364  40.199  1.00 71.07 LIG 0.13  C 
ATOM     24  CB  PRO Y   3      43.697  47.374  39.865  1.00 71.47 LIG 0.04  C 
ATOM     25  CG  PRO Y   3      43.337  48.474  40.842  1.00 71.67 LIG 0.02  C 
BRANCH 22 26
ATOM     26  C   PRO Y   3      41.677  46.083  39.124  1.00 71.77 LIG 0.22  C 
ATOM     27 O    PRO Y   3      41.338  45.353  38.185  1.00 72.45 LIG-0.29  OA
ENDBRANCH 22 26
ENDBRANCH 1 19
TORSDOF 10
ENDMDL
MODEL 7
USER: ADFR SOLUTION from run 111
USER: SCORE 11.379493 LL:  -1.234 LR: -10.511 RR:   0.000 FEB:  -7.528
USER: RMSD 4.883560
USER: SEED 110
USER: STATUS no improvement in best in 7 clusters for 5 generations
USER: GENES 12
USER: genes 0 Translation |==|  0.62223 0.67221 0.39538
USER: genes 1 Rotation |==|  0.20995 0.59701 0.37824 0.87634
USER: genes 2 Torsion [C]-CA--N-[C] |==|  0.88274
USER: genes 3 Torsion [N]-C--CA-[N] |==|  0.20318
USER: genes 4 Torsion [C]-CA--N-[H2] |==|  0.50123
USER: genes 5 Torsion [C]-CA--CB-[CG] |==|  0.49278
USER: genes 6 Torsion [CA]-CB--CG-[SD] |==|  0.56702
USER: genes 7 Torsion [CB]-CG--SD-[CE] |==|  0.56843
USER: genes 8 Torsion [N]-CA--CB-[CG] |==|  0.54520
USER: genes 9 Torsion [CA]-CB--CG-[OD1] |==|  0.64643
USER: genes 10 Torsion [N]-CA--C-[N] |==|  0.34168
USER: genes 11 Torsion [N]-CA--C-[O] |==|  0.43503
ROOT
ATOM      1  CA  ASP Y   2      41.627  53.882  35.667  1.00 68.86 LIG 0.19  C 
ENDROOT
BRANCH 1 2
ATOM      2  N   ASP Y   2      40.318  53.237  35.702  1.00 67.90 LIG-0.34  N 
ATOM      3 H    ASP Y   2      39.721  53.738  36.066  1.00 67.90 LIG 0.16  HD
ATOM      4  C   MET Y   1      40.019  52.023  35.245  1.00 66.89 LIG 0.25  C 
ATOM      5 O    MET Y   1      40.845  51.210  34.779  1.00 66.99 LIG-0.27  OA
BRANCH 4 6
ATOM      6  CA  MET Y   1      38.508  51.729  35.303  1.00 65.69 LIG 0.28  C 
BRANCH 6 7
ATOM      7  N   MET Y   1      37.653  52.425  34.307  1.00 65.08 LIG-0.07  N 
ATOM      8 H2   MET Y   1      36.802  52.192  34.431  1.00 65.08 LIG 0.28  HD
ATOM      9 H1   MET Y   1      37.906  52.196  33.486  1.00 65.08 LIG 0.28  HD
ATOM     10 H3   MET Y   1      37.736  53.305  34.408  1.00 65.08 LIG 0.28  HD
ENDBRANCH 6 7
BRANCH 6 11
ATOM     11  CB  MET Y   1      38.266  50.208  35.272  1.00 64.83 LIG 0.05  C 
BRANCH 11 12
ATOM     12  CG  MET Y   1      36.807  49.852  35.389  1.00 63.52 LIG 0.08  C 
BRANCH 12 13
ATOM     13 SD   MET Y   1      36.435  48.223  36.024  1.00 62.62 LIG-0.17  SA
ATOM     14  CE  MET Y   1      34.815  47.979  35.305  1.00 61.34 LIG 0.09  C 
ENDBRANCH 12 13
ENDBRANCH 11 12
ENDBRANCH 6 11
ENDBRANCH 4 6
ENDBRANCH 1 2
BRANCH 1 15
ATOM     15  CB  ASP Y   2      41.594  55.047  36.667  1.00 68.96 LIG 0.15  C 
BRANCH 15 16
ATOM     16  CG  ASP Y   2      42.743  56.042  36.449  1.00 68.92 LIG 0.17  C 
ATOM     17 OD2  ASP Y   2      43.014  56.547  35.335  1.00 65.64 LIG-0.65  OA
ATOM     18 OD1  ASP Y   2      43.477  56.345  37.422  1.00 70.23 LIG-0.65  OA
ENDBRANCH 15 16
ENDBRANCH 1 15
BRANCH 1 19
ATOM     19  C   ASP Y   2      42.756  52.916  36.037  1.00 69.95 LIG 0.24  C 
ATOM     20 O    ASP Y   2      42.754  52.352  37.136  1.00 70.67 LIG-0.27  OA
ATOM     21  N   PRO Y   3      43.738  52.748  35.152  1.00 71.01 LIG-0.34  N 
ATOM     22  CA  PRO Y   3      44.781  51.718  35.345  1.00 71.12 LIG 0.17  C 
ATOM     23  CD  PRO Y   3      43.948  53.563  33.942  1.00 71.07 LIG 0.13  C 
ATOM     24  CB  PRO Y   3      45.593  51.757  34.046  1.00 71.47 LIG 0.04  C 
ATOM     25  CG  PRO Y   3      45.246  53.070  33.376  1.00 71.67 LIG 0.02  C 
BRANCH 22 26
ATOM     26  C   PRO Y   3      45.694  51.979  36.544  1.00 71.77 LIG 0.22  C 
ATOM     27 O    PRO Y   3      46.296  51.038  37.074  1.00 72.45 LIG-0.29  OA
ENDBRANCH 22 26
ENDBRANCH 1 19
TORSDOF 10
ENDMDL
MODEL 8
USER: ADFR SOLUTION from run 159
USER: SCORE 11.562300 LL:  -1.440 LR: -10.302 RR:   0.000 FEB:  -7.319
USER: RMSD 2.974461
USER: SEED 158
USER: STATUS no improvement in best in 3 clusters for 5 generations
USER: GENES 12
USER: genes 0 Translation |==|  0.40645 0.56337 0.63018
USER: genes 1 Rotation |==|  0.43344 0.38231 0.29921 0.93750
USER: genes 2 Torsion [C]-CA--N-[C] |==|  0.75428
USER: genes 3 Torsion [N]-C--CA-[N] |==|  0.41684
USER: genes 4 Torsion [C]-CA--N-[H2] |==|  0.54700
USER: genes 5 Torsion [C]-CA--CB-[CG] |==|  0.24601
USER: genes 6 Torsion [CA]-CB--CG-[SD] |==|  0.57245
USER: genes 7 Torsion [CB]-CG--SD-[CE] |==|  0.63805
USER: genes 8 Torsion [N]-CA--CB-[CG] |==|  0.63391
USER: genes 9 Torsion [CA]-CB--CG-[OD1] |==|  0.86916
USER: genes 10 Torsion [N]-CA--C-[N] |==|  0.28348
USER: genes 11 Torsion [N]-CA--C-[O] |==|  0.46488
ROOT
ATOM      1  CA  ASP Y   2      37.743  52.250  39.189  1.00 68.86 LIG 0.19  C 
ENDROOT
BRANCH 1 2
ATOM      2  N   ASP Y   2      37.470  51.928  37.791  1.00 67.90 LIG-0.34  N 
ATOM      3 H    ASP Y   2      36.658  51.670  37.672  1.00 67.90 LIG 0.16  HD
ATOM      4  C   MET Y   1      38.330  52.002  36.777  1.00 66.89 LIG 0.25  C 
ATOM      5 O    MET Y   1      39.540  52.289  36.885  1.00 66.99 LIG-0.27  OA
BRANCH 4 6
ATOM      6  CA  MET Y   1      37.658  51.740  35.416  1.00 65.69 LIG 0.28  C 
BRANCH 6 7
ATOM      7  N   MET Y   1      38.248  52.424  34.236  1.00 65.08 LIG-0.07  N 
ATOM      8 H2   MET Y   1      37.665  52.412  33.563  1.00 65.08 LIG 0.28  HD
ATOM      9 H1   MET Y   1      38.992  52.003  33.990  1.00 65.08 LIG 0.28  HD
ATOM     10 H3   MET Y   1      38.441  53.266  34.447  1.00 65.08 LIG 0.28  HD
ENDBRANCH 6 7
BRANCH 6 11
ATOM     11  CB  MET Y   1      37.535  50.224  35.172  1.00 64.83 LIG 0.05  C 
BRANCH 11 12
ATOM     12  CG  MET Y   1      36.258  49.651  35.727  1.00 63.52 LIG 0.08  C 
BRANCH 12 13
ATOM     13 SD   MET Y   1      36.289  47.918  36.167  1.00 62.62 LIG-0.17  SA
ATOM     14  CE  MET Y   1      34.810  47.364  35.328  1.00 61.34 LIG 0.09  C 
ENDBRANCH 12 13
ENDBRANCH 11 12
ENDBRANCH 6 11
ENDBRANCH 4 6
ENDBRANCH 1 2
BRANCH 1 15
ATOM     15  CB  ASP Y   2      36.425  52.727  39.817  1.00 68.96 LIG 0.15  C 
BRANCH 15 16
ATOM     16  CG  ASP Y   2      36.591  54.030  40.611  1.00 68.92 LIG 0.17  C 
ATOM     17 OD2  ASP Y   2      35.838  55.022  40.471  1.00 65.64 LIG-0.65  OA
ATOM     18 OD1  ASP Y   2      37.548  54.133  41.418  1.00 70.23 LIG-0.65  OA
ENDBRANCH 15 16
ENDBRANCH 1 15
BRANCH 1 19
ATOM     19  C   ASP Y   2      38.278  51.042  39.964  1.00 69.95 LIG 0.24  C 
ATOM     20 O    ASP Y   2      37.500  50.176  40.377  1.00 70.67 LIG-0.27  OA
ATOM     21  N   PRO Y   3      39.588  50.993  40.200  1.00 71.01 LIG-0.34  N 
ATOM     22  CA  PRO Y   3      40.220  49.795  40.792  1.00 71.12 LIG 0.17  C 
ATOM     23  CD  PRO Y   3      40.541  52.094  39.968  1.00 71.07 LIG 0.13  C 
ATOM     24  CB  PRO Y   3      41.722  50.095  40.737  1.00 71.47 LIG 0.04  C 
ATOM     25  CG  PRO Y   3      41.841  51.589  40.521  1.00 71.67 LIG 0.02  C 
BRANCH 22 26
ATOM     26  C   PRO Y   3      39.792  49.518  42.234  1.00 71.77 LIG 0.22  C 
ATOM     27 O    PRO Y   3      40.061  48.431  42.757  1.00 72.45 LIG-0.29  OA
ENDBRANCH 22 26
ENDBRANCH 1 19
TORSDOF 10
ENDMDL
MODEL 9
USER: ADFR SOLUTION from run 128
USER: SCORE 11.272296 LL:  -1.141 LR: -10.299 RR:   0.000 FEB:  -7.316
USER: RMSD 4.508425
USER: SEED 127
USER: STATUS no improvement in best in 7 clusters for 5 generations
USER: GENES 12
USER: genes 0 Translation |==|  0.57479 0.37494 0.48027
USER: genes 1 Rotation |==|  0.79173 0.56087 0.63316 0.87876
USER: genes 2 Torsion [C]-CA--N-[C] |==|  0.82477
USER: genes 3 Torsion [N]-C--CA-[N] |==|  0.69841
USER: genes 4 Torsion [C]-CA--N-[H2] |==|  0.44388
USER: genes 5 Torsion [C]-CA--CB-[CG] |==|  0.26417
USER: genes 6 Torsion [CA]-CB--CG-[SD] |==|  0.60976
USER: genes 7 Torsion [CB]-CG--SD-[CE] |==|  0.68387
USER: genes 8 Torsion [N]-CA--CB-[CG] |==|  0.62355
USER: genes 9 Torsion [CA]-CB--CG-[OD1] |==|  0.89710
USER: genes 10 Torsion [N]-CA--C-[N] |==|  0.86144
USER: genes 11 Torsion [N]-CA--C-[O] |==|  0.62725
ROOT
ATOM      1  CA  ASP Y   2      40.773  49.423  36.940  1.00 68.86 LIG 0.19  C 
ENDROOT
BRANCH 1 2
ATOM      2  N   ASP Y   2      39.690  50.013  36.158  1.00 67.90 LIG-0.34  N 
ATOM      3 H    ASP Y   2      39.383  49.467  35.569  1.00 67.90 LIG 0.16  HD
ATOM      4  C   MET Y   1      39.193  51.241  36.291  1.00 66.89 LIG 0.25  C 
ATOM      5 O    MET Y   1      39.638  52.113  37.066  1.00 66.99 LIG-0.27  OA
BRANCH 4 6
ATOM      6  CA  MET Y   1      37.952  51.472  35.408  1.00 65.69 LIG 0.28  C 
BRANCH 6 7
ATOM      7  N   MET Y   1      38.124  52.369  34.236  1.00 65.08 LIG-0.07  N 
ATOM      8 H2   MET Y   1      37.476  52.213  33.646  1.00 65.08 LIG 0.28  HD
ATOM      9 H1   MET Y   1      38.914  52.214  33.857  1.00 65.08 LIG 0.28  HD
ATOM     10 H3   MET Y   1      38.085  53.217  34.503  1.00 65.08 LIG 0.28  HD
ENDBRANCH 6 7
BRANCH 6 11
ATOM     11  CB  MET Y   1      37.348  50.120  34.986  1.00 64.83 LIG 0.05  C 
BRANCH 11 12
ATOM     12  CG  MET Y   1      36.230  49.677  35.893  1.00 63.52 LIG 0.08  C 
BRANCH 12 13
ATOM     13 SD   MET Y   1      36.168  47.934  36.287  1.00 62.62 LIG-0.17  SA
ATOM     14  CE  MET Y   1      34.640  47.491  35.470  1.00 61.34 LIG 0.09  C 
ENDBRANCH 12 13
ENDBRANCH 11 12
ENDBRANCH 6 11
ENDBRANCH 4 6
ENDBRANCH 1 2
BRANCH 1 15
ATOM     15  CB  ASP Y   2      40.927  47.964  36.486  1.00 68.96 LIG 0.15  C 
BRANCH 15 16
ATOM     16  CG  ASP Y   2      41.086  46.995  37.666  1.00 68.92 LIG 0.17  C 
ATOM     17 OD2  ASP Y   2      40.557  45.860  37.701  1.00 65.64 LIG-0.65  OA
ATOM     18 OD1  ASP Y   2      41.749  47.361  38.668  1.00 70.23 LIG-0.65  OA
ENDBRANCH 15 16
ENDBRANCH 1 15
BRANCH 1 19
ATOM     19  C   ASP Y   2      42.097  50.167  36.744  1.00 69.95 LIG 0.24  C 
ATOM     20 O    ASP Y   2      42.741  50.556  37.724  1.00 70.67 LIG-0.27  OA
ATOM     21  N   PRO Y   3      42.490  50.405  35.494  1.00 71.01 LIG-0.34  N 
ATOM     22  CA  PRO Y   3      43.825  50.968  35.199  1.00 71.12 LIG 0.17  C 
ATOM     23  CD  PRO Y   3      41.669  50.205  34.286  1.00 71.07 LIG 0.13  C 
ATOM     24  CB  PRO Y   3      43.924  50.924  33.671  1.00 71.47 LIG 0.04  C 
ATOM     25  CG  PRO Y   3      42.508  50.747  33.166  1.00 71.67 LIG 0.02  C 
BRANCH 22 26
ATOM     26  C   PRO Y   3      44.017  52.401  35.698  1.00 71.77 LIG 0.22  C 
ATOM     27 O    PRO Y   3      44.530  53.246  34.956  1.00 72.45 LIG-0.29  OA
ENDBRANCH 22 26
ENDBRANCH 1 19
TORSDOF 10
ENDMDL
MODEL 10
USER: ADFR SOLUTION from run 14
USER: SCORE 11.690219 LL:  -1.637 LR: -10.179 RR:   0.000 FEB:  -7.196
USER: RMSD 5.532104
USER: SEED 738852
USER: STATUS no improvement in best in 7 clusters for 5 generations
USER: GENES 12
USER: genes 0 Translation |==|  0.60350 0.41207 0.39603
USER: genes 1 Rotation |==|  0.11879 0.64611 0.21303 0.53125
USER: genes 2 Torsion [C]-CA--N-[C] |==|  0.77642
USER: genes 3 Torsion [N]-C--CA-[N] |==|  0.18753
USER: genes 4 Torsion [C]-CA--N-[H2] |==|  0.67227
USER: genes 5 Torsion [C]-CA--CB-[CG] |==|  0.26849
USER: genes 6 Torsion [CA]-CB--CG-[SD] |==|  0.76206
USER: genes 7 Torsion [CB]-CG--SD-[CE] |==|  0.26443
USER: genes 8 Torsion [N]-CA--CB-[CG] |==|  0.73280
USER: genes 9 Torsion [CA]-CB--CG-[OD1] |==|  0.54946
USER: genes 10 Torsion [N]-CA--C-[N] |==|  0.32227
USER: genes 11 Torsion [N]-CA--C-[O] |==|  0.63544
ROOT
ATOM      1  CA  ASP Y   2      41.290  49.980  35.676  1.00 68.86 LIG 0.19  C 
ENDROOT
BRANCH 1 2
ATOM      2  N   ASP Y   2      40.171  50.919  35.679  1.00 67.90 LIG-0.34  N 
ATOM      3 H    ASP Y   2      40.434  51.733  35.593  1.00 67.90 LIG 0.16  HD
ATOM      4  C   MET Y   1      38.881  50.615  35.797  1.00 66.89 LIG 0.25  C 
ATOM      5 O    MET Y   1      38.432  49.468  36.005  1.00 66.99 LIG-0.27  OA
BRANCH 4 6
ATOM      6  CA  MET Y   1      37.968  51.840  35.600  1.00 65.69 LIG 0.28  C 
BRANCH 6 7
ATOM      7  N   MET Y   1      37.926  52.429  34.236  1.00 65.08 LIG-0.07  N 
ATOM      8 H2   MET Y   1      38.225  53.267  34.265  1.00 65.08 LIG 0.28  HD
ATOM      9 H1   MET Y   1      37.088  52.424  33.936  1.00 65.08 LIG 0.28  HD
ATOM     10 H3   MET Y   1      38.439  51.950  33.690  1.00 65.08 LIG 0.28  HD
ENDBRANCH 6 7
BRANCH 6 11
ATOM     11  CB  MET Y   1      36.549  51.528  36.111  1.00 64.83 LIG 0.05  C 
BRANCH 11 12
ATOM     12  CG  MET Y   1      36.319  52.021  37.516  1.00 63.52 LIG 0.08  C 
BRANCH 12 13
ATOM     13 SD   MET Y   1      36.825  50.928  38.836  1.00 62.62 LIG-0.17  SA
ATOM     14  CE  MET Y   1      38.454  51.588  39.169  1.00 61.34 LIG 0.09  C 
ENDBRANCH 12 13
ENDBRANCH 11 12
ENDBRANCH 6 11
ENDBRANCH 4 6
ENDBRANCH 1 2
BRANCH 1 15
ATOM     15  CB  ASP Y   2      42.479  50.681  35.002  1.00 68.96 LIG 0.15  C 
BRANCH 15 16
ATOM     16  CG  ASP Y   2      42.600  50.330  33.512  1.00 68.92 LIG 0.17  C 
ATOM     17 OD2  ASP Y   2      41.677  49.799  32.853  1.00 65.64 LIG-0.65  OA
ATOM     18 OD1  ASP Y   2      43.689  50.547  32.924  1.00 70.23 LIG-0.65  OA
ENDBRANCH 15 16
ENDBRANCH 1 15
BRANCH 1 19
ATOM     19  C   ASP Y   2      41.681  49.547  37.092  1.00 69.95 LIG 0.24  C 
ATOM     20 O    ASP Y   2      42.151  50.369  37.885  1.00 70.67 LIG-0.27  OA
ATOM     21  N   PRO Y   3      41.532  48.260  37.405  1.00 71.01 LIG-0.34  N 
ATOM     22  CA  PRO Y   3      41.725  47.777  38.789  1.00 71.12 LIG 0.17  C 
ATOM     23  CD  PRO Y   3      41.223  47.178  36.454  1.00 71.07 LIG 0.13  C 
ATOM     24  CB  PRO Y   3      41.302  46.305  38.737  1.00 71.47 LIG 0.04  C 
ATOM     25  CG  PRO Y   3      41.303  45.923  37.271  1.00 71.67 LIG 0.02  C 
BRANCH 22 26
ATOM     26  C   PRO Y   3      43.165  47.893  39.290  1.00 71.77 LIG 0.22  C 
ATOM     27 O    PRO Y   3      43.707  46.923  39.833  1.00 72.45 LIG-0.29  OA
ENDBRANCH 22 26
ENDBRANCH 1 19
TORSDOF 10
ENDMDL
MODEL 11
USER: ADFR SOLUTION from run 154
USER: SCORE 11.616752 LL:  -1.574 LR: -10.099 RR:   0.000 FEB:  -7.116
USER: RMSD 3.338489
USER: SEED 153
USER: STATUS no improvement in best in 6 clusters for 5 generations
USER: GENES 12
USER: genes 0 Translation |==|  0.47663 0.55668 0.64098
USER: genes 1 Rotation |==|  0.45858 0.53993 0.29879 0.95410
USER: genes 2 Torsion [C]-CA--N-[C] |==|  0.14838
USER: genes 3 Torsion [N]-C--CA-[N] |==|  0.09123
USER: genes 4 Torsion [C]-CA--N-[H2] |==|  0.65346
USER: genes 5 Torsion [C]-CA--CB-[CG] |==|  0.82106
USER: genes 6 Torsion [CA]-CB--CG-[SD] |==|  0.35338
USER: genes 7 Torsion [CB]-CG--SD-[CE] |==|  0.20681
USER: genes 8 Torsion [N]-CA--CB-[CG] |==|  0.86476
USER: genes 9 Torsion [CA]-CB--CG-[OD1] |==|  0.66848
USER: genes 10 Torsion [N]-CA--C-[N] |==|  0.12775
USER: genes 11 Torsion [N]-CA--C-[O] |==|  0.40034
ROOT
ATOM      1  CA  ASP Y   2      39.006  52.149  39.351  1.00 68.86 LIG 0.19  C 
ENDROOT
BRANCH 1 2
ATOM      2  N   ASP Y   2      38.041  52.309  38.266  1.00 67.90 LIG-0.34  N 
ATOM      3 H    ASP Y   2      38.184  53.024  37.811  1.00 67.90 LIG 0.16  HD
ATOM      4  C   MET Y   1      37.040  51.484  37.967  1.00 66.89 LIG 0.25  C 
ATOM      5 O    MET Y   1      36.724  50.473  38.629  1.00 66.99 LIG-0.27  OA
BRANCH 4 6
ATOM      6  CA  MET Y   1      36.320  51.881  36.665  1.00 65.69 LIG 0.28  C 
BRANCH 6 7
ATOM      7  N   MET Y   1      37.154  52.507  35.605  1.00 65.08 LIG-0.07  N 
ATOM      8 H2   MET Y   1      36.802  53.292  35.376  1.00 65.08 LIG 0.28  HD
ATOM      9 H1   MET Y   1      37.177  51.974  34.893  1.00 65.08 LIG 0.28  HD
ATOM     10 H3   MET Y   1      37.980  52.630  35.911  1.00 65.08 LIG 0.28  HD
ENDBRANCH 6 7
BRANCH 6 11
ATOM     11  CB  MET Y   1      35.532  50.680  36.111  1.00 64.83 LIG 0.05  C 
BRANCH 11 12
ATOM     12  CG  MET Y   1      36.427  49.539  35.702  1.00 63.52 LIG 0.08  C 
BRANCH 12 13
ATOM     13 SD   MET Y   1      36.040  47.938  36.394  1.00 62.62 LIG-0.17  SA
ATOM     14  CE  MET Y   1      34.592  47.529  35.425  1.00 61.34 LIG 0.09  C 
ENDBRANCH 12 13
ENDBRANCH 11 12
ENDBRANCH 6 11
ENDBRANCH 4 6
ENDBRANCH 1 2
BRANCH 1 15
ATOM     15  CB  ASP Y   2      38.242  52.304  40.674  1.00 68.96 LIG 0.15  C 
BRANCH 15 16
ATOM     16  CG  ASP Y   2      37.343  53.549  40.691  1.00 68.92 LIG 0.17  C 
ATOM     17 OD2  ASP Y   2      36.427  53.748  39.861  1.00 65.64 LIG-0.65  OA
ATOM     18 OD1  ASP Y   2      37.552  54.436  41.555  1.00 70.23 LIG-0.65  OA
ENDBRANCH 15 16
ENDBRANCH 1 15
BRANCH 1 19
ATOM     19  C   ASP Y   2      39.697  50.783  39.310  1.00 69.95 LIG 0.24  C 
ATOM     20 O    ASP Y   2      39.851  50.135  40.350  1.00 70.67 LIG-0.27  OA
ATOM     21  N   PRO Y   3      40.150  50.357  38.132  1.00 71.01 LIG-0.34  N 
ATOM     22  CA  PRO Y   3      40.681  48.988  37.959  1.00 71.12 LIG 0.17  C 
ATOM     23  CD  PRO Y   3      40.235  51.168  36.904  1.00 71.07 LIG 0.13  C 
ATOM     24  CB  PRO Y   3      40.929  48.867  36.452  1.00 71.47 LIG 0.04  C 
ATOM     25  CG  PRO Y   3      40.935  50.283  35.915  1.00 71.67 LIG 0.02  C 
BRANCH 22 26
ATOM     26  C   PRO Y   3      41.977  48.726  38.728  1.00 71.77 LIG 0.22  C 
ATOM     27 O    PRO Y   3      42.180  47.614  39.230  1.00 72.45 LIG-0.29  OA
ENDBRANCH 22 26
ENDBRANCH 1 19
TORSDOF 10
ENDMDL
MODEL 12
USER: ADFR SOLUTION from run 84
USER: SCORE 10.995029 LL:  -1.435 LR: -10.056 RR:   0.000 FEB:  -7.073
USER: RMSD 5.069384
USER: SEED 83
USER: STATUS no improvement in best in 7 clusters for 5 generations
USER: GENES 12
USER: genes 0 Translation |==|  0.62687 0.43932 0.47653
USER: genes 1 Rotation |==|  0.20745 0.59812 0.19012 0.74241
USER: genes 2 Torsion [C]-CA--N-[C] |==|  0.62805
USER: genes 3 Torsion [N]-C--CA-[N] |==|  0.37631
USER: genes 4 Torsion [C]-CA--N-[H2] |==|  0.77651
USER: genes 5 Torsion [C]-CA--CB-[CG] |==|  0.22970
USER: genes 6 Torsion [CA]-CB--CG-[SD] |==|  0.53039
USER: genes 7 Torsion [CB]-CG--SD-[CE] |==|  0.87774
USER: genes 8 Torsion [N]-CA--CB-[CG] |==|  0.54146
USER: genes 9 Torsion [CA]-CB--CG-[OD1] |==|  0.14130
USER: genes 10 Torsion [N]-CA--C-[N] |==|  0.19410
USER: genes 11 Torsion [N]-CA--C-[O] |==|  0.39427
ROOT
ATOM      1  CA  ASP Y   2      41.711  50.389  36.884  1.00 68.86 LIG 0.19  C 
ENDROOT
BRANCH 1 2
ATOM      2  N   ASP Y   2      40.334  50.705  36.513  1.00 67.90 LIG-0.34  N 
ATOM      3 H    ASP Y   2      39.835  50.832  37.203  1.00 67.90 LIG 0.16  HD
ATOM      4  C   MET Y   1      39.847  50.801  35.278  1.00 66.89 LIG 0.25  C 
ATOM      5 O    MET Y   1      40.487  50.554  34.235  1.00 66.99 LIG-0.27  OA
BRANCH 4 6
ATOM      6  CA  MET Y   1      38.391  51.306  35.258  1.00 65.69 LIG 0.28  C 
BRANCH 6 7
ATOM      7  N   MET Y   1      38.060  52.348  34.252  1.00 65.08 LIG-0.07  N 
ATOM      8 H2   MET Y   1      38.322  53.144  34.552  1.00 65.08 LIG 0.28  HD
ATOM      9 H1   MET Y   1      37.181  52.358  34.114  1.00 65.08 LIG 0.28  HD
ATOM     10 H3   MET Y   1      38.477  52.167  33.488  1.00 65.08 LIG 0.28  HD
ENDBRANCH 6 7
BRANCH 6 11
ATOM     11  CB  MET Y   1      37.422  50.113  35.159  1.00 64.83 LIG 0.05  C 
BRANCH 11 12
ATOM     12  CG  MET Y   1      37.149  49.476  36.496  1.00 63.52 LIG 0.08  C 
BRANCH 12 13
ATOM     13 SD   MET Y   1      36.287  47.911  36.470  1.00 62.62 LIG-0.17  SA
ATOM     14  CE  MET Y   1      35.021  48.280  35.262  1.00 61.34 LIG 0.09  C 
ENDBRANCH 12 13
ENDBRANCH 11 12
ENDBRANCH 6 11
ENDBRANCH 4 6
ENDBRANCH 1 2
BRANCH 1 15
ATOM     15  CB  ASP Y   2      42.371  51.692  37.359  1.00 68.96 LIG 0.15  C 
BRANCH 15 16
ATOM     16  CG  ASP Y   2      43.901  51.583  37.430  1.00 68.92 LIG 0.17  C 
ATOM     17 OD2  ASP Y   2      44.571  51.941  38.426  1.00 65.64 LIG-0.65  OA
ATOM     18 OD1  ASP Y   2      44.526  51.149  36.431  1.00 70.23 LIG-0.65  OA
ENDBRANCH 15 16
ENDBRANCH 1 15
BRANCH 1 19
ATOM     19  C   ASP Y   2      41.781  49.339  37.996  1.00 69.95 LIG 0.24  C 
ATOM     20 O    ASP Y   2      42.192  49.650  39.118  1.00 70.67 LIG-0.27  OA
ATOM     21  N   PRO Y   3      41.423  48.093  37.690  1.00 71.01 LIG-0.34  N 
ATOM     22  CA  PRO Y   3      41.299  47.049  38.729  1.00 71.12 LIG 0.17  C 
ATOM     23  CD  PRO Y   3      41.166  47.586  36.330  1.00 71.07 LIG 0.13  C 
ATOM     24  CB  PRO Y   3      40.720  45.841  37.984  1.00 71.47 LIG 0.04  C 
ATOM     25  CG  PRO Y   3      40.943  46.113  36.511  1.00 71.67 LIG 0.02  C 
BRANCH 22 26
ATOM     26  C   PRO Y   3      42.627  46.672  39.389  1.00 71.77 LIG 0.22  C 
ATOM     27 O    PRO Y   3      42.663  46.428  40.601  1.00 72.45 LIG-0.29  OA
ENDBRANCH 22 26
ENDBRANCH 1 19
TORSDOF 10
ENDMDL
MODEL 13
USER: ADFR SOLUTION from run 196
USER: SCORE 10.100518 LL:  -1.249 LR: -10.014 RR:   0.000 FEB:  -7.031
USER: RMSD 1.897284
USER: SEED 195
USER: STATUS no improvement in best in 11 clusters for 5 generations
USER: GENES 12
USER: genes 0 Translation |==|  0.52087 0.62414 0.55799
USER: genes 1 Rotation |==|  0.51774 0.57874 0.52550 0.99278
USER: genes 2 Torsion [C]-CA--N-[C] |==|  0.17287
USER: genes 3 Torsion [N]-C--CA-[N] |==|  0.17250
USER: genes 4 Torsion [C]-CA--N-[H2] |==|  0.17397
USER: genes 5 Torsion [C]-CA--CB-[CG] |==|  0.25366
USER: genes 6 Torsion [CA]-CB--CG-[SD] |==|  0.59782
USER: genes 7 Torsion [CB]-CG--SD-[CE] |==|  0.69235
USER: genes 8 Torsion [N]-CA--CB-[CG] |==|  0.89911
USER: genes 9 Torsion [CA]-CB--CG-[OD1] |==|  0.82450
USER: genes 10 Torsion [N]-CA--C-[N] |==|  0.34715
USER: genes 11 Torsion [N]-CA--C-[O] |==|  0.92755
ROOT
ATOM      1  CA  ASP Y   2      39.803  53.161  38.106  1.00 68.86 LIG 0.19  C 
ENDROOT
BRANCH 1 2
ATOM      2  N   ASP Y   2      38.806  52.802  37.101  1.00 67.90 LIG-0.34  N 
ATOM      3 H    ASP Y   2      38.332  53.478  36.860  1.00 67.90 LIG 0.16  HD
ATOM      4  C   MET Y   1      38.604  51.593  36.581  1.00 66.89 LIG 0.25  C 
ATOM      5 O    MET Y   1      39.195  50.553  36.937  1.00 66.99 LIG-0.27  OA
BRANCH 4 6
ATOM      6  CA  MET Y   1      37.577  51.612  35.433  1.00 65.69 LIG 0.28  C 
BRANCH 6 7
ATOM      7  N   MET Y   1      37.927  52.420  34.236  1.00 65.08 LIG-0.07  N 
ATOM      8 H2   MET Y   1      38.661  52.087  33.858  1.00 65.08 LIG 0.28  HD
ATOM      9 H1   MET Y   1      38.076  53.262  34.480  1.00 65.08 LIG 0.28  HD
ATOM     10 H3   MET Y   1      37.255  52.394  33.653  1.00 65.08 LIG 0.28  HD
ENDBRANCH 6 7
BRANCH 6 11
ATOM     11  CB  MET Y   1      37.203  50.171  35.037  1.00 64.83 LIG 0.05  C 
BRANCH 11 12
ATOM     12  CG  MET Y   1      36.007  49.655  35.793  1.00 63.52 LIG 0.08  C 
BRANCH 12 13
ATOM     13 SD   MET Y   1      36.021  47.918  36.215  1.00 62.62 LIG-0.17  SA
ATOM     14  CE  MET Y   1      34.718  47.332  35.138  1.00 61.34 LIG 0.09  C 
ENDBRANCH 12 13
ENDBRANCH 11 12
ENDBRANCH 6 11
ENDBRANCH 4 6
ENDBRANCH 1 2
BRANCH 1 15
ATOM     15  CB  ASP Y   2      39.540  52.294  39.346  1.00 68.96 LIG 0.15  C 
BRANCH 15 16
ATOM     16  CG  ASP Y   2      38.043  52.054  39.589  1.00 68.92 LIG 0.17  C 
ATOM     17 OD2  ASP Y   2      37.506  50.925  39.515  1.00 65.64 LIG-0.65  OA
ATOM     18 OD1  ASP Y   2      37.303  53.038  39.840  1.00 70.23 LIG-0.65  OA
ENDBRANCH 15 16
ENDBRANCH 1 15
BRANCH 1 19
ATOM     19  C   ASP Y   2      41.232  52.930  37.608  1.00 69.95 LIG 0.24  C 
ATOM     20 O    ASP Y   2      41.580  51.811  37.218  1.00 70.67 LIG-0.27  OA
ATOM     21  N   PRO Y   3      42.074  53.962  37.652  1.00 71.01 LIG-0.34  N 
ATOM     22  CA  PRO Y   3      43.419  53.885  37.044  1.00 71.12 LIG 0.17  C 
ATOM     23  CD  PRO Y   3      41.819  55.246  38.329  1.00 71.07 LIG 0.13  C 
ATOM     24  CB  PRO Y   3      43.974  55.308  37.174  1.00 71.47 LIG 0.04  C 
ATOM     25  CG  PRO Y   3      43.111  55.998  38.210  1.00 71.67 LIG 0.02  C 
BRANCH 22 26
ATOM     26  C   PRO Y   3      44.355  52.891  37.734  1.00 71.77 LIG 0.22  C 
ATOM     27 O    PRO Y   3      44.182  52.611  38.926  1.00 72.45 LIG-0.29  OA
ENDBRANCH 22 26
ENDBRANCH 1 19
TORSDOF 10
ENDMDL
MODEL 14
USER: ADFR SOLUTION from run 187
USER: SCORE 11.106952 LL:  -1.247 LR:  -9.942 RR:   0.000 FEB:  -6.959
USER: RMSD 2.563228
USER: SEED 186
USER: STATUS no improvement in best in 10 clusters for 5 generations
USER: GENES 12
USER: genes 0 Translation |==|  0.52133 0.59111 0.61763
USER: genes 1 Rotation |==|  0.45601 0.50720 0.46478 0.99676
USER: genes 2 Torsion [C]-CA--N-[C] |==|  0.83790
USER: genes 3 Torsion [N]-C--CA-[N] |==|  0.43814
USER: genes 4 Torsion [C]-CA--N-[H2] |==|  0.83095
USER: genes 5 Torsion [C]-CA--CB-[CG] |==|  0.39436
USER: genes 6 Torsion [CA]-CB--CG-[SD] |==|  0.58007
USER: genes 7 Torsion [CB]-CG--SD-[CE] |==|  0.54463
USER: genes 8 Torsion [N]-CA--CB-[CG] |==|  0.78358
USER: genes 9 Torsion [CA]-CB--CG-[OD1] |==|  0.70449
USER: genes 10 Torsion [N]-CA--C-[N] |==|  0.87233
USER: genes 11 Torsion [N]-CA--C-[O] |==|  0.45613
ROOT
ATOM      1  CA  ASP Y   2      39.811  52.666  39.000  1.00 68.86 LIG 0.19  C 
ENDROOT
BRANCH 1 2
ATOM      2  N   ASP Y   2      39.044  52.201  37.848  1.00 67.90 LIG-0.34  N 
ATOM      3 H    ASP Y   2      38.316  51.808  38.082  1.00 67.90 LIG 0.16  HD
ATOM      4  C   MET Y   1      39.376  52.339  36.566  1.00 66.89 LIG 0.25  C 
ATOM      5 O    MET Y   1      40.450  52.825  36.153  1.00 66.99 LIG-0.27  OA
BRANCH 4 6
ATOM      6  CA  MET Y   1      38.258  51.871  35.615  1.00 65.69 LIG 0.28  C 
BRANCH 6 7
ATOM      7  N   MET Y   1      38.279  52.424  34.236  1.00 65.08 LIG-0.07  N 
ATOM      8 H2   MET Y   1      38.199  53.310  34.270  1.00 65.08 LIG 0.28  HD
ATOM      9 H1   MET Y   1      37.603  52.083  33.769  1.00 65.08 LIG 0.28  HD
ATOM     10 H3   MET Y   1      39.048  52.211  33.842  1.00 65.08 LIG 0.28  HD
ENDBRANCH 6 7
BRANCH 6 11
ATOM     11  CB  MET Y   1      38.195  50.333  35.593  1.00 64.83 LIG 0.05  C 
BRANCH 11 12
ATOM     12  CG  MET Y   1      36.783  49.813  35.521  1.00 63.52 LIG 0.08  C 
BRANCH 12 13
ATOM     13 SD   MET Y   1      36.487  48.212  36.261  1.00 62.62 LIG-0.17  SA
ATOM     14  CE  MET Y   1      34.904  47.824  35.523  1.00 61.34 LIG 0.09  C 
ENDBRANCH 12 13
ENDBRANCH 11 12
ENDBRANCH 6 11
ENDBRANCH 4 6
ENDBRANCH 1 2
BRANCH 1 15
ATOM     15  CB  ASP Y   2      39.039  52.255  40.263  1.00 68.96 LIG 0.15  C 
BRANCH 15 16
ATOM     16  CG  ASP Y   2      37.846  53.178  40.549  1.00 68.92 LIG 0.17  C 
ATOM     17 OD2  ASP Y   2      36.799  53.184  39.861  1.00 65.64 LIG-0.65  OA
ATOM     18 OD1  ASP Y   2      37.927  53.999  41.497  1.00 70.23 LIG-0.65  OA
ENDBRANCH 15 16
ENDBRANCH 1 15
BRANCH 1 19
ATOM     19  C   ASP Y   2      41.218  52.063  39.036  1.00 69.95 LIG 0.24  C 
ATOM     20 O    ASP Y   2      42.199  52.789  39.227  1.00 70.67 LIG-0.27  OA
ATOM     21  N   PRO Y   3      41.333  50.754  38.816  1.00 71.01 LIG-0.34  N 
ATOM     22  CA  PRO Y   3      42.624  50.054  38.992  1.00 71.12 LIG 0.17  C 
ATOM     23  CD  PRO Y   3      40.257  49.870  38.334  1.00 71.07 LIG 0.13  C 
ATOM     24  CB  PRO Y   3      42.278  48.573  38.802  1.00 71.47 LIG 0.04  C 
ATOM     25  CG  PRO Y   3      40.927  48.545  38.117  1.00 71.67 LIG 0.02  C 
BRANCH 22 26
ATOM     26  C   PRO Y   3      43.699  50.476  37.989  1.00 71.77 LIG 0.22  C 
ATOM     27 O    PRO Y   3      44.884  50.194  38.203  1.00 72.45 LIG-0.29  OA
ENDBRANCH 22 26
ENDBRANCH 1 19
TORSDOF 10
ENDMDL
MODEL 15
USER: ADFR SOLUTION from run 190
USER: SCORE 11.154964 LL:  -1.520 LR:  -9.708 RR:   0.000 FEB:  -6.725
USER: RMSD 3.960322
USER: SEED 189
USER: STATUS no improvement in best in 9 clusters for 5 generations
USER: GENES 12
USER: genes 0 Translation |==|  0.46287 0.56048 0.60520
USER: genes 1 Rotation |==|  0.50693 0.35125 0.30692 0.93651
USER: genes 2 Torsion [C]-CA--N-[C] |==|  0.13939
USER: genes 3 Torsion [N]-C--CA-[N] |==|  0.77961
USER: genes 4 Torsion [C]-CA--N-[H2] |==|  0.83120
USER: genes 5 Torsion [C]-CA--CB-[CG] |==|  0.25073
USER: genes 6 Torsion [CA]-CB--CG-[SD] |==|  0.37445
USER: genes 7 Torsion [CB]-CG--SD-[CE] |==|  0.10342
USER: genes 8 Torsion [N]-CA--CB-[CG] |==|  0.63328
USER: genes 9 Torsion [CA]-CB--CG-[OD1] |==|  0.41509
USER: genes 10 Torsion [N]-CA--C-[N] |==|  0.13333
USER: genes 11 Torsion [N]-CA--C-[O] |==|  0.46150
ROOT
ATOM      1  CA  ASP Y   2      38.759  52.206  38.814  1.00 68.86 LIG 0.19  C 
ENDROOT
BRANCH 1 2
ATOM      2  N   ASP Y   2      38.830  52.162  37.356  1.00 67.90 LIG-0.34  N 
ATOM      3 H    ASP Y   2      39.215  52.859  37.031  1.00 67.90 LIG 0.16  HD
ATOM      4  C   MET Y   1      38.373  51.191  36.568  1.00 66.89 LIG 0.25  C 
ATOM      5 O    MET Y   1      37.735  50.192  36.961  1.00 66.99 LIG-0.27  OA
BRANCH 4 6
ATOM      6  CA  MET Y   1      38.759  51.400  35.092  1.00 65.69 LIG 0.28  C 
BRANCH 6 7
ATOM      7  N   MET Y   1      37.943  52.373  34.320  1.00 65.08 LIG-0.07  N 
ATOM      8 H2   MET Y   1      37.096  52.101  34.302  1.00 65.08 LIG 0.28  HD
ATOM      9 H1   MET Y   1      38.254  52.427  33.488  1.00 65.08 LIG 0.28  HD
ATOM     10 H3   MET Y   1      37.990  53.173  34.706  1.00 65.08 LIG 0.28  HD
ENDBRANCH 6 7
BRANCH 6 11
ATOM     11  CB  MET Y   1      40.260  51.728  34.982  1.00 64.83 LIG 0.05  C 
BRANCH 11 12
ATOM     12  CG  MET Y   1      41.111  50.496  34.817  1.00 63.52 LIG 0.08  C 
BRANCH 12 13
ATOM     13 SD   MET Y   1      42.385  50.571  33.566  1.00 62.62 LIG-0.17  SA
ATOM     14  CE  MET Y   1      42.901  52.273  33.759  1.00 61.34 LIG 0.09  C 
ENDBRANCH 12 13
ENDBRANCH 11 12
ENDBRANCH 6 11
ENDBRANCH 4 6
ENDBRANCH 1 2
BRANCH 1 15
ATOM     15  CB  ASP Y   2      37.287  52.424  39.197  1.00 68.96 LIG 0.15  C 
BRANCH 15 16
ATOM     16  CG  ASP Y   2      37.110  53.538  40.238  1.00 68.92 LIG 0.17  C 
ATOM     17 OD2  ASP Y   2      37.954  53.789  41.129  1.00 65.64 LIG-0.65  OA
ATOM     18 OD1  ASP Y   2      36.052  54.216  40.229  1.00 70.23 LIG-0.65  OA
ENDBRANCH 15 16
ENDBRANCH 1 15
BRANCH 1 19
ATOM     19  C   ASP Y   2      39.274  50.915  39.455  1.00 69.95 LIG 0.24  C 
ATOM     20 O    ASP Y   2      38.633  50.374  40.362  1.00 70.67 LIG-0.27  OA
ATOM     21  N   PRO Y   3      40.440  50.436  39.025  1.00 71.01 LIG-0.34  N 
ATOM     22  CA  PRO Y   3      40.940  49.115  39.462  1.00 71.12 LIG 0.17  C 
ATOM     23  CD  PRO Y   3      41.381  51.145  38.139  1.00 71.07 LIG 0.13  C 
ATOM     24  CB  PRO Y   3      42.201  48.892  38.620  1.00 71.47 LIG 0.04  C 
ATOM     25  CG  PRO Y   3      42.585  50.251  38.075  1.00 71.67 LIG 0.02  C 
BRANCH 22 26
ATOM     26  C   PRO Y   3      41.282  49.044  40.951  1.00 71.77 LIG 0.22  C 
ATOM     27 O    PRO Y   3      41.461  47.945  41.489  1.00 72.45 LIG-0.29  OA
ENDBRANCH 22 26
ENDBRANCH 1 19
TORSDOF 10
ENDMDL
MODEL 16
USER: ADFR SOLUTION from run 59
USER: SCORE 10.944388 LL:  -1.346 LR:  -9.686 RR:   0.000 FEB:  -6.703
USER: RMSD 2.978990
USER: SEED 58
USER: STATUS no improvement in best in 7 clusters for 5 generations
USER: GENES 12
USER: genes 0 Translation |==|  0.54399 0.53474 0.58392
USER: genes 1 Rotation |==|  0.30900 0.49986 0.18558 0.83861
USER: genes 2 Torsion [C]-CA--N-[C] |==|  0.77222
USER: genes 3 Torsion [N]-C--CA-[N] |==|  0.29522
USER: genes 4 Torsion [C]-CA--N-[H2] |==|  0.77847
USER: genes 5 Torsion [C]-CA--CB-[CG] |==|  0.25110
USER: genes 6 Torsion [CA]-CB--CG-[SD] |==|  0.60687
USER: genes 7 Torsion [CB]-CG--SD-[CE] |==|  0.71082
USER: genes 8 Torsion [N]-CA--CB-[CG] |==|  0.15023
USER: genes 9 Torsion [CA]-CB--CG-[OD1] |==|  0.89195
USER: genes 10 Torsion [N]-CA--C-[N] |==|  0.34135
USER: genes 11 Torsion [N]-CA--C-[O] |==|  0.49368
ROOT
ATOM      1  CA  ASP Y   2      40.219  51.820  38.495  1.00 68.86 LIG 0.19  C 
ENDROOT
BRANCH 1 2
ATOM      2  N   ASP Y   2      39.178  51.778  37.471  1.00 67.90 LIG-0.34  N 
ATOM      3 H    ASP Y   2      38.488  52.242  37.694  1.00 67.90 LIG 0.16  HD
ATOM      4  C   MET Y   1      39.229  51.121  36.314  1.00 66.89 LIG 0.25  C 
ATOM      5 O    MET Y   1      40.159  50.367  35.960  1.00 66.99 LIG-0.27  OA
BRANCH 4 6
ATOM      6  CA  MET Y   1      38.019  51.428  35.411  1.00 65.69 LIG 0.28  C 
BRANCH 6 7
ATOM      7  N   MET Y   1      38.268  52.303  34.236  1.00 65.08 LIG-0.07  N 
ATOM      8 H2   MET Y   1      38.287  53.154  34.498  1.00 65.08 LIG 0.28  HD
ATOM      9 H1   MET Y   1      37.617  52.192  33.640  1.00 65.08 LIG 0.28  HD
ATOM     10 H3   MET Y   1      39.048  52.089  33.866  1.00 65.08 LIG 0.28  HD
ENDBRANCH 6 7
BRANCH 6 11
ATOM     11  CB  MET Y   1      37.332  50.116  34.988  1.00 64.83 LIG 0.05  C 
BRANCH 11 12
ATOM     12  CG  MET Y   1      36.247  49.696  35.945  1.00 63.52 LIG 0.08  C 
BRANCH 12 13
ATOM     13 SD   MET Y   1      36.111  47.945  36.273  1.00 62.62 LIG-0.17  SA
ATOM     14  CE  MET Y   1      34.668  47.562  35.288  1.00 61.34 LIG 0.09  C 
ENDBRANCH 12 13
ENDBRANCH 11 12
ENDBRANCH 6 11
ENDBRANCH 4 6
ENDBRANCH 1 2
BRANCH 1 15
ATOM     15  CB  ASP Y   2      39.992  53.089  39.330  1.00 68.96 LIG 0.15  C 
BRANCH 15 16
ATOM     16  CG  ASP Y   2      38.567  53.174  39.895  1.00 68.92 LIG 0.17  C 
ATOM     17 OD2  ASP Y   2      38.309  53.567  41.056  1.00 65.64 LIG-0.65  OA
ATOM     18 OD1  ASP Y   2      37.606  52.799  39.178  1.00 70.23 LIG-0.65  OA
ENDBRANCH 15 16
ENDBRANCH 1 15
BRANCH 1 19
ATOM     19  C   ASP Y   2      40.182  50.589  39.404  1.00 69.95 LIG 0.24  C 
ATOM     20 O    ASP Y   2      39.165  50.329  40.056  1.00 70.67 LIG-0.27  OA
ATOM     21  N   PRO Y   3      41.288  49.852  39.488  1.00 71.01 LIG-0.34  N 
ATOM     22  CA  PRO Y   3      41.301  48.559  40.206  1.00 71.12 LIG 0.17  C 
ATOM     23  CD  PRO Y   3      42.609  50.227  38.951  1.00 71.07 LIG 0.13  C 
ATOM     24  CB  PRO Y   3      42.692  47.983  39.920  1.00 71.47 LIG 0.04  C 
ATOM     25  CG  PRO Y   3      43.531  49.143  39.426  1.00 71.67 LIG 0.02  C 
BRANCH 22 26
ATOM     26  C   PRO Y   3      41.085  48.688  41.715  1.00 71.77 LIG 0.22  C 
ATOM     27 O    PRO Y   3      41.033  47.671  42.417  1.00 72.45 LIG-0.29  OA
ENDBRANCH 22 26
ENDBRANCH 1 19
TORSDOF 10
ENDMDL
MODEL 17
USER: ADFR SOLUTION from run 13
USER: SCORE 10.889448 LL:  -1.592 LR:  -9.666 RR:   0.000 FEB:  -6.683
USER: RMSD 3.985620
USER: SEED 910698
USER: STATUS no improvement in best in 9 clusters for 5 generations
USER: GENES 12
USER: genes 0 Translation |==|  0.56761 0.52552 0.53184
USER: genes 1 Rotation |==|  0.71870 0.59289 0.73549 0.87160
USER: genes 2 Torsion [C]-CA--N-[C] |==|  0.71697
USER: genes 3 Torsion [N]-C--CA-[N] |==|  0.81302
USER: genes 4 Torsion [C]-CA--N-[H2] |==|  0.89463
USER: genes 5 Torsion [C]-CA--CB-[CG] |==|  0.31348
USER: genes 6 Torsion [CA]-CB--CG-[SD] |==|  0.64322
USER: genes 7 Torsion [CB]-CG--SD-[CE] |==|  0.57126
USER: genes 8 Torsion [N]-CA--CB-[CG] |==|  0.97947
USER: genes 9 Torsion [CA]-CB--CG-[OD1] |==|  0.71672
USER: genes 10 Torsion [N]-CA--C-[N] |==|  0.85003
USER: genes 11 Torsion [N]-CA--C-[O] |==|  0.67182
ROOT
ATOM      1  CA  ASP Y   2      40.644  51.682  37.714  1.00 68.86 LIG 0.19  C 
ENDROOT
BRANCH 1 2
ATOM      2  N   ASP Y   2      39.648  51.631  36.647  1.00 67.90 LIG-0.34  N 
ATOM      3 H    ASP Y   2      39.980  51.334  35.910  1.00 67.90 LIG 0.16  HD
ATOM      4  C   MET Y   1      38.368  51.986  36.738  1.00 66.89 LIG 0.25  C 
ATOM      5 O    MET Y   1      37.838  52.498  37.746  1.00 66.99 LIG-0.27  OA
BRANCH 4 6
ATOM      6  CA  MET Y   1      37.573  51.652  35.462  1.00 65.69 LIG 0.28  C 
BRANCH 6 7
ATOM      7  N   MET Y   1      37.925  52.415  34.236  1.00 65.08 LIG-0.07  N 
ATOM      8 H2   MET Y   1      38.107  53.259  34.454  1.00 65.08 LIG 0.28  HD
ATOM      9 H1   MET Y   1      37.240  52.397  33.669  1.00 65.08 LIG 0.28  HD
ATOM     10 H3   MET Y   1      38.638  52.047  33.852  1.00 65.08 LIG 0.28  HD
ENDBRANCH 6 7
BRANCH 6 11
ATOM     11  CB  MET Y   1      37.613  50.135  35.199  1.00 64.83 LIG 0.05  C 
BRANCH 11 12
ATOM     12  CG  MET Y   1      36.264  49.484  35.358  1.00 63.52 LIG 0.08  C 
BRANCH 12 13
ATOM     13 SD   MET Y   1      36.193  48.054  36.428  1.00 62.62 LIG-0.17  SA
ATOM     14  CE  MET Y   1      34.771  47.222  35.730  1.00 61.34 LIG 0.09  C 
ENDBRANCH 12 13
ENDBRANCH 11 12
ENDBRANCH 6 11
ENDBRANCH 4 6
ENDBRANCH 1 2
BRANCH 1 15
ATOM     15  CB  ASP Y   2      41.467  50.387  37.638  1.00 68.96 LIG 0.15  C 
BRANCH 15 16
ATOM     16  CG  ASP Y   2      40.896  49.386  36.623  1.00 68.92 LIG 0.17  C 
ATOM     17 OD2  ASP Y   2      41.031  49.509  35.384  1.00 65.64 LIG-0.65  OA
ATOM     18 OD1  ASP Y   2      40.227  48.410  37.043  1.00 70.23 LIG-0.65  OA
ENDBRANCH 15 16
ENDBRANCH 1 15
BRANCH 1 19
ATOM     19  C   ASP Y   2      41.572  52.892  37.578  1.00 69.95 LIG 0.24  C 
ATOM     20 O    ASP Y   2      41.686  53.694  38.512  1.00 70.67 LIG-0.27  OA
ATOM     21  N   PRO Y   3      42.203  53.057  36.417  1.00 71.01 LIG-0.34  N 
ATOM     22  CA  PRO Y   3      43.241  54.096  36.245  1.00 71.12 LIG 0.17  C 
ATOM     23  CD  PRO Y   3      41.932  52.302  35.181  1.00 71.07 LIG 0.13  C 
ATOM     24  CB  PRO Y   3      43.809  53.834  34.846  1.00 71.47 LIG 0.04  C 
ATOM     25  CG  PRO Y   3      42.795  52.956  34.142  1.00 71.67 LIG 0.02  C 
BRANCH 22 26
ATOM     26  C   PRO Y   3      42.706  55.526  36.336  1.00 71.77 LIG 0.22  C 
ATOM     27 O    PRO Y   3      42.802  56.281  35.361  1.00 72.45 LIG-0.29  OA
ENDBRANCH 22 26
ENDBRANCH 1 19
TORSDOF 10
ENDMDL
MODEL 18
USER: ADFR SOLUTION from run 35
USER: SCORE 10.920635 LL:  -1.402 LR:  -9.608 RR:   0.000 FEB:  -6.625
USER: RMSD 4.491907
USER: SEED 34
USER: STATUS no improvement in best in 7 clusters for 5 generations
USER: GENES 12
USER: genes 0 Translation |==|  0.62226 0.56560 0.43376
USER: genes 1 Rotation |==|  0.20381 0.52554 0.21241 0.78091
USER: genes 2 Torsion [C]-CA--N-[C] |==|  0.13340
USER: genes 3 Torsion [N]-C--CA-[N] |==|  0.87237
USER: genes 4 Torsion [C]-CA--N-[H2] |==|  0.89638
USER: genes 5 Torsion [C]-CA--CB-[CG] |==|  0.34345
USER: genes 6 Torsion [CA]-CB--CG-[SD] |==|  0.55516
USER: genes 7 Torsion [CB]-CG--SD-[CE] |==|  0.63615
USER: genes 8 Torsion [N]-CA--CB-[CG] |==|  0.64426
USER: genes 9 Torsion [CA]-CB--CG-[OD1] |==|  0.40166
USER: genes 10 Torsion [N]-CA--C-[N] |==|  0.13261
USER: genes 11 Torsion [N]-CA--C-[O] |==|  0.56052
ROOT
ATOM      1  CA  ASP Y   2      41.628  52.283  36.242  1.00 68.86 LIG 0.19  C 
ENDROOT
BRANCH 1 2
ATOM      2  N   ASP Y   2      40.275  52.132  35.713  1.00 67.90 LIG-0.34  N 
ATOM      3 H    ASP Y   2      40.272  52.032  34.859  1.00 67.90 LIG 0.16  HD
ATOM      4  C   MET Y   1      39.143  52.140  36.414  1.00 66.89 LIG 0.25  C 
ATOM      5 O    MET Y   1      39.063  52.359  37.641  1.00 66.99 LIG-0.27  OA
BRANCH 4 6
ATOM      6  CA  MET Y   1      37.915  51.796  35.551  1.00 65.69 LIG 0.28  C 
BRANCH 6 7
ATOM      7  N   MET Y   1      37.809  52.481  34.236  1.00 65.08 LIG-0.07  N 
ATOM      8 H2   MET Y   1      38.101  53.318  34.314  1.00 65.08 LIG 0.28  HD
ATOM      9 H1   MET Y   1      36.960  52.486  33.971  1.00 65.08 LIG 0.28  HD
ATOM     10 H3   MET Y   1      38.304  52.049  33.636  1.00 65.08 LIG 0.28  HD
ENDBRANCH 6 7
BRANCH 6 11
ATOM     11  CB  MET Y   1      37.795  50.269  35.389  1.00 64.83 LIG 0.05  C 
BRANCH 11 12
ATOM     12  CG  MET Y   1      36.462  49.741  35.851  1.00 63.52 LIG 0.08  C 
BRANCH 12 13
ATOM     13 SD   MET Y   1      36.387  47.996  36.233  1.00 62.62 LIG-0.17  SA
ATOM     14  CE  MET Y   1      34.923  47.545  35.310  1.00 61.34 LIG 0.09  C 
ENDBRANCH 12 13
ENDBRANCH 11 12
ENDBRANCH 6 11
ENDBRANCH 4 6
ENDBRANCH 1 2
BRANCH 1 15
ATOM     15  CB  ASP Y   2      41.800  53.753  36.652  1.00 68.96 LIG 0.15  C 
BRANCH 15 16
ATOM     16  CG  ASP Y   2      43.059  54.389  36.044  1.00 68.92 LIG 0.17  C 
ATOM     17 OD2  ASP Y   2      44.141  53.774  35.902  1.00 65.64 LIG-0.65  OA
ATOM     18 OD1  ASP Y   2      43.024  55.597  35.700  1.00 70.23 LIG-0.65  OA
ENDBRANCH 15 16
ENDBRANCH 1 15
BRANCH 1 19
ATOM     19  C   ASP Y   2      41.878  51.377  37.451  1.00 69.95 LIG 0.24  C 
ATOM     20 O    ASP Y   2      42.429  51.827  38.461  1.00 70.67 LIG-0.27  OA
ATOM     21  N   PRO Y   3      41.516  50.099  37.348  1.00 71.01 LIG-0.34  N 
ATOM     22  CA  PRO Y   3      41.564  49.188  38.512  1.00 71.12 LIG 0.17  C 
ATOM     23  CD  PRO Y   3      41.091  49.428  36.107  1.00 71.07 LIG 0.13  C 
ATOM     24  CB  PRO Y   3      40.922  47.893  38.003  1.00 71.47 LIG 0.04  C 
ATOM     25  CG  PRO Y   3      40.935  47.986  36.492  1.00 71.67 LIG 0.02  C 
BRANCH 22 26
ATOM     26  C   PRO Y   3      42.979  48.909  39.021  1.00 71.77 LIG 0.22  C 
ATOM     27 O    PRO Y   3      43.201  47.894  39.691  1.00 72.45 LIG-0.29  OA
ENDBRANCH 22 26
ENDBRANCH 1 19
TORSDOF 10
ENDMDL
MODEL 19
USER: ADFR SOLUTION from run 48
USER: SCORE 10.727481 LL:  -1.297 LR:  -9.568 RR:   0.000 FEB:  -6.585
USER: RMSD 4.042446
USER: SEED 47
USER: STATUS no improvement in best in 11 clusters for 5 generations
USER: GENES 12
USER: genes 0 Translation |==|  0.61448 0.64959 0.44634
USER: genes 1 Rotation |==|  0.17263 0.50258 0.26805 0.79837
USER: genes 2 Torsion [C]-CA--N-[C] |==|  0.84680
USER: genes 3 Torsion [N]-C--CA-[N] |==|  0.16055
USER: genes 4 Torsion [C]-CA--N-[H2] |==|  0.77601
USER: genes 5 Torsion [C]-CA--CB-[CG] |==|  0.39043
USER: genes 6 Torsion [CA]-CB--CG-[SD] |==|  0.55113
USER: genes 7 Torsion [CB]-CG--SD-[CE] |==|  0.64381
USER: genes 8 Torsion [N]-CA--CB-[CG] |==|  0.56493
USER: genes 9 Torsion [CA]-CB--CG-[OD1] |==|  0.77986
USER: genes 10 Torsion [N]-CA--C-[N] |==|  0.33889
USER: genes 11 Torsion [N]-CA--C-[O] |==|  0.42311
ROOT
ATOM      1  CA  ASP Y   2      41.488  53.543  36.431  1.00 68.86 LIG 0.19  C 
ENDROOT
BRANCH 1 2
ATOM      2  N   ASP Y   2      40.146  53.055  36.127  1.00 67.90 LIG-0.34  N 
ATOM      3 H    ASP Y   2      39.566  53.691  36.113  1.00 67.90 LIG 0.16  HD
ATOM      4  C   MET Y   1      39.795  51.793  35.889  1.00 66.89 LIG 0.25  C 
ATOM      5 O    MET Y   1      40.561  50.810  35.969  1.00 66.99 LIG-0.27  OA
BRANCH 4 6
ATOM      6  CA  MET Y   1      38.325  51.664  35.448  1.00 65.69 LIG 0.28  C 
BRANCH 6 7
ATOM      7  N   MET Y   1      37.922  52.425  34.236  1.00 65.08 LIG-0.07  N 
ATOM      8 H2   MET Y   1      37.770  53.274  34.456  1.00 65.08 LIG 0.28  HD
ATOM      9 H1   MET Y   1      37.181  52.070  33.895  1.00 65.08 LIG 0.28  HD
ATOM     10 H3   MET Y   1      38.574  52.387  33.632  1.00 65.08 LIG 0.28  HD
ENDBRANCH 6 7
BRANCH 6 11
ATOM     11  CB  MET Y   1      37.941  50.178  35.320  1.00 64.83 LIG 0.05  C 
BRANCH 11 12
ATOM     12  CG  MET Y   1      36.550  49.894  35.823  1.00 63.52 LIG 0.08  C 
BRANCH 12 13
ATOM     13 SD   MET Y   1      36.175  48.189  36.204  1.00 62.62 LIG-0.17  SA
ATOM     14  CE  MET Y   1      34.669  47.990  35.259  1.00 61.34 LIG 0.09  C 
ENDBRANCH 12 13
ENDBRANCH 11 12
ENDBRANCH 6 11
ENDBRANCH 4 6
ENDBRANCH 1 2
BRANCH 1 15
ATOM     15  CB  ASP Y   2      41.374  55.045  36.731  1.00 68.96 LIG 0.15  C 
BRANCH 15 16
ATOM     16  CG  ASP Y   2      42.698  55.791  36.506  1.00 68.92 LIG 0.17  C 
ATOM     17 OD2  ASP Y   2      42.955  56.438  35.465  1.00 65.64 LIG-0.65  OA
ATOM     18 OD1  ASP Y   2      43.589  55.726  37.388  1.00 70.23 LIG-0.65  OA
ENDBRANCH 15 16
ENDBRANCH 1 15
BRANCH 1 19
ATOM     19  C   ASP Y   2      42.104  52.821  37.633  1.00 69.95 LIG 0.24  C 
ATOM     20 O    ASP Y   2      41.551  52.869  38.736  1.00 70.67 LIG-0.27  OA
ATOM     21  N   PRO Y   3      43.260  52.188  37.443  1.00 71.01 LIG-0.34  N 
ATOM     22  CA  PRO Y   3      43.849  51.328  38.493  1.00 71.12 LIG 0.17  C 
ATOM     23  CD  PRO Y   3      44.107  52.292  36.241  1.00 71.07 LIG 0.13  C 
ATOM     24  CB  PRO Y   3      45.060  50.680  37.814  1.00 71.47 LIG 0.04  C 
ATOM     25  CG  PRO Y   3      45.343  51.514  36.581  1.00 71.67 LIG 0.02  C 
BRANCH 22 26
ATOM     26  C   PRO Y   3      44.292  52.092  39.742  1.00 71.77 LIG 0.22  C 
ATOM     27 O    PRO Y   3      44.311  51.520  40.838  1.00 72.45 LIG-0.29  OA
ENDBRANCH 22 26
ENDBRANCH 1 19
TORSDOF 10
ENDMDL
MODEL 20
USER: ADFR SOLUTION from run 24
USER: SCORE 10.811948 LL:  -1.383 LR:  -9.507 RR:   0.000 FEB:  -6.524
USER: RMSD 1.439421
USER: SEED 23
USER: STATUS no improvement in best in 6 clusters for 5 generations
USER: GENES 12
USER: genes 0 Translation |==|  0.49186 0.55190 0.61807
USER: genes 1 Rotation |==|  0.45625 0.48878 0.39668 0.98712
USER: genes 2 Torsion [C]-CA--N-[C] |==|  0.83946
USER: genes 3 Torsion [N]-C--CA-[N] |==|  0.39355
USER: genes 4 Torsion [C]-CA--N-[H2] |==|  0.81899
USER: genes 5 Torsion [C]-CA--CB-[CG] |==|  0.34012
USER: genes 6 Torsion [CA]-CB--CG-[SD] |==|  0.62172
USER: genes 7 Torsion [CB]-CG--SD-[CE] |==|  0.58323
USER: genes 8 Torsion [N]-CA--CB-[CG] |==|  0.76555
USER: genes 9 Torsion [CA]-CB--CG-[OD1] |==|  0.73261
USER: genes 10 Torsion [N]-CA--C-[N] |==|  0.34445
USER: genes 11 Torsion [N]-CA--C-[O] |==|  0.39805
ROOT
ATOM      1  CA  ASP Y   2      39.281  52.078  39.007  1.00 68.86 LIG 0.19  C 
ENDROOT
BRANCH 1 2
ATOM      2  N   ASP Y   2      38.530  51.804  37.785  1.00 67.90 LIG-0.34  N 
ATOM      3 H    ASP Y   2      37.703  51.629  37.946  1.00 67.90 LIG 0.16  HD
ATOM      4  C   MET Y   1      39.009  51.808  36.542  1.00 66.89 LIG 0.25  C 
ATOM      5 O    MET Y   1      40.208  51.972  36.238  1.00 66.99 LIG-0.27  OA
BRANCH 4 6
ATOM      6  CA  MET Y   1      37.902  51.632  35.485  1.00 65.69 LIG 0.28  C 
BRANCH 6 7
ATOM      7  N   MET Y   1      38.039  52.425  34.236  1.00 65.08 LIG-0.07  N 
ATOM      8 H2   MET Y   1      37.972  53.292  34.426  1.00 65.08 LIG 0.28  HD
ATOM      9 H1   MET Y   1      37.394  52.196  33.667  1.00 65.08 LIG 0.28  HD
ATOM     10 H3   MET Y   1      38.831  52.262  33.867  1.00 65.08 LIG 0.28  HD
ENDBRANCH 6 7
BRANCH 6 11
ATOM     11  CB  MET Y   1      37.705  50.137  35.173  1.00 64.83 LIG 0.05  C 
BRANCH 11 12
ATOM     12  CG  MET Y   1      36.292  49.676  35.419  1.00 63.52 LIG 0.08  C 
BRANCH 12 13
ATOM     13 SD   MET Y   1      36.102  48.111  36.262  1.00 62.62 LIG-0.17  SA
ATOM     14  CE  MET Y   1      34.552  47.568  35.552  1.00 61.34 LIG 0.09  C 
ENDBRANCH 12 13
ENDBRANCH 11 12
ENDBRANCH 6 11
ENDBRANCH 4 6
ENDBRANCH 1 2
BRANCH 1 15
ATOM     15  CB  ASP Y   2      38.312  51.915  40.188  1.00 68.96 LIG 0.15  C 
BRANCH 15 16
ATOM     16  CG  ASP Y   2      37.495  53.187  40.457  1.00 68.92 LIG 0.17  C 
ATOM     17 OD2  ASP Y   2      36.464  53.492  39.815  1.00 65.64 LIG-0.65  OA
ATOM     18 OD1  ASP Y   2      37.892  53.989  41.339  1.00 70.23 LIG-0.65  OA
ENDBRANCH 15 16
ENDBRANCH 1 15
BRANCH 1 19
ATOM     19  C   ASP Y   2      40.468  51.127  39.179  1.00 69.95 LIG 0.24  C 
ATOM     20 O    ASP Y   2      40.285  49.906  39.216  1.00 70.67 LIG-0.27  OA
ATOM     21  N   PRO Y   3      41.676  51.670  39.324  1.00 71.01 LIG-0.34  N 
ATOM     22  CA  PRO Y   3      42.899  50.839  39.331  1.00 71.12 LIG 0.17  C 
ATOM     23  CD  PRO Y   3      41.949  53.102  39.544  1.00 71.07 LIG 0.13  C 
ATOM     24  CB  PRO Y   3      44.045  51.856  39.353  1.00 71.47 LIG 0.04  C 
ATOM     25  CG  PRO Y   3      43.429  53.171  39.783  1.00 71.67 LIG 0.02  C 
BRANCH 22 26
ATOM     26  C   PRO Y   3      43.004  49.902  40.535  1.00 71.77 LIG 0.22  C 
ATOM     27 O    PRO Y   3      43.490  48.774  40.395  1.00 72.45 LIG-0.29  OA
ENDBRANCH 22 26
ENDBRANCH 1 19
TORSDOF 10
ENDMDL
