MODEL 1
USER: ADFR SOLUTION from run 138
USER: SCORE 19.951223 LL:  -5.767 LR: -15.398 RR:   0.000 FEB:  -9.731
USER: RMSD 2.301444
USER: SEED 137
USER: STATUS no improvement in best in 3 clusters for 5 generations
USER: GENES 21
USER: genes 0 Translation |==|  0.53929 0.57621 0.47786
USER: genes 1 Rotation |==|  0.42222 0.52701 0.51403 0.99298
USER: genes 2 Torsion [CB]-CA--N-[C] |==|  0.28118
USER: genes 3 Torsion [N]-C--CA-[N] |==|  0.39613
USER: genes 4 Torsion [C]-CA--N-[C] |==|  0.83321
USER: genes 5 Torsion [N]-C--CA-[N] |==|  0.51424
USER: genes 6 Torsion [C]-CA--CB-[CG] |==|  0.29123
USER: genes 7 Torsion [CA]-CB--CG-[SD] |==|  0.18937
USER: genes 8 Torsion [CB]-CG--SD-[CE] |==|  0.12299
USER: genes 9 Torsion [C]-CA--CB-[CG] |==|  0.09201
USER: genes 10 Torsion [CA]-CB--CG-[CD2] |==|  0.76657
USER: genes 11 Torsion [N]-CA--CB-[CG] |==|  0.96062
USER: genes 12 Torsion [CA]-CB--CG-[CD] |==|  0.49308
USER: genes 13 Torsion [CB]-CG--CD-[NE] |==|  0.37548
USER: genes 14 Torsion [CG]-CD--NE-[CZ] |==|  0.33176
USER: genes 15 Torsion [N]-CA--C-[N] |==|  0.35607
USER: genes 16 Torsion [N]-CA--C-[O] |==|  0.49565
USER: genes 17 Torsion [C]-N--CA-[CB] |==|  0.42091
USER: genes 18 Torsion [N]-CA--CB-[CG] |==|  0.99500
USER: genes 19 Torsion [CA]-CB--CG-[CD2] |==|  0.78478
USER: genes 20 Torsion [N]-CA--C-[O] |==|  0.58307
ROOT
ATOM      1  CA  ARG X   4     -20.540 -10.990  38.279  1.00 29.51 LIG 0.18  C 
ENDROOT
BRANCH 1 2
ATOM      2  N   ARG X   4     -20.890 -11.485  36.951  1.00 29.26 LIG-0.35  N 
ATOM      3  C   TRP X   3     -21.903 -10.979  36.223  1.00 30.37 LIG 0.24  C 
ATOM      4 O    TRP X   3     -22.612 -10.021  36.599  1.00 30.38 LIG-0.27  OA
ATOM      5 H    ARG X   4     -20.390 -12.129  36.677  1.00 29.26 LIG 0.16  HD
BRANCH 3 6
ATOM      6  CA  TRP X   3     -22.153 -11.637  34.850  1.00 30.62 LIG 0.18  C 
BRANCH 6 7
ATOM      7  N   TRP X   3     -23.586 -11.733  34.523  1.00 31.45 LIG-0.34  N 
ATOM      8 H    TRP X   3     -23.834 -11.322  33.810  1.00 31.45 LIG 0.16  HD
ATOM      9  C   MET X   2     -24.386 -12.429  35.330  1.00 32.92 LIG 0.26  C 
ATOM     10 O    MET X   2     -23.963 -13.059  36.280  1.00 32.35 LIG-0.27  OA
BRANCH 9 11
ATOM     11  CA  MET X   2     -25.857 -12.467  35.023  1.00 34.28 LIG 0.40  C 
ATOM     12  N   MET X   2     -26.634 -13.194  36.103  1.00 35.36 LIG 0.61  N 
BRANCH 11 13
ATOM     13  CB  MET X   2     -26.363 -11.040  34.885  1.00 35.71 LIG 0.06  C 
BRANCH 13 14
ATOM     14  CG  MET X   2     -26.624 -10.601  33.470  1.00 37.62 LIG 0.08  C 
BRANCH 14 15
ATOM     15 SD   MET X   2     -28.005 -11.380  32.590  1.00 39.06 LIG-0.17  SA
ATOM     16  CE  MET X   2     -29.298 -11.351  33.870  1.00 45.88 LIG 0.09  C 
ENDBRANCH 14 15
ENDBRANCH 13 14
ENDBRANCH 11 13
ENDBRANCH 9 11
ENDBRANCH 6 7
BRANCH 6 17
ATOM     17  CB  TRP X   3     -21.351 -10.937  33.751  1.00 29.85 LIG 0.07  C 
BRANCH 17 18
ATOM     18  CG  TRP X   3     -20.032 -10.412  34.249  1.00 29.58 LIG-0.03  A 
ATOM     19  CD1 TRP X   3     -18.819 -11.039  34.156  1.00 26.84 LIG 0.10  A 
ATOM     20  NE1 TRP X   3     -17.850 -10.258  34.728  1.00 29.47 LIG-0.36  N 
ATOM     21 HE1  TRP X   3     -17.016 -10.463  34.784  1.00 29.47 LIG 0.17  HD
ATOM     22  CE2 TRP X   3     -18.413  -9.093  35.199  1.00 27.62 LIG 0.04  A 
ATOM     23  CZ2 TRP X   3     -17.819  -7.980  35.867  1.00 28.85 LIG 0.03  A 
ATOM     24  CD2 TRP X   3     -19.794  -9.155  34.916  1.00 25.33 LIG-0.00  A 
ATOM     25  CH2 TRP X   3     -18.658  -6.921  36.237  1.00 28.18 LIG 0.00  A 
ATOM     26  CZ3 TRP X   3     -20.039  -6.973  35.974  1.00 26.79 LIG 0.00  A 
ATOM     27  CE3 TRP X   3     -20.618  -8.095  35.327  1.00 25.86 LIG 0.01  A 
ENDBRANCH 17 18
ENDBRANCH 6 17
ENDBRANCH 3 6
ENDBRANCH 1 2
BRANCH 1 28
ATOM     28  CB  ARG X   4     -21.078 -11.914  39.391  1.00 29.55 LIG 0.04  C 
BRANCH 28 29
ATOM     29  CG  ARG X   4     -22.122 -12.925  38.922  1.00 28.17 LIG 0.02  C 
BRANCH 29 30
ATOM     30  CD  ARG X   4     -22.545 -13.833  40.087  1.00 27.09 LIG 0.14  C 
BRANCH 30 31
ATOM     31  NE  ARG X   4     -23.998 -13.976  40.098  1.00 25.46 LIG-0.23  N 
ATOM     32 HE   ARG X   4     -24.477 -13.269  40.195  1.00 25.46 LIG 0.18  HD
ATOM     33  CZ  ARG X   4     -24.620 -15.149  39.964  1.00 27.27 LIG 0.67  C 
ATOM     34  NH2 ARG X   4     -25.949 -15.217  39.973  1.00 24.12 LIG-0.23  N 
ATOM     35  NH1 ARG X   4     -23.899 -16.260  39.838  1.00 21.32 LIG-0.23  N 
ATOM     36 1HH2 ARG X   4     -26.415 -14.501  40.066  1.00 24.12 LIG 0.17  HD
ATOM     37 2HH2 ARG X   4     -26.342 -15.977  39.886  1.00 24.12 LIG 0.17  HD
ATOM     38 2HH1 ARG X   4     -24.291 -17.020  39.752  1.00 21.32 LIG 0.17  HD
ATOM     39 1HH1 ARG X   4     -23.040 -16.218  39.842  1.00 21.32 LIG 0.17  HD
ENDBRANCH 30 31
ENDBRANCH 29 30
ENDBRANCH 28 29
ENDBRANCH 1 28
BRANCH 1 40
ATOM     40  C   ARG X   4     -19.036 -10.942  38.368  1.00 30.38 LIG 0.24  C 
ATOM     41 O    ARG X   4     -18.394 -11.943  38.094  1.00 31.87 LIG-0.27  OA
ATOM     42  N   PRO X   5     -18.467  -9.794  38.767  1.00 30.60 LIG-0.34  N 
ATOM     43  CA  PRO X   5     -17.000  -9.610  38.695  1.00 31.31 LIG 0.18  C 
ATOM     44  CD  PRO X   5     -19.180  -8.579  39.247  1.00 29.99 LIG 0.13  C 
ATOM     45  CB  PRO X   5     -16.835  -8.095  38.846  1.00 30.70 LIG 0.04  C 
ATOM     46  CG  PRO X   5     -18.082  -7.630  39.655  1.00 29.42 LIG 0.02  C 
BRANCH 43 47
ATOM     47  C   PRO X   5     -16.115 -10.332  39.750  1.00 32.23 LIG 0.24  C 
ATOM     48 O    PRO X   5     -14.853 -10.224  39.705  1.00 32.23 LIG-0.27  OA
ATOM     49  N   TRP X   6     -16.747 -11.031  40.689  1.00 33.50 LIG-0.34  N 
ATOM     50 H    TRP X   6     -17.594 -11.183  40.692  1.00 33.50 LIG 0.16  HD
BRANCH 49 51
ATOM     51  CA  TRP X   6     -16.014 -11.610  41.823  1.00 34.66 LIG 0.19  C 
BRANCH 51 52
ATOM     52  CB  TRP X   6     -16.945 -11.716  43.048  1.00 34.41 LIG 0.08  C 
BRANCH 52 53
ATOM     53  CG  TRP X   6     -18.344 -11.175  42.820  1.00 32.39 LIG-0.03  A 
ATOM     54  CD2 TRP X   6     -18.754  -9.789  42.797  1.00 31.68 LIG-0.00  A 
ATOM     55  CE2 TRP X   6     -20.145  -9.775  42.570  1.00 33.29 LIG 0.04  A 
ATOM     56  CE3 TRP X   6     -18.079  -8.569  42.934  1.00 33.66 LIG 0.01  A 
ATOM     57  CZ2 TRP X   6     -20.873  -8.583  42.450  1.00 33.18 LIG 0.03  A 
ATOM     58  NE1 TRP X   6     -20.555 -11.081  42.449  1.00 30.87 LIG-0.36  N 
ATOM     59  CH2 TRP X   6     -20.198  -7.412  42.585  1.00 32.36 LIG 0.00  A 
ATOM     60  CZ3 TRP X   6     -18.810  -7.388  42.842  1.00 32.37 LIG 0.00  A 
ATOM     61 HE1  TRP X   6     -21.361 -11.339  42.295  1.00 30.87 LIG 0.17  HD
ATOM     62  CD1 TRP X   6     -19.474 -11.906  42.615  1.00 30.01 LIG 0.10  A 
ENDBRANCH 52 53
ENDBRANCH 51 52
BRANCH 51 63
ATOM     63  C   TRP X   6     -15.374 -12.974  41.495  1.00 36.76 LIG 0.20  C 
ATOM     64 O    TRP X   6     -15.182 -13.881  42.324  1.00 37.86 LIG-0.65  OA
ATOM     65 OXT  TRP X   6     -14.990 -13.226  40.346  1.00 39.11 LIG-0.65  OA
ENDBRANCH 51 63
ENDBRANCH 49 51
ENDBRANCH 43 47
ENDBRANCH 1 40
TORSDOF 19
ENDMDL
MODEL 2
USER: ADFR SOLUTION from run 2
USER: SCORE 20.876878 LL:  -6.470 LR: -14.827 RR:   0.000 FEB:  -9.159
USER: RMSD 2.977957
USER: SEED 309583
USER: STATUS no improvement in best in 2 clusters for 5 generations
USER: GENES 21
USER: genes 0 Translation |==|  0.56384 0.55209 0.48164
USER: genes 1 Rotation |==|  0.63265 0.44843 0.43918 0.97544
USER: genes 2 Torsion [CB]-CA--N-[C] |==|  0.14717
USER: genes 3 Torsion [N]-C--CA-[N] |==|  0.35556
USER: genes 4 Torsion [C]-CA--N-[C] |==|  0.66868
USER: genes 5 Torsion [N]-C--CA-[N] |==|  0.45968
USER: genes 6 Torsion [C]-CA--CB-[CG] |==|  0.20130
USER: genes 7 Torsion [CA]-CB--CG-[SD] |==|  0.70573
USER: genes 8 Torsion [CB]-CG--SD-[CE] |==|  0.47888
USER: genes 9 Torsion [C]-CA--CB-[CG] |==|  0.17536
USER: genes 10 Torsion [CA]-CB--CG-[CD2] |==|  0.65287
USER: genes 11 Torsion [N]-CA--CB-[CG] |==|  0.65718
USER: genes 12 Torsion [CA]-CB--CG-[CD] |==|  0.62036
USER: genes 13 Torsion [CB]-CG--CD-[NE] |==|  0.60903
USER: genes 14 Torsion [CG]-CD--NE-[CZ] |==|  0.39866
USER: genes 15 Torsion [N]-CA--C-[N] |==|  0.16060
USER: genes 16 Torsion [N]-CA--C-[O] |==|  0.56737
USER: genes 17 Torsion [C]-N--CA-[CB] |==|  0.43292
USER: genes 18 Torsion [N]-CA--CB-[CG] |==|  0.94891
USER: genes 19 Torsion [CA]-CB--CG-[CD2] |==|  0.83946
USER: genes 20 Torsion [N]-CA--C-[O] |==|  0.07960
ROOT
ATOM      1  CA  ARG X   4     -20.024 -11.460  38.350  1.00 29.51 LIG 0.18  C 
ENDROOT
BRANCH 1 2
ATOM      2  N   ARG X   4     -19.858 -10.742  37.089  1.00 29.26 LIG-0.35  N 
ATOM      3  C   TRP X   3     -20.888 -10.197  36.415  1.00 30.37 LIG 0.24  C 
ATOM      4 O    TRP X   3     -22.070 -10.225  36.819  1.00 30.38 LIG-0.27  OA
ATOM      5 H    ARG X   4     -19.043 -10.699  36.819  1.00 29.26 LIG 0.16  HD
BRANCH 3 6
ATOM      6  CA  TRP X   3     -20.539  -9.495  35.086  1.00 30.62 LIG 0.18  C 
BRANCH 6 7
ATOM      7  N   TRP X   3     -21.363  -9.972  33.963  1.00 31.45 LIG-0.34  N 
ATOM      8 H    TRP X   3     -22.210  -9.851  34.044  1.00 31.45 LIG 0.16  HD
ATOM      9  C   MET X   2     -20.763 -10.544  32.920  1.00 32.92 LIG 0.26  C 
ATOM     10 O    MET X   2     -19.552 -10.612  32.823  1.00 32.35 LIG-0.27  OA
BRANCH 9 11
ATOM     11  CA  MET X   2     -21.618 -11.085  31.808  1.00 34.28 LIG 0.40  C 
ATOM     12  N   MET X   2     -20.800 -11.373  30.565  1.00 35.36 LIG 0.61  N 
BRANCH 11 13
ATOM     13  CB  MET X   2     -22.300 -12.354  32.292  1.00 35.71 LIG 0.06  C 
BRANCH 13 14
ATOM     14  CG  MET X   2     -23.405 -12.132  33.289  1.00 37.62 LIG 0.08  C 
BRANCH 14 15
ATOM     15 SD   MET X   2     -23.070 -12.551  35.021  1.00 39.06 LIG-0.17  SA
ATOM     16  CE  MET X   2     -24.565 -11.904  35.834  1.00 45.88 LIG 0.09  C 
ENDBRANCH 14 15
ENDBRANCH 13 14
ENDBRANCH 11 13
ENDBRANCH 9 11
ENDBRANCH 6 7
BRANCH 6 17
ATOM     17  CB  TRP X   3     -20.588  -7.973  35.239  1.00 29.85 LIG 0.07  C 
BRANCH 17 18
ATOM     18  CG  TRP X   3     -19.567  -7.462  36.219  1.00 29.58 LIG-0.03  A 
ATOM     19  CD1 TRP X   3     -18.218  -7.689  36.182  1.00 26.84 LIG 0.10  A 
ATOM     20  NE1 TRP X   3     -17.615  -7.070  37.245  1.00 29.47 LIG-0.36  N 
ATOM     21 HE1  TRP X   3     -16.773  -7.088  37.418  1.00 29.47 LIG 0.17  HD
ATOM     22  CE2 TRP X   3     -18.564  -6.413  37.996  1.00 27.62 LIG 0.04  A 
ATOM     23  CZ2 TRP X   3     -18.430  -5.636  39.187  1.00 28.85 LIG 0.03  A 
ATOM     24  CD2 TRP X   3     -19.812  -6.639  37.379  1.00 25.33 LIG-0.00  A 
ATOM     25  CH2 TRP X   3     -19.594  -5.084  39.737  1.00 28.18 LIG 0.00  A 
ATOM     26  CZ3 TRP X   3     -20.848  -5.311  39.141  1.00 26.79 LIG 0.00  A 
ATOM     27  CE3 TRP X   3     -20.968  -6.101  37.969  1.00 25.86 LIG 0.01  A 
ENDBRANCH 17 18
ENDBRANCH 6 17
ENDBRANCH 3 6
ENDBRANCH 1 2
BRANCH 1 28
ATOM     28  CB  ARG X   4     -21.081 -12.579  38.232  1.00 29.55 LIG 0.04  C 
BRANCH 28 29
ATOM     29  CG  ARG X   4     -22.226 -12.474  39.235  1.00 28.17 LIG 0.02  C 
BRANCH 29 30
ATOM     30  CD  ARG X   4     -22.545 -13.855  39.826  1.00 27.09 LIG 0.14  C 
BRANCH 30 31
ATOM     31  NE  ARG X   4     -23.990 -14.008  39.971  1.00 25.46 LIG-0.23  N 
ATOM     32 HE   ARG X   4     -24.452 -13.320  40.200  1.00 25.46 LIG 0.18  HD
ATOM     33  CZ  ARG X   4     -24.630 -15.161  39.768  1.00 27.27 LIG 0.67  C 
ATOM     34  NH2 ARG X   4     -25.951 -15.238  39.907  1.00 24.12 LIG-0.23  N 
ATOM     35  NH1 ARG X   4     -23.932 -16.245  39.438  1.00 21.32 LIG-0.23  N 
ATOM     36 1HH2 ARG X   4     -26.401 -14.540  40.130  1.00 24.12 LIG 0.17  HD
ATOM     37 2HH2 ARG X   4     -26.355 -15.986  39.773  1.00 24.12 LIG 0.17  HD
ATOM     38 2HH1 ARG X   4     -24.336 -16.993  39.306  1.00 21.32 LIG 0.17  HD
ATOM     39 1HH1 ARG X   4     -23.077 -16.199  39.358  1.00 21.32 LIG 0.17  HD
ENDBRANCH 30 31
ENDBRANCH 29 30
ENDBRANCH 28 29
ENDBRANCH 1 28
BRANCH 1 40
ATOM     40  C   ARG X   4     -18.696 -12.077  38.703  1.00 30.38 LIG 0.24  C 
ATOM     41 O    ARG X   4     -18.630 -13.284  38.877  1.00 31.87 LIG-0.27  OA
ATOM     42  N   PRO X   5     -17.638 -11.261  38.832  1.00 30.60 LIG-0.34  N 
ATOM     43  CA  PRO X   5     -16.271 -11.809  38.987  1.00 31.31 LIG 0.18  C 
ATOM     44  CD  PRO X   5     -17.662  -9.774  38.771  1.00 29.99 LIG 0.13  C 
ATOM     45  CB  PRO X   5     -15.380 -10.598  38.694  1.00 30.70 LIG 0.04  C 
ATOM     46  CG  PRO X   5     -16.245  -9.358  39.070  1.00 29.42 LIG 0.02  C 
BRANCH 43 47
ATOM     47  C   PRO X   5     -15.876 -12.420  40.360  1.00 32.23 LIG 0.24  C 
ATOM     48 O    PRO X   5     -14.657 -12.476  40.705  1.00 32.23 LIG-0.27  OA
ATOM     49  N   TRP X   6     -16.866 -12.847  41.138  1.00 33.50 LIG-0.34  N 
ATOM     50 H    TRP X   6     -17.690 -12.892  40.892  1.00 33.50 LIG 0.16  HD
BRANCH 49 51
ATOM     51  CA  TRP X   6     -16.611 -13.286  42.517  1.00 34.66 LIG 0.19  C 
BRANCH 51 52
ATOM     52  CB  TRP X   6     -17.897 -13.146  43.357  1.00 34.41 LIG 0.08  C 
BRANCH 52 53
ATOM     53  CG  TRP X   6     -18.941 -12.223  42.754  1.00 32.39 LIG-0.03  A 
ATOM     54  CD2 TRP X   6     -18.781 -10.830  42.405  1.00 31.68 LIG-0.00  A 
ATOM     55  CE2 TRP X   6     -20.019 -10.388  41.899  1.00 33.29 LIG 0.04  A 
ATOM     56  CE3 TRP X   6     -17.712  -9.927  42.461  1.00 33.66 LIG 0.01  A 
ATOM     57  CZ2 TRP X   6     -20.213  -9.083  41.425  1.00 33.18 LIG 0.03  A 
ATOM     58  NE1 TRP X   6     -20.881 -11.458  41.927  1.00 30.87 LIG-0.36  N 
ATOM     59  CH2 TRP X   6     -19.163  -8.224  41.488  1.00 32.36 LIG 0.00  A 
ATOM     60  CZ3 TRP X   6     -17.915  -8.623  42.016  1.00 32.37 LIG 0.00  A 
ATOM     61 HE1  TRP X   6     -21.698 -11.449  41.658  1.00 30.87 LIG 0.17  HD
ATOM     62  CD1 TRP X   6     -20.230 -12.542  42.453  1.00 30.01 LIG 0.10  A 
ENDBRANCH 52 53
ENDBRANCH 51 52
BRANCH 51 63
ATOM     63  C   TRP X   6     -16.049 -14.719  42.599  1.00 36.76 LIG 0.20  C 
ATOM     64 O    TRP X   6     -15.365 -15.261  41.713  1.00 37.86 LIG-0.65  OA
ATOM     65 OXT  TRP X   6     -16.281 -15.428  43.586  1.00 39.11 LIG-0.65  OA
ENDBRANCH 51 63
ENDBRANCH 49 51
ENDBRANCH 43 47
ENDBRANCH 1 40
TORSDOF 19
ENDMDL
MODEL 3
USER: ADFR SOLUTION from run 167
USER: SCORE 19.269980 LL:  -6.009 LR: -14.522 RR:   0.000 FEB:  -8.854
USER: RMSD 1.550502
USER: SEED 166
USER: STATUS no improvement in best in 8 clusters for 5 generations
USER: GENES 21
USER: genes 0 Translation |==|  0.56390 0.52177 0.48268
USER: genes 1 Rotation |==|  0.50903 0.51665 0.46575 0.99847
USER: genes 2 Torsion [CB]-CA--N-[C] |==|  0.27588
USER: genes 3 Torsion [N]-C--CA-[N] |==|  0.35051
USER: genes 4 Torsion [C]-CA--N-[C] |==|  0.82538
USER: genes 5 Torsion [N]-C--CA-[N] |==|  0.44258
USER: genes 6 Torsion [C]-CA--CB-[CG] |==|  0.47147
USER: genes 7 Torsion [CA]-CB--CG-[SD] |==|  0.97124
USER: genes 8 Torsion [CB]-CG--SD-[CE] |==|  0.78742
USER: genes 9 Torsion [C]-CA--CB-[CG] |==|  0.06496
USER: genes 10 Torsion [CA]-CB--CG-[CD2] |==|  0.73091
USER: genes 11 Torsion [N]-CA--CB-[CG] |==|  0.84923
USER: genes 12 Torsion [CA]-CB--CG-[CD] |==|  0.39861
USER: genes 13 Torsion [CB]-CG--CD-[NE] |==|  0.41211
USER: genes 14 Torsion [CG]-CD--NE-[CZ] |==|  0.50136
USER: genes 15 Torsion [N]-CA--C-[N] |==|  0.29491
USER: genes 16 Torsion [N]-CA--C-[O] |==|  0.55403
USER: genes 17 Torsion [C]-N--CA-[CB] |==|  0.31783
USER: genes 18 Torsion [N]-CA--CB-[CG] |==|  0.98410
USER: genes 19 Torsion [CA]-CB--CG-[CD2] |==|  0.26502
USER: genes 20 Torsion [N]-CA--C-[O] |==|  0.30749
ROOT
ATOM      1  CA  ARG X   4     -20.023 -12.052  38.369  1.00 29.51 LIG 0.18  C 
ENDROOT
BRANCH 1 2
ATOM      2  N   ARG X   4     -20.333 -12.006  36.943  1.00 29.26 LIG-0.35  N 
ATOM      3  C   TRP X   3     -21.187 -11.114  36.406  1.00 30.37 LIG 0.24  C 
ATOM      4 O    TRP X   3     -21.764 -10.226  37.069  1.00 30.38 LIG-0.27  OA
ATOM      5 H    ARG X   4     -19.919 -12.600  36.479  1.00 29.26 LIG 0.16  HD
BRANCH 3 6
ATOM      6  CA  TRP X   3     -21.419 -11.222  34.885  1.00 30.62 LIG 0.18  C 
BRANCH 6 7
ATOM      7  N   TRP X   3     -22.847 -11.333  34.539  1.00 31.45 LIG-0.34  N 
ATOM      8 H    TRP X   3     -23.167 -10.690  34.067  1.00 31.45 LIG 0.16  HD
ATOM      9  C   MET X   2     -23.533 -12.391  34.967  1.00 32.92 LIG 0.26  C 
ATOM     10 O    MET X   2     -23.005 -13.312  35.561  1.00 32.35 LIG-0.27  OA
BRANCH 9 11
ATOM     11  CA  MET X   2     -25.004 -12.463  34.664  1.00 34.28 LIG 0.40  C 
ATOM     12  N   MET X   2     -25.523 -13.884  34.752  1.00 35.36 LIG 0.61  N 
BRANCH 11 13
ATOM     13  CB  MET X   2     -25.747 -11.572  35.646  1.00 35.71 LIG 0.06  C 
BRANCH 13 14
ATOM     14  CG  MET X   2     -27.199 -11.351  35.318  1.00 37.62 LIG 0.08  C 
BRANCH 14 15
ATOM     15 SD   MET X   2     -27.788 -11.908  33.696  1.00 39.06 LIG-0.17  SA
ATOM     16  CE  MET X   2     -27.130 -10.599  32.615  1.00 45.88 LIG 0.09  C 
ENDBRANCH 14 15
ENDBRANCH 13 14
ENDBRANCH 11 13
ENDBRANCH 9 11
ENDBRANCH 6 7
BRANCH 6 17
ATOM     17  CB  TRP X   3     -20.727 -10.078  34.140  1.00 29.85 LIG 0.07  C 
BRANCH 17 18
ATOM     18  CG  TRP X   3     -19.583  -9.493  34.923  1.00 29.58 LIG-0.03  A 
ATOM     19  CD1 TRP X   3     -18.304  -9.977  34.980  1.00 26.84 LIG 0.10  A 
ATOM     20  NE1 TRP X   3     -17.546  -9.185  35.801  1.00 29.47 LIG-0.36  N 
ATOM     21 HE1  TRP X   3     -16.715  -9.311  35.983  1.00 29.47 LIG 0.17  HD
ATOM     22  CE2 TRP X   3     -18.317  -8.155  36.291  1.00 27.62 LIG 0.04  A 
ATOM     23  CZ2 TRP X   3     -17.982  -7.086  37.176  1.00 28.85 LIG 0.03  A 
ATOM     24  CD2 TRP X   3     -19.614  -8.317  35.759  1.00 25.33 LIG-0.00  A 
ATOM     25  CH2 TRP X   3     -18.994  -6.174  37.505  1.00 28.18 LIG 0.00  A 
ATOM     26  CZ3 TRP X   3     -20.295  -6.329  36.994  1.00 26.79 LIG 0.00  A 
ATOM     27  CE3 TRP X   3     -20.618  -7.408  36.131  1.00 25.86 LIG 0.01  A 
ENDBRANCH 17 18
ENDBRANCH 6 17
ENDBRANCH 3 6
ENDBRANCH 1 2
BRANCH 1 28
ATOM     28  CB  ARG X   4     -20.830 -13.151  39.091  1.00 29.55 LIG 0.04  C 
BRANCH 28 29
ATOM     29  CG  ARG X   4     -22.340 -13.063  38.888  1.00 28.17 LIG 0.02  C 
BRANCH 29 30
ATOM     30  CD  ARG X   4     -22.947 -14.471  38.791  1.00 27.09 LIG 0.14  C 
BRANCH 30 31
ATOM     31  NE  ARG X   4     -24.302 -14.462  39.335  1.00 25.46 LIG-0.23  N 
ATOM     32 HE   ARG X   4     -24.617 -13.720  39.634  1.00 25.46 LIG 0.18  HD
ATOM     33  CZ  ARG X   4     -25.077 -15.547  39.393  1.00 27.27 LIG 0.67  C 
ATOM     34  NH2 ARG X   4     -26.307 -15.476  39.893  1.00 24.12 LIG-0.23  N 
ATOM     35  NH1 ARG X   4     -24.601 -16.712  38.960  1.00 21.32 LIG-0.23  N 
ATOM     36 1HH2 ARG X   4     -26.611 -14.726  40.183  1.00 24.12 LIG 0.17  HD
ATOM     37 2HH2 ARG X   4     -26.800 -16.181  39.926  1.00 24.12 LIG 0.17  HD
ATOM     38 2HH1 ARG X   4     -25.093 -17.416  38.994  1.00 21.32 LIG 0.17  HD
ATOM     39 1HH1 ARG X   4     -23.802 -16.760  38.646  1.00 21.32 LIG 0.17  HD
ENDBRANCH 30 31
ENDBRANCH 29 30
ENDBRANCH 28 29
ENDBRANCH 1 28
BRANCH 1 40
ATOM     40  C   ARG X   4     -18.553 -12.352  38.509  1.00 30.38 LIG 0.24  C 
ATOM     41 O    ARG X   4     -18.157 -13.486  38.299  1.00 31.87 LIG-0.27  OA
ATOM     42  N   PRO X   5     -17.740 -11.351  38.883  1.00 30.60 LIG-0.34  N 
ATOM     43  CA  PRO X   5     -16.270 -11.517  38.856  1.00 31.31 LIG 0.18  C 
ATOM     44  CD  PRO X   5     -18.160  -9.981  39.288  1.00 29.99 LIG 0.13  C 
ATOM     45  CB  PRO X   5     -15.758 -10.077  38.951  1.00 30.70 LIG 0.04  C 
ATOM     46  CG  PRO X   5     -16.882  -9.297  39.697  1.00 29.42 LIG 0.02  C 
BRANCH 43 47
ATOM     47  C   PRO X   5     -15.606 -12.375  39.969  1.00 32.23 LIG 0.24  C 
ATOM     48 O    PRO X   5     -14.368 -12.254  40.214  1.00 32.23 LIG-0.27  OA
ATOM     49  N   TRP X   6     -16.398 -13.202  40.645  1.00 33.50 LIG-0.34  N 
ATOM     50 H    TRP X   6     -17.220 -13.359  40.444  1.00 33.50 LIG 0.16  HD
BRANCH 49 51
ATOM     51  CA  TRP X   6     -15.905 -13.931  41.821  1.00 34.66 LIG 0.19  C 
BRANCH 51 52
ATOM     52  CB  TRP X   6     -16.647 -13.449  43.085  1.00 34.41 LIG 0.08  C 
BRANCH 52 53
ATOM     53  CG  TRP X   6     -17.581 -12.276  42.852  1.00 32.39 LIG-0.03  A 
ATOM     54  CD2 TRP X   6     -19.003 -12.326  42.597  1.00 31.68 LIG-0.00  A 
ATOM     55  CE2 TRP X   6     -19.438 -10.997  42.427  1.00 33.29 LIG 0.04  A 
ATOM     56  CE3 TRP X   6     -19.943 -13.361  42.511  1.00 33.66 LIG 0.01  A 
ATOM     57  CZ2 TRP X   6     -20.782 -10.671  42.200  1.00 33.18 LIG 0.03  A 
ATOM     58  NE1 TRP X   6     -18.342 -10.183  42.582  1.00 30.87 LIG-0.36  N 
ATOM     59  CH2 TRP X   6     -21.677 -11.690  42.121  1.00 32.36 LIG 0.00  A 
ATOM     60  CZ3 TRP X   6     -21.272 -13.036  42.257  1.00 32.37 LIG 0.00  A 
ATOM     61 HE1  TRP X   6     -18.347  -9.324  42.537  1.00 30.87 LIG 0.17  HD
ATOM     62  CD1 TRP X   6     -17.239 -10.958  42.820  1.00 30.01 LIG 0.10  A 
ENDBRANCH 52 53
ENDBRANCH 51 52
BRANCH 51 63
ATOM     63  C   TRP X   6     -16.007 -15.462  41.670  1.00 36.76 LIG 0.20  C 
ATOM     64 O    TRP X   6     -15.033 -16.226  41.549  1.00 37.86 LIG-0.65  OA
ATOM     65 OXT  TRP X   6     -17.112 -16.017  41.642  1.00 39.11 LIG-0.65  OA
ENDBRANCH 51 63
ENDBRANCH 49 51
ENDBRANCH 43 47
ENDBRANCH 1 40
TORSDOF 19
ENDMDL
MODEL 4
USER: ADFR SOLUTION from run 6
USER: SCORE 19.163606 LL:  -5.794 LR: -14.514 RR:   0.000 FEB:  -8.846
USER: RMSD 2.424405
USER: SEED 926108
USER: STATUS no improvement in best in 2 clusters for 5 generations
USER: GENES 21
USER: genes 0 Translation |==|  0.54212 0.55922 0.49980
USER: genes 1 Rotation |==|  0.57876 0.40482 0.65997 0.95733
USER: genes 2 Torsion [CB]-CA--N-[C] |==|  0.26913
USER: genes 3 Torsion [N]-C--CA-[N] |==|  0.40761
USER: genes 4 Torsion [C]-CA--N-[C] |==|  0.81386
USER: genes 5 Torsion [N]-C--CA-[N] |==|  0.35163
USER: genes 6 Torsion [C]-CA--CB-[CG] |==|  0.06646
USER: genes 7 Torsion [CA]-CB--CG-[SD] |==|  0.40215
USER: genes 8 Torsion [CB]-CG--SD-[CE] |==|  0.72804
USER: genes 9 Torsion [C]-CA--CB-[CG] |==|  0.15698
USER: genes 10 Torsion [CA]-CB--CG-[CD2] |==|  0.66411
USER: genes 11 Torsion [N]-CA--CB-[CG] |==|  0.64222
USER: genes 12 Torsion [CA]-CB--CG-[CD] |==|  0.25829
USER: genes 13 Torsion [CB]-CG--CD-[NE] |==|  0.56784
USER: genes 14 Torsion [CG]-CD--NE-[CZ] |==|  0.67799
USER: genes 15 Torsion [N]-CA--C-[N] |==|  0.37535
USER: genes 16 Torsion [N]-CA--C-[O] |==|  0.57581
USER: genes 17 Torsion [C]-N--CA-[CB] |==|  0.22920
USER: genes 18 Torsion [N]-CA--CB-[CG] |==|  0.17352
USER: genes 19 Torsion [CA]-CB--CG-[CD2] |==|  0.70296
USER: genes 20 Torsion [N]-CA--C-[O] |==|  0.09735
ROOT
ATOM      1  CA  ARG X   4     -20.481 -11.321  38.690  1.00 29.51 LIG 0.18  C 
ENDROOT
BRANCH 1 2
ATOM      2  N   ARG X   4     -20.251 -10.873  37.320  1.00 29.26 LIG-0.35  N 
ATOM      3  C   TRP X   3     -21.250 -10.591  36.463  1.00 30.37 LIG 0.24  C 
ATOM      4 O    TRP X   3     -22.460 -10.653  36.769  1.00 30.38 LIG-0.27  OA
ATOM      5 H    ARG X   4     -19.419 -10.806  37.111  1.00 29.26 LIG 0.16  HD
BRANCH 3 6
ATOM      6  CA  TRP X   3     -20.831 -10.155  35.044  1.00 30.62 LIG 0.18  C 
BRANCH 6 7
ATOM      7  N   TRP X   3     -21.782 -10.601  34.012  1.00 31.45 LIG-0.34  N 
ATOM      8 H    TRP X   3     -22.221  -9.978  33.615  1.00 31.45 LIG 0.16  HD
ATOM      9  C   MET X   2     -21.901 -11.905  33.766  1.00 32.92 LIG 0.26  C 
ATOM     10 O    MET X   2     -21.192 -12.736  34.301  1.00 32.35 LIG-0.27  OA
BRANCH 9 11
ATOM     11  CA  MET X   2     -22.921 -12.354  32.757  1.00 34.28 LIG 0.40  C 
ATOM     12  N   MET X   2     -22.302 -13.235  31.690  1.00 35.36 LIG 0.61  N 
BRANCH 11 13
ATOM     13  CB  MET X   2     -24.024 -13.108  33.483  1.00 35.71 LIG 0.06  C 
BRANCH 13 14
ATOM     14  CG  MET X   2     -24.169 -12.759  34.939  1.00 37.62 LIG 0.08  C 
BRANCH 14 15
ATOM     15 SD   MET X   2     -25.842 -12.750  35.638  1.00 39.06 LIG-0.17  SA
ATOM     16  CE  MET X   2     -26.243 -10.976  35.567  1.00 45.88 LIG 0.09  C 
ENDBRANCH 14 15
ENDBRANCH 13 14
ENDBRANCH 11 13
ENDBRANCH 9 11
ENDBRANCH 6 7
BRANCH 6 17
ATOM     17  CB  TRP X   3     -20.574  -8.648  34.985  1.00 29.85 LIG 0.07  C 
BRANCH 17 18
ATOM     18  CG  TRP X   3     -19.538  -8.203  35.983  1.00 29.58 LIG-0.03  A 
ATOM     19  CD1 TRP X   3     -18.242  -8.637  36.059  1.00 26.84 LIG 0.10  A 
ATOM     20  NE1 TRP X   3     -17.606  -8.014  37.100  1.00 29.47 LIG-0.36  N 
ATOM     21 HE1  TRP X   3     -16.788  -8.144  37.330  1.00 29.47 LIG 0.17  HD
ATOM     22  CE2 TRP X   3     -18.477  -7.147  37.722  1.00 27.62 LIG 0.04  A 
ATOM     23  CZ2 TRP X   3     -18.285  -6.285  38.843  1.00 28.85 LIG 0.03  A 
ATOM     24  CD2 TRP X   3     -19.711  -7.240  37.044  1.00 25.33 LIG-0.00  A 
ATOM     25  CH2 TRP X   3     -19.374  -5.508  39.260  1.00 28.18 LIG 0.00  A 
ATOM     26  CZ3 TRP X   3     -20.614  -5.599  38.604  1.00 26.79 LIG 0.00  A 
ATOM     27  CE3 TRP X   3     -20.797  -6.476  37.503  1.00 25.86 LIG 0.01  A 
ENDBRANCH 17 18
ENDBRANCH 6 17
ENDBRANCH 3 6
ENDBRANCH 1 2
BRANCH 1 28
ATOM     28  CB  ARG X   4     -20.402 -12.858  38.807  1.00 29.55 LIG 0.04  C 
BRANCH 28 29
ATOM     29  CG  ARG X   4     -21.597 -13.500  39.507  1.00 28.17 LIG 0.02  C 
BRANCH 29 30
ATOM     30  CD  ARG X   4     -22.655 -13.922  38.477  1.00 27.09 LIG 0.14  C 
BRANCH 30 31
ATOM     31  NE  ARG X   4     -23.967 -13.982  39.113  1.00 25.46 LIG-0.23  N 
ATOM     32 HE   ARG X   4     -24.305 -13.254  39.421  1.00 25.46 LIG 0.18  HD
ATOM     33  CZ  ARG X   4     -24.669 -15.110  39.243  1.00 27.27 LIG 0.67  C 
ATOM     34  NH2 ARG X   4     -25.865 -15.101  39.826  1.00 24.12 LIG-0.23  N 
ATOM     35  NH1 ARG X   4     -24.155 -16.253  38.797  1.00 21.32 LIG-0.23  N 
ATOM     36 1HH2 ARG X   4     -26.193 -14.364  40.123  1.00 24.12 LIG 0.17  HD
ATOM     37 2HH2 ARG X   4     -26.311 -15.833  39.904  1.00 24.12 LIG 0.17  HD
ATOM     38 2HH1 ARG X   4     -24.600 -16.984  38.877  1.00 21.32 LIG 0.17  HD
ATOM     39 1HH1 ARG X   4     -23.378 -16.261  38.430  1.00 21.32 LIG 0.17  HD
ENDBRANCH 30 31
ENDBRANCH 29 30
ENDBRANCH 28 29
ENDBRANCH 1 28
BRANCH 1 40
ATOM     40  C   ARG X   4     -19.411 -10.710  39.558  1.00 30.38 LIG 0.24  C 
ATOM     41 O    ARG X   4     -18.251 -10.742  39.179  1.00 31.87 LIG-0.27  OA
ATOM     42  N   PRO X   5     -19.784 -10.169  40.728  1.00 30.60 LIG-0.34  N 
ATOM     43  CA  PRO X   5     -18.827  -9.384  41.541  1.00 31.31 LIG 0.18  C 
ATOM     44  CD  PRO X   5     -21.149 -10.211  41.321  1.00 29.99 LIG 0.13  C 
ATOM     45  CB  PRO X   5     -19.737  -8.647  42.528  1.00 30.70 LIG 0.04  C 
ATOM     46  CG  PRO X   5     -20.998  -9.550  42.667  1.00 29.42 LIG 0.02  C 
BRANCH 43 47
ATOM     47  C   PRO X   5     -17.728 -10.152  42.327  1.00 32.23 LIG 0.24  C 
ATOM     48 O    PRO X   5     -17.240  -9.657  43.388  1.00 32.23 LIG-0.27  OA
ATOM     49  N   TRP X   6     -17.358 -11.335  41.846  1.00 33.50 LIG-0.34  N 
ATOM     50 H    TRP X   6     -17.615 -11.653  41.089  1.00 33.50 LIG 0.16  HD
BRANCH 49 51
ATOM     51  CA  TRP X   6     -16.451 -12.210  42.603  1.00 34.66 LIG 0.19  C 
BRANCH 51 52
ATOM     52  CB  TRP X   6     -17.250 -13.008  43.654  1.00 34.41 LIG 0.08  C 
BRANCH 52 53
ATOM     53  CG  TRP X   6     -18.294 -13.941  43.069  1.00 32.39 LIG-0.03  A 
ATOM     54  CD2 TRP X   6     -19.728 -13.771  43.086  1.00 31.68 LIG-0.00  A 
ATOM     55  CE2 TRP X   6     -20.284 -14.895  42.443  1.00 33.29 LIG 0.04  A 
ATOM     56  CE3 TRP X   6     -20.587 -12.775  43.569  1.00 33.66 LIG 0.01  A 
ATOM     57  CZ2 TRP X   6     -21.665 -15.041  42.247  1.00 33.18 LIG 0.03  A 
ATOM     58  NE1 TRP X   6     -19.242 -15.699  42.047  1.00 30.87 LIG-0.36  N 
ATOM     59  CH2 TRP X   6     -22.479 -14.063  42.722  1.00 32.36 LIG 0.00  A 
ATOM     60  CZ3 TRP X   6     -21.960 -12.936  43.397  1.00 32.37 LIG 0.00  A 
ATOM     61 HE1  TRP X   6     -19.319 -16.442  41.621  1.00 30.87 LIG 0.17  HD
ATOM     62  CD1 TRP X   6     -18.062 -15.126  42.439  1.00 30.01 LIG 0.10  A 
ENDBRANCH 52 53
ENDBRANCH 51 52
BRANCH 51 63
ATOM     63  C   TRP X   6     -15.629 -13.151  41.700  1.00 36.76 LIG 0.20  C 
ATOM     64 O    TRP X   6     -15.201 -12.851  40.571  1.00 37.86 LIG-0.65  OA
ATOM     65 OXT  TRP X   6     -15.365 -14.302  42.070  1.00 39.11 LIG-0.65  OA
ENDBRANCH 51 63
ENDBRANCH 49 51
ENDBRANCH 43 47
ENDBRANCH 1 40
TORSDOF 19
ENDMDL
MODEL 5
USER: ADFR SOLUTION from run 185
USER: SCORE 18.636124 LL:  -6.286 LR: -13.535 RR:   0.000 FEB:  -7.867
USER: RMSD 3.007452
USER: SEED 184
USER: STATUS no improvement in best in 3 clusters for 5 generations
USER: GENES 21
USER: genes 0 Translation |==|  0.57047 0.56339 0.48070
USER: genes 1 Rotation |==|  0.60940 0.42779 0.51921 0.98213
USER: genes 2 Torsion [CB]-CA--N-[C] |==|  0.21844
USER: genes 3 Torsion [N]-C--CA-[N] |==|  0.35567
USER: genes 4 Torsion [C]-CA--N-[C] |==|  0.64287
USER: genes 5 Torsion [N]-C--CA-[N] |==|  0.49529
USER: genes 6 Torsion [C]-CA--CB-[CG] |==|  0.90376
USER: genes 7 Torsion [CA]-CB--CG-[SD] |==|  0.35986
USER: genes 8 Torsion [CB]-CG--SD-[CE] |==|  0.93963
USER: genes 9 Torsion [C]-CA--CB-[CG] |==|  0.04345
USER: genes 10 Torsion [CA]-CB--CG-[CD2] |==|  0.18582
USER: genes 11 Torsion [N]-CA--CB-[CG] |==|  0.74190
USER: genes 12 Torsion [CA]-CB--CG-[CD] |==|  0.50263
USER: genes 13 Torsion [CB]-CG--CD-[NE] |==|  0.43256
USER: genes 14 Torsion [CG]-CD--NE-[CZ] |==|  0.50848
USER: genes 15 Torsion [N]-CA--C-[N] |==|  0.37799
USER: genes 16 Torsion [N]-CA--C-[O] |==|  0.40899
USER: genes 17 Torsion [C]-N--CA-[CB] |==|  0.47540
USER: genes 18 Torsion [N]-CA--CB-[CG] |==|  0.08247
USER: genes 19 Torsion [CA]-CB--CG-[CD2] |==|  0.74355
USER: genes 20 Torsion [N]-CA--C-[O] |==|  0.47189
ROOT
ATOM      1  CA  ARG X   4     -19.885 -11.240  38.332  1.00 29.51 LIG 0.18  C 
ENDROOT
BRANCH 1 2
ATOM      2  N   ARG X   4     -19.706 -10.655  37.006  1.00 29.26 LIG-0.35  N 
ATOM      3  C   TRP X   3     -20.700 -10.048  36.332  1.00 30.37 LIG 0.24  C 
ATOM      4 O    TRP X   3     -21.853  -9.898  36.789  1.00 30.38 LIG-0.27  OA
ATOM      5 H    ARG X   4     -18.907 -10.734  36.697  1.00 29.26 LIG 0.16  HD
BRANCH 3 6
ATOM      6  CA  TRP X   3     -20.345  -9.507  34.932  1.00 30.62 LIG 0.18  C 
BRANCH 6 7
ATOM      7  N   TRP X   3     -21.281  -9.971  33.894  1.00 31.45 LIG-0.34  N 
ATOM      8 H    TRP X   3     -22.115  -9.851  34.063  1.00 31.45 LIG 0.16  HD
ATOM      9  C   MET X   2     -20.791 -10.533  32.790  1.00 32.92 LIG 0.26  C 
ATOM     10 O    MET X   2     -19.597 -10.601  32.568  1.00 32.35 LIG-0.27  OA
BRANCH 9 11
ATOM     11  CA  MET X   2     -21.756 -11.063  31.765  1.00 34.28 LIG 0.40  C 
ATOM     12  N   MET X   2     -21.035 -11.629  30.558  1.00 35.36 LIG 0.61  N 
BRANCH 11 13
ATOM     13  CB  MET X   2     -22.614 -12.137  32.414  1.00 35.71 LIG 0.06  C 
BRANCH 13 14
ATOM     14  CG  MET X   2     -21.902 -12.971  33.445  1.00 37.62 LIG 0.08  C 
BRANCH 14 15
ATOM     15 SD   MET X   2     -22.700 -13.170  35.061  1.00 39.06 LIG-0.17  SA
ATOM     16  CE  MET X   2     -23.808 -11.726  35.085  1.00 45.88 LIG 0.09  C 
ENDBRANCH 14 15
ENDBRANCH 13 14
ENDBRANCH 11 13
ENDBRANCH 9 11
ENDBRANCH 6 7
BRANCH 6 17
ATOM     17  CB  TRP X   3     -20.206  -7.983  34.949  1.00 29.85 LIG 0.07  C 
BRANCH 17 18
ATOM     18  CG  TRP X   3     -20.072  -7.435  36.345  1.00 29.58 LIG-0.03  A 
ATOM     19  CD1 TRP X   3     -20.980  -6.648  37.000  1.00 26.84 LIG 0.10  A 
ATOM     20  NE1 TRP X   3     -20.508  -6.340  38.249  1.00 29.47 LIG-0.36  N 
ATOM     21 HE1  TRP X   3     -20.916  -5.851  38.827  1.00 29.47 LIG 0.17  HD
ATOM     22  CE2 TRP X   3     -19.280  -6.933  38.438  1.00 27.62 LIG 0.04  A 
ATOM     23  CZ2 TRP X   3     -18.400  -6.904  39.562  1.00 28.85 LIG 0.03  A 
ATOM     24  CD2 TRP X   3     -18.969  -7.634  37.254  1.00 25.33 LIG-0.00  A 
ATOM     25  CH2 TRP X   3     -17.196  -7.613  39.463  1.00 28.18 LIG 0.00  A 
ATOM     26  CZ3 TRP X   3     -16.865  -8.306  38.284  1.00 26.79 LIG 0.00  A 
ATOM     27  CE3 TRP X   3     -17.741  -8.309  37.167  1.00 25.86 LIG 0.01  A 
ENDBRANCH 17 18
ENDBRANCH 6 17
ENDBRANCH 3 6
ENDBRANCH 1 2
BRANCH 1 28
ATOM     28  CB  ARG X   4     -20.577 -12.617  38.257  1.00 29.55 LIG 0.04  C 
BRANCH 28 29
ATOM     29  CG  ARG X   4     -22.096 -12.570  38.402  1.00 28.17 LIG 0.02  C 
BRANCH 29 30
ATOM     30  CD  ARG X   4     -22.682 -13.988  38.337  1.00 27.09 LIG 0.14  C 
BRANCH 30 31
ATOM     31  NE  ARG X   4     -23.970 -14.021  39.023  1.00 25.46 LIG-0.23  N 
ATOM     32 HE   ARG X   4     -24.282 -13.286  39.341  1.00 25.46 LIG 0.18  HD
ATOM     33  CZ  ARG X   4     -24.689 -15.134  39.181  1.00 27.27 LIG 0.67  C 
ATOM     34  NH2 ARG X   4     -25.862 -15.101  39.809  1.00 24.12 LIG-0.23  N 
ATOM     35  NH1 ARG X   4     -24.215 -16.288  38.719  1.00 21.32 LIG-0.23  N 
ATOM     36 1HH2 ARG X   4     -26.164 -14.358  40.117  1.00 24.12 LIG 0.17  HD
ATOM     37 2HH2 ARG X   4     -26.319 -15.824  39.906  1.00 24.12 LIG 0.17  HD
ATOM     38 2HH1 ARG X   4     -24.671 -17.011  38.817  1.00 21.32 LIG 0.17  HD
ATOM     39 1HH1 ARG X   4     -23.452 -16.312  38.323  1.00 21.32 LIG 0.17  HD
ENDBRANCH 30 31
ENDBRANCH 29 30
ENDBRANCH 28 29
ENDBRANCH 1 28
BRANCH 1 40
ATOM     40  C   ARG X   4     -18.519 -11.411  38.946  1.00 30.38 LIG 0.24  C 
ATOM     41 O    ARG X   4     -17.619 -11.878  38.266  1.00 31.87 LIG-0.27  OA
ATOM     42  N   PRO X   5     -18.359 -11.057  40.230  1.00 30.60 LIG-0.34  N 
ATOM     43  CA  PRO X   5     -17.012 -11.016  40.843  1.00 31.31 LIG 0.18  C 
ATOM     44  CD  PRO X   5     -19.432 -10.611  41.160  1.00 29.99 LIG 0.13  C 
ATOM     45  CB  PRO X   5     -17.240 -10.203  42.121  1.00 30.70 LIG 0.04  C 
ATOM     46  CG  PRO X   5     -18.737 -10.434  42.486  1.00 29.42 LIG 0.02  C 
BRANCH 43 47
ATOM     47  C   PRO X   5     -16.326 -12.363  41.204  1.00 32.23 LIG 0.24  C 
ATOM     48 O    PRO X   5     -15.065 -12.476  41.130  1.00 32.23 LIG-0.27  OA
ATOM     49  N   TRP X   6     -17.118 -13.353  41.604  1.00 33.50 LIG-0.34  N 
ATOM     50 H    TRP X   6     -17.977 -13.325  41.585  1.00 33.50 LIG 0.16  HD
BRANCH 49 51
ATOM     51  CA  TRP X   6     -16.557 -14.608  42.124  1.00 34.66 LIG 0.19  C 
BRANCH 51 52
ATOM     52  CB  TRP X   6     -17.684 -15.480  42.714  1.00 34.41 LIG 0.08  C 
BRANCH 52 53
ATOM     53  CG  TRP X   6     -19.037 -15.283  42.056  1.00 32.39 LIG-0.03  A 
ATOM     54  CD2 TRP X   6     -20.083 -14.372  42.460  1.00 31.68 LIG-0.00  A 
ATOM     55  CE2 TRP X   6     -21.156 -14.553  41.565  1.00 33.29 LIG 0.04  A 
ATOM     56  CE3 TRP X   6     -20.206 -13.418  43.479  1.00 33.66 LIG 0.01  A 
ATOM     57  CZ2 TRP X   6     -22.333 -13.796  41.641  1.00 33.18 LIG 0.03  A 
ATOM     58  NE1 TRP X   6     -20.777 -15.514  40.659  1.00 30.87 LIG-0.36  N 
ATOM     59  CH2 TRP X   6     -22.431 -12.876  42.636  1.00 32.36 LIG 0.00  A 
ATOM     60  CZ3 TRP X   6     -21.388 -12.687  43.569  1.00 32.37 LIG 0.00  A 
ATOM     61 HE1  TRP X   6     -21.254 -15.796  40.001  1.00 30.87 LIG 0.17  HD
ATOM     62  CD1 TRP X   6     -19.517 -15.952  40.972  1.00 30.01 LIG 0.10  A 
ENDBRANCH 52 53
ENDBRANCH 51 52
BRANCH 51 63
ATOM     63  C   TRP X   6     -15.747 -15.389  41.070  1.00 36.76 LIG 0.20  C 
ATOM     64 O    TRP X   6     -15.034 -16.378  41.319  1.00 37.86 LIG-0.65  OA
ATOM     65 OXT  TRP X   6     -15.757 -15.039  39.884  1.00 39.11 LIG-0.65  OA
ENDBRANCH 51 63
ENDBRANCH 49 51
ENDBRANCH 43 47
ENDBRANCH 1 40
TORSDOF 19
ENDMDL
