MODEL 1
USER: ADFR SOLUTION from run 118
USER: SCORE 25.178688 LL:  -2.926 LR: -22.545 RR:   0.000 FEB: -16.280
USER: RMSD 1.570916
USER: SEED 117
USER: STATUS no improvement in best in 2 clusters for 5 generations
USER: GENES 23
USER: genes 0 Translation |==|  0.51225 0.54126 0.64150
USER: genes 1 Rotation |==|  0.56146 0.54622 0.48672 0.99387
USER: genes 2 Torsion [C]-CA--N-[C] |==|  0.61968
USER: genes 3 Torsion [N]-C--CA-[N] |==|  0.44737
USER: genes 4 Torsion [C]-CA--CB-[OG] |==|  0.60667
USER: genes 5 Torsion [CA]-CB--OG-[HG] |==|  0.70501
USER: genes 6 Torsion [C]-CA--N-[C] |==|  0.58119
USER: genes 7 Torsion [N]-C--CA-[N] |==|  0.45365
USER: genes 8 Torsion [C]-CA--N-[H1] |==|  0.31511
USER: genes 9 Torsion [N]-CA--C-[N] |==|  0.47079
USER: genes 10 Torsion [N]-CA--C-[N] |==|  0.39967
USER: genes 11 Torsion [C]-N--CA-[C] |==|  0.56091
USER: genes 12 Torsion [N]-CA--C-[O] |==|  0.43129
USER: genes 13 Torsion [N]-CA--CB-[CG] |==|  0.30056
USER: genes 14 Torsion [CA]-CB--CG-[CD] |==|  0.39443
USER: genes 15 Torsion [CB]-CG--CD-[CE] |==|  0.33806
USER: genes 16 Torsion [CG]-CD--CE-[NZ] |==|  0.47958
USER: genes 17 Torsion [CD]-CE--NZ-[HZ1] |==|  0.61173
USER: genes 18 Torsion [N]-CA--CB-[CG] |==|  0.13257
USER: genes 19 Torsion [CA]-CB--CG-[CD] |==|  0.53923
USER: genes 20 Torsion [CB]-CG--CD-[CE] |==|  0.10691
USER: genes 21 Torsion [CG]-CD--CE-[NZ] |==|  0.76298
USER: genes 22 Torsion [CD]-CE--NZ-[HZ2] |==|  0.76178
ROOT
ATOM      1  CA  LYS C   3      18.992  41.197  41.271  1.00 11.26 LIG 0.18  C 
ENDROOT
BRANCH 1 2
ATOM      2  N   LYS C   3      20.329  40.612  41.244  1.00 11.48 LIG-0.35  N 
ATOM      3 H    LYS C   3      20.435  39.993  40.657  1.00 11.48 LIG 0.16  HD
ATOM      4  C   SER C   2      21.284  41.025  42.072  1.00 14.83 LIG 0.24  C 
ATOM      5 O    SER C   2      21.108  41.912  42.905  1.00 15.12 LIG-0.27  OA
BRANCH 4 6
ATOM      6  CA  SER C   2      22.641  40.340  41.946  1.00 17.53 LIG 0.20  C 
BRANCH 6 7
ATOM      7  CB  SER C   2      22.598  38.974  42.633  1.00 18.77 LIG 0.20  C 
BRANCH 7 8
ATOM      8 OG   SER C   2      23.817  38.708  43.306  1.00 25.53 LIG-0.40  OA
ATOM      9 HG   SER C   2      24.255  38.135  42.876  1.00 25.53 LIG 0.21  HD
ENDBRANCH 7 8
ENDBRANCH 6 7
BRANCH 6 10
ATOM     10  N   SER C   2      23.660  41.176  42.568  1.00 20.39 LIG-0.34  N 
ATOM     11 H    SER C   2      23.373  41.664  43.215  1.00 20.39 LIG 0.16  HD
ATOM     12  C   ALA C   1      24.921  41.165  42.150  0.50 21.41 LIG 0.25  C 
ATOM     13 O    ALA C   1      25.315  40.454  41.224  0.50 21.88 LIG-0.27  OA
BRANCH 12 14
ATOM     14  CA  ALA C   1      25.881  42.092  42.886  0.50 22.33 LIG 0.27  C 
ATOM     15  CB  ALA C   1      25.638  43.533  42.461  0.50 23.34 LIG 0.05  C 
BRANCH 14 16
ATOM     16  N   ALA C   1      27.298  41.716  42.622  0.50 23.60 LIG-0.07  N 
ATOM     17 H1   ALA C   1      27.694  42.363  42.156  0.50 23.60 LIG 0.28  HD
ATOM     18 H2   ALA C   1      27.724  41.603  43.395  0.50 23.60 LIG 0.28  HD
ATOM     19 H3   ALA C   1      27.323  40.958  42.156  0.50 23.60 LIG 0.28  HD
ENDBRANCH 14 16
ENDBRANCH 12 14
ENDBRANCH 6 10
ENDBRANCH 4 6
ENDBRANCH 1 2
BRANCH 1 20
ATOM     20  C   LYS C   3      17.920  40.112  41.162  1.00 11.51 LIG 0.24  C 
ATOM     21 O    LYS C   3      18.227  38.953  40.896  1.00 12.69 LIG-0.27  OA
ATOM     22  N   PRO C   4      16.646  40.472  41.390  1.00 12.00 LIG-0.34  N 
ATOM     23  CA  PRO C   4      15.554  39.497  41.311  1.00 11.59 LIG 0.18  C 
ATOM     24  CD  PRO C   4      16.245  41.597  42.249  1.00 14.34 LIG 0.13  C 
ATOM     25  CB  PRO C   4      14.571  39.965  42.390  1.00 14.16 LIG 0.04  C 
ATOM     26  CG  PRO C   4      15.357  40.912  43.245  1.00 18.35 LIG 0.02  C 
BRANCH 23 27
ATOM     27  C   PRO C   4      14.838  39.386  39.975  1.00 10.16 LIG 0.24  C 
ATOM     28  N   LYS C   5      14.456  38.157  39.648  1.00 10.59 LIG-0.34  N 
ATOM     29 H    LYS C   5      14.629  37.463  40.125  1.00 10.59 LIG 0.16  HD
ATOM     30 O    PRO C   4      14.615  40.375  39.276  1.00 10.22 LIG-0.27  OA
BRANCH 28 31
ATOM     31  CA  LYS C   5      13.701  37.872  38.439  1.00 10.68 LIG 0.18  C 
BRANCH 31 32
ATOM     32  C   LYS C   5      12.981  36.542  38.645  1.00 10.68 LIG 0.20  C 
ATOM     33 O    LYS C   5      11.948  36.329  37.982  1.00 12.49 LIG-0.65  OA
ATOM     34 OXT  LYS C   5      13.466  35.725  39.462  1.00  9.63 LIG-0.65  OA
ENDBRANCH 31 32
BRANCH 31 35
ATOM     35  CB  LYS C   5      14.622  37.790  37.218  1.00 15.00 LIG 0.04  C 
BRANCH 35 36
ATOM     36  CG  LYS C   5      14.808  36.387  36.682  1.00 18.03 LIG 0.00  C 
BRANCH 36 37
ATOM     37  CD  LYS C   5      14.865  36.354  35.167  1.00 23.96 LIG 0.03  C 
BRANCH 37 38
ATOM     38  CE  LYS C   5      16.155  35.752  34.653  1.00 22.07 LIG 0.23  C 
BRANCH 38 39
ATOM     39  NZ  LYS C   5      16.091  35.579  33.176  1.00 25.25 LIG-0.08  N 
ATOM     40 HZ3  LYS C   5      16.529  36.245  32.780  1.00 25.25 LIG 0.27  HD
ATOM     41 HZ1  LYS C   5      16.466  34.804  32.952  1.00 25.25 LIG 0.27  HD
ATOM     42 HZ2  LYS C   5      15.241  35.585  32.913  1.00 25.25 LIG 0.27  HD
ENDBRANCH 38 39
ENDBRANCH 37 38
ENDBRANCH 36 37
ENDBRANCH 35 36
ENDBRANCH 31 35
ENDBRANCH 28 31
ENDBRANCH 23 27
ENDBRANCH 1 20
BRANCH 1 43
ATOM     43  CB  LYS C   3      18.838  42.201  40.129  1.00 13.47 LIG 0.04  C 
BRANCH 43 44
ATOM     44  CG  LYS C   3      19.312  41.680  38.778  1.00 17.41 LIG 0.00  C 
BRANCH 44 45
ATOM     45  CD  LYS C   3      19.463  42.802  37.763  1.00 21.64 LIG 0.03  C 
BRANCH 45 46
ATOM     46  CE  LYS C   3      20.026  44.073  38.379  1.00 23.65 LIG 0.23  C 
BRANCH 46 47
ATOM     47  NZ  LYS C   3      19.001  44.953  39.002  1.00 25.13 LIG-0.08  N 
ATOM     48 HZ1  LYS C   3      19.380  45.447  39.638  1.00 25.13 LIG 0.27  HD
ATOM     49 HZ2  LYS C   3      18.650  45.486  38.382  1.00 25.13 LIG 0.27  HD
ATOM     50 HZ3  LYS C   3      18.359  44.451  39.361  1.00 25.13 LIG 0.27  HD
ENDBRANCH 46 47
ENDBRANCH 45 46
ENDBRANCH 44 45
ENDBRANCH 43 44
ENDBRANCH 1 43
TORSDOF 21
ENDMDL
