MODEL 1
USER: ADFR SOLUTION from run 40
USER: SCORE 29.553674 LL:  -3.493 LR: -27.006 RR:   0.000 FEB: -18.952
USER: RMSD 3.283513
USER: SEED 39
USER: STATUS no improvement in best in 8 clusters for 5 generations
USER: GENES 29
USER: genes 0 Translation |==|  0.46721 0.37768 0.51563
USER: genes 1 Rotation |==|  0.40047 0.49467 0.57224 0.98461
USER: genes 2 Torsion [C]-CA--N-[C] |==|  0.76530
USER: genes 3 Torsion [N]-C--CA-[N] |==|  0.32320
USER: genes 4 Torsion [C]-CA--CB-[CG] |==|  0.61070
USER: genes 5 Torsion [CA]-CB--CG-[CD] |==|  0.26736
USER: genes 6 Torsion [CB]-CG--CD-[NE] |==|  0.58290
USER: genes 7 Torsion [CG]-CD--NE-[HE] |==|  0.14261
USER: genes 8 Torsion [C]-CA--N-[C] |==|  0.69974
USER: genes 9 Torsion [N]-C--CA-[N] |==|  0.45466
USER: genes 10 Torsion [C]-CA--N-[C] |==|  0.73684
USER: genes 11 Torsion [N]-C--CA-[N] |==|  0.16698
USER: genes 12 Torsion [C]-CA--CB-[CG] |==|  0.22813
USER: genes 13 Torsion [CA]-CB--CG-[CD2] |==|  0.63631
USER: genes 14 Torsion [N]-CA--C-[N] |==|  0.31734
USER: genes 15 Torsion [C]-N--CA-[C] |==|  0.64650
USER: genes 16 Torsion [N]-CA--C-[N] |==|  0.52657
USER: genes 17 Torsion [C]-N--CA-[C] |==|  0.79390
USER: genes 18 Torsion [N]-CA--C-[O] |==|  0.42573
USER: genes 19 Torsion [N]-CA--CB-[CG] |==|  0.73080
USER: genes 20 Torsion [CA]-CB--CG-[CD] |==|  0.91939
USER: genes 21 Torsion [CB]-CG--CD-[NE] |==|  0.23883
USER: genes 22 Torsion [CG]-CD--NE-[CZ] |==|  0.30817
USER: genes 23 Torsion [N]-CA--CB-[CG] |==|  0.76803
USER: genes 24 Torsion [CA]-CB--CG-[CD1] |==|  0.54245
USER: genes 25 Torsion [N]-CA--CB-[CG] |==|  0.59021
USER: genes 26 Torsion [CA]-CB--CG-[CD] |==|  0.66954
USER: genes 27 Torsion [CB]-CG--CD-[NE] |==|  0.54337
USER: genes 28 Torsion [CG]-CD--NE-[HE] |==|  0.98863
ROOT
ATOM      1  CA  ARG X 129       1.486  11.599  -6.824  1.00 23.09 LIG 0.18  C 
ENDROOT
BRANCH 1 2
ATOM      2  N   ARG X 129       2.559  12.312  -7.505  1.00 20.82 LIG-0.35  N 
ATOM      3  C   ARG X 128       3.228  11.854  -8.563  1.00 20.67 LIG 0.24  C 
ATOM      4 O    ARG X 128       3.038  10.729  -9.092  1.00 18.99 LIG-0.27  OA
ATOM      5 H    ARG X 129       2.727  13.078  -7.152  1.00 20.82 LIG 0.16  HD
BRANCH 3 6
ATOM      6  CA  ARG X 128       4.274  12.806  -9.139  1.00 21.45 LIG 0.18  C 
BRANCH 6 7
ATOM      7  CB  ARG X 128       4.018  13.064 -10.613  1.00 22.98 LIG 0.04  C 
BRANCH 7 8
ATOM      8  CG  ARG X 128       5.344  13.104 -11.400  1.00 26.06 LIG 0.02  C 
BRANCH 8 9
ATOM      9  CD  ARG X 128       5.786  11.759 -12.122  1.00 28.46 LIG 0.14  C 
BRANCH 9 10
ATOM     10  NE  ARG X 128       7.176  11.392 -12.349  1.00 34.87 LIG-0.23  N 
ATOM     11 HE   ARG X 128       7.702  11.421 -11.669  1.00 34.87 LIG 0.18  HD
ATOM     12  CZ  ARG X 128       7.716  11.015 -13.516  1.00 35.06 LIG 0.67  C 
ATOM     13  NH1 ARG X 128       7.023  10.992 -14.639  1.00 38.28 LIG-0.23  N 
ATOM     14  NH2 ARG X 128       8.977  10.694 -13.556  1.00 41.06 LIG-0.23  N 
ATOM     15 1HH1 ARG X 128       6.195  11.225 -14.639  1.00 38.28 LIG 0.17  HD
ATOM     16 2HH1 ARG X 128       7.399  10.745 -15.372  1.00 38.28 LIG 0.17  HD
ATOM     17 1HH2 ARG X 128       9.452  10.727 -12.839  1.00 41.06 LIG 0.17  HD
ATOM     18 2HH2 ARG X 128       9.336  10.450 -14.298  1.00 41.06 LIG 0.17  HD
ENDBRANCH 9 10
ENDBRANCH 8 9
ENDBRANCH 7 8
ENDBRANCH 6 7
BRANCH 6 19
ATOM     19  N   ARG X 128       5.597  12.253  -9.021  1.00 22.62 LIG-0.35  N 
ATOM     20 H    ARG X 128       5.753  11.597  -9.555  1.00 22.62 LIG 0.16  HD
ATOM     21  C   ALA X 127       6.486  12.726  -8.157  1.00 23.78 LIG 0.24  C 
ATOM     22 O    ALA X 127       6.274  13.704  -7.445  1.00 22.39 LIG-0.27  OA
BRANCH 21 23
ATOM     23  CA  ALA X 127       7.874  12.065  -8.189  1.00 25.08 LIG 0.17  C 
ATOM     24  CB  ALA X 127       7.855  10.659  -7.605  1.00 24.37 LIG 0.04  C 
BRANCH 23 25
ATOM     25  N   ALA X 127       8.794  12.948  -7.483  1.00 27.78 LIG-0.35  N 
ATOM     26  C   LEU X 126       9.482  13.801  -8.241  1.00 33.19 LIG 0.26  C 
ATOM     27 O    LEU X 126       9.301  13.918  -9.494  1.00 34.96 LIG-0.27  OA
ATOM     28 H    ALA X 127       8.838  12.867  -6.628  1.00 27.78 LIG 0.16  HD
BRANCH 26 29
ATOM     29  CA  LEU X 126      10.518  14.639  -7.550  1.00 34.21 LIG 0.40  C 
ATOM     30  N   LEU X 126      11.553  13.805  -6.909  1.00 36.42 LIG 0.61  N 
BRANCH 29 31
ATOM     31  CB  LEU X 126      11.135  15.583  -8.603  1.00 35.53 LIG 0.06  C 
BRANCH 31 32
ATOM     32  CG  LEU X 126      10.334  16.857  -8.902  1.00 35.00 LIG-0.02  C 
ATOM     33  CD2 LEU X 126      10.181  17.024 -10.436  1.00 38.18 LIG 0.01  C 
ATOM     34  CD1 LEU X 126      10.994  18.066  -8.322  1.00 36.44 LIG 0.01  C 
ENDBRANCH 31 32
ENDBRANCH 29 31
ENDBRANCH 26 29
ENDBRANCH 23 25
ENDBRANCH 21 23
ENDBRANCH 6 19
ENDBRANCH 3 6
ENDBRANCH 1 2
BRANCH 1 35
ATOM     35  C   ARG X 129       0.108  11.816  -7.506  1.00 22.72 LIG 0.24  C 
ATOM     36  N   LEU X 130      -0.536  10.794  -8.095  1.00 24.32 LIG-0.35  N 
ATOM     37 H    LEU X 130      -0.204  10.012  -8.226  1.00 24.32 LIG 0.16  HD
ATOM     38 O    ARG X 129      -0.382  12.945  -7.478  1.00 21.19 LIG-0.27  OA
BRANCH 36 39
ATOM     39  CA  LEU X 130      -1.928  10.981  -8.573  1.00 26.11 LIG 0.18  C 
BRANCH 39 40
ATOM     40  C   LEU X 130      -2.854   9.918  -8.031  1.00 29.66 LIG 0.24  C 
ATOM     41 O    LEU X 130      -2.441   9.119  -7.176  1.00 28.98 LIG-0.27  OA
ATOM     42  N   ARG X 131      -4.079   9.867  -8.545  1.00 30.67 LIG-0.34  N 
ATOM     43 H    ARG X 131      -4.403  10.456  -9.082  1.00 30.67 LIG 0.16  HD
BRANCH 42 44
ATOM     44  CA  ARG X 131      -4.983   8.783  -8.223  1.00 33.89 LIG 0.18  C 
BRANCH 44 45
ATOM     45  C   ARG X 131      -4.595   7.485  -8.934  1.00 35.66 LIG 0.20  C 
ATOM     46 OXT  ARG X 131      -3.989   7.487 -10.028  1.00 35.07 LIG-0.65  OA
ATOM     47 O    ARG X 131      -4.898   6.356  -8.446  1.00 37.10 LIG-0.65  OA
ENDBRANCH 44 45
BRANCH 44 48
ATOM     48  CB  ARG X 131      -6.413   9.182  -8.603  1.00 35.20 LIG 0.04  C 
BRANCH 48 49
ATOM     49  CG  ARG X 131      -7.239   9.730  -7.425  1.00 40.01 LIG 0.02  C 
BRANCH 49 50
ATOM     50  CD  ARG X 131      -6.823   9.161  -6.042  1.00 47.84 LIG 0.14  C 
BRANCH 50 51
ATOM     51  NE  ARG X 131      -5.723   9.937  -5.469  1.00 52.72 LIG-0.23  N 
ATOM     52  CZ  ARG X 131      -5.815  10.730  -4.399  1.00 57.07 LIG 0.67  C 
ATOM     53  NH1 ARG X 131      -6.972  10.854  -3.728  1.00 58.64 LIG-0.23  N 
ATOM     54  NH2 ARG X 131      -4.734  11.399  -3.989  1.00 59.02 LIG-0.23  N 
ATOM     55 2HH1 ARG X 131      -7.018  11.368  -3.040  1.00 58.64 LIG 0.17  HD
ATOM     56 1HH1 ARG X 131      -7.668  10.419  -3.986  1.00 58.64 LIG 0.17  HD
ATOM     57 2HH2 ARG X 131      -4.782  11.913  -3.301  1.00 59.02 LIG 0.17  HD
ATOM     58 1HH2 ARG X 131      -3.991  11.316  -4.413  1.00 59.02 LIG 0.17  HD
ATOM     59 HE   ARG X 131      -4.956   9.878  -5.853  1.00 52.72 LIG 0.18  HD
ENDBRANCH 50 51
ENDBRANCH 49 50
ENDBRANCH 48 49
ENDBRANCH 44 48
ENDBRANCH 42 44
ENDBRANCH 39 40
BRANCH 39 60
ATOM     60  CB  LEU X 130      -2.051  10.951 -10.099  1.00 27.29 LIG 0.04  C 
BRANCH 60 61
ATOM     61  CG  LEU X 130      -1.782  12.197 -10.927  1.00 26.34 LIG-0.02  C 
ATOM     62  CD1 LEU X 130      -2.317  12.080 -12.392  1.00 29.54 LIG 0.01  C 
ATOM     63  CD2 LEU X 130      -2.422  13.360 -10.241  1.00 21.56 LIG 0.01  C 
ENDBRANCH 60 61
ENDBRANCH 39 60
ENDBRANCH 36 39
ENDBRANCH 1 35
BRANCH 1 64
ATOM     64  CB  ARG X 129       1.481  12.261  -5.428  1.00 24.17 LIG 0.04  C 
BRANCH 64 65
ATOM     65  CG  ARG X 129       1.114  11.432  -4.279  1.00 28.32 LIG 0.02  C 
BRANCH 65 66
ATOM     66  CD  ARG X 129      -0.117  11.905  -3.527  1.00 31.43 LIG 0.14  C 
BRANCH 66 67
ATOM     67  NE  ARG X 129      -0.313  11.332  -2.188  1.00 29.42 LIG-0.23  N 
ATOM     68  CZ  ARG X 129      -1.280  11.671  -1.343  1.00 30.66 LIG 0.67  C 
ATOM     69  NH1 ARG X 129      -2.120  12.665  -1.618  1.00 33.32 LIG-0.23  N 
ATOM     70  NH2 ARG X 129      -1.385  11.027  -0.174  1.00 29.67 LIG-0.23  N 
ATOM     71 2HH1 ARG X 129      -2.740  12.872  -1.060  1.00 33.32 LIG 0.17  HD
ATOM     72 1HH1 ARG X 129      -2.043  13.102  -2.355  1.00 33.32 LIG 0.17  HD
ATOM     73 2HH2 ARG X 129      -2.008  11.241   0.380  1.00 29.67 LIG 0.17  HD
ATOM     74 1HH2 ARG X 129      -0.831  10.401   0.024  1.00 29.67 LIG 0.17  HD
ATOM     75 HE   ARG X 129       0.243  10.728  -1.931  1.00 29.42 LIG 0.18  HD
ENDBRANCH 66 67
ENDBRANCH 65 66
ENDBRANCH 64 65
ENDBRANCH 1 64
TORSDOF 27
ENDMDL
MODEL 2
USER: ADFR SOLUTION from run 175
USER: SCORE 29.725585 LL:  -3.796 LR: -26.820 RR:   0.000 FEB: -18.766
USER: RMSD 4.978117
USER: SEED 174
USER: STATUS no improvement in best in 13 clusters for 5 generations
USER: GENES 29
USER: genes 0 Translation |==|  0.46434 0.37085 0.51433
USER: genes 1 Rotation |==|  0.40699 0.48023 0.55638 0.98763
USER: genes 2 Torsion [C]-CA--N-[C] |==|  0.76736
USER: genes 3 Torsion [N]-C--CA-[N] |==|  0.31228
USER: genes 4 Torsion [C]-CA--CB-[CG] |==|  0.54945
USER: genes 5 Torsion [CA]-CB--CG-[CD] |==|  0.38182
USER: genes 6 Torsion [CB]-CG--CD-[NE] |==|  0.67933
USER: genes 7 Torsion [CG]-CD--NE-[HE] |==|  0.97257
USER: genes 8 Torsion [C]-CA--N-[C] |==|  0.68931
USER: genes 9 Torsion [N]-C--CA-[N] |==|  0.42222
USER: genes 10 Torsion [C]-CA--N-[C] |==|  0.80400
USER: genes 11 Torsion [N]-C--CA-[N] |==|  0.12688
USER: genes 12 Torsion [C]-CA--CB-[CG] |==|  0.30280
USER: genes 13 Torsion [CA]-CB--CG-[CD2] |==|  0.52657
USER: genes 14 Torsion [N]-CA--C-[N] |==|  0.31791
USER: genes 15 Torsion [C]-N--CA-[C] |==|  0.63622
USER: genes 16 Torsion [N]-CA--C-[N] |==|  0.53681
USER: genes 17 Torsion [C]-N--CA-[C] |==|  0.82153
USER: genes 18 Torsion [N]-CA--C-[O] |==|  0.41971
USER: genes 19 Torsion [N]-CA--CB-[CG] |==|  0.13655
USER: genes 20 Torsion [CA]-CB--CG-[CD] |==|  0.55353
USER: genes 21 Torsion [CB]-CG--CD-[NE] |==|  0.60757
USER: genes 22 Torsion [CG]-CD--NE-[CZ] |==|  0.67373
USER: genes 23 Torsion [N]-CA--CB-[CG] |==|  0.06244
USER: genes 24 Torsion [CA]-CB--CG-[CD1] |==|  0.82711
USER: genes 25 Torsion [N]-CA--CB-[CG] |==|  0.55230
USER: genes 26 Torsion [CA]-CB--CG-[CD] |==|  0.65464
USER: genes 27 Torsion [CB]-CG--CD-[NE] |==|  0.30360
USER: genes 28 Torsion [CG]-CD--NE-[HE] |==|  0.94505
ROOT
ATOM      1  CA  ARG X 129       1.407  11.486  -6.853  1.00 23.09 LIG 0.18  C 
ENDROOT
BRANCH 1 2
ATOM      2  N   ARG X 129       2.556  12.166  -7.436  1.00 20.82 LIG-0.35  N 
ATOM      3  C   ARG X 128       3.261  11.717  -8.476  1.00 20.67 LIG 0.24  C 
ATOM      4 O    ARG X 128       3.041  10.630  -9.068  1.00 18.99 LIG-0.27  OA
ATOM      5 H    ARG X 129       2.745  12.904  -7.038  1.00 20.82 LIG 0.16  HD
BRANCH 3 6
ATOM      6  CA  ARG X 128       4.391  12.631  -8.944  1.00 21.45 LIG 0.18  C 
BRANCH 6 7
ATOM      7  CB  ARG X 128       4.293  12.892 -10.437  1.00 22.98 LIG 0.04  C 
BRANCH 7 8
ATOM      8  CG  ARG X 128       5.631  13.423 -10.989  1.00 26.06 LIG 0.02  C 
BRANCH 8 9
ATOM      9  CD  ARG X 128       6.118  12.824 -12.378  1.00 28.46 LIG 0.14  C 
BRANCH 9 10
ATOM     10  NE  ARG X 128       7.327  12.026 -12.525  1.00 34.87 LIG-0.23  N 
ATOM     11 HE   ARG X 128       7.854  11.990 -11.846  1.00 34.87 LIG 0.18  HD
ATOM     12  CZ  ARG X 128       7.696  11.341 -13.615  1.00 35.06 LIG 0.67  C 
ATOM     13  NH1 ARG X 128       6.999  11.369 -14.736  1.00 38.28 LIG-0.23  N 
ATOM     14  NH2 ARG X 128       8.800  10.651 -13.585  1.00 41.06 LIG-0.23  N 
ATOM     15 1HH1 ARG X 128       6.281  11.839 -14.784  1.00 38.28 LIG 0.17  HD
ATOM     16 2HH1 ARG X 128       7.264  10.918 -15.419  1.00 38.28 LIG 0.17  HD
ATOM     17 1HH2 ARG X 128       9.281  10.639 -12.873  1.00 41.06 LIG 0.17  HD
ATOM     18 2HH2 ARG X 128       9.049  10.206 -14.279  1.00 41.06 LIG 0.17  HD
ENDBRANCH 9 10
ENDBRANCH 8 9
ENDBRANCH 7 8
ENDBRANCH 6 7
BRANCH 6 19
ATOM     19  N   ARG X 128       5.676  12.034  -8.694  1.00 22.62 LIG-0.35  N 
ATOM     20 H    ARG X 128       5.841  11.340  -9.174  1.00 22.62 LIG 0.16  HD
ATOM     21  C   ALA X 127       6.519  12.526  -7.796  1.00 23.78 LIG 0.24  C 
ATOM     22 O    ALA X 127       6.300  13.555  -7.161  1.00 22.39 LIG-0.27  OA
BRANCH 21 23
ATOM     23  CA  ALA X 127       7.875  11.810  -7.682  1.00 25.08 LIG 0.17  C 
ATOM     24  CB  ALA X 127       7.808  10.588  -6.776  1.00 24.37 LIG 0.04  C 
BRANCH 23 25
ATOM     25  N   ALA X 127       8.851  12.790  -7.222  1.00 27.78 LIG-0.35  N 
ATOM     26  C   LEU X 126       9.190  13.734  -8.100  1.00 33.19 LIG 0.26  C 
ATOM     27 O    LEU X 126       8.646  13.845  -9.243  1.00 34.96 LIG-0.27  OA
ATOM     28 H    ALA X 127       9.146  12.703  -6.419  1.00 27.78 LIG 0.16  HD
BRANCH 26 29
ATOM     29  CA  LEU X 126      10.275  14.684  -7.688  1.00 34.21 LIG 0.40  C 
ATOM     30  N   LEU X 126      11.420  13.974  -7.083  1.00 36.42 LIG 0.61  N 
BRANCH 29 31
ATOM     31  CB  LEU X 126      10.708  15.473  -8.942  1.00 35.53 LIG 0.06  C 
BRANCH 31 32
ATOM     32  CG  LEU X 126      10.296  16.951  -8.969  1.00 35.00 LIG-0.02  C 
ATOM     33  CD2 LEU X 126      10.582  17.542 -10.374  1.00 38.18 LIG 0.01  C 
ATOM     34  CD1 LEU X 126      11.021  17.740  -7.927  1.00 36.44 LIG 0.01  C 
ENDBRANCH 31 32
ENDBRANCH 29 31
ENDBRANCH 26 29
ENDBRANCH 23 25
ENDBRANCH 21 23
ENDBRANCH 6 19
ENDBRANCH 3 6
ENDBRANCH 1 2
BRANCH 1 35
ATOM     35  C   ARG X 129       0.089  11.799  -7.613  1.00 22.72 LIG 0.24  C 
ATOM     36  N   LEU X 130      -0.568  10.833  -8.277  1.00 24.32 LIG-0.35  N 
ATOM     37 H    LEU X 130      -0.269  10.038  -8.414  1.00 24.32 LIG 0.16  HD
ATOM     38 O    ARG X 129      -0.342  12.952  -7.575  1.00 21.19 LIG-0.27  OA
BRANCH 36 39
ATOM     39  CA  LEU X 130      -1.914  11.111  -8.835  1.00 26.11 LIG 0.18  C 
BRANCH 39 40
ATOM     40  C   LEU X 130      -2.907  10.033  -8.465  1.00 29.66 LIG 0.24  C 
ATOM     41 O    LEU X 130      -2.606   9.186  -7.610  1.00 28.98 LIG-0.27  OA
ATOM     42  N   ARG X 131      -4.062  10.027  -9.122  1.00 30.67 LIG-0.34  N 
ATOM     43 H    ARG X 131      -4.315  10.647  -9.662  1.00 30.67 LIG 0.16  HD
BRANCH 42 44
ATOM     44  CA  ARG X 131      -5.006   8.940  -8.969  1.00 33.89 LIG 0.18  C 
BRANCH 44 45
ATOM     45  C   ARG X 131      -4.441   7.615  -9.482  1.00 35.66 LIG 0.20  C 
ATOM     46 OXT  ARG X 131      -3.613   7.567 -10.418  1.00 35.07 LIG-0.65  OA
ATOM     47 O    ARG X 131      -4.815   6.510  -8.988  1.00 37.10 LIG-0.65  OA
ENDBRANCH 44 45
BRANCH 44 48
ATOM     48  CB  ARG X 131      -6.301   9.282  -9.713  1.00 35.20 LIG 0.04  C 
BRANCH 48 49
ATOM     49  CG  ARG X 131      -6.077   9.766 -11.158  1.00 40.01 LIG 0.02  C 
BRANCH 49 50
ATOM     50  CD  ARG X 131      -7.278  10.547 -11.757  1.00 47.84 LIG 0.14  C 
BRANCH 50 51
ATOM     51  NE  ARG X 131      -7.470  10.204 -13.166  1.00 52.72 LIG-0.23  N 
ATOM     52  CZ  ARG X 131      -7.367  11.058 -14.187  1.00 57.07 LIG 0.67  C 
ATOM     53  NH1 ARG X 131      -7.038  12.344 -13.982  1.00 58.64 LIG-0.23  N 
ATOM     54  NH2 ARG X 131      -7.585  10.618 -15.429  1.00 59.02 LIG-0.23  N 
ATOM     55 2HH1 ARG X 131      -6.975  12.884 -14.649  1.00 58.64 LIG 0.17  HD
ATOM     56 1HH1 ARG X 131      -6.890  12.628 -13.184  1.00 58.64 LIG 0.17  HD
ATOM     57 2HH2 ARG X 131      -7.522  11.159 -16.095  1.00 59.02 LIG 0.17  HD
ATOM     58 1HH2 ARG X 131      -7.789   9.793 -15.564  1.00 59.02 LIG 0.17  HD
ATOM     59 HE   ARG X 131      -7.665   9.387 -13.351  1.00 52.72 LIG 0.18  HD
ENDBRANCH 50 51
ENDBRANCH 49 50
ENDBRANCH 48 49
ENDBRANCH 44 48
ENDBRANCH 42 44
ENDBRANCH 39 40
BRANCH 39 60
ATOM     60  CB  LEU X 130      -1.923  11.225 -10.362  1.00 27.29 LIG 0.04  C 
BRANCH 60 61
ATOM     61  CG  LEU X 130      -0.825  10.586 -11.197  1.00 26.34 LIG-0.02  C 
ATOM     62  CD1 LEU X 130       0.590  11.177 -10.895  1.00 29.54 LIG 0.01  C 
ATOM     63  CD2 LEU X 130      -0.832   9.116 -10.929  1.00 21.56 LIG 0.01  C 
ENDBRANCH 60 61
ENDBRANCH 39 60
ENDBRANCH 36 39
ENDBRANCH 1 35
BRANCH 1 64
ATOM     64  CB  ARG X 129       1.343  12.099  -5.436  1.00 24.17 LIG 0.04  C 
BRANCH 64 65
ATOM     65  CG  ARG X 129       0.587  11.376  -4.412  1.00 28.32 LIG 0.02  C 
BRANCH 65 66
ATOM     66  CD  ARG X 129      -0.504  12.190  -3.741  1.00 31.43 LIG 0.14  C 
BRANCH 66 67
ATOM     67  NE  ARG X 129      -1.885  11.814  -4.075  1.00 29.42 LIG-0.23  N 
ATOM     68  CZ  ARG X 129      -2.958  12.117  -3.353  1.00 30.66 LIG 0.67  C 
ATOM     69  NH1 ARG X 129      -2.848  12.726  -2.175  1.00 33.32 LIG-0.23  N 
ATOM     70  NH2 ARG X 129      -4.171  11.769  -3.801  1.00 29.67 LIG-0.23  N 
ATOM     71 2HH1 ARG X 129      -3.553  12.915  -1.720  1.00 33.32 LIG 0.17  HD
ATOM     72 1HH1 ARG X 129      -2.071  12.930  -1.867  1.00 33.32 LIG 0.17  HD
ATOM     73 2HH2 ARG X 129      -4.870  11.960  -3.340  1.00 29.67 LIG 0.17  HD
ATOM     74 1HH2 ARG X 129      -4.249  11.352  -4.549  1.00 29.67 LIG 0.17  HD
ATOM     75 HE   ARG X 129      -2.009  11.361  -4.795  1.00 29.42 LIG 0.18  HD
ENDBRANCH 66 67
ENDBRANCH 65 66
ENDBRANCH 64 65
ENDBRANCH 1 64
TORSDOF 27
ENDMDL
MODEL 3
USER: ADFR SOLUTION from run 128
USER: SCORE 29.319862 LL:  -3.694 LR: -26.684 RR:   0.000 FEB: -18.630
USER: RMSD 3.927995
USER: SEED 127
USER: STATUS no improvement in best in 14 clusters for 5 generations
USER: GENES 29
USER: genes 0 Translation |==|  0.47599 0.39188 0.52626
USER: genes 1 Rotation |==|  0.35642 0.50096 0.56659 0.97429
USER: genes 2 Torsion [C]-CA--N-[C] |==|  0.78572
USER: genes 3 Torsion [N]-C--CA-[N] |==|  0.30445
USER: genes 4 Torsion [C]-CA--CB-[CG] |==|  0.49059
USER: genes 5 Torsion [CA]-CB--CG-[CD] |==|  0.37868
USER: genes 6 Torsion [CB]-CG--CD-[NE] |==|  0.74651
USER: genes 7 Torsion [CG]-CD--NE-[HE] |==|  0.96434
USER: genes 8 Torsion [C]-CA--N-[C] |==|  0.73402
USER: genes 9 Torsion [N]-C--CA-[N] |==|  0.42103
USER: genes 10 Torsion [C]-CA--N-[C] |==|  0.80916
USER: genes 11 Torsion [N]-C--CA-[N] |==|  0.10305
USER: genes 12 Torsion [C]-CA--CB-[CG] |==|  0.27454
USER: genes 13 Torsion [CA]-CB--CG-[CD2] |==|  0.59948
USER: genes 14 Torsion [N]-CA--C-[N] |==|  0.27956
USER: genes 15 Torsion [C]-N--CA-[C] |==|  0.66170
USER: genes 16 Torsion [N]-CA--C-[N] |==|  0.55000
USER: genes 17 Torsion [C]-N--CA-[C] |==|  0.69961
USER: genes 18 Torsion [N]-CA--C-[O] |==|  0.45161
USER: genes 19 Torsion [N]-CA--CB-[CG] |==|  0.56661
USER: genes 20 Torsion [CA]-CB--CG-[CD] |==|  0.28561
USER: genes 21 Torsion [CB]-CG--CD-[NE] |==|  0.93908
USER: genes 22 Torsion [CG]-CD--NE-[CZ] |==|  0.45836
USER: genes 23 Torsion [N]-CA--CB-[CG] |==|  0.11435
USER: genes 24 Torsion [CA]-CB--CG-[CD1] |==|  0.43337
USER: genes 25 Torsion [N]-CA--CB-[CG] |==|  0.77157
USER: genes 26 Torsion [CA]-CB--CG-[CD] |==|  0.19090
USER: genes 27 Torsion [CB]-CG--CD-[NE] |==|  0.39242
USER: genes 28 Torsion [CG]-CD--NE-[HE] |==|  0.77556
ROOT
ATOM      1  CA  ARG X 129       1.730  11.833  -6.585  1.00 23.09 LIG 0.18  C 
ENDROOT
BRANCH 1 2
ATOM      2  N   ARG X 129       2.822  12.387  -7.375  1.00 20.82 LIG-0.35  N 
ATOM      3  C   ARG X 128       3.391  11.782  -8.418  1.00 20.67 LIG 0.24  C 
ATOM      4 O    ARG X 128       3.078  10.638  -8.836  1.00 18.99 LIG-0.27  OA
ATOM      5 H    ARG X 129       3.073  13.162  -7.100  1.00 20.82 LIG 0.16  HD
BRANCH 3 6
ATOM      6  CA  ARG X 128       4.483  12.585  -9.124  1.00 21.45 LIG 0.18  C 
BRANCH 6 7
ATOM      7  CB  ARG X 128       4.258  12.599 -10.626  1.00 22.98 LIG 0.04  C 
BRANCH 7 8
ATOM      8  CG  ARG X 128       5.312  13.479 -11.328  1.00 26.06 LIG 0.02  C 
BRANCH 8 9
ATOM      9  CD  ARG X 128       5.959  12.894 -12.657  1.00 28.46 LIG 0.14  C 
BRANCH 9 10
ATOM     10  NE  ARG X 128       7.176  12.096 -12.670  1.00 34.87 LIG-0.23  N 
ATOM     11 HE   ARG X 128       7.642  12.085 -11.947  1.00 34.87 LIG 0.18  HD
ATOM     12  CZ  ARG X 128       7.642  11.378 -13.700  1.00 35.06 LIG 0.67  C 
ATOM     13  NH1 ARG X 128       7.047  11.367 -14.879  1.00 38.28 LIG-0.23  N 
ATOM     14  NH2 ARG X 128       8.740  10.694 -13.551  1.00 41.06 LIG-0.23  N 
ATOM     15 1HH1 ARG X 128       6.335  11.832 -15.006  1.00 38.28 LIG 0.17  HD
ATOM     16 2HH1 ARG X 128       7.372  10.895 -15.521  1.00 38.28 LIG 0.17  HD
ATOM     17 1HH2 ARG X 128       9.156  10.708 -12.798  1.00 41.06 LIG 0.17  HD
ATOM     18 2HH2 ARG X 128       9.050  10.229 -14.204  1.00 41.06 LIG 0.17  HD
ENDBRANCH 9 10
ENDBRANCH 8 9
ENDBRANCH 7 8
ENDBRANCH 6 7
BRANCH 6 19
ATOM     19  N   ARG X 128       5.780  12.011  -8.887  1.00 22.62 LIG-0.35  N 
ATOM     20 H    ARG X 128       5.983  11.367  -9.419  1.00 22.62 LIG 0.16  HD
ATOM     21  C   ALA X 127       6.581  12.451  -7.924  1.00 23.78 LIG 0.24  C 
ATOM     22 O    ALA X 127       6.308  13.413  -7.211  1.00 22.39 LIG-0.27  OA
BRANCH 21 23
ATOM     23  CA  ALA X 127       7.958  11.773  -7.832  1.00 25.08 LIG 0.17  C 
ATOM     24  CB  ALA X 127       7.911  10.480  -7.027  1.00 24.37 LIG 0.04  C 
BRANCH 23 25
ATOM     25  N   ALA X 127       8.887  12.745  -7.269  1.00 27.78 LIG-0.35  N 
ATOM     26  C   LEU X 126       9.184  13.786  -8.045  1.00 33.19 LIG 0.26  C 
ATOM     27 O    LEU X 126       8.638  13.988  -9.175  1.00 34.96 LIG-0.27  OA
ATOM     28 H    ALA X 127       9.185  12.590  -6.477  1.00 27.78 LIG 0.16  HD
BRANCH 26 29
ATOM     29  CA  LEU X 126      10.224  14.739  -7.533  1.00 34.21 LIG 0.40  C 
ATOM     30  N   LEU X 126      11.303  14.031  -6.814  1.00 36.42 LIG 0.61  N 
BRANCH 29 31
ATOM     31  CB  LEU X 126      10.780  15.521  -8.741  1.00 35.53 LIG 0.06  C 
BRANCH 31 32
ATOM     32  CG  LEU X 126      10.186  16.920  -8.954  1.00 35.00 LIG-0.02  C 
ATOM     33  CD2 LEU X 126      10.068  17.206 -10.474  1.00 38.18 LIG 0.01  C 
ATOM     34  CD1 LEU X 126      11.022  17.973  -8.301  1.00 36.44 LIG 0.01  C 
ENDBRANCH 31 32
ENDBRANCH 29 31
ENDBRANCH 26 29
ENDBRANCH 23 25
ENDBRANCH 21 23
ENDBRANCH 6 19
ENDBRANCH 3 6
ENDBRANCH 1 2
BRANCH 1 35
ATOM     35  C   ARG X 129       0.360  11.953  -7.306  1.00 22.72 LIG 0.24  C 
ATOM     36  N   LEU X 130      -0.177  10.898  -7.943  1.00 24.32 LIG-0.35  N 
ATOM     37 H    LEU X 130       0.225  10.150  -8.083  1.00 24.32 LIG 0.16  HD
ATOM     38 O    ARG X 129      -0.225  13.036  -7.264  1.00 21.19 LIG-0.27  OA
BRANCH 36 39
ATOM     39  CA  LEU X 130      -1.565  10.981  -8.461  1.00 26.11 LIG 0.18  C 
BRANCH 39 40
ATOM     40  C   LEU X 130      -2.447   9.905  -7.874  1.00 29.66 LIG 0.24  C 
ATOM     41 O    LEU X 130      -2.077   9.289  -6.862  1.00 28.98 LIG-0.27  OA
ATOM     42  N   ARG X 131      -3.582   9.641  -8.514  1.00 30.67 LIG-0.34  N 
ATOM     43 H    ARG X 131      -3.886  10.106  -9.171  1.00 30.67 LIG 0.16  HD
BRANCH 42 44
ATOM     44  CA  ARG X 131      -4.411   8.515  -8.137  1.00 33.89 LIG 0.18  C 
BRANCH 44 45
ATOM     45  C   ARG X 131      -4.354   7.391  -9.173  1.00 35.66 LIG 0.20  C 
ATOM     46 OXT  ARG X 131      -3.957   7.588 -10.342  1.00 35.07 LIG-0.65  OA
ATOM     47 O    ARG X 131      -4.733   6.217  -8.885  1.00 37.10 LIG-0.65  OA
ENDBRANCH 44 45
BRANCH 44 48
ATOM     48  CB  ARG X 131      -5.857   8.987  -7.954  1.00 35.20 LIG 0.04  C 
BRANCH 48 49
ATOM     49  CG  ARG X 131      -6.692   8.085  -7.026  1.00 40.01 LIG 0.02  C 
BRANCH 49 50
ATOM     50  CD  ARG X 131      -6.898   8.663  -5.601  1.00 47.84 LIG 0.14  C 
BRANCH 50 51
ATOM     51  NE  ARG X 131      -5.863   9.647  -5.283  1.00 52.72 LIG-0.23  N 
ATOM     52  CZ  ARG X 131      -5.914  10.520  -4.274  1.00 57.07 LIG 0.67  C 
ATOM     53  NH1 ARG X 131      -6.956  10.536  -3.426  1.00 58.64 LIG-0.23  N 
ATOM     54  NH2 ARG X 131      -4.906  11.380  -4.105  1.00 59.02 LIG-0.23  N 
ATOM     55 2HH1 ARG X 131      -6.976  11.103  -2.780  1.00 58.64 LIG 0.17  HD
ATOM     56 1HH1 ARG X 131      -7.602   9.978  -3.528  1.00 58.64 LIG 0.17  HD
ATOM     57 2HH2 ARG X 131      -4.929  11.947  -3.459  1.00 59.02 LIG 0.17  HD
ATOM     58 1HH2 ARG X 131      -4.235  11.367  -4.643  1.00 59.02 LIG 0.17  HD
ATOM     59 HE   ARG X 131      -5.167   9.665  -5.787  1.00 52.72 LIG 0.18  HD
ENDBRANCH 50 51
ENDBRANCH 49 50
ENDBRANCH 48 49
ENDBRANCH 44 48
ENDBRANCH 42 44
ENDBRANCH 39 40
BRANCH 39 60
ATOM     60  CB  LEU X 130      -1.648  10.851  -9.984  1.00 27.29 LIG 0.04  C 
BRANCH 60 61
ATOM     61  CG  LEU X 130      -0.794   9.837 -10.728  1.00 26.34 LIG-0.02  C 
ATOM     62  CD1 LEU X 130      -1.402   9.426 -12.108  1.00 29.54 LIG 0.01  C 
ATOM     63  CD2 LEU X 130       0.564  10.428 -10.924  1.00 21.56 LIG 0.01  C 
ENDBRANCH 60 61
ENDBRANCH 39 60
ENDBRANCH 36 39
ENDBRANCH 1 35
BRANCH 1 64
ATOM     64  CB  ARG X 129       1.734  12.738  -5.333  1.00 24.17 LIG 0.04  C 
BRANCH 64 65
ATOM     65  CG  ARG X 129       2.693  12.430  -4.270  1.00 28.32 LIG 0.02  C 
BRANCH 65 66
ATOM     66  CD  ARG X 129       4.144  12.677  -4.636  1.00 31.43 LIG 0.14  C 
BRANCH 66 67
ATOM     67  NE  ARG X 129       4.989  13.242  -3.575  1.00 29.42 LIG-0.23  N 
ATOM     68  CZ  ARG X 129       5.817  12.547  -2.802  1.00 30.66 LIG 0.67  C 
ATOM     69  NH1 ARG X 129       5.873  11.220  -2.870  1.00 33.32 LIG-0.23  N 
ATOM     70  NH2 ARG X 129       6.580  13.192  -1.911  1.00 29.67 LIG-0.23  N 
ATOM     71 2HH1 ARG X 129       6.415  10.785  -2.363  1.00 33.32 LIG 0.17  HD
ATOM     72 1HH1 ARG X 129       5.368  10.796  -3.422  1.00 33.32 LIG 0.17  HD
ATOM     73 2HH2 ARG X 129       7.118  12.750  -1.407  1.00 29.67 LIG 0.17  HD
ATOM     74 1HH2 ARG X 129       6.531  14.048  -1.842  1.00 29.67 LIG 0.17  HD
ATOM     75 HE   ARG X 129       4.945  14.091  -3.443  1.00 29.42 LIG 0.18  HD
ENDBRANCH 66 67
ENDBRANCH 65 66
ENDBRANCH 64 65
ENDBRANCH 1 64
TORSDOF 27
ENDMDL
MODEL 4
USER: ADFR SOLUTION from run 150
USER: SCORE 30.005680 LL:  -4.056 LR: -26.431 RR:   0.000 FEB: -18.376
USER: RMSD 1.918289
USER: SEED 149
USER: STATUS searching
USER: GENES 29
USER: genes 0 Translation |==|  0.46417 0.39239 0.47912
USER: genes 1 Rotation |==|  0.46373 0.48359 0.51261 0.99825
USER: genes 2 Torsion [C]-CA--N-[C] |==|  0.73444
USER: genes 3 Torsion [N]-C--CA-[N] |==|  0.30224
USER: genes 4 Torsion [C]-CA--CB-[CG] |==|  0.51735
USER: genes 5 Torsion [CA]-CB--CG-[CD] |==|  0.39842
USER: genes 6 Torsion [CB]-CG--CD-[NE] |==|  0.73055
USER: genes 7 Torsion [CG]-CD--NE-[HE] |==|  0.88369
USER: genes 8 Torsion [C]-CA--N-[C] |==|  0.68009
USER: genes 9 Torsion [N]-C--CA-[N] |==|  0.43478
USER: genes 10 Torsion [C]-CA--N-[C] |==|  0.79536
USER: genes 11 Torsion [N]-C--CA-[N] |==|  0.15787
USER: genes 12 Torsion [C]-CA--CB-[CG] |==|  0.23510
USER: genes 13 Torsion [CA]-CB--CG-[CD2] |==|  0.62402
USER: genes 14 Torsion [N]-CA--C-[N] |==|  0.28505
USER: genes 15 Torsion [C]-N--CA-[C] |==|  0.82935
USER: genes 16 Torsion [N]-CA--C-[N] |==|  0.38754
USER: genes 17 Torsion [C]-N--CA-[C] |==|  0.61888
USER: genes 18 Torsion [N]-CA--C-[O] |==|  0.43504
USER: genes 19 Torsion [N]-CA--CB-[CG] |==|  0.93786
USER: genes 20 Torsion [CA]-CB--CG-[CD] |==|  0.74444
USER: genes 21 Torsion [CB]-CG--CD-[NE] |==|  0.03448
USER: genes 22 Torsion [CG]-CD--NE-[CZ] |==|  0.76639
USER: genes 23 Torsion [N]-CA--CB-[CG] |==|  0.62401
USER: genes 24 Torsion [CA]-CB--CG-[CD1] |==|  0.96183
USER: genes 25 Torsion [N]-CA--CB-[CG] |==|  0.54990
USER: genes 26 Torsion [CA]-CB--CG-[CD] |==|  0.48264
USER: genes 27 Torsion [CB]-CG--CD-[NE] |==|  0.42811
USER: genes 28 Torsion [CG]-CD--NE-[HE] |==|  0.03572
ROOT
ATOM      1  CA  ARG X 129       1.402  11.841  -7.646  1.00 23.09 LIG 0.18  C 
ENDROOT
BRANCH 1 2
ATOM      2  N   ARG X 129       2.657  12.437  -8.087  1.00 20.82 LIG-0.35  N 
ATOM      3  C   ARG X 128       3.403  11.984  -9.095  1.00 20.67 LIG 0.24  C 
ATOM      4 O    ARG X 128       3.133  10.961  -9.776  1.00 18.99 LIG-0.27  OA
ATOM      5 H    ARG X 129       2.879  13.128  -7.625  1.00 20.82 LIG 0.16  HD
BRANCH 3 6
ATOM      6  CA  ARG X 128       4.650  12.808  -9.408  1.00 21.45 LIG 0.18  C 
BRANCH 6 7
ATOM      7  CB  ARG X 128       4.753  13.091 -10.896  1.00 22.98 LIG 0.04  C 
BRANCH 7 8
ATOM      8  CG  ARG X 128       6.088  13.786 -11.230  1.00 26.06 LIG 0.02  C 
BRANCH 8 9
ATOM      9  CD  ARG X 128       6.777  13.386 -12.605  1.00 28.46 LIG 0.14  C 
BRANCH 9 10
ATOM     10  NE  ARG X 128       7.836  12.392 -12.709  1.00 34.87 LIG-0.23  N 
ATOM     11 HE   ARG X 128       8.447  12.410 -12.104  1.00 34.87 LIG 0.18  HD
ATOM     12  CZ  ARG X 128       7.951  11.453 -13.658  1.00 35.06 LIG 0.67  C 
ATOM     13  NH1 ARG X 128       7.110  11.367 -14.671  1.00 38.28 LIG-0.23  N 
ATOM     14  NH2 ARG X 128       8.948  10.617 -13.603  1.00 41.06 LIG-0.23  N 
ATOM     15 1HH1 ARG X 128       6.460  11.926 -14.740  1.00 38.28 LIG 0.17  HD
ATOM     16 2HH1 ARG X 128       7.211  10.752 -15.264  1.00 38.28 LIG 0.17  HD
ATOM     17 1HH2 ARG X 128       9.521  10.672 -12.964  1.00 41.06 LIG 0.17  HD
ATOM     18 2HH2 ARG X 128       9.033  10.009 -14.206  1.00 41.06 LIG 0.17  HD
ENDBRANCH 9 10
ENDBRANCH 8 9
ENDBRANCH 7 8
ENDBRANCH 6 7
BRANCH 6 19
ATOM     19  N   ARG X 128       5.844  12.105  -9.018  1.00 22.62 LIG-0.35  N 
ATOM     20 H    ARG X 128       5.985  11.381  -9.460  1.00 22.62 LIG 0.16  HD
ATOM     21  C   ALA X 127       6.645  12.552  -8.060  1.00 23.78 LIG 0.24  C 
ATOM     22 O    ALA X 127       6.468  13.621  -7.481  1.00 22.39 LIG-0.27  OA
BRANCH 21 23
ATOM     23  CA  ALA X 127       7.910  11.719  -7.797  1.00 25.08 LIG 0.17  C 
ATOM     24  CB  ALA X 127       7.622  10.483  -6.954  1.00 24.37 LIG 0.04  C 
BRANCH 23 25
ATOM     25  N   ALA X 127       8.892  12.600  -7.176  1.00 27.78 LIG-0.35  N 
ATOM     26  C   LEU X 126       9.469  13.491  -7.981  1.00 33.19 LIG 0.26  C 
ATOM     27 O    LEU X 126       9.138  13.643  -9.198  1.00 34.96 LIG-0.27  OA
ATOM     28 H    ALA X 127       9.039  12.492  -6.335  1.00 27.78 LIG 0.16  HD
BRANCH 26 29
ATOM     29  CA  LEU X 126      10.564  14.330  -7.389  1.00 34.21 LIG 0.40  C 
ATOM     30  N   LEU X 126      11.648  13.496  -6.834  1.00 36.42 LIG 0.61  N 
BRANCH 29 31
ATOM     31  CB  LEU X 126      11.091  15.263  -8.499  1.00 35.53 LIG 0.06  C 
BRANCH 31 32
ATOM     32  CG  LEU X 126      10.306  16.567  -8.697  1.00 35.00 LIG-0.02  C 
ATOM     33  CD2 LEU X 126      10.083  16.812 -10.211  1.00 38.18 LIG 0.01  C 
ATOM     34  CD1 LEU X 126      11.021  17.732  -8.092  1.00 36.44 LIG 0.01  C 
ENDBRANCH 31 32
ENDBRANCH 29 31
ENDBRANCH 26 29
ENDBRANCH 23 25
ENDBRANCH 21 23
ENDBRANCH 6 19
ENDBRANCH 3 6
ENDBRANCH 1 2
BRANCH 1 35
ATOM     35  C   ARG X 129       0.165  12.537  -8.276  1.00 22.72 LIG 0.24  C 
ATOM     36  N   LEU X 130      -0.498  11.968  -9.297  1.00 24.32 LIG-0.35  N 
ATOM     37 H    LEU X 130      -0.238  11.269  -9.725  1.00 24.32 LIG 0.16  HD
ATOM     38 O    ARG X 129      -0.198  13.615  -7.803  1.00 21.19 LIG-0.27  OA
BRANCH 36 39
ATOM     39  CA  LEU X 130      -1.781  12.556  -9.757  1.00 26.11 LIG 0.18  C 
BRANCH 39 40
ATOM     40  C   LEU X 130      -2.826  12.540  -8.667  1.00 29.66 LIG 0.24  C 
ATOM     41 O    LEU X 130      -2.955  11.535  -7.950  1.00 28.98 LIG-0.27  OA
ATOM     42  N   ARG X 131      -3.599  13.617  -8.559  1.00 30.67 LIG-0.34  N 
ATOM     43 H    ARG X 131      -3.475  14.347  -8.996  1.00 30.67 LIG 0.16  HD
BRANCH 42 44
ATOM     44  CA  ARG X 131      -4.739  13.635  -7.667  1.00 33.89 LIG 0.18  C 
BRANCH 44 45
ATOM     45  C   ARG X 131      -5.962  14.288  -8.314  1.00 35.66 LIG 0.20  C 
ATOM     46 OXT  ARG X 131      -5.854  15.118  -9.244  1.00 35.07 LIG-0.65  OA
ATOM     47 O    ARG X 131      -7.134  14.025  -7.911  1.00 37.10 LIG-0.65  OA
ENDBRANCH 44 45
BRANCH 44 48
ATOM     48  CB  ARG X 131      -4.368  14.378  -6.380  1.00 35.20 LIG 0.04  C 
BRANCH 48 49
ATOM     49  CG  ARG X 131      -2.853  14.425  -6.105  1.00 40.01 LIG 0.02  C 
BRANCH 49 50
ATOM     50  CD  ARG X 131      -2.334  13.258  -5.223  1.00 47.84 LIG 0.14  C 
BRANCH 50 51
ATOM     51  NE  ARG X 131      -3.351  12.214  -5.091  1.00 52.72 LIG-0.23  N 
ATOM     52  CZ  ARG X 131      -4.347  12.217  -4.202  1.00 57.07 LIG 0.67  C 
ATOM     53  NH1 ARG X 131      -4.508  13.241  -3.347  1.00 58.64 LIG-0.23  N 
ATOM     54  NH2 ARG X 131      -5.201  11.190  -4.176  1.00 59.02 LIG-0.23  N 
ATOM     55 2HH1 ARG X 131      -5.154  13.231  -2.780  1.00 58.64 LIG 0.17  HD
ATOM     56 1HH1 ARG X 131      -3.964  13.907  -3.367  1.00 58.64 LIG 0.17  HD
ATOM     57 2HH2 ARG X 131      -5.846  11.182  -3.607  1.00 59.02 LIG 0.17  HD
ATOM     58 1HH2 ARG X 131      -5.104  10.537  -4.727  1.00 59.02 LIG 0.17  HD
ATOM     59 HE   ARG X 131      -3.302  11.545  -5.628  1.00 52.72 LIG 0.18  HD
ENDBRANCH 50 51
ENDBRANCH 49 50
ENDBRANCH 48 49
ENDBRANCH 44 48
ENDBRANCH 42 44
ENDBRANCH 39 40
BRANCH 39 60
ATOM     60  CB  LEU X 130      -2.379  11.828 -10.964  1.00 27.29 LIG 0.04  C 
BRANCH 60 61
ATOM     61  CG  LEU X 130      -2.942  12.606 -12.142  1.00 26.34 LIG-0.02  C 
ATOM     62  CD1 LEU X 130      -3.149  14.123 -11.826  1.00 29.54 LIG 0.01  C 
ATOM     63  CD2 LEU X 130      -2.005  12.448 -13.295  1.00 21.56 LIG 0.01  C 
ENDBRANCH 60 61
ENDBRANCH 39 60
ENDBRANCH 36 39
ENDBRANCH 1 35
BRANCH 1 64
ATOM     64  CB  ARG X 129       1.425  12.109  -6.124  1.00 24.17 LIG 0.04  C 
BRANCH 64 65
ATOM     65  CG  ARG X 129       0.532  11.317  -5.277  1.00 28.32 LIG 0.02  C 
BRANCH 65 66
ATOM     66  CD  ARG X 129       0.720  11.533  -3.786  1.00 31.43 LIG 0.14  C 
BRANCH 66 67
ATOM     67  NE  ARG X 129      -0.454  11.266  -2.944  1.00 29.42 LIG-0.23  N 
ATOM     68  CZ  ARG X 129      -0.580  11.617  -1.669  1.00 30.66 LIG 0.67  C 
ATOM     69  NH1 ARG X 129       0.429  12.174  -1.004  1.00 33.32 LIG-0.23  N 
ATOM     70  NH2 ARG X 129      -1.729  11.368  -1.029  1.00 29.67 LIG-0.23  N 
ATOM     71 2HH1 ARG X 129       0.332  12.396  -0.179  1.00 33.32 LIG 0.17  HD
ATOM     72 1HH1 ARG X 129       1.180  12.313  -1.400  1.00 33.32 LIG 0.17  HD
ATOM     73 2HH2 ARG X 129      -1.818  11.592  -0.204  1.00 29.67 LIG 0.17  HD
ATOM     74 1HH2 ARG X 129      -2.378  10.985  -1.444  1.00 29.67 LIG 0.17  HD
ATOM     75 HE   ARG X 129      -1.114  10.848  -3.305  1.00 29.42 LIG 0.18  HD
ENDBRANCH 66 67
ENDBRANCH 65 66
ENDBRANCH 64 65
ENDBRANCH 1 64
TORSDOF 27
ENDMDL
MODEL 5
USER: ADFR SOLUTION from run 105
USER: SCORE 28.935903 LL:  -3.750 LR: -26.002 RR:   0.000 FEB: -17.948
USER: RMSD 5.337705
USER: SEED 104
USER: STATUS no improvement in best in 19 clusters for 5 generations
USER: GENES 29
USER: genes 0 Translation |==|  0.46115 0.37650 0.49435
USER: genes 1 Rotation |==|  0.41531 0.48761 0.56711 0.98803
USER: genes 2 Torsion [C]-CA--N-[C] |==|  0.73306
USER: genes 3 Torsion [N]-C--CA-[N] |==|  0.34510
USER: genes 4 Torsion [C]-CA--CB-[CG] |==|  0.01690
USER: genes 5 Torsion [CA]-CB--CG-[CD] |==|  0.51774
USER: genes 6 Torsion [CB]-CG--CD-[NE] |==|  0.63258
USER: genes 7 Torsion [CG]-CD--NE-[HE] |==|  0.85046
USER: genes 8 Torsion [C]-CA--N-[C] |==|  0.71145
USER: genes 9 Torsion [N]-C--CA-[N] |==|  0.43401
USER: genes 10 Torsion [C]-CA--N-[C] |==|  0.78374
USER: genes 11 Torsion [N]-C--CA-[N] |==|  0.09889
USER: genes 12 Torsion [C]-CA--CB-[CG] |==|  0.26895
USER: genes 13 Torsion [CA]-CB--CG-[CD2] |==|  0.59869
USER: genes 14 Torsion [N]-CA--C-[N] |==|  0.33067
USER: genes 15 Torsion [C]-N--CA-[C] |==|  0.62914
USER: genes 16 Torsion [N]-CA--C-[N] |==|  0.53035
USER: genes 17 Torsion [C]-N--CA-[C] |==|  0.83434
USER: genes 18 Torsion [N]-CA--C-[O] |==|  0.90941
USER: genes 19 Torsion [N]-CA--CB-[CG] |==|  0.21200
USER: genes 20 Torsion [CA]-CB--CG-[CD] |==|  0.73637
USER: genes 21 Torsion [CB]-CG--CD-[NE] |==|  0.53006
USER: genes 22 Torsion [CG]-CD--NE-[CZ] |==|  0.42730
USER: genes 23 Torsion [N]-CA--CB-[CG] |==|  0.73486
USER: genes 24 Torsion [CA]-CB--CG-[CD1] |==|  0.53357
USER: genes 25 Torsion [N]-CA--CB-[CG] |==|  0.53911
USER: genes 26 Torsion [CA]-CB--CG-[CD] |==|  0.65224
USER: genes 27 Torsion [CB]-CG--CD-[NE] |==|  0.32494
USER: genes 28 Torsion [CG]-CD--NE-[HE] |==|  0.93171
ROOT
ATOM      1  CA  ARG X 129       1.318  11.579  -7.303  1.00 23.09 LIG 0.18  C 
ENDROOT
BRANCH 1 2
ATOM      2  N   ARG X 129       2.417  12.318  -7.912  1.00 20.82 LIG-0.35  N 
ATOM      3  C   ARG X 128       3.244  11.829  -8.837  1.00 20.67 LIG 0.24  C 
ATOM      4 O    ARG X 128       3.200  10.653  -9.280  1.00 18.99 LIG-0.27  OA
ATOM      5 H    ARG X 129       2.486  13.121  -7.612  1.00 20.82 LIG 0.16  HD
BRANCH 3 6
ATOM      6  CA  ARG X 128       4.287  12.811  -9.367  1.00 21.45 LIG 0.18  C 
BRANCH 6 7
ATOM      7  CB  ARG X 128       4.078  13.074 -10.847  1.00 22.98 LIG 0.04  C 
BRANCH 7 8
ATOM      8  CG  ARG X 128       2.788  12.395 -11.348  1.00 26.06 LIG 0.02  C 
BRANCH 8 9
ATOM      9  CD  ARG X 128       2.514  12.448 -12.913  1.00 28.46 LIG 0.14  C 
BRANCH 9 10
ATOM     10  NE  ARG X 128       1.232  12.831 -13.487  1.00 34.87 LIG-0.23  N 
ATOM     11 HE   ARG X 128       0.539  12.402 -13.214  1.00 34.87 LIG 0.18  HD
ATOM     12  CZ  ARG X 128       1.029  13.789 -14.402  1.00 35.06 LIG 0.67  C 
ATOM     13  NH1 ARG X 128       2.021  14.473 -14.941  1.00 38.28 LIG-0.23  N 
ATOM     14  NH2 ARG X 128      -0.186  14.032 -14.804  1.00 41.06 LIG-0.23  N 
ATOM     15 1HH1 ARG X 128       2.832  14.310 -14.708  1.00 38.28 LIG 0.17  HD
ATOM     16 2HH1 ARG X 128       1.856  15.081 -15.526  1.00 38.28 LIG 0.17  HD
ATOM     17 1HH2 ARG X 128      -0.844  13.580 -14.484  1.00 41.06 LIG 0.17  HD
ATOM     18 2HH2 ARG X 128      -0.331  14.644 -15.391  1.00 41.06 LIG 0.17  HD
ENDBRANCH 9 10
ENDBRANCH 8 9
ENDBRANCH 7 8
ENDBRANCH 6 7
BRANCH 6 19
ATOM     19  N   ARG X 128       5.617  12.288  -9.204  1.00 22.62 LIG-0.35  N 
ATOM     20 H    ARG X 128       5.828  11.680  -9.774  1.00 22.62 LIG 0.16  HD
ATOM     21  C   ALA X 127       6.434  12.720  -8.252  1.00 23.78 LIG 0.24  C 
ATOM     22 O    ALA X 127       6.145  13.634  -7.484  1.00 22.39 LIG-0.27  OA
BRANCH 21 23
ATOM     23  CA  ALA X 127       7.842  12.103  -8.242  1.00 25.08 LIG 0.17  C 
ATOM     24  CB  ALA X 127       7.863  10.723  -7.599  1.00 24.37 LIG 0.04  C 
BRANCH 23 25
ATOM     25  N   ALA X 127       8.727  13.045  -7.566  1.00 27.78 LIG-0.35  N 
ATOM     26  C   LEU X 126       9.120  14.096  -8.285  1.00 33.19 LIG 0.26  C 
ATOM     27 O    LEU X 126       8.696  14.331  -9.459  1.00 34.96 LIG-0.27  OA
ATOM     28 H    ALA X 127       8.939  12.868  -6.752  1.00 27.78 LIG 0.16  HD
BRANCH 26 29
ATOM     29  CA  LEU X 126      10.120  15.016  -7.649  1.00 34.21 LIG 0.40  C 
ATOM     30  N   LEU X 126      11.085  14.276  -6.812  1.00 36.42 LIG 0.61  N 
BRANCH 29 31
ATOM     31  CB  LEU X 126      10.836  15.784  -8.779  1.00 35.53 LIG 0.06  C 
BRANCH 31 32
ATOM     32  CG  LEU X 126      10.282  17.182  -9.085  1.00 35.00 LIG-0.02  C 
ATOM     33  CD2 LEU X 126      10.378  17.454 -10.609  1.00 38.18 LIG 0.01  C 
ATOM     34  CD1 LEU X 126      11.021  18.239  -8.331  1.00 36.44 LIG 0.01  C 
ENDBRANCH 31 32
ENDBRANCH 29 31
ENDBRANCH 26 29
ENDBRANCH 23 25
ENDBRANCH 21 23
ENDBRANCH 6 19
ENDBRANCH 3 6
ENDBRANCH 1 2
BRANCH 1 35
ATOM     35  C   ARG X 129      -0.040  11.862  -8.000  1.00 22.72 LIG 0.24  C 
ATOM     36  N   LEU X 130      -0.732  10.870  -8.586  1.00 24.32 LIG-0.35  N 
ATOM     37 H    LEU X 130      -0.441  10.070  -8.706  1.00 24.32 LIG 0.16  HD
ATOM     38 O    ARG X 129      -0.470  13.016  -7.986  1.00 21.19 LIG-0.27  OA
BRANCH 36 39
ATOM     39  CA  LEU X 130      -2.108  11.126  -9.079  1.00 26.11 LIG 0.18  C 
BRANCH 39 40
ATOM     40  C   LEU X 130      -3.065  10.034  -8.661  1.00 29.66 LIG 0.24  C 
ATOM     41 O    LEU X 130      -2.695   9.167  -7.854  1.00 28.98 LIG-0.27  OA
ATOM     42  N   ARG X 131      -4.268  10.037  -9.227  1.00 30.67 LIG-0.34  N 
ATOM     43 H    ARG X 131      -4.563  10.670  -9.730  1.00 30.67 LIG 0.16  HD
BRANCH 42 44
ATOM     44  CA  ARG X 131      -5.192   8.942  -9.030  1.00 33.89 LIG 0.18  C 
BRANCH 44 45
ATOM     45  C   ARG X 131      -4.616   7.611  -9.518  1.00 35.66 LIG 0.20  C 
ATOM     46 OXT  ARG X 131      -4.878   6.529  -8.948  1.00 35.07 LIG-0.65  OA
ATOM     47 O    ARG X 131      -3.828   7.564 -10.508  1.00 37.10 LIG-0.65  OA
ENDBRANCH 44 45
BRANCH 44 48
ATOM     48  CB  ARG X 131      -6.504   9.244  -9.762  1.00 35.20 LIG 0.04  C 
BRANCH 48 49
ATOM     49  CG  ARG X 131      -6.425   9.045 -11.287  1.00 40.01 LIG 0.02  C 
BRANCH 49 50
ATOM     50  CD  ARG X 131      -6.111  10.342 -12.079  1.00 47.84 LIG 0.14  C 
BRANCH 50 51
ATOM     51  NE  ARG X 131      -6.303  10.133 -13.514  1.00 52.72 LIG-0.23  N 
ATOM     52  CZ  ARG X 131      -6.603  11.089 -14.398  1.00 57.07 LIG 0.67  C 
ATOM     53  NH1 ARG X 131      -6.728  12.370 -14.015  1.00 58.64 LIG-0.23  N 
ATOM     54  NH2 ARG X 131      -6.768  10.760 -15.682  1.00 59.02 LIG-0.23  N 
ATOM     55 2HH1 ARG X 131      -6.922  12.975 -14.594  1.00 58.64 LIG 0.17  HD
ATOM     56 1HH1 ARG X 131      -6.615  12.585 -13.190  1.00 58.64 LIG 0.17  HD
ATOM     57 2HH2 ARG X 131      -6.962  11.367 -16.260  1.00 59.02 LIG 0.17  HD
ATOM     58 1HH2 ARG X 131      -6.682   9.941 -15.930  1.00 59.02 LIG 0.17  HD
ATOM     59 HE   ARG X 131      -6.215   9.332 -13.813  1.00 52.72 LIG 0.18  HD
ENDBRANCH 50 51
ENDBRANCH 49 50
ENDBRANCH 48 49
ENDBRANCH 44 48
ENDBRANCH 42 44
ENDBRANCH 39 40
BRANCH 39 60
ATOM     60  CB  LEU X 130      -2.192  11.239 -10.603  1.00 27.29 LIG 0.04  C 
BRANCH 60 61
ATOM     61  CG  LEU X 130      -2.148  12.596 -11.288  1.00 26.34 LIG-0.02  C 
ATOM     62  CD1 LEU X 130      -2.545  12.527 -12.799  1.00 29.54 LIG 0.01  C 
ATOM     63  CD2 LEU X 130      -3.074  13.515 -10.559  1.00 21.56 LIG 0.01  C 
ENDBRANCH 60 61
ENDBRANCH 39 60
ENDBRANCH 36 39
ENDBRANCH 1 35
BRANCH 1 64
ATOM     64  CB  ARG X 129       1.290  12.151  -5.868  1.00 24.17 LIG 0.04  C 
BRANCH 64 65
ATOM     65  CG  ARG X 129       0.515  11.427  -4.858  1.00 28.32 LIG 0.02  C 
BRANCH 65 66
ATOM     66  CD  ARG X 129      -0.524  12.267  -4.138  1.00 31.43 LIG 0.14  C 
BRANCH 66 67
ATOM     67  NE  ARG X 129      -1.924  11.860  -4.326  1.00 29.42 LIG-0.23  N 
ATOM     68  CZ  ARG X 129      -2.917  12.117  -3.482  1.00 30.66 LIG 0.67  C 
ATOM     69  NH1 ARG X 129      -2.691  12.702  -2.309  1.00 33.32 LIG-0.23  N 
ATOM     70  NH2 ARG X 129      -4.162  11.744  -3.801  1.00 29.67 LIG-0.23  N 
ATOM     71 2HH1 ARG X 129      -3.346  12.862  -1.774  1.00 33.32 LIG 0.17  HD
ATOM     72 1HH1 ARG X 129      -1.891  12.921  -2.085  1.00 33.32 LIG 0.17  HD
ATOM     73 2HH2 ARG X 129      -4.811  11.906  -3.261  1.00 29.67 LIG 0.17  HD
ATOM     74 1HH2 ARG X 129      -4.314  11.342  -4.546  1.00 29.67 LIG 0.17  HD
ATOM     75 HE   ARG X 129      -2.116  11.420  -5.039  1.00 29.42 LIG 0.18  HD
ENDBRANCH 66 67
ENDBRANCH 65 66
ENDBRANCH 64 65
ENDBRANCH 1 64
TORSDOF 27
ENDMDL
MODEL 6
USER: ADFR SOLUTION from run 130
USER: SCORE 28.197640 LL:  -3.503 LR: -25.991 RR:   0.000 FEB: -17.937
USER: RMSD 4.480120
USER: SEED 129
USER: STATUS no improvement in best in 10 clusters for 5 generations
USER: GENES 29
USER: genes 0 Translation |==|  0.45876 0.39360 0.49773
USER: genes 1 Rotation |==|  0.37232 0.54351 0.57405 0.97573
USER: genes 2 Torsion [C]-CA--N-[C] |==|  0.74579
USER: genes 3 Torsion [N]-C--CA-[N] |==|  0.30179
USER: genes 4 Torsion [C]-CA--CB-[CG] |==|  0.63475
USER: genes 5 Torsion [CA]-CB--CG-[CD] |==|  0.71768
USER: genes 6 Torsion [CB]-CG--CD-[NE] |==|  0.73827
USER: genes 7 Torsion [CG]-CD--NE-[HE] |==|  0.31825
USER: genes 8 Torsion [C]-CA--N-[C] |==|  0.64225
USER: genes 9 Torsion [N]-C--CA-[N] |==|  0.84471
USER: genes 10 Torsion [C]-CA--N-[C] |==|  0.81415
USER: genes 11 Torsion [N]-C--CA-[N] |==|  0.21009
USER: genes 12 Torsion [C]-CA--CB-[CG] |==|  0.52067
USER: genes 13 Torsion [CA]-CB--CG-[CD2] |==|  0.60266
USER: genes 14 Torsion [N]-CA--C-[N] |==|  0.28261
USER: genes 15 Torsion [C]-N--CA-[C] |==|  0.63596
USER: genes 16 Torsion [N]-CA--C-[N] |==|  0.54698
USER: genes 17 Torsion [C]-N--CA-[C] |==|  0.76566
USER: genes 18 Torsion [N]-CA--C-[O] |==|  0.39579
USER: genes 19 Torsion [N]-CA--CB-[CG] |==|  0.65713
USER: genes 20 Torsion [CA]-CB--CG-[CD] |==|  0.03127
USER: genes 21 Torsion [CB]-CG--CD-[NE] |==|  0.17503
USER: genes 22 Torsion [CG]-CD--NE-[CZ] |==|  0.27166
USER: genes 23 Torsion [N]-CA--CB-[CG] |==|  0.63724
USER: genes 24 Torsion [CA]-CB--CG-[CD1] |==|  0.99226
USER: genes 25 Torsion [N]-CA--CB-[CG] |==|  0.42639
USER: genes 26 Torsion [CA]-CB--CG-[CD] |==|  0.24118
USER: genes 27 Torsion [CB]-CG--CD-[NE] |==|  0.38844
USER: genes 28 Torsion [CG]-CD--NE-[HE] |==|  0.77670
ROOT
ATOM      1  CA  ARG X 129       1.252  11.861  -7.227  1.00 23.09 LIG 0.18  C 
ENDROOT
BRANCH 1 2
ATOM      2  N   ARG X 129       2.200  12.428  -8.178  1.00 20.82 LIG-0.35  N 
ATOM      3  C   ARG X 128       2.768  11.756  -9.180  1.00 20.67 LIG 0.24  C 
ATOM      4 O    ARG X 128       2.581  10.535  -9.414  1.00 18.99 LIG-0.27  OA
ATOM      5 H    ARG X 129       2.365  13.259  -8.030  1.00 20.82 LIG 0.16  HD
BRANCH 3 6
ATOM      6  CA  ARG X 128       3.688  12.579 -10.080  1.00 21.45 LIG 0.18  C 
BRANCH 6 7
ATOM      7  CB  ARG X 128       3.372  12.335 -11.545  1.00 22.98 LIG 0.04  C 
BRANCH 7 8
ATOM      8  CG  ARG X 128       4.659  12.042 -12.342  1.00 26.06 LIG 0.02  C 
BRANCH 8 9
ATOM      9  CD  ARG X 128       5.250  13.237 -13.208  1.00 28.46 LIG 0.14  C 
BRANCH 9 10
ATOM     10  NE  ARG X 128       4.946  13.428 -14.619  1.00 34.87 LIG-0.23  N 
ATOM     11 HE   ARG X 128       4.502  14.134 -14.829  1.00 34.87 LIG 0.18  HD
ATOM     12  CZ  ARG X 128       5.292  12.610 -15.621  1.00 35.06 LIG 0.67  C 
ATOM     13  NH1 ARG X 128       5.920  11.467 -15.416  1.00 38.28 LIG-0.23  N 
ATOM     14  NH2 ARG X 128       4.965  12.930 -16.841  1.00 41.06 LIG-0.23  N 
ATOM     15 1HH1 ARG X 128       6.122  11.225 -14.615  1.00 38.28 LIG 0.17  HD
ATOM     16 2HH1 ARG X 128       6.128  10.964 -16.082  1.00 38.28 LIG 0.17  HD
ATOM     17 1HH2 ARG X 128       4.533  13.658 -16.994  1.00 41.06 LIG 0.17  HD
ATOM     18 2HH2 ARG X 128       5.181  12.413 -17.494  1.00 41.06 LIG 0.17  HD
ENDBRANCH 9 10
ENDBRANCH 8 9
ENDBRANCH 7 8
ENDBRANCH 6 7
BRANCH 6 19
ATOM     19  N   ARG X 128       5.066  12.223  -9.871  1.00 22.62 LIG-0.35  N 
ATOM     20 H    ARG X 128       5.223  11.379  -9.918  1.00 22.62 LIG 0.16  HD
ATOM     21  C   ALA X 127       6.001  13.133  -9.628  1.00 23.78 LIG 0.24  C 
ATOM     22 O    ALA X 127       5.778  14.341  -9.627  1.00 22.39 LIG-0.27  OA
BRANCH 21 23
ATOM     23  CA  ALA X 127       7.436  12.601  -9.482  1.00 25.08 LIG 0.17  C 
ATOM     24  CB  ALA X 127       7.989  12.065 -10.796  1.00 24.37 LIG 0.04  C 
BRANCH 23 25
ATOM     25  N   ALA X 127       7.424  11.591  -8.431  1.00 27.78 LIG-0.35  N 
ATOM     26  C   LEU X 126       7.169  12.032  -7.200  1.00 33.19 LIG 0.26  C 
ATOM     27 O    LEU X 126       6.867  13.240  -6.945  1.00 34.96 LIG-0.27  OA
ATOM     28 H    ALA X 127       7.579  10.778  -8.666  1.00 27.78 LIG 0.16  HD
BRANCH 26 29
ATOM     29  CA  LEU X 126       7.264  11.030  -6.087  1.00 34.21 LIG 0.40  C 
ATOM     30  N   LEU X 126       8.668  10.722  -5.750  1.00 36.42 LIG 0.61  N 
BRANCH 29 31
ATOM     31  CB  LEU X 126       6.512  11.608  -4.870  1.00 35.53 LIG 0.06  C 
BRANCH 31 32
ATOM     32  CG  LEU X 126       6.645  10.806  -3.568  1.00 35.00 LIG-0.02  C 
ATOM     33  CD2 LEU X 126       5.299  10.844  -2.798  1.00 38.18 LIG 0.01  C 
ATOM     34  CD1 LEU X 126       7.740  11.344  -2.706  1.00 36.44 LIG 0.01  C 
ENDBRANCH 31 32
ENDBRANCH 29 31
ENDBRANCH 26 29
ENDBRANCH 23 25
ENDBRANCH 21 23
ENDBRANCH 6 19
ENDBRANCH 3 6
ENDBRANCH 1 2
BRANCH 1 35
ATOM     35  C   ARG X 129      -0.221  12.035  -7.688  1.00 22.72 LIG 0.24  C 
ATOM     36  N   LEU X 130      -0.895  11.011  -8.237  1.00 24.32 LIG-0.35  N 
ATOM     37 H    LEU X 130      -0.548  10.257  -8.461  1.00 24.32 LIG 0.16  HD
ATOM     38 O    ARG X 129      -0.755  13.132  -7.521  1.00 21.19 LIG-0.27  OA
BRANCH 36 39
ATOM     39  CA  LEU X 130      -2.350  11.144  -8.496  1.00 26.11 LIG 0.18  C 
BRANCH 39 40
ATOM     40  C   LEU X 130      -3.123   9.957  -7.971  1.00 29.66 LIG 0.24  C 
ATOM     41 O    LEU X 130      -2.582   9.173  -7.174  1.00 28.98 LIG-0.27  OA
ATOM     42  N   ARG X 131      -4.357   9.789  -8.435  1.00 30.67 LIG-0.34  N 
ATOM     43 H    ARG X 131      -4.770  10.360  -8.927  1.00 30.67 LIG 0.16  HD
BRANCH 42 44
ATOM     44  CA  ARG X 131      -5.116   8.594  -8.131  1.00 33.89 LIG 0.18  C 
BRANCH 44 45
ATOM     45  C   ARG X 131      -4.790   7.449  -9.092  1.00 35.66 LIG 0.20  C 
ATOM     46 OXT  ARG X 131      -4.594   7.646 -10.312  1.00 35.07 LIG-0.65  OA
ATOM     47 O    ARG X 131      -4.729   6.251  -8.686  1.00 37.10 LIG-0.65  OA
ENDBRANCH 44 45
BRANCH 44 48
ATOM     48  CB  ARG X 131      -6.613   8.914  -8.186  1.00 35.20 LIG 0.04  C 
BRANCH 48 49
ATOM     49  CG  ARG X 131      -7.367   8.585  -6.884  1.00 40.01 LIG 0.02  C 
BRANCH 49 50
ATOM     50  CD  ARG X 131      -6.441   8.258  -5.682  1.00 47.84 LIG 0.14  C 
BRANCH 50 51
ATOM     51  NE  ARG X 131      -5.614   9.414  -5.332  1.00 52.72 LIG-0.23  N 
ATOM     52  CZ  ARG X 131      -5.882  10.285  -4.357  1.00 57.07 LIG 0.67  C 
ATOM     53  NH1 ARG X 131      -6.965  10.137  -3.576  1.00 58.64 LIG-0.23  N 
ATOM     54  NH2 ARG X 131      -5.051  11.311  -4.152  1.00 59.02 LIG-0.23  N 
ATOM     55 2HH1 ARG X 131      -7.126  10.705  -2.950  1.00 58.64 LIG 0.17  HD
ATOM     56 1HH1 ARG X 131      -7.498   9.473  -3.700  1.00 58.64 LIG 0.17  HD
ATOM     57 2HH2 ARG X 131      -5.214  11.878  -3.527  1.00 59.02 LIG 0.17  HD
ATOM     58 1HH2 ARG X 131      -4.354  11.404  -4.647  1.00 59.02 LIG 0.17  HD
ATOM     59 HE   ARG X 131      -4.899   9.542  -5.792  1.00 52.72 LIG 0.18  HD
ENDBRANCH 50 51
ENDBRANCH 49 50
ENDBRANCH 48 49
ENDBRANCH 44 48
ENDBRANCH 42 44
ENDBRANCH 39 40
BRANCH 39 60
ATOM     60  CB  LEU X 130      -2.688  11.279  -9.983  1.00 27.29 LIG 0.04  C 
BRANCH 60 61
ATOM     61  CG  LEU X 130      -3.609  12.384 -10.475  1.00 26.34 LIG-0.02  C 
ATOM     62  CD1 LEU X 130      -4.182  13.260  -9.314  1.00 29.54 LIG 0.01  C 
ATOM     63  CD2 LEU X 130      -2.840  13.241 -11.429  1.00 21.56 LIG 0.01  C 
ENDBRANCH 60 61
ENDBRANCH 39 60
ENDBRANCH 36 39
ENDBRANCH 1 35
BRANCH 1 64
ATOM     64  CB  ARG X 129       1.501  12.714  -5.963  1.00 24.17 LIG 0.04  C 
BRANCH 64 65
ATOM     65  CG  ARG X 129       0.398  12.867  -5.013  1.00 28.32 LIG 0.02  C 
BRANCH 65 66
ATOM     66  CD  ARG X 129       0.302  11.766  -3.973  1.00 31.43 LIG 0.14  C 
BRANCH 66 67
ATOM     67  NE  ARG X 129      -0.037  12.195  -2.609  1.00 29.42 LIG-0.23  N 
ATOM     68  CZ  ARG X 129      -1.246  12.129  -2.062  1.00 30.66 LIG 0.67  C 
ATOM     69  NH1 ARG X 129      -2.304  11.742  -2.772  1.00 33.32 LIG-0.23  N 
ATOM     70  NH2 ARG X 129      -1.411  12.496  -0.786  1.00 29.67 LIG-0.23  N 
ATOM     71 2HH1 ARG X 129      -3.079  11.704  -2.403  1.00 33.32 LIG 0.17  HD
ATOM     72 1HH1 ARG X 129      -2.211  11.530  -3.600  1.00 33.32 LIG 0.17  HD
ATOM     73 2HH2 ARG X 129      -2.190  12.456  -0.424  1.00 29.67 LIG 0.17  HD
ATOM     74 1HH2 ARG X 129      -0.738  12.772  -0.327  1.00 29.67 LIG 0.17  HD
ATOM     75 HE   ARG X 129       0.598  12.516  -2.125  1.00 29.42 LIG 0.18  HD
ENDBRANCH 66 67
ENDBRANCH 65 66
ENDBRANCH 64 65
ENDBRANCH 1 64
TORSDOF 27
ENDMDL
MODEL 7
USER: ADFR SOLUTION from run 99
USER: SCORE 28.750117 LL:  -3.489 LR: -25.802 RR:   0.000 FEB: -17.748
USER: RMSD 3.134369
USER: SEED 98
USER: STATUS no improvement in best in 15 clusters for 5 generations
USER: GENES 29
USER: genes 0 Translation |==|  0.43937 0.40292 0.47082
USER: genes 1 Rotation |==|  0.49354 0.49382 0.49466 0.99989
USER: genes 2 Torsion [C]-CA--N-[C] |==|  0.62363
USER: genes 3 Torsion [N]-C--CA-[N] |==|  0.38924
USER: genes 4 Torsion [C]-CA--CB-[CG] |==|  0.99760
USER: genes 5 Torsion [CA]-CB--CG-[CD] |==|  0.47668
USER: genes 6 Torsion [CB]-CG--CD-[NE] |==|  0.60901
USER: genes 7 Torsion [CG]-CD--NE-[HE] |==|  0.88643
USER: genes 8 Torsion [C]-CA--N-[C] |==|  0.67624
USER: genes 9 Torsion [N]-C--CA-[N] |==|  0.43975
USER: genes 10 Torsion [C]-CA--N-[C] |==|  0.80923
USER: genes 11 Torsion [N]-C--CA-[N] |==|  0.12400
USER: genes 12 Torsion [C]-CA--CB-[CG] |==|  0.28139
USER: genes 13 Torsion [CA]-CB--CG-[CD2] |==|  0.54912
USER: genes 14 Torsion [N]-CA--C-[N] |==|  0.29691
USER: genes 15 Torsion [C]-N--CA-[C] |==|  0.80409
USER: genes 16 Torsion [N]-CA--C-[N] |==|  0.42160
USER: genes 17 Torsion [C]-N--CA-[C] |==|  0.60828
USER: genes 18 Torsion [N]-CA--C-[O] |==|  0.95213
USER: genes 19 Torsion [N]-CA--CB-[CG] |==|  0.70121
USER: genes 20 Torsion [CA]-CB--CG-[CD] |==|  0.95641
USER: genes 21 Torsion [CB]-CG--CD-[NE] |==|  0.58518
USER: genes 22 Torsion [CG]-CD--NE-[CZ] |==|  0.55359
USER: genes 23 Torsion [N]-CA--CB-[CG] |==|  0.76123
USER: genes 24 Torsion [CA]-CB--CG-[CD1] |==|  0.50816
USER: genes 25 Torsion [N]-CA--CB-[CG] |==|  0.40988
USER: genes 26 Torsion [CA]-CB--CG-[CD] |==|  0.37606
USER: genes 27 Torsion [CB]-CG--CD-[NE] |==|  0.35063
USER: genes 28 Torsion [CG]-CD--NE-[HE] |==|  0.78419
ROOT
ATOM      1  CA  ARG X 129       0.713  12.015  -7.833  1.00 23.09 LIG 0.18  C 
ENDROOT
BRANCH 1 2
ATOM      2  N   ARG X 129       1.992  12.573  -8.253  1.00 20.82 LIG-0.35  N 
ATOM      3  C   ARG X 128       3.003  11.865  -8.759  1.00 20.67 LIG 0.24  C 
ATOM      4 O    ARG X 128       2.993  10.617  -8.909  1.00 18.99 LIG-0.27  OA
ATOM      5 H    ARG X 129       2.038  13.425  -8.142  1.00 20.82 LIG 0.16  HD
BRANCH 3 6
ATOM      6  CA  ARG X 128       4.225  12.679  -9.180  1.00 21.45 LIG 0.18  C 
BRANCH 6 7
ATOM      7  CB  ARG X 128       4.239  12.898 -10.682  1.00 22.98 LIG 0.04  C 
BRANCH 7 8
ATOM      8  CG  ARG X 128       3.026  12.216 -11.346  1.00 26.06 LIG 0.02  C 
BRANCH 8 9
ATOM      9  CD  ARG X 128       2.787  12.526 -12.886  1.00 28.46 LIG 0.14  C 
BRANCH 9 10
ATOM     10  NE  ARG X 128       1.466  12.724 -13.466  1.00 34.87 LIG-0.23  N 
ATOM     11 HE   ARG X 128       0.839  12.201 -13.194  1.00 34.87 LIG 0.18  HD
ATOM     12  CZ  ARG X 128       1.133  13.643 -14.382  1.00 35.06 LIG 0.67  C 
ATOM     13  NH1 ARG X 128       2.021  14.459 -14.918  1.00 38.28 LIG-0.23  N 
ATOM     14  NH2 ARG X 128      -0.102  13.711 -14.790  1.00 41.06 LIG-0.23  N 
ATOM     15 1HH1 ARG X 128       2.846  14.413 -14.682  1.00 38.28 LIG 0.17  HD
ATOM     16 2HH1 ARG X 128       1.774  15.038 -15.505  1.00 38.28 LIG 0.17  HD
ATOM     17 1HH2 ARG X 128      -0.691  13.172 -14.471  1.00 41.06 LIG 0.17  HD
ATOM     18 2HH2 ARG X 128      -0.329  14.297 -15.378  1.00 41.06 LIG 0.17  HD
ENDBRANCH 9 10
ENDBRANCH 8 9
ENDBRANCH 7 8
ENDBRANCH 6 7
BRANCH 6 19
ATOM     19  N   ARG X 128       5.444  11.998  -8.831  1.00 22.62 LIG-0.35  N 
ATOM     20 H    ARG X 128       5.554  11.246  -9.234  1.00 22.62 LIG 0.16  HD
ATOM     21  C   ALA X 127       6.310  12.501  -7.962  1.00 23.78 LIG 0.24  C 
ATOM     22 O    ALA X 127       6.173  13.605  -7.441  1.00 22.39 LIG-0.27  OA
BRANCH 21 23
ATOM     23  CA  ALA X 127       7.591  11.682  -7.736  1.00 25.08 LIG 0.17  C 
ATOM     24  CB  ALA X 127       7.354  10.478  -6.833  1.00 24.37 LIG 0.04  C 
BRANCH 23 25
ATOM     25  N   ALA X 127       8.601  12.587  -7.201  1.00 27.78 LIG-0.35  N 
ATOM     26  C   LEU X 126       9.055  13.517  -8.041  1.00 33.19 LIG 0.26  C 
ATOM     27 O    LEU X 126       8.590  13.680  -9.212  1.00 34.96 LIG-0.27  OA
ATOM     28 H    ALA X 127       8.841  12.469  -6.384  1.00 27.78 LIG 0.16  HD
BRANCH 26 29
ATOM     29  CA  LEU X 126      10.175  14.386  -7.549  1.00 34.21 LIG 0.40  C 
ATOM     30  N   LEU X 126      11.219  13.593  -6.868  1.00 36.42 LIG 0.61  N 
BRANCH 29 31
ATOM     31  CB  LEU X 126      10.753  15.140  -8.765  1.00 35.53 LIG 0.06  C 
BRANCH 31 32
ATOM     32  CG  LEU X 126      10.302  16.599  -8.914  1.00 35.00 LIG-0.02  C 
ATOM     33  CD2 LEU X 126      10.578  17.080 -10.362  1.00 38.18 LIG 0.01  C 
ATOM     34  CD1 LEU X 126      11.003  17.489  -7.939  1.00 36.44 LIG 0.01  C 
ENDBRANCH 31 32
ENDBRANCH 29 31
ENDBRANCH 26 29
ENDBRANCH 23 25
ENDBRANCH 21 23
ENDBRANCH 6 19
ENDBRANCH 3 6
ENDBRANCH 1 2
BRANCH 1 35
ATOM     35  C   ARG X 129      -0.490  12.865  -8.321  1.00 22.72 LIG 0.24  C 
ATOM     36  N   LEU X 130      -1.279  12.430  -9.318  1.00 24.32 LIG-0.35  N 
ATOM     37 H    LEU X 130      -1.123  11.739  -9.805  1.00 24.32 LIG 0.16  HD
ATOM     38 O    ARG X 129      -0.708  13.939  -7.760  1.00 21.19 LIG-0.27  OA
BRANCH 36 39
ATOM     39  CA  LEU X 130      -2.527  13.166  -9.641  1.00 26.11 LIG 0.18  C 
BRANCH 39 40
ATOM     40  C   LEU X 130      -3.572  12.994  -8.564  1.00 29.66 LIG 0.24  C 
ATOM     41 O    LEU X 130      -3.606  11.947  -7.899  1.00 28.98 LIG-0.27  OA
ATOM     42  N   ARG X 131      -4.448  13.983  -8.412  1.00 30.67 LIG-0.34  N 
ATOM     43 H    ARG X 131      -4.394  14.742  -8.812  1.00 30.67 LIG 0.16  HD
BRANCH 42 44
ATOM     44  CA  ARG X 131      -5.590  13.844  -7.533  1.00 33.89 LIG 0.18  C 
BRANCH 44 45
ATOM     45  C   ARG X 131      -6.847  14.489  -8.120  1.00 35.66 LIG 0.20  C 
ATOM     46 OXT  ARG X 131      -7.992  14.201  -7.708  1.00 35.07 LIG-0.65  OA
ATOM     47 O    ARG X 131      -6.770  15.325  -9.068  1.00 37.10 LIG-0.65  OA
ENDBRANCH 44 45
BRANCH 44 48
ATOM     48  CB  ARG X 131      -5.265  14.473  -6.173  1.00 35.20 LIG 0.04  C 
BRANCH 48 49
ATOM     49  CG  ARG X 131      -5.045  13.443  -5.050  1.00 40.01 LIG 0.02  C 
BRANCH 49 50
ATOM     50  CD  ARG X 131      -5.558  12.018  -5.388  1.00 47.84 LIG 0.14  C 
BRANCH 50 51
ATOM     51  NE  ARG X 131      -5.995  11.322  -4.177  1.00 52.72 LIG-0.23  N 
ATOM     52  CZ  ARG X 131      -6.139  10.000  -4.059  1.00 57.07 LIG 0.67  C 
ATOM     53  NH1 ARG X 131      -5.854   9.179  -5.083  1.00 58.64 LIG-0.23  N 
ATOM     54  NH2 ARG X 131      -6.564   9.492  -2.899  1.00 59.02 LIG-0.23  N 
ATOM     55 2HH1 ARG X 131      -5.951   8.329  -4.994  1.00 58.64 LIG 0.17  HD
ATOM     56 1HH1 ARG X 131      -5.573   9.503  -5.828  1.00 58.64 LIG 0.17  HD
ATOM     57 2HH2 ARG X 131      -6.661   8.642  -2.811  1.00 59.02 LIG 0.17  HD
ATOM     58 1HH2 ARG X 131      -6.740  10.015  -2.239  1.00 59.02 LIG 0.17  HD
ATOM     59 HE   ARG X 131      -6.173  11.803  -3.487  1.00 52.72 LIG 0.18  HD
ENDBRANCH 50 51
ENDBRANCH 49 50
ENDBRANCH 48 49
ENDBRANCH 44 48
ENDBRANCH 42 44
ENDBRANCH 39 40
BRANCH 39 60
ATOM     60  CB  LEU X 130      -3.164  12.723 -10.961  1.00 27.29 LIG 0.04  C 
BRANCH 60 61
ATOM     61  CG  LEU X 130      -2.726  13.335 -12.282  1.00 26.34 LIG-0.02  C 
ATOM     62  CD1 LEU X 130      -3.546  12.802 -13.501  1.00 29.54 LIG 0.01  C 
ATOM     63  CD2 LEU X 130      -2.872  14.819 -12.178  1.00 21.56 LIG 0.01  C 
ENDBRANCH 60 61
ENDBRANCH 39 60
ENDBRANCH 36 39
ENDBRANCH 1 35
BRANCH 1 64
ATOM     64  CB  ARG X 129       0.809  12.094  -6.292  1.00 24.17 LIG 0.04  C 
BRANCH 64 65
ATOM     65  CG  ARG X 129      -0.427  12.323  -5.541  1.00 28.32 LIG 0.02  C 
BRANCH 65 66
ATOM     66  CD  ARG X 129      -0.596  11.439  -4.319  1.00 31.43 LIG 0.14  C 
BRANCH 66 67
ATOM     67  NE  ARG X 129      -0.855  12.137  -3.051  1.00 29.42 LIG-0.23  N 
ATOM     68  CZ  ARG X 129      -2.041  12.244  -2.463  1.00 30.66 LIG 0.67  C 
ATOM     69  NH1 ARG X 129      -3.146  11.791  -3.051  1.00 33.32 LIG-0.23  N 
ATOM     70  NH2 ARG X 129      -2.133  12.854  -1.275  1.00 29.67 LIG-0.23  N 
ATOM     71 2HH1 ARG X 129      -3.906  11.868  -2.656  1.00 33.32 LIG 0.17  HD
ATOM     72 1HH1 ARG X 129      -3.100  11.422  -3.826  1.00 33.32 LIG 0.17  HD
ATOM     73 2HH2 ARG X 129      -2.897  12.928  -0.888  1.00 29.67 LIG 0.17  HD
ATOM     74 1HH2 ARG X 129      -1.428  13.172  -0.900  1.00 29.67 LIG 0.17  HD
ATOM     75 HE   ARG X 129      -0.185  12.506  -2.659  1.00 29.42 LIG 0.18  HD
ENDBRANCH 66 67
ENDBRANCH 65 66
ENDBRANCH 64 65
ENDBRANCH 1 64
TORSDOF 27
ENDMDL
MODEL 8
USER: ADFR SOLUTION from run 105
USER: SCORE 28.287463 LL:  -3.275 LR: -25.794 RR:   0.000 FEB: -17.740
USER: RMSD 3.820442
USER: SEED 104
USER: STATUS no improvement in best in 19 clusters for 5 generations
USER: GENES 29
USER: genes 0 Translation |==|  0.45406 0.38357 0.48527
USER: genes 1 Rotation |==|  0.40772 0.47111 0.55513 0.98745
USER: genes 2 Torsion [C]-CA--N-[C] |==|  0.72222
USER: genes 3 Torsion [N]-C--CA-[N] |==|  0.36145
USER: genes 4 Torsion [C]-CA--CB-[CG] |==|  0.00355
USER: genes 5 Torsion [CA]-CB--CG-[CD] |==|  0.49926
USER: genes 6 Torsion [CB]-CG--CD-[NE] |==|  0.62650
USER: genes 7 Torsion [CG]-CD--NE-[HE] |==|  0.87433
USER: genes 8 Torsion [C]-CA--N-[C] |==|  0.69764
USER: genes 9 Torsion [N]-C--CA-[N] |==|  0.43807
USER: genes 10 Torsion [C]-CA--N-[C] |==|  0.78342
USER: genes 11 Torsion [N]-C--CA-[N] |==|  0.12015
USER: genes 12 Torsion [C]-CA--CB-[CG] |==|  0.26157
USER: genes 13 Torsion [CA]-CB--CG-[CD2] |==|  0.60210
USER: genes 14 Torsion [N]-CA--C-[N] |==|  0.32246
USER: genes 15 Torsion [C]-N--CA-[C] |==|  0.64097
USER: genes 16 Torsion [N]-CA--C-[N] |==|  0.90010
USER: genes 17 Torsion [C]-N--CA-[C] |==|  0.20194
USER: genes 18 Torsion [N]-CA--C-[O] |==|  0.93724
USER: genes 19 Torsion [N]-CA--CB-[CG] |==|  0.35958
USER: genes 20 Torsion [CA]-CB--CG-[CD] |==|  0.57327
USER: genes 21 Torsion [CB]-CG--CD-[NE] |==|  0.99817
USER: genes 22 Torsion [CG]-CD--NE-[CZ] |==|  0.55853
USER: genes 23 Torsion [N]-CA--CB-[CG] |==|  0.70484
USER: genes 24 Torsion [CA]-CB--CG-[CD1] |==|  0.59340
USER: genes 25 Torsion [N]-CA--CB-[CG] |==|  0.55727
USER: genes 26 Torsion [CA]-CB--CG-[CD] |==|  0.56395
USER: genes 27 Torsion [CB]-CG--CD-[NE] |==|  0.50113
USER: genes 28 Torsion [CG]-CD--NE-[HE] |==|  0.88084
ROOT
ATOM      1  CA  ARG X 129       1.121  11.696  -7.508  1.00 23.09 LIG 0.18  C 
ENDROOT
BRANCH 1 2
ATOM      2  N   ARG X 129       2.290  12.382  -8.044  1.00 20.82 LIG-0.35  N 
ATOM      3  C   ARG X 128       3.206  11.822  -8.834  1.00 20.67 LIG 0.24  C 
ATOM      4 O    ARG X 128       3.195  10.617  -9.194  1.00 18.99 LIG-0.27  OA
ATOM      5 H    ARG X 129       2.336  13.204  -7.797  1.00 20.82 LIG 0.16  HD
BRANCH 3 6
ATOM      6  CA  ARG X 128       4.314  12.757  -9.316  1.00 21.45 LIG 0.18  C 
BRANCH 6 7
ATOM      7  CB  ARG X 128       4.185  13.027 -10.804  1.00 22.98 LIG 0.04  C 
BRANCH 7 8
ATOM      8  CG  ARG X 128       2.954  12.304 -11.387  1.00 26.06 LIG 0.02  C 
BRANCH 8 9
ATOM      9  CD  ARG X 128       2.681  12.497 -12.941  1.00 28.46 LIG 0.14  C 
BRANCH 9 10
ATOM     10  NE  ARG X 128       1.366  12.790 -13.492  1.00 34.87 LIG-0.23  N 
ATOM     11 HE   ARG X 128       0.706  12.328 -13.190  1.00 34.87 LIG 0.18  HD
ATOM     12  CZ  ARG X 128       1.084  13.711 -14.422  1.00 35.06 LIG 0.67  C 
ATOM     13  NH1 ARG X 128       2.021  14.439 -15.002  1.00 38.28 LIG-0.23  N 
ATOM     14  NH2 ARG X 128      -0.152  13.873 -14.800  1.00 41.06 LIG-0.23  N 
ATOM     15 1HH1 ARG X 128       2.846  14.330 -14.786  1.00 38.28 LIG 0.17  HD
ATOM     16 2HH1 ARG X 128       1.806  15.022 -15.597  1.00 38.28 LIG 0.17  HD
ATOM     17 1HH2 ARG X 128      -0.774  13.391 -14.452  1.00 41.06 LIG 0.17  HD
ATOM     18 2HH2 ARG X 128      -0.347  14.461 -15.396  1.00 41.06 LIG 0.17  HD
ENDBRANCH 9 10
ENDBRANCH 8 9
ENDBRANCH 7 8
ENDBRANCH 6 7
BRANCH 6 19
ATOM     19  N   ARG X 128       5.612  12.178  -9.093  1.00 22.62 LIG-0.35  N 
ATOM     20 H    ARG X 128       5.794  11.515  -9.610  1.00 22.62 LIG 0.16  HD
ATOM     21  C   ALA X 127       6.441  12.639  -8.167  1.00 23.78 LIG 0.24  C 
ATOM     22 O    ALA X 127       6.196  13.627  -7.478  1.00 22.39 LIG-0.27  OA
BRANCH 21 23
ATOM     23  CA  ALA X 127       7.813  11.950  -8.087  1.00 25.08 LIG 0.17  C 
ATOM     24  CB  ALA X 127       7.745  10.610  -7.367  1.00 24.37 LIG 0.04  C 
BRANCH 23 25
ATOM     25  N   ALA X 127       8.733  12.880  -7.444  1.00 27.78 LIG-0.35  N 
ATOM     26  C   LEU X 126       9.201  13.864  -8.212  1.00 33.19 LIG 0.26  C 
ATOM     27 O    LEU X 126       8.817  14.053  -9.408  1.00 34.96 LIG-0.27  OA
ATOM     28 H    ALA X 127       8.917  12.740  -6.616  1.00 27.78 LIG 0.16  HD
BRANCH 26 29
ATOM     29  CA  LEU X 126      10.236  14.765  -7.603  1.00 34.21 LIG 0.40  C 
ATOM     30  N   LEU X 126      11.247  13.998  -6.847  1.00 36.42 LIG 0.61  N 
BRANCH 29 31
ATOM     31  CB  LEU X 126      10.888  15.569  -8.747  1.00 35.53 LIG 0.06  C 
BRANCH 31 32
ATOM     32  CG  LEU X 126      10.276  16.950  -9.018  1.00 35.00 LIG-0.02  C 
ATOM     33  CD2 LEU X 126      10.284  17.230 -10.543  1.00 38.18 LIG 0.01  C 
ATOM     34  CD1 LEU X 126      11.021  18.028  -8.298  1.00 36.44 LIG 0.01  C 
ENDBRANCH 31 32
ENDBRANCH 29 31
ENDBRANCH 26 29
ENDBRANCH 23 25
ENDBRANCH 21 23
ENDBRANCH 6 19
ENDBRANCH 3 6
ENDBRANCH 1 2
BRANCH 1 35
ATOM     35  C   ARG X 129      -0.169  12.012  -8.312  1.00 22.72 LIG 0.24  C 
ATOM     36  N   LEU X 130      -0.817  11.042  -8.980  1.00 24.32 LIG-0.35  N 
ATOM     37 H    LEU X 130      -0.524  10.242  -9.094  1.00 24.32 LIG 0.16  HD
ATOM     38 O    ARG X 129      -0.587  13.170  -8.307  1.00 21.19 LIG-0.27  OA
BRANCH 36 39
ATOM     39  CA  LEU X 130      -2.143  11.327  -9.583  1.00 26.11 LIG 0.18  C 
BRANCH 39 40
ATOM     40  C   LEU X 130      -3.170  10.290  -9.191  1.00 29.66 LIG 0.24  C 
ATOM     41 O    LEU X 130      -4.338  10.638  -8.959  1.00 28.98 LIG-0.27  OA
ATOM     42  N   ARG X 131      -2.745   9.036  -9.073  1.00 30.67 LIG-0.34  N 
ATOM     43 H    ARG X 131      -1.960   8.768  -9.300  1.00 30.67 LIG 0.16  HD
BRANCH 42 44
ATOM     44  CA  ARG X 131      -3.603   8.001  -8.536  1.00 33.89 LIG 0.18  C 
BRANCH 44 45
ATOM     45  C   ARG X 131      -4.704   7.604  -9.520  1.00 35.66 LIG 0.20  C 
ATOM     46 OXT  ARG X 131      -5.262   6.485  -9.472  1.00 35.07 LIG-0.65  OA
ATOM     47 O    ARG X 131      -5.076   8.392 -10.439  1.00 37.10 LIG-0.65  OA
ENDBRANCH 44 45
BRANCH 44 48
ATOM     48  CB  ARG X 131      -4.225   8.487  -7.222  1.00 35.20 LIG 0.04  C 
BRANCH 48 49
ATOM     49  CG  ARG X 131      -5.754   8.318  -7.159  1.00 40.01 LIG 0.02  C 
BRANCH 49 50
ATOM     50  CD  ARG X 131      -6.463   9.323  -6.213  1.00 47.84 LIG 0.14  C 
BRANCH 50 51
ATOM     51  NE  ARG X 131      -5.491  10.210  -5.573  1.00 52.72 LIG-0.23  N 
ATOM     52  CZ  ARG X 131      -5.698  10.894  -4.446  1.00 57.07 LIG 0.67  C 
ATOM     53  NH1 ARG X 131      -6.858  10.789  -3.776  1.00 58.64 LIG-0.23  N 
ATOM     54  NH2 ARG X 131      -4.729  11.685  -3.976  1.00 59.02 LIG-0.23  N 
ATOM     55 2HH1 ARG X 131      -6.978  11.235  -3.051  1.00 58.64 LIG 0.17  HD
ATOM     56 1HH1 ARG X 131      -7.480  10.274  -4.072  1.00 58.64 LIG 0.17  HD
ATOM     57 2HH2 ARG X 131      -4.852  12.131  -3.251  1.00 59.02 LIG 0.17  HD
ATOM     58 1HH2 ARG X 131      -3.984  11.749  -4.399  1.00 59.02 LIG 0.17  HD
ATOM     59 HE   ARG X 131      -4.725  10.297  -5.954  1.00 52.72 LIG 0.18  HD
ENDBRANCH 50 51
ENDBRANCH 49 50
ENDBRANCH 48 49
ENDBRANCH 44 48
ENDBRANCH 42 44
ENDBRANCH 39 40
BRANCH 39 60
ATOM     60  CB  LEU X 130      -2.111  11.374 -11.113  1.00 27.29 LIG 0.04  C 
BRANCH 60 61
ATOM     61  CG  LEU X 130      -2.210  12.697 -11.854  1.00 26.34 LIG-0.02  C 
ATOM     62  CD1 LEU X 130      -2.969  12.576 -13.216  1.00 29.54 LIG 0.01  C 
ATOM     63  CD2 LEU X 130      -2.907  13.677 -10.967  1.00 21.56 LIG 0.01  C 
ENDBRANCH 60 61
ENDBRANCH 39 60
ENDBRANCH 36 39
ENDBRANCH 1 35
BRANCH 1 64
ATOM     64  CB  ARG X 129       1.005  12.298  -6.089  1.00 24.17 LIG 0.04  C 
BRANCH 64 65
ATOM     65  CG  ARG X 129       0.247  11.547  -5.087  1.00 28.32 LIG 0.02  C 
BRANCH 65 66
ATOM     66  CD  ARG X 129      -0.290  12.386  -3.942  1.00 31.43 LIG 0.14  C 
BRANCH 66 67
ATOM     67  NE  ARG X 129      -1.048  11.661  -2.913  1.00 29.42 LIG-0.23  N 
ATOM     68  CZ  ARG X 129      -0.934  11.846  -1.603  1.00 30.66 LIG 0.67  C 
ATOM     69  NH1 ARG X 129      -0.016  12.669  -1.100  1.00 33.32 LIG-0.23  N 
ATOM     70  NH2 ARG X 129      -1.729  11.163  -0.771  1.00 29.67 LIG-0.23  N 
ATOM     71 2HH1 ARG X 129       0.045  12.777  -0.249  1.00 33.32 LIG 0.17  HD
ATOM     72 1HH1 ARG X 129       0.517  13.091  -1.626  1.00 33.32 LIG 0.17  HD
ATOM     73 2HH2 ARG X 129      -1.661  11.277   0.079  1.00 29.67 LIG 0.17  HD
ATOM     74 1HH2 ARG X 129      -2.307  10.610  -1.086  1.00 29.67 LIG 0.17  HD
ATOM     75 HE   ARG X 129      -1.611  11.068  -3.180  1.00 29.42 LIG 0.18  HD
ENDBRANCH 66 67
ENDBRANCH 65 66
ENDBRANCH 64 65
ENDBRANCH 1 64
TORSDOF 27
ENDMDL
MODEL 9
USER: ADFR SOLUTION from run 12
USER: SCORE 28.789688 LL:  -4.289 LR: -25.738 RR:   0.000 FEB: -17.684
USER: RMSD 3.602301
USER: SEED 767190
USER: STATUS no improvement in best in 4 clusters for 5 generations
USER: GENES 29
USER: genes 0 Translation |==|  0.45623 0.39214 0.49753
USER: genes 1 Rotation |==|  0.43513 0.47630 0.50004 0.99521
USER: genes 2 Torsion [C]-CA--N-[C] |==|  0.74446
USER: genes 3 Torsion [N]-C--CA-[N] |==|  0.27937
USER: genes 4 Torsion [C]-CA--CB-[CG] |==|  0.50721
USER: genes 5 Torsion [CA]-CB--CG-[CD] |==|  0.47414
USER: genes 6 Torsion [CB]-CG--CD-[NE] |==|  0.67359
USER: genes 7 Torsion [CG]-CD--NE-[HE] |==|  0.88832
USER: genes 8 Torsion [C]-CA--N-[C] |==|  0.66220
USER: genes 9 Torsion [N]-C--CA-[N] |==|  0.73016
USER: genes 10 Torsion [C]-CA--N-[C] |==|  0.58861
USER: genes 11 Torsion [N]-C--CA-[N] |==|  0.47479
USER: genes 12 Torsion [C]-CA--CB-[CG] |==|  0.21196
USER: genes 13 Torsion [CA]-CB--CG-[CD2] |==|  0.68100
USER: genes 14 Torsion [N]-CA--C-[N] |==|  0.27950
USER: genes 15 Torsion [C]-N--CA-[C] |==|  0.81781
USER: genes 16 Torsion [N]-CA--C-[N] |==|  0.37440
USER: genes 17 Torsion [C]-N--CA-[C] |==|  0.62566
USER: genes 18 Torsion [N]-CA--C-[O] |==|  0.45407
USER: genes 19 Torsion [N]-CA--CB-[CG] |==|  0.96445
USER: genes 20 Torsion [CA]-CB--CG-[CD] |==|  0.74794
USER: genes 21 Torsion [CB]-CG--CD-[NE] |==|  0.02274
USER: genes 22 Torsion [CG]-CD--NE-[CZ] |==|  0.76799
USER: genes 23 Torsion [N]-CA--CB-[CG] |==|  0.61934
USER: genes 24 Torsion [CA]-CB--CG-[CD1] |==|  0.65534
USER: genes 25 Torsion [N]-CA--CB-[CG] |==|  0.65109
USER: genes 26 Torsion [CA]-CB--CG-[CD] |==|  0.51750
USER: genes 27 Torsion [CB]-CG--CD-[NE] |==|  0.36135
USER: genes 28 Torsion [CG]-CD--NE-[HE] |==|  0.95353
ROOT
ATOM      1  CA  ARG X 129       1.181  11.837  -7.231  1.00 23.09 LIG 0.18  C 
ENDROOT
BRANCH 1 2
ATOM      2  N   ARG X 129       2.480  12.317  -7.687  1.00 20.82 LIG-0.35  N 
ATOM      3  C   ARG X 128       3.203  11.754  -8.657  1.00 20.67 LIG 0.24  C 
ATOM      4 O    ARG X 128       2.868  10.716  -9.282  1.00 18.99 LIG-0.27  OA
ATOM      5 H    ARG X 129       2.746  13.015  -7.262  1.00 20.82 LIG 0.16  HD
BRANCH 3 6
ATOM      6  CA  ARG X 128       4.509  12.469  -8.997  1.00 21.45 LIG 0.18  C 
BRANCH 6 7
ATOM      7  CB  ARG X 128       4.745  12.479 -10.497  1.00 22.98 LIG 0.04  C 
BRANCH 7 8
ATOM      8  CG  ARG X 128       6.095  13.144 -10.834  1.00 26.06 LIG 0.02  C 
BRANCH 8 9
ATOM      9  CD  ARG X 128       6.592  13.028 -12.339  1.00 28.46 LIG 0.14  C 
BRANCH 9 10
ATOM     10  NE  ARG X 128       7.816  12.342 -12.727  1.00 34.87 LIG-0.23  N 
ATOM     11 HE   ARG X 128       8.501  12.451 -12.218  1.00 34.87 LIG 0.18  HD
ATOM     12  CZ  ARG X 128       7.978  11.557 -13.800  1.00 35.06 LIG 0.67  C 
ATOM     13  NH1 ARG X 128       7.018  11.364 -14.685  1.00 38.28 LIG-0.23  N 
ATOM     14  NH2 ARG X 128       9.134  10.992 -14.002  1.00 41.06 LIG-0.23  N 
ATOM     15 1HH1 ARG X 128       6.256  11.748 -14.584  1.00 38.28 LIG 0.17  HD
ATOM     16 2HH1 ARG X 128       7.155  10.853 -15.364  1.00 38.28 LIG 0.17  HD
ATOM     17 1HH2 ARG X 128       9.781  11.125 -13.450  1.00 41.06 LIG 0.17  HD
ATOM     18 2HH2 ARG X 128       9.252  10.485 -14.687  1.00 41.06 LIG 0.17  HD
ENDBRANCH 9 10
ENDBRANCH 8 9
ENDBRANCH 7 8
ENDBRANCH 6 7
BRANCH 6 19
ATOM     19  N   ARG X 128       5.633  11.809  -8.388  1.00 22.62 LIG-0.35  N 
ATOM     20 H    ARG X 128       5.723  10.985  -8.616  1.00 22.62 LIG 0.16  HD
ATOM     21  C   ALA X 127       6.448  12.434  -7.548  1.00 23.78 LIG 0.24  C 
ATOM     22 O    ALA X 127       6.348  13.628  -7.279  1.00 22.39 LIG-0.27  OA
BRANCH 21 23
ATOM     23  CA  ALA X 127       7.635  11.610  -7.023  1.00 25.08 LIG 0.17  C 
ATOM     24  CB  ALA X 127       8.049  10.512  -7.994  1.00 24.37 LIG 0.04  C 
BRANCH 23 25
ATOM     25  N   ALA X 127       7.258  11.084  -5.717  1.00 27.78 LIG-0.35  N 
ATOM     26  C   LEU X 126       8.249  10.934  -4.839  1.00 33.19 LIG 0.26  C 
ATOM     27 O    LEU X 126       9.443  11.302  -5.071  1.00 34.96 LIG-0.27  OA
ATOM     28 H    ALA X 127       6.426  10.903  -5.592  1.00 27.78 LIG 0.16  HD
BRANCH 26 29
ATOM     29  CA  LEU X 126       7.903  10.288  -3.529  1.00 34.21 LIG 0.40  C 
ATOM     30  N   LEU X 126       9.111   9.985  -2.737  1.00 36.42 LIG 0.61  N 
BRANCH 29 31
ATOM     31  CB  LEU X 126       6.963  11.246  -2.768  1.00 35.53 LIG 0.06  C 
BRANCH 31 32
ATOM     32  CG  LEU X 126       5.511  11.281  -3.262  1.00 35.00 LIG-0.02  C 
ATOM     33  CD2 LEU X 126       5.194  12.683  -3.842  1.00 38.18 LIG 0.01  C 
ATOM     34  CD1 LEU X 126       4.552  10.956  -2.162  1.00 36.44 LIG 0.01  C 
ENDBRANCH 31 32
ENDBRANCH 29 31
ENDBRANCH 26 29
ENDBRANCH 23 25
ENDBRANCH 21 23
ENDBRANCH 6 19
ENDBRANCH 3 6
ENDBRANCH 1 2
BRANCH 1 35
ATOM     35  C   ARG X 129       0.005  12.518  -7.982  1.00 22.72 LIG 0.24  C 
ATOM     36  N   LEU X 130      -0.627  11.885  -8.985  1.00 24.32 LIG-0.35  N 
ATOM     37 H    LEU X 130      -0.374  11.144  -9.339  1.00 24.32 LIG 0.16  HD
ATOM     38 O    ARG X 129      -0.340  13.643  -7.622  1.00 21.19 LIG-0.27  OA
BRANCH 36 39
ATOM     39  CA  LEU X 130      -1.862  12.474  -9.561  1.00 26.11 LIG 0.18  C 
BRANCH 39 40
ATOM     40  C   LEU X 130      -2.992  12.495  -8.558  1.00 29.66 LIG 0.24  C 
ATOM     41 O    LEU X 130      -3.245  11.478  -7.893  1.00 28.98 LIG-0.27  OA
ATOM     42  N   ARG X 131      -3.698  13.618  -8.470  1.00 30.67 LIG-0.34  N 
ATOM     43 H    ARG X 131      -3.491  14.352  -8.869  1.00 30.67 LIG 0.16  HD
BRANCH 42 44
ATOM     44  CA  ARG X 131      -4.903  13.686  -7.671  1.00 33.89 LIG 0.18  C 
BRANCH 44 45
ATOM     45  C   ARG X 131      -6.042  14.390  -8.411  1.00 35.66 LIG 0.20  C 
ATOM     46 OXT  ARG X 131      -5.833  15.116  -9.408  1.00 35.07 LIG-0.65  OA
ATOM     47 O    ARG X 131      -7.242  14.279  -8.022  1.00 37.10 LIG-0.65  OA
ENDBRANCH 44 45
BRANCH 44 48
ATOM     48  CB  ARG X 131      -4.603  14.414  -6.357  1.00 35.20 LIG 0.04  C 
BRANCH 48 49
ATOM     49  CG  ARG X 131      -3.100  14.599  -6.079  1.00 40.01 LIG 0.02  C 
BRANCH 49 50
ATOM     50  CD  ARG X 131      -2.459  13.442  -5.268  1.00 47.84 LIG 0.14  C 
BRANCH 50 51
ATOM     51  NE  ARG X 131      -3.399  12.332  -5.113  1.00 52.72 LIG-0.23  N 
ATOM     52  CZ  ARG X 131      -4.347  12.251  -4.176  1.00 57.07 LIG 0.67  C 
ATOM     53  NH1 ARG X 131      -4.528  13.242  -3.287  1.00 58.64 LIG-0.23  N 
ATOM     54  NH2 ARG X 131      -5.132  11.170  -4.134  1.00 59.02 LIG-0.23  N 
ATOM     55 2HH1 ARG X 131      -5.142  13.177  -2.689  1.00 58.64 LIG 0.17  HD
ATOM     56 1HH1 ARG X 131      -4.029  13.942  -3.317  1.00 58.64 LIG 0.17  HD
ATOM     57 2HH2 ARG X 131      -5.746  11.107  -3.535  1.00 59.02 LIG 0.17  HD
ATOM     58 1HH2 ARG X 131      -5.023  10.538  -4.707  1.00 59.02 LIG 0.17  HD
ATOM     59 HE   ARG X 131      -3.337  11.680  -5.670  1.00 52.72 LIG 0.18  HD
ENDBRANCH 50 51
ENDBRANCH 49 50
ENDBRANCH 48 49
ENDBRANCH 44 48
ENDBRANCH 42 44
ENDBRANCH 39 40
BRANCH 39 60
ATOM     60  CB  LEU X 130      -2.370  11.722 -10.795  1.00 27.29 LIG 0.04  C 
BRANCH 60 61
ATOM     61  CG  LEU X 130      -2.864  12.477 -12.018  1.00 26.34 LIG-0.02  C 
ATOM     62  CD1 LEU X 130      -4.322  12.085 -12.426  1.00 29.54 LIG 0.01  C 
ATOM     63  CD2 LEU X 130      -2.793  13.940 -11.722  1.00 21.56 LIG 0.01  C 
ENDBRANCH 60 61
ENDBRANCH 39 60
ENDBRANCH 36 39
ENDBRANCH 1 35
BRANCH 1 64
ATOM     64  CB  ARG X 129       1.169  12.274  -5.749  1.00 24.17 LIG 0.04  C 
BRANCH 64 65
ATOM     65  CG  ARG X 129       0.912  11.249  -4.736  1.00 28.32 LIG 0.02  C 
BRANCH 65 66
ATOM     66  CD  ARG X 129       0.767  11.780  -3.322  1.00 31.43 LIG 0.14  C 
BRANCH 66 67
ATOM     67  NE  ARG X 129      -0.416  11.323  -2.580  1.00 29.42 LIG-0.23  N 
ATOM     68  CZ  ARG X 129      -0.574  11.402  -1.264  1.00 30.66 LIG 0.67  C 
ATOM     69  NH1 ARG X 129       0.408  11.832  -0.476  1.00 33.32 LIG-0.23  N 
ATOM     70  NH2 ARG X 129      -1.729  11.005  -0.716  1.00 29.67 LIG-0.23  N 
ATOM     71 2HH1 ARG X 129       0.289  11.877   0.375  1.00 33.32 LIG 0.17  HD
ATOM     72 1HH1 ARG X 129       1.163  12.064  -0.817  1.00 33.32 LIG 0.17  HD
ATOM     73 2HH2 ARG X 129      -1.840  11.053   0.135  1.00 29.67 LIG 0.17  HD
ATOM     74 1HH2 ARG X 129      -2.360  10.702  -1.215  1.00 29.67 LIG 0.17  HD
ATOM     75 HE   ARG X 129      -1.058  10.975  -3.035  1.00 29.42 LIG 0.18  HD
ENDBRANCH 66 67
ENDBRANCH 65 66
ENDBRANCH 64 65
ENDBRANCH 1 64
TORSDOF 27
ENDMDL
MODEL 10
USER: ADFR SOLUTION from run 162
USER: SCORE 28.945717 LL:  -3.850 LR: -25.729 RR:   0.000 FEB: -17.675
USER: RMSD 2.617845
USER: SEED 161
USER: STATUS no improvement in best in 14 clusters for 5 generations
USER: GENES 29
USER: genes 0 Translation |==|  0.43929 0.41016 0.46717
USER: genes 1 Rotation |==|  0.49230 0.48717 0.49385 0.99974
USER: genes 2 Torsion [C]-CA--N-[C] |==|  0.64953
USER: genes 3 Torsion [N]-C--CA-[N] |==|  0.37475
USER: genes 4 Torsion [C]-CA--CB-[CG] |==|  0.55318
USER: genes 5 Torsion [CA]-CB--CG-[CD] |==|  0.38653
USER: genes 6 Torsion [CB]-CG--CD-[NE] |==|  0.63585
USER: genes 7 Torsion [CG]-CD--NE-[HE] |==|  0.96413
USER: genes 8 Torsion [C]-CA--N-[C] |==|  0.66983
USER: genes 9 Torsion [N]-C--CA-[N] |==|  0.45556
USER: genes 10 Torsion [C]-CA--N-[C] |==|  0.79724
USER: genes 11 Torsion [N]-C--CA-[N] |==|  0.13826
USER: genes 12 Torsion [C]-CA--CB-[CG] |==|  0.23975
USER: genes 13 Torsion [CA]-CB--CG-[CD2] |==|  0.63010
USER: genes 14 Torsion [N]-CA--C-[N] |==|  0.27899
USER: genes 15 Torsion [C]-N--CA-[C] |==|  0.80215
USER: genes 16 Torsion [N]-CA--C-[N] |==|  0.43825
USER: genes 17 Torsion [C]-N--CA-[C] |==|  0.51033
USER: genes 18 Torsion [N]-CA--C-[O] |==|  0.51955
USER: genes 19 Torsion [N]-CA--CB-[CG] |==|  0.08388
USER: genes 20 Torsion [CA]-CB--CG-[CD] |==|  0.62301
USER: genes 21 Torsion [CB]-CG--CD-[NE] |==|  0.69701
USER: genes 22 Torsion [CG]-CD--NE-[CZ] |==|  0.37906
USER: genes 23 Torsion [N]-CA--CB-[CG] |==|  0.75598
USER: genes 24 Torsion [CA]-CB--CG-[CD1] |==|  0.49114
USER: genes 25 Torsion [N]-CA--CB-[CG] |==|  0.59626
USER: genes 26 Torsion [CA]-CB--CG-[CD] |==|  0.86814
USER: genes 27 Torsion [CB]-CG--CD-[NE] |==|  0.20852
USER: genes 28 Torsion [CG]-CD--NE-[HE] |==|  0.98677
ROOT
ATOM      1  CA  ARG X 129       0.711  12.135  -7.915  1.00 23.09 LIG 0.18  C 
ENDROOT
BRANCH 1 2
ATOM      2  N   ARG X 129       2.002  12.687  -8.304  1.00 20.82 LIG-0.35  N 
ATOM      3  C   ARG X 128       2.959  12.011  -8.941  1.00 20.67 LIG 0.24  C 
ATOM      4 O    ARG X 128       2.881  10.797  -9.260  1.00 18.99 LIG-0.27  OA
ATOM      5 H    ARG X 129       2.094  13.512  -8.080  1.00 20.82 LIG 0.16  HD
BRANCH 3 6
ATOM      6  CA  ARG X 128       4.207  12.818  -9.293  1.00 21.45 LIG 0.18  C 
BRANCH 6 7
ATOM      7  CB  ARG X 128       4.247  13.133 -10.778  1.00 22.98 LIG 0.04  C 
BRANCH 7 8
ATOM      8  CG  ARG X 128       5.676  13.508 -11.220  1.00 26.06 LIG 0.02  C 
BRANCH 8 9
ATOM      9  CD  ARG X 128       6.167  12.928 -12.615  1.00 28.46 LIG 0.14  C 
BRANCH 9 10
ATOM     10  NE  ARG X 128       7.446  12.256 -12.797  1.00 34.87 LIG-0.23  N 
ATOM     11 HE   ARG X 128       8.017  12.327 -12.157  1.00 34.87 LIG 0.18  HD
ATOM     12  CZ  ARG X 128       7.819  11.538 -13.864  1.00 35.06 LIG 0.67  C 
ATOM     13  NH1 ARG X 128       7.053  11.410 -14.931  1.00 38.28 LIG-0.23  N 
ATOM     14  NH2 ARG X 128       8.994  10.976 -13.869  1.00 41.06 LIG-0.23  N 
ATOM     15 1HH1 ARG X 128       6.285  11.794 -14.958  1.00 38.28 LIG 0.17  HD
ATOM     16 2HH1 ARG X 128       7.323  10.941 -15.601  1.00 38.28 LIG 0.17  HD
ATOM     17 1HH2 ARG X 128       9.519  11.068 -13.194  1.00 41.06 LIG 0.17  HD
ATOM     18 2HH2 ARG X 128       9.246  10.512 -14.548  1.00 41.06 LIG 0.17  HD
ENDBRANCH 9 10
ENDBRANCH 8 9
ENDBRANCH 7 8
ENDBRANCH 6 7
BRANCH 6 19
ATOM     19  N   ARG X 128       5.403  12.085  -8.975  1.00 22.62 LIG-0.35  N 
ATOM     20 H    ARG X 128       5.485  11.343  -9.401  1.00 22.62 LIG 0.16  HD
ATOM     21  C   ALA X 127       6.292  12.531  -8.096  1.00 23.78 LIG 0.24  C 
ATOM     22 O    ALA X 127       6.197  13.623  -7.541  1.00 22.39 LIG-0.27  OA
BRANCH 21 23
ATOM     23  CA  ALA X 127       7.545  11.662  -7.905  1.00 25.08 LIG 0.17  C 
ATOM     24  CB  ALA X 127       7.242  10.371  -7.156  1.00 24.37 LIG 0.04  C 
BRANCH 23 25
ATOM     25  N   ALA X 127       8.544  12.478  -7.225  1.00 27.78 LIG-0.35  N 
ATOM     26  C   LEU X 126       9.121  13.428  -7.961  1.00 33.19 LIG 0.26  C 
ATOM     27 O    LEU X 126       8.776  13.684  -9.156  1.00 34.96 LIG-0.27  OA
ATOM     28 H    ALA X 127       8.700  12.299  -6.399  1.00 27.78 LIG 0.16  HD
BRANCH 26 29
ATOM     29  CA  LEU X 126      10.232  14.203  -7.315  1.00 34.21 LIG 0.40  C 
ATOM     30  N   LEU X 126      11.232  13.309  -6.698  1.00 36.42 LIG 0.61  N 
BRANCH 29 31
ATOM     31  CB  LEU X 126      10.874  15.093  -8.400  1.00 35.53 LIG 0.06  C 
BRANCH 31 32
ATOM     32  CG  LEU X 126      10.206  16.457  -8.619  1.00 35.00 LIG-0.02  C 
ATOM     33  CD2 LEU X 126      10.009  16.699 -10.138  1.00 38.18 LIG 0.01  C 
ATOM     34  CD1 LEU X 126      11.018  17.564  -8.028  1.00 36.44 LIG 0.01  C 
ENDBRANCH 31 32
ENDBRANCH 29 31
ENDBRANCH 26 29
ENDBRANCH 23 25
ENDBRANCH 21 23
ENDBRANCH 6 19
ENDBRANCH 3 6
ENDBRANCH 1 2
BRANCH 1 35
ATOM     35  C   ARG X 129      -0.476  12.986  -8.440  1.00 22.72 LIG 0.24  C 
ATOM     36  N   LEU X 130      -1.159  12.611  -9.535  1.00 24.32 LIG-0.35  N 
ATOM     37 H    LEU X 130      -0.935  11.968 -10.059  1.00 24.32 LIG 0.16  HD
ATOM     38 O    ARG X 129      -0.782  14.002  -7.816  1.00 21.19 LIG-0.27  OA
BRANCH 36 39
ATOM     39  CA  LEU X 130      -2.401  13.333  -9.908  1.00 26.11 LIG 0.18  C 
BRANCH 39 40
ATOM     40  C   LEU X 130      -3.534  13.028  -8.956  1.00 29.66 LIG 0.24  C 
ATOM     41 O    LEU X 130      -3.527  11.968  -8.310  1.00 28.98 LIG-0.27  OA
ATOM     42  N   ARG X 131      -4.522  13.915  -8.892  1.00 30.67 LIG-0.34  N 
ATOM     43 H    ARG X 131      -4.507  14.684  -9.276  1.00 30.67 LIG 0.16  HD
BRANCH 42 44
ATOM     44  CA  ARG X 131      -5.731  13.637  -8.146  1.00 33.89 LIG 0.18  C 
BRANCH 44 45
ATOM     45  C   ARG X 131      -6.762  14.758  -8.288  1.00 35.66 LIG 0.20  C 
ATOM     46 OXT  ARG X 131      -6.584  15.725  -9.062  1.00 35.07 LIG-0.65  OA
ATOM     47 O    ARG X 131      -7.828  14.757  -7.605  1.00 37.10 LIG-0.65  OA
ENDBRANCH 44 45
BRANCH 44 48
ATOM     48  CB  ARG X 131      -5.382  13.430  -6.669  1.00 35.20 LIG 0.04  C 
BRANCH 48 49
ATOM     49  CG  ARG X 131      -4.151  14.230  -6.204  1.00 40.01 LIG 0.02  C 
BRANCH 49 50
ATOM     50  CD  ARG X 131      -3.165  13.417  -5.323  1.00 47.84 LIG 0.14  C 
BRANCH 50 51
ATOM     51  NE  ARG X 131      -3.210  13.874  -3.934  1.00 52.72 LIG-0.23  N 
ATOM     52  CZ  ARG X 131      -3.229  13.078  -2.862  1.00 57.07 LIG 0.67  C 
ATOM     53  NH1 ARG X 131      -3.177  11.742  -2.992  1.00 58.64 LIG-0.23  N 
ATOM     54  NH2 ARG X 131      -3.289  13.625  -1.645  1.00 59.02 LIG-0.23  N 
ATOM     55 2HH1 ARG X 131      -3.190  11.241  -2.293  1.00 58.64 LIG 0.17  HD
ATOM     56 1HH1 ARG X 131      -3.131  11.387  -3.774  1.00 58.64 LIG 0.17  HD
ATOM     57 2HH2 ARG X 131      -3.302  13.122  -0.947  1.00 59.02 LIG 0.17  HD
ATOM     58 1HH2 ARG X 131      -3.315  14.481  -1.559  1.00 59.02 LIG 0.17  HD
ATOM     59 HE   ARG X 131      -3.226  14.723  -3.797  1.00 52.72 LIG 0.18  HD
ENDBRANCH 50 51
ENDBRANCH 49 50
ENDBRANCH 48 49
ENDBRANCH 44 48
ENDBRANCH 42 44
ENDBRANCH 39 40
BRANCH 39 60
ATOM     60  CB  LEU X 130      -2.895  12.994 -11.318  1.00 27.29 LIG 0.04  C 
BRANCH 60 61
ATOM     61  CG  LEU X 130      -2.394  13.770 -12.526  1.00 26.34 LIG-0.02  C 
ATOM     62  CD1 LEU X 130      -2.956  13.219 -13.877  1.00 29.54 LIG 0.01  C 
ATOM     63  CD2 LEU X 130      -2.786  15.202 -12.355  1.00 21.56 LIG 0.01  C 
ENDBRANCH 60 61
ENDBRANCH 39 60
ENDBRANCH 36 39
ENDBRANCH 1 35
BRANCH 1 64
ATOM     64  CB  ARG X 129       0.766  12.221  -6.373  1.00 24.17 LIG 0.04  C 
BRANCH 64 65
ATOM     65  CG  ARG X 129       0.112  11.160  -5.605  1.00 28.32 LIG 0.02  C 
BRANCH 65 66
ATOM     66  CD  ARG X 129      -1.293  10.820  -6.067  1.00 31.43 LIG 0.14  C 
BRANCH 66 67
ATOM     67  NE  ARG X 129      -1.392  10.040  -7.309  1.00 29.42 LIG-0.23  N 
ATOM     68  CZ  ARG X 129      -2.518   9.567  -7.831  1.00 30.66 LIG 0.67  C 
ATOM     69  NH1 ARG X 129      -3.678   9.686  -7.190  1.00 33.32 LIG-0.23  N 
ATOM     70  NH2 ARG X 129      -2.479   8.922  -9.003  1.00 29.67 LIG-0.23  N 
ATOM     71 2HH1 ARG X 129      -4.398   9.374  -7.542  1.00 33.32 LIG 0.17  HD
ATOM     72 1HH1 ARG X 129      -3.708  10.075  -6.424  1.00 33.32 LIG 0.17  HD
ATOM     73 2HH2 ARG X 129      -3.203   8.612  -9.348  1.00 29.67 LIG 0.17  HD
ATOM     74 1HH2 ARG X 129      -1.729   8.818  -9.412  1.00 29.67 LIG 0.17  HD
ATOM     75 HE   ARG X 129      -0.661   9.876  -7.732  1.00 29.42 LIG 0.18  HD
ENDBRANCH 66 67
ENDBRANCH 65 66
ENDBRANCH 64 65
ENDBRANCH 1 64
TORSDOF 27
ENDMDL
MODEL 11
USER: ADFR SOLUTION from run 128
USER: SCORE 28.750296 LL:  -3.808 LR: -25.656 RR:   0.000 FEB: -17.602
USER: RMSD 5.246692
USER: SEED 127
USER: STATUS no improvement in best in 14 clusters for 5 generations
USER: GENES 29
USER: genes 0 Translation |==|  0.45815 0.37498 0.49985
USER: genes 1 Rotation |==|  0.37606 0.46652 0.57247 0.97777
USER: genes 2 Torsion [C]-CA--N-[C] |==|  0.77903
USER: genes 3 Torsion [N]-C--CA-[N] |==|  0.32644
USER: genes 4 Torsion [C]-CA--CB-[CG] |==|  0.56013
USER: genes 5 Torsion [CA]-CB--CG-[CD] |==|  0.36085
USER: genes 6 Torsion [CB]-CG--CD-[NE] |==|  0.64210
USER: genes 7 Torsion [CG]-CD--NE-[HE] |==|  0.00827
USER: genes 8 Torsion [C]-CA--N-[C] |==|  0.69204
USER: genes 9 Torsion [N]-C--CA-[N] |==|  0.43594
USER: genes 10 Torsion [C]-CA--N-[C] |==|  0.76914
USER: genes 11 Torsion [N]-C--CA-[N] |==|  0.16153
USER: genes 12 Torsion [C]-CA--CB-[CG] |==|  0.29610
USER: genes 13 Torsion [CA]-CB--CG-[CD2] |==|  0.54752
USER: genes 14 Torsion [N]-CA--C-[N] |==|  0.40013
USER: genes 15 Torsion [C]-N--CA-[C] |==|  0.55049
USER: genes 16 Torsion [N]-CA--C-[N] |==|  0.51417
USER: genes 17 Torsion [C]-N--CA-[C] |==|  0.82271
USER: genes 18 Torsion [N]-CA--C-[O] |==|  0.39736
USER: genes 19 Torsion [N]-CA--CB-[CG] |==|  0.21066
USER: genes 20 Torsion [CA]-CB--CG-[CD] |==|  0.66845
USER: genes 21 Torsion [CB]-CG--CD-[NE] |==|  0.53030
USER: genes 22 Torsion [CG]-CD--NE-[CZ] |==|  0.52711
USER: genes 23 Torsion [N]-CA--CB-[CG] |==|  0.16101
USER: genes 24 Torsion [CA]-CB--CG-[CD1] |==|  0.42316
USER: genes 25 Torsion [N]-CA--CB-[CG] |==|  0.81390
USER: genes 26 Torsion [CA]-CB--CG-[CD] |==|  0.19659
USER: genes 27 Torsion [CB]-CG--CD-[NE] |==|  0.42834
USER: genes 28 Torsion [CG]-CD--NE-[HE] |==|  0.85465
ROOT
ATOM      1  CA  ARG X 129       1.235  11.554  -7.179  1.00 23.09 LIG 0.18  C 
ENDROOT
BRANCH 1 2
ATOM      2  N   ARG X 129       2.369  12.243  -7.782  1.00 20.82 LIG-0.35  N 
ATOM      3  C   ARG X 128       3.116  11.757  -8.774  1.00 20.67 LIG 0.24  C 
ATOM      4 O    ARG X 128       2.956  10.624  -9.296  1.00 18.99 LIG-0.27  OA
ATOM      5 H    ARG X 129       2.517  13.014  -7.430  1.00 20.82 LIG 0.16  HD
BRANCH 3 6
ATOM      6  CA  ARG X 128       4.218  12.687  -9.279  1.00 21.45 LIG 0.18  C 
BRANCH 6 7
ATOM      7  CB  ARG X 128       4.070  12.943 -10.768  1.00 22.98 LIG 0.04  C 
BRANCH 7 8
ATOM      8  CG  ARG X 128       5.409  13.401 -11.381  1.00 26.06 LIG 0.02  C 
BRANCH 8 9
ATOM      9  CD  ARG X 128       5.894  12.637 -12.687  1.00 28.46 LIG 0.14  C 
BRANCH 9 10
ATOM     10  NE  ARG X 128       7.224  12.062 -12.829  1.00 34.87 LIG-0.23  N 
ATOM     11 HE   ARG X 128       7.747  12.116 -12.148  1.00 34.87 LIG 0.18  HD
ATOM     12  CZ  ARG X 128       7.713  11.457 -13.919  1.00 35.06 LIG 0.67  C 
ATOM     13  NH1 ARG X 128       7.028  11.368 -15.045  1.00 38.28 LIG-0.23  N 
ATOM     14  NH2 ARG X 128       8.921  10.970 -13.886  1.00 41.06 LIG-0.23  N 
ATOM     15 1HH1 ARG X 128       6.239  11.705 -15.096  1.00 38.28 LIG 0.17  HD
ATOM     16 2HH1 ARG X 128       7.371  10.972 -15.727  1.00 38.28 LIG 0.17  HD
ATOM     17 1HH2 ARG X 128       9.393  11.040 -13.170  1.00 41.06 LIG 0.17  HD
ATOM     18 2HH2 ARG X 128       9.247  10.579 -14.579  1.00 41.06 LIG 0.17  HD
ENDBRANCH 9 10
ENDBRANCH 8 9
ENDBRANCH 7 8
ENDBRANCH 6 7
BRANCH 6 19
ATOM     19  N   ARG X 128       5.518  12.109  -9.067  1.00 22.62 LIG-0.35  N 
ATOM     20 H    ARG X 128       5.683  11.424  -9.561  1.00 22.62 LIG 0.16  HD
ATOM     21  C   ALA X 127       6.375  12.603  -8.183  1.00 23.78 LIG 0.24  C 
ATOM     22 O    ALA X 127       6.154  13.620  -7.530  1.00 22.39 LIG-0.27  OA
BRANCH 21 23
ATOM     23  CA  ALA X 127       7.745  11.909  -8.112  1.00 25.08 LIG 0.17  C 
ATOM     24  CB  ALA X 127       7.693  10.610  -7.320  1.00 24.37 LIG 0.04  C 
BRANCH 23 25
ATOM     25  N   ALA X 127       8.691  12.866  -7.550  1.00 27.78 LIG-0.35  N 
ATOM     26  C   LEU X 126       9.220  13.737  -8.408  1.00 33.19 LIG 0.26  C 
ATOM     27 O    LEU X 126       8.872  13.808  -9.628  1.00 34.96 LIG-0.27  OA
ATOM     28 H    ALA X 127       8.850  12.810  -6.707  1.00 27.78 LIG 0.16  HD
BRANCH 26 29
ATOM     29  CA  LEU X 126      10.280  14.655  -7.874  1.00 34.21 LIG 0.40  C 
ATOM     30  N   LEU X 126      11.420  13.902  -7.315  1.00 36.42 LIG 0.61  N 
BRANCH 29 31
ATOM     31  CB  LEU X 126      10.731  15.573  -9.030  1.00 35.53 LIG 0.06  C 
BRANCH 31 32
ATOM     32  CG  LEU X 126      10.249  17.027  -8.949  1.00 35.00 LIG-0.02  C 
ATOM     33  CD2 LEU X 126      10.396  17.699 -10.338  1.00 38.18 LIG 0.01  C 
ATOM     34  CD1 LEU X 126      11.015  17.800  -7.925  1.00 36.44 LIG 0.01  C 
ENDBRANCH 31 32
ENDBRANCH 29 31
ENDBRANCH 26 29
ENDBRANCH 23 25
ENDBRANCH 21 23
ENDBRANCH 6 19
ENDBRANCH 3 6
ENDBRANCH 1 2
BRANCH 1 35
ATOM     35  C   ARG X 129      -0.052  11.671  -8.040  1.00 22.72 LIG 0.24  C 
ATOM     36  N   LEU X 130      -0.921  10.649  -8.121  1.00 24.32 LIG-0.35  N 
ATOM     37 H    LEU X 130      -0.784   9.860  -7.807  1.00 24.32 LIG 0.16  HD
ATOM     38 O    ARG X 129      -0.260  12.731  -8.632  1.00 21.19 LIG-0.27  OA
BRANCH 36 39
ATOM     39  CA  LEU X 130      -2.229  10.848  -8.793  1.00 26.11 LIG 0.18  C 
BRANCH 39 40
ATOM     40  C   LEU X 130      -3.222   9.776  -8.413  1.00 29.66 LIG 0.24  C 
ATOM     41 O    LEU X 130      -2.906   8.910  -7.582  1.00 28.98 LIG-0.27  OA
ATOM     42  N   ARG X 131      -4.396   9.794  -9.037  1.00 30.67 LIG-0.34  N 
ATOM     43 H    ARG X 131      -4.657  10.426  -9.558  1.00 30.67 LIG 0.16  HD
BRANCH 42 44
ATOM     44  CA  ARG X 131      -5.348   8.715  -8.876  1.00 33.89 LIG 0.18  C 
BRANCH 44 45
ATOM     45  C   ARG X 131      -4.809   7.390  -9.419  1.00 35.66 LIG 0.20  C 
ATOM     46 OXT  ARG X 131      -4.122   7.335 -10.463  1.00 35.07 LIG-0.65  OA
ATOM     47 O    ARG X 131      -5.062   6.294  -8.838  1.00 37.10 LIG-0.65  OA
ENDBRANCH 44 45
BRANCH 44 48
ATOM     48  CB  ARG X 131      -6.656   9.079  -9.586  1.00 35.20 LIG 0.04  C 
BRANCH 48 49
ATOM     49  CG  ARG X 131      -6.588   8.949 -11.119  1.00 40.01 LIG 0.02  C 
BRANCH 49 50
ATOM     50  CD  ARG X 131      -6.849  10.277 -11.879  1.00 47.84 LIG 0.14  C 
BRANCH 50 51
ATOM     51  NE  ARG X 131      -7.024  10.031 -13.310  1.00 52.72 LIG-0.23  N 
ATOM     52  CZ  ARG X 131      -7.079  10.975 -14.253  1.00 57.07 LIG 0.67  C 
ATOM     53  NH1 ARG X 131      -6.944  12.274 -13.939  1.00 58.64 LIG-0.23  N 
ATOM     54  NH2 ARG X 131      -7.259  10.615 -15.526  1.00 59.02 LIG-0.23  N 
ATOM     55 2HH1 ARG X 131      -6.981  12.872 -14.555  1.00 58.64 LIG 0.17  HD
ATOM     56 1HH1 ARG X 131      -6.820  12.508 -13.120  1.00 58.64 LIG 0.17  HD
ATOM     57 2HH2 ARG X 131      -7.297  11.215 -16.142  1.00 59.02 LIG 0.17  HD
ATOM     58 1HH2 ARG X 131      -7.338   9.783 -15.730  1.00 59.02 LIG 0.17  HD
ATOM     59 HE   ARG X 131      -7.096   9.213 -13.565  1.00 52.72 LIG 0.18  HD
ENDBRANCH 50 51
ENDBRANCH 49 50
ENDBRANCH 48 49
ENDBRANCH 44 48
ENDBRANCH 42 44
ENDBRANCH 39 40
BRANCH 39 60
ATOM     60  CB  LEU X 130      -2.128  10.848 -10.321  1.00 27.29 LIG 0.04  C 
BRANCH 60 61
ATOM     61  CG  LEU X 130      -1.554   9.653 -11.064  1.00 26.34 LIG-0.02  C 
ATOM     62  CD1 LEU X 130      -2.126   9.506 -12.512  1.00 29.54 LIG 0.01  C 
ATOM     63  CD2 LEU X 130      -0.069   9.805 -11.115  1.00 21.56 LIG 0.01  C 
ENDBRANCH 60 61
ENDBRANCH 39 60
ENDBRANCH 36 39
ENDBRANCH 1 35
BRANCH 1 64
ATOM     64  CB  ARG X 129       1.042  12.329  -5.856  1.00 24.17 LIG 0.04  C 
BRANCH 64 65
ATOM     65  CG  ARG X 129       2.093  12.222  -4.842  1.00 28.32 LIG 0.02  C 
BRANCH 65 66
ATOM     66  CD  ARG X 129       3.386  12.933  -5.196  1.00 31.43 LIG 0.14  C 
BRANCH 66 67
ATOM     67  NE  ARG X 129       4.215  13.363  -4.061  1.00 29.42 LIG-0.23  N 
ATOM     68  CZ  ARG X 129       5.505  13.085  -3.904  1.00 30.66 LIG 0.67  C 
ATOM     69  NH1 ARG X 129       6.145  12.281  -4.750  1.00 33.32 LIG-0.23  N 
ATOM     70  NH2 ARG X 129       6.162  13.590  -2.853  1.00 29.67 LIG-0.23  N 
ATOM     71 2HH1 ARG X 129       6.980  12.111  -4.634  1.00 33.32 LIG 0.17  HD
ATOM     72 1HH1 ARG X 129       5.723  11.931  -5.412  1.00 33.32 LIG 0.17  HD
ATOM     73 2HH2 ARG X 129       6.997  13.415  -2.744  1.00 29.67 LIG 0.17  HD
ATOM     74 1HH2 ARG X 129       5.750  14.090  -2.288  1.00 29.67 LIG 0.17  HD
ATOM     75 HE   ARG X 129       3.835  13.832  -3.448  1.00 29.42 LIG 0.18  HD
ENDBRANCH 66 67
ENDBRANCH 65 66
ENDBRANCH 64 65
ENDBRANCH 1 64
TORSDOF 27
ENDMDL
MODEL 12
USER: ADFR SOLUTION from run 107
USER: SCORE 29.879446 LL:  -4.617 LR: -25.640 RR:   0.000 FEB: -17.586
USER: RMSD 2.165699
USER: SEED 106
USER: STATUS no improvement in best in 6 clusters for 5 generations
USER: GENES 29
USER: genes 0 Translation |==|  0.46229 0.38873 0.51017
USER: genes 1 Rotation |==|  0.43681 0.53008 0.53249 0.99401
USER: genes 2 Torsion [C]-CA--N-[C] |==|  0.71522
USER: genes 3 Torsion [N]-C--CA-[N] |==|  0.31784
USER: genes 4 Torsion [C]-CA--CB-[CG] |==|  0.60987
USER: genes 5 Torsion [CA]-CB--CG-[CD] |==|  0.38873
USER: genes 6 Torsion [CB]-CG--CD-[NE] |==|  0.54733
USER: genes 7 Torsion [CG]-CD--NE-[HE] |==|  0.58090
USER: genes 8 Torsion [C]-CA--N-[C] |==|  0.71283
USER: genes 9 Torsion [N]-C--CA-[N] |==|  0.43883
USER: genes 10 Torsion [C]-CA--N-[C] |==|  0.78673
USER: genes 11 Torsion [N]-C--CA-[N] |==|  0.11606
USER: genes 12 Torsion [C]-CA--CB-[CG] |==|  0.28463
USER: genes 13 Torsion [CA]-CB--CG-[CD2] |==|  0.57475
USER: genes 14 Torsion [N]-CA--C-[N] |==|  0.35938
USER: genes 15 Torsion [C]-N--CA-[C] |==|  0.85000
USER: genes 16 Torsion [N]-CA--C-[N] |==|  0.36463
USER: genes 17 Torsion [C]-N--CA-[C] |==|  0.68732
USER: genes 18 Torsion [N]-CA--C-[O] |==|  0.85584
USER: genes 19 Torsion [N]-CA--CB-[CG] |==|  0.58341
USER: genes 20 Torsion [CA]-CB--CG-[CD] |==|  0.90143
USER: genes 21 Torsion [CB]-CG--CD-[NE] |==|  0.34307
USER: genes 22 Torsion [CG]-CD--NE-[CZ] |==|  0.66722
USER: genes 23 Torsion [N]-CA--CB-[CG] |==|  0.99401
USER: genes 24 Torsion [CA]-CB--CG-[CD1] |==|  0.42779
USER: genes 25 Torsion [N]-CA--CB-[CG] |==|  0.56698
USER: genes 26 Torsion [CA]-CB--CG-[CD] |==|  0.67532
USER: genes 27 Torsion [CB]-CG--CD-[NE] |==|  0.28462
USER: genes 28 Torsion [CG]-CD--NE-[HE] |==|  0.96053
ROOT
ATOM      1  CA  ARG X 129       1.349  11.781  -6.947  1.00 23.09 LIG 0.18  C 
ENDROOT
BRANCH 1 2
ATOM      2  N   ARG X 129       2.455  12.383  -7.681  1.00 20.82 LIG-0.35  N 
ATOM      3  C   ARG X 128       3.121  11.793  -8.675  1.00 20.67 LIG 0.24  C 
ATOM      4 O    ARG X 128       2.899  10.625  -9.085  1.00 18.99 LIG-0.27  OA
ATOM      5 H    ARG X 129       2.645  13.176  -7.408  1.00 20.82 LIG 0.16  HD
BRANCH 3 6
ATOM      6  CA  ARG X 128       4.208  12.643  -9.330  1.00 21.45 LIG 0.18  C 
BRANCH 6 7
ATOM      7  CB  ARG X 128       4.007  12.713 -10.833  1.00 22.98 LIG 0.04  C 
BRANCH 7 8
ATOM      8  CG  ARG X 128       5.359  12.634 -11.571  1.00 26.06 LIG 0.02  C 
BRANCH 8 9
ATOM      9  CD  ARG X 128       5.397  11.762 -12.898  1.00 28.46 LIG 0.14  C 
BRANCH 9 10
ATOM     10  NE  ARG X 128       6.632  11.289 -13.509  1.00 34.87 LIG-0.23  N 
ATOM     11 HE   ARG X 128       6.626  11.177 -14.362  1.00 34.87 LIG 0.18  HD
ATOM     12  CZ  ARG X 128       7.776  11.011 -12.870  1.00 35.06 LIG 0.67  C 
ATOM     13  NH1 ARG X 128       7.887  11.086 -11.557  1.00 38.28 LIG-0.23  N 
ATOM     14  NH2 ARG X 128       8.807  10.617 -13.561  1.00 41.06 LIG-0.23  N 
ATOM     15 1HH1 ARG X 128       7.211  11.320 -11.080  1.00 38.28 LIG 0.17  HD
ATOM     16 2HH1 ARG X 128       8.637  10.901 -11.177  1.00 38.28 LIG 0.17  HD
ATOM     17 1HH2 ARG X 128       8.748  10.538 -14.416  1.00 41.06 LIG 0.17  HD
ATOM     18 2HH2 ARG X 128       9.548  10.435 -13.164  1.00 41.06 LIG 0.17  HD
ENDBRANCH 9 10
ENDBRANCH 8 9
ENDBRANCH 7 8
ENDBRANCH 6 7
BRANCH 6 19
ATOM     19  N   ARG X 128       5.512  12.086  -9.094  1.00 22.62 LIG-0.35  N 
ATOM     20 H    ARG X 128       5.695  11.400  -9.581  1.00 22.62 LIG 0.16  HD
ATOM     21  C   ALA X 127       6.348  12.598  -8.200  1.00 23.78 LIG 0.24  C 
ATOM     22 O    ALA X 127       6.102  13.615  -7.557  1.00 22.39 LIG-0.27  OA
BRANCH 21 23
ATOM     23  CA  ALA X 127       7.727  11.924  -8.103  1.00 25.08 LIG 0.17  C 
ATOM     24  CB  ALA X 127       7.676  10.616  -7.325  1.00 24.37 LIG 0.04  C 
BRANCH 23 25
ATOM     25  N   ALA X 127       8.644  12.889  -7.510  1.00 27.78 LIG-0.35  N 
ATOM     26  C   LEU X 126       9.077  13.857  -8.317  1.00 33.19 LIG 0.26  C 
ATOM     27 O    LEU X 126       8.664  14.002  -9.510  1.00 34.96 LIG-0.27  OA
ATOM     28 H    ALA X 127       8.849  12.778  -6.682  1.00 27.78 LIG 0.16  HD
BRANCH 26 29
ATOM     29  CA  LEU X 126      10.109  14.793  -7.760  1.00 34.21 LIG 0.40  C 
ATOM     30  N   LEU X 126      11.131  14.071  -6.974  1.00 36.42 LIG 0.61  N 
BRANCH 29 31
ATOM     31  CB  LEU X 126      10.748  15.546  -8.946  1.00 35.53 LIG 0.06  C 
BRANCH 31 32
ATOM     32  CG  LEU X 126      10.261  16.986  -9.155  1.00 35.00 LIG-0.02  C 
ATOM     33  CD2 LEU X 126      10.412  17.372 -10.649  1.00 38.18 LIG 0.01  C 
ATOM     34  CD1 LEU X 126      11.021  17.949  -8.301  1.00 36.44 LIG 0.01  C 
ENDBRANCH 31 32
ENDBRANCH 29 31
ENDBRANCH 26 29
ENDBRANCH 23 25
ENDBRANCH 21 23
ENDBRANCH 6 19
ENDBRANCH 3 6
ENDBRANCH 1 2
BRANCH 1 35
ATOM     35  C   ARG X 129      -0.029  12.331  -7.403  1.00 22.72 LIG 0.24  C 
ATOM     36  N   LEU X 130      -1.029  11.495  -7.730  1.00 24.32 LIG-0.35  N 
ATOM     37 H    LEU X 130      -0.952  10.643  -7.812  1.00 24.32 LIG 0.16  HD
ATOM     38 O    ARG X 129      -0.183  13.552  -7.439  1.00 21.19 LIG-0.27  OA
BRANCH 36 39
ATOM     39  CA  LEU X 130      -2.388  12.037  -7.980  1.00 26.11 LIG 0.18  C 
BRANCH 39 40
ATOM     40  C   LEU X 130      -2.877  12.876  -6.823  1.00 29.66 LIG 0.24  C 
ATOM     41 O    LEU X 130      -2.830  12.421  -5.669  1.00 28.98 LIG-0.27  OA
ATOM     42  N   ARG X 131      -3.384  14.070  -7.116  1.00 30.67 LIG-0.34  N 
ATOM     43 H    ARG X 131      -3.356  14.427  -7.897  1.00 30.67 LIG 0.16  HD
BRANCH 42 44
ATOM     44  CA  ARG X 131      -4.036  14.875  -6.106  1.00 33.89 LIG 0.18  C 
BRANCH 44 45
ATOM     45  C   ARG X 131      -5.536  15.022  -6.372  1.00 35.66 LIG 0.20  C 
ATOM     46 OXT  ARG X 131      -6.392  14.745  -5.503  1.00 35.07 LIG-0.65  OA
ATOM     47 O    ARG X 131      -5.965  15.411  -7.498  1.00 37.10 LIG-0.65  OA
ENDBRANCH 44 45
BRANCH 44 48
ATOM     48  CB  ARG X 131      -3.376  16.257  -6.051  1.00 35.20 LIG 0.04  C 
BRANCH 48 49
ATOM     49  CG  ARG X 131      -3.421  16.912  -4.658  1.00 40.01 LIG 0.02  C 
BRANCH 49 50
ATOM     50  CD  ARG X 131      -4.718  16.613  -3.860  1.00 47.84 LIG 0.14  C 
BRANCH 50 51
ATOM     51  NE  ARG X 131      -4.403  16.004  -2.566  1.00 52.72 LIG-0.23  N 
ATOM     52  CZ  ARG X 131      -4.811  14.798  -2.164  1.00 57.07 LIG 0.67  C 
ATOM     53  NH1 ARG X 131      -5.548  14.014  -2.967  1.00 58.64 LIG-0.23  N 
ATOM     54  NH2 ARG X 131      -4.466  14.367  -0.947  1.00 59.02 LIG-0.23  N 
ATOM     55 2HH1 ARG X 131      -5.804  13.239  -2.695  1.00 58.64 LIG 0.17  HD
ATOM     56 1HH1 ARG X 131      -5.765  14.286  -3.753  1.00 58.64 LIG 0.17  HD
ATOM     57 2HH2 ARG X 131      -4.724  13.592  -0.677  1.00 59.02 LIG 0.17  HD
ATOM     58 1HH2 ARG X 131      -3.988  14.865  -0.434  1.00 59.02 LIG 0.17  HD
ATOM     59 HE   ARG X 131      -3.917  16.460  -2.023  1.00 52.72 LIG 0.18  HD
ENDBRANCH 50 51
ENDBRANCH 49 50
ENDBRANCH 48 49
ENDBRANCH 44 48
ENDBRANCH 42 44
ENDBRANCH 39 40
BRANCH 39 60
ATOM     60  CB  LEU X 130      -3.436  10.948  -8.223  1.00 27.29 LIG 0.04  C 
BRANCH 60 61
ATOM     61  CG  LEU X 130      -3.044   9.480  -8.244  1.00 26.34 LIG-0.02  C 
ATOM     62  CD1 LEU X 130      -4.225   8.530  -7.859  1.00 29.54 LIG 0.01  C 
ATOM     63  CD2 LEU X 130      -2.550   9.150  -9.615  1.00 21.56 LIG 0.01  C 
ENDBRANCH 60 61
ENDBRANCH 39 60
ENDBRANCH 36 39
ENDBRANCH 1 35
BRANCH 1 64
ATOM     64  CB  ARG X 129       1.631  12.232  -5.496  1.00 24.17 LIG 0.04  C 
BRANCH 64 65
ATOM     65  CG  ARG X 129       1.080  11.421  -4.409  1.00 28.32 LIG 0.02  C 
BRANCH 65 66
ATOM     66  CD  ARG X 129       0.070  12.140  -3.535  1.00 31.43 LIG 0.14  C 
BRANCH 66 67
ATOM     67  NE  ARG X 129      -1.342  11.816  -3.782  1.00 29.42 LIG-0.23  N 
ATOM     68  CZ  ARG X 129      -2.352  12.117  -2.973  1.00 30.66 LIG 0.67  C 
ATOM     69  NH1 ARG X 129      -2.139  12.672  -1.782  1.00 33.32 LIG-0.23  N 
ATOM     70  NH2 ARG X 129      -3.603  11.820  -3.345  1.00 29.67 LIG-0.23  N 
ATOM     71 2HH1 ARG X 129      -2.804  12.860  -1.270  1.00 33.32 LIG 0.17  HD
ATOM     72 1HH1 ARG X 129      -1.337  12.842  -1.524  1.00 33.32 LIG 0.17  HD
ATOM     73 2HH2 ARG X 129      -4.262  12.011  -2.827  1.00 29.67 LIG 0.17  HD
ATOM     74 1HH2 ARG X 129      -3.747  11.438  -4.102  1.00 29.67 LIG 0.17  HD
ATOM     75 HE   ARG X 129      -1.531  11.398  -4.510  1.00 29.42 LIG 0.18  HD
ENDBRANCH 66 67
ENDBRANCH 65 66
ENDBRANCH 64 65
ENDBRANCH 1 64
TORSDOF 27
ENDMDL
MODEL 13
USER: ADFR SOLUTION from run 200
USER: SCORE 29.644167 LL:  -4.454 LR: -25.581 RR:   0.000 FEB: -17.527
USER: RMSD 1.837602
USER: SEED 199
USER: STATUS no improvement in best in 10 clusters for 5 generations
USER: GENES 29
USER: genes 0 Translation |==|  0.44242 0.38288 0.46885
USER: genes 1 Rotation |==|  0.57629 0.49094 0.49997 0.99406
USER: genes 2 Torsion [C]-CA--N-[C] |==|  0.61492
USER: genes 3 Torsion [N]-C--CA-[N] |==|  0.38891
USER: genes 4 Torsion [C]-CA--CB-[CG] |==|  0.63709
USER: genes 5 Torsion [CA]-CB--CG-[CD] |==|  0.27445
USER: genes 6 Torsion [CB]-CG--CD-[NE] |==|  0.55197
USER: genes 7 Torsion [CG]-CD--NE-[HE] |==|  0.08384
USER: genes 8 Torsion [C]-CA--N-[C] |==|  0.63670
USER: genes 9 Torsion [N]-C--CA-[N] |==|  0.44440
USER: genes 10 Torsion [C]-CA--N-[C] |==|  0.77736
USER: genes 11 Torsion [N]-C--CA-[N] |==|  0.32281
USER: genes 12 Torsion [C]-CA--CB-[CG] |==|  0.67857
USER: genes 13 Torsion [CA]-CB--CG-[CD2] |==|  0.56157
USER: genes 14 Torsion [N]-CA--C-[N] |==|  0.42550
USER: genes 15 Torsion [C]-N--CA-[C] |==|  0.78658
USER: genes 16 Torsion [N]-CA--C-[N] |==|  0.39307
USER: genes 17 Torsion [C]-N--CA-[C] |==|  0.64764
USER: genes 18 Torsion [N]-CA--C-[O] |==|  0.42187
USER: genes 19 Torsion [N]-CA--CB-[CG] |==|  0.43765
USER: genes 20 Torsion [CA]-CB--CG-[CD] |==|  0.42078
USER: genes 21 Torsion [CB]-CG--CD-[NE] |==|  0.34563
USER: genes 22 Torsion [CG]-CD--NE-[CZ] |==|  0.46668
USER: genes 23 Torsion [N]-CA--CB-[CG] |==|  0.64307
USER: genes 24 Torsion [CA]-CB--CG-[CD1] |==|  0.78584
USER: genes 25 Torsion [N]-CA--CB-[CG] |==|  0.25400
USER: genes 26 Torsion [CA]-CB--CG-[CD] |==|  0.31547
USER: genes 27 Torsion [CB]-CG--CD-[NE] |==|  0.43623
USER: genes 28 Torsion [CG]-CD--NE-[HE] |==|  0.91944
ROOT
ATOM      1  CA  ARG X 129       0.798  11.684  -7.877  1.00 23.09 LIG 0.18  C 
ENDROOT
BRANCH 1 2
ATOM      2  N   ARG X 129       2.066  12.377  -8.069  1.00 20.82 LIG-0.35  N 
ATOM      3  C   ARG X 128       3.121  11.872  -8.708  1.00 20.67 LIG 0.24  C 
ATOM      4 O    ARG X 128       3.169  10.716  -9.201  1.00 18.99 LIG-0.27  OA
ATOM      5 H    ARG X 129       2.072  13.165  -7.723  1.00 20.82 LIG 0.16  HD
BRANCH 3 6
ATOM      6  CA  ARG X 128       4.322  12.809  -8.830  1.00 21.45 LIG 0.18  C 
BRANCH 6 7
ATOM      7  CB  ARG X 128       4.378  13.438 -10.211  1.00 22.98 LIG 0.04  C 
BRANCH 7 8
ATOM      8  CG  ARG X 128       5.789  13.300 -10.818  1.00 26.06 LIG 0.02  C 
BRANCH 8 9
ATOM      9  CD  ARG X 128       6.007  12.114 -11.852  1.00 28.46 LIG 0.14  C 
BRANCH 9 10
ATOM     10  NE  ARG X 128       7.320  11.597 -12.211  1.00 34.87 LIG-0.23  N 
ATOM     11 HE   ARG X 128       7.934  11.641 -11.610  1.00 34.87 LIG 0.18  HD
ATOM     12  CZ  ARG X 128       7.665  11.058 -13.388  1.00 35.06 LIG 0.67  C 
ATOM     13  NH1 ARG X 128       6.828  10.992 -14.407  1.00 38.28 LIG-0.23  N 
ATOM     14  NH2 ARG X 128       8.880  10.617 -13.551  1.00 41.06 LIG-0.23  N 
ATOM     15 1HH1 ARG X 128       6.029  11.301 -14.328  1.00 38.28 LIG 0.17  HD
ATOM     16 2HH1 ARG X 128       7.081  10.640 -15.150  1.00 38.28 LIG 0.17  HD
ATOM     17 1HH2 ARG X 128       9.448  10.674 -12.908  1.00 41.06 LIG 0.17  HD
ATOM     18 2HH2 ARG X 128       9.114  10.269 -14.302  1.00 41.06 LIG 0.17  HD
ENDBRANCH 9 10
ENDBRANCH 8 9
ENDBRANCH 7 8
ENDBRANCH 6 7
BRANCH 6 19
ATOM     19  N   ARG X 128       5.555  12.096  -8.630  1.00 22.62 LIG-0.35  N 
ATOM     20 H    ARG X 128       5.623  11.374  -9.092  1.00 22.62 LIG 0.16  HD
ATOM     21  C   ALA X 127       6.495  12.530  -7.800  1.00 23.78 LIG 0.24  C 
ATOM     22 O    ALA X 127       6.415  13.596  -7.194  1.00 22.39 LIG-0.27  OA
BRANCH 21 23
ATOM     23  CA  ALA X 127       7.779  11.687  -7.737  1.00 25.08 LIG 0.17  C 
ATOM     24  CB  ALA X 127       7.589  10.405  -6.938  1.00 24.37 LIG 0.04  C 
BRANCH 23 25
ATOM     25  N   ALA X 127       8.831  12.534  -7.186  1.00 27.78 LIG-0.35  N 
ATOM     26  C   LEU X 126       9.405  13.382  -8.039  1.00 33.19 LIG 0.26  C 
ATOM     27 O    LEU X 126       9.018  13.524  -9.241  1.00 34.96 LIG-0.27  OA
ATOM     28 H    ALA X 127       9.016  12.437  -6.352  1.00 27.78 LIG 0.16  HD
BRANCH 26 29
ATOM     29  CA  LEU X 126      10.566  14.181  -7.523  1.00 34.21 LIG 0.40  C 
ATOM     30  N   LEU X 126      11.814  13.851  -8.239  1.00 36.42 LIG 0.61  N 
BRANCH 29 31
ATOM     31  CB  LEU X 126      10.212  15.675  -7.677  1.00 35.53 LIG 0.06  C 
BRANCH 31 32
ATOM     32  CG  LEU X 126      11.097  16.468  -8.647  1.00 35.00 LIG-0.02  C 
ATOM     33  CD2 LEU X 126      11.021  17.977  -8.301  1.00 38.18 LIG 0.01  C 
ATOM     34  CD1 LEU X 126      10.684  16.249 -10.067  1.00 36.44 LIG 0.01  C 
ENDBRANCH 31 32
ENDBRANCH 29 31
ENDBRANCH 26 29
ENDBRANCH 23 25
ENDBRANCH 21 23
ENDBRANCH 6 19
ENDBRANCH 3 6
ENDBRANCH 1 2
BRANCH 1 35
ATOM     35  C   ARG X 129      -0.423  12.620  -8.085  1.00 22.72 LIG 0.24  C 
ATOM     36  N   LEU X 130      -1.609  12.126  -8.480  1.00 24.32 LIG-0.35  N 
ATOM     37 H    LEU X 130      -1.744  11.317  -8.737  1.00 24.32 LIG 0.16  HD
ATOM     38 O    ARG X 129      -0.277  13.823  -7.863  1.00 21.19 LIG-0.27  OA
BRANCH 36 39
ATOM     39  CA  LEU X 130      -2.804  13.005  -8.492  1.00 26.11 LIG 0.18  C 
BRANCH 39 40
ATOM     40  C   LEU X 130      -3.355  13.219  -7.101  1.00 29.66 LIG 0.24  C 
ATOM     41 O    LEU X 130      -3.402  12.269  -6.304  1.00 28.98 LIG-0.27  OA
ATOM     42  N   ARG X 131      -3.810  14.435  -6.814  1.00 30.67 LIG-0.34  N 
ATOM     43 H    ARG X 131      -3.718  15.119  -7.326  1.00 30.67 LIG 0.16  HD
BRANCH 42 44
ATOM     44  CA  ARG X 131      -4.514  14.698  -5.577  1.00 33.89 LIG 0.18  C 
BRANCH 44 45
ATOM     45  C   ARG X 131      -5.867  15.369  -5.820  1.00 35.66 LIG 0.20  C 
ATOM     46 OXT  ARG X 131      -6.070  16.110  -6.808  1.00 35.07 LIG-0.65  OA
ATOM     47 O    ARG X 131      -6.828  15.215  -5.010  1.00 37.10 LIG-0.65  OA
ENDBRANCH 44 45
BRANCH 44 48
ATOM     48  CB  ARG X 131      -3.645  15.581  -4.675  1.00 35.20 LIG 0.04  C 
BRANCH 48 49
ATOM     49  CG  ARG X 131      -4.445  16.366  -3.618  1.00 40.01 LIG 0.02  C 
BRANCH 49 50
ATOM     50  CD  ARG X 131      -3.647  16.680  -2.324  1.00 47.84 LIG 0.14  C 
BRANCH 50 51
ATOM     51  NE  ARG X 131      -3.643  18.117  -2.051  1.00 52.72 LIG-0.23  N 
ATOM     52  CZ  ARG X 131      -3.244  18.683  -0.909  1.00 57.07 LIG 0.67  C 
ATOM     53  NH1 ARG X 131      -2.772  17.937   0.103  1.00 58.64 LIG-0.23  N 
ATOM     54  NH2 ARG X 131      -3.309  20.011  -0.783  1.00 59.02 LIG-0.23  N 
ATOM     55 2HH1 ARG X 131      -2.518  18.314   0.833  1.00 58.64 LIG 0.17  HD
ATOM     56 1HH1 ARG X 131      -2.722  17.083   0.022  1.00 58.64 LIG 0.17  HD
ATOM     57 2HH2 ARG X 131      -3.055  20.386  -0.052  1.00 59.02 LIG 0.17  HD
ATOM     58 1HH2 ARG X 131      -3.604  20.491  -1.433  1.00 59.02 LIG 0.17  HD
ATOM     59 HE   ARG X 131      -3.920  18.639  -2.676  1.00 52.72 LIG 0.18  HD
ENDBRANCH 50 51
ENDBRANCH 49 50
ENDBRANCH 48 49
ENDBRANCH 44 48
ENDBRANCH 42 44
ENDBRANCH 39 40
BRANCH 39 60
ATOM     60  CB  LEU X 130      -3.947  12.458  -9.350  1.00 27.29 LIG 0.04  C 
BRANCH 60 61
ATOM     61  CG  LEU X 130      -4.609  13.324 -10.410  1.00 26.34 LIG-0.02  C 
ATOM     62  CD1 LEU X 130      -5.607  14.366  -9.808  1.00 29.54 LIG 0.01  C 
ATOM     63  CD2 LEU X 130      -3.534  14.028 -11.173  1.00 21.56 LIG 0.01  C 
ENDBRANCH 60 61
ENDBRANCH 39 60
ENDBRANCH 36 39
ENDBRANCH 1 35
BRANCH 1 64
ATOM     64  CB  ARG X 129       0.875  11.259  -6.394  1.00 24.17 LIG 0.04  C 
BRANCH 64 65
ATOM     65  CG  ARG X 129       0.322  12.171  -5.391  1.00 28.32 LIG 0.02  C 
BRANCH 65 66
ATOM     66  CD  ARG X 129      -0.901  11.645  -4.663  1.00 31.43 LIG 0.14  C 
BRANCH 66 67
ATOM     67  NE  ARG X 129      -1.172  12.238  -3.346  1.00 29.42 LIG-0.23  N 
ATOM     68  CZ  ARG X 129      -2.374  12.366  -2.795  1.00 30.66 LIG 0.67  C 
ATOM     69  NH1 ARG X 129      -3.477  12.041  -3.464  1.00 33.32 LIG-0.23  N 
ATOM     70  NH2 ARG X 129      -2.479  12.869  -1.559  1.00 29.67 LIG-0.23  N 
ATOM     71 2HH1 ARG X 129      -4.248  12.130  -3.092  1.00 33.32 LIG 0.17  HD
ATOM     72 1HH1 ARG X 129      -3.420  11.742  -4.268  1.00 33.32 LIG 0.17  HD
ATOM     73 2HH2 ARG X 129      -3.253  12.955  -1.195  1.00 29.67 LIG 0.17  HD
ATOM     74 1HH2 ARG X 129      -1.773  13.105  -1.129  1.00 29.67 LIG 0.17  HD
ATOM     75 HE   ARG X 129      -0.498  12.526  -2.896  1.00 29.42 LIG 0.18  HD
ENDBRANCH 66 67
ENDBRANCH 65 66
ENDBRANCH 64 65
ENDBRANCH 1 64
TORSDOF 27
ENDMDL
MODEL 14
USER: ADFR SOLUTION from run 160
USER: SCORE 28.803793 LL:  -4.009 LR: -25.515 RR:   0.000 FEB: -17.461
USER: RMSD 2.701667
USER: SEED 159
USER: STATUS no improvement in best in 11 clusters for 5 generations
USER: GENES 29
USER: genes 0 Translation |==|  0.46270 0.38871 0.49039
USER: genes 1 Rotation |==|  0.46031 0.47340 0.50229 0.99771
USER: genes 2 Torsion [C]-CA--N-[C] |==|  0.73943
USER: genes 3 Torsion [N]-C--CA-[N] |==|  0.31397
USER: genes 4 Torsion [C]-CA--CB-[CG] |==|  0.55436
USER: genes 5 Torsion [CA]-CB--CG-[CD] |==|  0.41516
USER: genes 6 Torsion [CB]-CG--CD-[NE] |==|  0.64503
USER: genes 7 Torsion [CG]-CD--NE-[HE] |==|  0.91208
USER: genes 8 Torsion [C]-CA--N-[C] |==|  0.66919
USER: genes 9 Torsion [N]-C--CA-[N] |==|  0.42447
USER: genes 10 Torsion [C]-CA--N-[C] |==|  0.65469
USER: genes 11 Torsion [N]-C--CA-[N] |==|  0.86415
USER: genes 12 Torsion [C]-CA--CB-[CG] |==|  0.08491
USER: genes 13 Torsion [CA]-CB--CG-[CD2] |==|  0.67179
USER: genes 14 Torsion [N]-CA--C-[N] |==|  0.28333
USER: genes 15 Torsion [C]-N--CA-[C] |==|  0.82540
USER: genes 16 Torsion [N]-CA--C-[N] |==|  0.40730
USER: genes 17 Torsion [C]-N--CA-[C] |==|  0.60873
USER: genes 18 Torsion [N]-CA--C-[O] |==|  0.42154
USER: genes 19 Torsion [N]-CA--CB-[CG] |==|  0.94741
USER: genes 20 Torsion [CA]-CB--CG-[CD] |==|  0.72098
USER: genes 21 Torsion [CB]-CG--CD-[NE] |==|  0.05725
USER: genes 22 Torsion [CG]-CD--NE-[CZ] |==|  0.73555
USER: genes 23 Torsion [N]-CA--CB-[CG] |==|  0.55708
USER: genes 24 Torsion [CA]-CB--CG-[CD1] |==|  0.08703
USER: genes 25 Torsion [N]-CA--CB-[CG] |==|  0.51003
USER: genes 26 Torsion [CA]-CB--CG-[CD] |==|  0.55313
USER: genes 27 Torsion [CB]-CG--CD-[NE] |==|  0.54535
USER: genes 28 Torsion [CG]-CD--NE-[HE] |==|  0.91773
ROOT
ATOM      1  CA  ARG X 129       1.361  11.781  -7.392  1.00 23.09 LIG 0.18  C 
ENDROOT
BRANCH 1 2
ATOM      2  N   ARG X 129       2.656  12.322  -7.784  1.00 20.82 LIG-0.35  N 
ATOM      3  C   ARG X 128       3.412  11.849  -8.775  1.00 20.67 LIG 0.24  C 
ATOM      4 O    ARG X 128       3.116  10.852  -9.481  1.00 18.99 LIG-0.27  OA
ATOM      5 H    ARG X 129       2.896  12.994  -7.303  1.00 20.82 LIG 0.16  HD
BRANCH 3 6
ATOM      6  CA  ARG X 128       4.706  12.618  -9.035  1.00 21.45 LIG 0.18  C 
BRANCH 6 7
ATOM      7  CB  ARG X 128       4.820  13.008 -10.498  1.00 22.98 LIG 0.04  C 
BRANCH 7 8
ATOM      8  CG  ARG X 128       6.282  13.332 -10.866  1.00 26.06 LIG 0.02  C 
BRANCH 8 9
ATOM      9  CD  ARG X 128       6.724  13.029 -12.362  1.00 28.46 LIG 0.14  C 
BRANCH 9 10
ATOM     10  NE  ARG X 128       7.895  12.235 -12.705  1.00 34.87 LIG-0.23  N 
ATOM     11 HE   ARG X 128       8.561  12.269 -12.162  1.00 34.87 LIG 0.18  HD
ATOM     12  CZ  ARG X 128       8.034  11.453 -13.784  1.00 35.06 LIG 0.67  C 
ATOM     13  NH1 ARG X 128       7.104  11.367 -14.718  1.00 38.28 LIG-0.23  N 
ATOM     14  NH2 ARG X 128       9.139  10.782 -13.942  1.00 41.06 LIG-0.23  N 
ATOM     15 1HH1 ARG X 128       6.378  11.822 -14.645  1.00 38.28 LIG 0.17  HD
ATOM     16 2HH1 ARG X 128       7.224  10.856 -15.399  1.00 38.28 LIG 0.17  HD
ATOM     17 1HH2 ARG X 128       9.767  10.844 -13.358  1.00 41.06 LIG 0.17  HD
ATOM     18 2HH2 ARG X 128       9.241  10.277 -14.631  1.00 41.06 LIG 0.17  HD
ENDBRANCH 9 10
ENDBRANCH 8 9
ENDBRANCH 7 8
ENDBRANCH 6 7
BRANCH 6 19
ATOM     19  N   ARG X 128       5.856  11.816  -8.712  1.00 22.62 LIG-0.35  N 
ATOM     20 H    ARG X 128       5.922  11.093  -9.173  1.00 22.62 LIG 0.16  HD
ATOM     21  C   ALA X 127       6.729  12.176  -7.780  1.00 23.78 LIG 0.24  C 
ATOM     22 O    ALA X 127       6.661  13.242  -7.173  1.00 22.39 LIG-0.27  OA
BRANCH 21 23
ATOM     23  CA  ALA X 127       7.935  11.242  -7.589  1.00 25.08 LIG 0.17  C 
ATOM     24  CB  ALA X 127       7.611  10.060  -6.685  1.00 24.37 LIG 0.04  C 
BRANCH 23 25
ATOM     25  N   ALA X 127       9.036  12.048  -7.077  1.00 27.78 LIG-0.35  N 
ATOM     26  C   LEU X 126      10.165  12.012  -7.784  1.00 33.19 LIG 0.26  C 
ATOM     27 O    LEU X 126      10.273  11.390  -8.887  1.00 34.96 LIG-0.27  OA
ATOM     28 H    ALA X 127       8.893  12.495  -6.356  1.00 27.78 LIG 0.16  HD
BRANCH 26 29
ATOM     29  CA  LEU X 126      11.345  12.742  -7.215  1.00 34.21 LIG 0.40  C 
ATOM     30  N   LEU X 126      10.988  14.114  -6.801  1.00 36.42 LIG 0.61  N 
BRANCH 29 31
ATOM     31  CB  LEU X 126      11.874  11.920  -6.021  1.00 35.53 LIG 0.06  C 
BRANCH 31 32
ATOM     32  CG  LEU X 126      11.675  10.402  -6.123  1.00 35.00 LIG-0.02  C 
ATOM     33  CD2 LEU X 126      10.770   9.920  -4.960  1.00 38.18 LIG 0.01  C 
ATOM     34  CD1 LEU X 126      12.982   9.676  -6.085  1.00 36.44 LIG 0.01  C 
ENDBRANCH 31 32
ENDBRANCH 29 31
ENDBRANCH 26 29
ENDBRANCH 23 25
ENDBRANCH 21 23
ENDBRANCH 6 19
ENDBRANCH 3 6
ENDBRANCH 1 2
BRANCH 1 35
ATOM     35  C   ARG X 129       0.181  12.516  -8.083  1.00 22.72 LIG 0.24  C 
ATOM     36  N   LEU X 130      -0.450  11.966  -9.135  1.00 24.32 LIG-0.35  N 
ATOM     37 H    LEU X 130      -0.194  11.256  -9.548  1.00 24.32 LIG 0.16  HD
ATOM     38 O    ARG X 129      -0.168  13.607  -7.631  1.00 21.19 LIG-0.27  OA
BRANCH 36 39
ATOM     39  CA  LEU X 130      -1.689  12.594  -9.659  1.00 26.11 LIG 0.18  C 
BRANCH 39 40
ATOM     40  C   LEU X 130      -2.797  12.588  -8.632  1.00 29.66 LIG 0.24  C 
ATOM     41 O    LEU X 130      -2.910  11.628  -7.854  1.00 28.98 LIG-0.27  OA
ATOM     42  N   ARG X 131      -3.637  13.618  -8.647  1.00 30.67 LIG-0.34  N 
ATOM     43 H    ARG X 131      -3.530  14.322  -9.128  1.00 30.67 LIG 0.16  HD
BRANCH 42 44
ATOM     44  CA  ARG X 131      -4.830  13.624  -7.826  1.00 33.89 LIG 0.18  C 
BRANCH 44 45
ATOM     45  C   ARG X 131      -6.026  14.236  -8.559  1.00 35.66 LIG 0.20  C 
ATOM     46 OXT  ARG X 131      -5.884  15.117  -9.435  1.00 35.07 LIG-0.65  OA
ATOM     47 O    ARG X 131      -7.211  13.884  -8.283  1.00 37.10 LIG-0.65  OA
ENDBRANCH 44 45
BRANCH 44 48
ATOM     48  CB  ARG X 131      -4.554  14.400  -6.534  1.00 35.20 LIG 0.04  C 
BRANCH 48 49
ATOM     49  CG  ARG X 131      -3.056  14.560  -6.213  1.00 40.01 LIG 0.02  C 
BRANCH 49 50
ATOM     50  CD  ARG X 131      -2.528  13.564  -5.146  1.00 47.84 LIG 0.14  C 
BRANCH 50 51
ATOM     51  NE  ARG X 131      -3.411  12.403  -5.036  1.00 52.72 LIG-0.23  N 
ATOM     52  CZ  ARG X 131      -4.395  12.267  -4.143  1.00 57.07 LIG 0.67  C 
ATOM     53  NH1 ARG X 131      -4.670  13.243  -3.263  1.00 58.64 LIG-0.23  N 
ATOM     54  NH2 ARG X 131      -5.119  11.144  -4.138  1.00 59.02 LIG-0.23  N 
ATOM     55 2HH1 ARG X 131      -5.307  13.142  -2.693  1.00 58.64 LIG 0.17  HD
ATOM     56 1HH1 ARG X 131      -4.210  13.970  -3.269  1.00 58.64 LIG 0.17  HD
ATOM     57 2HH2 ARG X 131      -5.755  11.045  -3.568  1.00 59.02 LIG 0.17  HD
ATOM     58 1HH2 ARG X 131      -4.949  10.521  -4.706  1.00 59.02 LIG 0.17  HD
ATOM     59 HE   ARG X 131      -3.287  11.758  -5.590  1.00 52.72 LIG 0.18  HD
ENDBRANCH 50 51
ENDBRANCH 49 50
ENDBRANCH 48 49
ENDBRANCH 44 48
ENDBRANCH 42 44
ENDBRANCH 39 40
BRANCH 39 60
ATOM     60  CB  LEU X 130      -2.232  11.903 -10.912  1.00 27.29 LIG 0.04  C 
BRANCH 60 61
ATOM     61  CG  LEU X 130      -3.179  12.629 -11.853  1.00 26.34 LIG-0.02  C 
ATOM     62  CD1 LEU X 130      -2.923  14.171 -11.904  1.00 29.54 LIG 0.01  C 
ATOM     63  CD2 LEU X 130      -3.022  12.040 -13.218  1.00 21.56 LIG 0.01  C 
ENDBRANCH 60 61
ENDBRANCH 39 60
ENDBRANCH 36 39
ENDBRANCH 1 35
BRANCH 1 64
ATOM     64  CB  ARG X 129       1.328  12.066  -5.874  1.00 24.17 LIG 0.04  C 
BRANCH 64 65
ATOM     65  CG  ARG X 129       0.179  11.576  -5.111  1.00 28.32 LIG 0.02  C 
BRANCH 65 66
ATOM     66  CD  ARG X 129      -0.025  12.256  -3.770  1.00 31.43 LIG 0.14  C 
BRANCH 66 67
ATOM     67  NE  ARG X 129      -0.912  11.563  -2.824  1.00 29.42 LIG-0.23  N 
ATOM     68  CZ  ARG X 129      -0.818  11.622  -1.500  1.00 30.66 LIG 0.67  C 
ATOM     69  NH1 ARG X 129       0.188  12.261  -0.908  1.00 33.32 LIG-0.23  N 
ATOM     70  NH2 ARG X 129      -1.729  10.992  -0.749  1.00 29.67 LIG-0.23  N 
ATOM     71 2HH1 ARG X 129       0.234  12.290  -0.050  1.00 33.32 LIG 0.17  HD
ATOM     72 1HH1 ARG X 129       0.792  12.646  -1.383  1.00 33.32 LIG 0.17  HD
ATOM     73 2HH2 ARG X 129      -1.675  11.024   0.108  1.00 29.67 LIG 0.17  HD
ATOM     74 1HH2 ARG X 129      -2.368  10.555  -1.124  1.00 29.67 LIG 0.17  HD
ATOM     75 HE   ARG X 129      -1.543  11.081  -3.154  1.00 29.42 LIG 0.18  HD
ENDBRANCH 66 67
ENDBRANCH 65 66
ENDBRANCH 64 65
ENDBRANCH 1 64
TORSDOF 27
ENDMDL
MODEL 15
USER: ADFR SOLUTION from run 43
USER: SCORE 28.914713 LL:  -4.201 LR: -25.410 RR:   0.000 FEB: -17.355
USER: RMSD 3.867505
USER: SEED 42
USER: STATUS no improvement in best in 8 clusters for 5 generations
USER: GENES 29
USER: genes 0 Translation |==|  0.44291 0.41639 0.47522
USER: genes 1 Rotation |==|  0.45612 0.49149 0.49727 0.99799
USER: genes 2 Torsion [C]-CA--N-[C] |==|  0.66196
USER: genes 3 Torsion [N]-C--CA-[N] |==|  0.36925
USER: genes 4 Torsion [C]-CA--CB-[CG] |==|  0.52917
USER: genes 5 Torsion [CA]-CB--CG-[CD] |==|  0.39918
USER: genes 6 Torsion [CB]-CG--CD-[NE] |==|  0.65358
USER: genes 7 Torsion [CG]-CD--NE-[HE] |==|  0.96270
USER: genes 8 Torsion [C]-CA--N-[C] |==|  0.68512
USER: genes 9 Torsion [N]-C--CA-[N] |==|  0.45000
USER: genes 10 Torsion [C]-CA--N-[C] |==|  0.78612
USER: genes 11 Torsion [N]-C--CA-[N] |==|  0.16007
USER: genes 12 Torsion [C]-CA--CB-[CG] |==|  0.24833
USER: genes 13 Torsion [CA]-CB--CG-[CD2] |==|  0.62868
USER: genes 14 Torsion [N]-CA--C-[N] |==|  0.25251
USER: genes 15 Torsion [C]-N--CA-[C] |==|  0.79721
USER: genes 16 Torsion [N]-CA--C-[N] |==|  0.43595
USER: genes 17 Torsion [C]-N--CA-[C] |==|  0.82448
USER: genes 18 Torsion [N]-CA--C-[O] |==|  0.39471
USER: genes 19 Torsion [N]-CA--CB-[CG] |==|  0.17333
USER: genes 20 Torsion [CA]-CB--CG-[CD] |==|  0.29567
USER: genes 21 Torsion [CB]-CG--CD-[NE] |==|  0.71619
USER: genes 22 Torsion [CG]-CD--NE-[CZ] |==|  0.68724
USER: genes 23 Torsion [N]-CA--CB-[CG] |==|  0.69869
USER: genes 24 Torsion [CA]-CB--CG-[CD1] |==|  0.55853
USER: genes 25 Torsion [N]-CA--CB-[CG] |==|  0.59545
USER: genes 26 Torsion [CA]-CB--CG-[CD] |==|  0.64393
USER: genes 27 Torsion [CB]-CG--CD-[NE] |==|  0.31957
USER: genes 28 Torsion [CG]-CD--NE-[HE] |==|  0.96626
ROOT
ATOM      1  CA  ARG X 129       0.812  12.237  -7.734  1.00 23.09 LIG 0.18  C 
ENDROOT
BRANCH 1 2
ATOM      2  N   ARG X 129       2.090  12.738  -8.224  1.00 20.82 LIG-0.35  N 
ATOM      3  C   ARG X 128       3.007  12.001  -8.852  1.00 20.67 LIG 0.24  C 
ATOM      4 O    ARG X 128       2.899  10.768  -9.073  1.00 18.99 LIG-0.27  OA
ATOM      5 H    ARG X 129       2.202  13.576  -8.068  1.00 20.82 LIG 0.16  HD
BRANCH 3 6
ATOM      6  CA  ARG X 128       4.246  12.760  -9.322  1.00 21.45 LIG 0.18  C 
BRANCH 6 7
ATOM      7  CB  ARG X 128       4.243  12.918 -10.832  1.00 22.98 LIG 0.04  C 
BRANCH 7 8
ATOM      8  CG  ARG X 128       5.604  13.445 -11.330  1.00 26.06 LIG 0.02  C 
BRANCH 8 9
ATOM      9  CD  ARG X 128       6.123  12.879 -12.721  1.00 28.46 LIG 0.14  C 
BRANCH 9 10
ATOM     10  NE  ARG X 128       7.418  12.236 -12.890  1.00 34.87 LIG-0.23  N 
ATOM     11 HE   ARG X 128       7.983  12.325 -12.247  1.00 34.87 LIG 0.18  HD
ATOM     12  CZ  ARG X 128       7.816  11.520 -13.950  1.00 35.06 LIG 0.67  C 
ATOM     13  NH1 ARG X 128       7.060  11.367 -15.022  1.00 38.28 LIG-0.23  N 
ATOM     14  NH2 ARG X 128       9.004  10.986 -13.944  1.00 41.06 LIG-0.23  N 
ATOM     15 1HH1 ARG X 128       6.283  11.733 -15.056  1.00 38.28 LIG 0.17  HD
ATOM     16 2HH1 ARG X 128       7.345  10.901 -15.686  1.00 38.28 LIG 0.17  HD
ATOM     17 1HH2 ARG X 128       9.521  11.095 -13.265  1.00 41.06 LIG 0.17  HD
ATOM     18 2HH2 ARG X 128       9.271  10.524 -14.618  1.00 41.06 LIG 0.17  HD
ENDBRANCH 9 10
ENDBRANCH 8 9
ENDBRANCH 7 8
ENDBRANCH 6 7
BRANCH 6 19
ATOM     19  N   ARG X 128       5.449  12.056  -8.964  1.00 22.62 LIG-0.35  N 
ATOM     20 H    ARG X 128       5.552  11.306  -9.371  1.00 22.62 LIG 0.16  HD
ATOM     21  C   ALA X 127       6.313  12.539  -8.081  1.00 23.78 LIG 0.24  C 
ATOM     22 O    ALA X 127       6.188  13.642  -7.554  1.00 22.39 LIG-0.27  OA
BRANCH 21 23
ATOM     23  CA  ALA X 127       7.578  11.697  -7.846  1.00 25.08 LIG 0.17  C 
ATOM     24  CB  ALA X 127       7.292  10.444  -7.030  1.00 24.37 LIG 0.04  C 
BRANCH 23 25
ATOM     25  N   ALA X 127       8.566  12.561  -7.212  1.00 27.78 LIG-0.35  N 
ATOM     26  C   LEU X 126       9.190  13.423  -8.014  1.00 33.19 LIG 0.26  C 
ATOM     27 O    LEU X 126       8.897  13.563  -9.243  1.00 34.96 LIG-0.27  OA
ATOM     28 H    ALA X 127       8.687  12.464  -6.366  1.00 27.78 LIG 0.16  HD
BRANCH 26 29
ATOM     29  CA  LEU X 126      10.290  14.241  -7.406  1.00 34.21 LIG 0.40  C 
ATOM     30  N   LEU X 126      11.345  13.387  -6.823  1.00 36.42 LIG 0.61  N 
BRANCH 29 31
ATOM     31  CB  LEU X 126      10.861  15.155  -8.510  1.00 35.53 LIG 0.06  C 
BRANCH 31 32
ATOM     32  CG  LEU X 126      10.180  16.523  -8.655  1.00 35.00 LIG-0.02  C 
ATOM     33  CD2 LEU X 126       9.896  16.803 -10.153  1.00 38.18 LIG 0.01  C 
ATOM     34  CD1 LEU X 126      11.024  17.616  -8.083  1.00 36.44 LIG 0.01  C 
ENDBRANCH 31 32
ENDBRANCH 29 31
ENDBRANCH 26 29
ENDBRANCH 23 25
ENDBRANCH 21 23
ENDBRANCH 6 19
ENDBRANCH 3 6
ENDBRANCH 1 2
BRANCH 1 35
ATOM     35  C   ARG X 129      -0.394  12.994  -8.353  1.00 22.72 LIG 0.24  C 
ATOM     36  N   LEU X 130      -0.974  12.556  -9.483  1.00 24.32 LIG-0.35  N 
ATOM     37 H    LEU X 130      -0.670  11.923  -9.979  1.00 24.32 LIG 0.16  HD
ATOM     38 O    ARG X 129      -0.813  13.995  -7.770  1.00 21.19 LIG-0.27  OA
BRANCH 36 39
ATOM     39  CA  LEU X 130      -2.235  13.181  -9.952  1.00 26.11 LIG 0.18  C 
BRANCH 39 40
ATOM     40  C   LEU X 130      -3.413  12.775  -9.097  1.00 29.66 LIG 0.24  C 
ATOM     41 O    LEU X 130      -3.379  11.704  -8.471  1.00 28.98 LIG-0.27  OA
ATOM     42  N   ARG X 131      -4.464  13.589  -9.095  1.00 30.67 LIG-0.34  N 
ATOM     43 H    ARG X 131      -4.475  14.366  -9.463  1.00 30.67 LIG 0.16  HD
BRANCH 42 44
ATOM     44  CA  ARG X 131      -5.704  13.209  -8.452  1.00 33.89 LIG 0.18  C 
BRANCH 44 45
ATOM     45  C   ARG X 131      -6.338  11.982  -9.109  1.00 35.66 LIG 0.20  C 
ATOM     46 OXT  ARG X 131      -6.328  11.817 -10.349  1.00 35.07 LIG-0.65  OA
ATOM     47 O    ARG X 131      -6.919  11.095  -8.416  1.00 37.10 LIG-0.65  OA
ENDBRANCH 44 45
BRANCH 44 48
ATOM     48  CB  ARG X 131      -6.681  14.389  -8.493  1.00 35.20 LIG 0.04  C 
BRANCH 48 49
ATOM     49  CG  ARG X 131      -7.075  14.820  -9.919  1.00 40.01 LIG 0.02  C 
BRANCH 49 50
ATOM     50  CD  ARG X 131      -8.517  14.418 -10.326  1.00 47.84 LIG 0.14  C 
BRANCH 50 51
ATOM     51  NE  ARG X 131      -8.504  13.244 -11.198  1.00 52.72 LIG-0.23  N 
ATOM     52  CZ  ARG X 131      -8.855  13.237 -12.486  1.00 57.07 LIG 0.67  C 
ATOM     53  NH1 ARG X 131      -9.235  14.367 -13.105  1.00 58.64 LIG-0.23  N 
ATOM     54  NH2 ARG X 131      -8.814  12.088 -13.167  1.00 59.02 LIG-0.23  N 
ATOM     55 2HH1 ARG X 131      -9.459  14.349 -13.935  1.00 58.64 LIG 0.17  HD
ATOM     56 1HH1 ARG X 131      -9.256  15.109 -12.671  1.00 58.64 LIG 0.17  HD
ATOM     57 2HH2 ARG X 131      -9.038  12.072 -13.997  1.00 59.02 LIG 0.17  HD
ATOM     58 1HH2 ARG X 131      -8.563  11.365 -12.774  1.00 59.02 LIG 0.17  HD
ATOM     59 HE   ARG X 131      -8.250  12.498 -10.853  1.00 52.72 LIG 0.18  HD
ENDBRANCH 50 51
ENDBRANCH 49 50
ENDBRANCH 48 49
ENDBRANCH 44 48
ENDBRANCH 42 44
ENDBRANCH 39 40
BRANCH 39 60
ATOM     60  CB  LEU X 130      -2.585  12.823 -11.399  1.00 27.29 LIG 0.04  C 
BRANCH 60 61
ATOM     61  CG  LEU X 130      -2.468  13.857 -12.508  1.00 26.34 LIG-0.02  C 
ATOM     62  CD1 LEU X 130      -3.331  13.502 -13.762  1.00 29.54 LIG 0.01  C 
ATOM     63  CD2 LEU X 130      -2.890  15.180 -11.956  1.00 21.56 LIG 0.01  C 
ENDBRANCH 60 61
ENDBRANCH 39 60
ENDBRANCH 36 39
ENDBRANCH 1 35
BRANCH 1 64
ATOM     64  CB  ARG X 129       0.894  12.546  -6.222  1.00 24.17 LIG 0.04  C 
BRANCH 64 65
ATOM     65  CG  ARG X 129       0.260  11.605  -5.296  1.00 28.32 LIG 0.02  C 
BRANCH 65 66
ATOM     66  CD  ARG X 129      -0.694  12.243  -4.302  1.00 31.43 LIG 0.14  C 
BRANCH 66 67
ATOM     67  NE  ARG X 129      -2.107  11.861  -4.430  1.00 29.42 LIG-0.23  N 
ATOM     68  CZ  ARG X 129      -3.055  12.117  -3.536  1.00 30.66 LIG 0.67  C 
ATOM     69  NH1 ARG X 129      -2.764  12.677  -2.364  1.00 33.32 LIG-0.23  N 
ATOM     70  NH2 ARG X 129      -4.320  11.769  -3.801  1.00 29.67 LIG-0.23  N 
ATOM     71 2HH1 ARG X 129      -3.390  12.836  -1.796  1.00 33.32 LIG 0.17  HD
ATOM     72 1HH1 ARG X 129      -1.951  12.879  -2.174  1.00 33.32 LIG 0.17  HD
ATOM     73 2HH2 ARG X 129      -4.940  11.931  -3.228  1.00 29.67 LIG 0.17  HD
ATOM     74 1HH2 ARG X 129      -4.513  11.383  -4.545  1.00 29.67 LIG 0.17  HD
ATOM     75 HE   ARG X 129      -2.340  11.437  -5.142  1.00 29.42 LIG 0.18  HD
ENDBRANCH 66 67
ENDBRANCH 65 66
ENDBRANCH 64 65
ENDBRANCH 1 64
TORSDOF 27
ENDMDL
MODEL 16
USER: ADFR SOLUTION from run 142
USER: SCORE 27.831310 LL:  -3.242 LR: -25.338 RR:   0.000 FEB: -17.284
USER: RMSD 2.988218
USER: SEED 141
USER: STATUS no improvement in best in 19 clusters for 5 generations
USER: GENES 29
USER: genes 0 Translation |==|  0.44821 0.39309 0.47309
USER: genes 1 Rotation |==|  0.55409 0.51810 0.48401 0.99648
USER: genes 2 Torsion [C]-CA--N-[C] |==|  0.60887
USER: genes 3 Torsion [N]-C--CA-[N] |==|  0.36917
USER: genes 4 Torsion [C]-CA--CB-[CG] |==|  0.99280
USER: genes 5 Torsion [CA]-CB--CG-[CD] |==|  0.46461
USER: genes 6 Torsion [CB]-CG--CD-[NE] |==|  0.60331
USER: genes 7 Torsion [CG]-CD--NE-[HE] |==|  0.90327
USER: genes 8 Torsion [C]-CA--N-[C] |==|  0.67031
USER: genes 9 Torsion [N]-C--CA-[N] |==|  0.44928
USER: genes 10 Torsion [C]-CA--N-[C] |==|  0.77419
USER: genes 11 Torsion [N]-C--CA-[N] |==|  0.17315
USER: genes 12 Torsion [C]-CA--CB-[CG] |==|  0.24088
USER: genes 13 Torsion [CA]-CB--CG-[CD2] |==|  0.62082
USER: genes 14 Torsion [N]-CA--C-[N] |==|  0.26806
USER: genes 15 Torsion [C]-N--CA-[C] |==|  0.84526
USER: genes 16 Torsion [N]-CA--C-[N] |==|  0.35000
USER: genes 17 Torsion [C]-N--CA-[C] |==|  0.66049
USER: genes 18 Torsion [N]-CA--C-[O] |==|  0.52398
USER: genes 19 Torsion [N]-CA--CB-[CG] |==|  0.78994
USER: genes 20 Torsion [CA]-CB--CG-[CD] |==|  0.55773
USER: genes 21 Torsion [CB]-CG--CD-[NE] |==|  0.46385
USER: genes 22 Torsion [CG]-CD--NE-[CZ] |==|  0.41218
USER: genes 23 Torsion [N]-CA--CB-[CG] |==|  0.82203
USER: genes 24 Torsion [CA]-CB--CG-[CD1] |==|  0.37619
USER: genes 25 Torsion [N]-CA--CB-[CG] |==|  0.09887
USER: genes 26 Torsion [CA]-CB--CG-[CD] |==|  0.38942
USER: genes 27 Torsion [CB]-CG--CD-[NE] |==|  0.42264
USER: genes 28 Torsion [CG]-CD--NE-[HE] |==|  0.20606
ROOT
ATOM      1  CA  ARG X 129       0.959  11.853  -7.781  1.00 23.09 LIG 0.18  C 
ENDROOT
BRANCH 1 2
ATOM      2  N   ARG X 129       2.223  12.459  -8.179  1.00 20.82 LIG-0.35  N 
ATOM      3  C   ARG X 128       3.190  11.833  -8.851  1.00 20.67 LIG 0.24  C 
ATOM      4 O    ARG X 128       3.147  10.626  -9.201  1.00 18.99 LIG-0.27  OA
ATOM      5 H    ARG X 129       2.291  13.280  -7.935  1.00 20.82 LIG 0.16  HD
BRANCH 3 6
ATOM      6  CA  ARG X 128       4.403  12.692  -9.204  1.00 21.45 LIG 0.18  C 
BRANCH 6 7
ATOM      7  CB  ARG X 128       4.430  13.005 -10.690  1.00 22.98 LIG 0.04  C 
BRANCH 7 8
ATOM      8  CG  ARG X 128       3.261  12.310 -11.417  1.00 26.06 LIG 0.02  C 
BRANCH 8 9
ATOM      9  CD  ARG X 128       2.965  12.782 -12.905  1.00 28.46 LIG 0.14  C 
BRANCH 9 10
ATOM     10  NE  ARG X 128       1.622  12.899 -13.455  1.00 34.87 LIG-0.23  N 
ATOM     11 HE   ARG X 128       1.041  12.323 -13.189  1.00 34.87 LIG 0.18  HD
ATOM     12  CZ  ARG X 128       1.204  13.816 -14.337  1.00 35.06 LIG 0.67  C 
ATOM     13  NH1 ARG X 128       2.018  14.712 -14.863  1.00 38.28 LIG-0.23  N 
ATOM     14  NH2 ARG X 128      -0.041  13.805 -14.720  1.00 41.06 LIG-0.23  N 
ATOM     15 1HH1 ARG X 128       2.850  14.720 -14.643  1.00 38.28 LIG 0.17  HD
ATOM     16 2HH1 ARG X 128       1.718  15.288 -15.427  1.00 38.28 LIG 0.17  HD
ATOM     17 1HH2 ARG X 128      -0.582  13.214 -14.408  1.00 41.06 LIG 0.17  HD
ATOM     18 2HH2 ARG X 128      -0.322  14.389 -15.285  1.00 41.06 LIG 0.17  HD
ENDBRANCH 9 10
ENDBRANCH 8 9
ENDBRANCH 7 8
ENDBRANCH 6 7
BRANCH 6 19
ATOM     19  N   ARG X 128       5.629  12.010  -8.884  1.00 22.62 LIG-0.35  N 
ATOM     20 H    ARG X 128       5.743  11.273  -9.311  1.00 22.62 LIG 0.16  HD
ATOM     21  C   ALA X 127       6.495  12.494  -8.003  1.00 23.78 LIG 0.24  C 
ATOM     22 O    ALA X 127       6.353  13.580  -7.448  1.00 22.39 LIG-0.27  OA
BRANCH 21 23
ATOM     23  CA  ALA X 127       7.785  11.678  -7.810  1.00 25.08 LIG 0.17  C 
ATOM     24  CB  ALA X 127       7.546  10.402  -7.014  1.00 24.37 LIG 0.04  C 
BRANCH 23 25
ATOM     25  N   ALA X 127       8.764  12.553  -7.177  1.00 27.78 LIG-0.35  N 
ATOM     26  C   LEU X 126       9.415  13.385  -7.989  1.00 33.19 LIG 0.26  C 
ATOM     27 O    LEU X 126       9.154  13.491  -9.228  1.00 34.96 LIG-0.27  OA
ATOM     28 H    ALA X 127       8.863  12.480  -6.326  1.00 27.78 LIG 0.16  HD
BRANCH 26 29
ATOM     29  CA  LEU X 126      10.507  14.213  -7.377  1.00 34.21 LIG 0.40  C 
ATOM     30  N   LEU X 126      11.594  13.369  -6.841  1.00 36.42 LIG 0.61  N 
BRANCH 29 31
ATOM     31  CB  LEU X 126      11.032  15.174  -8.465  1.00 35.53 LIG 0.06  C 
BRANCH 31 32
ATOM     32  CG  LEU X 126      10.274  16.501  -8.598  1.00 35.00 LIG-0.02  C 
ATOM     33  CD2 LEU X 126      10.050  16.820 -10.099  1.00 38.18 LIG 0.01  C 
ATOM     34  CD1 LEU X 126      11.016  17.622  -7.944  1.00 36.44 LIG 0.01  C 
ENDBRANCH 31 32
ENDBRANCH 29 31
ENDBRANCH 26 29
ENDBRANCH 23 25
ENDBRANCH 21 23
ENDBRANCH 6 19
ENDBRANCH 3 6
ENDBRANCH 1 2
BRANCH 1 35
ATOM     35  C   ARG X 129      -0.237  12.831  -7.932  1.00 22.72 LIG 0.24  C 
ATOM     36  N   LEU X 130      -1.012  12.806  -9.030  1.00 24.32 LIG-0.35  N 
ATOM     37 H    LEU X 130      -0.848  12.348  -9.739  1.00 24.32 LIG 0.16  HD
ATOM     38 O    ARG X 129      -0.464  13.617  -7.012  1.00 21.19 LIG-0.27  OA
BRANCH 36 39
ATOM     39  CA  LEU X 130      -2.254  13.616  -9.071  1.00 26.11 LIG 0.18  C 
BRANCH 39 40
ATOM     40  C   LEU X 130      -3.172  13.292  -7.915  1.00 29.66 LIG 0.24  C 
ATOM     41 O    LEU X 130      -3.546  12.123  -7.734  1.00 28.98 LIG-0.27  OA
ATOM     42  N   ARG X 131      -3.572  14.311  -7.160  1.00 30.67 LIG-0.34  N 
ATOM     43 H    ARG X 131      -3.265  15.111  -7.226  1.00 30.67 LIG 0.16  HD
BRANCH 42 44
ATOM     44  CA  ARG X 131      -4.584  14.135  -6.140  1.00 33.89 LIG 0.18  C 
BRANCH 44 45
ATOM     45  C   ARG X 131      -5.784  15.058  -6.359  1.00 35.66 LIG 0.20  C 
ATOM     46 OXT  ARG X 131      -5.902  15.755  -7.391  1.00 35.07 LIG-0.65  OA
ATOM     47 O    ARG X 131      -6.694  15.166  -5.485  1.00 37.10 LIG-0.65  OA
ENDBRANCH 44 45
BRANCH 44 48
ATOM     48  CB  ARG X 131      -3.967  14.396  -4.761  1.00 35.20 LIG 0.04  C 
BRANCH 48 49
ATOM     49  CG  ARG X 131      -3.077  13.247  -4.252  1.00 40.01 LIG 0.02  C 
BRANCH 49 50
ATOM     50  CD  ARG X 131      -2.866  13.244  -2.714  1.00 47.84 LIG 0.14  C 
BRANCH 50 51
ATOM     51  NE  ARG X 131      -2.282  11.977  -2.272  1.00 52.72 LIG-0.23  N 
ATOM     52  CZ  ARG X 131      -1.457  11.831  -1.233  1.00 57.07 LIG 0.67  C 
ATOM     53  NH1 ARG X 131      -1.111  12.882  -0.471  1.00 58.64 LIG-0.23  N 
ATOM     54  NH2 ARG X 131      -0.979  10.617  -0.945  1.00 59.02 LIG-0.23  N 
ATOM     55 2HH1 ARG X 131      -0.579  12.775   0.195  1.00 58.64 LIG 0.17  HD
ATOM     56 1HH1 ARG X 131      -1.424  13.664  -0.649  1.00 58.64 LIG 0.17  HD
ATOM     57 2HH2 ARG X 131      -0.446  10.511  -0.278  1.00 59.02 LIG 0.17  HD
ATOM     58 1HH2 ARG X 131      -1.204   9.942  -1.427  1.00 59.02 LIG 0.17  HD
ATOM     59 HE   ARG X 131      -2.487  11.270  -2.717  1.00 52.72 LIG 0.18  HD
ENDBRANCH 50 51
ENDBRANCH 49 50
ENDBRANCH 48 49
ENDBRANCH 44 48
ENDBRANCH 42 44
ENDBRANCH 39 40
BRANCH 39 60
ATOM     60  CB  LEU X 130      -3.062  13.418 -10.356  1.00 27.29 LIG 0.04  C 
BRANCH 60 61
ATOM     61  CG  LEU X 130      -2.493  13.825 -11.705  1.00 26.34 LIG-0.02  C 
ATOM     62  CD1 LEU X 130      -2.724  12.747 -12.814  1.00 29.54 LIG 0.01  C 
ATOM     63  CD2 LEU X 130      -3.129  15.116 -12.108  1.00 21.56 LIG 0.01  C 
ENDBRANCH 60 61
ENDBRANCH 39 60
ENDBRANCH 36 39
ENDBRANCH 1 35
BRANCH 1 64
ATOM     64  CB  ARG X 129       1.193  11.551  -6.284  1.00 24.17 LIG 0.04  C 
BRANCH 64 65
ATOM     65  CG  ARG X 129       1.997  12.501  -5.513  1.00 28.32 LIG 0.02  C 
BRANCH 65 66
ATOM     66  CD  ARG X 129       1.487  12.765  -4.108  1.00 31.43 LIG 0.14  C 
BRANCH 66 67
ATOM     67  NE  ARG X 129       2.501  13.153  -3.117  1.00 29.42 LIG-0.23  N 
ATOM     68  CZ  ARG X 129       2.967  12.370  -2.150  1.00 30.66 LIG 0.67  C 
ATOM     69  NH1 ARG X 129       2.459  11.158  -1.939  1.00 33.32 LIG-0.23  N 
ATOM     70  NH2 ARG X 129       3.938  12.824  -1.349  1.00 29.67 LIG-0.23  N 
ATOM     71 2HH1 ARG X 129       2.772  10.664  -1.309  1.00 33.32 LIG 0.17  HD
ATOM     72 1HH1 ARG X 129       1.817  10.869  -2.432  1.00 33.32 LIG 0.17  HD
ATOM     73 2HH2 ARG X 129       4.246  12.324  -0.721  1.00 29.67 LIG 0.17  HD
ATOM     74 1HH2 ARG X 129       4.255  13.615  -1.462  1.00 29.67 LIG 0.17  HD
ATOM     75 HE   ARG X 129       2.818  13.950  -3.167  1.00 29.42 LIG 0.18  HD
ENDBRANCH 66 67
ENDBRANCH 65 66
ENDBRANCH 64 65
ENDBRANCH 1 64
TORSDOF 27
ENDMDL
MODEL 17
USER: ADFR SOLUTION from run 97
USER: SCORE 28.438200 LL:  -3.736 LR: -25.309 RR:   0.000 FEB: -17.255
USER: RMSD 2.219347
USER: SEED 96
USER: STATUS no improvement in best in 7 clusters for 5 generations
USER: GENES 29
USER: genes 0 Translation |==|  0.44564 0.39184 0.45944
USER: genes 1 Rotation |==|  0.54867 0.50285 0.49603 0.99760
USER: genes 2 Torsion [C]-CA--N-[C] |==|  0.64095
USER: genes 3 Torsion [N]-C--CA-[N] |==|  0.35115
USER: genes 4 Torsion [C]-CA--CB-[CG] |==|  0.54954
USER: genes 5 Torsion [CA]-CB--CG-[CD] |==|  0.38822
USER: genes 6 Torsion [CB]-CG--CD-[NE] |==|  0.67637
USER: genes 7 Torsion [CG]-CD--NE-[HE] |==|  0.90407
USER: genes 8 Torsion [C]-CA--N-[C] |==|  0.66095
USER: genes 9 Torsion [N]-C--CA-[N] |==|  0.44637
USER: genes 10 Torsion [C]-CA--N-[C] |==|  0.80832
USER: genes 11 Torsion [N]-C--CA-[N] |==|  0.12124
USER: genes 12 Torsion [C]-CA--CB-[CG] |==|  0.24975
USER: genes 13 Torsion [CA]-CB--CG-[CD2] |==|  0.62279
USER: genes 14 Torsion [N]-CA--C-[N] |==|  0.32302
USER: genes 15 Torsion [C]-N--CA-[C] |==|  0.81790
USER: genes 16 Torsion [N]-CA--C-[N] |==|  0.45365
USER: genes 17 Torsion [C]-N--CA-[C] |==|  0.70768
USER: genes 18 Torsion [N]-CA--C-[O] |==|  0.80477
USER: genes 19 Torsion [N]-CA--CB-[CG] |==|  0.86007
USER: genes 20 Torsion [CA]-CB--CG-[CD] |==|  0.75012
USER: genes 21 Torsion [CB]-CG--CD-[NE] |==|  0.16121
USER: genes 22 Torsion [CG]-CD--NE-[CZ] |==|  0.53977
USER: genes 23 Torsion [N]-CA--CB-[CG] |==|  0.79695
USER: genes 24 Torsion [CA]-CB--CG-[CD1] |==|  0.50425
USER: genes 25 Torsion [N]-CA--CB-[CG] |==|  0.19511
USER: genes 26 Torsion [CA]-CB--CG-[CD] |==|  0.63843
USER: genes 27 Torsion [CB]-CG--CD-[NE] |==|  0.18005
USER: genes 28 Torsion [CG]-CD--NE-[HE] |==|  0.98673
ROOT
ATOM      1  CA  ARG X 129       0.888  11.832  -8.089  1.00 23.09 LIG 0.18  C 
ENDROOT
BRANCH 1 2
ATOM      2  N   ARG X 129       2.149  12.483  -8.418  1.00 20.82 LIG-0.35  N 
ATOM      3  C   ARG X 128       3.096  11.960  -9.199  1.00 20.67 LIG 0.24  C 
ATOM      4 O    ARG X 128       3.033  10.821  -9.726  1.00 18.99 LIG-0.27  OA
ATOM      5 H    ARG X 129       2.231  13.258  -8.053  1.00 20.82 LIG 0.16  HD
BRANCH 3 6
ATOM      6  CA  ARG X 128       4.309  12.855  -9.444  1.00 21.45 LIG 0.18  C 
BRANCH 6 7
ATOM      7  CB  ARG X 128       4.396  13.261 -10.905  1.00 22.98 LIG 0.04  C 
BRANCH 7 8
ATOM      8  CG  ARG X 128       5.810  13.770 -11.248  1.00 26.06 LIG 0.02  C 
BRANCH 8 9
ATOM      9  CD  ARG X 128       6.406  13.327 -12.653  1.00 28.46 LIG 0.14  C 
BRANCH 9 10
ATOM     10  NE  ARG X 128       7.593  12.495 -12.791  1.00 34.87 LIG-0.23  N 
ATOM     11 HE   ARG X 128       8.214  12.603 -12.206  1.00 34.87 LIG 0.18  HD
ATOM     12  CZ  ARG X 128       7.811  11.578 -13.742  1.00 35.06 LIG 0.67  C 
ATOM     13  NH1 ARG X 128       6.959  11.366 -14.728  1.00 38.28 LIG-0.23  N 
ATOM     14  NH2 ARG X 128       8.919  10.893 -13.720  1.00 41.06 LIG-0.23  N 
ATOM     15 1HH1 ARG X 128       6.233  11.826 -14.776  1.00 38.28 LIG 0.17  HD
ATOM     16 2HH1 ARG X 128       7.129  10.769 -15.324  1.00 38.28 LIG 0.17  HD
ATOM     17 1HH2 ARG X 128       9.499  11.033 -13.100  1.00 41.06 LIG 0.17  HD
ATOM     18 2HH2 ARG X 128       9.071  10.301 -14.325  1.00 41.06 LIG 0.17  HD
ENDBRANCH 9 10
ENDBRANCH 8 9
ENDBRANCH 7 8
ENDBRANCH 6 7
BRANCH 6 19
ATOM     19  N   ARG X 128       5.530  12.170  -9.113  1.00 22.62 LIG-0.35  N 
ATOM     20 H    ARG X 128       5.652  11.438  -9.548  1.00 22.62 LIG 0.16  HD
ATOM     21  C   ALA X 127       6.383  12.643  -8.214  1.00 23.78 LIG 0.24  C 
ATOM     22 O    ALA X 127       6.231  13.722  -7.646  1.00 22.39 LIG-0.27  OA
BRANCH 21 23
ATOM     23  CA  ALA X 127       7.670  11.826  -8.011  1.00 25.08 LIG 0.17  C 
ATOM     24  CB  ALA X 127       7.424  10.552  -7.213  1.00 24.37 LIG 0.04  C 
BRANCH 23 25
ATOM     25  N   ALA X 127       8.647  12.701  -7.374  1.00 27.78 LIG-0.35  N 
ATOM     26  C   LEU X 126       9.118  13.695  -8.126  1.00 33.19 LIG 0.26  C 
ATOM     27 O    LEU X 126       8.692  13.940  -9.298  1.00 34.96 LIG-0.27  OA
ATOM     28 H    ALA X 127       8.860  12.524  -6.560  1.00 27.78 LIG 0.16  HD
BRANCH 26 29
ATOM     29  CA  LEU X 126      10.208  14.538  -7.531  1.00 34.21 LIG 0.40  C 
ATOM     30  N   LEU X 126      11.225  13.710  -6.853  1.00 36.42 LIG 0.61  N 
BRANCH 29 31
ATOM     31  CB  LEU X 126      10.833  15.368  -8.670  1.00 35.53 LIG 0.06  C 
BRANCH 31 32
ATOM     32  CG  LEU X 126      10.188  16.737  -8.924  1.00 35.00 LIG-0.02  C 
ATOM     33  CD2 LEU X 126      10.009  16.950 -10.449  1.00 38.18 LIG 0.01  C 
ATOM     34  CD1 LEU X 126      11.011  17.844  -8.348  1.00 36.44 LIG 0.01  C 
ENDBRANCH 31 32
ENDBRANCH 29 31
ENDBRANCH 26 29
ENDBRANCH 23 25
ENDBRANCH 21 23
ENDBRANCH 6 19
ENDBRANCH 3 6
ENDBRANCH 1 2
BRANCH 1 35
ATOM     35  C   ARG X 129      -0.335  12.755  -8.340  1.00 22.72 LIG 0.24  C 
ATOM     36  N   LEU X 130      -1.260  12.436  -9.261  1.00 24.32 LIG-0.35  N 
ATOM     37 H    LEU X 130      -1.192  11.790  -9.825  1.00 24.32 LIG 0.16  HD
ATOM     38 O    ARG X 129      -0.441  13.777  -7.660  1.00 21.19 LIG-0.27  OA
BRANCH 36 39
ATOM     39  CA  LEU X 130      -2.510  13.231  -9.353  1.00 26.11 LIG 0.18  C 
BRANCH 39 40
ATOM     40  C   LEU X 130      -3.361  13.078  -8.115  1.00 29.66 LIG 0.24  C 
ATOM     41 O    LEU X 130      -3.175  12.117  -7.353  1.00 28.98 LIG-0.27  OA
ATOM     42  N   ARG X 131      -4.317  13.983  -7.926  1.00 30.67 LIG-0.34  N 
ATOM     43 H    ARG X 131      -4.412  14.693  -8.403  1.00 30.67 LIG 0.16  HD
BRANCH 42 44
ATOM     44  CA  ARG X 131      -5.296  13.831  -6.870  1.00 33.89 LIG 0.18  C 
BRANCH 44 45
ATOM     45  C   ARG X 131      -6.662  13.406  -7.413  1.00 35.66 LIG 0.20  C 
ATOM     46 OXT  ARG X 131      -7.115  12.254  -7.233  1.00 35.07 LIG-0.65  OA
ATOM     47 O    ARG X 131      -7.375  14.206  -8.088  1.00 37.10 LIG-0.65  OA
ENDBRANCH 44 45
BRANCH 44 48
ATOM     48  CB  ARG X 131      -5.425  15.150  -6.101  1.00 35.20 LIG 0.04  C 
BRANCH 48 49
ATOM     49  CG  ARG X 131      -4.076  15.738  -5.646  1.00 40.01 LIG 0.02  C 
BRANCH 49 50
ATOM     50  CD  ARG X 131      -3.619  15.260  -4.242  1.00 47.84 LIG 0.14  C 
BRANCH 50 51
ATOM     51  NE  ARG X 131      -3.511  13.802  -4.199  1.00 52.72 LIG-0.23  N 
ATOM     52  CZ  ARG X 131      -3.408  13.069  -3.088  1.00 57.07 LIG 0.67  C 
ATOM     53  NH1 ARG X 131      -3.425  13.647  -1.875  1.00 58.64 LIG-0.23  N 
ATOM     54  NH2 ARG X 131      -3.297  11.742  -3.189  1.00 59.02 LIG-0.23  N 
ATOM     55 2HH1 ARG X 131      -3.358  13.164  -1.167  1.00 58.64 LIG 0.17  HD
ATOM     56 1HH1 ARG X 131      -3.504  14.501  -1.807  1.00 58.64 LIG 0.17  HD
ATOM     57 2HH2 ARG X 131      -3.230  11.260  -2.480  1.00 59.02 LIG 0.17  HD
ATOM     58 1HH2 ARG X 131      -3.293  11.369  -3.964  1.00 59.02 LIG 0.17  HD
ATOM     59 HE   ARG X 131      -3.513  13.383  -4.950  1.00 52.72 LIG 0.18  HD
ENDBRANCH 50 51
ENDBRANCH 49 50
ENDBRANCH 48 49
ENDBRANCH 44 48
ENDBRANCH 42 44
ENDBRANCH 39 40
BRANCH 39 60
ATOM     60  CB  LEU X 130      -3.383  12.845 -10.550  1.00 27.29 LIG 0.04  C 
BRANCH 60 61
ATOM     61  CG  LEU X 130      -2.982  13.234 -11.964  1.00 26.34 LIG-0.02  C 
ATOM     62  CD1 LEU X 130      -4.025  12.780 -13.037  1.00 29.54 LIG 0.01  C 
ATOM     63  CD2 LEU X 130      -2.817  14.719 -12.009  1.00 21.56 LIG 0.01  C 
ENDBRANCH 60 61
ENDBRANCH 39 60
ENDBRANCH 36 39
ENDBRANCH 1 35
BRANCH 1 64
ATOM     64  CB  ARG X 129       1.035  11.572  -6.573  1.00 24.17 LIG 0.04  C 
BRANCH 64 65
ATOM     65  CG  ARG X 129       0.999  12.727  -5.674  1.00 28.32 LIG 0.02  C 
BRANCH 65 66
ATOM     66  CD  ARG X 129       2.137  12.784  -4.672  1.00 31.43 LIG 0.14  C 
BRANCH 66 67
ATOM     67  NE  ARG X 129       3.483  12.958  -5.237  1.00 29.42 LIG-0.23  N 
ATOM     68  CZ  ARG X 129       4.596  13.121  -4.530  1.00 30.66 LIG 0.67  C 
ATOM     69  NH1 ARG X 129       4.561  13.242  -3.205  1.00 33.32 LIG-0.23  N 
ATOM     70  NH2 ARG X 129       5.771  13.206  -5.166  1.00 29.67 LIG-0.23  N 
ATOM     71 2HH1 ARG X 129       5.291  13.347  -2.763  1.00 33.32 LIG 0.17  HD
ATOM     72 1HH1 ARG X 129       3.808  13.215  -2.791  1.00 33.32 LIG 0.17  HD
ATOM     73 2HH2 ARG X 129       6.496  13.312  -4.716  1.00 29.67 LIG 0.17  HD
ATOM     74 1HH2 ARG X 129       5.801  13.155  -6.024  1.00 29.67 LIG 0.17  HD
ATOM     75 HE   ARG X 129       3.557  12.953  -6.094  1.00 29.42 LIG 0.18  HD
ENDBRANCH 66 67
ENDBRANCH 65 66
ENDBRANCH 64 65
ENDBRANCH 1 64
TORSDOF 27
ENDMDL
MODEL 18
USER: ADFR SOLUTION from run 136
USER: SCORE 28.832254 LL:  -3.929 LR: -25.275 RR:   0.000 FEB: -17.221
USER: RMSD 2.484632
USER: SEED 135
USER: STATUS no improvement in best in 19 clusters for 5 generations
USER: GENES 29
USER: genes 0 Translation |==|  0.45971 0.38717 0.49111
USER: genes 1 Rotation |==|  0.45896 0.50528 0.54204 0.99651
USER: genes 2 Torsion [C]-CA--N-[C] |==|  0.71864
USER: genes 3 Torsion [N]-C--CA-[N] |==|  0.32967
USER: genes 4 Torsion [C]-CA--CB-[CG] |==|  0.79098
USER: genes 5 Torsion [CA]-CB--CG-[CD] |==|  0.64308
USER: genes 6 Torsion [CB]-CG--CD-[NE] |==|  0.78470
USER: genes 7 Torsion [CG]-CD--NE-[HE] |==|  0.15691
USER: genes 8 Torsion [C]-CA--N-[C] |==|  0.70457
USER: genes 9 Torsion [N]-C--CA-[N] |==|  0.43382
USER: genes 10 Torsion [C]-CA--N-[C] |==|  0.76838
USER: genes 11 Torsion [N]-C--CA-[N] |==|  0.12533
USER: genes 12 Torsion [C]-CA--CB-[CG] |==|  0.25391
USER: genes 13 Torsion [CA]-CB--CG-[CD2] |==|  0.59677
USER: genes 14 Torsion [N]-CA--C-[N] |==|  0.38250
USER: genes 15 Torsion [C]-N--CA-[C] |==|  0.83495
USER: genes 16 Torsion [N]-CA--C-[N] |==|  0.37225
USER: genes 17 Torsion [C]-N--CA-[C] |==|  0.61271
USER: genes 18 Torsion [N]-CA--C-[O] |==|  0.49388
USER: genes 19 Torsion [N]-CA--CB-[CG] |==|  0.58849
USER: genes 20 Torsion [CA]-CB--CG-[CD] |==|  0.02567
USER: genes 21 Torsion [CB]-CG--CD-[NE] |==|  0.16764
USER: genes 22 Torsion [CG]-CD--NE-[CZ] |==|  0.27772
USER: genes 23 Torsion [N]-CA--CB-[CG] |==|  0.99595
USER: genes 24 Torsion [CA]-CB--CG-[CD1] |==|  0.40819
USER: genes 25 Torsion [N]-CA--CB-[CG] |==|  0.96363
USER: genes 26 Torsion [CA]-CB--CG-[CD] |==|  0.62378
USER: genes 27 Torsion [CB]-CG--CD-[NE] |==|  0.69260
USER: genes 28 Torsion [CG]-CD--NE-[HE] |==|  0.86096
ROOT
ATOM      1  CA  ARG X 129       1.278  11.755  -7.376  1.00 23.09 LIG 0.18  C 
ENDROOT
BRANCH 1 2
ATOM      2  N   ARG X 129       2.412  12.470  -7.947  1.00 20.82 LIG-0.35  N 
ATOM      3  C   ARG X 128       3.174  12.019  -8.944  1.00 20.67 LIG 0.24  C 
ATOM      4 O    ARG X 128       3.030  10.900  -9.499  1.00 18.99 LIG-0.27  OA
ATOM      5 H    ARG X 129       2.550  13.232  -7.572  1.00 20.82 LIG 0.16  HD
BRANCH 3 6
ATOM      6  CA  ARG X 128       4.273  12.972  -9.410  1.00 21.45 LIG 0.18  C 
BRANCH 6 7
ATOM      7  CB  ARG X 128       4.122  13.291 -10.887  1.00 22.98 LIG 0.04  C 
BRANCH 7 8
ATOM      8  CG  ARG X 128       4.580  12.101 -11.754  1.00 26.06 LIG 0.02  C 
BRANCH 8 9
ATOM      9  CD  ARG X 128       5.631  12.418 -12.903  1.00 28.46 LIG 0.14  C 
BRANCH 9 10
ATOM     10  NE  ARG X 128       5.269  13.039 -14.168  1.00 34.87 LIG-0.23  N 
ATOM     11 HE   ARG X 128       4.872  13.801 -14.128  1.00 34.87 LIG 0.18  HD
ATOM     12  CZ  ARG X 128       5.496  12.539 -15.390  1.00 35.06 LIG 0.67  C 
ATOM     13  NH1 ARG X 128       6.043  11.352 -15.577  1.00 38.28 LIG-0.23  N 
ATOM     14  NH2 ARG X 128       5.132  13.227 -16.434  1.00 41.06 LIG-0.23  N 
ATOM     15 1HH1 ARG X 128       6.268  10.871 -14.900  1.00 38.28 LIG 0.17  HD
ATOM     16 2HH1 ARG X 128       6.176  11.060 -16.375  1.00 38.28 LIG 0.17  HD
ATOM     17 1HH2 ARG X 128       4.751  13.992 -16.333  1.00 41.06 LIG 0.17  HD
ATOM     18 2HH2 ARG X 128       5.271  12.918 -17.224  1.00 41.06 LIG 0.17  HD
ENDBRANCH 9 10
ENDBRANCH 8 9
ENDBRANCH 7 8
ENDBRANCH 6 7
BRANCH 6 19
ATOM     19  N   ARG X 128       5.575  12.388  -9.226  1.00 22.62 LIG-0.35  N 
ATOM     20 H    ARG X 128       5.765  11.766  -9.788  1.00 22.62 LIG 0.16  HD
ATOM     21  C   ALA X 127       6.398  12.789  -8.265  1.00 23.78 LIG 0.24  C 
ATOM     22 O    ALA X 127       6.143  13.721  -7.508  1.00 22.39 LIG-0.27  OA
BRANCH 21 23
ATOM     23  CA  ALA X 127       7.776  12.106  -8.231  1.00 25.08 LIG 0.17  C 
ATOM     24  CB  ALA X 127       7.723  10.732  -7.577  1.00 24.37 LIG 0.04  C 
BRANCH 23 25
ATOM     25  N   ALA X 127       8.695  13.011  -7.551  1.00 27.78 LIG-0.35  N 
ATOM     26  C   LEU X 126       9.236  13.968  -8.304  1.00 33.19 LIG 0.26  C 
ATOM     27 O    LEU X 126       8.920  14.156  -9.520  1.00 34.96 LIG-0.27  OA
ATOM     28 H    ALA X 127       8.832  12.874  -6.713  1.00 27.78 LIG 0.16  HD
BRANCH 26 29
ATOM     29  CA  LEU X 126      10.271  14.839  -7.653  1.00 34.21 LIG 0.40  C 
ATOM     30  N   LEU X 126      11.240  14.042  -6.875  1.00 36.42 LIG 0.61  N 
BRANCH 29 31
ATOM     31  CB  LEU X 126      10.976  15.642  -8.767  1.00 35.53 LIG 0.06  C 
BRANCH 31 32
ATOM     32  CG  LEU X 126      10.362  17.012  -9.085  1.00 35.00 LIG-0.02  C 
ATOM     33  CD2 LEU X 126      10.496  17.298 -10.603  1.00 38.18 LIG 0.01  C 
ATOM     34  CD1 LEU X 126      11.021  18.100  -8.301  1.00 36.44 LIG 0.01  C 
ENDBRANCH 31 32
ENDBRANCH 29 31
ENDBRANCH 26 29
ENDBRANCH 23 25
ENDBRANCH 21 23
ENDBRANCH 6 19
ENDBRANCH 3 6
ENDBRANCH 1 2
BRANCH 1 35
ATOM     35  C   ARG X 129      -0.082  12.292  -7.899  1.00 22.72 LIG 0.24  C 
ATOM     36  N   LEU X 130      -1.070  11.448  -8.238  1.00 24.32 LIG-0.35  N 
ATOM     37 H    LEU X 130      -0.992  10.593  -8.291  1.00 24.32 LIG 0.16  HD
ATOM     38 O    ARG X 129      -0.232  13.512  -7.978  1.00 21.19 LIG-0.27  OA
BRANCH 36 39
ATOM     39  CA  LEU X 130      -2.417  11.983  -8.555  1.00 26.11 LIG 0.18  C 
BRANCH 39 40
ATOM     40  C   LEU X 130      -3.003  12.748  -7.391  1.00 29.66 LIG 0.24  C 
ATOM     41 O    LEU X 130      -2.983  12.251  -6.254  1.00 28.98 LIG-0.27  OA
ATOM     42  N   ARG X 131      -3.560  13.924  -7.663  1.00 30.67 LIG-0.34  N 
ATOM     43 H    ARG X 131      -3.517  14.314  -8.428  1.00 30.67 LIG 0.16  HD
BRANCH 42 44
ATOM     44  CA  ARG X 131      -4.301  14.654  -6.655  1.00 33.89 LIG 0.18  C 
BRANCH 44 45
ATOM     45  C   ARG X 131      -5.563  15.301  -7.229  1.00 35.66 LIG 0.20  C 
ATOM     46 OXT  ARG X 131      -5.843  15.238  -8.446  1.00 35.07 LIG-0.65  OA
ATOM     47 O    ARG X 131      -6.361  15.947  -6.487  1.00 37.10 LIG-0.65  OA
ENDBRANCH 44 45
BRANCH 44 48
ATOM     48  CB  ARG X 131      -3.397  15.726  -6.036  1.00 35.20 LIG 0.04  C 
BRANCH 48 49
ATOM     49  CG  ARG X 131      -3.706  16.018  -4.556  1.00 40.01 LIG 0.02  C 
BRANCH 49 50
ATOM     50  CD  ARG X 131      -4.708  15.025  -3.910  1.00 47.84 LIG 0.14  C 
BRANCH 50 51
ATOM     51  NE  ARG X 131      -4.188  13.658  -3.954  1.00 52.72 LIG-0.23  N 
ATOM     52  CZ  ARG X 131      -3.602  13.024  -2.935  1.00 57.07 LIG 0.67  C 
ATOM     53  NH1 ARG X 131      -3.468  13.617  -1.737  1.00 58.64 LIG-0.23  N 
ATOM     54  NH2 ARG X 131      -3.154  11.779  -3.114  1.00 59.02 LIG-0.23  N 
ATOM     55 2HH1 ARG X 131      -3.089  13.198  -1.090  1.00 58.64 LIG 0.17  HD
ATOM     56 1HH1 ARG X 131      -3.763  14.416  -1.618  1.00 58.64 LIG 0.17  HD
ATOM     57 2HH2 ARG X 131      -2.774  11.361  -2.465  1.00 59.02 LIG 0.17  HD
ATOM     58 1HH2 ARG X 131      -3.245  11.395  -3.878  1.00 59.02 LIG 0.17  HD
ATOM     59 HE   ARG X 131      -4.266  13.229  -4.695  1.00 52.72 LIG 0.18  HD
ENDBRANCH 50 51
ENDBRANCH 49 50
ENDBRANCH 48 49
ENDBRANCH 44 48
ENDBRANCH 42 44
ENDBRANCH 39 40
BRANCH 39 60
ATOM     60  CB  LEU X 130      -3.426  10.894  -8.932  1.00 27.29 LIG 0.04  C 
BRANCH 60 61
ATOM     61  CG  LEU X 130      -3.010   9.433  -8.990  1.00 26.34 LIG-0.02  C 
ATOM     62  CD1 LEU X 130      -4.159   8.458  -8.575  1.00 29.54 LIG 0.01  C 
ATOM     63  CD2 LEU X 130      -2.563   9.132 -10.384  1.00 21.56 LIG 0.01  C 
ENDBRANCH 60 61
ENDBRANCH 39 60
ENDBRANCH 36 39
ENDBRANCH 1 35
BRANCH 1 64
ATOM     64  CB  ARG X 129       1.412  12.071  -5.869  1.00 24.17 LIG 0.04  C 
BRANCH 64 65
ATOM     65  CG  ARG X 129       2.668  12.662  -5.403  1.00 28.32 LIG 0.02  C 
BRANCH 65 66
ATOM     66  CD  ARG X 129       3.221  12.048  -4.130  1.00 31.43 LIG 0.14  C 
BRANCH 66 67
ATOM     67  NE  ARG X 129       3.182  12.902  -2.934  1.00 29.42 LIG-0.23  N 
ATOM     68  CZ  ARG X 129       2.698  12.543  -1.751  1.00 30.66 LIG 0.67  C 
ATOM     69  NH1 ARG X 129       2.098  11.367  -1.579  1.00 33.32 LIG-0.23  N 
ATOM     70  NH2 ARG X 129       2.778  13.395  -0.722  1.00 29.67 LIG-0.23  N 
ATOM     71 2HH1 ARG X 129       1.790  11.150  -0.806  1.00 33.32 LIG 0.17  HD
ATOM     72 1HH1 ARG X 129       2.019  10.824  -2.241  1.00 33.32 LIG 0.17  HD
ATOM     73 2HH2 ARG X 129       2.467  13.171   0.047  1.00 29.67 LIG 0.17  HD
ATOM     74 1HH2 ARG X 129       3.140  14.168  -0.831  1.00 29.67 LIG 0.17  HD
ATOM     75 HE   ARG X 129       3.498  13.699  -3.007  1.00 29.42 LIG 0.18  HD
ENDBRANCH 66 67
ENDBRANCH 65 66
ENDBRANCH 64 65
ENDBRANCH 1 64
TORSDOF 27
ENDMDL
