MODEL 1
USER: ADFR SOLUTION from run 165
USER: SCORE 26.601331 LL:  -7.595 LR: -20.821 RR:   0.000 FEB: -11.872
USER: RMSD 2.765682
USER: SEED 164
USER: STATUS no improvement in best in 2 clusters for 5 generations
USER: GENES 32
USER: genes 0 Translation |==|  0.43745 0.40287 0.58735
USER: genes 1 Rotation |==|  0.53734 0.54335 0.40977 0.98845
USER: genes 2 Torsion [CB]-CA--N-[C] |==|  0.51117
USER: genes 3 Torsion [N]-C--CA-[N] |==|  0.40804
USER: genes 4 Torsion [C]-CA--CB-[CG] |==|  0.09509
USER: genes 5 Torsion [CA]-CB--CG-[OD2] |==|  0.64472
USER: genes 6 Torsion [C]-CA--N-[C] |==|  0.82418
USER: genes 7 Torsion [N]-C--CA-[N] |==|  0.34882
USER: genes 8 Torsion [C]-CA--N-[C] |==|  0.75609
USER: genes 9 Torsion [N]-C--CA-[N] |==|  0.55982
USER: genes 10 Torsion [C]-CA--N-[H3] |==|  0.27585
USER: genes 11 Torsion [C]-CA--CB-[CG] |==|  0.85933
USER: genes 12 Torsion [CA]-CB--CG-[CD] |==|  0.76685
USER: genes 13 Torsion [CB]-CG--CD-[OE2] |==|  0.56499
USER: genes 14 Torsion [C]-CA--CB-[CG] |==|  0.34673
USER: genes 15 Torsion [CA]-CB--CG-[CD2] |==|  0.96814
USER: genes 16 Torsion [N]-CA--CB-[CG] |==|  0.54032
USER: genes 17 Torsion [CA]-CB--CG-[CD] |==|  0.50709
USER: genes 18 Torsion [CB]-CG--CD-[CE] |==|  0.56379
USER: genes 19 Torsion [CG]-CD--CE-[NZ] |==|  0.29611
USER: genes 20 Torsion [CD]-CE--NZ-[HZ2] |==|  0.91183
USER: genes 21 Torsion [N]-CA--C-[N] |==|  0.87246
USER: genes 22 Torsion [C]-N--CA-[C] |==|  0.69813
USER: genes 23 Torsion [N]-CA--C-[N] |==|  0.05681
USER: genes 24 Torsion [C]-N--CA-[CB] |==|  0.50610
USER: genes 25 Torsion [N]-CA--C-[N] |==|  0.49089
USER: genes 26 Torsion [C]-N--CA-[CB] |==|  0.37996
USER: genes 27 Torsion [N]-CA--CB-[OG] |==|  0.81994
USER: genes 28 Torsion [CA]-CB--OG-[HG] |==|  0.50902
USER: genes 29 Torsion [N]-CA--C-[O] |==|  0.11347
USER: genes 30 Torsion [N]-CA--CB-[CG] |==|  0.84486
USER: genes 31 Torsion [CA]-CB--CG-[CD1] |==|  0.35408
ROOT
ATOM      1  CA  LYS P   4       1.793  55.407  82.807  1.00 24.08 LIG 0.18  C 
ENDROOT
BRANCH 1 2
ATOM      2  N   LYS P   4       2.057  55.162  81.392  1.00 23.78 LIG-0.35  N 
ATOM      3 H    LYS P   4       1.574  54.542  81.045  1.00 23.78 LIG 0.16  HD
ATOM      4  C   ASP P   3       2.971  55.855  80.718  1.00 23.78 LIG 0.24  C 
ATOM      5 O    ASP P   3       3.672  56.726  81.239  1.00 23.70 LIG-0.27  OA
BRANCH 4 6
ATOM      6  CA  ASP P   3       3.137  55.491  79.247  1.00 23.69 LIG 0.19  C 
BRANCH 6 7
ATOM      7  CB  ASP P   3       4.222  54.418  79.108  1.00 23.04 LIG 0.15  C 
BRANCH 7 8
ATOM      8  CG  ASP P   3       4.249  53.449  80.280  1.00 22.74 LIG 0.17  C 
ATOM      9 OD2  ASP P   3       5.335  53.250  80.869  1.00 21.45 LIG-0.65  OA
ATOM     10 OD1  ASP P   3       3.178  52.887  80.611  1.00 22.26 LIG-0.65  OA
ENDBRANCH 7 8
ENDBRANCH 6 7
BRANCH 6 11
ATOM     11  N   ASP P   3       3.491  56.668  78.456  1.00 24.40 LIG-0.35  N 
ATOM     12  C   LEU P   2       2.681  57.715  78.328  1.00 25.13 LIG 0.24  C 
ATOM     13 O    LEU P   2       1.574  57.779  78.862  1.00 24.84 LIG-0.27  OA
ATOM     14 H    ASP P   3       4.265  56.620  78.085  1.00 24.40 LIG 0.16  HD
BRANCH 12 15
ATOM     15  CA  LEU P   2       3.208  58.865  77.474  1.00 25.73 LIG 0.18  C 
BRANCH 15 16
ATOM     16  N   LEU P   2       2.300  59.242  76.393  1.00 26.50 LIG-0.35  N 
ATOM     17 H    LEU P   2       1.748  59.869  76.600  1.00 26.50 LIG 0.16  HD
ATOM     18  C   GLU P   1       2.335  58.657  75.199  1.00 27.13 LIG 0.25  C 
ATOM     19 O    GLU P   1       3.119  57.749  74.915  1.00 26.76 LIG-0.27  OA
BRANCH 18 20
ATOM     20  CA  GLU P   1       1.329  59.168  74.165  1.00 27.85 LIG 0.28  C 
BRANCH 20 21
ATOM     21  N   GLU P   1       1.112  58.138  73.111  1.00 27.86 LIG-0.07  N 
ATOM     22 H2   GLU P   1       1.798  57.571  73.103  1.00 27.86 LIG 0.28  HD
ATOM     23 H3   GLU P   1       0.361  57.692  73.281  1.00 27.86 LIG 0.28  HD
ATOM     24 H1   GLU P   1       1.047  58.535  72.316  1.00 27.86 LIG 0.28  HD
ENDBRANCH 20 21
BRANCH 20 25
ATOM     25  CB  GLU P   1       0.003  59.509  74.857  1.00 28.74 LIG 0.05  C 
BRANCH 25 26
ATOM     26  CG  GLU P   1      -0.550  58.406  75.755  1.00 29.95 LIG 0.12  C 
BRANCH 26 27
ATOM     27  CD  GLU P   1      -1.349  57.359  75.000  1.00 30.73 LIG 0.17  C 
ATOM     28 OE2  GLU P   1      -2.191  56.693  75.632  1.00 30.75 LIG-0.65  OA
ATOM     29 OE1  GLU P   1      -1.135  57.188  73.782  1.00 31.83 LIG-0.65  OA
ENDBRANCH 26 27
ENDBRANCH 25 26
ENDBRANCH 20 25
ENDBRANCH 18 20
ENDBRANCH 15 16
BRANCH 15 30
ATOM     30  CB  LEU P   2       3.487  60.071  78.377  1.00 26.14 LIG 0.04  C 
BRANCH 30 31
ATOM     31  CG  LEU P   2       4.894  60.679  78.340  1.00 26.56 LIG-0.02  C 
ATOM     32  CD2 LEU P   2       5.828  59.750  77.585  1.00 26.97 LIG 0.01  C 
ATOM     33  CD1 LEU P   2       5.395  60.900  79.772  1.00 26.91 LIG 0.01  C 
ENDBRANCH 30 31
ENDBRANCH 15 30
ENDBRANCH 12 15
ENDBRANCH 6 11
ENDBRANCH 4 6
ENDBRANCH 1 2
BRANCH 1 34
ATOM     34  CB  LYS P   4       0.767  54.398  83.335  1.00 23.66 LIG 0.04  C 
BRANCH 34 35
ATOM     35  CG  LYS P   4       0.138  54.744  84.694  1.00 23.42 LIG 0.00  C 
BRANCH 35 36
ATOM     36  CD  LYS P   4      -0.817  53.630  85.136  1.00 22.86 LIG 0.03  C 
BRANCH 36 37
ATOM     37  CE  LYS P   4      -1.874  54.115  86.142  1.00 22.94 LIG 0.23  C 
BRANCH 37 38
ATOM     38  NZ  LYS P   4      -3.234  54.230  85.520  1.00 22.16 LIG-0.08  N 
ATOM     39 HZ3  LYS P   4      -3.657  53.449  85.586  1.00 22.16 LIG 0.27  HD
ATOM     40 HZ1  LYS P   4      -3.702  54.858  85.944  1.00 22.16 LIG 0.27  HD
ATOM     41 HZ2  LYS P   4      -3.150  54.450  84.662  1.00 22.16 LIG 0.27  HD
ENDBRANCH 37 38
ENDBRANCH 36 37
ENDBRANCH 35 36
ENDBRANCH 34 35
ENDBRANCH 1 34
BRANCH 1 42
ATOM     42  C   LYS P   4       3.053  55.308  83.662  1.00 24.65 LIG 0.24  C 
ATOM     43 O    LYS P   4       3.307  56.168  84.499  1.00 24.26 LIG-0.27  OA
ATOM     44  N   TRP P   5       3.846  54.267  83.442  1.00 25.14 LIG-0.35  N 
ATOM     45 H    TRP P   5       3.717  53.676  82.831  1.00 25.14 LIG 0.16  HD
BRANCH 44 46
ATOM     46  CA  TRP P   5       5.034  54.058  84.258  1.00 26.12 LIG 0.18  C 
BRANCH 46 47
ATOM     47  C   TRP P   5       6.387  54.303  83.589  1.00 26.95 LIG 0.24  C 
ATOM     48 O    TRP P   5       7.406  53.817  84.067  1.00 26.69 LIG-0.27  OA
ATOM     49  N   ALA P   6       6.395  55.065  82.500  1.00 28.22 LIG-0.35  N 
ATOM     50 H    ALA P   6       5.692  55.421  82.155  1.00 28.22 LIG 0.16  HD
BRANCH 49 51
ATOM     51  CA  ALA P   6       7.635  55.360  81.789  1.00 29.75 LIG 0.17  C 
ATOM     52  CB  ALA P   6       7.360  56.292  80.619  1.00 29.57 LIG 0.04  C 
BRANCH 51 53
ATOM     53  C   ALA P   6       8.683  55.982  82.701  1.00 31.01 LIG 0.24  C 
ATOM     54  N   SER P   7       9.865  56.216  82.137  1.00 32.38 LIG-0.34  N 
ATOM     55 H    SER P   7      10.038  56.022  81.317  1.00 32.38 LIG 0.16  HD
ATOM     56 O    ALA P   6       8.421  56.245  83.874  1.00 31.33 LIG-0.27  OA
BRANCH 54 57
ATOM     57  CA  SER P   7      10.990  56.822  82.840  1.00 33.79 LIG 0.21  C 
BRANCH 57 58
ATOM     58  CB  SER P   7      12.290  56.081  82.503  1.00 34.23 LIG 0.20  C 
BRANCH 58 59
ATOM     59 OG   SER P   7      12.240  54.749  82.987  1.00 34.80 LIG-0.40  OA
ATOM     60 HG   SER P   7      12.974  54.368  82.836  1.00 34.80 LIG 0.21  HD
ENDBRANCH 58 59
ENDBRANCH 57 58
BRANCH 57 61
ATOM     61  C   SER P   7      11.148  58.297  82.528  1.00 34.43 LIG 0.20  C 
ATOM     62 O    SER P   7      10.107  58.997  82.454  1.00 34.68 LIG-0.65  OA
ATOM     63 OXT  SER P   7      12.309  58.727  82.355  1.00 35.29 LIG-0.65  OA
ENDBRANCH 57 61
ENDBRANCH 54 57
ENDBRANCH 51 53
ENDBRANCH 49 51
ENDBRANCH 46 47
BRANCH 46 64
ATOM     64  CB  TRP P   5       4.981  52.638  84.837  1.00 25.45 LIG 0.07  C 
BRANCH 64 65
ATOM     65  CG  TRP P   5       3.716  52.401  85.606  1.00 25.18 LIG-0.03  A 
ATOM     66  CD1 TRP P   5       2.828  51.370  85.442  1.00 25.03 LIG 0.10  A 
ATOM     67  NE1 TRP P   5       1.749  51.536  86.279  1.00 24.37 LIG-0.36  N 
ATOM     68  CE2 TRP P   5       1.923  52.685  87.003  1.00 24.69 LIG 0.04  A 
ATOM     69 HE1  TRP P   5       1.075  51.005  86.337  1.00 24.37 LIG 0.17  HD
ATOM     70  CZ2 TRP P   5       1.102  53.272  87.974  1.00 24.50 LIG 0.03  A 
ATOM     71  CD2 TRP P   5       3.156  53.256  86.604  1.00 24.80 LIG-0.00  A 
ATOM     72  CH2 TRP P   5       1.534  54.447  88.546  1.00 24.87 LIG 0.00  A 
ATOM     73  CZ3 TRP P   5       2.754  55.041  88.172  1.00 24.98 LIG 0.00  A 
ATOM     74  CE3 TRP P   5       3.573  54.453  87.203  1.00 25.01 LIG 0.01  A 
ENDBRANCH 64 65
ENDBRANCH 46 64
ENDBRANCH 44 46
ENDBRANCH 1 42
TORSDOF 30
ENDMDL
MODEL 2
USER: ADFR SOLUTION from run 123
USER: SCORE 25.930042 LL:  -7.812 LR: -19.869 RR:   0.000 FEB: -10.920
USER: RMSD 1.775657
USER: SEED 122
USER: STATUS no improvement in best in 2 clusters for 5 generations
USER: GENES 32
USER: genes 0 Translation |==|  0.44013 0.41343 0.58879
USER: genes 1 Rotation |==|  0.48340 0.53937 0.52770 0.99740
USER: genes 2 Torsion [CB]-CA--N-[C] |==|  0.54407
USER: genes 3 Torsion [N]-C--CA-[N] |==|  0.43798
USER: genes 4 Torsion [C]-CA--CB-[CG] |==|  0.12296
USER: genes 5 Torsion [CA]-CB--CG-[OD2] |==|  0.64887
USER: genes 6 Torsion [C]-CA--N-[C] |==|  0.83408
USER: genes 7 Torsion [N]-C--CA-[N] |==|  0.37490
USER: genes 8 Torsion [C]-CA--N-[C] |==|  0.75128
USER: genes 9 Torsion [N]-C--CA-[N] |==|  0.54591
USER: genes 10 Torsion [C]-CA--N-[H3] |==|  0.25986
USER: genes 11 Torsion [C]-CA--CB-[CG] |==|  0.85446
USER: genes 12 Torsion [CA]-CB--CG-[CD] |==|  0.75985
USER: genes 13 Torsion [CB]-CG--CD-[OE2] |==|  0.59027
USER: genes 14 Torsion [C]-CA--CB-[CG] |==|  0.25907
USER: genes 15 Torsion [CA]-CB--CG-[CD2] |==|  0.13953
USER: genes 16 Torsion [N]-CA--CB-[CG] |==|  0.56369
USER: genes 17 Torsion [CA]-CB--CG-[CD] |==|  0.36060
USER: genes 18 Torsion [CB]-CG--CD-[CE] |==|  0.47814
USER: genes 19 Torsion [CG]-CD--CE-[NZ] |==|  0.33301
USER: genes 20 Torsion [CD]-CE--NZ-[HZ2] |==|  0.31168
USER: genes 21 Torsion [N]-CA--C-[N] |==|  0.83676
USER: genes 22 Torsion [C]-N--CA-[C] |==|  0.70395
USER: genes 23 Torsion [N]-CA--C-[N] |==|  0.98909
USER: genes 24 Torsion [C]-N--CA-[CB] |==|  0.50709
USER: genes 25 Torsion [N]-CA--C-[N] |==|  0.45288
USER: genes 26 Torsion [C]-N--CA-[CB] |==|  0.89561
USER: genes 27 Torsion [N]-CA--CB-[OG] |==|  0.85516
USER: genes 28 Torsion [CA]-CB--OG-[HG] |==|  0.35965
USER: genes 29 Torsion [N]-CA--C-[O] |==|  0.26577
USER: genes 30 Torsion [N]-CA--CB-[CG] |==|  0.87273
USER: genes 31 Torsion [CA]-CB--CG-[CD1] |==|  0.77238
ROOT
ATOM      1  CA  LYS P   4       1.850  55.621  82.842  1.00 24.08 LIG 0.18  C 
ENDROOT
BRANCH 1 2
ATOM      2  N   LYS P   4       2.277  55.298  81.484  1.00 23.78 LIG-0.35  N 
ATOM      3 H    LYS P   4       2.018  54.526  81.207  1.00 23.78 LIG 0.16  HD
ATOM      4  C   ASP P   3       3.004  56.142  80.757  1.00 23.78 LIG 0.24  C 
ATOM      5 O    ASP P   3       3.387  57.235  81.181  1.00 23.70 LIG-0.27  OA
BRANCH 4 6
ATOM      6  CA  ASP P   3       3.376  55.671  79.357  1.00 23.69 LIG 0.19  C 
BRANCH 6 7
ATOM      7  CB  ASP P   3       4.582  54.728  79.441  1.00 23.04 LIG 0.15  C 
BRANCH 7 8
ATOM      8  CG  ASP P   3       4.461  53.713  80.566  1.00 22.74 LIG 0.17  C 
ATOM      9 OD2  ASP P   3       5.393  53.623  81.397  1.00 21.45 LIG-0.65  OA
ATOM     10 OD1  ASP P   3       3.427  53.004  80.619  1.00 22.26 LIG-0.65  OA
ENDBRANCH 7 8
ENDBRANCH 6 7
BRANCH 6 11
ATOM     11  N   ASP P   3       3.687  56.806  78.490  1.00 24.40 LIG-0.35  N 
ATOM     12  C   LEU P   2       2.808  57.769  78.229  1.00 25.13 LIG 0.24  C 
ATOM     13 O    LEU P   2       1.667  57.784  78.692  1.00 24.84 LIG-0.27  OA
ATOM     14 H    ASP P   3       4.485  56.793  78.169  1.00 24.40 LIG 0.16  HD
BRANCH 12 15
ATOM     15  CA  LEU P   2       3.297  58.887  77.312  1.00 25.73 LIG 0.18  C 
BRANCH 15 16
ATOM     16  N   LEU P   2       2.329  59.249  76.279  1.00 26.50 LIG-0.35  N 
ATOM     17 H    LEU P   2       1.785  59.874  76.510  1.00 26.50 LIG 0.16  HD
ATOM     18  C   GLU P   1       2.304  58.654  75.089  1.00 27.13 LIG 0.25  C 
ATOM     19 O    GLU P   1       3.079  57.749  74.771  1.00 26.76 LIG-0.27  OA
BRANCH 18 20
ATOM     20  CA  GLU P   1       1.240  59.149  74.106  1.00 27.85 LIG 0.28  C 
BRANCH 20 21
ATOM     21  N   GLU P   1       1.061  58.161  73.006  1.00 27.86 LIG-0.07  N 
ATOM     22 H2   GLU P   1       1.813  57.697  72.898  1.00 27.86 LIG 0.28  HD
ATOM     23 H3   GLU P   1       0.397  57.606  73.211  1.00 27.86 LIG 0.28  HD
ATOM     24 H1   GLU P   1       0.867  58.590  72.250  1.00 27.86 LIG 0.28  HD
ENDBRANCH 20 21
BRANCH 20 25
ATOM     25  CB  GLU P   1      -0.086  59.368  74.846  1.00 28.74 LIG 0.05  C 
BRANCH 25 26
ATOM     26  CG  GLU P   1      -0.564  58.173  75.665  1.00 29.95 LIG 0.12  C 
BRANCH 26 27
ATOM     27  CD  GLU P   1      -1.378  57.176  74.859  1.00 30.73 LIG 0.17  C 
ATOM     28 OE2  GLU P   1      -2.288  56.554  75.438  1.00 30.75 LIG-0.65  OA
ATOM     29 OE1  GLU P   1      -1.108  57.002  73.653  1.00 31.83 LIG-0.65  OA
ENDBRANCH 26 27
ENDBRANCH 25 26
ENDBRANCH 20 25
ENDBRANCH 18 20
ENDBRANCH 15 16
BRANCH 15 30
ATOM     30  CB  LEU P   2       3.648  60.112  78.162  1.00 26.14 LIG 0.04  C 
BRANCH 30 31
ATOM     31  CG  LEU P   2       5.102  60.269  78.621  1.00 26.56 LIG-0.02  C 
ATOM     32  CD2 LEU P   2       6.030  60.112  77.429  1.00 26.97 LIG 0.01  C 
ATOM     33  CD1 LEU P   2       5.418  59.218  79.693  1.00 26.91 LIG 0.01  C 
ENDBRANCH 30 31
ENDBRANCH 15 30
ENDBRANCH 12 15
ENDBRANCH 6 11
ENDBRANCH 4 6
ENDBRANCH 1 2
BRANCH 1 34
ATOM     34  CB  LYS P   4       1.385  54.351  83.566  1.00 23.66 LIG 0.04  C 
BRANCH 34 35
ATOM     35  CG  LYS P   4       0.425  54.576  84.745  1.00 23.42 LIG 0.00  C 
BRANCH 35 36
ATOM     36  CD  LYS P   4      -0.803  53.668  84.610  1.00 22.86 LIG 0.03  C 
BRANCH 36 37
ATOM     37  CE  LYS P   4      -1.709  53.702  85.851  1.00 22.94 LIG 0.23  C 
BRANCH 37 38
ATOM     38  NZ  LYS P   4      -3.093  54.176  85.527  1.00 22.16 LIG-0.08  N 
ATOM     39 HZ3  LYS P   4      -3.315  54.841  86.076  1.00 22.16 LIG 0.27  HD
ATOM     40 HZ1  LYS P   4      -3.119  54.465  84.685  1.00 22.16 LIG 0.27  HD
ATOM     41 HZ2  LYS P   4      -3.669  53.505  85.628  1.00 22.16 LIG 0.27  HD
ENDBRANCH 37 38
ENDBRANCH 36 37
ENDBRANCH 35 36
ENDBRANCH 34 35
ENDBRANCH 1 34
BRANCH 1 42
ATOM     42  C   LYS P   4       2.958  56.269  83.666  1.00 24.65 LIG 0.24  C 
ATOM     43 O    LYS P   4       2.808  57.389  84.142  1.00 24.26 LIG-0.27  OA
ATOM     44  N   TRP P   5       4.076  55.569  83.822  1.00 25.14 LIG-0.35  N 
ATOM     45 H    TRP P   5       4.226  54.803  83.461  1.00 25.14 LIG 0.16  HD
BRANCH 44 46
ATOM     46  CA  TRP P   5       5.159  56.082  84.649  1.00 26.12 LIG 0.18  C 
BRANCH 46 47
ATOM     47  C   TRP P   5       6.401  56.600  83.922  1.00 26.95 LIG 0.24  C 
ATOM     48 O    TRP P   5       7.310  57.123  84.556  1.00 26.69 LIG-0.27  OA
ATOM     49  N   ALA P   6       6.427  56.469  82.599  1.00 28.22 LIG-0.35  N 
ATOM     50 H    ALA P   6       5.796  56.112  82.137  1.00 28.22 LIG 0.16  HD
BRANCH 49 51
ATOM     51  CA  ALA P   6       7.566  56.933  81.814  1.00 29.75 LIG 0.17  C 
ATOM     52  CB  ALA P   6       7.303  56.715  80.331  1.00 29.57 LIG 0.04  C 
BRANCH 51 53
ATOM     53  C   ALA P   6       7.874  58.402  82.066  1.00 31.01 LIG 0.24  C 
ATOM     54  N   SER P   7       9.080  58.808  81.676  1.00 32.38 LIG-0.34  N 
ATOM     55 H    SER P   7       9.656  58.281  81.315  1.00 32.38 LIG 0.16  HD
ATOM     56 O    ALA P   6       7.041  59.139  82.592  1.00 31.33 LIG-0.27  OA
BRANCH 54 57
ATOM     57  CA  SER P   7       9.555  60.180  81.816  1.00 33.79 LIG 0.21  C 
BRANCH 57 58
ATOM     58  CB  SER P   7       8.415  61.169  81.548  1.00 34.23 LIG 0.20  C 
BRANCH 58 59
ATOM     59 OG   SER P   7       7.791  60.881  80.308  1.00 34.80 LIG-0.40  OA
ATOM     60 HG   SER P   7       6.959  60.834  80.416  1.00 34.80 LIG 0.21  HD
ENDBRANCH 58 59
ENDBRANCH 57 58
BRANCH 57 61
ATOM     61  C   SER P   7      10.159  60.453  83.180  1.00 34.43 LIG 0.20  C 
ATOM     62 O    SER P   7      11.406  60.357  83.301  1.00 34.68 LIG-0.65  OA
ATOM     63 OXT  SER P   7       9.374  60.749  84.106  1.00 35.29 LIG-0.65  OA
ENDBRANCH 57 61
ENDBRANCH 54 57
ENDBRANCH 51 53
ENDBRANCH 49 51
ENDBRANCH 46 47
BRANCH 46 64
ATOM     64  CB  TRP P   5       5.554  54.997  85.659  1.00 25.45 LIG 0.07  C 
BRANCH 64 65
ATOM     65  CG  TRP P   5       4.350  54.378  86.305  1.00 25.18 LIG-0.03  A 
ATOM     66  CD1 TRP P   5       3.633  54.871  87.363  1.00 25.03 LIG 0.10  A 
ATOM     67  NE1 TRP P   5       2.645  53.984  87.720  1.00 24.37 LIG-0.36  N 
ATOM     68  CE2 TRP P   5       2.707  52.894  86.893  1.00 24.69 LIG 0.04  A 
ATOM     69 HE1  TRP P   5       2.080  54.095  88.359  1.00 24.37 LIG 0.17  HD
ATOM     70  CZ2 TRP P   5       1.920  51.737  86.865  1.00 24.50 LIG 0.03  A 
ATOM     71  CD2 TRP P   5       3.773  53.111  85.986  1.00 24.80 LIG-0.00  A 
ATOM     72  CH2 TRP P   5       2.214  50.790  85.909  1.00 24.87 LIG 0.00  A 
ATOM     73  CZ3 TRP P   5       3.266  50.974  84.993  1.00 24.98 LIG 0.00  A 
ATOM     74  CE3 TRP P   5       4.051  52.132  85.022  1.00 25.01 LIG 0.01  A 
ENDBRANCH 64 65
ENDBRANCH 46 64
ENDBRANCH 44 46
ENDBRANCH 1 42
TORSDOF 30
ENDMDL
MODEL 3
USER: ADFR SOLUTION from run 196
USER: SCORE 24.909488 LL:  -6.948 LR: -19.561 RR:   0.000 FEB: -10.612
USER: RMSD 3.574847
USER: SEED 195
USER: STATUS no improvement in best in 2 clusters for 5 generations
USER: GENES 32
USER: genes 0 Translation |==|  0.46110 0.41455 0.59187
USER: genes 1 Rotation |==|  0.51388 0.55940 0.44231 0.99290
USER: genes 2 Torsion [CB]-CA--N-[C] |==|  0.51883
USER: genes 3 Torsion [N]-C--CA-[N] |==|  0.43217
USER: genes 4 Torsion [C]-CA--CB-[CG] |==|  0.11512
USER: genes 5 Torsion [CA]-CB--CG-[OD2] |==|  0.65677
USER: genes 6 Torsion [C]-CA--N-[C] |==|  0.80908
USER: genes 7 Torsion [N]-C--CA-[N] |==|  0.37125
USER: genes 8 Torsion [C]-CA--N-[C] |==|  0.75082
USER: genes 9 Torsion [N]-C--CA-[N] |==|  0.54630
USER: genes 10 Torsion [C]-CA--N-[H3] |==|  0.95504
USER: genes 11 Torsion [C]-CA--CB-[CG] |==|  0.86278
USER: genes 12 Torsion [CA]-CB--CG-[CD] |==|  0.75411
USER: genes 13 Torsion [CB]-CG--CD-[OE2] |==|  0.62777
USER: genes 14 Torsion [C]-CA--CB-[CG] |==|  0.39541
USER: genes 15 Torsion [CA]-CB--CG-[CD2] |==|  0.18036
USER: genes 16 Torsion [N]-CA--CB-[CG] |==|  0.75347
USER: genes 17 Torsion [CA]-CB--CG-[CD] |==|  0.52953
USER: genes 18 Torsion [CB]-CG--CD-[CE] |==|  0.30404
USER: genes 19 Torsion [CG]-CD--CE-[NZ] |==|  0.29851
USER: genes 20 Torsion [CD]-CE--NZ-[HZ2] |==|  0.56383
USER: genes 21 Torsion [N]-CA--C-[N] |==|  0.91531
USER: genes 22 Torsion [C]-N--CA-[C] |==|  0.82716
USER: genes 23 Torsion [N]-CA--C-[N] |==|  0.94163
USER: genes 24 Torsion [C]-N--CA-[CB] |==|  0.50869
USER: genes 25 Torsion [N]-CA--C-[N] |==|  0.43875
USER: genes 26 Torsion [C]-N--CA-[CB] |==|  0.86889
USER: genes 27 Torsion [N]-CA--CB-[OG] |==|  0.78549
USER: genes 28 Torsion [CA]-CB--OG-[HG] |==|  0.49885
USER: genes 29 Torsion [N]-CA--C-[O] |==|  0.27064
USER: genes 30 Torsion [N]-CA--CB-[CG] |==|  0.30698
USER: genes 31 Torsion [CA]-CB--CG-[CD1] |==|  0.77023
ROOT
ATOM      1  CA  LYS P   4       2.290  55.644  82.919  1.00 24.08 LIG 0.18  C 
ENDROOT
BRANCH 1 2
ATOM      2  N   LYS P   4       2.496  55.333  81.507  1.00 23.78 LIG-0.35  N 
ATOM      3 H    LYS P   4       2.058  54.648  81.228  1.00 23.78 LIG 0.16  HD
ATOM      4  C   ASP P   3       3.299  56.063  80.737  1.00 23.78 LIG 0.24  C 
ATOM      5 O    ASP P   3       3.939  57.029  81.161  1.00 23.70 LIG-0.27  OA
BRANCH 4 6
ATOM      6  CA  ASP P   3       3.417  55.622  79.284  1.00 23.69 LIG 0.19  C 
BRANCH 6 7
ATOM      7  CB  ASP P   3       4.446  54.492  79.178  1.00 23.04 LIG 0.15  C 
BRANCH 7 8
ATOM      8  CG  ASP P   3       4.333  53.481  80.308  1.00 22.74 LIG 0.17  C 
ATOM      9 OD2  ASP P   3       5.340  53.256  81.016  1.00 21.45 LIG-0.65  OA
ATOM     10 OD1  ASP P   3       3.230  52.911  80.488  1.00 22.26 LIG-0.65  OA
ENDBRANCH 7 8
ENDBRANCH 6 7
BRANCH 6 11
ATOM     11  N   ASP P   3       3.811  56.741  78.429  1.00 24.40 LIG-0.35  N 
ATOM     12  C   LEU P   2       3.006  57.770  78.182  1.00 25.13 LIG 0.24  C 
ATOM     13 O    LEU P   2       1.871  57.866  78.648  1.00 24.84 LIG-0.27  OA
ATOM     14 H    ASP P   3       4.605  56.671  78.106  1.00 24.40 LIG 0.16  HD
BRANCH 12 15
ATOM     15  CA  LEU P   2       3.577  58.859  77.277  1.00 25.73 LIG 0.18  C 
BRANCH 15 16
ATOM     16  N   LEU P   2       2.648  59.283  76.231  1.00 26.50 LIG-0.35  N 
ATOM     17 H    LEU P   2       2.139  59.939  76.458  1.00 26.50 LIG 0.16  HD
ATOM     18  C   GLU P   1       2.605  58.697  75.037  1.00 27.13 LIG 0.25  C 
ATOM     19 O    GLU P   1       3.330  57.749  74.726  1.00 26.76 LIG-0.27  OA
BRANCH 18 20
ATOM     20  CA  GLU P   1       1.588  59.260  74.042  1.00 27.85 LIG 0.28  C 
BRANCH 20 21
ATOM     21  N   GLU P   1       1.365  58.289  72.936  1.00 27.86 LIG-0.07  N 
ATOM     22 H2   GLU P   1       1.356  58.721  72.158  1.00 27.86 LIG 0.28  HD
ATOM     23 H3   GLU P   1       2.019  57.686  72.932  1.00 27.86 LIG 0.28  HD
ATOM     24 H1   GLU P   1       0.584  57.878  73.055  1.00 27.86 LIG 0.28  HD
ENDBRANCH 20 21
BRANCH 20 25
ATOM     25  CB  GLU P   1       0.268  59.557  74.764  1.00 28.74 LIG 0.05  C 
BRANCH 25 26
ATOM     26  CG  GLU P   1      -0.257  58.415  75.629  1.00 29.95 LIG 0.12  C 
BRANCH 26 27
ATOM     27  CD  GLU P   1      -1.145  57.444  74.871  1.00 30.73 LIG 0.17  C 
ATOM     28 OE2  GLU P   1      -2.215  57.089  75.399  1.00 30.75 LIG-0.65  OA
ATOM     29 OE1  GLU P   1      -0.775  57.023  73.755  1.00 31.83 LIG-0.65  OA
ENDBRANCH 26 27
ENDBRANCH 25 26
ENDBRANCH 20 25
ENDBRANCH 18 20
ENDBRANCH 15 16
BRANCH 15 30
ATOM     30  CB  LEU P   2       3.990  60.058  78.137  1.00 26.14 LIG 0.04  C 
BRANCH 30 31
ATOM     31  CG  LEU P   2       5.266  60.811  77.743  1.00 26.56 LIG-0.02  C 
ATOM     32  CD2 LEU P   2       5.069  61.467  76.387  1.00 26.97 LIG 0.01  C 
ATOM     33  CD1 LEU P   2       6.448  59.835  77.702  1.00 26.91 LIG 0.01  C 
ENDBRANCH 30 31
ENDBRANCH 15 30
ENDBRANCH 12 15
ENDBRANCH 6 11
ENDBRANCH 4 6
ENDBRANCH 1 2
BRANCH 1 34
ATOM     34  CB  LYS P   4       1.457  54.543  83.585  1.00 23.66 LIG 0.04  C 
BRANCH 34 35
ATOM     35  CG  LYS P   4      -0.067  54.739  83.525  1.00 23.42 LIG 0.00  C 
BRANCH 35 36
ATOM     36  CD  LYS P   4      -0.768  53.729  84.441  1.00 22.86 LIG 0.03  C 
BRANCH 36 37
ATOM     37  CE  LYS P   4      -1.388  54.384  85.686  1.00 22.94 LIG 0.23  C 
BRANCH 37 38
ATOM     38  NZ  LYS P   4      -2.884  54.439  85.611  1.00 22.16 LIG-0.08  N 
ATOM     39 HZ3  LYS P   4      -3.132  54.605  84.772  1.00 22.16 LIG 0.27  HD
ATOM     40 HZ1  LYS P   4      -3.224  53.659  85.872  1.00 22.16 LIG 0.27  HD
ATOM     41 HZ2  LYS P   4      -3.185  55.087  86.142  1.00 22.16 LIG 0.27  HD
ENDBRANCH 37 38
ENDBRANCH 36 37
ENDBRANCH 35 36
ENDBRANCH 34 35
ENDBRANCH 1 34
BRANCH 1 42
ATOM     42  C   LYS P   4       3.602  55.787  83.684  1.00 24.65 LIG 0.24  C 
ATOM     43 O    LYS P   4       3.686  56.552  84.639  1.00 24.26 LIG-0.27  OA
ATOM     44  N   TRP P   5       4.627  55.060  83.256  1.00 25.14 LIG-0.35  N 
ATOM     45 H    TRP P   5       4.609  54.552  82.563  1.00 25.14 LIG 0.16  HD
BRANCH 44 46
ATOM     46  CA  TRP P   5       5.897  55.084  83.969  1.00 26.12 LIG 0.18  C 
BRANCH 46 47
ATOM     47  C   TRP P   5       6.625  56.427  84.043  1.00 26.95 LIG 0.24  C 
ATOM     48 O    TRP P   5       7.454  56.628  84.924  1.00 26.69 LIG-0.27  OA
ATOM     49  N   ALA P   6       6.305  57.341  83.133  1.00 28.22 LIG-0.35  N 
ATOM     50 H    ALA P   6       5.721  57.220  82.513  1.00 28.22 LIG 0.16  HD
BRANCH 49 51
ATOM     51  CA  ALA P   6       6.941  58.654  83.119  1.00 29.75 LIG 0.17  C 
ATOM     52  CB  ALA P   6       6.333  59.520  82.026  1.00 29.57 LIG 0.04  C 
BRANCH 51 53
ATOM     53  C   ALA P   6       6.818  59.364  84.460  1.00 31.01 LIG 0.24  C 
ATOM     54  N   SER P   7       7.720  60.314  84.689  1.00 32.38 LIG-0.34  N 
ATOM     55 H    SER P   7       8.341  60.513  84.128  1.00 32.38 LIG 0.16  HD
ATOM     56 O    ALA P   6       5.928  59.060  85.254  1.00 31.33 LIG-0.27  OA
BRANCH 54 57
ATOM     57  CA  SER P   7       7.757  61.118  85.906  1.00 33.79 LIG 0.21  C 
BRANCH 57 58
ATOM     58  CB  SER P   7       6.355  61.643  86.240  1.00 34.23 LIG 0.20  C 
BRANCH 58 59
ATOM     59 OG   SER P   7       6.024  62.738  85.402  1.00 34.80 LIG-0.40  OA
ATOM     60 HG   SER P   7       5.253  63.012  85.591  1.00 34.80 LIG 0.21  HD
ENDBRANCH 58 59
ENDBRANCH 57 58
BRANCH 57 61
ATOM     61  C   SER P   7       8.314  60.356  87.092  1.00 34.43 LIG 0.20  C 
ATOM     62 O    SER P   7       9.526  60.518  87.378  1.00 34.68 LIG-0.65  OA
ATOM     63 OXT  SER P   7       7.531  59.603  87.710  1.00 35.29 LIG-0.65  OA
ENDBRANCH 57 61
ENDBRANCH 54 57
ENDBRANCH 51 53
ENDBRANCH 49 51
ENDBRANCH 46 47
BRANCH 46 64
ATOM     64  CB  TRP P   5       6.816  54.018  83.359  1.00 25.45 LIG 0.07  C 
BRANCH 64 65
ATOM     65  CG  TRP P   5       7.958  54.636  82.608  1.00 25.18 LIG-0.03  A 
ATOM     66  CD1 TRP P   5       7.945  55.106  81.322  1.00 25.03 LIG 0.10  A 
ATOM     67  NE1 TRP P   5       9.203  55.529  80.959  1.00 24.37 LIG-0.36  N 
ATOM     68  CE2 TRP P   5      10.056  55.337  82.013  1.00 24.69 LIG 0.04  A 
ATOM     69 HE1  TRP P   5       9.418  55.859  80.195  1.00 24.37 LIG 0.17  HD
ATOM     70  CZ2 TRP P   5      11.424  55.608  82.126  1.00 24.50 LIG 0.03  A 
ATOM     71  CD2 TRP P   5       9.302  54.775  83.072  1.00 24.80 LIG-0.00  A 
ATOM     72  CH2 TRP P   5      12.036  55.308  83.323  1.00 24.87 LIG 0.00  A 
ATOM     73  CZ3 TRP P   5      11.316  54.749  84.395  1.00 24.98 LIG 0.00  A 
ATOM     74  CE3 TRP P   5       9.948  54.480  84.281  1.00 25.01 LIG 0.01  A 
ENDBRANCH 64 65
ENDBRANCH 46 64
ENDBRANCH 44 46
ENDBRANCH 1 42
TORSDOF 30
ENDMDL
MODEL 4
USER: ADFR SOLUTION from run 8
USER: SCORE 24.947998 LL:  -7.738 LR: -18.968 RR:   0.000 FEB: -10.019
USER: RMSD 3.392450
USER: SEED 887009
USER: STATUS no improvement in best in 4 clusters for 5 generations
USER: GENES 32
USER: genes 0 Translation |==|  0.44089 0.40714 0.58621
USER: genes 1 Rotation |==|  0.54925 0.54111 0.39588 0.98481
USER: genes 2 Torsion [CB]-CA--N-[C] |==|  0.51712
USER: genes 3 Torsion [N]-C--CA-[N] |==|  0.42431
USER: genes 4 Torsion [C]-CA--CB-[CG] |==|  0.07277
USER: genes 5 Torsion [CA]-CB--CG-[OD2] |==|  0.68198
USER: genes 6 Torsion [C]-CA--N-[C] |==|  0.76679
USER: genes 7 Torsion [N]-C--CA-[N] |==|  0.43841
USER: genes 8 Torsion [C]-CA--N-[C] |==|  0.79368
USER: genes 9 Torsion [N]-C--CA-[N] |==|  0.92788
USER: genes 10 Torsion [C]-CA--N-[H3] |==|  0.56070
USER: genes 11 Torsion [C]-CA--CB-[CG] |==|  0.89964
USER: genes 12 Torsion [CA]-CB--CG-[CD] |==|  0.79862
USER: genes 13 Torsion [CB]-CG--CD-[OE2] |==|  0.56535
USER: genes 14 Torsion [C]-CA--CB-[CG] |==|  0.46953
USER: genes 15 Torsion [CA]-CB--CG-[CD2] |==|  0.83235
USER: genes 16 Torsion [N]-CA--CB-[CG] |==|  0.54096
USER: genes 17 Torsion [CA]-CB--CG-[CD] |==|  0.55483
USER: genes 18 Torsion [CB]-CG--CD-[CE] |==|  0.56887
USER: genes 19 Torsion [CG]-CD--CE-[NZ] |==|  0.20615
USER: genes 20 Torsion [CD]-CE--NZ-[HZ2] |==|  0.78197
USER: genes 21 Torsion [N]-CA--C-[N] |==|  0.89359
USER: genes 22 Torsion [C]-N--CA-[C] |==|  0.68456
USER: genes 23 Torsion [N]-CA--C-[N] |==|  0.04391
USER: genes 24 Torsion [C]-N--CA-[CB] |==|  0.50141
USER: genes 25 Torsion [N]-CA--C-[N] |==|  0.48850
USER: genes 26 Torsion [C]-N--CA-[CB] |==|  0.38485
USER: genes 27 Torsion [N]-CA--CB-[OG] |==|  0.82714
USER: genes 28 Torsion [CA]-CB--OG-[HG] |==|  0.53136
USER: genes 29 Torsion [N]-CA--C-[O] |==|  0.12853
USER: genes 30 Torsion [N]-CA--CB-[CG] |==|  0.81587
USER: genes 31 Torsion [CA]-CB--CG-[CD1] |==|  0.37418
ROOT
ATOM      1  CA  LYS P   4       1.866  55.494  82.779  1.00 24.08 LIG 0.18  C 
ENDROOT
BRANCH 1 2
ATOM      2  N   LYS P   4       2.132  55.291  81.358  1.00 23.78 LIG-0.35  N 
ATOM      3 H    LYS P   4       1.598  54.738  80.973  1.00 23.78 LIG 0.16  HD
ATOM      4  C   ASP P   3       3.123  55.921  80.732  1.00 23.78 LIG 0.24  C 
ATOM      5 O    ASP P   3       3.895  56.693  81.305  1.00 23.70 LIG-0.27  OA
BRANCH 4 6
ATOM      6  CA  ASP P   3       3.282  55.613  79.249  1.00 23.69 LIG 0.19  C 
BRANCH 6 7
ATOM      7  CB  ASP P   3       4.143  54.356  79.080  1.00 23.04 LIG 0.15  C 
BRANCH 7 8
ATOM      8  CG  ASP P   3       4.075  53.427  80.282  1.00 22.74 LIG 0.17  C 
ATOM      9 OD2  ASP P   3       5.111  53.249  80.962  1.00 21.45 LIG-0.65  OA
ATOM     10 OD1  ASP P   3       2.980  52.876  80.547  1.00 22.26 LIG-0.65  OA
ENDBRANCH 7 8
ENDBRANCH 6 7
BRANCH 6 11
ATOM     11  N   ASP P   3       3.894  56.738  78.544  1.00 24.40 LIG-0.35  N 
ATOM     12  C   LEU P   2       3.188  57.775  78.104  1.00 25.13 LIG 0.24  C 
ATOM     13 O    LEU P   2       1.970  57.873  78.251  1.00 24.84 LIG-0.27  OA
ATOM     14 H    ASP P   3       4.745  56.666  78.444  1.00 24.40 LIG 0.16  HD
BRANCH 12 15
ATOM     15  CA  LEU P   2       3.984  58.870  77.397  1.00 25.73 LIG 0.18  C 
BRANCH 15 16
ATOM     16  N   LEU P   2       3.166  59.693  76.509  1.00 26.50 LIG-0.35  N 
ATOM     17 H    LEU P   2       2.997  60.479  76.814  1.00 26.50 LIG 0.16  HD
ATOM     18  C   GLU P   1       2.729  59.250  75.332  1.00 27.13 LIG 0.25  C 
ATOM     19 O    GLU P   1       2.965  58.117  74.908  1.00 26.76 LIG-0.27  OA
BRANCH 18 20
ATOM     20  CA  GLU P   1       1.894  60.232  74.507  1.00 27.85 LIG 0.28  C 
BRANCH 20 21
ATOM     21  N   GLU P   1       1.228  61.216  75.405  1.00 27.86 LIG-0.07  N 
ATOM     22 H2   GLU P   1       1.801  61.864  75.615  1.00 27.86 LIG 0.28  HD
ATOM     23 H3   GLU P   1       0.523  61.566  74.991  1.00 27.86 LIG 0.28  HD
ATOM     24 H1   GLU P   1       0.960  60.805  76.149  1.00 27.86 LIG 0.28  HD
ENDBRANCH 20 21
BRANCH 20 25
ATOM     25  CB  GLU P   1       2.794  60.957  73.499  1.00 28.74 LIG 0.05  C 
BRANCH 25 26
ATOM     26  CG  GLU P   1       4.198  61.272  74.008  1.00 29.95 LIG 0.12  C 
BRANCH 26 27
ATOM     27  CD  GLU P   1       4.230  62.389  75.036  1.00 30.73 LIG 0.17  C 
ATOM     28 OE2  GLU P   1       5.291  63.022  75.186  1.00 30.75 LIG-0.65  OA
ATOM     29 OE1  GLU P   1       3.204  62.631  75.705  1.00 31.83 LIG-0.65  OA
ENDBRANCH 26 27
ENDBRANCH 25 26
ENDBRANCH 20 25
ENDBRANCH 18 20
ENDBRANCH 15 16
BRANCH 15 30
ATOM     30  CB  LEU P   2       4.670  59.747  78.450  1.00 26.14 LIG 0.04  C 
BRANCH 30 31
ATOM     31  CG  LEU P   2       5.725  60.748  77.966  1.00 26.56 LIG-0.02  C 
ATOM     32  CD2 LEU P   2       6.857  60.001  77.282  1.00 26.97 LIG 0.01  C 
ATOM     33  CD1 LEU P   2       6.254  61.553  79.159  1.00 26.91 LIG 0.01  C 
ENDBRANCH 30 31
ENDBRANCH 15 30
ENDBRANCH 12 15
ENDBRANCH 6 11
ENDBRANCH 4 6
ENDBRANCH 1 2
BRANCH 1 34
ATOM     34  CB  LYS P   4       0.772  54.529  83.253  1.00 23.66 LIG 0.04  C 
BRANCH 34 35
ATOM     35  CG  LYS P   4       0.144  54.861  84.617  1.00 23.42 LIG 0.00  C 
BRANCH 35 36
ATOM     36  CD  LYS P   4      -0.542  53.621  85.201  1.00 22.86 LIG 0.03  C 
BRANCH 36 37
ATOM     37  CE  LYS P   4      -1.663  53.971  86.193  1.00 22.94 LIG 0.23  C 
BRANCH 37 38
ATOM     38  NZ  LYS P   4      -2.890  54.484  85.501  1.00 22.16 LIG-0.08  N 
ATOM     39 HZ3  LYS P   4      -3.042  53.999  84.770  1.00 22.16 LIG 0.27  HD
ATOM     40 HZ1  LYS P   4      -3.588  54.422  86.049  1.00 22.16 LIG 0.27  HD
ATOM     41 HZ2  LYS P   4      -2.768  55.335  85.271  1.00 22.16 LIG 0.27  HD
ENDBRANCH 37 38
ENDBRANCH 36 37
ENDBRANCH 35 36
ENDBRANCH 34 35
ENDBRANCH 1 34
BRANCH 1 42
ATOM     42  C   LYS P   4       3.105  55.282  83.643  1.00 24.65 LIG 0.24  C 
ATOM     43 O    LYS P   4       3.326  56.010  84.605  1.00 24.26 LIG-0.27  OA
ATOM     44  N   TRP P   5       3.919  54.295  83.290  1.00 25.14 LIG-0.35  N 
ATOM     45 H    TRP P   5       3.813  53.800  82.595  1.00 25.14 LIG 0.16  HD
BRANCH 44 46
ATOM     46  CA  TRP P   5       5.090  53.979  84.097  1.00 26.12 LIG 0.18  C 
BRANCH 46 47
ATOM     47  C   TRP P   5       6.458  54.230  83.462  1.00 26.95 LIG 0.24  C 
ATOM     48 O    TRP P   5       7.465  53.740  83.960  1.00 26.69 LIG-0.27  OA
ATOM     49  N   ALA P   6       6.491  55.002  82.380  1.00 28.22 LIG-0.35  N 
ATOM     50 H    ALA P   6       5.797  55.360  82.022  1.00 28.22 LIG 0.16  HD
BRANCH 49 51
ATOM     51  CA  ALA P   6       7.747  55.303  81.701  1.00 29.75 LIG 0.17  C 
ATOM     52  CB  ALA P   6       7.493  56.212  80.508  1.00 29.57 LIG 0.04  C 
BRANCH 51 53
ATOM     53  C   ALA P   6       8.759  55.955  82.632  1.00 31.01 LIG 0.24  C 
ATOM     54  N   SER P   7       9.959  56.180  82.105  1.00 32.38 LIG-0.34  N 
ATOM     55 H    SER P   7      10.163  55.965  81.297  1.00 32.38 LIG 0.16  HD
ATOM     56 O    ALA P   6       8.454  56.247  83.788  1.00 31.33 LIG-0.27  OA
BRANCH 54 57
ATOM     57  CA  SER P   7      11.056  56.811  82.830  1.00 33.79 LIG 0.21  C 
BRANCH 57 58
ATOM     58  CB  SER P   7      12.378  56.095  82.525  1.00 34.23 LIG 0.20  C 
BRANCH 58 59
ATOM     59 OG   SER P   7      12.322  54.747  82.960  1.00 34.80 LIG-0.40  OA
ATOM     60 HG   SER P   7      13.092  54.411  82.930  1.00 34.80 LIG 0.21  HD
ENDBRANCH 58 59
ENDBRANCH 57 58
BRANCH 57 61
ATOM     61  C   SER P   7      11.191  58.288  82.518  1.00 34.43 LIG 0.20  C 
ATOM     62 O    SER P   7      10.147  58.987  82.520  1.00 34.68 LIG-0.65  OA
ATOM     63 OXT  SER P   7      12.337  58.720  82.266  1.00 35.29 LIG-0.65  OA
ENDBRANCH 57 61
ENDBRANCH 54 57
ENDBRANCH 51 53
ENDBRANCH 49 51
ENDBRANCH 46 47
BRANCH 46 64
ATOM     64  CB  TRP P   5       4.982  52.520  84.559  1.00 25.45 LIG 0.07  C 
BRANCH 64 65
ATOM     65  CG  TRP P   5       3.834  52.322  85.503  1.00 25.18 LIG-0.03  A 
ATOM     66  CD1 TRP P   5       2.909  51.312  85.481  1.00 25.03 LIG 0.10  A 
ATOM     67  NE1 TRP P   5       1.964  51.512  86.460  1.00 24.37 LIG-0.36  N 
ATOM     68  CE2 TRP P   5       2.266  52.664  87.137  1.00 24.69 LIG 0.04  A 
ATOM     69 HE1  TRP P   5       1.294  50.998  86.621  1.00 24.37 LIG 0.17  HD
ATOM     70  CZ2 TRP P   5       1.606  53.280  88.207  1.00 24.50 LIG 0.03  A 
ATOM     71  CD2 TRP P   5       3.442  53.201  86.559  1.00 24.80 LIG-0.00  A 
ATOM     72  CH2 TRP P   5       2.141  54.451  88.696  1.00 24.87 LIG 0.00  A 
ATOM     73  CZ3 TRP P   5       3.309  55.010  88.144  1.00 24.98 LIG 0.00  A 
ATOM     74  CE3 TRP P   5       3.968  54.393  87.076  1.00 25.01 LIG 0.01  A 
ENDBRANCH 64 65
ENDBRANCH 46 64
ENDBRANCH 44 46
ENDBRANCH 1 42
TORSDOF 30
ENDMDL
