MODEL 1
USER: ADFR SOLUTION from run 134
USER: SCORE 14.256491 LL:  -1.545 LR: -12.839 RR:   0.000 FEB: -10.154
USER: RMSD 1.208814
USER: SEED 133
USER: STATUS no improvement in best in 3 clusters for 5 generations
USER: GENES 11
USER: genes 0 Translation |==|  0.55609 0.55795 0.49732
USER: genes 1 Rotation |==|  0.53983 0.46812 0.51507 0.99716
USER: genes 2 Torsion [N]-CA--C-[N] |==|  0.39311
USER: genes 3 Torsion [N]-CA--C-[O] |==|  0.41343
USER: genes 4 Torsion [C]-CA--CB-[CG] |==|  0.34126
USER: genes 5 Torsion [CA]-CB--CG-[CD] |==|  0.11613
USER: genes 6 Torsion [CB]-CG--CD-[NE] |==|  0.51206
USER: genes 7 Torsion [CG]-CD--NE-[CZ] |==|  0.62734
USER: genes 8 Torsion [C]-CA--N-[C] |==|  0.71026
USER: genes 9 Torsion [N]-C--CA-[CB] |==|  0.68226
USER: genes 10 Torsion [N]-C--CA-[N] |==|  0.58188
ROOT
ATOM      1  CA  ARG B   4      -2.186  14.544  12.686  0.80 38.14 LIG 0.18  C 
ENDROOT
BRANCH 1 2
ATOM      2  C   ARG B   4      -1.793  14.515  11.193  0.80 39.25 LIG 0.24  C 
ATOM      3 O    ARG B   4      -0.598  14.383  10.878  0.80 39.33 LIG-0.27  OA
ATOM      4  N   PRO B   5      -2.787  14.522  10.264  0.80 40.23 LIG-0.34  N 
ATOM      5  CA  PRO B   5      -2.475  14.502   8.825  0.80 40.82 LIG 0.19  C 
ATOM      6  CD  PRO B   5      -4.244  14.393  10.469  0.80 40.52 LIG 0.13  C 
ATOM      7  CB  PRO B   5      -3.854  14.292   8.172  0.80 40.82 LIG 0.04  C 
ATOM      8  CG  PRO B   5      -4.665  13.626   9.242  0.80 40.73 LIG 0.02  C 
BRANCH 5 9
ATOM      9  C   PRO B   5      -1.861  15.839   8.381  0.80 41.28 LIG 0.20  C 
ATOM     10 O    PRO B   5      -1.027  15.838   7.438  0.80 41.33 LIG-0.65  OA
ATOM     11 OXT  PRO B   5      -2.234  16.876   8.989  0.80 41.80 LIG-0.65  OA
ENDBRANCH 5 9
ENDBRANCH 1 2
BRANCH 1 12
ATOM     12  CB  ARG B   4      -2.103  15.978  13.247  0.80 37.56 LIG 0.04  C 
BRANCH 12 13
ATOM     13  CG  ARG B   4      -3.392  16.530  13.867  0.80 36.72 LIG 0.02  C 
BRANCH 13 14
ATOM     14  CD  ARG B   4      -4.103  15.490  14.713  0.80 36.17 LIG 0.14  C 
BRANCH 14 15
ATOM     15  NE  ARG B   4      -5.388  15.952  15.237  0.80 35.68 LIG-0.23  N 
ATOM     16 HE   ARG B   4      -5.920  16.355  14.695  0.80 35.68 LIG 0.18  HD
ATOM     17  CZ  ARG B   4      -5.791  15.793  16.496  0.80 35.42 LIG 0.67  C 
ATOM     18  NH2 ARG B   4      -6.993  16.213  16.867  0.80 34.99 LIG-0.23  N 
ATOM     19  NH1 ARG B   4      -5.012  15.186  17.382  0.80 35.13 LIG-0.23  N 
ATOM     20 2HH2 ARG B   4      -7.253  16.110  17.681  0.80 34.99 LIG 0.17  HD
ATOM     21 1HH2 ARG B   4      -7.512  16.589  16.295  0.80 34.99 LIG 0.17  HD
ATOM     22 2HH1 ARG B   4      -5.280  15.087  18.193  0.80 35.13 LIG 0.17  HD
ATOM     23 1HH1 ARG B   4      -4.239  14.893  17.145  0.80 35.13 LIG 0.17  HD
ENDBRANCH 14 15
ENDBRANCH 13 14
ENDBRANCH 12 13
ENDBRANCH 1 12
BRANCH 1 24
ATOM     24  N   ARG B   4      -1.253  13.663  13.393  0.80 37.32 LIG-0.35  N 
ATOM     25 H    ARG B   4      -0.474  14.010  13.502  0.80 37.32 LIG 0.16  HD
ATOM     26  C   PRO B   3      -1.567  12.443  13.831  0.80 36.53 LIG 0.24  C 
ATOM     27 O    PRO B   3      -2.682  11.929  13.664  0.80 36.51 LIG-0.27  OA
BRANCH 26 28
ATOM     28  CA  PRO B   3      -0.446  11.679  14.545  0.80 35.73 LIG 0.18  C 
ATOM     29  CB  PRO B   3      -0.034  10.449  13.745  0.80 35.57 LIG 0.04  C 
ATOM     30  CG  PRO B   3      -1.053   9.460  14.138  0.80 35.32 LIG 0.02  C 
ATOM     31  CD  PRO B   3      -1.110   9.640  15.645  0.80 35.29 LIG 0.13  C 
ATOM     32  N   PRO B   3      -0.882  11.085  15.813  0.80 35.22 LIG-0.34  N 
ATOM     33  C   GLY B   2      -1.020  11.711  17.001  0.80 34.72 LIG 0.25  C 
ATOM     34 O    GLY B   2      -0.762  12.918  17.163  0.80 34.22 LIG-0.27  OA
BRANCH 33 35
ATOM     35  CA  GLY B   2      -1.492  10.881  18.172  0.80 34.38 LIG 0.47  C 
ATOM     36  N   GLY B   2      -2.235  11.713  19.117  0.80 34.02 LIG 0.61  N 
ENDBRANCH 33 35
ENDBRANCH 26 28
ENDBRANCH 1 24
TORSDOF 9
ENDMDL
MODEL 2
USER: ADFR SOLUTION from run 150
USER: SCORE 12.305681 LL:  -1.801 LR: -11.085 RR:   0.000 FEB:  -8.400
USER: RMSD 2.298536
USER: SEED 149
USER: STATUS no improvement in best in 2 clusters for 5 generations
USER: GENES 11
USER: genes 0 Translation |==|  0.54587 0.54685 0.47651
USER: genes 1 Rotation |==|  0.58756 0.42269 0.57704 0.98002
USER: genes 2 Torsion [N]-CA--C-[N] |==|  0.13970
USER: genes 3 Torsion [N]-CA--C-[O] |==|  0.50884
USER: genes 4 Torsion [C]-CA--CB-[CG] |==|  0.55869
USER: genes 5 Torsion [CA]-CB--CG-[CD] |==|  0.76252
USER: genes 6 Torsion [CB]-CG--CD-[NE] |==|  0.50647
USER: genes 7 Torsion [CG]-CD--NE-[CZ] |==|  0.72224
USER: genes 8 Torsion [C]-CA--N-[C] |==|  0.58226
USER: genes 9 Torsion [N]-C--CA-[CB] |==|  0.77689
USER: genes 10 Torsion [N]-C--CA-[N] |==|  0.51939
ROOT
ATOM      1  CA  ARG B   4      -2.331  14.361  12.249  0.80 38.14 LIG 0.18  C 
ENDROOT
BRANCH 1 2
ATOM      2  C   ARG B   4      -1.692  14.729  10.892  0.80 39.25 LIG 0.24  C 
ATOM      3 O    ARG B   4      -1.627  15.922  10.552  0.80 39.33 LIG-0.27  OA
ATOM      4  N   PRO B   5      -1.117  13.738  10.160  0.80 40.23 LIG-0.34  N 
ATOM      5  CA  PRO B   5      -0.498  14.025   8.856  0.80 40.82 LIG 0.19  C 
ATOM      6  CD  PRO B   5      -0.862  12.335  10.544  0.80 40.52 LIG 0.13  C 
ATOM      7  CB  PRO B   5       0.205  12.701   8.503  0.80 40.82 LIG 0.04  C 
ATOM      8  CG  PRO B   5       0.435  12.047   9.832  0.80 40.73 LIG 0.02  C 
BRANCH 5 9
ATOM      9  C   PRO B   5      -1.568  14.369   7.807  0.80 41.28 LIG 0.20  C 
ATOM     10 O    PRO B   5      -1.205  14.581   6.620  0.80 41.33 LIG-0.65  OA
ATOM     11 OXT  PRO B   5      -2.764  14.415   8.196  0.80 41.80 LIG-0.65  OA
ENDBRANCH 5 9
ENDBRANCH 1 2
BRANCH 1 12
ATOM     12  CB  ARG B   4      -2.723  15.630  13.033  0.80 37.56 LIG 0.04  C 
BRANCH 12 13
ATOM     13  CG  ARG B   4      -2.890  15.456  14.548  0.80 36.72 LIG 0.02  C 
BRANCH 13 14
ATOM     14  CD  ARG B   4      -4.284  14.979  14.912  0.80 36.17 LIG 0.14  C 
BRANCH 14 15
ATOM     15  NE  ARG B   4      -4.493  14.856  16.354  0.80 35.68 LIG-0.23  N 
ATOM     16 HE   ARG B   4      -4.662  15.573  16.797  0.80 35.68 LIG 0.18  HD
ATOM     17  CZ  ARG B   4      -4.438  13.709  17.029  0.80 35.42 LIG 0.67  C 
ATOM     18  NH2 ARG B   4      -4.681  13.694  18.333  0.80 34.99 LIG-0.23  N 
ATOM     19  NH1 ARG B   4      -4.173  12.570  16.403  0.80 35.13 LIG-0.23  N 
ATOM     20 2HH2 ARG B   4      -4.646  12.953  18.769  0.80 34.99 LIG 0.17  HD
ATOM     21 1HH2 ARG B   4      -4.874  14.424  18.743  0.80 34.99 LIG 0.17  HD
ATOM     22 2HH1 ARG B   4      -4.140  11.834  16.846  0.80 35.13 LIG 0.17  HD
ATOM     23 1HH1 ARG B   4      -4.035  12.568  15.554  0.80 35.13 LIG 0.17  HD
ENDBRANCH 14 15
ENDBRANCH 13 14
ENDBRANCH 12 13
ENDBRANCH 1 12
BRANCH 1 24
ATOM     24  N   ARG B   4      -1.338  13.585  12.995  0.80 37.32 LIG-0.35  N 
ATOM     25 H    ARG B   4      -0.527  13.793  12.801  0.80 37.32 LIG 0.16  HD
ATOM     26  C   PRO B   3      -1.647  12.646  13.891  0.80 36.53 LIG 0.24  C 
ATOM     27 O    PRO B   3      -2.812  12.327  14.166  0.80 36.51 LIG-0.27  OA
BRANCH 26 28
ATOM     28  CA  PRO B   3      -0.460  11.944  14.561  0.80 35.73 LIG 0.18  C 
ATOM     29  CB  PRO B   3       0.112  10.861  13.654  0.80 35.57 LIG 0.04  C 
ATOM     30  CG  PRO B   3      -0.792   9.725  13.907  0.80 35.32 LIG 0.02  C 
ATOM     31  CD  PRO B   3      -0.903   9.736  15.422  0.80 35.29 LIG 0.13  C 
ATOM     32  N   PRO B   3      -0.851  11.172  15.745  0.80 35.22 LIG-0.34  N 
ATOM     33  C   GLY B   2      -1.088  11.649  16.986  0.80 34.72 LIG 0.25  C 
ATOM     34 O    GLY B   2      -0.979  12.853  17.280  0.80 34.22 LIG-0.27  OA
BRANCH 33 35
ATOM     35  CA  GLY B   2      -1.486  10.650  18.049  0.80 34.38 LIG 0.47  C 
ATOM     36  N   GLY B   2      -1.864  11.343  19.279  0.80 34.02 LIG 0.61  N 
ENDBRANCH 33 35
ENDBRANCH 26 28
ENDBRANCH 1 24
TORSDOF 9
ENDMDL
