MODEL 1
USER: ADFR SOLUTION from run 31
USER: SCORE 16.286502 LL:  -3.034 LR: -15.495 RR:   0.000 FEB:  -8.634
USER: RMSD 4.652986
USER: SEED 30
USER: STATUS searching
USER: GENES 25
USER: genes 0 Translation |==|  0.43419 0.57576 0.56074
USER: genes 1 Rotation |==|  0.25204 0.44135 0.43988 0.92598
USER: genes 2 Torsion [CB]-CA--N-[C] |==|  0.12637
USER: genes 3 Torsion [N]-C--CA-[N] |==|  0.55928
USER: genes 4 Torsion [C]-CA--CB-[CG] |==|  0.34425
USER: genes 5 Torsion [CA]-CB--CG-[CD] |==|  0.73507
USER: genes 6 Torsion [CB]-CG--CD-[NE] |==|  0.33418
USER: genes 7 Torsion [CG]-CD--NE-[HE] |==|  0.92493
USER: genes 8 Torsion [C]-CA--N-[C] |==|  0.14364
USER: genes 9 Torsion [N]-C--CA-[N] |==|  0.48889
USER: genes 10 Torsion [C]-CA--N-[C] |==|  0.75997
USER: genes 11 Torsion [N]-C--CA-[N] |==|  0.58064
USER: genes 12 Torsion [N]-CA--C-[N] |==|  0.58719
USER: genes 13 Torsion [C]-N--CA-[C] |==|  0.55992
USER: genes 14 Torsion [N]-CA--C-[N] |==|  0.44578
USER: genes 15 Torsion [C]-N--CA-[C] |==|  0.82123
USER: genes 16 Torsion [N]-CA--C-[N] |==|  0.46350
USER: genes 17 Torsion [C]-N--CA-[CB] |==|  0.53647
USER: genes 18 Torsion [N]-CA--CB-[OG] |==|  0.08197
USER: genes 19 Torsion [CA]-CB--OG-[HG] |==|  0.74097
USER: genes 20 Torsion [N]-CA--C-[OXT] |==|  0.82739
USER: genes 21 Torsion [N]-CA--CB-[OG] |==|  0.73049
USER: genes 22 Torsion [CA]-CB--OG-[HG] |==|  0.93827
USER: genes 23 Torsion [N]-CA--CB-[CG] |==|  0.14292
USER: genes 24 Torsion [CA]-CB--CG-[CD2] |==|  0.24860
ROOT
ATOM      1  CA  ALA B 364      30.947 -13.338  -6.818  1.00 28.10 LIG 0.17  C 
ATOM      2  CB  ALA B 364      30.496 -12.884  -8.195  1.00 26.12 LIG 0.04  C 
ENDROOT
BRANCH 1 3
ATOM      3  N   ALA B 364      30.211 -12.614  -5.786  1.00 32.12 LIG-0.35  N 
ATOM      4 H    ALA B 364      30.698 -12.314  -5.143  1.00 32.12 LIG 0.16  HD
ATOM      5  C   ARG B 363      28.895 -12.449  -5.865  1.00 35.84 LIG 0.24  C 
ATOM      6 O    ARG B 363      28.231 -12.877  -6.807  1.00 34.68 LIG-0.27  OA
BRANCH 5 7
ATOM      7  CA  ARG B 363      28.227 -11.694  -4.712  1.00 40.75 LIG 0.18  C 
BRANCH 7 8
ATOM      8  CB  ARG B 363      28.951 -12.016  -3.397  1.00 43.30 LIG 0.04  C 
BRANCH 8 9
ATOM      9  CG  ARG B 363      29.459 -10.779  -2.666  1.00 48.42 LIG 0.02  C 
BRANCH 9 10
ATOM     10  CD  ARG B 363      30.916 -10.462  -2.975  1.00 50.65 LIG 0.14  C 
BRANCH 10 11
ATOM     11  NE  ARG B 363      31.050  -9.132  -3.569  1.00 53.91 LIG-0.23  N 
ATOM     12 HE   ARG B 363      30.379  -8.820  -4.006  1.00 53.91 LIG 0.18  HD
ATOM     13  CZ  ARG B 363      32.139  -8.372  -3.482  1.00 54.64 LIG 0.67  C 
ATOM     14  NH2 ARG B 363      32.165  -7.178  -4.060  1.00 53.91 LIG-0.23  N 
ATOM     15  NH1 ARG B 363      33.205  -8.804  -2.818  1.00 54.84 LIG-0.23  N 
ATOM     16 1HH2 ARG B 363      31.478  -6.895  -4.493  1.00 53.91 LIG 0.17  HD
ATOM     17 2HH2 ARG B 363      32.869  -6.687  -4.003  1.00 53.91 LIG 0.17  HD
ATOM     18 1HH1 ARG B 363      33.193  -9.577  -2.443  1.00 54.84 LIG 0.17  HD
ATOM     19 2HH1 ARG B 363      33.907  -8.310  -2.764  1.00 54.84 LIG 0.17  HD
ENDBRANCH 10 11
ENDBRANCH 9 10
ENDBRANCH 8 9
ENDBRANCH 7 8
BRANCH 7 20
ATOM     20  N   ARG B 363      26.797 -11.949  -4.573  1.00 43.94 LIG-0.35  N 
ATOM     21  C   ALA B 362      26.278 -13.173  -4.508  1.00 45.99 LIG 0.24  C 
ATOM     22 O    ALA B 362      26.954 -14.202  -4.575  1.00 46.10 LIG-0.27  OA
ATOM     23 H    ARG B 363      26.320 -11.234  -4.537  1.00 43.94 LIG 0.16  HD
BRANCH 21 24
ATOM     24  CA  ALA B 362      24.763 -13.238  -4.357  1.00 47.39 LIG 0.17  C 
ATOM     25  CB  ALA B 362      24.335 -12.583  -3.047  1.00 48.25 LIG 0.04  C 
BRANCH 24 26
ATOM     26  N   ALA B 362      24.315 -14.625  -4.393  1.00 48.90 LIG-0.35  N 
ATOM     27  C   GLY B 361      24.051 -15.248  -5.536  1.00 49.70 LIG 0.25  C 
ATOM     28 O    GLY B 361      24.157 -14.705  -6.639  1.00 50.52 LIG-0.27  OA
ATOM     29 H    ALA B 362      24.240 -14.992  -3.619  1.00 48.90 LIG 0.16  HD
BRANCH 27 30
ATOM     30  CA  GLY B 361      23.597 -16.688  -5.422  1.00 49.65 LIG 0.47  C 
ATOM     31  N   GLY B 361      23.978 -17.484  -6.617  1.00 49.05 LIG 0.61  N 
ENDBRANCH 27 30
ENDBRANCH 24 26
ENDBRANCH 21 24
ENDBRANCH 7 20
ENDBRANCH 5 7
ENDBRANCH 1 3
BRANCH 1 32
ATOM     32  C   ALA B 364      32.437 -13.055  -6.617  1.00 26.37 LIG 0.24  C 
ATOM     33  N   HIS B 365      33.201 -13.042  -7.706  1.00 23.61 LIG-0.35  N 
ATOM     34 H    HIS B 365      32.906 -13.169  -8.503  1.00 23.61 LIG 0.16  HD
ATOM     35 O    ALA B 364      32.886 -12.858  -5.488  1.00 24.80 LIG-0.27  OA
BRANCH 33 36
ATOM     36  CA  HIS B 365      34.640 -12.803  -7.625  1.00 22.03 LIG 0.18  C 
BRANCH 36 37
ATOM     37  C   HIS B 365      35.213 -12.315  -8.953  1.00 20.85 LIG 0.24  C 
ATOM     38 O    HIS B 365      34.609 -12.498 -10.007  1.00 18.88 LIG-0.27  OA
ATOM     39  N   SER B 366      36.389 -11.698  -8.888  1.00 20.61 LIG-0.34  N 
ATOM     40 H    SER B 366      36.816 -11.565  -8.153  1.00 20.61 LIG 0.16  HD
BRANCH 39 41
ATOM     41  CA  SER B 366      37.067 -11.183 -10.072  1.00 22.02 LIG 0.20  C 
BRANCH 41 42
ATOM     42  C   SER B 366      37.449 -12.326 -11.002  1.00 20.47 LIG 0.24  C 
ATOM     43 O    SER B 366      37.407 -13.493 -10.611  1.00 18.56 LIG-0.27  OA
ATOM     44  N   SER B 367      37.826 -11.983 -12.231  1.00 19.80 LIG-0.34  N 
ATOM     45 H    SER B 367      37.854 -11.171 -12.515  1.00 19.80 LIG 0.16  HD
BRANCH 44 46
ATOM     46  CA  SER B 367      38.232 -12.982 -13.215  1.00 20.54 LIG 0.21  C 
BRANCH 46 47
ATOM     47  CB  SER B 367      38.917 -12.316 -14.415  1.00 20.61 LIG 0.20  C 
BRANCH 47 48
ATOM     48 OG   SER B 367      39.577 -11.121 -14.040  1.00 20.78 LIG-0.40  OA
ATOM     49 HG   SER B 367      39.062 -10.467 -14.157  1.00 20.78 LIG 0.21  HD
ENDBRANCH 47 48
ENDBRANCH 46 47
BRANCH 46 50
ATOM     50  C   SER B 367      39.181 -13.999 -12.588  1.00 22.30 LIG 0.20  C 
ATOM     51 O    SER B 367      38.826 -15.198 -12.562  1.00 20.52 LIG-0.65  OA
ATOM     52 OXT  SER B 367      40.275 -13.584 -12.145  1.00 22.33 LIG-0.65  OA
ENDBRANCH 46 50
ENDBRANCH 44 46
ENDBRANCH 41 42
BRANCH 41 53
ATOM     53  CB  SER B 366      38.337 -10.427  -9.667  1.00 25.29 LIG 0.20  C 
BRANCH 53 54
ATOM     54 OG   SER B 366      38.100  -9.031  -9.599  1.00 34.76 LIG-0.40  OA
ATOM     55 HG   SER B 366      37.431  -8.837 -10.069  1.00 34.76 LIG 0.21  HD
ENDBRANCH 53 54
ENDBRANCH 41 53
ENDBRANCH 39 41
ENDBRANCH 36 37
BRANCH 36 56
ATOM     56  CB  HIS B 365      35.356 -14.093  -7.224  1.00 23.96 LIG 0.10  C 
BRANCH 56 57
ATOM     57  CG  HIS B 365      34.985 -15.267  -8.075  1.00 26.34 LIG 0.06  A 
ATOM     58 ND1  HIS B 365      33.895 -16.067  -7.803  1.00 28.92 LIG-0.24  NA
ATOM     59  CE1 HIS B 365      33.773 -16.979  -8.750  1.00 27.03 LIG 0.23  A 
ATOM     60 NE2  HIS B 365      34.746 -16.801  -9.627  1.00 28.88 LIG-0.25  NA
ATOM     61  CD2 HIS B 365      35.519 -15.737  -9.227  1.00 26.83 LIG 0.14  A 
ENDBRANCH 56 57
ENDBRANCH 36 56
ENDBRANCH 33 36
ENDBRANCH 1 32
TORSDOF 23
ENDMDL
MODEL 2
USER: ADFR SOLUTION from run 128
USER: SCORE 16.716824 LL:  -3.275 LR: -14.314 RR:   0.000 FEB:  -7.453
USER: RMSD 4.669346
USER: SEED 127
USER: STATUS no improvement in best in 4 clusters for 5 generations
USER: GENES 25
USER: genes 0 Translation |==|  0.44123 0.56197 0.55978
USER: genes 1 Rotation |==|  0.41083 0.47946 0.47683 0.99101
USER: genes 2 Torsion [CB]-CA--N-[C] |==|  0.87011
USER: genes 3 Torsion [N]-C--CA-[N] |==|  0.03426
USER: genes 4 Torsion [C]-CA--CB-[CG] |==|  0.22438
USER: genes 5 Torsion [CA]-CB--CG-[CD] |==|  0.60630
USER: genes 6 Torsion [CB]-CG--CD-[NE] |==|  0.31625
USER: genes 7 Torsion [CG]-CD--NE-[HE] |==|  0.08763
USER: genes 8 Torsion [C]-CA--N-[C] |==|  0.75330
USER: genes 9 Torsion [N]-C--CA-[N] |==|  0.93919
USER: genes 10 Torsion [C]-CA--N-[C] |==|  0.81462
USER: genes 11 Torsion [N]-C--CA-[N] |==|  0.25231
USER: genes 12 Torsion [N]-CA--C-[N] |==|  0.45980
USER: genes 13 Torsion [C]-N--CA-[C] |==|  0.57620
USER: genes 14 Torsion [N]-CA--C-[N] |==|  0.45884
USER: genes 15 Torsion [C]-N--CA-[C] |==|  0.81667
USER: genes 16 Torsion [N]-CA--C-[N] |==|  0.46084
USER: genes 17 Torsion [C]-N--CA-[CB] |==|  0.54693
USER: genes 18 Torsion [N]-CA--CB-[OG] |==|  0.07270
USER: genes 19 Torsion [CA]-CB--OG-[HG] |==|  0.72769
USER: genes 20 Torsion [N]-CA--C-[OXT] |==|  0.80987
USER: genes 21 Torsion [N]-CA--CB-[OG] |==|  0.71883
USER: genes 22 Torsion [CA]-CB--OG-[HG] |==|  0.98281
USER: genes 23 Torsion [N]-CA--CB-[CG] |==|  0.13729
USER: genes 24 Torsion [CA]-CB--CG-[CD2] |==|  0.23943
ROOT
ATOM      1  CA  ALA B 364      31.122 -13.597  -6.839  1.00 28.10 LIG 0.17  C 
ATOM      2  CB  ALA B 364      30.365 -12.492  -7.556  1.00 26.12 LIG 0.04  C 
ENDROOT
BRANCH 1 3
ATOM      3  N   ALA B 364      30.542 -13.826  -5.519  1.00 32.12 LIG-0.35  N 
ATOM      4 H    ALA B 364      30.408 -14.653  -5.325  1.00 32.12 LIG 0.16  HD
ATOM      5  C   ARG B 363      30.258 -12.814  -4.706  1.00 35.84 LIG 0.24  C 
ATOM      6 O    ARG B 363      30.477 -11.642  -5.007  1.00 34.68 LIG-0.27  OA
BRANCH 5 7
ATOM      7  CA  ARG B 363      29.629 -13.173  -3.356  1.00 40.75 LIG 0.18  C 
BRANCH 7 8
ATOM      8  CB  ARG B 363      30.287 -12.343  -2.244  1.00 43.30 LIG 0.04  C 
BRANCH 8 9
ATOM      9  CG  ARG B 363      29.733 -10.928  -2.134  1.00 48.42 LIG 0.02  C 
BRANCH 9 10
ATOM     10  CD  ARG B 363      30.804  -9.893  -1.820  1.00 50.65 LIG 0.14  C 
BRANCH 10 11
ATOM     11  NE  ARG B 363      30.985  -8.967  -2.939  1.00 53.91 LIG-0.23  N 
ATOM     12 HE   ARG B 363      30.299  -8.789  -3.424  1.00 53.91 LIG 0.18  HD
ATOM     13  CZ  ARG B 363      32.138  -8.383  -3.257  1.00 54.64 LIG 0.67  C 
ATOM     14  NH2 ARG B 363      32.201  -7.559  -4.296  1.00 53.91 LIG-0.23  N 
ATOM     15  NH1 ARG B 363      33.229  -8.621  -2.540  1.00 54.84 LIG-0.23  N 
ATOM     16 1HH2 ARG B 363      31.497  -7.403  -4.764  1.00 53.91 LIG 0.17  HD
ATOM     17 2HH2 ARG B 363      32.946  -7.181  -4.500  1.00 53.91 LIG 0.17  HD
ATOM     18 1HH1 ARG B 363      33.192  -9.156  -1.867  1.00 54.84 LIG 0.17  HD
ATOM     19 2HH1 ARG B 363      33.972  -8.242  -2.748  1.00 54.84 LIG 0.17  HD
ENDBRANCH 10 11
ENDBRANCH 9 10
ENDBRANCH 8 9
ENDBRANCH 7 8
BRANCH 7 20
ATOM     20  N   ARG B 363      29.685 -14.593  -3.024  1.00 43.94 LIG-0.35  N 
ATOM     21  C   ALA B 362      28.740 -15.461  -3.377  1.00 45.99 LIG 0.24  C 
ATOM     22 O    ALA B 362      27.725 -15.144  -4.002  1.00 46.10 LIG-0.27  OA
ATOM     23 H    ARG B 363      30.386 -14.817  -2.578  1.00 43.94 LIG 0.16  HD
BRANCH 21 24
ATOM     24  CA  ALA B 362      28.977 -16.904  -2.946  1.00 47.39 LIG 0.17  C 
ATOM     25  CB  ALA B 362      28.168 -17.220  -1.692  1.00 48.25 LIG 0.04  C 
BRANCH 24 26
ATOM     26  N   ALA B 362      30.396 -17.125  -2.697  1.00 48.90 LIG-0.35  N 
ATOM     27  C   GLY B 361      31.296 -17.082  -3.672  1.00 49.70 LIG 0.25  C 
ATOM     28 O    GLY B 361      31.002 -16.861  -4.850  1.00 50.52 LIG-0.27  OA
ATOM     29 H    ALA B 362      30.589 -17.284  -1.874  1.00 48.90 LIG 0.16  HD
BRANCH 27 30
ATOM     30  CA  GLY B 361      32.734 -17.330  -3.266  1.00 49.65 LIG 0.47  C 
ATOM     31  N   GLY B 361      33.093 -18.768  -3.354  1.00 49.05 LIG 0.61  N 
ENDBRANCH 27 30
ENDBRANCH 24 26
ENDBRANCH 21 24
ENDBRANCH 7 20
ENDBRANCH 5 7
ENDBRANCH 1 3
BRANCH 1 32
ATOM     32  C   ALA B 364      32.589 -13.209  -6.645  1.00 26.37 LIG 0.24  C 
ATOM     33  N   HIS B 365      33.370 -13.246  -7.722  1.00 23.61 LIG-0.35  N 
ATOM     34 H    HIS B 365      33.096 -13.460  -8.508  1.00 23.61 LIG 0.16  HD
ATOM     35 O    ALA B 364      33.005 -12.886  -5.534  1.00 24.80 LIG-0.27  OA
BRANCH 33 36
ATOM     36  CA  HIS B 365      34.791 -12.915  -7.645  1.00 22.03 LIG 0.18  C 
BRANCH 36 37
ATOM     37  C   HIS B 365      35.323 -12.376  -8.969  1.00 20.85 LIG 0.24  C 
ATOM     38 O    HIS B 365      34.685 -12.512 -10.010  1.00 18.88 LIG-0.27  OA
ATOM     39  N   SER B 366      36.505 -11.769  -8.917  1.00 20.61 LIG-0.34  N 
ATOM     40 H    SER B 366      36.957 -11.669  -8.192  1.00 20.61 LIG 0.16  HD
BRANCH 39 41
ATOM     41  CA  SER B 366      37.148 -11.210 -10.101  1.00 22.02 LIG 0.20  C 
BRANCH 41 42
ATOM     42  C   SER B 366      37.528 -12.319 -11.072  1.00 20.47 LIG 0.24  C 
ATOM     43 O    SER B 366      37.532 -13.496 -10.708  1.00 18.56 LIG-0.27  OA
ATOM     44  N   SER B 367      37.853 -11.936 -12.303  1.00 19.80 LIG-0.34  N 
ATOM     45 H    SER B 367      37.849 -11.118 -12.569  1.00 19.80 LIG 0.16  HD
BRANCH 44 46
ATOM     46  CA  SER B 367      38.251 -12.900 -13.325  1.00 20.54 LIG 0.21  C 
BRANCH 46 47
ATOM     47  CB  SER B 367      38.960 -12.197 -14.489  1.00 20.61 LIG 0.20  C 
BRANCH 47 48
ATOM     48 OG   SER B 367      39.574 -10.991 -14.073  1.00 20.78 LIG-0.40  OA
ATOM     49 HG   SER B 367      39.072 -10.343 -14.258  1.00 20.78 LIG 0.21  HD
ENDBRANCH 47 48
ENDBRANCH 46 47
BRANCH 46 50
ATOM     50  C   SER B 367      39.176 -13.960 -12.733  1.00 22.30 LIG 0.20  C 
ATOM     51 O    SER B 367      38.750 -15.134 -12.652  1.00 20.52 LIG-0.65  OA
ATOM     52 OXT  SER B 367      40.320 -13.604 -12.373  1.00 22.33 LIG-0.65  OA
ENDBRANCH 46 50
ENDBRANCH 44 46
ENDBRANCH 41 42
BRANCH 41 53
ATOM     53  CB  SER B 366      38.415 -10.444  -9.702  1.00 25.29 LIG 0.20  C 
BRANCH 53 54
ATOM     54 OG   SER B 366      38.180  -9.045  -9.683  1.00 34.76 LIG-0.40  OA
ATOM     55 HG   SER B 366      37.409  -8.886  -9.977  1.00 34.76 LIG 0.21  HD
ENDBRANCH 53 54
ENDBRANCH 41 53
ENDBRANCH 39 41
ENDBRANCH 36 37
BRANCH 36 56
ATOM     56  CB  HIS B 365      35.591 -14.160  -7.263  1.00 23.96 LIG 0.10  C 
BRANCH 56 57
ATOM     57  CG  HIS B 365      35.256 -15.359  -8.094  1.00 26.34 LIG 0.06  A 
ATOM     58 ND1  HIS B 365      34.267 -16.253  -7.745  1.00 28.92 LIG-0.24  NA
ATOM     59  CE1 HIS B 365      34.150 -17.169  -8.690  1.00 27.03 LIG 0.23  A 
ATOM     60 NE2  HIS B 365      35.029 -16.901  -9.639  1.00 28.88 LIG-0.25  NA
ATOM     61  CD2 HIS B 365      35.735 -15.776  -9.290  1.00 26.83 LIG 0.14  A 
ENDBRANCH 56 57
ENDBRANCH 36 56
ENDBRANCH 33 36
ENDBRANCH 1 32
TORSDOF 23
ENDMDL
MODEL 3
USER: ADFR SOLUTION from run 195
USER: SCORE 16.030245 LL:  -3.144 LR: -14.227 RR:   0.000 FEB:  -7.366
USER: RMSD 4.519367
USER: SEED 194
USER: STATUS no improvement in best in 19 clusters for 5 generations
USER: GENES 25
USER: genes 0 Translation |==|  0.43950 0.56256 0.56066
USER: genes 1 Rotation |==|  0.37805 0.47131 0.47363 0.98333
USER: genes 2 Torsion [CB]-CA--N-[C] |==|  0.87735
USER: genes 3 Torsion [N]-C--CA-[N] |==|  0.90942
USER: genes 4 Torsion [C]-CA--CB-[CG] |==|  0.08542
USER: genes 5 Torsion [CA]-CB--CG-[CD] |==|  0.23266
USER: genes 6 Torsion [CB]-CG--CD-[NE] |==|  0.50678
USER: genes 7 Torsion [CG]-CD--NE-[HE] |==|  0.90070
USER: genes 8 Torsion [C]-CA--N-[C] |==|  0.84623
USER: genes 9 Torsion [N]-C--CA-[N] |==|  0.13563
USER: genes 10 Torsion [C]-CA--N-[C] |==|  0.16730
USER: genes 11 Torsion [N]-C--CA-[N] |==|  0.30026
USER: genes 12 Torsion [N]-CA--C-[N] |==|  0.48333
USER: genes 13 Torsion [C]-N--CA-[C] |==|  0.57344
USER: genes 14 Torsion [N]-CA--C-[N] |==|  0.45737
USER: genes 15 Torsion [C]-N--CA-[C] |==|  0.81365
USER: genes 16 Torsion [N]-CA--C-[N] |==|  0.46632
USER: genes 17 Torsion [C]-N--CA-[CB] |==|  0.54149
USER: genes 18 Torsion [N]-CA--CB-[OG] |==|  0.08101
USER: genes 19 Torsion [CA]-CB--OG-[HG] |==|  0.76443
USER: genes 20 Torsion [N]-CA--C-[OXT] |==|  0.82839
USER: genes 21 Torsion [N]-CA--CB-[OG] |==|  0.75788
USER: genes 22 Torsion [CA]-CB--OG-[HG] |==|  0.89756
USER: genes 23 Torsion [N]-CA--CB-[CG] |==|  0.14016
USER: genes 24 Torsion [CA]-CB--CG-[CD2] |==|  0.24854
ROOT
ATOM      1  CA  ALA B 364      31.079 -13.586  -6.820  1.00 28.10 LIG 0.17  C 
ATOM      2  CB  ALA B 364      30.360 -12.580  -7.701  1.00 26.12 LIG 0.04  C 
ENDROOT
BRANCH 1 3
ATOM      3  N   ALA B 364      30.459 -13.628  -5.499  1.00 32.12 LIG-0.35  N 
ATOM      4 H    ALA B 364      30.338 -14.419  -5.185  1.00 32.12 LIG 0.16  HD
ATOM      5  C   ARG B 363      30.120 -12.512  -4.861  1.00 35.84 LIG 0.24  C 
ATOM      6 O    ARG B 363      30.320 -11.394  -5.332  1.00 34.68 LIG-0.27  OA
BRANCH 5 7
ATOM      7  CA  ARG B 363      29.453 -12.679  -3.492  1.00 40.75 LIG 0.18  C 
BRANCH 7 8
ATOM      8  CB  ARG B 363      30.523 -12.663  -2.391  1.00 43.30 LIG 0.04  C 
BRANCH 8 9
ATOM      9  CG  ARG B 363      31.733 -11.804  -2.736  1.00 48.42 LIG 0.02  C 
BRANCH 9 10
ATOM     10  CD  ARG B 363      31.524 -10.329  -2.419  1.00 50.65 LIG 0.14  C 
BRANCH 10 11
ATOM     11  NE  ARG B 363      32.686  -9.535  -2.818  1.00 53.91 LIG-0.23  N 
ATOM     12 HE   ARG B 363      33.463  -9.891  -2.727  1.00 53.91 LIG 0.18  HD
ATOM     13  CZ  ARG B 363      32.625  -8.300  -3.311  1.00 54.64 LIG 0.67  C 
ATOM     14  NH2 ARG B 363      33.740  -7.660  -3.641  1.00 53.91 LIG-0.23  N 
ATOM     15  NH1 ARG B 363      31.451  -7.704  -3.474  1.00 54.84 LIG-0.23  N 
ATOM     16 1HH2 ARG B 363      34.503  -8.042  -3.535  1.00 53.91 LIG 0.17  HD
ATOM     17 2HH2 ARG B 363      33.699  -6.862  -3.960  1.00 53.91 LIG 0.17  HD
ATOM     18 1HH1 ARG B 363      30.727  -8.114  -3.261  1.00 54.84 LIG 0.17  HD
ATOM     19 2HH1 ARG B 363      31.415  -6.906  -3.793  1.00 54.84 LIG 0.17  HD
ENDBRANCH 10 11
ENDBRANCH 9 10
ENDBRANCH 8 9
ENDBRANCH 7 8
BRANCH 7 20
ATOM     20  N   ARG B 363      28.622 -13.873  -3.368  1.00 43.94 LIG-0.35  N 
ATOM     21  C   ALA B 362      27.621 -14.153  -4.199  1.00 45.99 LIG 0.24  C 
ATOM     22 O    ALA B 362      27.293 -13.424  -5.138  1.00 46.10 LIG-0.27  OA
ATOM     23 H    ARG B 363      28.841 -14.379  -2.708  1.00 43.94 LIG 0.16  HD
BRANCH 21 24
ATOM     24  CA  ALA B 362      26.872 -15.450  -3.914  1.00 47.39 LIG 0.17  C 
ATOM     25  CB  ALA B 362      25.618 -15.535  -4.779  1.00 48.25 LIG 0.04  C 
BRANCH 24 26
ATOM     26  N   ALA B 362      26.514 -15.522  -2.504  1.00 48.90 LIG-0.35  N 
ATOM     27  C   GLY B 361      25.735 -14.612  -1.929  1.00 49.70 LIG 0.25  C 
ATOM     28 O    GLY B 361      25.268 -13.645  -2.537  1.00 50.52 LIG-0.27  OA
ATOM     29 H    ALA B 362      26.848 -16.197  -2.088  1.00 48.90 LIG 0.16  HD
BRANCH 27 30
ATOM     30  CA  GLY B 361      25.444 -14.816  -0.456  1.00 49.65 LIG 0.47  C 
ATOM     31  N   GLY B 361      26.156 -13.824   0.390  1.00 49.05 LIG 0.61  N 
ENDBRANCH 27 30
ENDBRANCH 24 26
ENDBRANCH 21 24
ENDBRANCH 7 20
ENDBRANCH 5 7
ENDBRANCH 1 3
BRANCH 1 32
ATOM     32  C   ALA B 364      32.546 -13.192  -6.636  1.00 26.37 LIG 0.24  C 
ATOM     33  N   HIS B 365      33.318 -13.218  -7.719  1.00 23.61 LIG-0.35  N 
ATOM     34 H    HIS B 365      33.039 -13.429  -8.505  1.00 23.61 LIG 0.16  HD
ATOM     35 O    ALA B 364      32.970 -12.875  -5.525  1.00 24.80 LIG-0.27  OA
BRANCH 33 36
ATOM     36  CA  HIS B 365      34.738 -12.882  -7.652  1.00 22.03 LIG 0.18  C 
BRANCH 36 37
ATOM     37  C   HIS B 365      35.263 -12.354  -8.984  1.00 20.85 LIG 0.24  C 
ATOM     38 O    HIS B 365      34.624 -12.512 -10.022  1.00 18.88 LIG-0.27  OA
ATOM     39  N   SER B 366      36.437 -11.732  -8.942  1.00 20.61 LIG-0.34  N 
ATOM     40 H    SER B 366      36.889 -11.618  -8.219  1.00 20.61 LIG 0.16  HD
BRANCH 39 41
ATOM     41  CA  SER B 366      37.072 -11.182 -10.134  1.00 22.02 LIG 0.20  C 
BRANCH 41 42
ATOM     42  C   SER B 366      37.489 -12.301 -11.078  1.00 20.47 LIG 0.24  C 
ATOM     43 O    SER B 366      37.487 -13.474 -10.699  1.00 18.56 LIG-0.27  OA
ATOM     44  N   SER B 367      37.850 -11.933 -12.303  1.00 19.80 LIG-0.34  N 
ATOM     45 H    SER B 367      37.850 -11.118 -12.580  1.00 19.80 LIG 0.16  HD
BRANCH 44 46
ATOM     46  CA  SER B 367      38.285 -12.908 -13.300  1.00 20.54 LIG 0.21  C 
BRANCH 46 47
ATOM     47  CB  SER B 367      38.983 -12.211 -14.474  1.00 20.61 LIG 0.20  C 
BRANCH 47 48
ATOM     48 OG   SER B 367      39.616 -11.011 -14.065  1.00 20.78 LIG-0.40  OA
ATOM     49 HG   SER B 367      39.058 -10.383 -14.072  1.00 20.78 LIG 0.21  HD
ENDBRANCH 47 48
ENDBRANCH 46 47
BRANCH 46 50
ATOM     50  C   SER B 367      39.234 -13.926 -12.675  1.00 22.30 LIG 0.20  C 
ATOM     51 O    SER B 367      38.896 -15.131 -12.686  1.00 20.52 LIG-0.65  OA
ATOM     52 OXT  SER B 367      40.313 -13.507 -12.199  1.00 22.33 LIG-0.65  OA
ENDBRANCH 46 50
ENDBRANCH 44 46
ENDBRANCH 41 42
BRANCH 41 53
ATOM     53  CB  SER B 366      38.315 -10.373  -9.745  1.00 25.29 LIG 0.20  C 
BRANCH 53 54
ATOM     54 OG   SER B 366      37.976  -9.030  -9.445  1.00 34.76 LIG-0.40  OA
ATOM     55 HG   SER B 366      37.365  -8.773  -9.962  1.00 34.76 LIG 0.21  HD
ENDBRANCH 53 54
ENDBRANCH 41 53
ENDBRANCH 39 41
ENDBRANCH 36 37
BRANCH 36 56
ATOM     56  CB  HIS B 365      35.544 -14.120  -7.260  1.00 23.96 LIG 0.10  C 
BRANCH 56 57
ATOM     57  CG  HIS B 365      35.228 -15.322  -8.094  1.00 26.34 LIG 0.06  A 
ATOM     58 ND1  HIS B 365      34.200 -16.188  -7.790  1.00 28.92 LIG-0.24  NA
ATOM     59  CE1 HIS B 365      34.114 -17.114  -8.728  1.00 27.03 LIG 0.23  A 
ATOM     60 NE2  HIS B 365      35.051 -16.880  -9.629  1.00 28.88 LIG-0.25  NA
ATOM     61  CD2 HIS B 365      35.764 -15.767  -9.255  1.00 26.83 LIG 0.14  A 
ENDBRANCH 56 57
ENDBRANCH 36 56
ENDBRANCH 33 36
ENDBRANCH 1 32
TORSDOF 23
ENDMDL
