MODEL 1
USER: ADFR SOLUTION from run 132
USER: SCORE 15.968452 LL:  -3.308 LR: -13.679 RR:   0.000 FEB:  -8.011
USER: RMSD 4.010644
USER: SEED 131
USER: STATUS no improvement in best in 8 clusters for 5 generations
USER: GENES 21
USER: genes 0 Translation |==|  0.49308 0.54947 0.41807
USER: genes 1 Rotation |==|  0.50065 0.40881 0.53649 0.99026
USER: genes 2 Torsion [N]-C--CA-[N] |==|  0.51081
USER: genes 3 Torsion [C]-CA--N-[C] |==|  0.75000
USER: genes 4 Torsion [N]-C--CA-[N] |==|  0.48309
USER: genes 5 Torsion [C]-CA--N-[C] |==|  0.56402
USER: genes 6 Torsion [N]-C--CA-[N] |==|  0.27321
USER: genes 7 Torsion [N]-C--CA-[N] |==|  0.26477
USER: genes 8 Torsion [C]-CA--CB-[CG] |==|  0.71369
USER: genes 9 Torsion [CA]-CB--CG-[CD] |==|  0.15722
USER: genes 10 Torsion [CB]-CG--CD-[OE2] |==|  0.67726
USER: genes 11 Torsion [C]-N--CA-[CB] |==|  0.20364
USER: genes 12 Torsion [N]-CA--CB-[OG] |==|  0.74165
USER: genes 13 Torsion [CA]-CB--OG-[HG] |==|  0.68956
USER: genes 14 Torsion [N]-CA--C-[N] |==|  0.85436
USER: genes 15 Torsion [C]-N--CA-[CB] |==|  0.83886
USER: genes 16 Torsion [N]-CA--C-[OXT] |==|  0.13521
USER: genes 17 Torsion [N]-CA--CB-[CG] |==|  0.79574
USER: genes 18 Torsion [CA]-CB--CG-[CD] |==|  0.29994
USER: genes 19 Torsion [CB]-CG--CD-[NE] |==|  0.68838
USER: genes 20 Torsion [CG]-CD--NE-[HE] |==|  0.10153
ROOT
ATOM      1  C   GLY B 361      38.036 -11.967 -11.296  1.00 26.32 LIG 0.24  C 
ATOM      2 O    GLY B 361      38.224 -13.086 -10.820  1.00 25.16 LIG-0.27  OA
ATOM      3  N   SER B 362      38.582 -11.569 -12.440  1.00 27.60 LIG-0.34  N 
ATOM      4 H    SER B 362      38.473 -10.786 -12.779  1.00 27.60 LIG 0.16  HD
ENDROOT
BRANCH 1 5
ATOM      5  CA  GLY B 361      37.156 -10.964 -10.571  1.00 24.90 LIG 0.23  C 
BRANCH 5 6
ATOM      6  N   GLY B 361      36.705 -11.502  -9.298  1.00 24.70 LIG-0.35  N 
ATOM      7  C   GLY B 360      35.572 -12.192  -9.212  1.00 25.98 LIG 0.23  C 
ATOM      8 O    GLY B 360      34.827 -12.399 -10.180  1.00 23.45 LIG-0.27  OA
ATOM      9 H    GLY B 361      37.224 -11.335  -8.633  1.00 24.70 LIG 0.16  HD
BRANCH 7 10
ATOM     10  CA  GLY B 360      35.208 -12.721  -7.841  1.00 26.97 LIG 0.23  C 
BRANCH 10 11
ATOM     11  N   GLY B 360      33.891 -13.324  -7.865  1.00 32.20 LIG-0.35  N 
ATOM     12  C   PRO B 359      33.174 -13.443  -6.753  1.00 35.92 LIG 0.24  C 
ATOM     13 O    PRO B 359      33.570 -13.061  -5.655  1.00 37.04 LIG-0.27  OA
ATOM     14 H    GLY B 360      33.630 -13.588  -8.641  1.00 32.20 LIG 0.16  HD
BRANCH 12 15
ATOM     15  CA  PRO B 359      31.802 -14.092  -6.905  1.00 39.21 LIG 0.18  C 
ATOM     16  CB  PRO B 359      30.770 -13.500  -5.948  1.00 38.88 LIG 0.04  C 
ATOM     17  CG  PRO B 359      30.912 -14.363  -4.736  1.00 39.81 LIG 0.02  C 
ATOM     18  CD  PRO B 359      30.983 -15.747  -5.344  1.00 41.55 LIG 0.13  C 
ATOM     19  N   PRO B 359      31.803 -15.514  -6.546  1.00 42.03 LIG-0.34  N 
ATOM     20  C   GLU B 358      32.541 -16.415  -7.211  1.00 44.90 LIG 0.26  C 
ATOM     21 O    GLU B 358      33.261 -16.098  -8.159  1.00 45.02 LIG-0.27  OA
BRANCH 20 22
ATOM     22  CA  GLU B 358      32.458 -17.867  -6.743  1.00 48.47 LIG 0.40  C 
ATOM     23  N   GLU B 358      31.452 -18.617  -7.553  1.00 49.88 LIG 0.61  N 
BRANCH 22 24
ATOM     24  CB  GLU B 358      33.838 -18.523  -6.871  1.00 52.00 LIG 0.06  C 
BRANCH 24 25
ATOM     25  CG  GLU B 358      33.996 -19.454  -8.070  1.00 56.00 LIG 0.12  C 
BRANCH 25 26
ATOM     26  CD  GLU B 358      33.695 -18.765  -9.391  1.00 58.41 LIG 0.17  C 
ATOM     27 OE1  GLU B 358      34.434 -17.819  -9.749  1.00 59.40 LIG-0.65  OA
ATOM     28 OE2  GLU B 358      32.725 -19.167 -10.068  1.00 59.45 LIG-0.65  OA
ENDBRANCH 25 26
ENDBRANCH 24 25
ENDBRANCH 22 24
ENDBRANCH 20 22
ENDBRANCH 12 15
ENDBRANCH 10 11
ENDBRANCH 7 10
ENDBRANCH 5 6
ENDBRANCH 1 5
BRANCH 3 29
ATOM     29  CA  SER B 362      39.430 -12.457 -13.229  1.00 31.63 LIG 0.20  C 
BRANCH 29 30
ATOM     30  CB  SER B 362      38.577 -13.531 -13.921  1.00 29.14 LIG 0.20  C 
BRANCH 30 31
ATOM     31 OG   SER B 362      38.490 -14.708 -13.141  1.00 25.13 LIG-0.40  OA
ATOM     32 HG   SER B 362      38.906 -15.330 -13.523  1.00 25.13 LIG 0.21  HD
ENDBRANCH 30 31
ENDBRANCH 29 30
BRANCH 29 33
ATOM     33  C   SER B 362      40.323 -11.781 -14.272  1.00 35.65 LIG 0.24  C 
ATOM     34 O    SER B 362      41.531 -12.016 -14.289  1.00 37.77 LIG-0.27  OA
ATOM     35  N   ARG B 363      39.748 -10.950 -15.137  1.00 40.10 LIG-0.34  N 
ATOM     36 H    ARG B 363      38.909 -10.759 -15.143  1.00 40.10 LIG 0.16  HD
BRANCH 35 37
ATOM     37  CA  ARG B 363      40.537 -10.279 -16.176  1.00 45.15 LIG 0.18  C 
BRANCH 37 38
ATOM     38  C   ARG B 363      41.139 -11.248 -17.192  1.00 46.43 LIG 0.20  C 
ATOM     39 O    ARG B 363      42.352 -11.131 -17.470  1.00 47.78 LIG-0.65  OA
ATOM     40 OXT  ARG B 363      40.393 -12.112 -17.703  1.00 47.46 LIG-0.65  OA
ENDBRANCH 37 38
BRANCH 37 41
ATOM     41  CB  ARG B 363      41.660  -9.448 -15.547  1.00 48.51 LIG 0.04  C 
BRANCH 41 42
ATOM     42  CG  ARG B 363      41.193  -8.171 -14.871  1.00 53.09 LIG 0.02  C 
BRANCH 42 43
ATOM     43  CD  ARG B 363      41.283  -8.287 -13.359  1.00 56.16 LIG 0.14  C 
BRANCH 43 44
ATOM     44  NE  ARG B 363      39.964  -8.301 -12.732  1.00 60.73 LIG-0.23  N 
ATOM     45 HE   ARG B 363      39.327  -8.708 -13.143  1.00 60.73 LIG 0.18  HD
ATOM     46  CZ  ARG B 363      39.683  -7.724 -11.565  1.00 63.15 LIG 0.67  C 
ATOM     47  NH2 ARG B 363      38.454  -7.791 -11.065  1.00 63.96 LIG-0.23  N 
ATOM     48  NH1 ARG B 363      40.632  -7.080 -10.896  1.00 63.92 LIG-0.23  N 
ATOM     49 1HH2 ARG B 363      37.836  -8.208 -11.494  1.00 63.96 LIG 0.17  HD
ATOM     50 2HH2 ARG B 363      38.276  -7.417 -10.311  1.00 63.96 LIG 0.17  HD
ATOM     51 1HH1 ARG B 363      41.429  -7.034 -11.215  1.00 63.92 LIG 0.17  HD
ATOM     52 2HH1 ARG B 363      40.449  -6.708 -10.142  1.00 63.92 LIG 0.17  HD
ENDBRANCH 43 44
ENDBRANCH 42 43
ENDBRANCH 41 42
ENDBRANCH 37 41
ENDBRANCH 35 37
ENDBRANCH 29 33
ENDBRANCH 3 29
TORSDOF 19
ENDMDL
MODEL 2
USER: ADFR SOLUTION from run 132
USER: SCORE 16.145005 LL:  -3.593 LR: -13.585 RR:   0.000 FEB:  -7.918
USER: RMSD 4.685088
USER: SEED 131
USER: STATUS no improvement in best in 8 clusters for 5 generations
USER: GENES 21
USER: genes 0 Translation |==|  0.49192 0.54832 0.41821
USER: genes 1 Rotation |==|  0.49841 0.41168 0.54554 0.99002
USER: genes 2 Torsion [N]-C--CA-[N] |==|  0.51704
USER: genes 3 Torsion [C]-CA--N-[C] |==|  0.74444
USER: genes 4 Torsion [N]-C--CA-[N] |==|  0.47576
USER: genes 5 Torsion [C]-CA--N-[C] |==|  0.53753
USER: genes 6 Torsion [N]-C--CA-[N] |==|  0.63660
USER: genes 7 Torsion [N]-C--CA-[N] |==|  0.35569
USER: genes 8 Torsion [C]-CA--CB-[CG] |==|  0.32299
USER: genes 9 Torsion [CA]-CB--CG-[CD] |==|  0.00409
USER: genes 10 Torsion [CB]-CG--CD-[OE2] |==|  0.69738
USER: genes 11 Torsion [C]-N--CA-[CB] |==|  0.20770
USER: genes 12 Torsion [N]-CA--CB-[OG] |==|  0.74152
USER: genes 13 Torsion [CA]-CB--OG-[HG] |==|  0.69379
USER: genes 14 Torsion [N]-CA--C-[N] |==|  0.86042
USER: genes 15 Torsion [C]-N--CA-[CB] |==|  0.84312
USER: genes 16 Torsion [N]-CA--C-[OXT] |==|  0.13251
USER: genes 17 Torsion [N]-CA--CB-[CG] |==|  0.79196
USER: genes 18 Torsion [CA]-CB--CG-[CD] |==|  0.29411
USER: genes 19 Torsion [CB]-CG--CD-[NE] |==|  0.69541
USER: genes 20 Torsion [CG]-CD--NE-[HE] |==|  0.11051
ROOT
ATOM      1  C   GLY B 361      38.008 -11.993 -11.293  1.00 26.32 LIG 0.24  C 
ATOM      2 O    GLY B 361      38.239 -13.097 -10.801  1.00 25.16 LIG-0.27  OA
ATOM      3  N   SER B 362      38.528 -11.595 -12.449  1.00 27.60 LIG-0.34  N 
ATOM      4 H    SER B 362      38.390 -10.823 -12.799  1.00 27.60 LIG 0.16  HD
ENDROOT
BRANCH 1 5
ATOM      5  CA  GLY B 361      37.102 -11.009 -10.574  1.00 24.90 LIG 0.23  C 
BRANCH 5 6
ATOM      6  N   GLY B 361      36.725 -11.517  -9.267  1.00 24.70 LIG-0.35  N 
ATOM      7  C   GLY B 360      35.613 -12.229  -9.105  1.00 25.98 LIG 0.23  C 
ATOM      8 O    GLY B 360      34.827 -12.480 -10.029  1.00 23.45 LIG-0.27  OA
ATOM      9 H    GLY B 361      37.272 -11.321  -8.632  1.00 24.70 LIG 0.16  HD
BRANCH 7 10
ATOM     10  CA  GLY B 360      35.327 -12.723  -7.703  1.00 26.97 LIG 0.23  C 
BRANCH 10 11
ATOM     11  N   GLY B 360      34.000 -13.299  -7.631  1.00 32.20 LIG-0.35  N 
ATOM     12  C   PRO B 359      33.429 -13.554  -6.459  1.00 35.92 LIG 0.24  C 
ATOM     13 O    PRO B 359      33.977 -13.328  -5.383  1.00 37.04 LIG-0.27  OA
ATOM     14 H    GLY B 360      33.632 -13.453  -8.393  1.00 32.20 LIG 0.16  HD
BRANCH 12 15
ATOM     15  CA  PRO B 359      32.029 -14.158  -6.511  1.00 39.21 LIG 0.18  C 
ATOM     16  CB  PRO B 359      31.390 -14.023  -7.891  1.00 38.88 LIG 0.04  C 
ATOM     17  CG  PRO B 359      30.689 -12.705  -7.802  1.00 39.81 LIG 0.02  C 
ATOM     18  CD  PRO B 359      30.036 -12.790  -6.439  1.00 41.55 LIG 0.13  C 
ATOM     19  N   PRO B 359      31.077 -13.461  -5.640  1.00 42.03 LIG-0.34  N 
ATOM     20  C   GLU B 358      31.237 -13.408  -4.309  1.00 44.90 LIG 0.26  C 
ATOM     21 O    GLU B 358      32.195 -13.939  -3.745  1.00 45.02 LIG-0.27  OA
BRANCH 20 22
ATOM     22  CA  GLU B 358      30.178 -12.652  -3.509  1.00 48.47 LIG 0.40  C 
ATOM     23  N   GLU B 358      29.659 -13.507  -2.400  1.00 49.88 LIG 0.61  N 
BRANCH 22 24
ATOM     24  CB  GLU B 358      30.788 -11.363  -2.945  1.00 52.00 LIG 0.06  C 
BRANCH 24 25
ATOM     25  CG  GLU B 358      30.166 -10.074  -3.475  1.00 56.00 LIG 0.12  C 
BRANCH 25 26
ATOM     26  CD  GLU B 358      29.024 -10.330  -4.445  1.00 58.41 LIG 0.17  C 
ATOM     27 OE1  GLU B 358      27.948 -10.781  -3.990  1.00 59.40 LIG-0.65  OA
ATOM     28 OE2  GLU B 358      29.202 -10.080  -5.657  1.00 59.45 LIG-0.65  OA
ENDBRANCH 25 26
ENDBRANCH 24 25
ENDBRANCH 22 24
ENDBRANCH 20 22
ENDBRANCH 12 15
ENDBRANCH 10 11
ENDBRANCH 7 10
ENDBRANCH 5 6
ENDBRANCH 1 5
BRANCH 3 29
ATOM     29  CA  SER B 362      39.399 -12.468 -13.233  1.00 31.63 LIG 0.20  C 
BRANCH 29 30
ATOM     30  CB  SER B 362      38.571 -13.559 -13.928  1.00 29.14 LIG 0.20  C 
BRANCH 30 31
ATOM     31 OG   SER B 362      38.505 -14.737 -13.146  1.00 25.13 LIG-0.40  OA
ATOM     32 HG   SER B 362      38.952 -15.345 -13.516  1.00 25.13 LIG 0.21  HD
ENDBRANCH 30 31
ENDBRANCH 29 30
BRANCH 29 33
ATOM     33  C   SER B 362      40.283 -11.774 -14.272  1.00 35.65 LIG 0.24  C 
ATOM     34 O    SER B 362      41.489 -12.015 -14.308  1.00 37.77 LIG-0.27  OA
ATOM     35  N   ARG B 363      39.702 -10.922 -15.113  1.00 40.10 LIG-0.34  N 
ATOM     36 H    ARG B 363      38.864 -10.727 -15.104  1.00 40.10 LIG 0.16  HD
BRANCH 35 37
ATOM     37  CA  ARG B 363      40.483 -10.234 -16.146  1.00 45.15 LIG 0.18  C 
BRANCH 37 38
ATOM     38  C   ARG B 363      41.036 -11.181 -17.210  1.00 46.43 LIG 0.20  C 
ATOM     39 O    ARG B 363      42.240 -11.071 -17.528  1.00 47.78 LIG-0.65  OA
ATOM     40 OXT  ARG B 363      40.261 -12.020 -17.719  1.00 47.46 LIG-0.65  OA
ENDBRANCH 37 38
BRANCH 37 41
ATOM     41  CB  ARG B 363      41.641  -9.453 -15.517  1.00 48.51 LIG 0.04  C 
BRANCH 41 42
ATOM     42  CG  ARG B 363      41.226  -8.174 -14.813  1.00 53.09 LIG 0.02  C 
BRANCH 42 43
ATOM     43  CD  ARG B 363      41.281  -8.336 -13.304  1.00 56.16 LIG 0.14  C 
BRANCH 43 44
ATOM     44  NE  ARG B 363      39.947  -8.359 -12.708  1.00 60.73 LIG-0.23  N 
ATOM     45 HE   ARG B 363      39.327  -8.785 -13.125  1.00 60.73 LIG 0.18  HD
ATOM     46  CZ  ARG B 363      39.629  -7.763 -11.560  1.00 63.15 LIG 0.67  C 
ATOM     47  NH2 ARG B 363      38.390  -7.840 -11.088  1.00 63.96 LIG-0.23  N 
ATOM     48  NH1 ARG B 363      40.551  -7.089 -10.882  1.00 63.92 LIG-0.23  N 
ATOM     49 1HH2 ARG B 363      37.789  -8.276 -11.523  1.00 63.96 LIG 0.17  HD
ATOM     50 2HH2 ARG B 363      38.188  -7.453 -10.346  1.00 63.96 LIG 0.17  HD
ATOM     51 1HH1 ARG B 363      41.354  -7.037 -11.184  1.00 63.92 LIG 0.17  HD
ATOM     52 2HH1 ARG B 363      40.344  -6.705 -10.141  1.00 63.92 LIG 0.17  HD
ENDBRANCH 43 44
ENDBRANCH 42 43
ENDBRANCH 41 42
ENDBRANCH 37 41
ENDBRANCH 35 37
ENDBRANCH 29 33
ENDBRANCH 3 29
TORSDOF 19
ENDMDL
MODEL 3
USER: ADFR SOLUTION from run 14
USER: SCORE 15.438560 LL:  -3.728 LR: -13.360 RR:   0.000 FEB:  -7.692
USER: RMSD 4.469899
USER: SEED 762264
USER: STATUS searching
USER: GENES 21
USER: genes 0 Translation |==|  0.46902 0.53145 0.41578
USER: genes 1 Rotation |==|  0.50480 0.47422 0.49397 0.99928
USER: genes 2 Torsion [N]-C--CA-[N] |==|  0.48695
USER: genes 3 Torsion [C]-CA--N-[C] |==|  0.76366
USER: genes 4 Torsion [N]-C--CA-[N] |==|  0.50956
USER: genes 5 Torsion [C]-CA--N-[C] |==|  0.58023
USER: genes 6 Torsion [N]-C--CA-[N] |==|  0.60517
USER: genes 7 Torsion [N]-C--CA-[N] |==|  0.34643
USER: genes 8 Torsion [C]-CA--CB-[CG] |==|  0.33772
USER: genes 9 Torsion [CA]-CB--CG-[CD] |==|  0.96737
USER: genes 10 Torsion [CB]-CG--CD-[OE2] |==|  0.74571
USER: genes 11 Torsion [C]-N--CA-[CB] |==|  0.51117
USER: genes 12 Torsion [N]-CA--CB-[OG] |==|  0.14446
USER: genes 13 Torsion [CA]-CB--OG-[HG] |==|  0.71811
USER: genes 14 Torsion [N]-CA--C-[N] |==|  0.95743
USER: genes 15 Torsion [C]-N--CA-[CB] |==|  0.48621
USER: genes 16 Torsion [N]-CA--C-[OXT] |==|  0.49555
USER: genes 17 Torsion [N]-CA--CB-[CG] |==|  0.03789
USER: genes 18 Torsion [CA]-CB--CG-[CD] |==|  0.77705
USER: genes 19 Torsion [CB]-CG--CD-[NE] |==|  0.44872
USER: genes 20 Torsion [CG]-CD--NE-[HE] |==|  0.12274
ROOT
ATOM      1  C   GLY B 361      37.459 -12.372 -11.349  1.00 26.32 LIG 0.24  C 
ATOM      2 O    GLY B 361      37.573 -13.530 -10.946  1.00 25.16 LIG-0.27  OA
ATOM      3  N   SER B 362      37.748 -12.011 -12.595  1.00 27.60 LIG-0.34  N 
ATOM      4 H    SER B 362      37.688 -11.205 -12.888  1.00 27.60 LIG 0.16  HD
ENDROOT
BRANCH 1 5
ATOM      5  CA  GLY B 361      36.978 -11.279 -10.412  1.00 24.90 LIG 0.23  C 
BRANCH 5 6
ATOM      6  N   GLY B 361      36.596 -11.836  -9.125  1.00 24.70 LIG-0.35  N 
ATOM      7  C   GLY B 360      35.377 -12.331  -8.930  1.00 25.98 LIG 0.23  C 
ATOM      8 O    GLY B 360      34.495 -12.329  -9.800  1.00 23.45 LIG-0.27  OA
ATOM      9 H    GLY B 361      37.213 -11.815  -8.527  1.00 24.70 LIG 0.16  HD
BRANCH 7 10
ATOM     10  CA  GLY B 360      35.094 -12.901  -7.557  1.00 26.97 LIG 0.23  C 
BRANCH 10 11
ATOM     11  N   GLY B 360      33.763 -13.474  -7.512  1.00 32.20 LIG-0.35  N 
ATOM     12  C   PRO B 359      33.075 -13.513  -6.377  1.00 35.92 LIG 0.24  C 
ATOM     13 O    PRO B 359      33.510 -13.079  -5.313  1.00 37.04 LIG-0.27  OA
ATOM     14 H    GLY B 360      33.475 -13.775  -8.265  1.00 32.20 LIG 0.16  HD
BRANCH 12 15
ATOM     15  CA  PRO B 359      31.685 -14.138  -6.456  1.00 39.21 LIG 0.18  C 
ATOM     16  CB  PRO B 359      31.077 -14.026  -7.852  1.00 38.88 LIG 0.04  C 
ATOM     17  CG  PRO B 359      30.355 -12.718  -7.792  1.00 39.81 LIG 0.02  C 
ATOM     18  CD  PRO B 359      29.672 -12.800  -6.445  1.00 41.55 LIG 0.13  C 
ATOM     19  N   PRO B 359      30.702 -13.447  -5.614  1.00 42.03 LIG-0.34  N 
ATOM     20  C   GLU B 358      30.830 -13.379  -4.281  1.00 44.90 LIG 0.26  C 
ATOM     21 O    GLU B 358      31.783 -13.890  -3.689  1.00 45.02 LIG-0.27  OA
BRANCH 20 22
ATOM     22  CA  GLU B 358      29.742 -12.631  -3.513  1.00 48.47 LIG 0.40  C 
ATOM     23  N   GLU B 358      29.153 -13.512  -2.460  1.00 49.88 LIG 0.61  N 
BRANCH 22 24
ATOM     24  CB  GLU B 358      30.341 -11.370  -2.878  1.00 52.00 LIG 0.06  C 
BRANCH 24 25
ATOM     25  CG  GLU B 358      29.679 -10.063  -3.304  1.00 56.00 LIG 0.12  C 
BRANCH 25 26
ATOM     26  CD  GLU B 358      28.743 -10.238  -4.489  1.00 58.41 LIG 0.17  C 
ATOM     27 OE1  GLU B 358      27.548 -10.532  -4.263  1.00 59.40 LIG-0.65  OA
ATOM     28 OE2  GLU B 358      29.202 -10.080  -5.641  1.00 59.45 LIG-0.65  OA
ENDBRANCH 25 26
ENDBRANCH 24 25
ENDBRANCH 22 24
ENDBRANCH 20 22
ENDBRANCH 12 15
ENDBRANCH 10 11
ENDBRANCH 7 10
ENDBRANCH 5 6
ENDBRANCH 1 5
BRANCH 3 29
ATOM     29  CA  SER B 362      38.202 -12.983 -13.585  1.00 31.63 LIG 0.20  C 
BRANCH 29 30
ATOM     30  CB  SER B 362      38.557 -12.276 -14.901  1.00 29.14 LIG 0.20  C 
BRANCH 30 31
ATOM     31 OG   SER B 362      39.454 -11.202 -14.687  1.00 25.13 LIG-0.40  OA
ATOM     32 HG   SER B 362      39.032 -10.476 -14.702  1.00 25.13 LIG 0.21  HD
ENDBRANCH 30 31
ENDBRANCH 29 30
BRANCH 29 33
ATOM     33  C   SER B 362      39.375 -13.871 -13.164  1.00 35.65 LIG 0.24  C 
ATOM     34 O    SER B 362      39.635 -14.888 -13.806  1.00 37.77 LIG-0.27  OA
ATOM     35  N   ARG B 363      40.083 -13.502 -12.099  1.00 40.10 LIG-0.34  N 
ATOM     36 H    ARG B 363      39.918 -12.803 -11.625  1.00 40.10 LIG 0.16  HD
BRANCH 35 37
ATOM     37  CA  ARG B 363      41.232 -14.294 -11.647  1.00 45.15 LIG 0.18  C 
BRANCH 37 38
ATOM     38  C   ARG B 363      40.854 -15.712 -11.223  1.00 46.43 LIG 0.20  C 
ATOM     39 O    ARG B 363      39.649 -16.039 -11.267  1.00 47.78 LIG-0.65  OA
ATOM     40 OXT  ARG B 363      41.765 -16.483 -10.850  1.00 47.46 LIG-0.65  OA
ENDBRANCH 37 38
BRANCH 37 41
ATOM     41  CB  ARG B 363      41.945 -13.594 -10.484  1.00 48.51 LIG 0.04  C 
BRANCH 41 42
ATOM     42  CG  ARG B 363      41.155 -12.461  -9.856  1.00 53.09 LIG 0.02  C 
BRANCH 42 43
ATOM     43  CD  ARG B 363      41.270 -11.190 -10.681  1.00 56.16 LIG 0.14  C 
BRANCH 43 44
ATOM     44  NE  ARG B 363      40.212 -10.235 -10.364  1.00 60.73 LIG-0.23  N 
ATOM     45 HE   ARG B 363      40.022 -10.104  -9.536  1.00 60.73 LIG 0.18  HD
ATOM     46  CZ  ARG B 363      39.521  -9.553 -11.275  1.00 63.15 LIG 0.67  C 
ATOM     47  NH2 ARG B 363      38.577  -8.698 -10.897  1.00 63.96 LIG-0.23  N 
ATOM     48  NH1 ARG B 363      39.774  -9.724 -12.568  1.00 63.92 LIG-0.23  N 
ATOM     49 1HH2 ARG B 363      38.410  -8.582 -10.061  1.00 63.96 LIG 0.17  HD
ATOM     50 2HH2 ARG B 363      38.133  -8.259 -11.489  1.00 63.96 LIG 0.17  HD
ATOM     51 1HH1 ARG B 363      40.384 -10.276 -12.817  1.00 63.92 LIG 0.17  HD
ATOM     52 2HH1 ARG B 363      39.327  -9.283 -13.156  1.00 63.92 LIG 0.17  HD
ENDBRANCH 43 44
ENDBRANCH 42 43
ENDBRANCH 41 42
ENDBRANCH 37 41
ENDBRANCH 35 37
ENDBRANCH 29 33
ENDBRANCH 3 29
TORSDOF 19
ENDMDL
MODEL 4
USER: ADFR SOLUTION from run 121
USER: SCORE 14.953876 LL:  -3.426 LR: -13.279 RR:   0.000 FEB:  -7.611
USER: RMSD 3.265637
USER: SEED 120
USER: STATUS searching
USER: GENES 21
USER: genes 0 Translation |==|  0.47959 0.53503 0.41454
USER: genes 1 Rotation |==|  0.50112 0.50019 0.48081 0.99963
USER: genes 2 Torsion [N]-C--CA-[N] |==|  0.45453
USER: genes 3 Torsion [C]-CA--N-[C] |==|  0.79200
USER: genes 4 Torsion [N]-C--CA-[N] |==|  0.52673
USER: genes 5 Torsion [C]-CA--N-[C] |==|  0.59837
USER: genes 6 Torsion [N]-C--CA-[N] |==|  0.25190
USER: genes 7 Torsion [N]-C--CA-[N] |==|  0.22132
USER: genes 8 Torsion [C]-CA--CB-[CG] |==|  0.71557
USER: genes 9 Torsion [CA]-CB--CG-[CD] |==|  0.17756
USER: genes 10 Torsion [CB]-CG--CD-[OE2] |==|  0.64563
USER: genes 11 Torsion [C]-N--CA-[CB] |==|  0.49462
USER: genes 12 Torsion [N]-CA--CB-[OG] |==|  0.15304
USER: genes 13 Torsion [CA]-CB--OG-[HG] |==|  0.70331
USER: genes 14 Torsion [N]-CA--C-[N] |==|  0.98677
USER: genes 15 Torsion [C]-N--CA-[CB] |==|  0.46986
USER: genes 16 Torsion [N]-CA--C-[OXT] |==|  0.98974
USER: genes 17 Torsion [N]-CA--CB-[CG] |==|  0.79900
USER: genes 18 Torsion [CA]-CB--CG-[CD] |==|  0.23459
USER: genes 19 Torsion [CB]-CG--CD-[NE] |==|  0.67241
USER: genes 20 Torsion [CG]-CD--NE-[HE] |==|  0.91652
ROOT
ATOM      1  C   GLY B 361      37.712 -12.292 -11.378  1.00 26.32 LIG 0.24  C 
ATOM      2 O    GLY B 361      37.808 -13.450 -10.973  1.00 25.16 LIG-0.27  OA
ATOM      3  N   SER B 362      37.888 -11.956 -12.652  1.00 27.60 LIG-0.34  N 
ATOM      4 H    SER B 362      37.840 -11.150 -12.948  1.00 27.60 LIG 0.16  HD
ENDROOT
BRANCH 1 5
ATOM      5  CA  GLY B 361      37.389 -11.167 -10.411  1.00 24.90 LIG 0.23  C 
BRANCH 5 6
ATOM      6  N   GLY B 361      36.853 -11.696  -9.168  1.00 24.70 LIG-0.35  N 
ATOM      7  C   GLY B 360      35.607 -12.158  -9.104  1.00 25.98 LIG 0.23  C 
ATOM      8 O    GLY B 360      34.828 -12.148 -10.067  1.00 23.45 LIG-0.27  OA
ATOM      9 H    GLY B 361      37.400 -11.681  -8.505  1.00 24.70 LIG 0.16  HD
BRANCH 7 10
ATOM     10  CA  GLY B 360      35.159 -12.702  -7.765  1.00 26.97 LIG 0.23  C 
BRANCH 10 11
ATOM     11  N   GLY B 360      33.880 -13.371  -7.893  1.00 32.20 LIG-0.35  N 
ATOM     12  C   PRO B 359      32.978 -13.313  -6.919  1.00 35.92 LIG 0.24  C 
ATOM     13 O    PRO B 359      33.165 -12.707  -5.867  1.00 37.04 LIG-0.27  OA
ATOM     14 H    GLY B 360      33.766 -13.792  -8.634  1.00 32.20 LIG 0.16  HD
BRANCH 12 15
ATOM     15  CA  PRO B 359      31.669 -14.054  -7.171  1.00 39.21 LIG 0.18  C 
ATOM     16  CB  PRO B 359      30.503 -13.455  -6.389  1.00 38.88 LIG 0.04  C 
ATOM     17  CG  PRO B 359      30.546 -14.214  -5.101  1.00 39.81 LIG 0.02  C 
ATOM     18  CD  PRO B 359      30.759 -15.633  -5.582  1.00 41.55 LIG 0.13  C 
ATOM     19  N   PRO B 359      31.701 -15.443  -6.698  1.00 42.03 LIG-0.34  N 
ATOM     20  C   GLU B 358      32.558 -16.345  -7.199  1.00 44.90 LIG 0.26  C 
ATOM     21 O    GLU B 358      33.367 -16.057  -8.083  1.00 45.02 LIG-0.27  OA
BRANCH 20 22
ATOM     22  CA  GLU B 358      32.495 -17.759  -6.625  1.00 48.47 LIG 0.40  C 
ATOM     23  N   GLU B 358      31.361 -18.517  -7.235  1.00 49.88 LIG 0.61  N 
BRANCH 22 24
ATOM     24  CB  GLU B 358      33.822 -18.479  -6.898  1.00 52.00 LIG 0.06  C 
BRANCH 24 25
ATOM     25  CG  GLU B 358      33.783 -19.478  -8.051  1.00 56.00 LIG 0.12  C 
BRANCH 25 26
ATOM     26  CD  GLU B 358      33.503 -18.817  -9.391  1.00 58.41 LIG 0.17  C 
ATOM     27 OE1  GLU B 358      34.219 -17.849  -9.737  1.00 59.40 LIG-0.65  OA
ATOM     28 OE2  GLU B 358      32.571 -19.263 -10.095  1.00 59.45 LIG-0.65  OA
ENDBRANCH 25 26
ENDBRANCH 24 25
ENDBRANCH 22 24
ENDBRANCH 20 22
ENDBRANCH 12 15
ENDBRANCH 10 11
ENDBRANCH 7 10
ENDBRANCH 5 6
ENDBRANCH 1 5
BRANCH 3 29
ATOM     29  CA  SER B 362      38.185 -12.959 -13.670  1.00 31.63 LIG 0.20  C 
BRANCH 29 30
ATOM     30  CB  SER B 362      38.290 -12.297 -15.053  1.00 29.14 LIG 0.20  C 
BRANCH 30 31
ATOM     31 OG   SER B 362      39.239 -11.247 -15.054  1.00 25.13 LIG-0.40  OA
ATOM     32 HG   SER B 362      38.840 -10.508 -15.082  1.00 25.13 LIG 0.21  HD
ENDBRANCH 30 31
ENDBRANCH 29 30
BRANCH 29 33
ATOM     33  C   SER B 362      39.434 -13.811 -13.429  1.00 35.65 LIG 0.24  C 
ATOM     34 O    SER B 362      39.702 -14.735 -14.196  1.00 37.77 LIG-0.27  OA
ATOM     35  N   ARG B 363      40.195 -13.513 -12.379  1.00 40.10 LIG-0.34  N 
ATOM     36 H    ARG B 363      40.027 -12.880 -11.821  1.00 40.10 LIG 0.16  HD
BRANCH 35 37
ATOM     37  CA  ARG B 363      41.417 -14.274 -12.095  1.00 45.15 LIG 0.18  C 
BRANCH 37 38
ATOM     38  C   ARG B 363      41.140 -15.715 -11.667  1.00 46.43 LIG 0.20  C 
ATOM     39 O    ARG B 363      42.118 -16.469 -11.473  1.00 47.78 LIG-0.65  OA
ATOM     40 OXT  ARG B 363      39.951 -16.077 -11.533  1.00 47.46 LIG-0.65  OA
ENDBRANCH 37 38
BRANCH 37 41
ATOM     41  CB  ARG B 363      42.246 -13.577 -11.010  1.00 48.51 LIG 0.04  C 
BRANCH 41 42
ATOM     42  CG  ARG B 363      42.938 -12.307 -11.470  1.00 53.09 LIG 0.02  C 
BRANCH 42 43
ATOM     43  CD  ARG B 363      42.005 -11.112 -11.381  1.00 56.16 LIG 0.14  C 
BRANCH 43 44
ATOM     44  NE  ARG B 363      41.761 -10.510 -12.690  1.00 60.73 LIG-0.23  N 
ATOM     45 HE   ARG B 363      42.385 -10.563 -13.280  1.00 60.73 LIG 0.18  HD
ATOM     46  CZ  ARG B 363      40.636  -9.885 -13.029  1.00 63.15 LIG 0.67  C 
ATOM     47  NH2 ARG B 363      40.497  -9.370 -14.246  1.00 63.96 LIG-0.23  N 
ATOM     48  NH1 ARG B 363      39.645  -9.774 -12.151  1.00 63.92 LIG-0.23  N 
ATOM     49 1HH2 ARG B 363      41.135  -9.441 -14.819  1.00 63.96 LIG 0.17  HD
ATOM     50 2HH2 ARG B 363      39.768  -8.967 -14.461  1.00 63.96 LIG 0.17  HD
ATOM     51 1HH1 ARG B 363      39.731 -10.105 -11.362  1.00 63.92 LIG 0.17  HD
ATOM     52 2HH1 ARG B 363      38.919  -9.370 -12.372  1.00 63.92 LIG 0.17  HD
ENDBRANCH 43 44
ENDBRANCH 42 43
ENDBRANCH 41 42
ENDBRANCH 37 41
ENDBRANCH 35 37
ENDBRANCH 29 33
ENDBRANCH 3 29
TORSDOF 19
ENDMDL
MODEL 5
USER: ADFR SOLUTION from run 144
USER: SCORE 15.624931 LL:  -4.357 LR: -13.216 RR:   0.000 FEB:  -7.548
USER: RMSD 4.759793
USER: SEED 143
USER: STATUS no improvement in best in 12 clusters for 5 generations
USER: GENES 21
USER: genes 0 Translation |==|  0.50362 0.53738 0.41697
USER: genes 1 Rotation |==|  0.49560 0.37549 0.72857 0.92689
USER: genes 2 Torsion [N]-C--CA-[N] |==|  0.50184
USER: genes 3 Torsion [C]-CA--N-[C] |==|  0.47914
USER: genes 4 Torsion [N]-C--CA-[N] |==|  0.59245
USER: genes 5 Torsion [C]-CA--N-[C] |==|  0.63112
USER: genes 6 Torsion [N]-C--CA-[N] |==|  0.58220
USER: genes 7 Torsion [N]-C--CA-[N] |==|  0.36466
USER: genes 8 Torsion [C]-CA--CB-[CG] |==|  0.33061
USER: genes 9 Torsion [CA]-CB--CG-[CD] |==|  0.98519
USER: genes 10 Torsion [CB]-CG--CD-[OE2] |==|  0.69828
USER: genes 11 Torsion [C]-N--CA-[CB] |==|  0.38470
USER: genes 12 Torsion [N]-CA--CB-[OG] |==|  0.16184
USER: genes 13 Torsion [CA]-CB--OG-[HG] |==|  0.96378
USER: genes 14 Torsion [N]-CA--C-[N] |==|  0.86047
USER: genes 15 Torsion [C]-N--CA-[CB] |==|  0.24135
USER: genes 16 Torsion [N]-CA--C-[OXT] |==|  0.55616
USER: genes 17 Torsion [N]-CA--CB-[CG] |==|  0.00144
USER: genes 18 Torsion [CA]-CB--CG-[CD] |==|  0.32006
USER: genes 19 Torsion [CB]-CG--CD-[NE] |==|  0.76281
USER: genes 20 Torsion [CG]-CD--NE-[HE] |==|  0.92558
ROOT
ATOM      1  C   GLY B 361      38.289 -12.239 -11.321  1.00 26.32 LIG 0.24  C 
ATOM      2 O    GLY B 361      39.085 -12.849 -10.607  1.00 25.16 LIG-0.27  OA
ATOM      3  N   SER B 362      38.644 -11.650 -12.458  1.00 27.60 LIG-0.34  N 
ATOM      4 H    SER B 362      38.104 -11.208 -12.961  1.00 27.60 LIG 0.16  HD
ENDROOT
BRANCH 1 5
ATOM      5  CA  GLY B 361      36.830 -12.124 -10.917  1.00 24.90 LIG 0.23  C 
BRANCH 5 6
ATOM      6  N   GLY B 361      36.593 -12.799  -9.652  1.00 24.70 LIG-0.35  N 
ATOM      7  C   GLY B 360      35.418 -12.699  -9.035  1.00 25.98 LIG 0.23  C 
ATOM      8 O    GLY B 360      34.478 -12.022  -9.469  1.00 23.45 LIG-0.27  OA
ATOM      9 H    GLY B 361      37.260 -13.252  -9.355  1.00 24.70 LIG 0.16  HD
BRANCH 7 10
ATOM     10  CA  GLY B 360      35.276 -13.458  -7.733  1.00 26.97 LIG 0.23  C 
BRANCH 10 11
ATOM     11  N   GLY B 360      33.916 -13.929  -7.569  1.00 32.20 LIG-0.35  N 
ATOM     12  C   PRO B 359      33.269 -13.761  -6.421  1.00 35.92 LIG 0.24  C 
ATOM     13 O    PRO B 359      33.769 -13.211  -5.443  1.00 37.04 LIG-0.27  OA
ATOM     14 H    GLY B 360      33.581 -14.314  -8.262  1.00 32.20 LIG 0.16  HD
BRANCH 12 15
ATOM     15  CA  PRO B 359      31.841 -14.296  -6.370  1.00 39.21 LIG 0.18  C 
ATOM     16  CB  PRO B 359      31.121 -14.156  -7.708  1.00 38.88 LIG 0.04  C 
ATOM     17  CG  PRO B 359      30.490 -12.804  -7.602  1.00 39.81 LIG 0.02  C 
ATOM     18  CD  PRO B 359      29.925 -12.833  -6.199  1.00 41.55 LIG 0.13  C 
ATOM     19  N   PRO B 359      30.982 -13.539  -5.454  1.00 42.03 LIG-0.34  N 
ATOM     20  C   GLU B 358      31.231 -13.469  -4.138  1.00 44.90 LIG 0.26  C 
ATOM     21 O    GLU B 358      32.198 -14.036  -3.625  1.00 45.02 LIG-0.27  OA
BRANCH 20 22
ATOM     22  CA  GLU B 358      30.264 -12.649  -3.287  1.00 48.47 LIG 0.40  C 
ATOM     23  N   GLU B 358      29.839 -13.429  -2.086  1.00 49.88 LIG 0.61  N 
BRANCH 22 24
ATOM     24  CB  GLU B 358      30.944 -11.343  -2.858  1.00 52.00 LIG 0.06  C 
BRANCH 24 25
ATOM     25  CG  GLU B 358      30.255 -10.071  -3.347  1.00 56.00 LIG 0.12  C 
BRANCH 25 26
ATOM     26  CD  GLU B 358      29.090 -10.357  -4.280  1.00 58.41 LIG 0.17  C 
ATOM     27 OE1  GLU B 358      28.046 -10.849  -3.793  1.00 59.40 LIG-0.65  OA
ATOM     28 OE2  GLU B 358      29.218 -10.090  -5.495  1.00 59.45 LIG-0.65  OA
ENDBRANCH 25 26
ENDBRANCH 24 25
ENDBRANCH 22 24
ENDBRANCH 20 22
ENDBRANCH 12 15
ENDBRANCH 10 11
ENDBRANCH 7 10
ENDBRANCH 5 6
ENDBRANCH 1 5
BRANCH 3 29
ATOM     29  CA  SER B 362      40.017 -11.712 -12.952  1.00 31.63 LIG 0.20  C 
BRANCH 29 30
ATOM     30  CB  SER B 362      40.025 -11.945 -14.470  1.00 29.14 LIG 0.20  C 
BRANCH 30 31
ATOM     31 OG   SER B 362      39.325 -10.924 -15.156  1.00 25.13 LIG-0.40  OA
ATOM     32 HG   SER B 362      38.880 -10.471 -14.606  1.00 25.13 LIG 0.21  HD
ENDBRANCH 30 31
ENDBRANCH 29 30
BRANCH 29 33
ATOM     33  C   SER B 362      40.902 -10.506 -12.627  1.00 35.65 LIG 0.24  C 
ATOM     34 O    SER B 362      42.012 -10.679 -12.127  1.00 37.77 LIG-0.27  OA
ATOM     35  N   ARG B 363      40.427  -9.294 -12.905  1.00 40.10 LIG-0.34  N 
ATOM     36 H    ARG B 363      39.651  -9.143 -13.245  1.00 40.10 LIG 0.16  HD
BRANCH 35 37
ATOM     37  CA  ARG B 363      41.225  -8.093 -12.638  1.00 45.15 LIG 0.18  C 
BRANCH 37 38
ATOM     38  C   ARG B 363      40.374  -6.865 -12.318  1.00 46.43 LIG 0.20  C 
ATOM     39 O    ARG B 363      39.197  -7.047 -11.940  1.00 47.78 LIG-0.65  OA
ATOM     40 OXT  ARG B 363      40.891  -5.735 -12.451  1.00 47.46 LIG-0.65  OA
ENDBRANCH 37 38
BRANCH 37 41
ATOM     41  CB  ARG B 363      42.138  -7.778 -13.828  1.00 48.51 LIG 0.04  C 
BRANCH 41 42
ATOM     42  CG  ARG B 363      42.008  -8.743 -14.991  1.00 53.09 LIG 0.02  C 
BRANCH 42 43
ATOM     43  CD  ARG B 363      41.461  -8.045 -16.224  1.00 56.16 LIG 0.14  C 
BRANCH 43 44
ATOM     44  NE  ARG B 363      40.001  -7.998 -16.224  1.00 60.73 LIG-0.23  N 
ATOM     45 HE   ARG B 363      39.579  -8.612 -15.796  1.00 60.73 LIG 0.18  HD
ATOM     46  CZ  ARG B 363      39.281  -7.065 -16.844  1.00 63.15 LIG 0.67  C 
ATOM     47  NH2 ARG B 363      37.954  -7.095 -16.787  1.00 63.96 LIG-0.23  N 
ATOM     48  NH1 ARG B 363      39.888  -6.097 -17.522  1.00 63.92 LIG-0.23  N 
ATOM     49 1HH2 ARG B 363      37.556  -7.719 -16.348  1.00 63.96 LIG 0.17  HD
ATOM     50 2HH2 ARG B 363      37.493  -6.491 -17.188  1.00 63.96 LIG 0.17  HD
ATOM     51 1HH1 ARG B 363      40.747  -6.073 -17.562  1.00 63.92 LIG 0.17  HD
ATOM     52 2HH1 ARG B 363      39.422  -5.495 -17.921  1.00 63.92 LIG 0.17  HD
ENDBRANCH 43 44
ENDBRANCH 42 43
ENDBRANCH 41 42
ENDBRANCH 37 41
ENDBRANCH 35 37
ENDBRANCH 29 33
ENDBRANCH 3 29
TORSDOF 19
ENDMDL
MODEL 6
USER: ADFR SOLUTION from run 158
USER: SCORE 15.367301 LL:  -3.413 LR: -13.096 RR:   0.000 FEB:  -7.429
USER: RMSD 3.820740
USER: SEED 157
USER: STATUS no improvement in best in 16 clusters for 5 generations
USER: GENES 21
USER: genes 0 Translation |==|  0.49407 0.54720 0.42057
USER: genes 1 Rotation |==|  0.50281 0.40800 0.52843 0.99063
USER: genes 2 Torsion [N]-C--CA-[N] |==|  0.50899
USER: genes 3 Torsion [C]-CA--N-[C] |==|  0.75012
USER: genes 4 Torsion [N]-C--CA-[N] |==|  0.49593
USER: genes 5 Torsion [C]-CA--N-[C] |==|  0.60058
USER: genes 6 Torsion [N]-C--CA-[N] |==|  0.25033
USER: genes 7 Torsion [N]-C--CA-[N] |==|  0.22349
USER: genes 8 Torsion [C]-CA--CB-[CG] |==|  0.71749
USER: genes 9 Torsion [CA]-CB--CG-[CD] |==|  0.18779
USER: genes 10 Torsion [CB]-CG--CD-[OE2] |==|  0.64490
USER: genes 11 Torsion [C]-N--CA-[CB] |==|  0.21195
USER: genes 12 Torsion [N]-CA--CB-[OG] |==|  0.74521
USER: genes 13 Torsion [CA]-CB--OG-[HG] |==|  0.71497
USER: genes 14 Torsion [N]-CA--C-[N] |==|  0.87993
USER: genes 15 Torsion [C]-N--CA-[CB] |==|  0.85954
USER: genes 16 Torsion [N]-CA--C-[OXT] |==|  0.97923
USER: genes 17 Torsion [N]-CA--CB-[CG] |==|  0.62126
USER: genes 18 Torsion [CA]-CB--CG-[CD] |==|  0.07713
USER: genes 19 Torsion [CB]-CG--CD-[NE] |==|  0.74821
USER: genes 20 Torsion [CG]-CD--NE-[HE] |==|  0.93811
ROOT
ATOM      1  C   GLY B 361      38.060 -12.018 -11.238  1.00 26.32 LIG 0.24  C 
ATOM      2 O    GLY B 361      38.212 -13.150 -10.778  1.00 25.16 LIG-0.27  OA
ATOM      3  N   SER B 362      38.620 -11.620 -12.375  1.00 27.60 LIG-0.34  N 
ATOM      4 H    SER B 362      38.536 -10.830 -12.702  1.00 27.60 LIG 0.16  HD
ENDROOT
BRANCH 1 5
ATOM      5  CA  GLY B 361      37.209 -11.000 -10.500  1.00 24.90 LIG 0.23  C 
BRANCH 5 6
ATOM      6  N   GLY B 361      36.726 -11.547  -9.243  1.00 24.70 LIG-0.35  N 
ATOM      7  C   GLY B 360      35.568 -12.200  -9.183  1.00 25.98 LIG 0.23  C 
ATOM      8 O    GLY B 360      34.827 -12.360 -10.162  1.00 23.45 LIG-0.27  OA
ATOM      9 H    GLY B 361      37.244 -11.413  -8.570  1.00 24.70 LIG 0.16  HD
BRANCH 7 10
ATOM     10  CA  GLY B 360      35.172 -12.743  -7.827  1.00 26.97 LIG 0.23  C 
BRANCH 10 11
ATOM     11  N   GLY B 360      33.881 -13.396  -7.902  1.00 32.20 LIG-0.35  N 
ATOM     12  C   PRO B 359      33.017 -13.318  -6.895  1.00 35.92 LIG 0.24  C 
ATOM     13 O    PRO B 359      33.250 -12.705  -5.856  1.00 37.04 LIG-0.27  OA
ATOM     14 H    GLY B 360      33.734 -13.822  -8.634  1.00 32.20 LIG 0.16  HD
BRANCH 12 15
ATOM     15  CA  PRO B 359      31.690 -14.044  -7.092  1.00 39.21 LIG 0.18  C 
ATOM     16  CB  PRO B 359      30.564 -13.431  -6.262  1.00 38.88 LIG 0.04  C 
ATOM     17  CG  PRO B 359      30.653 -14.190  -4.977  1.00 39.81 LIG 0.02  C 
ATOM     18  CD  PRO B 359      30.829 -15.612  -5.465  1.00 41.55 LIG 0.13  C 
ATOM     19  N   PRO B 359      31.726 -15.433  -6.620  1.00 42.03 LIG-0.34  N 
ATOM     20  C   GLU B 358      32.550 -16.345  -7.156  1.00 44.90 LIG 0.26  C 
ATOM     21 O    GLU B 358      33.325 -16.066  -8.073  1.00 45.02 LIG-0.27  OA
BRANCH 20 22
ATOM     22  CA  GLU B 358      32.495 -17.758  -6.579  1.00 48.47 LIG 0.40  C 
ATOM     23  N   GLU B 358      31.339 -18.508  -7.154  1.00 49.88 LIG 0.61  N 
BRANCH 22 24
ATOM     24  CB  GLU B 358      33.808 -18.487  -6.890  1.00 52.00 LIG 0.06  C 
BRANCH 24 25
ATOM     25  CG  GLU B 358      33.733 -19.474  -8.052  1.00 56.00 LIG 0.12  C 
BRANCH 25 26
ATOM     26  CD  GLU B 358      33.516 -18.789  -9.391  1.00 58.41 LIG 0.17  C 
ATOM     27 OE1  GLU B 358      34.290 -17.859  -9.714  1.00 59.40 LIG-0.65  OA
ATOM     28 OE2  GLU B 358      32.577 -19.180 -10.117  1.00 59.45 LIG-0.65  OA
ENDBRANCH 25 26
ENDBRANCH 24 25
ENDBRANCH 22 24
ENDBRANCH 20 22
ENDBRANCH 12 15
ENDBRANCH 10 11
ENDBRANCH 7 10
ENDBRANCH 5 6
ENDBRANCH 1 5
BRANCH 3 29
ATOM     29  CA  SER B 362      39.443 -12.522 -13.175  1.00 31.63 LIG 0.20  C 
BRANCH 29 30
ATOM     30  CB  SER B 362      38.555 -13.512 -13.943  1.00 29.14 LIG 0.20  C 
BRANCH 30 31
ATOM     31 OG   SER B 362      38.349 -14.704 -13.207  1.00 25.13 LIG-0.40  OA
ATOM     32 HG   SER B 362      38.838 -15.312 -13.516  1.00 25.13 LIG 0.21  HD
ENDBRANCH 30 31
ENDBRANCH 29 30
BRANCH 29 33
ATOM     33  C   SER B 362      40.410 -11.855 -14.156  1.00 35.65 LIG 0.24  C 
ATOM     34 O    SER B 362      41.561 -12.276 -14.263  1.00 37.77 LIG-0.27  OA
ATOM     35  N   ARG B 363      39.960 -10.826 -14.870  1.00 40.10 LIG-0.34  N 
ATOM     36 H    ARG B 363      39.164 -10.505 -14.809  1.00 40.10 LIG 0.16  HD
BRANCH 35 37
ATOM     37  CA  ARG B 363      40.824 -10.149 -15.843  1.00 45.15 LIG 0.18  C 
BRANCH 37 38
ATOM     38  C   ARG B 363      41.084 -10.982 -17.097  1.00 46.43 LIG 0.20  C 
ATOM     39 O    ARG B 363      41.686 -10.440 -18.049  1.00 47.78 LIG-0.65  OA
ATOM     40 OXT  ARG B 363      40.681 -12.165 -17.118  1.00 47.46 LIG-0.65  OA
ENDBRANCH 37 38
BRANCH 37 41
ATOM     41  CB  ARG B 363      42.164  -9.772 -15.202  1.00 48.51 LIG 0.04  C 
BRANCH 41 42
ATOM     42  CG  ARG B 363      42.650  -8.374 -15.542  1.00 53.09 LIG 0.02  C 
BRANCH 42 43
ATOM     43  CD  ARG B 363      41.484  -7.447 -15.841  1.00 56.16 LIG 0.14  C 
BRANCH 43 44
ATOM     44  NE  ARG B 363      41.139  -7.443 -17.261  1.00 60.73 LIG-0.23  N 
ATOM     45 HE   ARG B 363      41.743  -7.687 -17.822  1.00 60.73 LIG 0.18  HD
ATOM     46  CZ  ARG B 363      39.949  -7.086 -17.741  1.00 63.15 LIG 0.67  C 
ATOM     47  NH2 ARG B 363      39.720  -7.118 -19.050  1.00 63.96 LIG-0.23  N 
ATOM     48  NH1 ARG B 363      38.986  -6.698 -16.914  1.00 63.92 LIG-0.23  N 
ATOM     49 1HH2 ARG B 363      40.340  -7.370 -19.590  1.00 63.96 LIG 0.17  HD
ATOM     50 2HH2 ARG B 363      38.950  -6.887 -19.356  1.00 63.96 LIG 0.17  HD
ATOM     51 1HH1 ARG B 363      39.130  -6.677 -16.066  1.00 63.92 LIG 0.17  HD
ATOM     52 2HH1 ARG B 363      38.218  -6.469 -17.225  1.00 63.92 LIG 0.17  HD
ENDBRANCH 43 44
ENDBRANCH 42 43
ENDBRANCH 41 42
ENDBRANCH 37 41
ENDBRANCH 35 37
ENDBRANCH 29 33
ENDBRANCH 3 29
TORSDOF 19
ENDMDL
MODEL 7
USER: ADFR SOLUTION from run 129
USER: SCORE 15.459980 LL:  -3.788 LR: -13.078 RR:   0.000 FEB:  -7.411
USER: RMSD 6.360826
USER: SEED 128
USER: STATUS no improvement in best in 11 clusters for 5 generations
USER: GENES 21
USER: genes 0 Translation |==|  0.46649 0.54704 0.42466
USER: genes 1 Rotation |==|  0.53520 0.41282 0.44378 0.98785
USER: genes 2 Torsion [N]-C--CA-[N] |==|  0.53733
USER: genes 3 Torsion [C]-CA--N-[C] |==|  0.79444
USER: genes 4 Torsion [N]-C--CA-[N] |==|  0.47889
USER: genes 5 Torsion [C]-CA--N-[C] |==|  0.55838
USER: genes 6 Torsion [N]-C--CA-[N] |==|  0.62815
USER: genes 7 Torsion [N]-C--CA-[N] |==|  0.34013
USER: genes 8 Torsion [C]-CA--CB-[CG] |==|  0.31727
USER: genes 9 Torsion [CA]-CB--CG-[CD] |==|  0.00017
USER: genes 10 Torsion [CB]-CG--CD-[OE2] |==|  0.21892
USER: genes 11 Torsion [C]-N--CA-[CB] |==|  0.56520
USER: genes 12 Torsion [N]-CA--CB-[OG] |==|  0.99422
USER: genes 13 Torsion [CA]-CB--OG-[HG] |==|  0.78923
USER: genes 14 Torsion [N]-CA--C-[N] |==|  0.86419
USER: genes 15 Torsion [C]-N--CA-[CB] |==|  0.85777
USER: genes 16 Torsion [N]-CA--C-[OXT] |==|  0.36650
USER: genes 17 Torsion [N]-CA--CB-[CG] |==|  0.77778
USER: genes 18 Torsion [CA]-CB--CG-[CD] |==|  0.35535
USER: genes 19 Torsion [CB]-CG--CD-[NE] |==|  0.25573
USER: genes 20 Torsion [CG]-CD--NE-[HE] |==|  0.93107
ROOT
ATOM      1  C   GLY B 361      37.398 -12.022 -11.143  1.00 26.32 LIG 0.24  C 
ATOM      2 O    GLY B 361      37.197 -13.212 -10.904  1.00 25.16 LIG-0.27  OA
ATOM      3  N   SER B 362      38.057 -11.602 -12.218  1.00 27.60 LIG-0.34  N 
ATOM      4 H    SER B 362      38.218 -10.776 -12.392  1.00 27.60 LIG 0.16  HD
ENDROOT
BRANCH 1 5
ATOM      5  CA  GLY B 361      36.896 -10.954 -10.187  1.00 24.90 LIG 0.23  C 
BRANCH 5 6
ATOM      6  N   GLY B 361      36.485 -11.546  -8.925  1.00 24.70 LIG-0.35  N 
ATOM      7  C   GLY B 360      35.351 -12.237  -8.833  1.00 25.98 LIG 0.23  C 
ATOM      8 O    GLY B 360      34.575 -12.399  -9.783  1.00 23.45 LIG-0.27  OA
ATOM      9 H    GLY B 361      37.025 -11.411  -8.271  1.00 24.70 LIG 0.16  HD
BRANCH 7 10
ATOM     10  CA  GLY B 360      35.030 -12.824  -7.475  1.00 26.97 LIG 0.23  C 
BRANCH 10 11
ATOM     11  N   GLY B 360      33.697 -13.391  -7.472  1.00 32.20 LIG-0.35  N 
ATOM     12  C   PRO B 359      33.039 -13.584  -6.334  1.00 35.92 LIG 0.24  C 
ATOM     13 O    PRO B 359      33.507 -13.304  -5.233  1.00 37.04 LIG-0.27  OA
ATOM     14 H    GLY B 360      33.385 -13.583  -8.251  1.00 32.20 LIG 0.16  HD
BRANCH 12 15
ATOM     15  CA  PRO B 359      31.643 -14.184  -6.459  1.00 39.21 LIG 0.18  C 
ATOM     16  CB  PRO B 359      31.078 -14.052  -7.871  1.00 38.88 LIG 0.04  C 
ATOM     17  CG  PRO B 359      30.377 -12.732  -7.823  1.00 39.81 LIG 0.02  C 
ATOM     18  CD  PRO B 359      29.652 -12.813  -6.497  1.00 41.55 LIG 0.13  C 
ATOM     19  N   PRO B 359      30.647 -13.483  -5.641  1.00 42.03 LIG-0.34  N 
ATOM     20  C   GLU B 358      30.736 -13.427  -4.305  1.00 44.90 LIG 0.26  C 
ATOM     21 O    GLU B 358      31.662 -13.959  -3.689  1.00 45.02 LIG-0.27  OA
BRANCH 20 22
ATOM     22  CA  GLU B 358      29.637 -12.667  -3.564  1.00 48.47 LIG 0.40  C 
ATOM     23  N   GLU B 358      28.966 -13.561  -2.573  1.00 49.88 LIG 0.61  N 
BRANCH 22 24
ATOM     24  CB  GLU B 358      30.248 -11.453  -2.854  1.00 52.00 LIG 0.06  C 
BRANCH 24 25
ATOM     25  CG  GLU B 358      29.784 -10.099  -3.386  1.00 56.00 LIG 0.12  C 
BRANCH 25 26
ATOM     26  CD  GLU B 358      28.792 -10.229  -4.531  1.00 58.41 LIG 0.17  C 
ATOM     27 OE1  GLU B 358      29.209 -10.065  -5.700  1.00 59.40 LIG-0.65  OA
ATOM     28 OE2  GLU B 358      27.600 -10.494  -4.262  1.00 59.45 LIG-0.65  OA
ENDBRANCH 25 26
ENDBRANCH 24 25
ENDBRANCH 22 24
ENDBRANCH 20 22
ENDBRANCH 12 15
ENDBRANCH 10 11
ENDBRANCH 7 10
ENDBRANCH 5 6
ENDBRANCH 1 5
BRANCH 3 29
ATOM     29  CA  SER B 362      38.568 -12.541 -13.212  1.00 31.63 LIG 0.20  C 
BRANCH 29 30
ATOM     30  CB  SER B 362      39.734 -11.911 -13.989  1.00 29.14 LIG 0.20  C 
BRANCH 30 31
ATOM     31 OG   SER B 362      39.974 -10.579 -13.573  1.00 25.13 LIG-0.40  OA
ATOM     32 HG   SER B 362      39.385 -10.074 -13.895  1.00 25.13 LIG 0.21  HD
ENDBRANCH 30 31
ENDBRANCH 29 30
BRANCH 29 33
ATOM     33  C   SER B 362      39.004 -13.909 -12.682  1.00 35.65 LIG 0.24  C 
ATOM     34 O    SER B 362      38.611 -14.934 -13.236  1.00 37.77 LIG-0.27  OA
ATOM     35  N   ARG B 363      39.808 -13.936 -11.621  1.00 40.10 LIG-0.34  N 
ATOM     36 H    ARG B 363      40.090 -13.237 -11.208  1.00 40.10 LIG 0.16  HD
BRANCH 35 37
ATOM     37  CA  ARG B 363      40.281 -15.209 -11.067  1.00 45.15 LIG 0.18  C 
BRANCH 37 38
ATOM     38  C   ARG B 363      41.311 -15.904 -11.956  1.00 46.43 LIG 0.20  C 
ATOM     39 O    ARG B 363      41.058 -16.016 -13.175  1.00 47.78 LIG-0.65  OA
ATOM     40 OXT  ARG B 363      42.360 -16.332 -11.426  1.00 47.46 LIG-0.65  OA
ENDBRANCH 37 38
BRANCH 37 41
ATOM     41  CB  ARG B 363      39.105 -16.161 -10.822  1.00 48.51 LIG 0.04  C 
BRANCH 41 42
ATOM     42  CG  ARG B 363      38.333 -15.887  -9.544  1.00 53.09 LIG 0.02  C 
BRANCH 42 43
ATOM     43  CD  ARG B 363      36.845 -15.760  -9.819  1.00 56.16 LIG 0.14  C 
BRANCH 43 44
ATOM     44  NE  ARG B 363      36.151 -17.038  -9.676  1.00 60.73 LIG-0.23  N 
ATOM     45 HE   ARG B 363      36.609 -17.758  -9.783  1.00 60.73 LIG 0.18  HD
ATOM     46  CZ  ARG B 363      34.857 -17.160  -9.391  1.00 63.15 LIG 0.67  C 
ATOM     47  NH2 ARG B 363      34.308 -18.364  -9.273  1.00 63.96 LIG-0.23  N 
ATOM     48  NH1 ARG B 363      34.108 -16.076  -9.221  1.00 63.92 LIG-0.23  N 
ATOM     49 1HH2 ARG B 363      34.789 -19.069  -9.381  1.00 63.96 LIG 0.17  HD
ATOM     50 2HH2 ARG B 363      33.471 -18.439  -9.089  1.00 63.96 LIG 0.17  HD
ATOM     51 1HH1 ARG B 363      34.458 -15.295  -9.296  1.00 63.92 LIG 0.17  HD
ATOM     52 2HH1 ARG B 363      33.272 -16.156  -9.036  1.00 63.92 LIG 0.17  HD
ENDBRANCH 43 44
ENDBRANCH 42 43
ENDBRANCH 41 42
ENDBRANCH 37 41
ENDBRANCH 35 37
ENDBRANCH 29 33
ENDBRANCH 3 29
TORSDOF 19
ENDMDL
MODEL 8
USER: ADFR SOLUTION from run 123
USER: SCORE 15.371530 LL:  -4.173 LR: -13.058 RR:   0.000 FEB:  -7.391
USER: RMSD 4.854325
USER: SEED 122
USER: STATUS no improvement in best in 12 clusters for 5 generations
USER: GENES 21
USER: genes 0 Translation |==|  0.48496 0.52721 0.39677
USER: genes 1 Rotation |==|  0.55537 0.40933 0.60767 0.97657
USER: genes 2 Torsion [N]-C--CA-[N] |==|  0.51542
USER: genes 3 Torsion [C]-CA--N-[C] |==|  0.55160
USER: genes 4 Torsion [N]-C--CA-[N] |==|  0.59386
USER: genes 5 Torsion [C]-CA--N-[C] |==|  0.68389
USER: genes 6 Torsion [N]-C--CA-[N] |==|  0.55317
USER: genes 7 Torsion [N]-C--CA-[N] |==|  0.39749
USER: genes 8 Torsion [C]-CA--CB-[CG] |==|  0.39356
USER: genes 9 Torsion [CA]-CB--CG-[CD] |==|  0.86847
USER: genes 10 Torsion [CB]-CG--CD-[OE2] |==|  0.81393
USER: genes 11 Torsion [C]-N--CA-[CB] |==|  0.34641
USER: genes 12 Torsion [N]-CA--CB-[OG] |==|  0.30409
USER: genes 13 Torsion [CA]-CB--OG-[HG] |==|  0.76452
USER: genes 14 Torsion [N]-CA--C-[N] |==|  0.87828
USER: genes 15 Torsion [C]-N--CA-[CB] |==|  0.50578
USER: genes 16 Torsion [N]-CA--C-[OXT] |==|  0.31473
USER: genes 17 Torsion [N]-CA--CB-[CG] |==|  0.04650
USER: genes 18 Torsion [CA]-CB--CG-[CD] |==|  0.27691
USER: genes 19 Torsion [CB]-CG--CD-[NE] |==|  0.61571
USER: genes 20 Torsion [CG]-CD--NE-[HE] |==|  0.79091
ROOT
ATOM      1  C   GLY B 361      37.841 -12.468 -11.791  1.00 26.32 LIG 0.24  C 
ATOM      2 O    GLY B 361      38.390 -13.530 -11.498  1.00 25.16 LIG-0.27  OA
ATOM      3  N   SER B 362      38.193 -11.740 -12.846  1.00 27.60 LIG-0.34  N 
ATOM      4 H    SER B 362      37.831 -10.990 -13.056  1.00 27.60 LIG 0.16  HD
ENDROOT
BRANCH 1 5
ATOM      5  CA  GLY B 361      36.714 -11.926 -10.930  1.00 24.90 LIG 0.23  C 
BRANCH 5 6
ATOM      6  N   GLY B 361      36.526 -12.752  -9.750  1.00 24.70 LIG-0.35  N 
ATOM      7  C   GLY B 360      35.393 -12.700  -9.053  1.00 25.98 LIG 0.23  C 
ATOM      8 O    GLY B 360      34.454 -11.946  -9.340  1.00 23.45 LIG-0.27  OA
ATOM      9 H    GLY B 361      37.193 -13.257  -9.554  1.00 24.70 LIG 0.16  HD
BRANCH 7 10
ATOM     10  CA  GLY B 360      35.299 -13.617  -7.852  1.00 26.97 LIG 0.23  C 
BRANCH 10 11
ATOM     11  N   GLY B 360      33.937 -14.076  -7.673  1.00 32.20 LIG-0.35  N 
ATOM     12  C   PRO B 359      33.228 -13.714  -6.609  1.00 35.92 LIG 0.24  C 
ATOM     13 O    PRO B 359      33.671 -12.986  -5.725  1.00 37.04 LIG-0.27  OA
ATOM     14 H    GLY B 360      33.644 -14.587  -8.300  1.00 32.20 LIG 0.16  HD
BRANCH 12 15
ATOM     15  CA  PRO B 359      31.806 -14.260  -6.533  1.00 39.21 LIG 0.18  C 
ATOM     16  CB  PRO B 359      31.067 -14.142  -7.864  1.00 38.88 LIG 0.04  C 
ATOM     17  CG  PRO B 359      30.428 -12.794  -7.767  1.00 39.81 LIG 0.02  C 
ATOM     18  CD  PRO B 359      29.881 -12.808  -6.357  1.00 41.55 LIG 0.13  C 
ATOM     19  N   PRO B 359      30.953 -13.496  -5.616  1.00 42.03 LIG-0.34  N 
ATOM     20  C   GLU B 358      31.218 -13.407  -4.305  1.00 44.90 LIG 0.26  C 
ATOM     21 O    GLU B 358      32.196 -13.960  -3.797  1.00 45.02 LIG-0.27  OA
BRANCH 20 22
ATOM     22  CA  GLU B 358      30.255 -12.582  -3.452  1.00 48.47 LIG 0.40  C 
ATOM     23  N   GLU B 358      30.076 -13.217  -2.112  1.00 49.88 LIG 0.61  N 
BRANCH 22 24
ATOM     24  CB  GLU B 358      30.804 -11.159  -3.296  1.00 52.00 LIG 0.06  C 
BRANCH 24 25
ATOM     25  CG  GLU B 358      29.749 -10.058  -3.336  1.00 56.00 LIG 0.12  C 
BRANCH 25 26
ATOM     26  CD  GLU B 358      28.775 -10.220  -4.492  1.00 58.41 LIG 0.17  C 
ATOM     27 OE1  GLU B 358      27.580 -10.486  -4.229  1.00 59.40 LIG-0.65  OA
ATOM     28 OE2  GLU B 358      29.204 -10.080  -5.658  1.00 59.45 LIG-0.65  OA
ENDBRANCH 25 26
ENDBRANCH 24 25
ENDBRANCH 22 24
ENDBRANCH 20 22
ENDBRANCH 12 15
ENDBRANCH 10 11
ENDBRANCH 7 10
ENDBRANCH 5 6
ENDBRANCH 1 5
BRANCH 3 29
ATOM     29  CA  SER B 362      39.253 -12.175 -13.752  1.00 31.63 LIG 0.20  C 
BRANCH 29 30
ATOM     30  CB  SER B 362      38.729 -12.229 -15.195  1.00 29.14 LIG 0.20  C 
BRANCH 30 31
ATOM     31 OG   SER B 362      39.289 -11.199 -15.989  1.00 25.13 LIG-0.40  OA
ATOM     32 HG   SER B 362      38.842 -10.495 -15.891  1.00 25.13 LIG 0.21  HD
ENDBRANCH 30 31
ENDBRANCH 29 30
BRANCH 29 33
ATOM     33  C   SER B 362      40.543 -11.353 -13.719  1.00 35.65 LIG 0.24  C 
ATOM     34 O    SER B 362      41.633 -11.923 -13.719  1.00 37.77 LIG-0.27  OA
ATOM     35  N   ARG B 363      40.433 -10.026 -13.693  1.00 40.10 LIG-0.34  N 
ATOM     36 H    ARG B 363      39.686  -9.601 -13.682  1.00 40.10 LIG 0.16  HD
BRANCH 35 37
ATOM     37  CA  ARG B 363      41.626  -9.173 -13.679  1.00 45.15 LIG 0.18  C 
BRANCH 37 38
ATOM     38  C   ARG B 363      42.585  -9.500 -12.536  1.00 46.43 LIG 0.20  C 
ATOM     39 O    ARG B 363      42.206  -9.275 -11.366  1.00 47.78 LIG-0.65  OA
ATOM     40 OXT  ARG B 363      43.707  -9.974 -12.819  1.00 47.46 LIG-0.65  OA
ENDBRANCH 37 38
BRANCH 37 41
ATOM     41  CB  ARG B 363      41.230  -7.695 -13.596  1.00 48.51 LIG 0.04  C 
BRANCH 41 42
ATOM     42  CG  ARG B 363      39.799  -7.453 -13.151  1.00 53.09 LIG 0.02  C 
BRANCH 42 43
ATOM     43  CD  ARG B 363      39.737  -7.093 -11.677  1.00 56.16 LIG 0.14  C 
BRANCH 43 44
ATOM     44  NE  ARG B 363      38.626  -7.755 -10.998  1.00 60.73 LIG-0.23  N 
ATOM     45 HE   ARG B 363      37.833  -7.452 -11.135  1.00 60.73 LIG 0.18  HD
ATOM     46  CZ  ARG B 363      38.762  -8.798 -10.181  1.00 63.15 LIG 0.67  C 
ATOM     47  NH2 ARG B 363      37.693  -9.343  -9.609  1.00 63.96 LIG-0.23  N 
ATOM     48  NH1 ARG B 363      39.967  -9.299  -9.936  1.00 63.92 LIG-0.23  N 
ATOM     49 1HH2 ARG B 363      36.910  -9.023  -9.766  1.00 63.96 LIG 0.17  HD
ATOM     50 2HH2 ARG B 363      37.785 -10.017  -9.083  1.00 63.96 LIG 0.17  HD
ATOM     51 1HH1 ARG B 363      40.661  -8.949 -10.304  1.00 63.92 LIG 0.17  HD
ATOM     52 2HH1 ARG B 363      40.053  -9.973  -9.409  1.00 63.92 LIG 0.17  HD
ENDBRANCH 43 44
ENDBRANCH 42 43
ENDBRANCH 41 42
ENDBRANCH 37 41
ENDBRANCH 35 37
ENDBRANCH 29 33
ENDBRANCH 3 29
TORSDOF 19
ENDMDL
MODEL 9
USER: ADFR SOLUTION from run 158
USER: SCORE 15.605696 LL:  -3.721 LR: -13.001 RR:   0.000 FEB:  -7.334
USER: RMSD 4.576512
USER: SEED 157
USER: STATUS no improvement in best in 16 clusters for 5 generations
USER: GENES 21
USER: genes 0 Translation |==|  0.48490 0.54158 0.42725
USER: genes 1 Rotation |==|  0.51599 0.39544 0.52487 0.98805
USER: genes 2 Torsion [N]-C--CA-[N] |==|  0.52869
USER: genes 3 Torsion [C]-CA--N-[C] |==|  0.71436
USER: genes 4 Torsion [N]-C--CA-[N] |==|  0.50657
USER: genes 5 Torsion [C]-CA--N-[C] |==|  0.54081
USER: genes 6 Torsion [N]-C--CA-[N] |==|  0.64456
USER: genes 7 Torsion [N]-C--CA-[N] |==|  0.34049
USER: genes 8 Torsion [C]-CA--CB-[CG] |==|  0.31142
USER: genes 9 Torsion [CA]-CB--CG-[CD] |==|  0.01786
USER: genes 10 Torsion [CB]-CG--CD-[OE2] |==|  0.71836
USER: genes 11 Torsion [C]-N--CA-[CB] |==|  0.20504
USER: genes 12 Torsion [N]-CA--CB-[OG] |==|  0.73213
USER: genes 13 Torsion [CA]-CB--OG-[HG] |==|  0.71700
USER: genes 14 Torsion [N]-CA--C-[N] |==|  0.87205
USER: genes 15 Torsion [C]-N--CA-[CB] |==|  0.85679
USER: genes 16 Torsion [N]-CA--C-[OXT] |==|  0.03231
USER: genes 17 Torsion [N]-CA--CB-[CG] |==|  0.62024
USER: genes 18 Torsion [CA]-CB--CG-[CD] |==|  0.07536
USER: genes 19 Torsion [CB]-CG--CD-[NE] |==|  0.74162
USER: genes 20 Torsion [CG]-CD--NE-[HE] |==|  0.94251
ROOT
ATOM      1  C   GLY B 361      37.840 -12.144 -11.082  1.00 26.32 LIG 0.24  C 
ATOM      2 O    GLY B 361      37.967 -13.301 -10.681  1.00 25.16 LIG-0.27  OA
ATOM      3  N   SER B 362      38.455 -11.685 -12.167  1.00 27.60 LIG-0.34  N 
ATOM      4 H    SER B 362      38.389 -10.877 -12.452  1.00 27.60 LIG 0.16  HD
ENDROOT
BRANCH 1 5
ATOM      5  CA  GLY B 361      36.957 -11.165 -10.329  1.00 24.90 LIG 0.23  C 
BRANCH 5 6
ATOM      6  N   GLY B 361      36.548 -11.721  -9.050  1.00 24.70 LIG-0.35  N 
ATOM      7  C   GLY B 360      35.324 -12.214  -8.880  1.00 25.98 LIG 0.23  C 
ATOM      8 O    GLY B 360      34.460 -12.210  -9.768  1.00 23.45 LIG-0.27  OA
ATOM      9 H    GLY B 361      37.152 -11.702  -8.439  1.00 24.70 LIG 0.16  HD
BRANCH 7 10
ATOM     10  CA  GLY B 360      35.012 -12.783  -7.513  1.00 26.97 LIG 0.23  C 
BRANCH 10 11
ATOM     11  N   GLY B 360      33.670 -13.331  -7.488  1.00 32.20 LIG-0.35  N 
ATOM     12  C   PRO B 359      33.072 -13.620  -6.337  1.00 35.92 LIG 0.24  C 
ATOM     13 O    PRO B 359      33.604 -13.450  -5.243  1.00 37.04 LIG-0.27  OA
ATOM     14 H    GLY B 360      33.313 -13.445  -8.262  1.00 32.20 LIG 0.16  HD
BRANCH 12 15
ATOM     15  CA  PRO B 359      31.660 -14.188  -6.439  1.00 39.21 LIG 0.18  C 
ATOM     16  CB  PRO B 359      31.077 -14.046  -7.843  1.00 38.88 LIG 0.04  C 
ATOM     17  CG  PRO B 359      30.407 -12.710  -7.787  1.00 39.81 LIG 0.02  C 
ATOM     18  CD  PRO B 359      29.701 -12.771  -6.450  1.00 41.55 LIG 0.13  C 
ATOM     19  N   PRO B 359      30.694 -13.462  -5.608  1.00 42.03 LIG-0.34  N 
ATOM     20  C   GLU B 358      30.805 -13.405  -4.273  1.00 44.90 LIG 0.26  C 
ATOM     21 O    GLU B 358      31.728 -13.957  -3.670  1.00 45.02 LIG-0.27  OA
BRANCH 20 22
ATOM     22  CA  GLU B 358      29.736 -12.618  -3.517  1.00 48.47 LIG 0.40  C 
ATOM     23  N   GLU B 358      29.062 -13.494  -2.511  1.00 49.88 LIG 0.61  N 
BRANCH 22 24
ATOM     24  CB  GLU B 358      30.385 -11.415  -2.822  1.00 52.00 LIG 0.06  C 
BRANCH 24 25
ATOM     25  CG  GLU B 358      29.980 -10.055  -3.386  1.00 56.00 LIG 0.12  C 
BRANCH 25 26
ATOM     26  CD  GLU B 358      28.884 -10.158  -4.434  1.00 58.41 LIG 0.17  C 
ATOM     27 OE1  GLU B 358      27.704 -10.316  -4.046  1.00 59.40 LIG-0.65  OA
ATOM     28 OE2  GLU B 358      29.202 -10.080  -5.641  1.00 59.45 LIG-0.65  OA
ENDBRANCH 25 26
ENDBRANCH 24 25
ENDBRANCH 22 24
ENDBRANCH 20 22
ENDBRANCH 12 15
ENDBRANCH 10 11
ENDBRANCH 7 10
ENDBRANCH 5 6
ENDBRANCH 1 5
BRANCH 3 29
ATOM     29  CA  SER B 362      39.314 -12.545 -12.977  1.00 31.63 LIG 0.20  C 
BRANCH 29 30
ATOM     30  CB  SER B 362      38.462 -13.526 -13.796  1.00 29.14 LIG 0.20  C 
BRANCH 30 31
ATOM     31 OG   SER B 362      38.354 -14.782 -13.152  1.00 25.13 LIG-0.40  OA
ATOM     32 HG   SER B 362      38.876 -15.330 -13.515  1.00 25.13 LIG 0.21  HD
ENDBRANCH 30 31
ENDBRANCH 29 30
BRANCH 29 33
ATOM     33  C   SER B 362      40.288 -11.827 -13.915  1.00 35.65 LIG 0.24  C 
ATOM     34 O    SER B 362      41.463 -12.189 -13.970  1.00 37.77 LIG-0.27  OA
ATOM     35  N   ARG B 363      39.817 -10.821 -14.648  1.00 40.10 LIG-0.34  N 
ATOM     36 H    ARG B 363      39.005 -10.541 -14.623  1.00 40.10 LIG 0.16  HD
BRANCH 35 37
ATOM     37  CA  ARG B 363      40.688 -10.099 -15.582  1.00 45.15 LIG 0.18  C 
BRANCH 37 38
ATOM     38  C   ARG B 363      41.065 -10.923 -16.811  1.00 46.43 LIG 0.20  C 
ATOM     39 O    ARG B 363      41.970 -10.489 -17.556  1.00 47.78 LIG-0.65  OA
ATOM     40 OXT  ARG B 363      40.451 -11.992 -17.020  1.00 47.46 LIG-0.65  OA
ENDBRANCH 37 38
BRANCH 37 41
ATOM     41  CB  ARG B 363      41.966  -9.633 -14.876  1.00 48.51 LIG 0.04  C 
BRANCH 41 42
ATOM     42  CG  ARG B 363      42.387  -8.214 -15.212  1.00 53.09 LIG 0.02  C 
BRANCH 42 43
ATOM     43  CD  ARG B 363      41.189  -7.367 -15.604  1.00 56.16 LIG 0.14  C 
BRANCH 43 44
ATOM     44  NE  ARG B 363      40.970  -7.362 -17.048  1.00 60.73 LIG-0.23  N 
ATOM     45 HE   ARG B 363      41.632  -7.573 -17.556  1.00 60.73 LIG 0.18  HD
ATOM     46  CZ  ARG B 363      39.813  -7.053 -17.630  1.00 63.15 LIG 0.67  C 
ATOM     47  NH2 ARG B 363      39.702  -7.081 -18.954  1.00 63.96 LIG-0.23  N 
ATOM     48  NH1 ARG B 363      38.764  -6.717 -16.889  1.00 63.92 LIG-0.23  N 
ATOM     49 1HH2 ARG B 363      40.379  -7.299 -19.439  1.00 63.96 LIG 0.17  HD
ATOM     50 2HH2 ARG B 363      38.953  -6.880 -19.326  1.00 63.96 LIG 0.17  HD
ATOM     51 1HH1 ARG B 363      38.831  -6.698 -16.032  1.00 63.92 LIG 0.17  HD
ATOM     52 2HH1 ARG B 363      38.017  -6.518 -17.266  1.00 63.92 LIG 0.17  HD
ENDBRANCH 43 44
ENDBRANCH 42 43
ENDBRANCH 41 42
ENDBRANCH 37 41
ENDBRANCH 35 37
ENDBRANCH 29 33
ENDBRANCH 3 29
TORSDOF 19
ENDMDL
MODEL 10
USER: ADFR SOLUTION from run 72
USER: SCORE 14.544545 LL:  -3.687 LR: -12.967 RR:   0.000 FEB:  -7.299
USER: RMSD 3.989350
USER: SEED 71
USER: STATUS no improvement in best in 10 clusters for 5 generations
USER: GENES 21
USER: genes 0 Translation |==|  0.47291 0.53134 0.41127
USER: genes 1 Rotation |==|  0.52353 0.48059 0.47432 0.99841
USER: genes 2 Torsion [N]-C--CA-[N] |==|  0.49080
USER: genes 3 Torsion [C]-CA--N-[C] |==|  0.75450
USER: genes 4 Torsion [N]-C--CA-[N] |==|  0.52358
USER: genes 5 Torsion [C]-CA--N-[C] |==|  0.59255
USER: genes 6 Torsion [N]-C--CA-[N] |==|  0.60875
USER: genes 7 Torsion [N]-C--CA-[N] |==|  0.33961
USER: genes 8 Torsion [C]-CA--CB-[CG] |==|  0.32806
USER: genes 9 Torsion [CA]-CB--CG-[CD] |==|  0.00994
USER: genes 10 Torsion [CB]-CG--CD-[OE2] |==|  0.73886
USER: genes 11 Torsion [C]-N--CA-[CB] |==|  0.40479
USER: genes 12 Torsion [N]-CA--CB-[OG] |==|  0.23207
USER: genes 13 Torsion [CA]-CB--OG-[HG] |==|  0.81602
USER: genes 14 Torsion [N]-CA--C-[N] |==|  0.55692
USER: genes 15 Torsion [C]-N--CA-[CB] |==|  0.83487
USER: genes 16 Torsion [N]-CA--C-[OXT] |==|  0.09843
USER: genes 17 Torsion [N]-CA--CB-[CG] |==|  0.87205
USER: genes 18 Torsion [CA]-CB--CG-[CD] |==|  0.32735
USER: genes 19 Torsion [CB]-CG--CD-[NE] |==|  0.58072
USER: genes 20 Torsion [CG]-CD--NE-[HE] |==|  0.16091
ROOT
ATOM      1  C   GLY B 361      37.552 -12.375 -11.454  1.00 26.32 LIG 0.24  C 
ATOM      2 O    GLY B 361      37.587 -13.566 -11.146  1.00 25.16 LIG-0.27  OA
ATOM      3  N   SER B 362      37.840 -11.937 -12.675  1.00 27.60 LIG-0.34  N 
ATOM      4 H    SER B 362      37.835 -11.108 -12.903  1.00 27.60 LIG 0.16  HD
ENDROOT
BRANCH 1 5
ATOM      5  CA  GLY B 361      37.176 -11.327 -10.421  1.00 24.90 LIG 0.23  C 
BRANCH 5 6
ATOM      6  N   GLY B 361      36.813 -11.955  -9.162  1.00 24.70 LIG-0.35  N 
ATOM      7  C   GLY B 360      35.560 -12.333  -8.923  1.00 25.98 LIG 0.23  C 
ATOM      8 O    GLY B 360      34.633 -12.160  -9.726  1.00 23.45 LIG-0.27  OA
ATOM      9 H    GLY B 361      37.463 -12.053  -8.608  1.00 24.70 LIG 0.16  HD
BRANCH 7 10
ATOM     10  CA  GLY B 360      35.299 -12.992  -7.586  1.00 26.97 LIG 0.23  C 
BRANCH 10 11
ATOM     11  N   GLY B 360      33.953 -13.528  -7.541  1.00 32.20 LIG-0.35  N 
ATOM     12  C   PRO B 359      33.264 -13.548  -6.405  1.00 35.92 LIG 0.24  C 
ATOM     13 O    PRO B 359      33.711 -13.126  -5.342  1.00 37.04 LIG-0.27  OA
ATOM     14 H    GLY B 360      33.657 -13.821  -8.293  1.00 32.20 LIG 0.16  HD
BRANCH 12 15
ATOM     15  CA  PRO B 359      31.858 -14.133  -6.484  1.00 39.21 LIG 0.18  C 
ATOM     16  CB  PRO B 359      31.265 -14.033  -7.887  1.00 38.88 LIG 0.04  C 
ATOM     17  CG  PRO B 359      30.581 -12.704  -7.861  1.00 39.81 LIG 0.02  C 
ATOM     18  CD  PRO B 359      29.884 -12.738  -6.518  1.00 41.55 LIG 0.13  C 
ATOM     19  N   PRO B 359      30.888 -13.397  -5.665  1.00 42.03 LIG-0.34  N 
ATOM     20  C   GLU B 358      31.007 -13.305  -4.333  1.00 44.90 LIG 0.26  C 
ATOM     21 O    GLU B 358      31.939 -13.831  -3.722  1.00 45.02 LIG-0.27  OA
BRANCH 20 22
ATOM     22  CA  GLU B 358      29.934 -12.510  -3.590  1.00 48.47 LIG 0.40  C 
ATOM     23  N   GLU B 358      29.271 -13.369  -2.564  1.00 49.88 LIG 0.61  N 
BRANCH 22 24
ATOM     24  CB  GLU B 358      30.576 -11.287  -2.924  1.00 52.00 LIG 0.06  C 
BRANCH 24 25
ATOM     25  CG  GLU B 358      30.052  -9.941  -3.417  1.00 56.00 LIG 0.12  C 
BRANCH 25 26
ATOM     26  CD  GLU B 358      28.922 -10.085  -4.423  1.00 58.41 LIG 0.17  C 
ATOM     27 OE1  GLU B 358      27.752 -10.201  -3.991  1.00 59.40 LIG-0.65  OA
ATOM     28 OE2  GLU B 358      29.202 -10.080  -5.642  1.00 59.45 LIG-0.65  OA
ENDBRANCH 25 26
ENDBRANCH 24 25
ENDBRANCH 22 24
ENDBRANCH 20 22
ENDBRANCH 12 15
ENDBRANCH 10 11
ENDBRANCH 7 10
ENDBRANCH 5 6
ENDBRANCH 1 5
BRANCH 3 29
ATOM     29  CA  SER B 362      38.197 -12.858 -13.750  1.00 31.63 LIG 0.20  C 
BRANCH 29 30
ATOM     30  CB  SER B 362      37.670 -12.335 -15.095  1.00 29.14 LIG 0.20  C 
BRANCH 30 31
ATOM     31 OG   SER B 362      38.554 -11.388 -15.667  1.00 25.13 LIG-0.40  OA
ATOM     32 HG   SER B 362      38.577 -10.700 -15.187  1.00 25.13 LIG 0.21  HD
ENDBRANCH 30 31
ENDBRANCH 29 30
BRANCH 29 33
ATOM     33  C   SER B 362      39.687 -13.180 -13.890  1.00 35.65 LIG 0.24  C 
ATOM     34 O    SER B 362      40.444 -12.999 -12.938  1.00 37.77 LIG-0.27  OA
ATOM     35  N   ARG B 363      40.113 -13.653 -15.059  1.00 40.10 LIG-0.34  N 
ATOM     36 H    ARG B 363      39.609 -13.780 -15.744  1.00 40.10 LIG 0.16  HD
BRANCH 35 37
ATOM     37  CA  ARG B 363      41.524 -14.001 -15.261  1.00 45.15 LIG 0.18  C 
BRANCH 37 38
ATOM     38  C   ARG B 363      41.995 -15.143 -14.363  1.00 46.43 LIG 0.20  C 
ATOM     39 O    ARG B 363      43.167 -15.107 -13.930  1.00 47.78 LIG-0.65  OA
ATOM     40 OXT  ARG B 363      41.191 -16.064 -14.102  1.00 47.46 LIG-0.65  OA
ENDBRANCH 37 38
BRANCH 37 41
ATOM     41  CB  ARG B 363      42.419 -12.778 -15.032  1.00 48.51 LIG 0.04  C 
BRANCH 41 42
ATOM     42  CG  ARG B 363      41.931 -11.509 -15.706  1.00 53.09 LIG 0.02  C 
BRANCH 42 43
ATOM     43  CD  ARG B 363      41.616 -10.431 -14.683  1.00 56.16 LIG 0.14  C 
BRANCH 43 44
ATOM     44  NE  ARG B 363      40.569  -9.524 -15.148  1.00 60.73 LIG-0.23  N 
ATOM     45 HE   ARG B 363      39.807  -9.863 -15.358  1.00 60.73 LIG 0.18  HD
ATOM     46  CZ  ARG B 363      40.718  -8.207 -15.268  1.00 63.15 LIG 0.67  C 
ATOM     47  NH2 ARG B 363      39.709  -7.455 -15.695  1.00 63.96 LIG-0.23  N 
ATOM     48  NH1 ARG B 363      41.878  -7.637 -14.960  1.00 63.92 LIG-0.23  N 
ATOM     49 1HH2 ARG B 363      38.956  -7.819 -15.895  1.00 63.96 LIG 0.17  HD
ATOM     50 2HH2 ARG B 363      39.810  -6.605 -15.771  1.00 63.96 LIG 0.17  HD
ATOM     51 1HH1 ARG B 363      42.534  -8.120 -14.683  1.00 63.92 LIG 0.17  HD
ATOM     52 2HH1 ARG B 363      41.973  -6.786 -15.038  1.00 63.92 LIG 0.17  HD
ENDBRANCH 43 44
ENDBRANCH 42 43
ENDBRANCH 41 42
ENDBRANCH 37 41
ENDBRANCH 35 37
ENDBRANCH 29 33
ENDBRANCH 3 29
TORSDOF 19
ENDMDL
MODEL 11
USER: ADFR SOLUTION from run 181
USER: SCORE 14.107701 LL:  -2.952 LR: -12.932 RR:   0.000 FEB:  -7.265
USER: RMSD 4.914323
USER: SEED 180
USER: STATUS no improvement in best in 17 clusters for 5 generations
USER: GENES 21
USER: genes 0 Translation |==|  0.48528 0.53831 0.40131
USER: genes 1 Rotation |==|  0.53018 0.49966 0.40408 0.98978
USER: genes 2 Torsion [N]-C--CA-[N] |==|  0.46910
USER: genes 3 Torsion [C]-CA--N-[C] |==|  0.80212
USER: genes 4 Torsion [N]-C--CA-[N] |==|  0.55453
USER: genes 5 Torsion [C]-CA--N-[C] |==|  0.55806
USER: genes 6 Torsion [N]-C--CA-[N] |==|  0.30327
USER: genes 7 Torsion [N]-C--CA-[N] |==|  0.22576
USER: genes 8 Torsion [C]-CA--CB-[CG] |==|  0.71837
USER: genes 9 Torsion [CA]-CB--CG-[CD] |==|  0.16188
USER: genes 10 Torsion [CB]-CG--CD-[OE2] |==|  0.66231
USER: genes 11 Torsion [C]-N--CA-[CB] |==|  0.51667
USER: genes 12 Torsion [N]-CA--CB-[OG] |==|  0.09560
USER: genes 13 Torsion [CA]-CB--OG-[HG] |==|  0.78949
USER: genes 14 Torsion [N]-CA--C-[N] |==|  0.70849
USER: genes 15 Torsion [C]-N--CA-[CB] |==|  0.44122
USER: genes 16 Torsion [N]-CA--C-[OXT] |==|  0.80607
USER: genes 17 Torsion [N]-CA--CB-[CG] |==|  0.82811
USER: genes 18 Torsion [CA]-CB--CG-[CD] |==|  0.69850
USER: genes 19 Torsion [CB]-CG--CD-[NE] |==|  0.48366
USER: genes 20 Torsion [CG]-CD--NE-[HE] |==|  0.06898
ROOT
ATOM      1  C   GLY B 361      37.849 -12.218 -11.686  1.00 26.32 LIG 0.24  C 
ATOM      2 O    GLY B 361      37.578 -13.389 -11.418  1.00 25.16 LIG-0.27  OA
ATOM      3  N   SER B 362      38.149 -11.809 -12.914  1.00 27.60 LIG-0.34  N 
ATOM      4 H    SER B 362      38.354 -10.999 -13.115  1.00 27.60 LIG 0.16  HD
ENDROOT
BRANCH 1 5
ATOM      5  CA  GLY B 361      37.860 -11.166 -10.591  1.00 24.90 LIG 0.23  C 
BRANCH 5 6
ATOM      6  N   GLY B 361      37.268 -11.687  -9.371  1.00 24.70 LIG-0.35  N 
ATOM      7  C   GLY B 360      35.958 -11.908  -9.287  1.00 25.98 LIG 0.23  C 
ATOM      8 O    GLY B 360      35.169 -11.667 -10.210  1.00 23.45 LIG-0.27  OA
ATOM      9 H    GLY B 361      37.826 -11.834  -8.734  1.00 24.70 LIG 0.16  HD
BRANCH 7 10
ATOM     10  CA  GLY B 360      35.453 -12.469  -7.975  1.00 26.97 LIG 0.23  C 
BRANCH 10 11
ATOM     11  N   GLY B 360      34.152 -13.081  -8.155  1.00 32.20 LIG-0.35  N 
ATOM     12  C   PRO B 359      33.337 -13.267  -7.123  1.00 35.92 LIG 0.24  C 
ATOM     13 O    PRO B 359      33.625 -12.944  -5.974  1.00 37.04 LIG-0.27  OA
ATOM     14 H    GLY B 360      33.967 -13.303  -8.965  1.00 32.20 LIG 0.16  HD
BRANCH 12 15
ATOM     15  CA  PRO B 359      31.994 -13.919  -7.438  1.00 39.21 LIG 0.18  C 
ATOM     16  CB  PRO B 359      30.830 -13.213  -6.746  1.00 38.88 LIG 0.04  C 
ATOM     17  CG  PRO B 359      30.739 -13.934  -5.439  1.00 39.81 LIG 0.02  C 
ATOM     18  CD  PRO B 359      30.874 -15.379  -5.870  1.00 41.55 LIG 0.13  C 
ATOM     19  N   PRO B 359      31.894 -15.291  -6.929  1.00 42.03 LIG-0.34  N 
ATOM     20  C   GLU B 358      32.710 -16.268  -7.353  1.00 44.90 LIG 0.26  C 
ATOM     21 O    GLU B 358      33.590 -16.066  -8.191  1.00 45.02 LIG-0.27  OA
BRANCH 20 22
ATOM     22  CA  GLU B 358      32.508 -17.656  -6.748  1.00 48.47 LIG 0.40  C 
ATOM     23  N   GLU B 358      31.384 -18.362  -7.434  1.00 49.88 LIG 0.61  N 
BRANCH 22 24
ATOM     24  CB  GLU B 358      33.804 -18.464  -6.883  1.00 52.00 LIG 0.06  C 
BRANCH 24 25
ATOM     25  CG  GLU B 358      33.809 -19.479  -8.023  1.00 56.00 LIG 0.12  C 
BRANCH 25 26
ATOM     26  CD  GLU B 358      33.566 -18.839  -9.380  1.00 58.41 LIG 0.17  C 
ATOM     27 OE1  GLU B 358      34.355 -17.947  -9.766  1.00 59.40 LIG-0.65  OA
ATOM     28 OE2  GLU B 358      32.590 -19.227 -10.058  1.00 59.45 LIG-0.65  OA
ENDBRANCH 25 26
ENDBRANCH 24 25
ENDBRANCH 22 24
ENDBRANCH 20 22
ENDBRANCH 12 15
ENDBRANCH 10 11
ENDBRANCH 7 10
ENDBRANCH 5 6
ENDBRANCH 1 5
BRANCH 3 29
ATOM     29  CA  SER B 362      38.151 -12.733 -14.045  1.00 31.63 LIG 0.20  C 
BRANCH 29 30
ATOM     30  CB  SER B 362      38.675 -12.028 -15.305  1.00 29.14 LIG 0.20  C 
BRANCH 30 31
ATOM     31 OG   SER B 362      39.681 -11.082 -14.991  1.00 25.13 LIG-0.40  OA
ATOM     32 HG   SER B 362      39.327 -10.396 -14.659  1.00 25.13 LIG 0.21  HD
ENDBRANCH 30 31
ENDBRANCH 29 30
BRANCH 29 33
ATOM     33  C   SER B 362      38.926 -14.037 -13.844  1.00 35.65 LIG 0.24  C 
ATOM     34 O    SER B 362      38.450 -14.930 -13.144  1.00 37.77 LIG-0.27  OA
ATOM     35  N   ARG B 363      40.106 -14.157 -14.447  1.00 40.10 LIG-0.34  N 
ATOM     36 H    ARG B 363      40.467 -13.547 -14.934  1.00 40.10 LIG 0.16  HD
BRANCH 35 37
ATOM     37  CA  ARG B 363      40.897 -15.386 -14.315  1.00 45.15 LIG 0.18  C 
BRANCH 37 38
ATOM     38  C   ARG B 363      41.640 -15.481 -12.984  1.00 46.43 LIG 0.20  C 
ATOM     39 O    ARG B 363      41.253 -16.332 -12.154  1.00 47.78 LIG-0.65  OA
ATOM     40 OXT  ARG B 363      42.598 -14.704 -12.782  1.00 47.46 LIG-0.65  OA
ENDBRANCH 37 38
BRANCH 37 41
ATOM     41  CB  ARG B 363      41.905 -15.504 -15.464  1.00 48.51 LIG 0.04  C 
BRANCH 41 42
ATOM     42  CG  ARG B 363      41.277 -15.591 -16.843  1.00 53.09 LIG 0.02  C 
BRANCH 42 43
ATOM     43  CD  ARG B 363      41.421 -16.988 -17.422  1.00 56.16 LIG 0.14  C 
BRANCH 43 44
ATOM     44  NE  ARG B 363      40.704 -17.132 -18.687  1.00 60.73 LIG-0.23  N 
ATOM     45 HE   ARG B 363      40.561 -16.422 -19.151  1.00 60.73 LIG 0.18  HD
ATOM     46  CZ  ARG B 363      40.259 -18.290 -19.168  1.00 63.15 LIG 0.67  C 
ATOM     47  NH2 ARG B 363      39.620 -18.330 -20.333  1.00 63.96 LIG-0.23  N 
ATOM     48  NH1 ARG B 363      40.452 -19.413 -18.486  1.00 63.92 LIG-0.23  N 
ATOM     49 1HH2 ARG B 363      39.493 -17.606 -20.779  1.00 63.96 LIG 0.17  HD
ATOM     50 2HH2 ARG B 363      39.334 -19.080 -20.640  1.00 63.96 LIG 0.17  HD
ATOM     51 1HH1 ARG B 363      40.865 -19.392 -17.732  1.00 63.92 LIG 0.17  HD
ATOM     52 2HH1 ARG B 363      40.164 -20.161 -18.798  1.00 63.92 LIG 0.17  HD
ENDBRANCH 43 44
ENDBRANCH 42 43
ENDBRANCH 41 42
ENDBRANCH 37 41
ENDBRANCH 35 37
ENDBRANCH 29 33
ENDBRANCH 3 29
TORSDOF 19
ENDMDL
MODEL 12
USER: ADFR SOLUTION from run 132
USER: SCORE 16.395896 LL:  -5.218 LR: -12.771 RR:   0.000 FEB:  -7.103
USER: RMSD 5.317315
USER: SEED 131
USER: STATUS no improvement in best in 8 clusters for 5 generations
USER: GENES 21
USER: genes 0 Translation |==|  0.47486 0.54880 0.41895
USER: genes 1 Rotation |==|  0.52657 0.44299 0.42475 0.99029
USER: genes 2 Torsion [N]-C--CA-[N] |==|  0.50425
USER: genes 3 Torsion [C]-CA--N-[C] |==|  0.81461
USER: genes 4 Torsion [N]-C--CA-[N] |==|  0.51054
USER: genes 5 Torsion [C]-CA--N-[C] |==|  0.58603
USER: genes 6 Torsion [N]-C--CA-[N] |==|  0.26981
USER: genes 7 Torsion [N]-C--CA-[N] |==|  0.19248
USER: genes 8 Torsion [C]-CA--CB-[CG] |==|  0.71137
USER: genes 9 Torsion [CA]-CB--CG-[CD] |==|  0.19271
USER: genes 10 Torsion [CB]-CG--CD-[OE2] |==|  0.59931
USER: genes 11 Torsion [C]-N--CA-[CB] |==|  0.52815
USER: genes 12 Torsion [N]-CA--CB-[OG] |==|  0.04708
USER: genes 13 Torsion [CA]-CB--OG-[HG] |==|  0.69754
USER: genes 14 Torsion [N]-CA--C-[N] |==|  0.82561
USER: genes 15 Torsion [C]-N--CA-[CB] |==|  0.84277
USER: genes 16 Torsion [N]-CA--C-[OXT] |==|  0.02648
USER: genes 17 Torsion [N]-CA--CB-[CG] |==|  0.89282
USER: genes 18 Torsion [CA]-CB--CG-[CD] |==|  0.46223
USER: genes 19 Torsion [CB]-CG--CD-[NE] |==|  0.65497
USER: genes 20 Torsion [CG]-CD--NE-[HE] |==|  0.87928
ROOT
ATOM      1  C   GLY B 361      37.599 -11.982 -11.275  1.00 26.32 LIG 0.24  C 
ATOM      2 O    GLY B 361      37.347 -13.155 -10.999  1.00 25.16 LIG-0.27  OA
ATOM      3  N   SER B 362      38.141 -11.614 -12.431  1.00 27.60 LIG-0.34  N 
ATOM      4 H    SER B 362      38.337 -10.802 -12.634  1.00 27.60 LIG 0.16  HD
ENDROOT
BRANCH 1 5
ATOM      5  CA  GLY B 361      37.300 -10.879 -10.276  1.00 24.90 LIG 0.23  C 
BRANCH 5 6
ATOM      6  N   GLY B 361      36.745 -11.430  -9.052  1.00 24.70 LIG-0.35  N 
ATOM      7  C   GLY B 360      35.547 -12.009  -9.045  1.00 25.98 LIG 0.23  C 
ATOM      8 O    GLY B 360      34.828 -12.094 -10.049  1.00 23.45 LIG-0.27  OA
ATOM      9 H    GLY B 361      37.249 -11.349  -8.360  1.00 24.70 LIG 0.16  HD
BRANCH 7 10
ATOM     10  CA  GLY B 360      35.076 -12.565  -7.718  1.00 26.97 LIG 0.23  C 
BRANCH 10 11
ATOM     11  N   GLY B 360      33.804 -13.241  -7.877  1.00 32.20 LIG-0.35  N 
ATOM     12  C   PRO B 359      32.918 -13.269  -6.887  1.00 35.92 LIG 0.24  C 
ATOM     13 O    PRO B 359      33.114 -12.741  -5.795  1.00 37.04 LIG-0.27  OA
ATOM     14 H    GLY B 360      33.684 -13.606  -8.646  1.00 32.20 LIG 0.16  HD
BRANCH 12 15
ATOM     15  CA  PRO B 359      31.615 -14.008  -7.173  1.00 39.21 LIG 0.18  C 
ATOM     16  CB  PRO B 359      30.424 -13.386  -6.449  1.00 38.88 LIG 0.04  C 
ATOM     17  CG  PRO B 359      30.412 -14.118  -5.145  1.00 39.81 LIG 0.02  C 
ATOM     18  CD  PRO B 359      30.634 -15.548  -5.588  1.00 41.55 LIG 0.13  C 
ATOM     19  N   PRO B 359      31.620 -15.387  -6.671  1.00 42.03 LIG-0.34  N 
ATOM     20  C   GLU B 358      32.489 -16.304  -7.120  1.00 44.90 LIG 0.26  C 
ATOM     21 O    GLU B 358      33.333 -16.039  -7.977  1.00 45.02 LIG-0.27  OA
BRANCH 20 22
ATOM     22  CA  GLU B 358      32.396 -17.706  -6.519  1.00 48.47 LIG 0.40  C 
ATOM     23  N   GLU B 358      31.139 -18.378  -6.966  1.00 49.88 LIG 0.61  N 
BRANCH 22 24
ATOM     24  CB  GLU B 358      33.618 -18.526  -6.948  1.00 52.00 LIG 0.06  C 
BRANCH 24 25
ATOM     25  CG  GLU B 358      33.348 -19.552  -8.045  1.00 56.00 LIG 0.12  C 
BRANCH 25 26
ATOM     26  CD  GLU B 358      33.054 -18.909  -9.390  1.00 58.41 LIG 0.17  C 
ATOM     27 OE1  GLU B 358      33.667 -17.860  -9.693  1.00 59.40 LIG-0.65  OA
ATOM     28 OE2  GLU B 358      32.214 -19.451 -10.141  1.00 59.45 LIG-0.65  OA
ENDBRANCH 25 26
ENDBRANCH 24 25
ENDBRANCH 22 24
ENDBRANCH 20 22
ENDBRANCH 12 15
ENDBRANCH 10 11
ENDBRANCH 7 10
ENDBRANCH 5 6
ENDBRANCH 1 5
BRANCH 3 29
ATOM     29  CA  SER B 362      38.454 -12.590 -13.471  1.00 31.63 LIG 0.20  C 
BRANCH 29 30
ATOM     30  CB  SER B 362      39.293 -11.935 -14.579  1.00 29.14 LIG 0.20  C 
BRANCH 30 31
ATOM     31 OG   SER B 362      39.864 -10.715 -14.145  1.00 25.13 LIG-0.40  OA
ATOM     32 HG   SER B 362      39.481 -10.074 -14.529  1.00 25.13 LIG 0.21  HD
ENDBRANCH 30 31
ENDBRANCH 29 30
BRANCH 29 33
ATOM     33  C   SER B 362      39.155 -13.867 -13.004  1.00 35.65 LIG 0.24  C 
ATOM     34 O    SER B 362      38.599 -14.956 -13.142  1.00 37.77 LIG-0.27  OA
ATOM     35  N   ARG B 363      40.362 -13.749 -12.456  1.00 40.10 LIG-0.34  N 
ATOM     36 H    ARG B 363      40.770 -13.001 -12.337  1.00 40.10 LIG 0.16  HD
BRANCH 35 37
ATOM     37  CA  ARG B 363      41.101 -14.931 -12.001  1.00 45.15 LIG 0.18  C 
BRANCH 37 38
ATOM     38  C   ARG B 363      41.515 -15.857 -13.143  1.00 46.43 LIG 0.20  C 
ATOM     39 O    ARG B 363      41.991 -16.975 -12.852  1.00 47.78 LIG-0.65  OA
ATOM     40 OXT  ARG B 363      41.363 -15.455 -14.317  1.00 47.46 LIG-0.65  OA
ENDBRANCH 37 38
BRANCH 37 41
ATOM     41  CB  ARG B 363      40.275 -15.725 -10.983  1.00 48.51 LIG 0.04  C 
BRANCH 41 42
ATOM     42  CG  ARG B 363      39.481 -14.867 -10.015  1.00 53.09 LIG 0.02  C 
BRANCH 42 43
ATOM     43  CD  ARG B 363      38.447 -15.696  -9.271  1.00 56.16 LIG 0.14  C 
BRANCH 43 44
ATOM     44  NE  ARG B 363      37.098 -15.159  -9.430  1.00 60.73 LIG-0.23  N 
ATOM     45 HE   ARG B 363      36.993 -14.308  -9.365  1.00 60.73 LIG 0.18  HD
ATOM     46  CZ  ARG B 363      36.019 -15.902  -9.670  1.00 63.15 LIG 0.67  C 
ATOM     47  NH2 ARG B 363      34.829 -15.328  -9.808  1.00 63.96 LIG-0.23  N 
ATOM     48  NH1 ARG B 363      36.130 -17.221  -9.775  1.00 63.92 LIG-0.23  N 
ATOM     49 1HH2 ARG B 363      34.752 -14.474  -9.742  1.00 63.96 LIG 0.17  HD
ATOM     50 2HH2 ARG B 363      34.135 -15.811  -9.963  1.00 63.96 LIG 0.17  HD
ATOM     51 1HH1 ARG B 363      36.898 -17.597  -9.687  1.00 63.92 LIG 0.17  HD
ATOM     52 2HH1 ARG B 363      35.433 -17.700  -9.931  1.00 63.92 LIG 0.17  HD
ENDBRANCH 43 44
ENDBRANCH 42 43
ENDBRANCH 41 42
ENDBRANCH 37 41
ENDBRANCH 35 37
ENDBRANCH 29 33
ENDBRANCH 3 29
TORSDOF 19
ENDMDL
MODEL 13
USER: ADFR SOLUTION from run 102
USER: SCORE 14.567614 LL:  -3.439 LR: -12.753 RR:   0.000 FEB:  -7.086
USER: RMSD 2.995069
USER: SEED 101
USER: STATUS no improvement in best in 14 clusters for 5 generations
USER: GENES 21
USER: genes 0 Translation |==|  0.47705 0.53587 0.41408
USER: genes 1 Rotation |==|  0.51413 0.50008 0.45526 0.99779
USER: genes 2 Torsion [N]-C--CA-[N] |==|  0.46039
USER: genes 3 Torsion [C]-CA--N-[C] |==|  0.79913
USER: genes 4 Torsion [N]-C--CA-[N] |==|  0.53415
USER: genes 5 Torsion [C]-CA--N-[C] |==|  0.59922
USER: genes 6 Torsion [N]-C--CA-[N] |==|  0.25208
USER: genes 7 Torsion [N]-C--CA-[N] |==|  0.22803
USER: genes 8 Torsion [C]-CA--CB-[CG] |==|  0.71773
USER: genes 9 Torsion [CA]-CB--CG-[CD] |==|  0.16139
USER: genes 10 Torsion [CB]-CG--CD-[OE2] |==|  0.65973
USER: genes 11 Torsion [C]-N--CA-[CB] |==|  0.41460
USER: genes 12 Torsion [N]-CA--CB-[OG] |==|  0.24638
USER: genes 13 Torsion [CA]-CB--OG-[HG] |==|  0.77382
USER: genes 14 Torsion [N]-CA--C-[N] |==|  0.90798
USER: genes 15 Torsion [C]-N--CA-[CB] |==|  0.29861
USER: genes 16 Torsion [N]-CA--C-[OXT] |==|  0.75162
USER: genes 17 Torsion [N]-CA--CB-[CG] |==|  0.99918
USER: genes 18 Torsion [CA]-CB--CG-[CD] |==|  0.26209
USER: genes 19 Torsion [CB]-CG--CD-[NE] |==|  0.56158
USER: genes 20 Torsion [CG]-CD--NE-[HE] |==|  0.08557
ROOT
ATOM      1  C   GLY B 361      37.651 -12.273 -11.389  1.00 26.32 LIG 0.24  C 
ATOM      2 O    GLY B 361      37.626 -13.455 -11.045  1.00 25.16 LIG-0.27  OA
ATOM      3  N   SER B 362      37.867 -11.891 -12.643  1.00 27.60 LIG-0.34  N 
ATOM      4 H    SER B 362      37.902 -11.071 -12.897  1.00 27.60 LIG 0.16  HD
ENDROOT
BRANCH 1 5
ATOM      5  CA  GLY B 361      37.440 -11.173 -10.364  1.00 24.90 LIG 0.23  C 
BRANCH 5 6
ATOM      6  N   GLY B 361      36.892 -11.715  -9.132  1.00 24.70 LIG-0.35  N 
ATOM      7  C   GLY B 360      35.629 -12.129  -9.071  1.00 25.98 LIG 0.23  C 
ATOM      8 O    GLY B 360      34.844 -12.059 -10.026  1.00 23.45 LIG-0.27  OA
ATOM      9 H    GLY B 361      37.444 -11.742  -8.474  1.00 24.70 LIG 0.16  HD
BRANCH 7 10
ATOM     10  CA  GLY B 360      35.170 -12.693  -7.743  1.00 26.97 LIG 0.23  C 
BRANCH 10 11
ATOM     11  N   GLY B 360      33.892 -13.361  -7.893  1.00 32.20 LIG-0.35  N 
ATOM     12  C   PRO B 359      32.980 -13.313  -6.929  1.00 35.92 LIG 0.24  C 
ATOM     13 O    PRO B 359      33.155 -12.717  -5.869  1.00 37.04 LIG-0.27  OA
ATOM     14 H    GLY B 360      33.788 -13.774  -8.640  1.00 32.20 LIG 0.16  HD
BRANCH 12 15
ATOM     15  CA  PRO B 359      31.674 -14.052  -7.203  1.00 39.21 LIG 0.18  C 
ATOM     16  CB  PRO B 359      30.499 -13.460  -6.430  1.00 38.88 LIG 0.04  C 
ATOM     17  CG  PRO B 359      30.527 -14.230  -5.148  1.00 39.81 LIG 0.02  C 
ATOM     18  CD  PRO B 359      30.745 -15.645  -5.639  1.00 41.55 LIG 0.13  C 
ATOM     19  N   PRO B 359      31.701 -15.445  -6.743  1.00 42.03 LIG-0.34  N 
ATOM     20  C   GLU B 358      32.563 -16.342  -7.242  1.00 44.90 LIG 0.26  C 
ATOM     21 O    GLU B 358      33.383 -16.046  -8.113  1.00 45.02 LIG-0.27  OA
BRANCH 20 22
ATOM     22  CA  GLU B 358      32.495 -17.762  -6.681  1.00 48.47 LIG 0.40  C 
ATOM     23  N   GLU B 358      31.405 -18.532  -7.353  1.00 49.88 LIG 0.61  N 
BRANCH 22 24
ATOM     24  CB  GLU B 358      33.845 -18.458  -6.891  1.00 52.00 LIG 0.06  C 
BRANCH 24 25
ATOM     25  CG  GLU B 358      33.885 -19.435  -8.064  1.00 56.00 LIG 0.12  C 
BRANCH 25 26
ATOM     26  CD  GLU B 358      33.534 -18.777  -9.388  1.00 58.41 LIG 0.17  C 
ATOM     27 OE1  GLU B 358      34.220 -17.800  -9.766  1.00 59.40 LIG-0.65  OA
ATOM     28 OE2  GLU B 358      32.577 -19.236 -10.048  1.00 59.45 LIG-0.65  OA
ENDBRANCH 25 26
ENDBRANCH 24 25
ENDBRANCH 22 24
ENDBRANCH 20 22
ENDBRANCH 12 15
ENDBRANCH 10 11
ENDBRANCH 7 10
ENDBRANCH 5 6
ENDBRANCH 1 5
BRANCH 3 29
ATOM     29  CA  SER B 362      38.065 -12.865 -13.713  1.00 31.63 LIG 0.20  C 
BRANCH 29 30
ATOM     30  CB  SER B 362      37.544 -12.305 -15.045  1.00 29.14 LIG 0.20  C 
BRANCH 30 31
ATOM     31 OG   SER B 362      38.547 -11.577 -15.729  1.00 25.13 LIG-0.40  OA
ATOM     32 HG   SER B 362      38.595 -10.800 -15.413  1.00 25.13 LIG 0.21  HD
ENDBRANCH 30 31
ENDBRANCH 29 30
BRANCH 29 33
ATOM     33  C   SER B 362      39.498 -13.365 -13.908  1.00 35.65 LIG 0.24  C 
ATOM     34 O    SER B 362      39.698 -14.520 -14.282  1.00 37.77 LIG-0.27  OA
ATOM     35  N   ARG B 363      40.492 -12.515 -13.661  1.00 40.10 LIG-0.34  N 
ATOM     36 H    ARG B 363      40.382 -11.706 -13.389  1.00 40.10 LIG 0.16  HD
BRANCH 35 37
ATOM     37  CA  ARG B 363      41.890 -12.918 -13.843  1.00 45.15 LIG 0.18  C 
BRANCH 37 38
ATOM     38  C   ARG B 363      42.767 -12.608 -12.631  1.00 46.43 LIG 0.20  C 
ATOM     39 O    ARG B 363      42.881 -13.484 -11.747  1.00 47.78 LIG-0.65  OA
ATOM     40 OXT  ARG B 363      43.329 -11.493 -12.575  1.00 47.46 LIG-0.65  OA
ENDBRANCH 37 38
BRANCH 37 41
ATOM     41  CB  ARG B 363      42.488 -12.243 -15.083  1.00 48.51 LIG 0.04  C 
BRANCH 41 42
ATOM     42  CG  ARG B 363      41.525 -11.339 -15.830  1.00 53.09 LIG 0.02  C 
BRANCH 42 43
ATOM     43  CD  ARG B 363      41.666  -9.896 -15.377  1.00 56.16 LIG 0.14  C 
BRANCH 43 44
ATOM     44  NE  ARG B 363      40.464  -9.114 -15.660  1.00 60.73 LIG-0.23  N 
ATOM     45 HE   ARG B 363      39.707  -9.522 -15.651  1.00 60.73 LIG 0.18  HD
ATOM     46  CZ  ARG B 363      40.466  -7.811 -15.933  1.00 63.15 LIG 0.67  C 
ATOM     47  NH2 ARG B 363      39.323  -7.176 -16.173  1.00 63.96 LIG-0.23  N 
ATOM     48  NH1 ARG B 363      41.610  -7.138 -15.964  1.00 63.92 LIG-0.23  N 
ATOM     49 1HH2 ARG B 363      38.579  -7.607 -16.153  1.00 63.96 LIG 0.17  HD
ATOM     50 2HH2 ARG B 363      39.328  -6.335 -16.349  1.00 63.96 LIG 0.17  HD
ATOM     51 1HH1 ARG B 363      42.352  -7.544 -15.809  1.00 63.92 LIG 0.17  HD
ATOM     52 2HH1 ARG B 363      41.610  -6.296 -16.139  1.00 63.92 LIG 0.17  HD
ENDBRANCH 43 44
ENDBRANCH 42 43
ENDBRANCH 41 42
ENDBRANCH 37 41
ENDBRANCH 35 37
ENDBRANCH 29 33
ENDBRANCH 3 29
TORSDOF 19
ENDMDL
MODEL 14
USER: ADFR SOLUTION from run 97
USER: SCORE 14.242963 LL:  -3.300 LR: -12.591 RR:   0.000 FEB:  -6.923
USER: RMSD 3.800326
USER: SEED 96
USER: STATUS no improvement in best in 13 clusters for 5 generations
USER: GENES 21
USER: genes 0 Translation |==|  0.48683 0.54336 0.42956
USER: genes 1 Rotation |==|  0.52150 0.48676 0.52397 0.99879
USER: genes 2 Torsion [N]-C--CA-[N] |==|  0.45381
USER: genes 3 Torsion [C]-CA--N-[C] |==|  0.76851
USER: genes 4 Torsion [N]-C--CA-[N] |==|  0.53329
USER: genes 5 Torsion [C]-CA--N-[C] |==|  0.40558
USER: genes 6 Torsion [N]-C--CA-[N] |==|  0.38556
USER: genes 7 Torsion [N]-C--CA-[N] |==|  0.87147
USER: genes 8 Torsion [C]-CA--CB-[CG] |==|  0.69948
USER: genes 9 Torsion [CA]-CB--CG-[CD] |==|  0.39294
USER: genes 10 Torsion [CB]-CG--CD-[OE2] |==|  0.56672
USER: genes 11 Torsion [C]-N--CA-[CB] |==|  0.39162
USER: genes 12 Torsion [N]-CA--CB-[OG] |==|  0.31143
USER: genes 13 Torsion [CA]-CB--OG-[HG] |==|  0.79036
USER: genes 14 Torsion [N]-CA--C-[N] |==|  0.91363
USER: genes 15 Torsion [C]-N--CA-[CB] |==|  0.33274
USER: genes 16 Torsion [N]-CA--C-[OXT] |==|  0.41898
USER: genes 17 Torsion [N]-CA--CB-[CG] |==|  0.06444
USER: genes 18 Torsion [CA]-CB--CG-[CD] |==|  0.19526
USER: genes 19 Torsion [CB]-CG--CD-[NE] |==|  0.66857
USER: genes 20 Torsion [CG]-CD--NE-[HE] |==|  0.96974
ROOT
ATOM      1  C   GLY B 361      37.886 -12.104 -11.029  1.00 26.32 LIG 0.24  C 
ATOM      2 O    GLY B 361      38.161 -13.260 -10.706  1.00 25.16 LIG-0.27  OA
ATOM      3  N   SER B 362      38.065 -11.638 -12.260  1.00 27.60 LIG-0.34  N 
ATOM      4 H    SER B 362      37.892 -10.830 -12.498  1.00 27.60 LIG 0.16  HD
ENDROOT
BRANCH 1 5
ATOM      5  CA  GLY B 361      37.325 -11.136 -10.003  1.00 24.90 LIG 0.23  C 
BRANCH 5 6
ATOM      6  N   GLY B 361      36.821 -11.851  -8.843  1.00 24.70 LIG-0.35  N 
ATOM      7  C   GLY B 360      35.599 -12.376  -8.842  1.00 25.98 LIG 0.23  C 
ATOM      8 O    GLY B 360      34.814 -12.274  -9.795  1.00 23.45 LIG-0.27  OA
ATOM      9 H    GLY B 361      37.371 -11.899  -8.183  1.00 24.70 LIG 0.16  HD
BRANCH 7 10
ATOM     10  CA  GLY B 360      35.184 -13.114  -7.587  1.00 26.97 LIG 0.23  C 
BRANCH 10 11
ATOM     11  N   GLY B 360      33.967 -13.864  -7.820  1.00 32.20 LIG-0.35  N 
ATOM     12  C   PRO B 359      33.758 -15.031  -7.221  1.00 35.92 LIG 0.24  C 
ATOM     13 O    PRO B 359      34.564 -15.542  -6.448  1.00 37.04 LIG-0.27  OA
ATOM     14 H    GLY B 360      33.414 -13.493  -8.365  1.00 32.20 LIG 0.16  HD
BRANCH 12 15
ATOM     15  CA  PRO B 359      32.438 -15.724  -7.544  1.00 39.21 LIG 0.18  C 
ATOM     16  CB  PRO B 359      31.436 -15.630  -6.396  1.00 38.88 LIG 0.04  C 
ATOM     17  CG  PRO B 359      31.744 -16.851  -5.589  1.00 39.81 LIG 0.02  C 
ATOM     18  CD  PRO B 359      31.884 -17.907  -6.663  1.00 41.55 LIG 0.13  C 
ATOM     19  N   PRO B 359      32.587 -17.172  -7.729  1.00 42.03 LIG-0.34  N 
ATOM     20  C   GLU B 358      33.346 -17.690  -8.707  1.00 44.90 LIG 0.26  C 
ATOM     21 O    GLU B 358      33.962 -16.977  -9.502  1.00 45.02 LIG-0.27  OA
BRANCH 20 22
ATOM     22  CA  GLU B 358      33.423 -19.212  -8.798  1.00 48.47 LIG 0.40  C 
ATOM     23  N   GLU B 358      33.659 -19.801  -7.445  1.00 49.88 LIG 0.61  N 
BRANCH 22 24
ATOM     24  CB  GLU B 358      32.117 -19.754  -9.392  1.00 52.00 LIG 0.06  C 
BRANCH 24 25
ATOM     25  CG  GLU B 358      31.215 -20.482  -8.398  1.00 56.00 LIG 0.12  C 
BRANCH 25 26
ATOM     26  CD  GLU B 358      29.740 -20.193  -8.624  1.00 58.41 LIG 0.17  C 
ATOM     27 OE1  GLU B 358      29.374 -19.830  -9.765  1.00 59.40 LIG-0.65  OA
ATOM     28 OE2  GLU B 358      28.950 -20.328  -7.665  1.00 59.45 LIG-0.65  OA
ENDBRANCH 25 26
ENDBRANCH 24 25
ENDBRANCH 22 24
ENDBRANCH 20 22
ENDBRANCH 12 15
ENDBRANCH 10 11
ENDBRANCH 7 10
ENDBRANCH 5 6
ENDBRANCH 1 5
BRANCH 3 29
ATOM     29  CA  SER B 362      38.582 -12.487 -13.329  1.00 31.63 LIG 0.20  C 
BRANCH 29 30
ATOM     30  CB  SER B 362      37.857 -12.181 -14.648  1.00 29.14 LIG 0.20  C 
BRANCH 30 31
ATOM     31 OG   SER B 362      38.725 -11.576 -15.589  1.00 25.13 LIG-0.40  OA
ATOM     32 HG   SER B 362      38.853 -10.774 -15.378  1.00 25.13 LIG 0.21  HD
ENDBRANCH 30 31
ENDBRANCH 29 30
BRANCH 29 33
ATOM     33  C   SER B 362      40.093 -12.424 -13.564  1.00 35.65 LIG 0.24  C 
ATOM     34 O    SER B 362      40.690 -13.418 -13.973  1.00 37.77 LIG-0.27  OA
ATOM     35  N   ARG B 363      40.714 -11.274 -13.312  1.00 40.10 LIG-0.34  N 
ATOM     36 H    ARG B 363      40.324 -10.567 -13.016  1.00 40.10 LIG 0.16  HD
BRANCH 35 37
ATOM     37  CA  ARG B 363      42.157 -11.134 -13.530  1.00 45.15 LIG 0.18  C 
BRANCH 37 38
ATOM     38  C   ARG B 363      42.932 -10.835 -12.248  1.00 46.43 LIG 0.20  C 
ATOM     39 O    ARG B 363      42.346 -10.210 -11.338  1.00 47.78 LIG-0.65  OA
ATOM     40 OXT  ARG B 363      44.117 -11.225 -12.167  1.00 47.46 LIG-0.65  OA
ENDBRANCH 37 38
BRANCH 37 41
ATOM     41  CB  ARG B 363      42.442 -10.034 -14.559  1.00 48.51 LIG 0.04  C 
BRANCH 41 42
ATOM     42  CG  ARG B 363      41.336  -9.003 -14.697  1.00 53.09 LIG 0.02  C 
BRANCH 42 43
ATOM     43  CD  ARG B 363      41.254  -8.120 -13.464  1.00 56.16 LIG 0.14  C 
BRANCH 43 44
ATOM     44  NE  ARG B 363      39.955  -8.224 -12.803  1.00 60.73 LIG-0.23  N 
ATOM     45 HE   ARG B 363      39.324  -8.633 -13.219  1.00 60.73 LIG 0.18  HD
ATOM     46  CZ  ARG B 363      39.686  -7.725 -11.599  1.00 63.15 LIG 0.67  C 
ATOM     47  NH2 ARG B 363      38.475  -7.870 -11.070  1.00 63.96 LIG-0.23  N 
ATOM     48  NH1 ARG B 363      40.627  -7.080 -10.919  1.00 63.92 LIG-0.23  N 
ATOM     49 1HH2 ARG B 363      37.862  -8.288 -11.505  1.00 63.96 LIG 0.17  HD
ATOM     50 2HH2 ARG B 363      38.305  -7.547 -10.291  1.00 63.96 LIG 0.17  HD
ATOM     51 1HH1 ARG B 363      41.412  -6.984 -11.257  1.00 63.92 LIG 0.17  HD
ATOM     52 2HH1 ARG B 363      40.452  -6.759 -10.141  1.00 63.92 LIG 0.17  HD
ENDBRANCH 43 44
ENDBRANCH 42 43
ENDBRANCH 41 42
ENDBRANCH 37 41
ENDBRANCH 35 37
ENDBRANCH 29 33
ENDBRANCH 3 29
TORSDOF 19
ENDMDL
MODEL 15
USER: ADFR SOLUTION from run 102
USER: SCORE 14.719124 LL:  -4.028 LR: -12.459 RR:   0.000 FEB:  -6.791
USER: RMSD 3.688333
USER: SEED 101
USER: STATUS no improvement in best in 14 clusters for 5 generations
USER: GENES 21
USER: genes 0 Translation |==|  0.49128 0.55115 0.43395
USER: genes 1 Rotation |==|  0.49110 0.47124 0.58182 0.99234
USER: genes 2 Torsion [N]-C--CA-[N] |==|  0.44722
USER: genes 3 Torsion [C]-CA--N-[C] |==|  0.74579
USER: genes 4 Torsion [N]-C--CA-[N] |==|  0.49895
USER: genes 5 Torsion [C]-CA--N-[C] |==|  0.64373
USER: genes 6 Torsion [N]-C--CA-[N] |==|  0.22253
USER: genes 7 Torsion [N]-C--CA-[N] |==|  0.24294
USER: genes 8 Torsion [C]-CA--CB-[CG] |==|  0.72243
USER: genes 9 Torsion [CA]-CB--CG-[CD] |==|  0.16196
USER: genes 10 Torsion [CB]-CG--CD-[OE2] |==|  0.68185
USER: genes 11 Torsion [C]-N--CA-[CB] |==|  0.38995
USER: genes 12 Torsion [N]-CA--CB-[OG] |==|  0.28171
USER: genes 13 Torsion [CA]-CB--OG-[HG] |==|  0.82624
USER: genes 14 Torsion [N]-CA--C-[N] |==|  0.94435
USER: genes 15 Torsion [C]-N--CA-[CB] |==|  0.32864
USER: genes 16 Torsion [N]-CA--C-[OXT] |==|  0.84348
USER: genes 17 Torsion [N]-CA--CB-[CG] |==|  0.03493
USER: genes 18 Torsion [CA]-CB--CG-[CD] |==|  0.25646
USER: genes 19 Torsion [CB]-CG--CD-[NE] |==|  0.69888
USER: genes 20 Torsion [CG]-CD--NE-[HE] |==|  0.84857
ROOT
ATOM      1  C   GLY B 361      37.993 -11.929 -10.927  1.00 26.32 LIG 0.24  C 
ATOM      2 O    GLY B 361      38.484 -12.947 -10.438  1.00 25.16 LIG-0.27  OA
ATOM      3  N   SER B 362      38.177 -11.576 -12.195  1.00 27.60 LIG-0.34  N 
ATOM      4 H    SER B 362      37.853 -10.862 -12.547  1.00 27.60 LIG 0.16  HD
ENDROOT
BRANCH 1 5
ATOM      5  CA  GLY B 361      37.141 -11.005 -10.075  1.00 24.90 LIG 0.23  C 
BRANCH 5 6
ATOM      6  N   GLY B 361      36.656 -11.697  -8.893  1.00 24.70 LIG-0.35  N 
ATOM      7  C   GLY B 360      35.484 -12.325  -8.902  1.00 25.98 LIG 0.23  C 
ATOM      8 O    GLY B 360      34.730 -12.343  -9.885  1.00 23.45 LIG-0.27  OA
ATOM      9 H    GLY B 361      37.182 -11.661  -8.214  1.00 24.70 LIG 0.16  HD
BRANCH 7 10
ATOM     10  CA  GLY B 360      35.086 -13.028  -7.622  1.00 26.97 LIG 0.23  C 
BRANCH 10 11
ATOM     11  N   GLY B 360      33.790 -13.658  -7.772  1.00 32.20 LIG-0.35  N 
ATOM     12  C   PRO B 359      32.819 -13.441  -6.892  1.00 35.92 LIG 0.24  C 
ATOM     13 O    PRO B 359      32.952 -12.712  -5.912  1.00 37.04 LIG-0.27  OA
ATOM     14 H    GLY B 360      33.715 -14.166  -8.462  1.00 32.20 LIG 0.16  HD
BRANCH 12 15
ATOM     15  CA  PRO B 359      31.499 -14.158  -7.158  1.00 39.21 LIG 0.18  C 
ATOM     16  CB  PRO B 359      30.346 -13.570  -6.349  1.00 38.88 LIG 0.04  C 
ATOM     17  CG  PRO B 359      30.388 -14.370  -5.087  1.00 39.81 LIG 0.02  C 
ATOM     18  CD  PRO B 359      30.580 -15.776  -5.614  1.00 41.55 LIG 0.13  C 
ATOM     19  N   PRO B 359      31.518 -15.561  -6.730  1.00 42.03 LIG-0.34  N 
ATOM     20  C   GLU B 358      32.359 -16.458  -7.266  1.00 44.90 LIG 0.26  C 
ATOM     21 O    GLU B 358      33.167 -16.151  -8.145  1.00 45.02 LIG-0.27  OA
BRANCH 20 22
ATOM     22  CA  GLU B 358      32.284 -17.889  -6.737  1.00 48.47 LIG 0.40  C 
ATOM     23  N   GLU B 358      31.260 -18.668  -7.495  1.00 49.88 LIG 0.61  N 
BRANCH 22 24
ATOM     24  CB  GLU B 358      33.660 -18.553  -6.866  1.00 52.00 LIG 0.06  C 
BRANCH 24 25
ATOM     25  CG  GLU B 358      33.815 -19.475  -8.072  1.00 56.00 LIG 0.12  C 
BRANCH 25 26
ATOM     26  CD  GLU B 358      33.564 -18.762  -9.391  1.00 58.41 LIG 0.17  C 
ATOM     27 OE1  GLU B 358      34.357 -17.857  -9.737  1.00 59.40 LIG-0.65  OA
ATOM     28 OE2  GLU B 358      32.578 -19.106 -10.079  1.00 59.45 LIG-0.65  OA
ENDBRANCH 25 26
ENDBRANCH 24 25
ENDBRANCH 22 24
ENDBRANCH 20 22
ENDBRANCH 12 15
ENDBRANCH 10 11
ENDBRANCH 7 10
ENDBRANCH 5 6
ENDBRANCH 1 5
BRANCH 3 29
ATOM     29  CA  SER B 362      38.963 -12.400 -13.108  1.00 31.63 LIG 0.20  C 
BRANCH 29 30
ATOM     30  CB  SER B 362      38.305 -12.432 -14.496  1.00 29.14 LIG 0.20  C 
BRANCH 30 31
ATOM     31 OG   SER B 362      38.957 -11.559 -15.400  1.00 25.13 LIG-0.40  OA
ATOM     32 HG   SER B 362      38.890 -10.769 -15.124  1.00 25.13 LIG 0.21  HD
ENDBRANCH 30 31
ENDBRANCH 29 30
BRANCH 29 33
ATOM     33  C   SER B 362      40.435 -12.012 -13.263  1.00 35.65 LIG 0.24  C 
ATOM     34 O    SER B 362      41.243 -12.832 -13.698  1.00 37.77 LIG-0.27  OA
ATOM     35  N   ARG B 363      40.792 -10.777 -12.916  1.00 40.10 LIG-0.34  N 
ATOM     36 H    ARG B 363      40.252 -10.187 -12.601  1.00 40.10 LIG 0.16  HD
BRANCH 35 37
ATOM     37  CA  ARG B 363      42.181 -10.328 -13.054  1.00 45.15 LIG 0.18  C 
BRANCH 37 38
ATOM     38  C   ARG B 363      42.817  -9.926 -11.725  1.00 46.43 LIG 0.20  C 
ATOM     39 O    ARG B 363      43.872 -10.500 -11.379  1.00 47.78 LIG-0.65  OA
ATOM     40 OXT  ARG B 363      42.254  -9.044 -11.040  1.00 47.46 LIG-0.65  OA
ENDBRANCH 37 38
BRANCH 37 41
ATOM     41  CB  ARG B 363      42.272  -9.151 -14.032  1.00 48.51 LIG 0.04  C 
BRANCH 41 42
ATOM     42  CG  ARG B 363      40.935  -8.530 -14.392  1.00 53.09 LIG 0.02  C 
BRANCH 42 43
ATOM     43  CD  ARG B 363      40.602  -7.372 -13.467  1.00 56.16 LIG 0.14  C 
BRANCH 43 44
ATOM     44  NE  ARG B 363      39.522  -7.705 -12.541  1.00 60.73 LIG-0.23  N 
ATOM     45 HE   ARG B 363      38.782  -7.992 -12.872  1.00 60.73 LIG 0.18  HD
ATOM     46  CZ  ARG B 363      39.609  -7.594 -11.217  1.00 63.15 LIG 0.67  C 
ATOM     47  NH2 ARG B 363      38.577  -7.925 -10.448  1.00 63.96 LIG-0.23  N 
ATOM     48  NH1 ARG B 363      40.730  -7.151 -10.658  1.00 63.92 LIG-0.23  N 
ATOM     49 1HH2 ARG B 363      37.850  -8.213 -10.805  1.00 63.96 LIG 0.17  HD
ATOM     50 2HH2 ARG B 363      38.637  -7.852  -9.594  1.00 63.96 LIG 0.17  HD
ATOM     51 1HH1 ARG B 363      41.401  -6.936 -11.152  1.00 63.92 LIG 0.17  HD
ATOM     52 2HH1 ARG B 363      40.785  -7.080  -9.803  1.00 63.92 LIG 0.17  HD
ENDBRANCH 43 44
ENDBRANCH 42 43
ENDBRANCH 41 42
ENDBRANCH 37 41
ENDBRANCH 35 37
ENDBRANCH 29 33
ENDBRANCH 3 29
TORSDOF 19
ENDMDL
MODEL 16
USER: ADFR SOLUTION from run 181
USER: SCORE 13.858750 LL:  -3.033 LR: -12.446 RR:   0.000 FEB:  -6.778
USER: RMSD 5.515157
USER: SEED 180
USER: STATUS no improvement in best in 17 clusters for 5 generations
USER: GENES 21
USER: genes 0 Translation |==|  0.47309 0.52830 0.40739
USER: genes 1 Rotation |==|  0.54033 0.50166 0.43927 0.99465
USER: genes 2 Torsion [N]-C--CA-[N] |==|  0.48689
USER: genes 3 Torsion [C]-CA--N-[C] |==|  0.75820
USER: genes 4 Torsion [N]-C--CA-[N] |==|  0.53856
USER: genes 5 Torsion [C]-CA--N-[C] |==|  0.58221
USER: genes 6 Torsion [N]-C--CA-[N] |==|  0.62970
USER: genes 7 Torsion [N]-C--CA-[N] |==|  0.36775
USER: genes 8 Torsion [C]-CA--CB-[CG] |==|  0.37987
USER: genes 9 Torsion [CA]-CB--CG-[CD] |==|  0.94602
USER: genes 10 Torsion [CB]-CG--CD-[OE2] |==|  0.78542
USER: genes 11 Torsion [C]-N--CA-[CB] |==|  0.53340
USER: genes 12 Torsion [N]-CA--CB-[OG] |==|  0.10973
USER: genes 13 Torsion [CA]-CB--OG-[HG] |==|  0.78992
USER: genes 14 Torsion [N]-CA--C-[N] |==|  0.69303
USER: genes 15 Torsion [C]-N--CA-[CB] |==|  0.44252
USER: genes 16 Torsion [N]-CA--C-[OXT] |==|  0.80598
USER: genes 17 Torsion [N]-CA--CB-[CG] |==|  0.82932
USER: genes 18 Torsion [CA]-CB--CG-[CD] |==|  0.69818
USER: genes 19 Torsion [CB]-CG--CD-[NE] |==|  0.48444
USER: genes 20 Torsion [CG]-CD--NE-[HE] |==|  0.06891
ROOT
ATOM      1  C   GLY B 361      37.556 -12.443 -11.544  1.00 26.32 LIG 0.24  C 
ATOM      2 O    GLY B 361      37.453 -13.650 -11.326  1.00 25.16 LIG-0.27  OA
ATOM      3  N   SER B 362      37.802 -11.946 -12.752  1.00 27.60 LIG-0.34  N 
ATOM      4 H    SER B 362      37.891 -11.108 -12.919  1.00 27.60 LIG 0.16  HD
ENDROOT
BRANCH 1 5
ATOM      5  CA  GLY B 361      37.412 -11.445 -10.409  1.00 24.90 LIG 0.23  C 
BRANCH 5 6
ATOM      6  N   GLY B 361      37.037 -12.119  -9.177  1.00 24.70 LIG-0.35  N 
ATOM      7  C   GLY B 360      35.760 -12.350  -8.886  1.00 25.98 LIG 0.23  C 
ATOM      8 O    GLY B 360      34.823 -11.995  -9.614  1.00 23.45 LIG-0.27  OA
ATOM      9 H    GLY B 361      37.698 -12.344  -8.675  1.00 24.70 LIG 0.16  HD
BRANCH 7 10
ATOM     10  CA  GLY B 360      35.486 -13.074  -7.586  1.00 26.97 LIG 0.23  C 
BRANCH 10 11
ATOM     11  N   GLY B 360      34.116 -13.545  -7.548  1.00 32.20 LIG-0.35  N 
ATOM     12  C   PRO B 359      33.468 -13.668  -6.395  1.00 35.92 LIG 0.24  C 
ATOM     13 O    PRO B 359      33.975 -13.400  -5.308  1.00 37.04 LIG-0.27  OA
ATOM     14 H    GLY B 360      33.778 -13.730  -8.317  1.00 32.20 LIG 0.16  HD
BRANCH 12 15
ATOM     15  CA  PRO B 359      32.031 -14.170  -6.483  1.00 39.21 LIG 0.18  C 
ATOM     16  CB  PRO B 359      31.455 -14.039  -7.891  1.00 38.88 LIG 0.04  C 
ATOM     17  CG  PRO B 359      30.851 -12.672  -7.873  1.00 39.81 LIG 0.02  C 
ATOM     18  CD  PRO B 359      30.143 -12.661  -6.536  1.00 41.55 LIG 0.13  C 
ATOM     19  N   PRO B 359      31.100 -13.376  -5.674  1.00 42.03 LIG-0.34  N 
ATOM     20  C   GLU B 358      31.214 -13.287  -4.341  1.00 44.90 LIG 0.26  C 
ATOM     21 O    GLU B 358      32.109 -13.866  -3.721  1.00 45.02 LIG-0.27  OA
BRANCH 20 22
ATOM     22  CA  GLU B 358      30.184 -12.429  -3.608  1.00 48.47 LIG 0.40  C 
ATOM     23  N   GLU B 358      29.639 -13.167  -2.429  1.00 49.88 LIG 0.61  N 
BRANCH 22 24
ATOM     24  CB  GLU B 358      30.841 -11.119  -3.157  1.00 52.00 LIG 0.06  C 
BRANCH 24 25
ATOM     25  CG  GLU B 358      29.995  -9.868  -3.382  1.00 56.00 LIG 0.12  C 
BRANCH 25 26
ATOM     26  CD  GLU B 358      28.897 -10.080  -4.411  1.00 58.41 LIG 0.17  C 
ATOM     27 OE1  GLU B 358      27.724 -10.244  -4.003  1.00 59.40 LIG-0.65  OA
ATOM     28 OE2  GLU B 358      29.205 -10.081  -5.623  1.00 59.45 LIG-0.65  OA
ENDBRANCH 25 26
ENDBRANCH 24 25
ENDBRANCH 22 24
ENDBRANCH 20 22
ENDBRANCH 12 15
ENDBRANCH 10 11
ENDBRANCH 7 10
ENDBRANCH 5 6
ENDBRANCH 1 5
BRANCH 3 29
ATOM     29  CA  SER B 362      37.942 -12.814 -13.919  1.00 31.63 LIG 0.20  C 
BRANCH 29 30
ATOM     30  CB  SER B 362      38.511 -12.021 -15.105  1.00 29.14 LIG 0.20  C 
BRANCH 30 31
ATOM     31 OG   SER B 362      39.516 -11.115 -14.689  1.00 25.13 LIG-0.40  OA
ATOM     32 HG   SER B 362      39.159 -10.453 -14.314  1.00 25.13 LIG 0.21  HD
ENDBRANCH 30 31
ENDBRANCH 29 30
BRANCH 29 33
ATOM     33  C   SER B 362      38.778 -14.079 -13.717  1.00 35.65 LIG 0.24  C 
ATOM     34 O    SER B 362      38.351 -14.989 -13.007  1.00 37.77 LIG-0.27  OA
ATOM     35  N   ARG B 363      39.958 -14.148 -14.329  1.00 40.10 LIG-0.34  N 
ATOM     36 H    ARG B 363      40.286 -13.525 -14.823  1.00 40.10 LIG 0.16  HD
BRANCH 35 37
ATOM     37  CA  ARG B 363      40.806 -15.337 -14.197  1.00 45.15 LIG 0.18  C 
BRANCH 37 38
ATOM     38  C   ARG B 363      41.555 -15.396 -12.867  1.00 46.43 LIG 0.20  C 
ATOM     39 O    ARG B 363      41.210 -16.262 -12.034  1.00 47.78 LIG-0.65  OA
ATOM     40 OXT  ARG B 363      42.476 -14.574 -12.667  1.00 47.46 LIG-0.65  OA
ENDBRANCH 37 38
BRANCH 37 41
ATOM     41  CB  ARG B 363      41.817 -15.409 -15.347  1.00 48.51 LIG 0.04  C 
BRANCH 41 42
ATOM     42  CG  ARG B 363      41.191 -15.518 -16.726  1.00 53.09 LIG 0.02  C 
BRANCH 42 43
ATOM     43  CD  ARG B 363      41.395 -16.904 -17.311  1.00 56.16 LIG 0.14  C 
BRANCH 43 44
ATOM     44  NE  ARG B 363      40.689 -17.071 -18.580  1.00 60.73 LIG-0.23  N 
ATOM     45 HE   ARG B 363      40.517 -16.366 -19.040  1.00 60.73 LIG 0.18  HD
ATOM     46  CZ  ARG B 363      40.294 -18.245 -19.068  1.00 63.15 LIG 0.67  C 
ATOM     47  NH2 ARG B 363      39.661 -18.305 -20.235  1.00 63.96 LIG-0.23  N 
ATOM     48  NH1 ARG B 363      40.532 -19.362 -18.391  1.00 63.92 LIG-0.23  N 
ATOM     49 1HH2 ARG B 363      39.505 -17.585 -20.678  1.00 63.96 LIG 0.17  HD
ATOM     50 2HH2 ARG B 363      39.407 -19.065 -20.547  1.00 63.96 LIG 0.17  HD
ATOM     51 1HH1 ARG B 363      40.942 -19.328 -17.635  1.00 63.92 LIG 0.17  HD
ATOM     52 2HH1 ARG B 363      40.277 -20.120 -18.708  1.00 63.92 LIG 0.17  HD
ENDBRANCH 43 44
ENDBRANCH 42 43
ENDBRANCH 41 42
ENDBRANCH 37 41
ENDBRANCH 35 37
ENDBRANCH 29 33
ENDBRANCH 3 29
TORSDOF 19
ENDMDL
MODEL 17
USER: ADFR SOLUTION from run 73
USER: SCORE 14.688900 LL:  -3.896 LR: -12.386 RR:   0.000 FEB:  -6.719
USER: RMSD 3.854928
USER: SEED 72
USER: STATUS no improvement in best in 13 clusters for 5 generations
USER: GENES 21
USER: genes 0 Translation |==|  0.47814 0.53403 0.42169
USER: genes 1 Rotation |==|  0.52657 0.49351 0.47213 0.99847
USER: genes 2 Torsion [N]-C--CA-[N] |==|  0.46111
USER: genes 3 Torsion [C]-CA--N-[C] |==|  0.79893
USER: genes 4 Torsion [N]-C--CA-[N] |==|  0.53640
USER: genes 5 Torsion [C]-CA--N-[C] |==|  0.37919
USER: genes 6 Torsion [N]-C--CA-[N] |==|  0.40312
USER: genes 7 Torsion [N]-C--CA-[N] |==|  0.87337
USER: genes 8 Torsion [C]-CA--CB-[CG] |==|  0.69574
USER: genes 9 Torsion [CA]-CB--CG-[CD] |==|  0.38220
USER: genes 10 Torsion [CB]-CG--CD-[OE2] |==|  0.57603
USER: genes 11 Torsion [C]-N--CA-[CB] |==|  0.51697
USER: genes 12 Torsion [N]-CA--CB-[OG] |==|  0.14579
USER: genes 13 Torsion [CA]-CB--OG-[HG] |==|  0.66305
USER: genes 14 Torsion [N]-CA--C-[N] |==|  0.91584
USER: genes 15 Torsion [C]-N--CA-[CB] |==|  0.48967
USER: genes 16 Torsion [N]-CA--C-[OXT] |==|  0.48967
USER: genes 17 Torsion [N]-CA--CB-[CG] |==|  0.06848
USER: genes 18 Torsion [CA]-CB--CG-[CD] |==|  0.72621
USER: genes 19 Torsion [CB]-CG--CD-[NE] |==|  0.27628
USER: genes 20 Torsion [CG]-CD--NE-[HE] |==|  0.81004
ROOT
ATOM      1  C   GLY B 361      37.677 -12.314 -11.212  1.00 26.32 LIG 0.24  C 
ATOM      2 O    GLY B 361      37.721 -13.510 -10.924  1.00 25.16 LIG-0.27  OA
ATOM      3  N   SER B 362      37.906 -11.859 -12.439  1.00 27.60 LIG-0.34  N 
ATOM      4 H    SER B 362      37.893 -11.027 -12.654  1.00 27.60 LIG 0.16  HD
ENDROOT
BRANCH 1 5
ATOM      5  CA  GLY B 361      37.361 -11.281 -10.145  1.00 24.90 LIG 0.23  C 
BRANCH 5 6
ATOM      6  N   GLY B 361      36.819 -11.918  -8.957  1.00 24.70 LIG-0.35  N 
ATOM      7  C   GLY B 360      35.586 -12.419  -8.953  1.00 25.98 LIG 0.23  C 
ATOM      8 O    GLY B 360      34.825 -12.357  -9.928  1.00 23.45 LIG-0.27  OA
ATOM      9 H    GLY B 361      37.353 -11.938  -8.284  1.00 24.70 LIG 0.16  HD
BRANCH 7 10
ATOM     10  CA  GLY B 360      35.131 -13.075  -7.667  1.00 26.97 LIG 0.23  C 
BRANCH 10 11
ATOM     11  N   GLY B 360      33.918 -13.836  -7.891  1.00 32.20 LIG-0.35  N 
ATOM     12  C   PRO B 359      33.768 -15.050  -7.371  1.00 35.92 LIG 0.24  C 
ATOM     13 O    PRO B 359      34.628 -15.597  -6.685  1.00 37.04 LIG-0.27  OA
ATOM     14 H    GLY B 360      33.328 -13.439  -8.374  1.00 32.20 LIG 0.16  HD
BRANCH 12 15
ATOM     15  CA  PRO B 359      32.448 -15.750  -7.673  1.00 39.21 LIG 0.18  C 
ATOM     16  CB  PRO B 359      31.452 -15.633  -6.522  1.00 38.88 LIG 0.04  C 
ATOM     17  CG  PRO B 359      31.764 -16.838  -5.693  1.00 39.81 LIG 0.02  C 
ATOM     18  CD  PRO B 359      31.900 -17.915  -6.747  1.00 41.55 LIG 0.13  C 
ATOM     19  N   PRO B 359      32.597 -17.201  -7.831  1.00 42.03 LIG-0.34  N 
ATOM     20  C   GLU B 358      33.350 -17.737  -8.802  1.00 44.90 LIG 0.26  C 
ATOM     21 O    GLU B 358      33.962 -17.041  -9.614  1.00 45.02 LIG-0.27  OA
BRANCH 20 22
ATOM     22  CA  GLU B 358      33.428 -19.262  -8.863  1.00 48.47 LIG 0.40  C 
ATOM     23  N   GLU B 358      33.655 -19.825  -7.498  1.00 49.88 LIG 0.61  N 
BRANCH 22 24
ATOM     24  CB  GLU B 358      32.125 -19.815  -9.455  1.00 52.00 LIG 0.06  C 
BRANCH 24 25
ATOM     25  CG  GLU B 358      31.232 -20.551  -8.461  1.00 56.00 LIG 0.12  C 
BRANCH 25 26
ATOM     26  CD  GLU B 358      29.762 -20.203  -8.624  1.00 58.41 LIG 0.17  C 
ATOM     27 OE1  GLU B 358      29.358 -19.843  -9.753  1.00 59.40 LIG-0.65  OA
ATOM     28 OE2  GLU B 358      29.012 -20.290  -7.626  1.00 59.45 LIG-0.65  OA
ENDBRANCH 25 26
ENDBRANCH 24 25
ENDBRANCH 22 24
ENDBRANCH 20 22
ENDBRANCH 12 15
ENDBRANCH 10 11
ENDBRANCH 7 10
ENDBRANCH 5 6
ENDBRANCH 1 5
BRANCH 3 29
ATOM     29  CA  SER B 362      38.202 -12.766 -13.545  1.00 31.63 LIG 0.20  C 
BRANCH 29 30
ATOM     30  CB  SER B 362      38.570 -11.966 -14.804  1.00 29.14 LIG 0.20  C 
BRANCH 30 31
ATOM     31 OG   SER B 362      39.597 -11.028 -14.541  1.00 25.13 LIG-0.40  OA
ATOM     32 HG   SER B 362      39.324 -10.254 -14.721  1.00 25.13 LIG 0.21  HD
ENDBRANCH 30 31
ENDBRANCH 29 30
BRANCH 29 33
ATOM     33  C   SER B 362      39.288 -13.811 -13.283  1.00 35.65 LIG 0.24  C 
ATOM     34 O    SER B 362      39.238 -14.901 -13.851  1.00 37.77 LIG-0.27  OA
ATOM     35  N   ARG B 363      40.264 -13.494 -12.435  1.00 40.10 LIG-0.34  N 
ATOM     36 H    ARG B 363      40.319 -12.744 -12.017  1.00 40.10 LIG 0.16  HD
BRANCH 35 37
ATOM     37  CA  ARG B 363      41.349 -14.438 -12.149  1.00 45.15 LIG 0.18  C 
BRANCH 37 38
ATOM     38  C   ARG B 363      40.858 -15.747 -11.532  1.00 46.43 LIG 0.20  C 
ATOM     39 O    ARG B 363      39.641 -15.855 -11.270  1.00 47.78 LIG-0.65  OA
ATOM     40 OXT  ARG B 363      41.694 -16.651 -11.314  1.00 47.46 LIG-0.65  OA
ENDBRANCH 37 38
BRANCH 37 41
ATOM     41  CB  ARG B 363      42.386 -13.801 -11.218  1.00 48.51 LIG 0.04  C 
BRANCH 41 42
ATOM     42  CG  ARG B 363      41.846 -12.675 -10.355  1.00 53.09 LIG 0.02  C 
BRANCH 42 43
ATOM     43  CD  ARG B 363      42.172 -11.319 -10.958  1.00 56.16 LIG 0.14  C 
BRANCH 43 44
ATOM     44  NE  ARG B 363      41.037 -10.759 -11.687  1.00 60.73 LIG-0.23  N 
ATOM     45 HE   ARG B 363      40.795 -11.147 -12.416  1.00 60.73 LIG 0.18  HD
ATOM     46  CZ  ARG B 363      40.352  -9.686 -11.297  1.00 63.15 LIG 0.67  C 
ATOM     47  NH2 ARG B 363      39.327  -9.247 -12.020  1.00 63.96 LIG-0.23  N 
ATOM     48  NH1 ARG B 363      40.689  -9.050 -10.181  1.00 63.92 LIG-0.23  N 
ATOM     49 1HH2 ARG B 363      39.104  -9.656 -12.743  1.00 63.96 LIG 0.17  HD
ATOM     50 2HH2 ARG B 363      38.887  -8.554 -11.765  1.00 63.96 LIG 0.17  HD
ATOM     51 1HH1 ARG B 363      41.351  -9.330  -9.709  1.00 63.92 LIG 0.17  HD
ATOM     52 2HH1 ARG B 363      40.245  -8.357  -9.930  1.00 63.92 LIG 0.17  HD
ENDBRANCH 43 44
ENDBRANCH 42 43
ENDBRANCH 41 42
ENDBRANCH 37 41
ENDBRANCH 35 37
ENDBRANCH 29 33
ENDBRANCH 3 29
TORSDOF 19
ENDMDL
MODEL 18
USER: ADFR SOLUTION from run 132
USER: SCORE 14.690837 LL:  -3.790 LR: -11.943 RR:   0.000 FEB:  -6.275
USER: RMSD 3.479113
USER: SEED 131
USER: STATUS no improvement in best in 8 clusters for 5 generations
USER: GENES 21
USER: genes 0 Translation |==|  0.50283 0.55269 0.42614
USER: genes 1 Rotation |==|  0.48654 0.44401 0.52961 0.99579
USER: genes 2 Torsion [N]-C--CA-[N] |==|  0.46312
USER: genes 3 Torsion [C]-CA--N-[C] |==|  0.77318
USER: genes 4 Torsion [N]-C--CA-[N] |==|  0.48487
USER: genes 5 Torsion [C]-CA--N-[C] |==|  0.55068
USER: genes 6 Torsion [N]-C--CA-[N] |==|  0.44839
USER: genes 7 Torsion [N]-C--CA-[N] |==|  0.43867
USER: genes 8 Torsion [C]-CA--CB-[CG] |==|  0.38906
USER: genes 9 Torsion [CA]-CB--CG-[CD] |==|  0.06914
USER: genes 10 Torsion [CB]-CG--CD-[OE2] |==|  0.66320
USER: genes 11 Torsion [C]-N--CA-[CB] |==|  0.22051
USER: genes 12 Torsion [N]-CA--CB-[OG] |==|  0.71295
USER: genes 13 Torsion [CA]-CB--OG-[HG] |==|  0.74887
USER: genes 14 Torsion [N]-CA--C-[N] |==|  0.86111
USER: genes 15 Torsion [C]-N--CA-[CB] |==|  0.81817
USER: genes 16 Torsion [N]-CA--C-[OXT] |==|  0.14647
USER: genes 17 Torsion [N]-CA--CB-[CG] |==|  0.81038
USER: genes 18 Torsion [CA]-CB--CG-[CD] |==|  0.28080
USER: genes 19 Torsion [CB]-CG--CD-[NE] |==|  0.68342
USER: genes 20 Torsion [CG]-CD--NE-[HE] |==|  0.12605
ROOT
ATOM      1  C   GLY B 361      38.270 -11.894 -11.108  1.00 26.32 LIG 0.24  C 
ATOM      2 O    GLY B 361      38.483 -12.992 -10.592  1.00 25.16 LIG-0.27  OA
ATOM      3  N   SER B 362      38.665 -11.587 -12.339  1.00 27.60 LIG-0.34  N 
ATOM      4 H    SER B 362      38.537 -10.821 -12.709  1.00 27.60 LIG 0.16  HD
ENDROOT
BRANCH 1 5
ATOM      5  CA  GLY B 361      37.535 -10.815 -10.335  1.00 24.90 LIG 0.23  C 
BRANCH 5 6
ATOM      6  N   GLY B 361      36.897 -11.372  -9.154  1.00 24.70 LIG-0.35  N 
ATOM      7  C   GLY B 360      35.722 -11.990  -9.239  1.00 25.98 LIG 0.23  C 
ATOM      8 O    GLY B 360      35.092 -12.108 -10.299  1.00 23.45 LIG-0.27  OA
ATOM      9 H    GLY B 361      37.338 -11.267  -8.423  1.00 24.70 LIG 0.16  HD
BRANCH 7 10
ATOM     10  CA  GLY B 360      35.159 -12.547  -7.949  1.00 26.97 LIG 0.23  C 
BRANCH 10 11
ATOM     11  N   GLY B 360      33.827 -13.075  -8.166  1.00 32.20 LIG-0.35  N 
ATOM     12  C   PRO B 359      33.001 -13.283  -7.146  1.00 35.92 LIG 0.24  C 
ATOM     13 O    PRO B 359      33.305 -13.051  -5.979  1.00 37.04 LIG-0.27  OA
ATOM     14 H    GLY B 360      33.632 -13.234  -8.988  1.00 32.20 LIG 0.16  HD
BRANCH 12 15
ATOM     15  CA  PRO B 359      31.626 -13.839  -7.499  1.00 39.21 LIG 0.18  C 
ATOM     16  CB  PRO B 359      30.653 -12.746  -7.938  1.00 38.88 LIG 0.04  C 
ATOM     17  CG  PRO B 359      30.023 -12.330  -6.647  1.00 39.81 LIG 0.02  C 
ATOM     18  CD  PRO B 359      29.743 -13.665  -5.992  1.00 41.55 LIG 0.13  C 
ATOM     19  N   PRO B 359      30.943 -14.442  -6.349  1.00 42.03 LIG-0.34  N 
ATOM     20  C   GLU B 358      31.443 -15.505  -5.703  1.00 44.90 LIG 0.26  C 
ATOM     21 O    GLU B 358      32.506 -16.033  -6.038  1.00 45.02 LIG-0.27  OA
BRANCH 20 22
ATOM     22  CA  GLU B 358      30.641 -16.043  -4.520  1.00 48.47 LIG 0.40  C 
ATOM     23  N   GLU B 358      31.000 -17.469  -4.256  1.00 49.88 LIG 0.61  N 
BRANCH 22 24
ATOM     24  CB  GLU B 358      30.924 -15.186  -3.280  1.00 52.00 LIG 0.06  C 
BRANCH 24 25
ATOM     25  CG  GLU B 358      29.705 -14.898  -2.408  1.00 56.00 LIG 0.12  C 
BRANCH 25 26
ATOM     26  CD  GLU B 358      28.617 -15.949  -2.557  1.00 58.41 LIG 0.17  C 
ATOM     27 OE1  GLU B 358      28.900 -17.139  -2.290  1.00 59.40 LIG-0.65  OA
ATOM     28 OE2  GLU B 358      27.483 -15.585  -2.938  1.00 59.45 LIG-0.65  OA
ENDBRANCH 25 26
ENDBRANCH 24 25
ENDBRANCH 22 24
ENDBRANCH 20 22
ENDBRANCH 12 15
ENDBRANCH 10 11
ENDBRANCH 7 10
ENDBRANCH 5 6
ENDBRANCH 1 5
BRANCH 3 29
ATOM     29  CA  SER B 362      39.365 -12.555 -13.179  1.00 31.63 LIG 0.20  C 
BRANCH 29 30
ATOM     30  CB  SER B 362      38.364 -13.540 -13.801  1.00 29.14 LIG 0.20  C 
BRANCH 30 31
ATOM     31 OG   SER B 362      38.391 -14.793 -13.142  1.00 25.13 LIG-0.40  OA
ATOM     32 HG   SER B 362      38.951 -15.295 -13.516  1.00 25.13 LIG 0.21  HD
ENDBRANCH 30 31
ENDBRANCH 29 30
BRANCH 29 33
ATOM     33  C   SER B 362      40.244 -11.970 -14.287  1.00 35.65 LIG 0.24  C 
ATOM     34 O    SER B 362      41.405 -12.355 -14.415  1.00 37.77 LIG-0.27  OA
ATOM     35  N   ARG B 363      39.707 -11.051 -15.086  1.00 40.10 LIG-0.34  N 
ATOM     36 H    ARG B 363      38.902 -10.756 -15.014  1.00 40.10 LIG 0.16  HD
BRANCH 35 37
ATOM     37  CA  ARG B 363      40.483 -10.459 -16.180  1.00 45.15 LIG 0.18  C 
BRANCH 37 38
ATOM     38  C   ARG B 363      41.019 -11.496 -17.166  1.00 46.43 LIG 0.20  C 
ATOM     39 O    ARG B 363      42.241 -11.482 -17.428  1.00 47.78 LIG-0.65  OA
ATOM     40 OXT  ARG B 363      40.214 -12.309 -17.668  1.00 47.46 LIG-0.65  OA
ENDBRANCH 37 38
BRANCH 37 41
ATOM     41  CB  ARG B 363      41.653  -9.636 -15.629  1.00 48.51 LIG 0.04  C 
BRANCH 41 42
ATOM     42  CG  ARG B 363      41.240  -8.375 -14.892  1.00 53.09 LIG 0.02  C 
BRANCH 42 43
ATOM     43  CD  ARG B 363      41.294  -8.577 -13.388  1.00 56.16 LIG 0.14  C 
BRANCH 43 44
ATOM     44  NE  ARG B 363      39.967  -8.511 -12.780  1.00 60.73 LIG-0.23  N 
ATOM     45 HE   ARG B 363      39.327  -8.940 -13.162  1.00 60.73 LIG 0.18  HD
ATOM     46  CZ  ARG B 363      39.684  -7.830 -11.671  1.00 63.15 LIG 0.67  C 
ATOM     47  NH2 ARG B 363      38.448  -7.830 -11.183  1.00 63.96 LIG-0.23  N 
ATOM     48  NH1 ARG B 363      40.637  -7.149 -11.047  1.00 63.92 LIG-0.23  N 
ATOM     49 1HH2 ARG B 363      37.827  -8.271 -11.584  1.00 63.96 LIG 0.17  HD
ATOM     50 2HH2 ARG B 363      38.269  -7.389 -10.467  1.00 63.96 LIG 0.17  HD
ATOM     51 1HH1 ARG B 363      41.439  -7.146 -11.358  1.00 63.92 LIG 0.17  HD
ATOM     52 2HH1 ARG B 363      40.453  -6.710 -10.330  1.00 63.92 LIG 0.17  HD
ENDBRANCH 43 44
ENDBRANCH 42 43
ENDBRANCH 41 42
ENDBRANCH 37 41
ENDBRANCH 35 37
ENDBRANCH 29 33
ENDBRANCH 3 29
TORSDOF 19
ENDMDL
MODEL 19
USER: ADFR SOLUTION from run 131
USER: SCORE 13.935433 LL:  -3.837 LR: -11.779 RR:   0.000 FEB:  -6.111
USER: RMSD 4.574809
USER: SEED 130
USER: STATUS no improvement in best in 8 clusters for 5 generations
USER: GENES 21
USER: genes 0 Translation |==|  0.50304 0.53188 0.42703
USER: genes 1 Rotation |==|  0.30424 0.51475 0.69429 0.91679
USER: genes 2 Torsion [N]-C--CA-[N] |==|  0.40375
USER: genes 3 Torsion [C]-CA--N-[C] |==|  0.71313
USER: genes 4 Torsion [N]-C--CA-[N] |==|  0.46917
USER: genes 5 Torsion [C]-CA--N-[C] |==|  0.44584
USER: genes 6 Torsion [N]-C--CA-[N] |==|  0.66590
USER: genes 7 Torsion [N]-C--CA-[N] |==|  0.34797
USER: genes 8 Torsion [C]-CA--CB-[CG] |==|  0.32335
USER: genes 9 Torsion [CA]-CB--CG-[CD] |==|  0.99398
USER: genes 10 Torsion [CB]-CG--CD-[OE2] |==|  0.71137
USER: genes 11 Torsion [C]-N--CA-[CB] |==|  0.17950
USER: genes 12 Torsion [N]-CA--CB-[OG] |==|  0.17474
USER: genes 13 Torsion [CA]-CB--OG-[HG] |==|  0.82736
USER: genes 14 Torsion [N]-CA--C-[N] |==|  0.46053
USER: genes 15 Torsion [C]-N--CA-[CB] |==|  0.34473
USER: genes 16 Torsion [N]-CA--C-[OXT] |==|  0.92718
USER: genes 17 Torsion [N]-CA--CB-[CG] |==|  0.92439
USER: genes 18 Torsion [CA]-CB--CG-[CD] |==|  0.82967
USER: genes 19 Torsion [CB]-CG--CD-[NE] |==|  0.36715
USER: genes 20 Torsion [CG]-CD--NE-[HE] |==|  0.06862
ROOT
ATOM      1  C   GLY B 361      38.275 -12.363 -11.088  1.00 26.32 LIG 0.24  C 
ATOM      2 O    GLY B 361      39.067 -12.419 -10.147  1.00 25.16 LIG-0.27  OA
ATOM      3  N   SER B 362      38.475 -12.995 -12.239  1.00 27.60 LIG-0.34  N 
ATOM      4 H    SER B 362      37.940 -12.954 -12.910  1.00 27.60 LIG 0.16  HD
ENDROOT
BRANCH 1 5
ATOM      5  CA  GLY B 361      37.006 -11.537 -10.971  1.00 24.90 LIG 0.23  C 
BRANCH 5 6
ATOM      6  N   GLY B 361      36.484 -11.586  -9.616  1.00 24.70 LIG-0.35  N 
ATOM      7  C   GLY B 360      35.435 -12.346  -9.315  1.00 25.98 LIG 0.23  C 
ATOM      8 O    GLY B 360      34.828 -13.029 -10.151  1.00 23.45 LIG-0.27  OA
ATOM      9 H    GLY B 361      36.905 -11.093  -9.050  1.00 24.70 LIG 0.16  HD
BRANCH 7 10
ATOM     10  CA  GLY B 360      34.987 -12.334  -7.869  1.00 26.97 LIG 0.23  C 
BRANCH 10 11
ATOM     11  N   GLY B 360      33.700 -12.985  -7.733  1.00 32.20 LIG-0.35  N 
ATOM     12  C   PRO B 359      33.284 -13.436  -6.554  1.00 35.92 LIG 0.24  C 
ATOM     13 O    PRO B 359      33.948 -13.337  -5.526  1.00 37.04 LIG-0.27  OA
ATOM     14 H    GLY B 360      33.249 -13.048  -8.462  1.00 32.20 LIG 0.16  HD
BRANCH 12 15
ATOM     15  CA  PRO B 359      31.912 -14.101  -6.536  1.00 39.21 LIG 0.18  C 
ATOM     16  CB  PRO B 359      31.212 -14.024  -7.891  1.00 38.88 LIG 0.04  C 
ATOM     17  CG  PRO B 359      30.457 -12.736  -7.799  1.00 39.81 LIG 0.02  C 
ATOM     18  CD  PRO B 359      29.865 -12.820  -6.409  1.00 41.55 LIG 0.13  C 
ATOM     19  N   PRO B 359      30.965 -13.427  -5.640  1.00 42.03 LIG-0.34  N 
ATOM     20  C   GLU B 358      31.177 -13.339  -4.319  1.00 44.90 LIG 0.26  C 
ATOM     21 O    GLU B 358      32.180 -13.815  -3.785  1.00 45.02 LIG-0.27  OA
BRANCH 20 22
ATOM     22  CA  GLU B 358      30.118 -12.612  -3.490  1.00 48.47 LIG 0.40  C 
ATOM     23  N   GLU B 358      29.635 -13.491  -2.383  1.00 49.88 LIG 0.61  N 
BRANCH 22 24
ATOM     24  CB  GLU B 358      30.716 -11.320  -2.920  1.00 52.00 LIG 0.06  C 
BRANCH 24 25
ATOM     25  CG  GLU B 358      30.060 -10.036  -3.420  1.00 56.00 LIG 0.12  C 
BRANCH 25 26
ATOM     26  CD  GLU B 358      28.962 -10.297  -4.439  1.00 58.41 LIG 0.17  C 
ATOM     27 OE1  GLU B 358      27.857 -10.718  -4.026  1.00 59.40 LIG-0.65  OA
ATOM     28 OE2  GLU B 358      29.203 -10.080  -5.646  1.00 59.45 LIG-0.65  OA
ENDBRANCH 25 26
ENDBRANCH 24 25
ENDBRANCH 22 24
ENDBRANCH 20 22
ENDBRANCH 12 15
ENDBRANCH 10 11
ENDBRANCH 7 10
ENDBRANCH 5 6
ENDBRANCH 1 5
BRANCH 3 29
ATOM     29  CA  SER B 362      39.653 -13.831 -12.454  1.00 31.63 LIG 0.20  C 
BRANCH 29 30
ATOM     30  CB  SER B 362      39.627 -15.039 -11.506  1.00 29.14 LIG 0.20  C 
BRANCH 30 31
ATOM     31 OG   SER B 362      38.513 -15.875 -11.760  1.00 25.13 LIG-0.40  OA
ATOM     32 HG   SER B 362      37.804 -15.446 -11.623  1.00 25.13 LIG 0.21  HD
ENDBRANCH 30 31
ENDBRANCH 29 30
BRANCH 29 33
ATOM     33  C   SER B 362      39.873 -14.325 -13.886  1.00 35.65 LIG 0.24  C 
ATOM     34 O    SER B 362      38.962 -14.240 -14.709  1.00 37.77 LIG-0.27  OA
ATOM     35  N   ARG B 363      41.063 -14.837 -14.191  1.00 40.10 LIG-0.34  N 
ATOM     36 H    ARG B 363      41.713 -14.918 -13.634  1.00 40.10 LIG 0.16  HD
BRANCH 35 37
ATOM     37  CA  ARG B 363      41.352 -15.314 -15.547  1.00 45.15 LIG 0.18  C 
BRANCH 37 38
ATOM     38  C   ARG B 363      41.555 -16.826 -15.622  1.00 46.43 LIG 0.20  C 
ATOM     39 O    ARG B 363      41.310 -17.401 -16.704  1.00 47.78 LIG-0.65  OA
ATOM     40 OXT  ARG B 363      41.955 -17.422 -14.598  1.00 47.46 LIG-0.65  OA
ENDBRANCH 37 38
BRANCH 37 41
ATOM     41  CB  ARG B 363      42.590 -14.611 -16.113  1.00 48.51 LIG 0.04  C 
BRANCH 41 42
ATOM     42  CG  ARG B 363      42.844 -13.229 -15.539  1.00 53.09 LIG 0.02  C 
BRANCH 42 43
ATOM     43  CD  ARG B 363      41.687 -12.291 -15.840  1.00 56.16 LIG 0.14  C 
BRANCH 43 44
ATOM     44  NE  ARG B 363      41.256 -11.557 -14.653  1.00 60.73 LIG-0.23  N 
ATOM     45 HE   ARG B 363      41.828 -11.442 -14.020  1.00 60.73 LIG 0.18  HD
ATOM     46  CZ  ARG B 363      40.035 -11.053 -14.486  1.00 63.15 LIG 0.67  C 
ATOM     47  NH2 ARG B 363      39.730 -10.392 -13.374  1.00 63.96 LIG-0.23  N 
ATOM     48  NH1 ARG B 363      39.116 -11.207 -15.432  1.00 63.92 LIG-0.23  N 
ATOM     49 1HH2 ARG B 363      40.322 -10.289 -12.758  1.00 63.96 LIG 0.17  HD
ATOM     50 2HH2 ARG B 363      38.940 -10.068 -13.270  1.00 63.96 LIG 0.17  HD
ATOM     51 1HH1 ARG B 363      39.309 -11.633 -16.154  1.00 63.92 LIG 0.17  HD
ATOM     52 2HH1 ARG B 363      38.328 -10.881 -15.324  1.00 63.92 LIG 0.17  HD
ENDBRANCH 43 44
ENDBRANCH 42 43
ENDBRANCH 41 42
ENDBRANCH 37 41
ENDBRANCH 35 37
ENDBRANCH 29 33
ENDBRANCH 3 29
TORSDOF 19
ENDMDL
MODEL 20
USER: ADFR SOLUTION from run 114
USER: SCORE 14.901767 LL:  -4.103 LR: -11.727 RR:   0.000 FEB:  -6.059
USER: RMSD 4.488389
USER: SEED 113
USER: STATUS no improvement in best in 11 clusters for 5 generations
USER: GENES 21
USER: genes 0 Translation |==|  0.48890 0.54450 0.40515
USER: genes 1 Rotation |==|  0.58808 0.37626 0.52740 0.97558
USER: genes 2 Torsion [N]-C--CA-[N] |==|  0.56272
USER: genes 3 Torsion [C]-CA--N-[C] |==|  0.60802
USER: genes 4 Torsion [N]-C--CA-[N] |==|  0.56545
USER: genes 5 Torsion [C]-CA--N-[C] |==|  0.61343
USER: genes 6 Torsion [N]-C--CA-[N] |==|  0.61916
USER: genes 7 Torsion [N]-C--CA-[N] |==|  0.36773
USER: genes 8 Torsion [C]-CA--CB-[CG] |==|  0.30901
USER: genes 9 Torsion [CA]-CB--CG-[CD] |==|  0.02405
USER: genes 10 Torsion [CB]-CG--CD-[OE2] |==|  0.66886
USER: genes 11 Torsion [C]-N--CA-[CB] |==|  0.18131
USER: genes 12 Torsion [N]-CA--CB-[OG] |==|  0.20036
USER: genes 13 Torsion [CA]-CB--OG-[HG] |==|  0.95781
USER: genes 14 Torsion [N]-CA--C-[N] |==|  0.05000
USER: genes 15 Torsion [C]-N--CA-[CB] |==|  0.43945
USER: genes 16 Torsion [N]-CA--C-[OXT] |==|  0.44638
USER: genes 17 Torsion [N]-CA--CB-[CG] |==|  0.14838
USER: genes 18 Torsion [CA]-CB--CG-[CD] |==|  0.25411
USER: genes 19 Torsion [CB]-CG--CD-[NE] |==|  0.18721
USER: genes 20 Torsion [CG]-CD--NE-[HE] |==|  0.21417
ROOT
ATOM      1  C   GLY B 361      37.936 -12.079 -11.596  1.00 26.32 LIG 0.24  C 
ATOM      2 O    GLY B 361      38.130 -13.292 -11.525  1.00 25.16 LIG-0.27  OA
ATOM      3  N   SER B 362      38.577 -11.295 -12.456  1.00 27.60 LIG-0.34  N 
ATOM      4 H    SER B 362      38.464 -10.444 -12.509  1.00 27.60 LIG 0.16  HD
ENDROOT
BRANCH 1 5
ATOM      5  CA  GLY B 361      36.934 -11.408 -10.673  1.00 24.90 LIG 0.23  C 
BRANCH 5 6
ATOM      6  N   GLY B 361      36.712 -12.213  -9.484  1.00 24.70 LIG-0.35  N 
ATOM      7  C   GLY B 360      35.497 -12.328  -8.954  1.00 25.98 LIG 0.23  C 
ATOM      8 O    GLY B 360      34.500 -11.752  -9.410  1.00 23.45 LIG-0.27  OA
ATOM      9 H    GLY B 361      37.416 -12.593  -9.170  1.00 24.70 LIG 0.16  HD
BRANCH 7 10
ATOM     10  CA  GLY B 360      35.378 -13.206  -7.727  1.00 26.97 LIG 0.23  C 
BRANCH 10 11
ATOM     11  N   GLY B 360      34.020 -13.691  -7.582  1.00 32.20 LIG-0.35  N 
ATOM     12  C   PRO B 359      33.439 -13.747  -6.389  1.00 35.92 LIG 0.24  C 
ATOM     13 O    PRO B 359      34.001 -13.404  -5.352  1.00 37.04 LIG-0.27  OA
ATOM     14 H    GLY B 360      33.642 -13.928  -8.317  1.00 32.20 LIG 0.16  HD
BRANCH 12 15
ATOM     15  CA  PRO B 359      32.007 -14.272  -6.363  1.00 39.21 LIG 0.18  C 
ATOM     16  CB  PRO B 359      31.321 -14.153  -7.722  1.00 38.88 LIG 0.04  C 
ATOM     17  CG  PRO B 359      30.698 -12.795  -7.658  1.00 39.81 LIG 0.02  C 
ATOM     18  CD  PRO B 359      30.097 -12.793  -6.269  1.00 41.55 LIG 0.13  C 
ATOM     19  N   PRO B 359      31.130 -13.491  -5.484  1.00 42.03 LIG-0.34  N 
ATOM     20  C   GLU B 358      31.347 -13.398  -4.164  1.00 44.90 LIG 0.26  C 
ATOM     21 O    GLU B 358      32.297 -13.961  -3.617  1.00 45.02 LIG-0.27  OA
BRANCH 20 22
ATOM     22  CA  GLU B 358      30.364 -12.554  -3.354  1.00 48.47 LIG 0.40  C 
ATOM     23  N   GLU B 358      29.925 -13.299  -2.136  1.00 49.88 LIG 0.61  N 
BRANCH 22 24
ATOM     24  CB  GLU B 358      31.034 -11.233  -2.956  1.00 52.00 LIG 0.06  C 
BRANCH 24 25
ATOM     25  CG  GLU B 358      30.464  -9.995  -3.643  1.00 56.00 LIG 0.12  C 
BRANCH 25 26
ATOM     26  CD  GLU B 358      29.200 -10.292  -4.433  1.00 58.41 LIG 0.17  C 
ATOM     27 OE1  GLU B 358      28.205 -10.736  -3.817  1.00 59.40 LIG-0.65  OA
ATOM     28 OE2  GLU B 358      29.202 -10.080  -5.665  1.00 59.45 LIG-0.65  OA
ENDBRANCH 25 26
ENDBRANCH 24 25
ENDBRANCH 22 24
ENDBRANCH 20 22
ENDBRANCH 12 15
ENDBRANCH 10 11
ENDBRANCH 7 10
ENDBRANCH 5 6
ENDBRANCH 1 5
BRANCH 3 29
ATOM     29  CA  SER B 362      39.549 -11.836 -13.402  1.00 31.63 LIG 0.20  C 
BRANCH 29 30
ATOM     30  CB  SER B 362      38.852 -12.768 -14.405  1.00 29.14 LIG 0.20  C 
BRANCH 30 31
ATOM     31 OG   SER B 362      38.061 -12.040 -15.326  1.00 25.13 LIG-0.40  OA
ATOM     32 HG   SER B 362      37.945 -11.258 -15.041  1.00 25.13 LIG 0.21  HD
ENDBRANCH 30 31
ENDBRANCH 29 30
BRANCH 29 33
ATOM     33  C   SER B 362      40.381 -10.808 -14.172  1.00 35.65 LIG 0.24  C 
ATOM     34 O    SER B 362      40.967 -11.141 -15.200  1.00 37.77 LIG-0.27  OA
ATOM     35  N   ARG B 363      40.438  -9.569 -13.689  1.00 40.10 LIG-0.34  N 
ATOM     36 H    ARG B 363      40.047  -9.310 -12.968  1.00 40.10 LIG 0.16  HD
BRANCH 35 37
ATOM     37  CA  ARG B 363      41.201  -8.525 -14.383  1.00 45.15 LIG 0.18  C 
BRANCH 37 38
ATOM     38  C   ARG B 363      42.705  -8.611 -14.127  1.00 46.43 LIG 0.20  C 
ATOM     39 O    ARG B 363      43.097  -9.252 -13.129  1.00 47.78 LIG-0.65  OA
ATOM     40 OXT  ARG B 363      43.476  -8.034 -14.924  1.00 47.46 LIG-0.65  OA
ENDBRANCH 37 38
BRANCH 37 41
ATOM     41  CB  ARG B 363      40.700  -7.134 -13.980  1.00 48.51 LIG 0.04  C 
BRANCH 41 42
ATOM     42  CG  ARG B 363      40.667  -6.889 -12.482  1.00 53.09 LIG 0.02  C 
BRANCH 42 43
ATOM     43  CD  ARG B 363      41.970  -6.275 -11.999  1.00 56.16 LIG 0.14  C 
BRANCH 43 44
ATOM     44  NE  ARG B 363      42.157  -4.918 -12.509  1.00 60.73 LIG-0.23  N 
ATOM     45 HE   ARG B 363      41.712  -4.283 -12.137  1.00 60.73 LIG 0.18  HD
ATOM     46  CZ  ARG B 363      42.972  -4.601 -13.513  1.00 63.15 LIG 0.67  C 
ATOM     47  NH2 ARG B 363      43.086  -3.338 -13.909  1.00 63.96 LIG-0.23  N 
ATOM     48  NH1 ARG B 363      43.678  -5.547 -14.122  1.00 63.92 LIG-0.23  N 
ATOM     49 1HH2 ARG B 363      42.632  -2.721 -13.517  1.00 63.96 LIG 0.17  HD
ATOM     50 2HH2 ARG B 363      43.613  -3.137 -14.558  1.00 63.96 LIG 0.17  HD
ATOM     51 1HH1 ARG B 363      43.608  -6.366 -13.868  1.00 63.92 LIG 0.17  HD
ATOM     52 2HH1 ARG B 363      44.205  -5.341 -14.769  1.00 63.92 LIG 0.17  HD
ENDBRANCH 43 44
ENDBRANCH 42 43
ENDBRANCH 41 42
ENDBRANCH 37 41
ENDBRANCH 35 37
ENDBRANCH 29 33
ENDBRANCH 3 29
TORSDOF 19
ENDMDL
MODEL 21
USER: ADFR SOLUTION from run 94
USER: SCORE 14.415823 LL:  -3.990 LR: -11.712 RR:   0.000 FEB:  -6.044
USER: RMSD 4.005759
USER: SEED 93
USER: STATUS searching
USER: GENES 21
USER: genes 0 Translation |==|  0.47866 0.54348 0.41724
USER: genes 1 Rotation |==|  0.52337 0.48996 0.45654 0.99746
USER: genes 2 Torsion [N]-C--CA-[N] |==|  0.46770
USER: genes 3 Torsion [C]-CA--N-[C] |==|  0.79923
USER: genes 4 Torsion [N]-C--CA-[N] |==|  0.52616
USER: genes 5 Torsion [C]-CA--N-[C] |==|  0.60067
USER: genes 6 Torsion [N]-C--CA-[N] |==|  0.25477
USER: genes 7 Torsion [N]-C--CA-[N] |==|  0.23889
USER: genes 8 Torsion [C]-CA--CB-[CG] |==|  0.72100
USER: genes 9 Torsion [CA]-CB--CG-[CD] |==|  0.15628
USER: genes 10 Torsion [CB]-CG--CD-[OE2] |==|  0.67980
USER: genes 11 Torsion [C]-N--CA-[CB] |==|  0.56111
USER: genes 12 Torsion [N]-CA--CB-[OG] |==|  0.07474
USER: genes 13 Torsion [CA]-CB--OG-[HG] |==|  0.73740
USER: genes 14 Torsion [N]-CA--C-[N] |==|  0.77910
USER: genes 15 Torsion [C]-N--CA-[CB] |==|  0.47309
USER: genes 16 Torsion [N]-CA--C-[OXT] |==|  0.22294
USER: genes 17 Torsion [N]-CA--CB-[CG] |==|  0.06859
USER: genes 18 Torsion [CA]-CB--CG-[CD] |==|  0.35261
USER: genes 19 Torsion [CB]-CG--CD-[NE] |==|  0.83961
USER: genes 20 Torsion [CG]-CD--NE-[HE] |==|  0.02479
ROOT
ATOM      1  C   GLY B 361      37.690 -12.102 -11.315  1.00 26.32 LIG 0.24  C 
ATOM      2 O    GLY B 361      37.655 -13.294 -11.012  1.00 25.16 LIG-0.27  OA
ATOM      3  N   SER B 362      37.958 -11.678 -12.546  1.00 27.60 LIG-0.34  N 
ATOM      4 H    SER B 362      38.001 -10.849 -12.771  1.00 27.60 LIG 0.16  HD
ENDROOT
BRANCH 1 5
ATOM      5  CA  GLY B 361      37.429 -11.037 -10.265  1.00 24.90 LIG 0.23  C 
BRANCH 5 6
ATOM      6  N   GLY B 361      36.888 -11.630  -9.054  1.00 24.70 LIG-0.35  N 
ATOM      7  C   GLY B 360      35.640 -12.090  -9.018  1.00 25.98 LIG 0.23  C 
ATOM      8 O    GLY B 360      34.863 -12.024  -9.980  1.00 23.45 LIG-0.27  OA
ATOM      9 H    GLY B 361      37.433 -11.654  -8.390  1.00 24.70 LIG 0.16  HD
BRANCH 7 10
ATOM     10  CA  GLY B 360      35.187 -12.704  -7.711  1.00 26.97 LIG 0.23  C 
BRANCH 10 11
ATOM     11  N   GLY B 360      33.903 -13.356  -7.877  1.00 32.20 LIG-0.35  N 
ATOM     12  C   PRO B 359      32.995 -13.332  -6.907  1.00 35.92 LIG 0.24  C 
ATOM     13 O    PRO B 359      33.179 -12.773  -5.829  1.00 37.04 LIG-0.27  OA
ATOM     14 H    GLY B 360      33.792 -13.744  -8.636  1.00 32.20 LIG 0.16  HD
BRANCH 12 15
ATOM     15  CA  PRO B 359      31.682 -14.050  -7.200  1.00 39.21 LIG 0.18  C 
ATOM     16  CB  PRO B 359      30.510 -13.458  -6.420  1.00 38.88 LIG 0.04  C 
ATOM     17  CG  PRO B 359      30.524 -14.252  -5.153  1.00 39.81 LIG 0.02  C 
ATOM     18  CD  PRO B 359      30.727 -15.660  -5.670  1.00 41.55 LIG 0.13  C 
ATOM     19  N   PRO B 359      31.690 -15.451  -6.766  1.00 42.03 LIG-0.34  N 
ATOM     20  C   GLU B 358      32.543 -16.350  -7.278  1.00 44.90 LIG 0.26  C 
ATOM     21 O    GLU B 358      33.370 -16.047  -8.140  1.00 45.02 LIG-0.27  OA
BRANCH 20 22
ATOM     22  CA  GLU B 358      32.455 -17.778  -6.744  1.00 48.47 LIG 0.40  C 
ATOM     23  N   GLU B 358      31.424 -18.551  -7.499  1.00 49.88 LIG 0.61  N 
BRANCH 22 24
ATOM     24  CB  GLU B 358      33.825 -18.455  -6.872  1.00 52.00 LIG 0.06  C 
BRANCH 24 25
ATOM     25  CG  GLU B 358      33.967 -19.392  -8.069  1.00 56.00 LIG 0.12  C 
BRANCH 25 26
ATOM     26  CD  GLU B 358      33.666 -18.704  -9.391  1.00 58.41 LIG 0.17  C 
ATOM     27 OE1  GLU B 358      34.423 -17.779  -9.765  1.00 59.40 LIG-0.65  OA
ATOM     28 OE2  GLU B 358      32.678 -19.087 -10.054  1.00 59.45 LIG-0.65  OA
ENDBRANCH 25 26
ENDBRANCH 24 25
ENDBRANCH 22 24
ENDBRANCH 20 22
ENDBRANCH 12 15
ENDBRANCH 10 11
ENDBRANCH 7 10
ENDBRANCH 5 6
ENDBRANCH 1 5
BRANCH 3 29
ATOM     29  CA  SER B 362      38.207 -12.615 -13.637  1.00 31.63 LIG 0.20  C 
BRANCH 29 30
ATOM     30  CB  SER B 362      39.002 -11.927 -14.757  1.00 29.14 LIG 0.20  C 
BRANCH 30 31
ATOM     31 OG   SER B 362      39.792 -10.864 -14.256  1.00 25.13 LIG-0.40  OA
ATOM     32 HG   SER B 362      39.370 -10.142 -14.332  1.00 25.13 LIG 0.21  HD
ENDBRANCH 30 31
ENDBRANCH 29 30
BRANCH 29 33
ATOM     33  C   SER B 362      38.911 -13.919 -13.254  1.00 35.65 LIG 0.24  C 
ATOM     34 O    SER B 362      38.254 -14.950 -13.111  1.00 37.77 LIG-0.27  OA
ATOM     35  N   ARG B 363      40.231 -13.887 -13.088  1.00 40.10 LIG-0.34  N 
ATOM     36 H    ARG B 363      40.714 -13.180 -13.171  1.00 40.10 LIG 0.16  HD
BRANCH 35 37
ATOM     37  CA  ARG B 363      40.975 -15.101 -12.738  1.00 45.15 LIG 0.18  C 
BRANCH 37 38
ATOM     38  C   ARG B 363      40.645 -15.627 -11.342  1.00 46.43 LIG 0.20  C 
ATOM     39 O    ARG B 363      41.437 -15.363 -10.411  1.00 47.78 LIG-0.65  OA
ATOM     40 OXT  ARG B 363      39.602 -16.298 -11.192  1.00 47.46 LIG-0.65  OA
ENDBRANCH 37 38
BRANCH 37 41
ATOM     41  CB  ARG B 363      42.485 -14.856 -12.840  1.00 48.51 LIG 0.04  C 
BRANCH 41 42
ATOM     42  CG  ARG B 363      42.896 -13.404 -12.679  1.00 53.09 LIG 0.02  C 
BRANCH 42 43
ATOM     43  CD  ARG B 363      43.960 -13.252 -11.606  1.00 56.16 LIG 0.14  C 
BRANCH 43 44
ATOM     44  NE  ARG B 363      43.512 -13.766 -10.314  1.00 60.73 LIG-0.23  N 
ATOM     45 HE   ARG B 363      42.771 -14.202 -10.290  1.00 60.73 LIG 0.18  HD
ATOM     46  CZ  ARG B 363      44.177 -13.605  -9.172  1.00 63.15 LIG 0.67  C 
ATOM     47  NH2 ARG B 363      43.697 -14.113  -8.042  1.00 63.96 LIG-0.23  N 
ATOM     48  NH1 ARG B 363      45.323 -12.935  -9.158  1.00 63.92 LIG-0.23  N 
ATOM     49 1HH2 ARG B 363      42.956 -14.548  -8.046  1.00 63.96 LIG 0.17  HD
ATOM     50 2HH2 ARG B 363      44.129 -14.006  -7.306  1.00 63.96 LIG 0.17  HD
ATOM     51 1HH1 ARG B 363      45.638 -12.605  -9.887  1.00 63.92 LIG 0.17  HD
ATOM     52 2HH1 ARG B 363      45.752 -12.831  -8.420  1.00 63.92 LIG 0.17  HD
ENDBRANCH 43 44
ENDBRANCH 42 43
ENDBRANCH 41 42
ENDBRANCH 37 41
ENDBRANCH 35 37
ENDBRANCH 29 33
ENDBRANCH 3 29
TORSDOF 19
ENDMDL
