MODEL 1
USER: ADFR SOLUTION from run 14
USER: SCORE 16.982683 LL:  -4.815 LR: -13.811 RR:   0.000 FEB:  -6.652
USER: RMSD 3.600524
USER: SEED 703829
USER: STATUS searching
USER: GENES 26
USER: genes 0 Translation |==|  0.35847 0.51627 0.51605
USER: genes 1 Rotation |==|  0.57069 0.51053 0.50096 0.99486
USER: genes 2 Torsion [N]-CA--C-[N] |==|  0.39586
USER: genes 3 Torsion [C]-N--CA-[CB] |==|  0.18654
USER: genes 4 Torsion [N]-CA--CB-[OG] |==|  0.18450
USER: genes 5 Torsion [CA]-CB--OG-[HG] |==|  0.22970
USER: genes 6 Torsion [N]-CA--C-[N] |==|  0.50816
USER: genes 7 Torsion [C]-N--CA-[C] |==|  0.78229
USER: genes 8 Torsion [N]-CA--C-[N] |==|  0.48994
USER: genes 9 Torsion [C]-N--CA-[C] |==|  0.82144
USER: genes 10 Torsion [N]-CA--C-[O] |==|  0.17668
USER: genes 11 Torsion [N]-CA--CB-[OG] |==|  0.10594
USER: genes 12 Torsion [CA]-CB--OG-[HG] |==|  0.81624
USER: genes 13 Torsion [N]-CA--CB-[OG] |==|  0.77048
USER: genes 14 Torsion [CA]-CB--OG-[HG] |==|  0.86163
USER: genes 15 Torsion [N]-C--CA-[N] |==|  0.17064
USER: genes 16 Torsion [C]-CA--N-[C] |==|  0.65767
USER: genes 17 Torsion [N]-C--CA-[N] |==|  0.37274
USER: genes 18 Torsion [C]-CA--CB-[CG] |==|  0.40772
USER: genes 19 Torsion [CA]-CB--CG-[CD] |==|  0.98001
USER: genes 20 Torsion [CB]-CG--CD-[OE1] |==|  0.70889
USER: genes 21 Torsion [C]-CA--CB-[CG] |==|  0.76629
USER: genes 22 Torsion [CA]-CB--CG-[CD] |==|  0.31209
USER: genes 23 Torsion [CB]-CG--CD-[CE] |==|  0.11309
USER: genes 24 Torsion [CG]-CD--CE-[NZ] |==|  0.66450
USER: genes 25 Torsion [CD]-CE--NZ-[HZ3] |==|  0.15672
ROOT
ATOM      1  C   LYS B 143      31.679 -16.550  -7.181  1.00 34.55 LIG 0.24  C 
ATOM      2 O    LYS B 143      32.385 -16.664  -8.183  1.00 35.84 LIG-0.27  OA
ATOM      3  N   PRO B 144      31.220 -15.357  -6.767  1.00 31.41 LIG-0.34  N 
ATOM      4  CA  PRO B 144      31.568 -14.142  -7.507  1.00 28.99 LIG 0.18  C 
ATOM      5  CB  PRO B 144      30.571 -13.119  -6.971  1.00 27.49 LIG 0.04  C 
ATOM      6  CG  PRO B 144      30.434 -13.528  -5.552  1.00 29.54 LIG 0.02  C 
ATOM      7  CD  PRO B 144      30.313 -15.045  -5.649  1.00 30.41 LIG 0.13  C 
ENDROOT
BRANCH 4 8
ATOM      8  C   PRO B 144      33.011 -13.737  -7.244  1.00 27.24 LIG 0.24  C 
ATOM      9  N   SER B 145      33.681 -13.240  -8.282  1.00 24.69 LIG-0.34  N 
ATOM     10 H    SER B 145      33.342 -13.146  -9.067  1.00 24.69 LIG 0.16  HD
ATOM     11 O    PRO B 144      33.500 -13.870  -6.126  1.00 26.33 LIG-0.27  OA
BRANCH 9 12
ATOM     12  CA  SER B 145      35.067 -12.805  -8.177  1.00 22.76 LIG 0.20  C 
BRANCH 12 13
ATOM     13  CB  SER B 145      35.981 -14.003  -7.920  1.00 22.87 LIG 0.20  C 
BRANCH 13 14
ATOM     14 OG   SER B 145      35.997 -14.871  -9.044  1.00 23.93 LIG-0.40  OA
ATOM     15 HG   SER B 145      36.544 -14.583  -9.613  1.00 23.93 LIG 0.21  HD
ENDBRANCH 13 14
ENDBRANCH 12 13
BRANCH 12 16
ATOM     16  C   SER B 145      35.469 -12.167  -9.495  1.00 23.07 LIG 0.24  C 
ATOM     17 O    SER B 145      34.651 -12.043 -10.413  1.00 22.80 LIG-0.27  OA
ATOM     18  N   SER B 146      36.731 -11.766  -9.593  1.00 21.84 LIG-0.34  N 
ATOM     19 H    SER B 146      37.309 -11.823  -8.958  1.00 21.84 LIG 0.16  HD
BRANCH 18 20
ATOM     20  CA  SER B 146      37.238 -11.182 -10.825  1.00 21.58 LIG 0.20  C 
BRANCH 20 21
ATOM     21  C   SER B 146      37.494 -12.361 -11.762  1.00 21.23 LIG 0.24  C 
ATOM     22 O    SER B 146      37.319 -13.518 -11.368  1.00 18.65 LIG-0.27  OA
ATOM     23  N   SER B 147      37.897 -12.074 -12.996  1.00 20.83 LIG-0.34  N 
ATOM     24 H    SER B 147      38.026 -11.275 -13.286  1.00 20.83 LIG 0.16  HD
BRANCH 23 25
ATOM     25  CA  SER B 147      38.160 -13.121 -13.977  1.00 21.16 LIG 0.21  C 
BRANCH 25 26
ATOM     26  C   SER B 147      39.326 -14.024 -13.575  1.00 22.63 LIG 0.20  C 
ATOM     27 O    SER B 147      39.202 -14.707 -12.536  1.00 24.48 LIG-0.65  OA
ATOM     28 OXT  SER B 147      40.341 -14.050 -14.303  1.00 22.21 LIG-0.65  OA
ENDBRANCH 25 26
BRANCH 25 29
ATOM     29  CB  SER B 147      38.434 -12.503 -15.353  1.00 20.11 LIG 0.20  C 
BRANCH 29 30
ATOM     30 OG   SER B 147      39.189 -11.312 -15.243  1.00 18.07 LIG-0.40  OA
ATOM     31 HG   SER B 147      38.733 -10.725 -14.852  1.00 18.07 LIG 0.21  HD
ENDBRANCH 29 30
ENDBRANCH 25 29
ENDBRANCH 23 25
ENDBRANCH 20 21
BRANCH 20 32
ATOM     32  CB  SER B 146      38.539 -10.422 -10.566  1.00 20.68 LIG 0.20  C 
BRANCH 32 33
ATOM     33 OG   SER B 146      38.267  -9.123 -10.081  1.00 26.78 LIG-0.40  OA
ATOM     34 HG   SER B 146      37.702  -8.751 -10.579  1.00 26.78 LIG 0.21  HD
ENDBRANCH 32 33
ENDBRANCH 20 32
ENDBRANCH 18 20
ENDBRANCH 12 16
ENDBRANCH 9 12
ENDBRANCH 4 8
BRANCH 1 35
ATOM     35  CA  LYS B 143      31.283 -17.782  -6.368  1.00 37.18 LIG 0.18  C 
BRANCH 35 36
ATOM     36  N   LYS B 143      29.830 -17.920  -6.395  1.00 37.14 LIG-0.35  N 
ATOM     37  C   GLU B 142      29.105 -17.961  -5.283  1.00 37.51 LIG 0.26  C 
ATOM     38 O    GLU B 142      29.599 -17.892  -4.159  1.00 36.88 LIG-0.27  OA
ATOM     39 H    LYS B 143      29.495 -17.971  -7.186  1.00 37.14 LIG 0.16  HD
BRANCH 37 40
ATOM     40  CA  GLU B 142      27.597 -18.096  -5.470  1.00 37.87 LIG 0.40  C 
ATOM     41  N   GLU B 142      26.997 -19.122  -4.568  1.00 38.42 LIG 0.61  N 
BRANCH 40 42
ATOM     42  CB  GLU B 142      26.943 -16.733  -5.230  1.00 37.65 LIG 0.06  C 
BRANCH 42 43
ATOM     43  CG  GLU B 142      25.711 -16.461  -6.073  1.00 37.75 LIG 0.12  C 
BRANCH 43 44
ATOM     44  CD  GLU B 142      25.470 -17.533  -7.121  1.00 38.95 LIG 0.17  C 
ATOM     45 OE1  GLU B 142      25.740 -17.280  -8.316  1.00 40.26 LIG-0.65  OA
ATOM     46 OE2  GLU B 142      24.996 -18.628  -6.752  1.00 39.11 LIG-0.65  OA
ENDBRANCH 43 44
ENDBRANCH 42 43
ENDBRANCH 40 42
ENDBRANCH 37 40
ENDBRANCH 35 36
BRANCH 35 47
ATOM     47  CB  LYS B 143      31.940 -19.026  -6.972  1.00 39.83 LIG 0.04  C 
BRANCH 47 48
ATOM     48  CG  LYS B 143      31.176 -19.647  -8.137  1.00 44.30 LIG 0.00  C 
BRANCH 48 49
ATOM     49  CD  LYS B 143      31.936 -19.500  -9.452  1.00 47.73 LIG 0.03  C 
BRANCH 49 50
ATOM     50  CE  LYS B 143      33.432 -19.747  -9.244  1.00 49.61 LIG 0.23  C 
BRANCH 50 51
ATOM     51  NZ  LYS B 143      34.275 -18.577  -9.629  1.00 50.46 LIG-0.08  N 
ATOM     52 HZ2  LYS B 143      34.189 -18.422 -10.501  1.00 50.46 LIG 0.27  HD
ATOM     53 HZ3  LYS B 143      34.012 -17.859  -9.173  1.00 50.46 LIG 0.27  HD
ATOM     54 HZ1  LYS B 143      35.127 -18.751  -9.441  1.00 50.46 LIG 0.27  HD
ENDBRANCH 50 51
ENDBRANCH 49 50
ENDBRANCH 48 49
ENDBRANCH 47 48
ENDBRANCH 35 47
ENDBRANCH 1 35
TORSDOF 24
ENDMDL
MODEL 2
USER: ADFR SOLUTION from run 140
USER: SCORE 18.016548 LL:  -6.036 LR: -13.239 RR:   0.000 FEB:  -6.080
USER: RMSD 2.319701
USER: SEED 139
USER: STATUS no improvement in best in 1 clusters for 5 generations
USER: GENES 26
USER: genes 0 Translation |==|  0.35796 0.52850 0.52495
USER: genes 1 Rotation |==|  0.54819 0.50356 0.49274 0.99761
USER: genes 2 Torsion [N]-CA--C-[N] |==|  0.39364
USER: genes 3 Torsion [C]-N--CA-[CB] |==|  0.20475
USER: genes 4 Torsion [N]-CA--CB-[OG] |==|  0.19603
USER: genes 5 Torsion [CA]-CB--OG-[HG] |==|  0.16315
USER: genes 6 Torsion [N]-CA--C-[N] |==|  0.50057
USER: genes 7 Torsion [C]-N--CA-[C] |==|  0.79203
USER: genes 8 Torsion [N]-CA--C-[N] |==|  0.47778
USER: genes 9 Torsion [C]-N--CA-[C] |==|  0.83211
USER: genes 10 Torsion [N]-CA--C-[O] |==|  0.68669
USER: genes 11 Torsion [N]-CA--CB-[OG] |==|  0.10875
USER: genes 12 Torsion [CA]-CB--OG-[HG] |==|  0.79132
USER: genes 13 Torsion [N]-CA--CB-[OG] |==|  0.53610
USER: genes 14 Torsion [CA]-CB--OG-[HG] |==|  0.96791
USER: genes 15 Torsion [N]-C--CA-[N] |==|  0.39050
USER: genes 16 Torsion [C]-CA--N-[C] |==|  0.58836
USER: genes 17 Torsion [N]-C--CA-[N] |==|  0.54060
USER: genes 18 Torsion [C]-CA--CB-[CG] |==|  0.33697
USER: genes 19 Torsion [CA]-CB--CG-[CD] |==|  0.77115
USER: genes 20 Torsion [CB]-CG--CD-[OE1] |==|  0.78612
USER: genes 21 Torsion [C]-CA--CB-[CG] |==|  0.90077
USER: genes 22 Torsion [CA]-CB--CG-[CD] |==|  0.82362
USER: genes 23 Torsion [CB]-CG--CD-[CE] |==|  0.37925
USER: genes 24 Torsion [CG]-CD--CE-[NZ] |==|  0.51190
USER: genes 25 Torsion [CD]-CE--NZ-[HZ3] |==|  0.14042
ROOT
ATOM      1  C   LYS B 143      31.668 -16.284  -6.967  1.00 34.55 LIG 0.24  C 
ATOM      2 O    LYS B 143      32.392 -16.512  -7.937  1.00 35.84 LIG-0.27  OA
ATOM      3  N   PRO B 144      31.243 -15.044  -6.675  1.00 31.41 LIG-0.34  N 
ATOM      4  CA  PRO B 144      31.650 -13.914  -7.513  1.00 28.99 LIG 0.18  C 
ATOM      5  CB  PRO B 144      30.679 -12.813  -7.097  1.00 27.49 LIG 0.04  C 
ATOM      6  CG  PRO B 144      30.497 -13.086  -5.651  1.00 29.54 LIG 0.02  C 
ATOM      7  CD  PRO B 144      30.324 -14.600  -5.613  1.00 30.41 LIG 0.13  C 
ENDROOT
BRANCH 4 8
ATOM      8  C   PRO B 144      33.101 -13.535  -7.253  1.00 27.24 LIG 0.24  C 
ATOM      9  N   SER B 145      33.815 -13.173  -8.316  1.00 24.69 LIG-0.34  N 
ATOM     10 H    SER B 145      33.499 -13.151  -9.116  1.00 24.69 LIG 0.16  HD
ATOM     11 O    PRO B 144      33.557 -13.567  -6.113  1.00 26.33 LIG-0.27  OA
BRANCH 9 12
ATOM     12  CA  SER B 145      35.214 -12.779  -8.217  1.00 22.76 LIG 0.20  C 
BRANCH 12 13
ATOM     13  CB  SER B 145      36.093 -14.004  -7.972  1.00 22.87 LIG 0.20  C 
BRANCH 13 14
ATOM     14 OG   SER B 145      36.155 -14.819  -9.133  1.00 23.93 LIG-0.40  OA
ATOM     15 HG   SER B 145      36.462 -14.372  -9.774  1.00 23.93 LIG 0.21  HD
ENDBRANCH 13 14
ENDBRANCH 12 13
BRANCH 12 16
ATOM     16  C   SER B 145      35.627 -12.147  -9.535  1.00 23.07 LIG 0.24  C 
ATOM     17 O    SER B 145      34.820 -12.040 -10.465  1.00 22.80 LIG-0.27  OA
ATOM     18  N   SER B 146      36.885 -11.731  -9.618  1.00 21.84 LIG-0.34  N 
ATOM     19 H    SER B 146      37.454 -11.776  -8.974  1.00 21.84 LIG 0.16  HD
BRANCH 18 20
ATOM     20  CA  SER B 146      37.402 -11.151 -10.848  1.00 21.58 LIG 0.20  C 
BRANCH 20 21
ATOM     21  C   SER B 146      37.602 -12.326 -11.803  1.00 21.23 LIG 0.24  C 
ATOM     22 O    SER B 146      37.464 -13.484 -11.401  1.00 18.65 LIG-0.27  OA
ATOM     23  N   SER B 147      37.917 -12.033 -13.061  1.00 20.83 LIG-0.34  N 
ATOM     24 H    SER B 147      38.019 -11.232 -13.357  1.00 20.83 LIG 0.16  HD
BRANCH 23 25
ATOM     25  CA  SER B 147      38.119 -13.077 -14.060  1.00 21.16 LIG 0.21  C 
BRANCH 25 26
ATOM     26  C   SER B 147      39.259 -14.027 -13.694  1.00 22.63 LIG 0.20  C 
ATOM     27 O    SER B 147      40.283 -14.010 -14.408  1.00 24.48 LIG-0.65  OA
ATOM     28 OXT  SER B 147      39.124 -14.766 -12.695  1.00 22.21 LIG-0.65  OA
ENDBRANCH 25 26
BRANCH 25 29
ATOM     29  CB  SER B 147      38.387 -12.451 -15.434  1.00 20.11 LIG 0.20  C 
BRANCH 29 30
ATOM     30 OG   SER B 147      39.209 -11.304 -15.327  1.00 18.07 LIG-0.40  OA
ATOM     31 HG   SER B 147      38.758 -10.663 -15.026  1.00 18.07 LIG 0.21  HD
ENDBRANCH 29 30
ENDBRANCH 25 29
ENDBRANCH 23 25
ENDBRANCH 20 21
BRANCH 20 32
ATOM     32  CB  SER B 146      38.735 -10.446 -10.592  1.00 20.68 LIG 0.20  C 
BRANCH 32 33
ATOM     33 OG   SER B 146      39.089  -9.638 -11.695  1.00 26.78 LIG-0.40  OA
ATOM     34 HG   SER B 146      38.587  -9.816 -12.345  1.00 26.78 LIG 0.21  HD
ENDBRANCH 32 33
ENDBRANCH 20 32
ENDBRANCH 18 20
ENDBRANCH 12 16
ENDBRANCH 9 12
ENDBRANCH 4 8
BRANCH 1 35
ATOM     35  CA  LYS B 143      31.211 -17.422  -6.057  1.00 37.18 LIG 0.18  C 
BRANCH 35 36
ATOM     36  N   LYS B 143      30.912 -18.593  -6.876  1.00 37.14 LIG-0.35  N 
ATOM     37  C   GLU B 142      29.970 -19.467  -6.539  1.00 37.51 LIG 0.26  C 
ATOM     38 O    GLU B 142      29.291 -19.360  -5.520  1.00 36.88 LIG-0.27  OA
ATOM     39 H    LYS B 143      31.396 -18.661  -7.584  1.00 37.14 LIG 0.16  HD
BRANCH 37 40
ATOM     40  CA  GLU B 142      29.764 -20.634  -7.500  1.00 37.87 LIG 0.40  C 
ATOM     41  N   GLU B 142      28.487 -21.364  -7.249  1.00 38.42 LIG 0.61  N 
BRANCH 40 42
ATOM     42  CB  GLU B 142      29.799 -20.108  -8.937  1.00 37.65 LIG 0.06  C 
BRANCH 42 43
ATOM     43  CG  GLU B 142      30.868 -20.728  -9.816  1.00 37.75 LIG 0.12  C 
BRANCH 43 44
ATOM     44  CD  GLU B 142      32.229 -20.081  -9.628  1.00 38.95 LIG 0.17  C 
ATOM     45 OE1  GLU B 142      32.446 -18.968 -10.157  1.00 40.26 LIG-0.65  OA
ATOM     46 OE2  GLU B 142      33.090 -20.692  -8.961  1.00 39.11 LIG-0.65  OA
ENDBRANCH 43 44
ENDBRANCH 42 43
ENDBRANCH 40 42
ENDBRANCH 37 40
ENDBRANCH 35 36
BRANCH 35 47
ATOM     47  CB  LYS B 143      32.320 -17.752  -5.053  1.00 39.83 LIG 0.04  C 
BRANCH 47 48
ATOM     48  CG  LYS B 143      33.736 -17.625  -5.606  1.00 44.30 LIG 0.00  C 
BRANCH 48 49
ATOM     49  CD  LYS B 143      33.992 -18.618  -6.735  1.00 47.73 LIG 0.03  C 
BRANCH 49 50
ATOM     50  CE  LYS B 143      34.735 -17.946  -7.891  1.00 49.61 LIG 0.23  C 
BRANCH 50 51
ATOM     51  NZ  LYS B 143      34.922 -18.847  -9.066  1.00 50.46 LIG-0.08  N 
ATOM     52 HZ2  LYS B 143      35.504 -19.488  -8.860  1.00 50.46 LIG 0.27  HD
ATOM     53 HZ3  LYS B 143      34.142 -19.215  -9.286  1.00 50.46 LIG 0.27  HD
ATOM     54 HZ1  LYS B 143      35.232 -18.376  -9.755  1.00 50.46 LIG 0.27  HD
ENDBRANCH 50 51
ENDBRANCH 49 50
ENDBRANCH 48 49
ENDBRANCH 47 48
ENDBRANCH 35 47
ENDBRANCH 1 35
TORSDOF 24
ENDMDL
MODEL 3
USER: ADFR SOLUTION from run 14
USER: SCORE 16.089509 LL:  -4.435 LR: -12.971 RR:   0.000 FEB:  -5.812
USER: RMSD 2.764169
USER: SEED 703829
USER: STATUS searching
USER: GENES 26
USER: genes 0 Translation |==|  0.37705 0.50394 0.51094
USER: genes 1 Rotation |==|  0.58910 0.52052 0.52304 0.99103
USER: genes 2 Torsion [N]-CA--C-[N] |==|  0.37354
USER: genes 3 Torsion [C]-N--CA-[CB] |==|  0.19420
USER: genes 4 Torsion [N]-CA--CB-[OG] |==|  0.17936
USER: genes 5 Torsion [CA]-CB--OG-[HG] |==|  0.23080
USER: genes 6 Torsion [N]-CA--C-[N] |==|  0.51924
USER: genes 7 Torsion [C]-N--CA-[C] |==|  0.78022
USER: genes 8 Torsion [N]-CA--C-[N] |==|  0.49873
USER: genes 9 Torsion [C]-N--CA-[C] |==|  0.83010
USER: genes 10 Torsion [N]-CA--C-[O] |==|  0.17688
USER: genes 11 Torsion [N]-CA--CB-[OG] |==|  0.09201
USER: genes 12 Torsion [CA]-CB--OG-[HG] |==|  0.81680
USER: genes 13 Torsion [N]-CA--CB-[OG] |==|  0.75309
USER: genes 14 Torsion [CA]-CB--OG-[HG] |==|  0.86226
USER: genes 15 Torsion [N]-C--CA-[N] |==|  0.32301
USER: genes 16 Torsion [C]-CA--N-[C] |==|  0.70787
USER: genes 17 Torsion [N]-C--CA-[N] |==|  0.87870
USER: genes 18 Torsion [C]-CA--CB-[CG] |==|  0.45615
USER: genes 19 Torsion [CA]-CB--CG-[CD] |==|  0.82629
USER: genes 20 Torsion [CB]-CG--CD-[OE1] |==|  0.47824
USER: genes 21 Torsion [C]-CA--CB-[CG] |==|  0.70888
USER: genes 22 Torsion [CA]-CB--CG-[CD] |==|  0.22093
USER: genes 23 Torsion [CB]-CG--CD-[CE] |==|  0.15271
USER: genes 24 Torsion [CG]-CD--CE-[NZ] |==|  0.52146
USER: genes 25 Torsion [CD]-CE--NZ-[HZ3] |==|  0.39498
ROOT
ATOM      1  C   LYS B 143      32.069 -16.818  -7.303  1.00 34.55 LIG 0.24  C 
ATOM      2 O    LYS B 143      32.752 -16.790  -8.328  1.00 35.84 LIG-0.27  OA
ATOM      3  N   PRO B 144      31.517 -15.708  -6.787  1.00 31.41 LIG-0.34  N 
ATOM      4  CA  PRO B 144      31.731 -14.413  -7.438  1.00 28.99 LIG 0.18  C 
ATOM      5  CB  PRO B 144      30.663 -13.530  -6.800  1.00 27.49 LIG 0.04  C 
ATOM      6  CG  PRO B 144      30.608 -14.056  -5.415  1.00 29.54 LIG 0.02  C 
ATOM      7  CD  PRO B 144      30.621 -15.565  -5.627  1.00 30.41 LIG 0.13  C 
ENDROOT
BRANCH 4 8
ATOM      8  C   PRO B 144      33.139 -13.897  -7.180  1.00 27.24 LIG 0.24  C 
ATOM      9  N   SER B 145      33.792 -13.412  -8.234  1.00 24.69 LIG-0.34  N 
ATOM     10 H    SER B 145      33.460 -13.385  -9.027  1.00 24.69 LIG 0.16  HD
ATOM     11 O    PRO B 144      33.617 -13.936  -6.049  1.00 26.33 LIG-0.27  OA
BRANCH 9 12
ATOM     12  CA  SER B 145      35.143 -12.879  -8.135  1.00 22.76 LIG 0.20  C 
BRANCH 12 13
ATOM     13  CB  SER B 145      36.140 -14.007  -7.868  1.00 22.87 LIG 0.20  C 
BRANCH 13 14
ATOM     14 OG   SER B 145      36.186 -14.906  -8.966  1.00 23.93 LIG-0.40  OA
ATOM     15 HG   SER B 145      36.702 -14.603  -9.555  1.00 23.93 LIG 0.21  HD
ENDBRANCH 13 14
ENDBRANCH 12 13
BRANCH 12 16
ATOM     16  C   SER B 145      35.498 -12.227  -9.460  1.00 23.07 LIG 0.24  C 
ATOM     17 O    SER B 145      34.651 -12.104 -10.351  1.00 22.80 LIG-0.27  OA
ATOM     18  N   SER B 146      36.753 -11.812  -9.592  1.00 21.84 LIG-0.34  N 
ATOM     19 H    SER B 146      37.350 -11.868  -8.976  1.00 21.84 LIG 0.16  HD
BRANCH 18 20
ATOM     20  CA  SER B 146      37.215 -11.213 -10.835  1.00 21.58 LIG 0.20  C 
BRANCH 20 21
ATOM     21  C   SER B 146      37.473 -12.383 -11.783  1.00 21.23 LIG 0.24  C 
ATOM     22 O    SER B 146      37.277 -13.542 -11.407  1.00 18.65 LIG-0.27  OA
ATOM     23  N   SER B 147      37.901 -12.085 -13.005  1.00 20.83 LIG-0.34  N 
ATOM     24 H    SER B 147      38.044 -11.284 -13.283  1.00 20.83 LIG 0.16  HD
BRANCH 23 25
ATOM     25  CA  SER B 147      38.167 -13.123 -13.996  1.00 21.16 LIG 0.21  C 
BRANCH 25 26
ATOM     26  C   SER B 147      39.263 -14.091 -13.551  1.00 22.63 LIG 0.20  C 
ATOM     27 O    SER B 147      39.047 -14.790 -12.539  1.00 24.48 LIG-0.65  OA
ATOM     28 OXT  SER B 147      40.316 -14.152 -14.221  1.00 22.21 LIG-0.65  OA
ENDBRANCH 25 26
BRANCH 25 29
ATOM     29  CB  SER B 147      38.548 -12.490 -15.339  1.00 20.11 LIG 0.20  C 
BRANCH 29 30
ATOM     30 OG   SER B 147      39.256 -11.279 -15.157  1.00 18.07 LIG-0.40  OA
ATOM     31 HG   SER B 147      38.750 -10.708 -14.805  1.00 18.07 LIG 0.21  HD
ENDBRANCH 29 30
ENDBRANCH 25 29
ENDBRANCH 23 25
ENDBRANCH 20 21
BRANCH 20 32
ATOM     32  CB  SER B 146      38.506 -10.426 -10.606  1.00 20.68 LIG 0.20  C 
BRANCH 32 33
ATOM     33 OG   SER B 146      38.215  -9.091 -10.247  1.00 26.78 LIG-0.40  OA
ATOM     34 HG   SER B 146      37.663  -8.769 -10.791  1.00 26.78 LIG 0.21  HD
ENDBRANCH 32 33
ENDBRANCH 20 32
ENDBRANCH 18 20
ENDBRANCH 12 16
ENDBRANCH 9 12
ENDBRANCH 4 8
BRANCH 1 35
ATOM     35  CA  LYS B 143      31.811 -18.139  -6.580  1.00 37.18 LIG 0.18  C 
BRANCH 35 36
ATOM     36  N   LYS B 143      31.058 -19.023  -7.464  1.00 37.14 LIG-0.35  N 
ATOM     37  C   GLU B 142      29.763 -19.261  -7.287  1.00 37.51 LIG 0.26  C 
ATOM     38 O    GLU B 142      29.110 -18.763  -6.371  1.00 36.88 LIG-0.27  OA
ATOM     39 H    LYS B 143      31.525 -19.370  -8.098  1.00 37.14 LIG 0.16  HD
BRANCH 37 40
ATOM     40  CA  GLU B 142      29.108 -20.197  -8.298  1.00 37.87 LIG 0.40  C 
ATOM     41  N   GLU B 142      29.522 -19.906  -9.701  1.00 38.42 LIG 0.61  N 
BRANCH 40 42
ATOM     42  CB  GLU B 142      29.454 -21.643  -7.933  1.00 37.65 LIG 0.06  C 
BRANCH 42 43
ATOM     43  CG  GLU B 142      28.588 -22.693  -8.602  1.00 37.75 LIG 0.12  C 
BRANCH 43 44
ATOM     44  CD  GLU B 142      27.126 -22.583  -8.209  1.00 38.95 LIG 0.17  C 
ATOM     45 OE1  GLU B 142      26.286 -23.295  -8.804  1.00 40.26 LIG-0.65  OA
ATOM     46 OE2  GLU B 142      26.810 -21.773  -7.312  1.00 39.11 LIG-0.65  OA
ENDBRANCH 43 44
ENDBRANCH 42 43
ENDBRANCH 40 42
ENDBRANCH 37 40
ENDBRANCH 35 36
BRANCH 35 47
ATOM     47  CB  LYS B 143      33.147 -18.786  -6.204  1.00 39.83 LIG 0.04  C 
BRANCH 47 48
ATOM     48  CG  LYS B 143      33.546 -19.973  -7.075  1.00 44.30 LIG 0.00  C 
BRANCH 48 49
ATOM     49  CD  LYS B 143      34.141 -19.520  -8.406  1.00 47.73 LIG 0.03  C 
BRANCH 49 50
ATOM     50  CE  LYS B 143      35.317 -18.568  -8.179  1.00 49.61 LIG 0.23  C 
BRANCH 50 51
ATOM     51  NZ  LYS B 143      35.820 -17.951  -9.441  1.00 50.46 LIG-0.08  N 
ATOM     52 HZ2  LYS B 143      35.180 -17.975 -10.060  1.00 50.46 LIG 0.27  HD
ATOM     53 HZ3  LYS B 143      36.050 -17.105  -9.287  1.00 50.46 LIG 0.27  HD
ATOM     54 HZ1  LYS B 143      36.529 -18.403  -9.730  1.00 50.46 LIG 0.27  HD
ENDBRANCH 50 51
ENDBRANCH 49 50
ENDBRANCH 48 49
ENDBRANCH 47 48
ENDBRANCH 35 47
ENDBRANCH 1 35
TORSDOF 24
ENDMDL
MODEL 4
USER: ADFR SOLUTION from run 59
USER: SCORE 16.444430 LL:  -4.791 LR: -12.814 RR:   0.000 FEB:  -5.655
USER: RMSD 1.600437
USER: SEED 58
USER: STATUS no improvement in best in 2 clusters for 5 generations
USER: GENES 26
USER: genes 0 Translation |==|  0.34780 0.52343 0.53875
USER: genes 1 Rotation |==|  0.51507 0.48985 0.49744 0.99966
USER: genes 2 Torsion [N]-CA--C-[N] |==|  0.41800
USER: genes 3 Torsion [C]-N--CA-[CB] |==|  0.19663
USER: genes 4 Torsion [N]-CA--CB-[OG] |==|  0.21613
USER: genes 5 Torsion [CA]-CB--OG-[HG] |==|  0.18766
USER: genes 6 Torsion [N]-CA--C-[N] |==|  0.48306
USER: genes 7 Torsion [C]-N--CA-[C] |==|  0.78969
USER: genes 8 Torsion [N]-CA--C-[N] |==|  0.48322
USER: genes 9 Torsion [C]-N--CA-[C] |==|  0.80511
USER: genes 10 Torsion [N]-CA--C-[O] |==|  0.99613
USER: genes 11 Torsion [N]-CA--CB-[OG] |==|  0.13562
USER: genes 12 Torsion [CA]-CB--OG-[HG] |==|  0.77296
USER: genes 13 Torsion [N]-CA--CB-[OG] |==|  0.80109
USER: genes 14 Torsion [CA]-CB--OG-[HG] |==|  0.90797
USER: genes 15 Torsion [N]-C--CA-[N] |==|  0.44421
USER: genes 16 Torsion [C]-CA--N-[C] |==|  0.72934
USER: genes 17 Torsion [N]-C--CA-[N] |==|  0.29850
USER: genes 18 Torsion [C]-CA--CB-[CG] |==|  0.15992
USER: genes 19 Torsion [CA]-CB--CG-[CD] |==|  0.15527
USER: genes 20 Torsion [CB]-CG--CD-[OE1] |==|  0.03147
USER: genes 21 Torsion [C]-CA--CB-[CG] |==|  0.32514
USER: genes 22 Torsion [CA]-CB--CG-[CD] |==|  0.66577
USER: genes 23 Torsion [CB]-CG--CD-[CE] |==|  0.93646
USER: genes 24 Torsion [CG]-CD--CE-[NZ] |==|  0.37408
USER: genes 25 Torsion [CD]-CE--NZ-[HZ3] |==|  0.07426
ROOT
ATOM      1  C   LYS B 143      31.455 -16.394  -6.636  1.00 34.55 LIG 0.24  C 
ATOM      2 O    LYS B 143      32.233 -16.736  -7.527  1.00 35.84 LIG-0.27  OA
ATOM      3  N   PRO B 144      31.001 -15.134  -6.535  1.00 31.41 LIG-0.34  N 
ATOM      4  CA  PRO B 144      31.441 -14.118  -7.493  1.00 28.99 LIG 0.18  C 
ATOM      5  CB  PRO B 144      30.437 -12.990  -7.280  1.00 27.49 LIG 0.04  C 
ATOM      6  CG  PRO B 144      30.178 -13.072  -5.823  1.00 29.54 LIG 0.02  C 
ATOM      7  CD  PRO B 144      30.019 -14.570  -5.592  1.00 30.41 LIG 0.13  C 
ENDROOT
BRANCH 4 8
ATOM      8  C   PRO B 144      32.871 -13.682  -7.209  1.00 27.24 LIG 0.24  C 
ATOM      9  N   SER B 145      33.584 -13.278  -8.258  1.00 24.69 LIG-0.34  N 
ATOM     10 H    SER B 145      33.278 -13.260  -9.062  1.00 24.69 LIG 0.16  HD
ATOM     11 O    PRO B 144      33.313 -13.709  -6.063  1.00 26.33 LIG-0.27  OA
BRANCH 9 12
ATOM     12  CA  SER B 145      34.963 -12.827  -8.135  1.00 22.76 LIG 0.20  C 
BRANCH 12 13
ATOM     13  CB  SER B 145      35.881 -14.008  -7.819  1.00 22.87 LIG 0.20  C 
BRANCH 13 14
ATOM     14 OG   SER B 145      36.140 -14.770  -8.989  1.00 23.93 LIG-0.40  OA
ATOM     15 HG   SER B 145      36.603 -14.315  -9.523  1.00 23.93 LIG 0.21  HD
ENDBRANCH 13 14
ENDBRANCH 12 13
BRANCH 12 16
ATOM     16  C   SER B 145      35.391 -12.228  -9.464  1.00 23.07 LIG 0.24  C 
ATOM     17 O    SER B 145      34.651 -12.290 -10.452  1.00 22.80 LIG-0.27  OA
ATOM     18  N   SER B 146      36.586 -11.651  -9.491  1.00 21.84 LIG-0.34  N 
ATOM     19 H    SER B 146      37.105 -11.578  -8.808  1.00 21.84 LIG 0.16  HD
BRANCH 18 20
ATOM     20  CA  SER B 146      37.116 -11.084 -10.722  1.00 21.58 LIG 0.20  C 
BRANCH 20 21
ATOM     21  C   SER B 146      37.561 -12.278 -11.564  1.00 21.23 LIG 0.24  C 
ATOM     22 O    SER B 146      37.522 -13.419 -11.096  1.00 18.65 LIG-0.27  OA
ATOM     23  N   SER B 147      37.973 -12.021 -12.802  1.00 20.83 LIG-0.34  N 
ATOM     24 H    SER B 147      38.008 -11.233 -13.143  1.00 20.83 LIG 0.16  HD
BRANCH 23 25
ATOM     25  CA  SER B 147      38.409 -13.087 -13.699  1.00 21.16 LIG 0.21  C 
BRANCH 25 26
ATOM     26  C   SER B 147      39.742 -13.702 -13.274  1.00 22.63 LIG 0.20  C 
ATOM     27 O    SER B 147      40.306 -13.230 -12.264  1.00 24.48 LIG-0.65  OA
ATOM     28 OXT  SER B 147      40.202 -14.654 -13.940  1.00 22.21 LIG-0.65  OA
ENDBRANCH 25 26
BRANCH 25 29
ATOM     29  CB  SER B 147      38.514 -12.562 -15.135  1.00 20.11 LIG 0.20  C 
BRANCH 29 30
ATOM     30 OG   SER B 147      39.242 -11.349 -15.189  1.00 18.07 LIG-0.40  OA
ATOM     31 HG   SER B 147      38.736 -10.709 -14.989  1.00 18.07 LIG 0.21  HD
ENDBRANCH 29 30
ENDBRANCH 25 29
ENDBRANCH 23 25
ENDBRANCH 20 21
BRANCH 20 32
ATOM     32  CB  SER B 146      38.308 -10.174 -10.425  1.00 20.68 LIG 0.20  C 
BRANCH 32 33
ATOM     33 OG   SER B 146      37.879  -8.980  -9.804  1.00 26.78 LIG-0.40  OA
ATOM     34 HG   SER B 146      37.121  -8.769 -10.098  1.00 26.78 LIG 0.21  HD
ENDBRANCH 32 33
ENDBRANCH 20 32
ENDBRANCH 18 20
ENDBRANCH 12 16
ENDBRANCH 9 12
ENDBRANCH 4 8
BRANCH 1 35
ATOM     35  CA  LYS B 143      30.960 -17.410  -5.607  1.00 37.18 LIG 0.18  C 
BRANCH 35 36
ATOM     36  N   LYS B 143      31.156 -18.755  -6.138  1.00 37.14 LIG-0.35  N 
ATOM     37  C   GLU B 142      30.177 -19.430  -6.730  1.00 37.51 LIG 0.26  C 
ATOM     38 O    GLU B 142      29.042 -18.977  -6.869  1.00 36.88 LIG-0.27  OA
ATOM     39 H    LYS B 143      31.953 -19.064  -6.032  1.00 37.14 LIG 0.16  HD
BRANCH 37 40
ATOM     40  CA  GLU B 142      30.535 -20.820  -7.246  1.00 37.87 LIG 0.40  C 
ATOM     41  N   GLU B 142      29.940 -21.909  -6.418  1.00 38.42 LIG 0.61  N 
BRANCH 40 42
ATOM     42  CB  GLU B 142      30.072 -20.946  -8.699  1.00 37.65 LIG 0.06  C 
BRANCH 42 43
ATOM     43  CG  GLU B 142      30.649 -19.908  -9.643  1.00 37.75 LIG 0.12  C 
BRANCH 43 44
ATOM     44  CD  GLU B 142      32.167 -19.890  -9.637  1.00 38.95 LIG 0.17  C 
ATOM     45 OE1  GLU B 142      32.779 -20.820  -9.066  1.00 40.26 LIG-0.65  OA
ATOM     46 OE2  GLU B 142      32.753 -18.935 -10.191  1.00 39.11 LIG-0.65  OA
ENDBRANCH 43 44
ENDBRANCH 42 43
ENDBRANCH 40 42
ENDBRANCH 37 40
ENDBRANCH 35 36
BRANCH 35 47
ATOM     47  CB  LYS B 143      31.744 -17.241  -4.303  1.00 39.83 LIG 0.04  C 
BRANCH 47 48
ATOM     48  CG  LYS B 143      30.899 -16.827  -3.103  1.00 44.30 LIG 0.00  C 
BRANCH 48 49
ATOM     49  CD  LYS B 143      31.365 -15.498  -2.516  1.00 47.73 LIG 0.03  C 
BRANCH 49 50
ATOM     50  CE  LYS B 143      32.825 -15.225  -2.884  1.00 49.61 LIG 0.23  C 
BRANCH 50 51
ATOM     51  NZ  LYS B 143      33.058 -13.827  -3.350  1.00 50.46 LIG-0.08  N 
ATOM     52 HZ2  LYS B 143      32.996 -13.796  -4.237  1.00 50.46 LIG 0.27  HD
ATOM     53 HZ3  LYS B 143      32.446 -13.288  -2.991  1.00 50.46 LIG 0.27  HD
ATOM     54 HZ1  LYS B 143      33.869 -13.562  -3.099  1.00 50.46 LIG 0.27  HD
ENDBRANCH 50 51
ENDBRANCH 49 50
ENDBRANCH 48 49
ENDBRANCH 47 48
ENDBRANCH 35 47
ENDBRANCH 1 35
TORSDOF 24
ENDMDL
