MODEL 1
USER: ADFR SOLUTION from run 57
USER: SCORE 19.752416 LL:  -3.359 LR: -16.519 RR:   0.000 FEB:  -9.360
USER: RMSD 2.911735
USER: SEED 56
USER: STATUS no improvement in best in 7 clusters for 5 generations
USER: GENES 26
USER: genes 0 Translation |==|  0.32689 0.42800 0.60565
USER: genes 1 Rotation |==|  0.49347 0.48684 0.49691 0.99977
USER: genes 2 Torsion [N]-CA--C-[N] |==|  0.93683
USER: genes 3 Torsion [C]-N--CA-[C] |==|  0.72471
USER: genes 4 Torsion [N]-CA--C-[N] |==|  0.96111
USER: genes 5 Torsion [C]-N--CA-[C] |==|  0.60963
USER: genes 6 Torsion [N]-CA--C-[O] |==|  0.77954
USER: genes 7 Torsion [N]-CA--CB-[CG] |==|  0.64130
USER: genes 8 Torsion [CA]-CB--CG-[CD] |==|  0.96862
USER: genes 9 Torsion [CB]-CG--CD-[OE1] |==|  0.19947
USER: genes 10 Torsion [N]-CA--CB-[CG] |==|  0.16438
USER: genes 11 Torsion [CA]-CB--CG-[CD] |==|  0.55639
USER: genes 12 Torsion [CB]-CG--CD-[CE] |==|  0.50755
USER: genes 13 Torsion [CG]-CD--CE-[NZ] |==|  0.57783
USER: genes 14 Torsion [CD]-CE--NZ-[HZ3] |==|  0.84925
USER: genes 15 Torsion [C]-CA--CB-[CG2] |==|  0.52421
USER: genes 16 Torsion [CA]-CB--OG1-[HG1] |==|  0.30018
USER: genes 17 Torsion [C]-CA--N-[C] |==|  0.81880
USER: genes 18 Torsion [N]-C--CA-[N] |==|  0.90771
USER: genes 19 Torsion [C]-CA--N-[C] |==|  0.82882
USER: genes 20 Torsion [N]-C--CA-[N] |==|  0.34053
USER: genes 21 Torsion [C]-CA--N-[H1] |==|  0.05651
USER: genes 22 Torsion [C]-CA--CB-[CG] |==|  0.17137
USER: genes 23 Torsion [CA]-CB--CG-[CD] |==|  0.42712
USER: genes 24 Torsion [CB]-CG--CD-[NE] |==|  0.72527
USER: genes 25 Torsion [CG]-CD--NE-[HE] |==|  0.82082
ROOT
ATOM      1  CA  THR D   3      16.121 -18.037  18.513  1.00 16.13 LIG 0.20  C 
ENDROOT
BRANCH 1 2
ATOM      2  C   THR D   3      15.964 -18.047  16.985  1.00 16.95 LIG 0.24  C 
ATOM      3 O    THR D   3      15.174 -18.830  16.448  1.00 16.12 LIG-0.27  OA
ATOM      4  N   LYS D   4      16.720 -17.178  16.307  1.00 18.15 LIG-0.35  N 
ATOM      5 H    LYS D   4      17.236 -16.611  16.695  1.00 18.15 LIG 0.16  HD
BRANCH 4 6
ATOM      6  CA  LYS D   4      16.760 -17.089  14.838  1.00 19.65 LIG 0.18  C 
BRANCH 6 7
ATOM      7  C   LYS D   4      17.976 -17.826  14.318  1.00 20.62 LIG 0.24  C 
ATOM      8 O    LYS D   4      18.064 -18.111  13.119  1.00 20.86 LIG-0.27  OA
ATOM      9  N   GLN D   5      18.905 -18.149  15.212  1.00 21.55 LIG-0.35  N 
ATOM     10 H    GLN D   5      18.851 -17.966  16.051  1.00 21.55 LIG 0.16  HD
BRANCH 9 11
ATOM     11  CA  GLN D   5      20.128 -18.862  14.822  1.00 22.83 LIG 0.16  C 
BRANCH 11 12
ATOM     12  C   GLN D   5      20.537 -19.916  15.850  1.00 22.91 LIG 0.22  C 
ATOM     13 O    GLN D   5      21.125 -19.600  16.886  1.00 23.29 LIG-0.29  OA
ENDBRANCH 11 12
BRANCH 11 14
ATOM     14  CB  GLN D   5      21.280 -17.885  14.572  1.00 22.86 LIG 0.04  C 
BRANCH 14 15
ATOM     15  CG  GLN D   5      21.994 -18.077  13.245  1.00 24.40 LIG 0.10  C 
BRANCH 15 16
ATOM     16  CD  GLN D   5      21.612 -19.366  12.542  1.00 24.21 LIG 0.21  C 
ATOM     17  NE2 GLN D   5      22.536 -20.328  12.526  1.00 25.13 LIG-0.37  N 
ATOM     18 22HE GLN D   5      22.367 -21.079  12.144  1.00 25.13 LIG 0.16  HD
ATOM     19 21HE GLN D   5      23.300 -20.196  12.898  1.00 25.13 LIG 0.16  HD
ATOM     20 OE1  GLN D   5      20.497 -19.501  12.023  1.00 25.71 LIG-0.27  OA
ENDBRANCH 15 16
ENDBRANCH 14 15
ENDBRANCH 11 14
ENDBRANCH 9 11
ENDBRANCH 6 7
BRANCH 6 21
ATOM     21  CB  LYS D   4      16.881 -15.633  14.380  1.00 19.73 LIG 0.04  C 
BRANCH 21 22
ATOM     22  CG  LYS D   4      18.091 -14.887  14.870  1.00 20.49 LIG 0.00  C 
BRANCH 22 23
ATOM     23  CD  LYS D   4      17.839 -13.390  14.777  1.00 20.73 LIG 0.03  C 
BRANCH 23 24
ATOM     24  CE  LYS D   4      19.064 -12.615  15.201  1.00 20.46 LIG 0.23  C 
BRANCH 24 25
ATOM     25  NZ  LYS D   4      18.697 -11.290  15.755  1.00 20.02 LIG-0.08  N 
ATOM     26 HZ3  LYS D   4      18.193 -10.852  15.168  1.00 20.02 LIG 0.27  HD
ATOM     27 HZ1  LYS D   4      18.242 -11.400  16.512  1.00 20.02 LIG 0.27  HD
ATOM     28 HZ2  LYS D   4      19.436 -10.822  15.919  1.00 20.02 LIG 0.27  HD
ENDBRANCH 24 25
ENDBRANCH 23 24
ENDBRANCH 22 23
ENDBRANCH 21 22
ENDBRANCH 6 21
ENDBRANCH 4 6
ENDBRANCH 1 2
BRANCH 1 29
ATOM     29  CB  THR D   3      14.926 -17.311  19.159  1.00 15.86 LIG 0.15  C 
ATOM     30  CG2 THR D   3      15.166 -17.101  20.652  1.00 16.15 LIG 0.04  C 
BRANCH 29 31
ATOM     31 OG1  THR D   3      14.743 -16.035  18.533  1.00 16.19 LIG-0.39  OA
ATOM     32 HG1  THR D   3      14.054 -16.054  18.054  1.00 16.19 LIG 0.21  HD
ENDBRANCH 29 31
ENDBRANCH 1 29
BRANCH 1 33
ATOM     33  N   THR D   3      17.402 -17.486  18.984  1.00 15.75 LIG-0.34  N 
ATOM     34  C   ARG D   2      18.566 -18.083  18.725  1.00 15.31 LIG 0.24  C 
ATOM     35 O    ARG D   2      18.663 -19.094  18.033  1.00 15.17 LIG-0.27  OA
ATOM     36 H    THR D   3      17.328 -16.756  19.433  1.00 15.75 LIG 0.16  HD
BRANCH 34 37
ATOM     37  CA  ARG D   2      19.811 -17.455  19.353  1.00 15.15 LIG 0.18  C 
BRANCH 37 38
ATOM     38  N   ARG D   2      19.709 -15.996  19.461  1.00 15.89 LIG-0.35  N 
ATOM     39  C   ALA D   1      19.576 -15.170  18.421  1.00 16.91 LIG 0.25  C 
ATOM     40 O    ALA D   1      19.651 -15.538  17.242  1.00 17.32 LIG-0.27  OA
ATOM     41 H    ARG D   2      19.742 -15.714  20.273  1.00 15.89 LIG 0.16  HD
BRANCH 39 42
ATOM     42  CA  ALA D   1      19.336 -13.698  18.761  1.00 17.08 LIG 0.27  C 
ATOM     43  CB  ALA D   1      17.931 -13.251  18.298  1.00 17.48 LIG 0.05  C 
BRANCH 42 44
ATOM     44  N   ALA D   1      20.384 -12.829  18.151  1.00 17.36 LIG-0.07  N 
ATOM     45 H3   ALA D   1      20.995 -12.624  18.766  1.00 17.36 LIG 0.28  HD
ATOM     46 H2   ALA D   1      20.010 -12.082  17.844  1.00 17.36 LIG 0.28  HD
ATOM     47 H1   ALA D   1      20.775 -13.262  17.478  1.00 17.36 LIG 0.28  HD
ENDBRANCH 42 44
ENDBRANCH 39 42
ENDBRANCH 37 38
BRANCH 37 48
ATOM     48  CB  ARG D   2      20.027 -18.034  20.758  1.00 15.08 LIG 0.04  C 
BRANCH 48 49
ATOM     49  CG  ARG D   2      20.274 -19.533  20.862  1.00 14.63 LIG 0.02  C 
BRANCH 49 50
ATOM     50  CD  ARG D   2      21.083 -19.862  22.124  1.00 13.91 LIG 0.14  C 
BRANCH 50 51
ATOM     51  NE  ARG D   2      22.506 -20.044  21.837  1.00 10.79 LIG-0.23  N 
ATOM     52 HE   ARG D   2      22.733 -20.705  21.336  1.00 10.79 LIG 0.18  HD
ATOM     53  CZ  ARG D   2      23.474 -19.255  22.302  1.00 10.30 LIG 0.67  C 
ATOM     54  NH2 ARG D   2      23.183 -18.207  23.073  1.00  9.50 LIG-0.23  N 
ATOM     55  NH1 ARG D   2      24.737 -19.516  21.996  1.00  9.44 LIG-0.23  N 
ATOM     56 2HH2 ARG D   2      23.813 -17.703  23.369  1.00  9.50 LIG 0.17  HD
ATOM     57 1HH2 ARG D   2      22.364 -18.036  23.275  1.00  9.50 LIG 0.17  HD
ATOM     58 1HH1 ARG D   2      24.929 -20.191  21.500  1.00  9.44 LIG 0.17  HD
ATOM     59 2HH1 ARG D   2      25.365 -19.009  22.294  1.00  9.44 LIG 0.17  HD
ENDBRANCH 50 51
ENDBRANCH 49 50
ENDBRANCH 48 49
ENDBRANCH 37 48
ENDBRANCH 34 37
ENDBRANCH 1 33
TORSDOF 24
ENDMDL
MODEL 2
USER: ADFR SOLUTION from run 191
USER: SCORE 20.076398 LL:  -4.071 LR: -16.423 RR:   0.000 FEB:  -9.264
USER: RMSD 3.289508
USER: SEED 190
USER: STATUS no improvement in best in 6 clusters for 5 generations
USER: GENES 26
USER: genes 0 Translation |==|  0.30952 0.44777 0.62442
USER: genes 1 Rotation |==|  0.44854 0.51011 0.48015 0.99685
USER: genes 2 Torsion [N]-CA--C-[N] |==|  0.90742
USER: genes 3 Torsion [C]-N--CA-[C] |==|  0.62222
USER: genes 4 Torsion [N]-CA--C-[N] |==|  0.09179
USER: genes 5 Torsion [C]-N--CA-[C] |==|  0.80788
USER: genes 6 Torsion [N]-CA--C-[O] |==|  0.90627
USER: genes 7 Torsion [N]-CA--CB-[CG] |==|  0.37002
USER: genes 8 Torsion [CA]-CB--CG-[CD] |==|  0.77063
USER: genes 9 Torsion [CB]-CG--CD-[OE1] |==|  0.90926
USER: genes 10 Torsion [N]-CA--CB-[CG] |==|  0.99854
USER: genes 11 Torsion [CA]-CB--CG-[CD] |==|  0.67847
USER: genes 12 Torsion [CB]-CG--CD-[CE] |==|  0.25522
USER: genes 13 Torsion [CG]-CD--CE-[NZ] |==|  0.42337
USER: genes 14 Torsion [CD]-CE--NZ-[HZ3] |==|  0.79265
USER: genes 15 Torsion [C]-CA--CB-[CG2] |==|  0.49506
USER: genes 16 Torsion [CA]-CB--OG1-[HG1] |==|  0.93052
USER: genes 17 Torsion [C]-CA--N-[C] |==|  0.83132
USER: genes 18 Torsion [N]-C--CA-[N] |==|  0.92825
USER: genes 19 Torsion [C]-CA--N-[C] |==|  0.82527
USER: genes 20 Torsion [N]-C--CA-[N] |==|  0.38743
USER: genes 21 Torsion [C]-CA--N-[H1] |==|  0.71789
USER: genes 22 Torsion [C]-CA--CB-[CG] |==|  0.16838
USER: genes 23 Torsion [CA]-CB--CG-[CD] |==|  0.46890
USER: genes 24 Torsion [CB]-CG--CD-[NE] |==|  0.70890
USER: genes 25 Torsion [CG]-CD--NE-[HE] |==|  0.81442
ROOT
ATOM      1  CA  THR D   3      15.795 -17.637  18.936  1.00 16.13 LIG 0.20  C 
ENDROOT
BRANCH 1 2
ATOM      2  C   THR D   3      15.488 -17.899  17.453  1.00 16.95 LIG 0.24  C 
ATOM      3 O    THR D   3      14.744 -18.830  17.130  1.00 16.12 LIG-0.27  OA
ATOM      4  N   LYS D   4      16.065 -17.074  16.574  1.00 18.15 LIG-0.35  N 
ATOM      5 H    LYS D   4      16.548 -16.404  16.815  1.00 18.15 LIG 0.16  HD
BRANCH 4 6
ATOM      6  CA  LYS D   4      15.947 -17.209  15.114  1.00 19.65 LIG 0.18  C 
BRANCH 6 7
ATOM      7  C   LYS D   4      17.303 -17.002  14.473  1.00 20.62 LIG 0.24  C 
ATOM      8 O    LYS D   4      17.389 -16.490  13.353  1.00 20.86 LIG-0.27  OA
ATOM      9  N   GLN D   5      18.359 -17.411  15.170  1.00 21.55 LIG-0.35  N 
ATOM     10 H    GLN D   5      18.312 -17.779  15.945  1.00 21.55 LIG 0.16  HD
BRANCH 9 11
ATOM     11  CA  GLN D   5      19.725 -17.260  14.649  1.00 22.83 LIG 0.16  C 
BRANCH 11 12
ATOM     12  C   GLN D   5      19.995 -18.177  13.458  1.00 22.91 LIG 0.22  C 
ATOM     13 O    GLN D   5      19.475 -19.291  13.382  1.00 23.29 LIG-0.29  OA
ENDBRANCH 11 12
BRANCH 11 14
ATOM     14  CB  GLN D   5      20.763 -17.494  15.750  1.00 22.86 LIG 0.04  C 
BRANCH 14 15
ATOM     15  CG  GLN D   5      21.907 -18.410  15.354  1.00 24.40 LIG 0.10  C 
BRANCH 15 16
ATOM     16  CD  GLN D   5      21.565 -19.883  15.481  1.00 24.21 LIG 0.21  C 
ATOM     17  NE2 GLN D   5      22.146 -20.703  14.604  1.00 25.13 LIG-0.37  N 
ATOM     18 22HE GLN D   5      21.989 -21.548  14.636  1.00 25.13 LIG 0.16  HD
ATOM     19 21HE GLN D   5      22.678 -20.387  14.007  1.00 25.13 LIG 0.16  HD
ATOM     20 OE1  GLN D   5      20.792 -20.283  16.360  1.00 25.71 LIG-0.27  OA
ENDBRANCH 15 16
ENDBRANCH 14 15
ENDBRANCH 11 14
ENDBRANCH 9 11
ENDBRANCH 6 7
BRANCH 6 21
ATOM     21  CB  LYS D   4      15.006 -16.146  14.538  1.00 19.73 LIG 0.04  C 
BRANCH 21 22
ATOM     22  CG  LYS D   4      14.389 -15.204  15.536  1.00 20.49 LIG 0.00  C 
BRANCH 22 23
ATOM     23  CD  LYS D   4      12.881 -15.400  15.557  1.00 20.73 LIG 0.03  C 
BRANCH 23 24
ATOM     24  CE  LYS D   4      12.489 -16.411  16.606  1.00 20.46 LIG 0.23  C 
BRANCH 24 25
ATOM     25  NZ  LYS D   4      11.117 -16.162  17.109  1.00 20.02 LIG-0.08  N 
ATOM     26 HZ3  LYS D   4      11.123 -15.455  17.649  1.00 20.02 LIG 0.27  HD
ATOM     27 HZ1  LYS D   4      10.573 -16.004  16.422  1.00 20.02 LIG 0.27  HD
ATOM     28 HZ2  LYS D   4      10.830 -16.875  17.557  1.00 20.02 LIG 0.27  HD
ENDBRANCH 24 25
ENDBRANCH 23 24
ENDBRANCH 22 23
ENDBRANCH 21 22
ENDBRANCH 6 21
ENDBRANCH 4 6
ENDBRANCH 1 2
BRANCH 1 29
ATOM     29  CB  THR D   3      14.719 -16.715  19.541  1.00 15.86 LIG 0.15  C 
ATOM     30  CG2 THR D   3      14.985 -16.479  21.025  1.00 16.15 LIG 0.04  C 
BRANCH 29 31
ATOM     31 OG1  THR D   3      14.728 -15.454  18.860  1.00 16.19 LIG-0.39  OA
ATOM     32 HG1  THR D   3      15.487 -15.321  18.526  1.00 16.19 LIG 0.21  HD
ENDBRANCH 29 31
ENDBRANCH 1 29
BRANCH 1 33
ATOM     33  N   THR D   3      17.149 -17.118  19.187  1.00 15.75 LIG-0.34  N 
ATOM     34  C   ARG D   2      18.243 -17.807  18.860  1.00 15.31 LIG 0.24  C 
ATOM     35 O    ARG D   2      18.205 -18.888  18.276  1.00 15.17 LIG-0.27  OA
ATOM     36 H    THR D   3      17.166 -16.343  19.559  1.00 15.75 LIG 0.16  HD
BRANCH 34 37
ATOM     37  CA  ARG D   2      19.584 -17.193  19.263  1.00 15.15 LIG 0.18  C 
BRANCH 37 38
ATOM     38  N   ARG D   2      19.518 -15.734  19.389  1.00 15.89 LIG-0.35  N 
ATOM     39  C   ALA D   1      19.239 -14.902  18.384  1.00 16.91 LIG 0.25  C 
ATOM     40 O    ALA D   1      19.129 -15.265  17.206  1.00 17.32 LIG-0.27  OA
ATOM     41 H    ARG D   2      19.678 -15.457  20.188  1.00 15.89 LIG 0.16  HD
BRANCH 39 42
ATOM     42  CA  ALA D   1      19.070 -13.429  18.761  1.00 17.08 LIG 0.27  C 
ATOM     43  CB  ALA D   1      17.576 -13.072  18.925  1.00 17.48 LIG 0.05  C 
BRANCH 42 44
ATOM     44  N   ALA D   1      19.707 -12.540  17.745  1.00 17.36 LIG-0.07  N 
ATOM     45 H3   ALA D   1      19.178 -11.841  17.589  1.00 17.36 LIG 0.28  HD
ATOM     46 H2   ALA D   1      19.831 -12.993  16.989  1.00 17.36 LIG 0.28  HD
ATOM     47 H1   ALA D   1      20.493 -12.254  18.050  1.00 17.36 LIG 0.28  HD
ENDBRANCH 42 44
ENDBRANCH 39 42
ENDBRANCH 37 38
BRANCH 37 48
ATOM     48  CB  ARG D   2      20.035 -17.780  20.608  1.00 15.08 LIG 0.04  C 
BRANCH 48 49
ATOM     49  CG  ARG D   2      20.257 -19.285  20.672  1.00 14.63 LIG 0.02  C 
BRANCH 49 50
ATOM     50  CD  ARG D   2      20.962 -19.673  21.978  1.00 13.91 LIG 0.14  C 
BRANCH 50 51
ATOM     51  NE  ARG D   2      22.373 -19.999  21.770  1.00 10.79 LIG-0.23  N 
ATOM     52 HE   ARG D   2      22.559 -20.703  21.313  1.00 10.79 LIG 0.18  HD
ATOM     53  CZ  ARG D   2      23.389 -19.277  22.242  1.00 10.30 LIG 0.67  C 
ATOM     54  NH2 ARG D   2      23.163 -18.168  22.946  1.00  9.50 LIG-0.23  N 
ATOM     55  NH1 ARG D   2      24.635 -19.667  22.011  1.00  9.44 LIG-0.23  N 
ATOM     56 2HH2 ARG D   2      23.824 -17.708  23.247  1.00  9.50 LIG 0.17  HD
ATOM     57 1HH2 ARG D   2      22.356 -17.913  23.099  1.00  9.50 LIG 0.17  HD
ATOM     58 1HH1 ARG D   2      24.784 -20.382  21.558  1.00  9.44 LIG 0.17  HD
ATOM     59 2HH1 ARG D   2      25.293 -19.204  22.313  1.00  9.44 LIG 0.17  HD
ENDBRANCH 50 51
ENDBRANCH 49 50
ENDBRANCH 48 49
ENDBRANCH 37 48
ENDBRANCH 34 37
ENDBRANCH 1 33
TORSDOF 24
ENDMDL
MODEL 3
USER: ADFR SOLUTION from run 95
USER: SCORE 19.730763 LL:  -3.877 LR: -16.012 RR:   0.000 FEB:  -8.853
USER: RMSD 4.639602
USER: SEED 94
USER: STATUS no improvement in best in 6 clusters for 5 generations
USER: GENES 26
USER: genes 0 Translation |==|  0.33411 0.42963 0.60164
USER: genes 1 Rotation |==|  0.48673 0.48252 0.50463 0.99950
USER: genes 2 Torsion [N]-CA--C-[N] |==|  0.91719
USER: genes 3 Torsion [C]-N--CA-[C] |==|  0.12796
USER: genes 4 Torsion [N]-CA--C-[N] |==|  0.12773
USER: genes 5 Torsion [C]-N--CA-[C] |==|  0.71184
USER: genes 6 Torsion [N]-CA--C-[O] |==|  0.73869
USER: genes 7 Torsion [N]-CA--CB-[CG] |==|  0.83588
USER: genes 8 Torsion [CA]-CB--CG-[CD] |==|  0.80628
USER: genes 9 Torsion [CB]-CG--CD-[OE1] |==|  0.72175
USER: genes 10 Torsion [N]-CA--CB-[CG] |==|  0.89627
USER: genes 11 Torsion [CA]-CB--CG-[CD] |==|  0.59199
USER: genes 12 Torsion [CB]-CG--CD-[CE] |==|  0.58225
USER: genes 13 Torsion [CG]-CD--CE-[NZ] |==|  0.46490
USER: genes 14 Torsion [CD]-CE--NZ-[HZ3] |==|  0.24410
USER: genes 15 Torsion [C]-CA--CB-[CG2] |==|  0.48068
USER: genes 16 Torsion [CA]-CB--OG1-[HG1] |==|  0.20251
USER: genes 17 Torsion [C]-CA--N-[C] |==|  0.82014
USER: genes 18 Torsion [N]-C--CA-[N] |==|  0.91427
USER: genes 19 Torsion [C]-CA--N-[C] |==|  0.82754
USER: genes 20 Torsion [N]-C--CA-[N] |==|  0.40763
USER: genes 21 Torsion [C]-CA--N-[H1] |==|  0.37196
USER: genes 22 Torsion [C]-CA--CB-[CG] |==|  0.15206
USER: genes 23 Torsion [CA]-CB--CG-[CD] |==|  0.44267
USER: genes 24 Torsion [CB]-CG--CD-[NE] |==|  0.72616
USER: genes 25 Torsion [CG]-CD--NE-[HE] |==|  0.81676
ROOT
ATOM      1  CA  THR D   3      16.257 -18.004  18.423  1.00 16.13 LIG 0.20  C 
ENDROOT
BRANCH 1 2
ATOM      2  C   THR D   3      16.127 -18.061  16.893  1.00 16.95 LIG 0.24  C 
ATOM      3 O    THR D   3      15.473 -18.964  16.360  1.00 16.12 LIG-0.27  OA
ATOM      4  N   LYS D   4      16.751 -17.097  16.210  1.00 18.15 LIG-0.35  N 
ATOM      5 H    LYS D   4      17.168 -16.452  16.594  1.00 18.15 LIG 0.16  HD
BRANCH 4 6
ATOM      6  CA  LYS D   4      16.799 -17.025  14.741  1.00 19.65 LIG 0.18  C 
BRANCH 6 7
ATOM      7  C   LYS D   4      15.417 -17.272  14.174  1.00 20.62 LIG 0.24  C 
ATOM      8 O    LYS D   4      15.266 -18.035  13.214  1.00 20.86 LIG-0.27  OA
ATOM      9  N   GLN D   5      14.411 -16.622  14.752  1.00 21.55 LIG-0.35  N 
ATOM     10 H    GLN D   5      14.504 -16.081  15.414  1.00 21.55 LIG 0.16  HD
BRANCH 9 11
ATOM     11  CA  GLN D   5      13.027 -16.786  14.289  1.00 22.83 LIG 0.16  C 
BRANCH 11 12
ATOM     12  C   GLN D   5      12.548 -15.592  13.465  1.00 22.91 LIG 0.22  C 
ATOM     13 O    GLN D   5      11.933 -14.662  13.989  1.00 23.29 LIG-0.29  OA
ENDBRANCH 11 12
BRANCH 11 14
ATOM     14  CB  GLN D   5      12.080 -17.039  15.464  1.00 22.86 LIG 0.04  C 
BRANCH 14 15
ATOM     15  CG  GLN D   5      12.411 -18.270  16.289  1.00 24.40 LIG 0.10  C 
BRANCH 15 16
ATOM     16  CD  GLN D   5      12.151 -19.570  15.551  1.00 24.21 LIG 0.21  C 
ATOM     17  NE2 GLN D   5      13.089 -19.955  14.683  1.00 25.13 LIG-0.37  N 
ATOM     18 22HE GLN D   5      12.992 -20.687  14.243  1.00 25.13 LIG 0.16  HD
ATOM     19 21HE GLN D   5      13.790 -19.471  14.565  1.00 25.13 LIG 0.16  HD
ATOM     20 OE1  GLN D   5      11.125 -20.227  15.761  1.00 25.71 LIG-0.27  OA
ENDBRANCH 15 16
ENDBRANCH 14 15
ENDBRANCH 11 14
ENDBRANCH 9 11
ENDBRANCH 6 7
BRANCH 6 21
ATOM     21  CB  LYS D   4      17.725 -18.103  14.168  1.00 19.73 LIG 0.04  C 
BRANCH 21 22
ATOM     22  CG  LYS D   4      18.967 -18.394  14.964  1.00 20.49 LIG 0.00  C 
BRANCH 22 23
ATOM     23  CD  LYS D   4      20.099 -18.771  14.022  1.00 20.73 LIG 0.03  C 
BRANCH 23 24
ATOM     24  CE  LYS D   4      21.062 -19.718  14.696  1.00 20.46 LIG 0.23  C 
BRANCH 24 25
ATOM     25  NZ  LYS D   4      21.992 -20.329  13.716  1.00 20.02 LIG-0.08  N 
ATOM     26 HZ3  LYS D   4      22.703 -19.804  13.614  1.00 20.02 LIG 0.27  HD
ATOM     27 HZ1  LYS D   4      22.253 -21.127  14.011  1.00 20.02 LIG 0.27  HD
ATOM     28 HZ2  LYS D   4      21.579 -20.423  12.933  1.00 20.02 LIG 0.27  HD
ENDBRANCH 24 25
ENDBRANCH 23 24
ENDBRANCH 22 23
ENDBRANCH 21 22
ENDBRANCH 6 21
ENDBRANCH 4 6
ENDBRANCH 1 2
BRANCH 1 29
ATOM     29  CB  THR D   3      15.029 -17.297  19.029  1.00 15.86 LIG 0.15  C 
ATOM     30  CG2 THR D   3      15.056 -17.382  20.552  1.00 16.15 LIG 0.04  C 
BRANCH 29 31
ATOM     31 OG1  THR D   3      15.028 -15.918  18.639  1.00 16.19 LIG-0.39  OA
ATOM     32 HG1  THR D   3      14.820 -15.856  17.828  1.00 16.19 LIG 0.21  HD
ENDBRANCH 29 31
ENDBRANCH 1 29
BRANCH 1 33
ATOM     33  N   THR D   3      17.512 -17.402  18.898  1.00 15.75 LIG-0.34  N 
ATOM     34  C   ARG D   2      18.699 -17.964  18.668  1.00 15.31 LIG 0.24  C 
ATOM     35 O    ARG D   2      18.838 -18.985  17.998  1.00 15.17 LIG-0.27  OA
ATOM     36 H    THR D   3      17.408 -16.665  19.332  1.00 15.75 LIG 0.16  HD
BRANCH 34 37
ATOM     37  CA  ARG D   2      19.913 -17.282  19.298  1.00 15.15 LIG 0.18  C 
BRANCH 37 38
ATOM     38  N   ARG D   2      19.739 -15.832  19.426  1.00 15.89 LIG-0.35  N 
ATOM     39  C   ALA D   1      19.569 -15.000  18.396  1.00 16.91 LIG 0.25  C 
ATOM     40 O    ALA D   1      19.666 -15.348  17.212  1.00 17.32 LIG-0.27  OA
ATOM     41 H    ARG D   2      19.756 -15.560  20.242  1.00 15.89 LIG 0.16  HD
BRANCH 39 42
ATOM     42  CA  ALA D   1      19.255 -13.546  18.754  1.00 17.08 LIG 0.27  C 
ATOM     43  CB  ALA D   1      17.730 -13.326  18.864  1.00 17.48 LIG 0.05  C 
BRANCH 42 44
ATOM     44  N   ALA D   1      19.844 -12.609  17.754  1.00 17.36 LIG-0.07  N 
ATOM     45 H3   ALA D   1      20.094 -13.064  17.031  1.00 17.36 LIG 0.28  HD
ATOM     46 H2   ALA D   1      20.551 -12.202  18.108  1.00 17.36 LIG 0.28  HD
ATOM     47 H1   ALA D   1      19.237 -11.999  17.524  1.00 17.36 LIG 0.28  HD
ENDBRANCH 42 44
ENDBRANCH 39 42
ENDBRANCH 37 38
BRANCH 37 48
ATOM     48  CB  ARG D   2      20.165 -17.868  20.696  1.00 15.08 LIG 0.04  C 
BRANCH 48 49
ATOM     49  CG  ARG D   2      20.325 -19.378  20.798  1.00 14.63 LIG 0.02  C 
BRANCH 49 50
ATOM     50  CD  ARG D   2      21.056 -19.758  22.093  1.00 13.91 LIG 0.14  C 
BRANCH 50 51
ATOM     51  NE  ARG D   2      22.480 -20.008  21.872  1.00 10.79 LIG-0.23  N 
ATOM     52 HE   ARG D   2      22.698 -20.687  21.390  1.00 10.79 LIG 0.18  HD
ATOM     53  CZ  ARG D   2      23.462 -19.256  22.368  1.00 10.30 LIG 0.67  C 
ATOM     54  NH2 ARG D   2      23.185 -18.184  23.111  1.00  9.50 LIG-0.23  N 
ATOM     55  NH1 ARG D   2      24.724 -19.578  22.122  1.00  9.44 LIG-0.23  N 
ATOM     56 2HH2 ARG D   2      23.824 -17.704  23.428  1.00  9.50 LIG 0.17  HD
ATOM     57 1HH2 ARG D   2      22.367 -17.974  23.274  1.00  9.50 LIG 0.17  HD
ATOM     58 1HH1 ARG D   2      24.906 -20.269  21.645  1.00  9.44 LIG 0.17  HD
ATOM     59 2HH1 ARG D   2      25.361 -19.094  22.440  1.00  9.44 LIG 0.17  HD
ENDBRANCH 50 51
ENDBRANCH 49 50
ENDBRANCH 48 49
ENDBRANCH 37 48
ENDBRANCH 34 37
ENDBRANCH 1 33
TORSDOF 24
ENDMDL
MODEL 4
USER: ADFR SOLUTION from run 40
USER: SCORE 18.144705 LL:  -2.534 LR: -15.772 RR:   0.000 FEB:  -8.612
USER: RMSD 1.324643
USER: SEED 39
USER: STATUS no improvement in best in 5 clusters for 5 generations
USER: GENES 26
USER: genes 0 Translation |==|  0.33301 0.42734 0.59361
USER: genes 1 Rotation |==|  0.49774 0.47283 0.49806 0.99925
USER: genes 2 Torsion [N]-CA--C-[N] |==|  0.96102
USER: genes 3 Torsion [C]-N--CA-[C] |==|  0.71513
USER: genes 4 Torsion [N]-CA--C-[N] |==|  0.36600
USER: genes 5 Torsion [C]-N--CA-[C] |==|  0.78736
USER: genes 6 Torsion [N]-CA--C-[O] |==|  0.00640
USER: genes 7 Torsion [N]-CA--CB-[CG] |==|  0.22081
USER: genes 8 Torsion [CA]-CB--CG-[CD] |==|  0.55930
USER: genes 9 Torsion [CB]-CG--CD-[OE1] |==|  0.66316
USER: genes 10 Torsion [N]-CA--CB-[CG] |==|  0.94496
USER: genes 11 Torsion [CA]-CB--CG-[CD] |==|  0.39213
USER: genes 12 Torsion [CB]-CG--CD-[CE] |==|  0.37774
USER: genes 13 Torsion [CG]-CD--CE-[NZ] |==|  0.36907
USER: genes 14 Torsion [CD]-CE--NZ-[HZ3] |==|  0.45550
USER: genes 15 Torsion [C]-CA--CB-[CG2] |==|  0.50685
USER: genes 16 Torsion [CA]-CB--OG1-[HG1] |==|  0.26777
USER: genes 17 Torsion [C]-CA--N-[C] |==|  0.81111
USER: genes 18 Torsion [N]-C--CA-[N] |==|  0.91425
USER: genes 19 Torsion [C]-CA--N-[C] |==|  0.83702
USER: genes 20 Torsion [N]-C--CA-[N] |==|  0.36987
USER: genes 21 Torsion [C]-CA--N-[H1] |==|  0.72407
USER: genes 22 Torsion [C]-CA--CB-[CG] |==|  0.17819
USER: genes 23 Torsion [CA]-CB--CG-[CD] |==|  0.42021
USER: genes 24 Torsion [CB]-CG--CD-[NE] |==|  0.71739
USER: genes 25 Torsion [CG]-CD--NE-[HE] |==|  0.82492
ROOT
ATOM      1  CA  THR D   3      16.236 -18.050  18.242  1.00 16.13 LIG 0.20  C 
ENDROOT
BRANCH 1 2
ATOM      2  C   THR D   3      16.165 -18.036  16.707  1.00 16.95 LIG 0.24  C 
ATOM      3 O    THR D   3      15.301 -18.695  16.121  1.00 16.12 LIG-0.27  OA
ATOM      4  N   LYS D   4      17.076 -17.285  16.080  1.00 18.15 LIG-0.35  N 
ATOM      5 H    LYS D   4      17.646 -16.799  16.502  1.00 18.15 LIG 0.16  HD
BRANCH 4 6
ATOM      6  CA  LYS D   4      17.211 -17.201  14.617  1.00 19.65 LIG 0.18  C 
BRANCH 6 7
ATOM      7  C   LYS D   4      18.388 -18.040  14.166  1.00 20.62 LIG 0.24  C 
ATOM      8 O    LYS D   4      19.482 -17.929  14.728  1.00 20.86 LIG-0.27  OA
ATOM      9  N   GLN D   5      18.173 -18.867  13.147  1.00 21.55 LIG-0.35  N 
ATOM     10 H    GLN D   5      17.420 -18.947  12.741  1.00 21.55 LIG 0.16  HD
BRANCH 9 11
ATOM     11  CA  GLN D   5      19.240 -19.732  12.627  1.00 22.83 LIG 0.16  C 
BRANCH 11 12
ATOM     12  C   GLN D   5      20.239 -18.963  11.765  1.00 22.91 LIG 0.22  C 
ATOM     13 O    GLN D   5      20.134 -17.746  11.601  1.00 23.29 LIG-0.29  OA
ENDBRANCH 11 12
BRANCH 11 14
ATOM     14  CB  GLN D   5      18.659 -20.914  11.846  1.00 22.86 LIG 0.04  C 
BRANCH 14 15
ATOM     15  CG  GLN D   5      18.226 -20.582  10.428  1.00 24.40 LIG 0.10  C 
BRANCH 15 16
ATOM     16  CD  GLN D   5      17.218 -21.568   9.866  1.00 24.21 LIG 0.21  C 
ATOM     17  NE2 GLN D   5      16.075 -21.695  10.542  1.00 25.13 LIG-0.37  N 
ATOM     18 22HE GLN D   5      15.469 -22.237  10.262  1.00 25.13 LIG 0.16  HD
ATOM     19 21HE GLN D   5      15.944 -21.235  11.256  1.00 25.13 LIG 0.16  HD
ATOM     20 OE1  GLN D   5      17.459 -22.204   8.833  1.00 25.71 LIG-0.27  OA
ENDBRANCH 15 16
ENDBRANCH 14 15
ENDBRANCH 11 14
ENDBRANCH 9 11
ENDBRANCH 6 7
BRANCH 6 21
ATOM     21  CB  LYS D   4      17.482 -15.761  14.173  1.00 19.73 LIG 0.04  C 
BRANCH 21 22
ATOM     22  CG  LYS D   4      17.110 -14.687  15.158  1.00 20.49 LIG 0.00  C 
BRANCH 22 23
ATOM     23  CD  LYS D   4      18.160 -13.588  15.135  1.00 20.73 LIG 0.03  C 
BRANCH 23 24
ATOM     24  CE  LYS D   4      17.509 -12.226  15.138  1.00 20.46 LIG 0.23  C 
BRANCH 24 25
ATOM     25  NZ  LYS D   4      18.140 -11.329  16.135  1.00 20.02 LIG-0.08  N 
ATOM     26 HZ3  LYS D   4      17.909 -10.487  15.965  1.00 20.02 LIG 0.27  HD
ATOM     27 HZ1  LYS D   4      17.864 -11.552  16.952  1.00 20.02 LIG 0.27  HD
ATOM     28 HZ2  LYS D   4      19.025 -11.409  16.089  1.00 20.02 LIG 0.27  HD
ENDBRANCH 24 25
ENDBRANCH 23 24
ENDBRANCH 22 23
ENDBRANCH 21 22
ENDBRANCH 6 21
ENDBRANCH 4 6
ENDBRANCH 1 2
BRANCH 1 29
ATOM     29  CB  THR D   3      15.002 -17.341  18.832  1.00 15.86 LIG 0.15  C 
ATOM     30  CG2 THR D   3      15.085 -17.292  20.355  1.00 16.15 LIG 0.04  C 
BRANCH 29 31
ATOM     31 OG1  THR D   3      14.930 -16.002  18.327  1.00 16.19 LIG-0.39  OA
ATOM     32 HG1  THR D   3      14.408 -15.978  17.669  1.00 16.19 LIG 0.21  HD
ENDBRANCH 29 31
ENDBRANCH 1 29
BRANCH 1 33
ATOM     33  N   THR D   3      17.485 -17.501  18.793  1.00 15.75 LIG-0.34  N 
ATOM     34  C   ARG D   2      18.658 -18.115  18.636  1.00 15.31 LIG 0.24  C 
ATOM     35 O    ARG D   2      18.794 -19.144  17.978  1.00 15.17 LIG-0.27  OA
ATOM     36 H    THR D   3      17.387 -16.759  19.217  1.00 15.75 LIG 0.16  HD
BRANCH 34 37
ATOM     37  CA  ARG D   2      19.860 -17.484  19.339  1.00 15.15 LIG 0.18  C 
BRANCH 37 38
ATOM     38  N   ARG D   2      19.742 -16.027  19.453  1.00 15.89 LIG-0.35  N 
ATOM     39  C   ALA D   1      19.607 -15.198  18.415  1.00 16.91 LIG 0.25  C 
ATOM     40 O    ALA D   1      19.693 -15.561  17.235  1.00 17.32 LIG-0.27  OA
ATOM     41 H    ARG D   2      19.767 -15.748  20.266  1.00 15.89 LIG 0.16  HD
BRANCH 39 42
ATOM     42  CA  ALA D   1      19.348 -13.730  18.759  1.00 17.08 LIG 0.27  C 
ATOM     43  CB  ALA D   1      17.863 -13.367  18.534  1.00 17.48 LIG 0.05  C 
BRANCH 42 44
ATOM     44  N   ALA D   1      20.230 -12.829  17.961  1.00 17.36 LIG-0.07  N 
ATOM     45 H3   ALA D   1      19.770 -12.109  17.711  1.00 17.36 LIG 0.28  HD
ATOM     46 H2   ALA D   1      20.520 -13.261  17.239  1.00 17.36 LIG 0.28  HD
ATOM     47 H1   ALA D   1      20.926 -12.579  18.456  1.00 17.36 LIG 0.28  HD
ENDBRANCH 42 44
ENDBRANCH 39 42
ENDBRANCH 37 38
BRANCH 37 48
ATOM     48  CB  ARG D   2      20.000 -18.074  20.750  1.00 15.08 LIG 0.04  C 
BRANCH 48 49
ATOM     49  CG  ARG D   2      20.308 -19.561  20.855  1.00 14.63 LIG 0.02  C 
BRANCH 49 50
ATOM     50  CD  ARG D   2      21.091 -19.861  22.140  1.00 13.91 LIG 0.14  C 
BRANCH 50 51
ATOM     51  NE  ARG D   2      22.520 -20.047  21.887  1.00 10.79 LIG-0.23  N 
ATOM     52 HE   ARG D   2      22.757 -20.706  21.388  1.00 10.79 LIG 0.18  HD
ATOM     53  CZ  ARG D   2      23.479 -19.262  22.378  1.00 10.30 LIG 0.67  C 
ATOM     54  NH2 ARG D   2      23.172 -18.217  23.147  1.00  9.50 LIG-0.23  N 
ATOM     55  NH1 ARG D   2      24.748 -19.525  22.102  1.00  9.44 LIG-0.23  N 
ATOM     56 2HH2 ARG D   2      23.796 -17.716  23.460  1.00  9.50 LIG 0.17  HD
ATOM     57 1HH2 ARG D   2      22.349 -18.045  23.329  1.00  9.50 LIG 0.17  HD
ATOM     58 1HH1 ARG D   2      24.950 -20.199  21.607  1.00  9.44 LIG 0.17  HD
ATOM     59 2HH1 ARG D   2      25.370 -19.021  22.417  1.00  9.44 LIG 0.17  HD
ENDBRANCH 50 51
ENDBRANCH 49 50
ENDBRANCH 48 49
ENDBRANCH 37 48
ENDBRANCH 34 37
ENDBRANCH 1 33
TORSDOF 24
ENDMDL
MODEL 5
USER: ADFR SOLUTION from run 186
USER: SCORE 20.261779 LL:  -4.792 LR: -15.714 RR:   0.000 FEB:  -8.555
USER: RMSD 3.795619
USER: SEED 185
USER: STATUS searching
USER: GENES 26
USER: genes 0 Translation |==|  0.32307 0.43702 0.60937
USER: genes 1 Rotation |==|  0.45274 0.49252 0.48915 0.99759
USER: genes 2 Torsion [N]-CA--C-[N] |==|  0.96109
USER: genes 3 Torsion [C]-N--CA-[C] |==|  0.67289
USER: genes 4 Torsion [N]-CA--C-[N] |==|  0.98773
USER: genes 5 Torsion [C]-N--CA-[C] |==|  0.49173
USER: genes 6 Torsion [N]-CA--C-[O] |==|  0.18665
USER: genes 7 Torsion [N]-CA--CB-[CG] |==|  0.14861
USER: genes 8 Torsion [CA]-CB--CG-[CD] |==|  0.23079
USER: genes 9 Torsion [CB]-CG--CD-[OE1] |==|  0.59859
USER: genes 10 Torsion [N]-CA--CB-[CG] |==|  0.68826
USER: genes 11 Torsion [CA]-CB--CG-[CD] |==|  0.88198
USER: genes 12 Torsion [CB]-CG--CD-[CE] |==|  0.30401
USER: genes 13 Torsion [CG]-CD--CE-[NZ] |==|  0.70594
USER: genes 14 Torsion [CD]-CE--NZ-[HZ3] |==|  0.25916
USER: genes 15 Torsion [C]-CA--CB-[CG2] |==|  0.50708
USER: genes 16 Torsion [CA]-CB--OG1-[HG1] |==|  0.36822
USER: genes 17 Torsion [C]-CA--N-[C] |==|  0.81878
USER: genes 18 Torsion [N]-C--CA-[N] |==|  0.93992
USER: genes 19 Torsion [C]-CA--N-[C] |==|  0.82474
USER: genes 20 Torsion [N]-C--CA-[N] |==|  0.38909
USER: genes 21 Torsion [C]-CA--N-[H1] |==|  0.38636
USER: genes 22 Torsion [C]-CA--CB-[CG] |==|  0.15386
USER: genes 23 Torsion [CA]-CB--CG-[CD] |==|  0.46271
USER: genes 24 Torsion [CB]-CG--CD-[NE] |==|  0.72258
USER: genes 25 Torsion [CG]-CD--NE-[HE] |==|  0.81517
ROOT
ATOM      1  CA  THR D   3      16.050 -17.854  18.597  1.00 16.13 LIG 0.20  C 
ENDROOT
BRANCH 1 2
ATOM      2  C   THR D   3      15.853 -18.105  17.093  1.00 16.95 LIG 0.24  C 
ATOM      3 O    THR D   3      14.919 -18.809  16.700  1.00 16.12 LIG-0.27  OA
ATOM      4  N   LYS D   4      16.737 -17.524  16.277  1.00 18.15 LIG-0.35  N 
ATOM      5 H    LYS D   4      17.359 -17.003  16.561  1.00 18.15 LIG 0.16  HD
BRANCH 4 6
ATOM      6  CA  LYS D   4      16.754 -17.704  14.816  1.00 19.65 LIG 0.18  C 
BRANCH 6 7
ATOM      7  C   LYS D   4      18.057 -18.353  14.399  1.00 20.62 LIG 0.24  C 
ATOM      8 O    LYS D   4      18.239 -18.681  13.223  1.00 20.86 LIG-0.27  OA
ATOM      9  N   GLN D   5      18.957 -18.553  15.358  1.00 21.55 LIG-0.35  N 
ATOM     10 H    GLN D   5      18.838 -18.339  16.182  1.00 21.55 LIG 0.16  HD
BRANCH 9 11
ATOM     11  CA  GLN D   5      20.257 -19.172  15.071  1.00 22.83 LIG 0.16  C 
BRANCH 11 12
ATOM     12  C   GLN D   5      21.154 -19.234  16.306  1.00 22.91 LIG 0.22  C 
ATOM     13 O    GLN D   5      20.868 -19.954  17.264  1.00 23.29 LIG-0.29  OA
ENDBRANCH 11 12
BRANCH 11 14
ATOM     14  CB  GLN D   5      20.972 -18.445  13.928  1.00 22.86 LIG 0.04  C 
BRANCH 14 15
ATOM     15  CG  GLN D   5      21.120 -16.947  14.126  1.00 24.40 LIG 0.10  C 
BRANCH 15 16
ATOM     16  CD  GLN D   5      22.315 -16.573  14.983  1.00 24.21 LIG 0.21  C 
ATOM     17  NE2 GLN D   5      23.405 -17.329  14.841  1.00 25.13 LIG-0.37  N 
ATOM     18 22HE GLN D   5      24.111 -17.156  15.300  1.00 25.13 LIG 0.16  HD
ATOM     19 21HE GLN D   5      23.401 -17.989  14.289  1.00 25.13 LIG 0.16  HD
ATOM     20 OE1  GLN D   5      22.265 -15.612  15.761  1.00 25.71 LIG-0.27  OA
ENDBRANCH 15 16
ENDBRANCH 14 15
ENDBRANCH 11 14
ENDBRANCH 9 11
ENDBRANCH 6 7
BRANCH 6 21
ATOM     21  CB  LYS D   4      16.667 -16.356  14.095  1.00 19.73 LIG 0.04  C 
BRANCH 21 22
ATOM     22  CG  LYS D   4      15.397 -16.100  13.330  1.00 20.49 LIG 0.00  C 
BRANCH 22 23
ATOM     23  CD  LYS D   4      14.997 -17.357  12.573  1.00 20.73 LIG 0.03  C 
BRANCH 23 24
ATOM     24  CE  LYS D   4      13.765 -17.979  13.185  1.00 20.46 LIG 0.23  C 
BRANCH 24 25
ATOM     25  NZ  LYS D   4      14.103 -19.204  13.948  1.00 20.02 LIG-0.08  N 
ATOM     26 HZ3  LYS D   4      14.235 -18.995  14.803  1.00 20.02 LIG 0.27  HD
ATOM     27 HZ1  LYS D   4      13.434 -19.787  13.886  1.00 20.02 LIG 0.27  HD
ATOM     28 HZ2  LYS D   4      14.844 -19.566  13.615  1.00 20.02 LIG 0.27  HD
ENDBRANCH 24 25
ENDBRANCH 23 24
ENDBRANCH 22 23
ENDBRANCH 21 22
ENDBRANCH 6 21
ENDBRANCH 4 6
ENDBRANCH 1 2
BRANCH 1 29
ATOM     29  CB  THR D   3      14.897 -16.989  19.141  1.00 15.86 LIG 0.15  C 
ATOM     30  CG2 THR D   3      15.108 -16.677  20.620  1.00 16.15 LIG 0.04  C 
BRANCH 29 31
ATOM     31 OG1  THR D   3      14.833 -15.758  18.410  1.00 16.19 LIG-0.39  OA
ATOM     32 HG1  THR D   3      14.039 -15.608  18.182  1.00 16.19 LIG 0.21  HD
ENDBRANCH 29 31
ENDBRANCH 1 29
BRANCH 1 33
ATOM     33  N   THR D   3      17.360 -17.283  18.946  1.00 15.75 LIG-0.34  N 
ATOM     34  C   ARG D   2      18.496 -17.957  18.764  1.00 15.31 LIG 0.24  C 
ATOM     35 O    ARG D   2      18.541 -19.069  18.243  1.00 15.17 LIG-0.27  OA
ATOM     36 H    THR D   3      17.322 -16.488  19.273  1.00 15.75 LIG 0.16  HD
BRANCH 34 37
ATOM     37  CA  ARG D   2      19.778 -17.283  19.257  1.00 15.15 LIG 0.18  C 
BRANCH 37 38
ATOM     38  N   ARG D   2      19.632 -15.829  19.386  1.00 15.89 LIG-0.35  N 
ATOM     39  C   ALA D   1      19.383 -15.003  18.368  1.00 16.91 LIG 0.25  C 
ATOM     40 O    ALA D   1      19.372 -15.362  17.183  1.00 17.32 LIG-0.27  OA
ATOM     41 H    ARG D   2      19.724 -15.551  20.195  1.00 15.89 LIG 0.16  HD
BRANCH 39 42
ATOM     42  CA  ALA D   1      19.119 -13.543  18.740  1.00 17.08 LIG 0.27  C 
ATOM     43  CB  ALA D   1      17.601 -13.263  18.818  1.00 17.48 LIG 0.05  C 
BRANCH 42 44
ATOM     44  N   ALA D   1      19.768 -12.616  17.766  1.00 17.36 LIG-0.07  N 
ATOM     45 H3   ALA D   1      19.949 -13.056  17.014  1.00 17.36 LIG 0.28  HD
ATOM     46 H2   ALA D   1      20.524 -12.301  18.115  1.00 17.36 LIG 0.28  HD
ATOM     47 H1   ALA D   1      19.219 -11.939  17.589  1.00 17.36 LIG 0.28  HD
ENDBRANCH 42 44
ENDBRANCH 39 42
ENDBRANCH 37 38
BRANCH 37 48
ATOM     48  CB  ARG D   2      20.168 -17.858  20.626  1.00 15.08 LIG 0.04  C 
BRANCH 48 49
ATOM     49  CG  ARG D   2      20.338 -19.367  20.724  1.00 14.63 LIG 0.02  C 
BRANCH 49 50
ATOM     50  CD  ARG D   2      21.040 -19.749  22.033  1.00 13.91 LIG 0.14  C 
BRANCH 50 51
ATOM     51  NE  ARG D   2      22.465 -20.017  21.840  1.00 10.79 LIG-0.23  N 
ATOM     52 HE   ARG D   2      22.685 -20.704  21.372  1.00 10.79 LIG 0.18  HD
ATOM     53  CZ  ARG D   2      23.446 -19.267  22.341  1.00 10.30 LIG 0.67  C 
ATOM     54  NH2 ARG D   2      23.168 -18.182  23.065  1.00  9.50 LIG-0.23  N 
ATOM     55  NH1 ARG D   2      24.709 -19.605  22.121  1.00  9.44 LIG-0.23  N 
ATOM     56 2HH2 ARG D   2      23.806 -17.704  23.385  1.00  9.50 LIG 0.17  HD
ATOM     57 1HH2 ARG D   2      22.349 -17.961  23.211  1.00  9.50 LIG 0.17  HD
ATOM     58 1HH1 ARG D   2      24.892 -20.305  21.657  1.00  9.44 LIG 0.17  HD
ATOM     59 2HH1 ARG D   2      25.345 -19.123  22.443  1.00  9.44 LIG 0.17  HD
ENDBRANCH 50 51
ENDBRANCH 49 50
ENDBRANCH 48 49
ENDBRANCH 37 48
ENDBRANCH 34 37
ENDBRANCH 1 33
TORSDOF 24
ENDMDL
MODEL 6
USER: ADFR SOLUTION from run 100
USER: SCORE 18.605338 LL:  -3.280 LR: -15.458 RR:   0.000 FEB:  -8.299
USER: RMSD 1.918404
USER: SEED 99
USER: STATUS searching
USER: GENES 26
USER: genes 0 Translation |==|  0.31620 0.44543 0.62700
USER: genes 1 Rotation |==|  0.45860 0.54477 0.49303 0.99622
USER: genes 2 Torsion [N]-CA--C-[N] |==|  0.97765
USER: genes 3 Torsion [C]-N--CA-[C] |==|  0.61354
USER: genes 4 Torsion [N]-CA--C-[N] |==|  0.43687
USER: genes 5 Torsion [C]-N--CA-[C] |==|  0.70475
USER: genes 6 Torsion [N]-CA--C-[O] |==|  0.98363
USER: genes 7 Torsion [N]-CA--CB-[CG] |==|  0.34260
USER: genes 8 Torsion [CA]-CB--CG-[CD] |==|  0.63198
USER: genes 9 Torsion [CB]-CG--CD-[OE1] |==|  0.59345
USER: genes 10 Torsion [N]-CA--CB-[CG] |==|  0.73859
USER: genes 11 Torsion [CA]-CB--CG-[CD] |==|  0.21925
USER: genes 12 Torsion [CB]-CG--CD-[CE] |==|  0.65026
USER: genes 13 Torsion [CG]-CD--CE-[NZ] |==|  0.60814
USER: genes 14 Torsion [CD]-CE--NZ-[HZ3] |==|  0.23925
USER: genes 15 Torsion [C]-CA--CB-[CG2] |==|  0.60162
USER: genes 16 Torsion [CA]-CB--OG1-[HG1] |==|  0.74325
USER: genes 17 Torsion [C]-CA--N-[C] |==|  0.80196
USER: genes 18 Torsion [N]-C--CA-[N] |==|  0.95195
USER: genes 19 Torsion [C]-CA--N-[C] |==|  0.80144
USER: genes 20 Torsion [N]-C--CA-[N] |==|  0.37288
USER: genes 21 Torsion [C]-CA--N-[H1] |==|  0.69172
USER: genes 22 Torsion [C]-CA--CB-[CG] |==|  0.12245
USER: genes 23 Torsion [CA]-CB--CG-[CD] |==|  0.50807
USER: genes 24 Torsion [CB]-CG--CD-[NE] |==|  0.73988
USER: genes 25 Torsion [CG]-CD--NE-[HE] |==|  0.81195
ROOT
ATOM      1  CA  THR D   3      15.921 -17.684  18.994  1.00 16.13 LIG 0.20  C 
ENDROOT
BRANCH 1 2
ATOM      2  C   THR D   3      15.415 -17.893  17.558  1.00 16.95 LIG 0.24  C 
ATOM      3 O    THR D   3      14.354 -18.492  17.356  1.00 16.12 LIG-0.27  OA
ATOM      4  N   LYS D   4      16.181 -17.396  16.582  1.00 18.15 LIG-0.35  N 
ATOM      5 H    LYS D   4      16.896 -16.946  16.738  1.00 18.15 LIG 0.16  HD
BRANCH 4 6
ATOM      6  CA  LYS D   4      15.899 -17.558  15.147  1.00 19.65 LIG 0.18  C 
BRANCH 6 7
ATOM      7  C   LYS D   4      17.188 -17.838  14.404  1.00 20.62 LIG 0.24  C 
ATOM      8 O    LYS D   4      18.271 -17.486  14.884  1.00 20.86 LIG-0.27  OA
ATOM      9  N   GLN D   5      17.078 -18.454  13.231  1.00 21.55 LIG-0.35  N 
ATOM     10 H    GLN D   5      16.330 -18.694  12.881  1.00 21.55 LIG 0.16  HD
BRANCH 9 11
ATOM     11  CA  GLN D   5      18.260 -18.780  12.423  1.00 22.83 LIG 0.16  C 
BRANCH 11 12
ATOM     12  C   GLN D   5      18.398 -17.868  11.205  1.00 22.91 LIG 0.22  C 
ATOM     13 O    GLN D   5      17.522 -17.049  10.921  1.00 23.29 LIG-0.29  OA
ENDBRANCH 11 12
BRANCH 11 14
ATOM     14  CB  GLN D   5      18.245 -20.248  11.991  1.00 22.86 LIG 0.04  C 
BRANCH 14 15
ATOM     15  CG  GLN D   5      18.322 -20.466  10.490  1.00 24.40 LIG 0.10  C 
BRANCH 15 16
ATOM     16  CD  GLN D   5      17.293 -21.457   9.978  1.00 24.21 LIG 0.21  C 
ATOM     17  NE2 GLN D   5      16.116 -21.466  10.606  1.00 25.13 LIG-0.37  N 
ATOM     18 22HE GLN D   5      15.497 -22.006  10.351  1.00 25.13 LIG 0.16  HD
ATOM     19 21HE GLN D   5      15.976 -20.932  11.266  1.00 25.13 LIG 0.16  HD
ATOM     20 OE1  GLN D   5      17.547 -22.203   9.025  1.00 25.71 LIG-0.27  OA
ENDBRANCH 15 16
ENDBRANCH 14 15
ENDBRANCH 11 14
ENDBRANCH 9 11
ENDBRANCH 6 7
BRANCH 6 21
ATOM     21  CB  LYS D   4      15.303 -16.277  14.557  1.00 19.73 LIG 0.04  C 
BRANCH 21 22
ATOM     22  CG  LYS D   4      13.801 -16.211  14.510  1.00 20.49 LIG 0.00  C 
BRANCH 22 23
ATOM     23  CD  LYS D   4      13.263 -15.855  15.887  1.00 20.73 LIG 0.03  C 
BRANCH 23 24
ATOM     24  CE  LYS D   4      12.244 -16.872  16.341  1.00 20.46 LIG 0.23  C 
BRANCH 24 25
ATOM     25  NZ  LYS D   4      11.117 -16.224  17.054  1.00 20.02 LIG-0.08  N 
ATOM     26 HZ3  LYS D   4      10.507 -15.958  16.464  1.00 20.02 LIG 0.27  HD
ATOM     27 HZ1  LYS D   4      10.749 -16.805  17.618  1.00 20.02 LIG 0.27  HD
ATOM     28 HZ2  LYS D   4      11.418 -15.520  17.507  1.00 20.02 LIG 0.27  HD
ENDBRANCH 24 25
ENDBRANCH 23 24
ENDBRANCH 22 23
ENDBRANCH 21 22
ENDBRANCH 6 21
ENDBRANCH 4 6
ENDBRANCH 1 2
BRANCH 1 29
ATOM     29  CB  THR D   3      14.912 -16.833  19.788  1.00 15.86 LIG 0.15  C 
ATOM     30  CG2 THR D   3      15.637 -15.891  20.745  1.00 16.15 LIG 0.04  C 
BRANCH 29 31
ATOM     31 OG1  THR D   3      14.120 -16.055  18.881  1.00 16.19 LIG-0.39  OA
ATOM     32 HG1  THR D   3      14.477 -15.303  18.772  1.00 16.19 LIG 0.21  HD
ENDBRANCH 29 31
ENDBRANCH 1 29
BRANCH 1 33
ATOM     33  N   THR D   3      17.279 -17.125  19.078  1.00 15.75 LIG-0.34  N 
ATOM     34  C   ARG D   2      18.359 -17.837  18.757  1.00 15.31 LIG 0.24  C 
ATOM     35 O    ARG D   2      18.300 -18.983  18.315  1.00 15.17 LIG-0.27  OA
ATOM     36 H    THR D   3      17.308 -16.309  19.349  1.00 15.75 LIG 0.16  HD
BRANCH 34 37
ATOM     37  CA  ARG D   2      19.714 -17.165  18.980  1.00 15.15 LIG 0.18  C 
BRANCH 37 38
ATOM     38  N   ARG D   2      19.600 -15.710  19.130  1.00 15.89 LIG-0.35  N 
ATOM     39  C   ALA D   1      19.307 -14.870  18.135  1.00 16.91 LIG 0.25  C 
ATOM     40 O    ALA D   1      19.223 -15.217  16.950  1.00 17.32 LIG-0.27  OA
ATOM     41 H    ARG D   2      19.742 -15.442  19.935  1.00 15.89 LIG 0.16  HD
BRANCH 39 42
ATOM     42  CA  ALA D   1      19.088 -13.410  18.534  1.00 17.08 LIG 0.27  C 
ATOM     43  CB  ALA D   1      17.581 -13.068  18.559  1.00 17.48 LIG 0.05  C 
BRANCH 42 44
ATOM     44  N   ALA D   1      19.814 -12.488  17.612  1.00 17.36 LIG-0.07  N 
ATOM     45 H3   ALA D   1      19.254 -11.863  17.316  1.00 17.36 LIG 0.28  HD
ATOM     46 H2   ALA D   1      20.135 -12.950  16.923  1.00 17.36 LIG 0.28  HD
ATOM     47 H1   ALA D   1      20.487 -12.101  18.048  1.00 17.36 LIG 0.28  HD
ENDBRANCH 42 44
ENDBRANCH 39 42
ENDBRANCH 37 38
BRANCH 37 48
ATOM     48  CB  ARG D   2      20.370 -17.736  20.245  1.00 15.08 LIG 0.04  C 
BRANCH 48 49
ATOM     49  CG  ARG D   2      20.317 -19.245  20.436  1.00 14.63 LIG 0.02  C 
BRANCH 49 50
ATOM     50  CD  ARG D   2      20.950 -19.644  21.775  1.00 13.91 LIG 0.14  C 
BRANCH 50 51
ATOM     51  NE  ARG D   2      22.365 -19.989  21.638  1.00 10.79 LIG-0.23  N 
ATOM     52 HE   ARG D   2      22.564 -20.702  21.200  1.00 10.79 LIG 0.18  HD
ATOM     53  CZ  ARG D   2      23.367 -19.273  22.147  1.00 10.30 LIG 0.67  C 
ATOM     54  NH2 ARG D   2      23.121 -18.151  22.825  1.00  9.50 LIG-0.23  N 
ATOM     55  NH1 ARG D   2      24.617 -19.680  21.981  1.00  9.44 LIG-0.23  N 
ATOM     56 2HH2 ARG D   2      23.772 -17.695  23.151  1.00  9.50 LIG 0.17  HD
ATOM     57 1HH2 ARG D   2      22.311 -17.885  22.937  1.00  9.50 LIG 0.17  HD
ATOM     58 1HH1 ARG D   2      24.779 -20.404  21.545  1.00  9.44 LIG 0.17  HD
ATOM     59 2HH1 ARG D   2      25.266 -19.221  22.308  1.00  9.44 LIG 0.17  HD
ENDBRANCH 50 51
ENDBRANCH 49 50
ENDBRANCH 48 49
ENDBRANCH 37 48
ENDBRANCH 34 37
ENDBRANCH 1 33
TORSDOF 24
ENDMDL
MODEL 7
USER: ADFR SOLUTION from run 189
USER: SCORE 18.622318 LL:  -3.369 LR: -15.376 RR:   0.000 FEB:  -8.217
USER: RMSD 5.373981
USER: SEED 188
USER: STATUS no improvement in best in 8 clusters for 5 generations
USER: GENES 26
USER: genes 0 Translation |==|  0.33575 0.42567 0.59990
USER: genes 1 Rotation |==|  0.50900 0.48184 0.51489 0.99937
USER: genes 2 Torsion [N]-CA--C-[N] |==|  0.93838
USER: genes 3 Torsion [C]-N--CA-[C] |==|  0.14544
USER: genes 4 Torsion [N]-CA--C-[N] |==|  0.10417
USER: genes 5 Torsion [C]-N--CA-[C] |==|  0.82037
USER: genes 6 Torsion [N]-CA--C-[O] |==|  0.87017
USER: genes 7 Torsion [N]-CA--CB-[CG] |==|  0.13790
USER: genes 8 Torsion [CA]-CB--CG-[CD] |==|  0.47485
USER: genes 9 Torsion [CB]-CG--CD-[OE1] |==|  0.59595
USER: genes 10 Torsion [N]-CA--CB-[CG] |==|  0.74812
USER: genes 11 Torsion [CA]-CB--CG-[CD] |==|  0.44078
USER: genes 12 Torsion [CB]-CG--CD-[CE] |==|  0.60037
USER: genes 13 Torsion [CG]-CD--CE-[NZ] |==|  0.58918
USER: genes 14 Torsion [CD]-CE--NZ-[HZ3] |==|  0.03696
USER: genes 15 Torsion [C]-CA--CB-[CG2] |==|  0.57717
USER: genes 16 Torsion [CA]-CB--OG1-[HG1] |==|  0.21842
USER: genes 17 Torsion [C]-CA--N-[C] |==|  0.81959
USER: genes 18 Torsion [N]-C--CA-[N] |==|  0.89585
USER: genes 19 Torsion [C]-CA--N-[C] |==|  0.84851
USER: genes 20 Torsion [N]-C--CA-[N] |==|  0.39481
USER: genes 21 Torsion [C]-CA--N-[H1] |==|  0.72840
USER: genes 22 Torsion [C]-CA--CB-[CG] |==|  0.14620
USER: genes 23 Torsion [CA]-CB--CG-[CD] |==|  0.42806
USER: genes 24 Torsion [CB]-CG--CD-[NE] |==|  0.73458
USER: genes 25 Torsion [CG]-CD--NE-[HE] |==|  0.81469
ROOT
ATOM      1  CA  THR D   3      16.287 -18.084  18.384  1.00 16.13 LIG 0.20  C 
ENDROOT
BRANCH 1 2
ATOM      2  C   THR D   3      16.158 -18.013  16.854  1.00 16.95 LIG 0.24  C 
ATOM      3 O    THR D   3      15.430 -18.811  16.256  1.00 16.12 LIG-0.27  OA
ATOM      4  N   LYS D   4      16.868 -17.059  16.244  1.00 18.15 LIG-0.35  N 
ATOM      5 H    LYS D   4      17.339 -16.484  16.676  1.00 18.15 LIG 0.16  HD
BRANCH 4 6
ATOM      6  CA  LYS D   4      16.928 -16.880  14.785  1.00 19.65 LIG 0.18  C 
BRANCH 6 7
ATOM      7  C   LYS D   4      15.523 -16.804  14.224  1.00 20.62 LIG 0.24  C 
ATOM      8 O    LYS D   4      15.263 -17.313  13.129  1.00 20.86 LIG-0.27  OA
ATOM      9  N   GLN D   5      14.621 -16.161  14.961  1.00 21.55 LIG-0.35  N 
ATOM     10 H    GLN D   5      14.792 -15.794  15.719  1.00 21.55 LIG 0.16  HD
BRANCH 9 11
ATOM     11  CA  GLN D   5      13.227 -16.028  14.519  1.00 22.83 LIG 0.16  C 
BRANCH 11 12
ATOM     12  C   GLN D   5      13.101 -15.192  13.246  1.00 22.91 LIG 0.22  C 
ATOM     13 O    GLN D   5      13.692 -14.117  13.129  1.00 23.29 LIG-0.29  OA
ENDBRANCH 11 12
BRANCH 11 14
ATOM     14  CB  GLN D   5      12.351 -15.445  15.630  1.00 22.86 LIG 0.04  C 
BRANCH 14 15
ATOM     15  CG  GLN D   5      12.905 -14.188  16.278  1.00 24.40 LIG 0.10  C 
BRANCH 15 16
ATOM     16  CD  GLN D   5      11.920 -13.516  17.216  1.00 24.21 LIG 0.21  C 
ATOM     17  NE2 GLN D   5      11.113 -14.324  17.906  1.00 25.13 LIG-0.37  N 
ATOM     18 22HE GLN D   5      10.540 -13.993  18.454  1.00 25.13 LIG 0.16  HD
ATOM     19 21HE GLN D   5      11.167 -15.176  17.802  1.00 25.13 LIG 0.16  HD
ATOM     20 OE1  GLN D   5      11.885 -12.284  17.326  1.00 25.71 LIG-0.27  OA
ENDBRANCH 15 16
ENDBRANCH 14 15
ENDBRANCH 11 14
ENDBRANCH 9 11
ENDBRANCH 6 7
BRANCH 6 21
ATOM     21  CB  LYS D   4      17.622 -18.068  14.114  1.00 19.73 LIG 0.04  C 
BRANCH 21 22
ATOM     22  CG  LYS D   4      19.111 -17.946  13.937  1.00 20.49 LIG 0.00  C 
BRANCH 22 23
ATOM     23  CD  LYS D   4      19.719 -19.329  13.769  1.00 20.73 LIG 0.03  C 
BRANCH 23 24
ATOM     24  CE  LYS D   4      21.071 -19.403  14.436  1.00 20.46 LIG 0.23  C 
BRANCH 24 25
ATOM     25  NZ  LYS D   4      21.977 -20.329  13.717  1.00 20.02 LIG-0.08  N 
ATOM     26 HZ3  LYS D   4      21.631 -20.524  12.921  1.00 20.02 LIG 0.27  HD
ATOM     27 HZ1  LYS D   4      22.772 -19.942  13.608  1.00 20.02 LIG 0.27  HD
ATOM     28 HZ2  LYS D   4      22.074 -21.077  14.189  1.00 20.02 LIG 0.27  HD
ENDBRANCH 24 25
ENDBRANCH 23 24
ENDBRANCH 22 23
ENDBRANCH 21 22
ENDBRANCH 6 21
ENDBRANCH 4 6
ENDBRANCH 1 2
BRANCH 1 29
ATOM     29  CB  THR D   3      15.030 -17.488  19.046  1.00 15.86 LIG 0.15  C 
ATOM     30  CG2 THR D   3      15.365 -16.918  20.422  1.00 16.15 LIG 0.04  C 
BRANCH 29 31
ATOM     31 OG1  THR D   3      14.506 -16.438  18.223  1.00 16.19 LIG-0.39  OA
ATOM     32 HG1  THR D   3      14.076 -16.772  17.583  1.00 16.19 LIG 0.21  HD
ENDBRANCH 29 31
ENDBRANCH 1 29
BRANCH 1 33
ATOM     33  N   THR D   3      17.515 -17.471  18.914  1.00 15.75 LIG-0.34  N 
ATOM     34  C   ARG D   2      18.725 -17.961  18.641  1.00 15.31 LIG 0.24  C 
ATOM     35 O    ARG D   2      18.909 -18.915  17.888  1.00 15.17 LIG-0.27  OA
ATOM     36 H    THR D   3      17.379 -16.779  19.407  1.00 15.75 LIG 0.16  HD
BRANCH 34 37
ATOM     37  CA  ARG D   2      19.909 -17.283  19.332  1.00 15.15 LIG 0.18  C 
BRANCH 37 38
ATOM     38  N   ARG D   2      19.739 -15.831  19.441  1.00 15.89 LIG-0.35  N 
ATOM     39  C   ALA D   1      19.487 -15.022  18.410  1.00 16.91 LIG 0.25  C 
ATOM     40 O    ALA D   1      19.495 -15.395  17.230  1.00 17.32 LIG-0.27  OA
ATOM     41 H    ARG D   2      19.817 -15.541  20.247  1.00 15.89 LIG 0.16  HD
BRANCH 39 42
ATOM     42  CA  ALA D   1      19.195 -13.562  18.760  1.00 17.08 LIG 0.27  C 
ATOM     43  CB  ALA D   1      17.673 -13.318  18.869  1.00 17.48 LIG 0.05  C 
BRANCH 42 44
ATOM     44  N   ALA D   1      19.797 -12.639  17.754  1.00 17.36 LIG-0.07  N 
ATOM     45 H3   ALA D   1      19.246 -11.954  17.611  1.00 17.36 LIG 0.28  HD
ATOM     46 H2   ALA D   1      19.931 -13.077  16.991  1.00 17.36 LIG 0.28  HD
ATOM     47 H1   ALA D   1      20.576 -12.333  18.060  1.00 17.36 LIG 0.28  HD
ENDBRANCH 42 44
ENDBRANCH 39 42
ENDBRANCH 37 38
BRANCH 37 48
ATOM     48  CB  ARG D   2      20.081 -17.862  20.744  1.00 15.08 LIG 0.04  C 
BRANCH 48 49
ATOM     49  CG  ARG D   2      20.176 -19.376  20.869  1.00 14.63 LIG 0.02  C 
BRANCH 49 50
ATOM     50  CD  ARG D   2      20.953 -19.767  22.132  1.00 13.91 LIG 0.14  C 
BRANCH 50 51
ATOM     51  NE  ARG D   2      22.367 -20.021  21.855  1.00 10.79 LIG-0.23  N 
ATOM     52 HE   ARG D   2      22.565 -20.702  21.368  1.00 10.79 LIG 0.18  HD
ATOM     53  CZ  ARG D   2      23.369 -19.267  22.307  1.00 10.30 LIG 0.67  C 
ATOM     54  NH2 ARG D   2      23.124 -18.191  23.054  1.00  9.50 LIG-0.23  N 
ATOM     55  NH1 ARG D   2      24.620 -19.592  22.012  1.00  9.44 LIG-0.23  N 
ATOM     56 2HH2 ARG D   2      23.775 -17.710  23.342  1.00  9.50 LIG 0.17  HD
ATOM     57 1HH2 ARG D   2      22.314 -17.978  23.249  1.00  9.50 LIG 0.17  HD
ATOM     58 1HH1 ARG D   2      24.782 -20.286  21.531  1.00  9.44 LIG 0.17  HD
ATOM     59 2HH1 ARG D   2      25.270 -19.108  22.301  1.00  9.44 LIG 0.17  HD
ENDBRANCH 50 51
ENDBRANCH 49 50
ENDBRANCH 48 49
ENDBRANCH 37 48
ENDBRANCH 34 37
ENDBRANCH 1 33
TORSDOF 24
ENDMDL
MODEL 8
USER: ADFR SOLUTION from run 8
USER: SCORE 18.250952 LL:  -3.418 LR: -15.248 RR:   0.000 FEB:  -8.089
USER: RMSD 2.969563
USER: SEED 617846
USER: STATUS no improvement in best in 5 clusters for 5 generations
USER: GENES 26
USER: genes 0 Translation |==|  0.33686 0.44760 0.59824
USER: genes 1 Rotation |==|  0.49938 0.51660 0.48462 0.99949
USER: genes 2 Torsion [N]-CA--C-[N] |==|  0.95768
USER: genes 3 Torsion [C]-N--CA-[C] |==|  0.66092
USER: genes 4 Torsion [N]-CA--C-[N] |==|  0.27263
USER: genes 5 Torsion [C]-N--CA-[C] |==|  0.60156
USER: genes 6 Torsion [N]-CA--C-[O] |==|  0.95266
USER: genes 7 Torsion [N]-CA--CB-[CG] |==|  0.92428
USER: genes 8 Torsion [CA]-CB--CG-[CD] |==|  0.59703
USER: genes 9 Torsion [CB]-CG--CD-[OE1] |==|  0.61817
USER: genes 10 Torsion [N]-CA--CB-[CG] |==|  0.98837
USER: genes 11 Torsion [CA]-CB--CG-[CD] |==|  0.36630
USER: genes 12 Torsion [CB]-CG--CD-[CE] |==|  0.46540
USER: genes 13 Torsion [CG]-CD--CE-[NZ] |==|  0.45482
USER: genes 14 Torsion [CD]-CE--NZ-[HZ3] |==|  0.19101
USER: genes 15 Torsion [C]-CA--CB-[CG2] |==|  0.43874
USER: genes 16 Torsion [CA]-CB--OG1-[HG1] |==|  0.07440
USER: genes 17 Torsion [C]-CA--N-[C] |==|  0.78775
USER: genes 18 Torsion [N]-C--CA-[N] |==|  0.89902
USER: genes 19 Torsion [C]-CA--N-[C] |==|  0.81705
USER: genes 20 Torsion [N]-C--CA-[N] |==|  0.14428
USER: genes 21 Torsion [C]-CA--N-[H1] |==|  0.99014
USER: genes 22 Torsion [C]-CA--CB-[CG] |==|  0.21484
USER: genes 23 Torsion [CA]-CB--CG-[CD] |==|  0.48636
USER: genes 24 Torsion [CB]-CG--CD-[NE] |==|  0.77167
USER: genes 25 Torsion [CG]-CD--NE-[HE] |==|  0.31337
ROOT
ATOM      1  CA  THR D   3      16.308 -17.640  18.346  1.00 16.13 LIG 0.20  C 
ENDROOT
BRANCH 1 2
ATOM      2  C   THR D   3      15.973 -17.599  16.847  1.00 16.95 LIG 0.24  C 
ATOM      3 O    THR D   3      14.998 -18.221  16.413  1.00 16.12 LIG-0.27  OA
ATOM      4  N   LYS D   4      16.786 -16.868  16.079  1.00 18.15 LIG-0.35  N 
ATOM      5 H    LYS D   4      17.437 -16.407  16.400  1.00 18.15 LIG 0.16  HD
BRANCH 4 6
ATOM      6  CA  LYS D   4      16.668 -16.765  14.616  1.00 19.65 LIG 0.18  C 
BRANCH 6 7
ATOM      7  C   LYS D   4      17.961 -17.216  13.969  1.00 20.62 LIG 0.24  C 
ATOM      8 O    LYS D   4      18.911 -16.433  13.869  1.00 20.86 LIG-0.27  OA
ATOM      9  N   GLN D   5      17.997 -18.466  13.517  1.00 21.55 LIG-0.35  N 
ATOM     10 H    GLN D   5      17.339 -19.017  13.571  1.00 21.55 LIG 0.16  HD
BRANCH 9 11
ATOM     11  CA  GLN D   5      19.198 -19.013  12.874  1.00 22.83 LIG 0.16  C 
BRANCH 11 12
ATOM     12  C   GLN D   5      18.859 -19.959  11.724  1.00 22.91 LIG 0.22  C 
ATOM     13 O    GLN D   5      17.731 -20.441  11.607  1.00 23.29 LIG-0.29  OA
ENDBRANCH 11 12
BRANCH 11 14
ATOM     14  CB  GLN D   5      20.098 -19.715  13.895  1.00 22.86 LIG 0.04  C 
BRANCH 14 15
ATOM     15  CG  GLN D   5      19.975 -19.187  15.314  1.00 24.40 LIG 0.10  C 
BRANCH 15 16
ATOM     16  CD  GLN D   5      21.288 -19.209  16.075  1.00 24.21 LIG 0.21  C 
ATOM     17  NE2 GLN D   5      22.367 -18.803  15.403  1.00 25.13 LIG-0.37  N 
ATOM     18 22HE GLN D   5      23.134 -18.791  15.791  1.00 25.13 LIG 0.16  HD
ATOM     19 21HE GLN D   5      22.295 -18.551  14.584  1.00 25.13 LIG 0.16  HD
ATOM     20 OE1  GLN D   5      21.334 -19.579  17.254  1.00 25.71 LIG-0.27  OA
ENDBRANCH 15 16
ENDBRANCH 14 15
ENDBRANCH 11 14
ENDBRANCH 9 11
ENDBRANCH 6 7
BRANCH 6 21
ATOM     21  CB  LYS D   4      16.425 -15.316  14.185  1.00 19.73 LIG 0.04  C 
BRANCH 21 22
ATOM     22  CG  LYS D   4      16.257 -14.318  15.298  1.00 20.49 LIG 0.00  C 
BRANCH 22 23
ATOM     23  CD  LYS D   4      17.135 -13.105  15.033  1.00 20.73 LIG 0.03  C 
BRANCH 23 24
ATOM     24  CE  LYS D   4      16.768 -11.968  15.955  1.00 20.46 LIG 0.23  C 
BRANCH 24 25
ATOM     25  NZ  LYS D   4      17.834 -10.938  15.990  1.00 20.02 LIG-0.08  N 
ATOM     26 HZ3  LYS D   4      17.870 -10.522  15.205  1.00 20.02 LIG 0.27  HD
ATOM     27 HZ1  LYS D   4      17.654 -10.347  16.631  1.00 20.02 LIG 0.27  HD
ATOM     28 HZ2  LYS D   4      18.617 -11.327  16.156  1.00 20.02 LIG 0.27  HD
ENDBRANCH 24 25
ENDBRANCH 23 24
ENDBRANCH 22 23
ENDBRANCH 21 22
ENDBRANCH 6 21
ENDBRANCH 4 6
ENDBRANCH 1 2
BRANCH 1 29
ATOM     29  CB  THR D   3      15.236 -16.875  19.146  1.00 15.86 LIG 0.15  C 
ATOM     30  CG2 THR D   3      15.218 -17.336  20.601  1.00 16.15 LIG 0.04  C 
BRANCH 29 31
ATOM     31 OG1  THR D   3      15.517 -15.470  19.105  1.00 16.19 LIG-0.39  OA
ATOM     32 HG1  THR D   3      15.945 -15.291  18.406  1.00 16.19 LIG 0.21  HD
ENDBRANCH 29 31
ENDBRANCH 1 29
BRANCH 1 33
ATOM     33  N   THR D   3      17.661 -17.166  18.674  1.00 15.75 LIG-0.34  N 
ATOM     34  C   ARG D   2      18.745 -17.914  18.460  1.00 15.31 LIG 0.24  C 
ATOM     35 O    ARG D   2      18.701 -19.019  17.925  1.00 15.17 LIG-0.27  OA
ATOM     36 H    THR D   3      17.686 -16.374  19.011  1.00 15.75 LIG 0.16  HD
BRANCH 34 37
ATOM     37  CA  ARG D   2      20.079 -17.336  18.933  1.00 15.15 LIG 0.18  C 
BRANCH 37 38
ATOM     38  N   ARG D   2      20.156 -15.883  18.755  1.00 15.89 LIG-0.35  N 
ATOM     39  C   ALA D   1      20.162 -15.267  17.571  1.00 16.91 LIG 0.25  C 
ATOM     40 O    ALA D   1      20.230 -15.865  16.490  1.00 17.32 LIG-0.27  OA
ATOM     41 H    ARG D   2      20.197 -15.453  19.500  1.00 15.89 LIG 0.16  HD
BRANCH 39 42
ATOM     42  CA  ALA D   1      20.095 -13.739  17.610  1.00 17.08 LIG 0.27  C 
ATOM     43  CB  ALA D   1      20.236 -13.147  16.190  1.00 17.48 LIG 0.05  C 
BRANCH 42 44
ATOM     44  N   ALA D   1      21.143 -13.180  18.513  1.00 17.36 LIG-0.07  N 
ATOM     45 H3   ALA D   1      20.760 -12.673  19.136  1.00 17.36 LIG 0.28  HD
ATOM     46 H2   ALA D   1      21.712 -12.687  18.038  1.00 17.36 LIG 0.28  HD
ATOM     47 H1   ALA D   1      21.585 -13.846  18.905  1.00 17.36 LIG 0.28  HD
ENDBRANCH 42 44
ENDBRANCH 39 42
ENDBRANCH 37 38
BRANCH 37 48
ATOM     48  CB  ARG D   2      20.281 -17.658  20.421  1.00 15.08 LIG 0.04  C 
BRANCH 48 49
ATOM     49  CG  ARG D   2      20.715 -19.073  20.774  1.00 14.63 LIG 0.02  C 
BRANCH 49 50
ATOM     50  CD  ARG D   2      20.989 -19.196  22.279  1.00 13.91 LIG 0.14  C 
BRANCH 50 51
ATOM     51  NE  ARG D   2      22.325 -18.721  22.639  1.00 10.79 LIG-0.23  N 
ATOM     52 HE   ARG D   2      22.383 -18.010  23.119  1.00 10.79 LIG 0.18  HD
ATOM     53  CZ  ARG D   2      23.459 -19.317  22.271  1.00 10.30 LIG 0.67  C 
ATOM     54  NH2 ARG D   2      23.433 -20.429  21.537  1.00  9.50 LIG-0.23  N 
ATOM     55  NH1 ARG D   2      24.622 -18.797  22.637  1.00  9.44 LIG-0.23  N 
ATOM     56 2HH2 ARG D   2      24.168 -20.808  21.304  1.00  9.50 LIG 0.17  HD
ATOM     57 1HH2 ARG D   2      22.680 -20.768  21.296  1.00  9.50 LIG 0.17  HD
ATOM     58 1HH1 ARG D   2      24.643 -18.079  23.109  1.00  9.44 LIG 0.17  HD
ATOM     59 2HH1 ARG D   2      25.356 -19.179  22.402  1.00  9.44 LIG 0.17  HD
ENDBRANCH 50 51
ENDBRANCH 49 50
ENDBRANCH 48 49
ENDBRANCH 37 48
ENDBRANCH 34 37
ENDBRANCH 1 33
TORSDOF 24
ENDMDL
MODEL 9
USER: ADFR SOLUTION from run 126
USER: SCORE 18.671452 LL:  -4.191 LR: -15.240 RR:   0.000 FEB:  -8.080
USER: RMSD 3.280895
USER: SEED 125
USER: STATUS no improvement in best in 7 clusters for 5 generations
USER: GENES 26
USER: genes 0 Translation |==|  0.37091 0.42532 0.54787
USER: genes 1 Rotation |==|  0.52013 0.43233 0.53928 0.99343
USER: genes 2 Torsion [N]-CA--C-[N] |==|  0.11179
USER: genes 3 Torsion [C]-N--CA-[C] |==|  0.72323
USER: genes 4 Torsion [N]-CA--C-[N] |==|  0.37874
USER: genes 5 Torsion [C]-N--CA-[C] |==|  0.72752
USER: genes 6 Torsion [N]-CA--C-[O] |==|  0.18067
USER: genes 7 Torsion [N]-CA--CB-[CG] |==|  0.20000
USER: genes 8 Torsion [CA]-CB--CG-[CD] |==|  0.32327
USER: genes 9 Torsion [CB]-CG--CD-[OE1] |==|  0.81018
USER: genes 10 Torsion [N]-CA--CB-[CG] |==|  0.07840
USER: genes 11 Torsion [CA]-CB--CG-[CD] |==|  0.23935
USER: genes 12 Torsion [CB]-CG--CD-[CE] |==|  0.07344
USER: genes 13 Torsion [CG]-CD--CE-[NZ] |==|  0.57081
USER: genes 14 Torsion [CD]-CE--NZ-[HZ3] |==|  0.75412
USER: genes 15 Torsion [C]-CA--CB-[CG2] |==|  0.52119
USER: genes 16 Torsion [CA]-CB--OG1-[HG1] |==|  0.15246
USER: genes 17 Torsion [C]-CA--N-[C] |==|  0.78326
USER: genes 18 Torsion [N]-C--CA-[N] |==|  0.92513
USER: genes 19 Torsion [C]-CA--N-[C] |==|  0.80999
USER: genes 20 Torsion [N]-C--CA-[N] |==|  0.43055
USER: genes 21 Torsion [C]-CA--N-[H1] |==|  0.74623
USER: genes 22 Torsion [C]-CA--CB-[CG] |==|  0.18464
USER: genes 23 Torsion [CA]-CB--CG-[CD] |==|  0.44009
USER: genes 24 Torsion [CB]-CG--CD-[NE] |==|  0.78088
USER: genes 25 Torsion [CG]-CD--NE-[HE] |==|  0.30017
ROOT
ATOM      1  CA  THR D   3      16.947 -18.091  17.213  1.00 16.13 LIG 0.20  C 
ENDROOT
BRANCH 1 2
ATOM      2  C   THR D   3      17.113 -17.946  15.692  1.00 16.95 LIG 0.24  C 
ATOM      3 O    THR D   3      16.123 -17.773  14.975  1.00 16.12 LIG-0.27  OA
ATOM      4  N   LYS D   4      18.362 -18.019  15.224  1.00 18.15 LIG-0.35  N 
ATOM      5 H    LYS D   4      19.046 -18.098  15.739  1.00 18.15 LIG 0.16  HD
BRANCH 4 6
ATOM      6  CA  LYS D   4      18.713 -17.972  13.796  1.00 19.65 LIG 0.18  C 
BRANCH 6 7
ATOM      7  C   LYS D   4      18.956 -19.377  13.287  1.00 20.62 LIG 0.24  C 
ATOM      8 O    LYS D   4      19.629 -20.171  13.952  1.00 20.86 LIG-0.27  OA
ATOM      9  N   GLN D   5      18.426 -19.683  12.106  1.00 21.55 LIG-0.35  N 
ATOM     10 H    GLN D   5      17.965 -19.136  11.628  1.00 21.55 LIG 0.16  HD
BRANCH 9 11
ATOM     11  CA  GLN D   5      18.595 -21.016  11.514  1.00 22.83 LIG 0.16  C 
BRANCH 11 12
ATOM     12  C   GLN D   5      19.724 -21.055  10.486  1.00 22.91 LIG 0.22  C 
ATOM     13 O    GLN D   5      20.895 -20.867  10.819  1.00 23.29 LIG-0.29  OA
ENDBRANCH 11 12
BRANCH 11 14
ATOM     14  CB  GLN D   5      17.287 -21.511  10.889  1.00 22.86 LIG 0.04  C 
BRANCH 14 15
ATOM     15  CG  GLN D   5      16.893 -20.802   9.605  1.00 24.40 LIG 0.10  C 
BRANCH 15 16
ATOM     16  CD  GLN D   5      16.866 -21.723   8.399  1.00 24.21 LIG 0.21  C 
ATOM     17  NE2 GLN D   5      15.666 -21.969   7.870  1.00 25.13 LIG-0.37  N 
ATOM     18 22HE GLN D   5      15.597 -22.481   7.182  1.00 25.13 LIG 0.16  HD
ATOM     19 21HE GLN D   5      14.963 -21.615   8.216  1.00 25.13 LIG 0.16  HD
ATOM     20 OE1  GLN D   5      17.910 -22.204   7.943  1.00 25.71 LIG-0.27  OA
ENDBRANCH 15 16
ENDBRANCH 14 15
ENDBRANCH 11 14
ENDBRANCH 9 11
ENDBRANCH 6 7
BRANCH 6 21
ATOM     21  CB  LYS D   4      20.002 -17.177  13.572  1.00 19.73 LIG 0.04  C 
BRANCH 21 22
ATOM     22  CG  LYS D   4      20.980 -17.175  14.715  1.00 20.49 LIG 0.00  C 
BRANCH 22 23
ATOM     23  CD  LYS D   4      21.879 -18.397  14.620  1.00 20.73 LIG 0.03  C 
BRANCH 23 24
ATOM     24  CE  LYS D   4      21.996 -18.863  13.189  1.00 20.46 LIG 0.23  C 
BRANCH 24 25
ATOM     25  NZ  LYS D   4      22.318 -20.309  13.118  1.00 20.02 LIG-0.08  N 
ATOM     26 HZ3  LYS D   4      23.201 -20.417  13.133  1.00 20.02 LIG 0.27  HD
ATOM     27 HZ1  LYS D   4      21.956 -20.728  13.814  1.00 20.02 LIG 0.27  HD
ATOM     28 HZ2  LYS D   4      21.991 -20.649  12.363  1.00 20.02 LIG 0.27  HD
ENDBRANCH 24 25
ENDBRANCH 23 24
ENDBRANCH 22 23
ENDBRANCH 21 22
ENDBRANCH 6 21
ENDBRANCH 4 6
ENDBRANCH 1 2
BRANCH 1 29
ATOM     29  CB  THR D   3      15.531 -17.650  17.632  1.00 15.86 LIG 0.15  C 
ATOM     30  CG2 THR D   3      15.408 -17.608  19.153  1.00 16.15 LIG 0.04  C 
BRANCH 29 31
ATOM     31 OG1  THR D   3      15.260 -16.344  17.107  1.00 16.19 LIG-0.39  OA
ATOM     32 HG1  THR D   3      15.377 -16.347  16.275  1.00 16.19 LIG 0.21  HD
ENDBRANCH 29 31
ENDBRANCH 1 29
BRANCH 1 33
ATOM     33  N   THR D   3      17.979 -17.400  18.000  1.00 15.75 LIG-0.34  N 
ATOM     34  C   ARG D   2      19.202 -17.906  18.162  1.00 15.31 LIG 0.24  C 
ATOM     35 O    ARG D   2      19.575 -18.946  17.624  1.00 15.17 LIG-0.27  OA
ATOM     36 H    THR D   3      17.722 -16.652  18.340  1.00 15.75 LIG 0.16  HD
BRANCH 34 37
ATOM     37  CA  ARG D   2      20.148 -17.130  19.081  1.00 15.15 LIG 0.18  C 
BRANCH 37 38
ATOM     38  N   ARG D   2      19.828 -15.700  19.137  1.00 15.89 LIG-0.35  N 
ATOM     39  C   ALA D   1      19.983 -14.853  18.118  1.00 16.91 LIG 0.25  C 
ATOM     40 O    ALA D   1      20.533 -15.158  17.052  1.00 17.32 LIG-0.27  OA
ATOM     41 H    ARG D   2      19.523 -15.452  19.902  1.00 15.89 LIG 0.16  HD
BRANCH 39 42
ATOM     42  CA  ALA D   1      19.448 -13.436  18.337  1.00 17.08 LIG 0.27  C 
ATOM     43  CB  ALA D   1      17.927 -13.378  18.076  1.00 17.48 LIG 0.05  C 
BRANCH 42 44
ATOM     44  N   ALA D   1      20.162 -12.454  17.470  1.00 17.36 LIG-0.07  N 
ATOM     45 H3   ALA D   1      19.608 -11.792  17.253  1.00 17.36 LIG 0.28  HD
ATOM     46 H2   ALA D   1      20.443 -12.861  16.730  1.00 17.36 LIG 0.28  HD
ATOM     47 H1   ALA D   1      20.862 -12.122  17.909  1.00 17.36 LIG 0.28  HD
ENDBRANCH 42 44
ENDBRANCH 39 42
ENDBRANCH 37 38
BRANCH 37 48
ATOM     48  CB  ARG D   2      20.068 -17.704  20.503  1.00 15.08 LIG 0.04  C 
BRANCH 48 49
ATOM     49  CG  ARG D   2      20.582 -19.122  20.711  1.00 14.63 LIG 0.02  C 
BRANCH 49 50
ATOM     50  CD  ARG D   2      20.937 -19.358  22.185  1.00 13.91 LIG 0.14  C 
BRANCH 50 51
ATOM     51  NE  ARG D   2      22.234 -18.783  22.541  1.00 10.79 LIG-0.23  N 
ATOM     52 HE   ARG D   2      22.240 -18.080  23.037  1.00 10.79 LIG 0.18  HD
ATOM     53  CZ  ARG D   2      23.409 -19.274  22.146  1.00 10.30 LIG 0.67  C 
ATOM     54  NH2 ARG D   2      23.465 -20.368  21.386  1.00  9.50 LIG-0.23  N 
ATOM     55  NH1 ARG D   2      24.530 -18.668  22.511  1.00  9.44 LIG-0.23  N 
ATOM     56 2HH2 ARG D   2      24.226 -20.679  21.136  1.00  9.50 LIG 0.17  HD
ATOM     57 1HH2 ARG D   2      22.739 -20.763  21.147  1.00  9.50 LIG 0.17  HD
ATOM     58 1HH1 ARG D   2      24.497 -17.962  23.000  1.00  9.44 LIG 0.17  HD
ATOM     59 2HH1 ARG D   2      25.290 -18.983  22.259  1.00  9.44 LIG 0.17  HD
ENDBRANCH 50 51
ENDBRANCH 49 50
ENDBRANCH 48 49
ENDBRANCH 37 48
ENDBRANCH 34 37
ENDBRANCH 1 33
TORSDOF 24
ENDMDL
MODEL 10
USER: ADFR SOLUTION from run 135
USER: SCORE 18.788731 LL:  -4.087 LR: -15.082 RR:   0.000 FEB:  -7.922
USER: RMSD 4.090980
USER: SEED 134
USER: STATUS no improvement in best in 6 clusters for 5 generations
USER: GENES 26
USER: genes 0 Translation |==|  0.32539 0.42424 0.61046
USER: genes 1 Rotation |==|  0.48345 0.46200 0.50922 0.99819
USER: genes 2 Torsion [N]-CA--C-[N] |==|  0.92850
USER: genes 3 Torsion [C]-N--CA-[C] |==|  0.69011
USER: genes 4 Torsion [N]-CA--C-[N] |==|  0.94299
USER: genes 5 Torsion [C]-N--CA-[C] |==|  0.66525
USER: genes 6 Torsion [N]-CA--C-[O] |==|  0.18387
USER: genes 7 Torsion [N]-CA--CB-[CG] |==|  0.93585
USER: genes 8 Torsion [CA]-CB--CG-[CD] |==|  0.41813
USER: genes 9 Torsion [CB]-CG--CD-[OE1] |==|  0.82010
USER: genes 10 Torsion [N]-CA--CB-[CG] |==|  0.02350
USER: genes 11 Torsion [CA]-CB--CG-[CD] |==|  0.33016
USER: genes 12 Torsion [CB]-CG--CD-[CE] |==|  0.44054
USER: genes 13 Torsion [CG]-CD--CE-[NZ] |==|  0.47145
USER: genes 14 Torsion [CD]-CE--NZ-[HZ3] |==|  0.15437
USER: genes 15 Torsion [C]-CA--CB-[CG2] |==|  0.52586
USER: genes 16 Torsion [CA]-CB--OG1-[HG1] |==|  0.37957
USER: genes 17 Torsion [C]-CA--N-[C] |==|  0.84322
USER: genes 18 Torsion [N]-C--CA-[N] |==|  0.91660
USER: genes 19 Torsion [C]-CA--N-[C] |==|  0.85479
USER: genes 20 Torsion [N]-C--CA-[N] |==|  0.33660
USER: genes 21 Torsion [C]-CA--N-[H1] |==|  0.62972
USER: genes 22 Torsion [C]-CA--CB-[CG] |==|  0.15867
USER: genes 23 Torsion [CA]-CB--CG-[CD] |==|  0.43499
USER: genes 24 Torsion [CB]-CG--CD-[NE] |==|  0.71327
USER: genes 25 Torsion [CG]-CD--NE-[HE] |==|  0.80750
ROOT
ATOM      1  CA  THR D   3      16.093 -18.113  18.621  1.00 16.13 LIG 0.20  C 
ENDROOT
BRANCH 1 2
ATOM      2  C   THR D   3      16.090 -18.192  17.087  1.00 16.95 LIG 0.24  C 
ATOM      3 O    THR D   3      15.438 -19.070  16.513  1.00 16.12 LIG-0.27  OA
ATOM      4  N   LYS D   4      16.818 -17.273  16.446  1.00 18.15 LIG-0.35  N 
ATOM      5 H    LYS D   4      17.234 -16.643  16.856  1.00 18.15 LIG 0.16  HD
BRANCH 4 6
ATOM      6  CA  LYS D   4      16.994 -17.231  14.985  1.00 19.65 LIG 0.18  C 
BRANCH 6 7
ATOM      7  C   LYS D   4      18.429 -17.566  14.636  1.00 20.62 LIG 0.24  C 
ATOM      8 O    LYS D   4      18.715 -17.969  13.504  1.00 20.86 LIG-0.27  OA
ATOM      9  N   GLN D   5      19.328 -17.416  15.605  1.00 21.55 LIG-0.35  N 
ATOM     10 H    GLN D   5      19.141 -17.147  16.399  1.00 21.55 LIG 0.16  HD
BRANCH 9 11
ATOM     11  CA  GLN D   5      20.750 -17.708  15.380  1.00 22.83 LIG 0.16  C 
BRANCH 11 12
ATOM     12  C   GLN D   5      21.273 -18.794  16.319  1.00 22.91 LIG 0.22  C 
ATOM     13 O    GLN D   5      20.864 -19.954  16.240  1.00 23.29 LIG-0.29  OA
ENDBRANCH 11 12
BRANCH 11 14
ATOM     14  CB  GLN D   5      21.599 -16.440  15.506  1.00 22.86 LIG 0.04  C 
BRANCH 14 15
ATOM     15  CG  GLN D   5      20.839 -15.146  15.276  1.00 24.40 LIG 0.10  C 
BRANCH 15 16
ATOM     16  CD  GLN D   5      21.412 -13.972  16.048  1.00 24.21 LIG 0.21  C 
ATOM     17  NE2 GLN D   5      21.917 -12.975  15.320  1.00 25.13 LIG-0.37  N 
ATOM     18 22HE GLN D   5      22.249 -12.284  15.709  1.00 25.13 LIG 0.16  HD
ATOM     19 21HE GLN D   5      21.910 -13.023  14.461  1.00 25.13 LIG 0.16  HD
ATOM     20 OE1  GLN D   5      21.396 -13.955  17.285  1.00 25.71 LIG-0.27  OA
ENDBRANCH 15 16
ENDBRANCH 14 15
ENDBRANCH 11 14
ENDBRANCH 9 11
ENDBRANCH 6 7
BRANCH 6 21
ATOM     21  CB  LYS D   4      16.709 -15.829  14.438  1.00 19.73 LIG 0.04  C 
BRANCH 21 22
ATOM     22  CG  LYS D   4      16.511 -14.749  15.467  1.00 20.49 LIG 0.00  C 
BRANCH 22 23
ATOM     23  CD  LYS D   4      17.576 -13.678  15.292  1.00 20.73 LIG 0.03  C 
BRANCH 23 24
ATOM     24  CE  LYS D   4      17.130 -12.376  15.913  1.00 20.46 LIG 0.23  C 
BRANCH 24 25
ATOM     25  NZ  LYS D   4      18.242 -11.398  15.970  1.00 20.02 LIG-0.08  N 
ATOM     26 HZ3  LYS D   4      18.577 -11.281  15.154  1.00 20.02 LIG 0.27  HD
ATOM     27 HZ1  LYS D   4      17.939 -10.620  16.279  1.00 20.02 LIG 0.27  HD
ATOM     28 HZ2  LYS D   4      18.879 -11.704  16.511  1.00 20.02 LIG 0.27  HD
ENDBRANCH 24 25
ENDBRANCH 23 24
ENDBRANCH 22 23
ENDBRANCH 21 22
ENDBRANCH 6 21
ENDBRANCH 4 6
ENDBRANCH 1 2
BRANCH 1 29
ATOM     29  CB  THR D   3      14.806 -17.424  19.115  1.00 15.86 LIG 0.15  C 
ATOM     30  CG2 THR D   3      14.893 -17.130  20.610  1.00 16.15 LIG 0.04  C 
BRANCH 29 31
ATOM     31 OG1  THR D   3      14.620 -16.192  18.408  1.00 16.19 LIG-0.39  OA
ATOM     32 HG1  THR D   3      13.813 -16.115  18.186  1.00 16.19 LIG 0.21  HD
ENDBRANCH 29 31
ENDBRANCH 1 29
BRANCH 1 33
ATOM     33  N   THR D   3      17.293 -17.479  19.189  1.00 15.75 LIG-0.34  N 
ATOM     34  C   ARG D   2      18.521 -17.929  18.929  1.00 15.31 LIG 0.24  C 
ATOM     35 O    ARG D   2      18.746 -18.859  18.157  1.00 15.17 LIG-0.27  OA
ATOM     36 H    THR D   3      17.129 -16.803  19.696  1.00 15.75 LIG 0.16  HD
BRANCH 34 37
ATOM     37  CA  ARG D   2      19.673 -17.235  19.659  1.00 15.15 LIG 0.18  C 
BRANCH 37 38
ATOM     38  N   ARG D   2      19.383 -15.828  19.953  1.00 15.89 LIG-0.35  N 
ATOM     39  C   ALA D   1      18.976 -14.937  19.047  1.00 16.91 LIG 0.25  C 
ATOM     40 O    ALA D   1      18.919 -15.173  17.834  1.00 17.32 LIG-0.27  OA
ATOM     41 H    ARG D   2      19.502 -15.625  20.781  1.00 15.89 LIG 0.16  HD
BRANCH 39 42
ATOM     42  CA  ALA D   1      18.586 -13.561  19.591  1.00 17.08 LIG 0.27  C 
ATOM     43  CB  ALA D   1      17.085 -13.283  19.351  1.00 17.48 LIG 0.05  C 
BRANCH 42 44
ATOM     44  N   ALA D   1      19.417 -12.486  18.974  1.00 17.36 LIG-0.07  N 
ATOM     45 H3   ALA D   1      18.925 -12.027  18.392  1.00 17.36 LIG 0.28  HD
ATOM     46 H2   ALA D   1      20.111 -12.852  18.554  1.00 17.36 LIG 0.28  HD
ATOM     47 H1   ALA D   1      19.713 -11.937  19.610  1.00 17.36 LIG 0.28  HD
ENDBRANCH 42 44
ENDBRANCH 39 42
ENDBRANCH 37 38
BRANCH 37 48
ATOM     48  CB  ARG D   2      19.956 -17.963  20.981  1.00 15.08 LIG 0.04  C 
BRANCH 48 49
ATOM     49  CG  ARG D   2      20.289 -19.446  20.902  1.00 14.63 LIG 0.02  C 
BRANCH 49 50
ATOM     50  CD  ARG D   2      21.086 -19.888  22.136  1.00 13.91 LIG 0.14  C 
BRANCH 50 51
ATOM     51  NE  ARG D   2      22.510 -20.051  21.846  1.00 10.79 LIG-0.23  N 
ATOM     52 HE   ARG D   2      22.745 -20.705  21.339  1.00 10.79 LIG 0.18  HD
ATOM     53  CZ  ARG D   2      23.470 -19.252  22.314  1.00 10.30 LIG 0.67  C 
ATOM     54  NH2 ARG D   2      23.166 -18.214  23.093  1.00  9.50 LIG-0.23  N 
ATOM     55  NH1 ARG D   2      24.736 -19.495  22.004  1.00  9.44 LIG-0.23  N 
ATOM     56 2HH2 ARG D   2      23.790 -17.704  23.392  1.00  9.50 LIG 0.17  HD
ATOM     57 1HH2 ARG D   2      22.346 -18.055  23.297  1.00  9.50 LIG 0.17  HD
ATOM     58 1HH1 ARG D   2      24.935 -20.164  21.503  1.00  9.44 LIG 0.17  HD
ATOM     59 2HH1 ARG D   2      25.357 -18.982  22.304  1.00  9.44 LIG 0.17  HD
ENDBRANCH 50 51
ENDBRANCH 49 50
ENDBRANCH 48 49
ENDBRANCH 37 48
ENDBRANCH 34 37
ENDBRANCH 1 33
TORSDOF 24
ENDMDL
MODEL 11
USER: ADFR SOLUTION from run 44
USER: SCORE 18.552862 LL:  -4.415 LR: -14.836 RR:   0.000 FEB:  -7.677
USER: RMSD 4.432323
USER: SEED 43
USER: STATUS no improvement in best in 4 clusters for 5 generations
USER: GENES 26
USER: genes 0 Translation |==|  0.30355 0.44262 0.63026
USER: genes 1 Rotation |==|  0.46556 0.50139 0.49757 0.99880
USER: genes 2 Torsion [N]-CA--C-[N] |==|  0.95434
USER: genes 3 Torsion [C]-N--CA-[C] |==|  0.61196
USER: genes 4 Torsion [N]-CA--C-[N] |==|  0.88261
USER: genes 5 Torsion [C]-N--CA-[C] |==|  0.77063
USER: genes 6 Torsion [N]-CA--C-[O] |==|  0.91011
USER: genes 7 Torsion [N]-CA--CB-[CG] |==|  0.27617
USER: genes 8 Torsion [CA]-CB--CG-[CD] |==|  0.55167
USER: genes 9 Torsion [CB]-CG--CD-[OE1] |==|  0.91459
USER: genes 10 Torsion [N]-CA--CB-[CG] |==|  0.93671
USER: genes 11 Torsion [CA]-CB--CG-[CD] |==|  0.77707
USER: genes 12 Torsion [CB]-CG--CD-[CE] |==|  0.53368
USER: genes 13 Torsion [CG]-CD--CE-[NZ] |==|  0.57984
USER: genes 14 Torsion [CD]-CE--NZ-[HZ3] |==|  0.03967
USER: genes 15 Torsion [C]-CA--CB-[CG2] |==|  0.55996
USER: genes 16 Torsion [CA]-CB--OG1-[HG1] |==|  0.75780
USER: genes 17 Torsion [C]-CA--N-[C] |==|  0.82105
USER: genes 18 Torsion [N]-C--CA-[N] |==|  0.92974
USER: genes 19 Torsion [C]-CA--N-[C] |==|  0.84904
USER: genes 20 Torsion [N]-C--CA-[N] |==|  0.43085
USER: genes 21 Torsion [C]-CA--N-[H1] |==|  0.38949
USER: genes 22 Torsion [C]-CA--CB-[CG] |==|  0.20361
USER: genes 23 Torsion [CA]-CB--CG-[CD] |==|  0.47821
USER: genes 24 Torsion [CB]-CG--CD-[NE] |==|  0.77617
USER: genes 25 Torsion [CG]-CD--NE-[HE] |==|  0.25429
ROOT
ATOM      1  CA  THR D   3      15.684 -17.741  19.067  1.00 16.13 LIG 0.20  C 
ENDROOT
BRANCH 1 2
ATOM      2  C   THR D   3      15.437 -17.920  17.561  1.00 16.95 LIG 0.24  C 
ATOM      3 O    THR D   3      14.539 -18.669  17.165  1.00 16.12 LIG-0.27  OA
ATOM      4  N   LYS D   4      16.240 -17.231  16.744  1.00 18.15 LIG-0.35  N 
ATOM      5 H    LYS D   4      16.835 -16.682  17.033  1.00 18.15 LIG 0.16  HD
BRANCH 4 6
ATOM      6  CA  LYS D   4      16.203 -17.327  15.276  1.00 19.65 LIG 0.18  C 
BRANCH 6 7
ATOM      7  C   LYS D   4      17.616 -17.319  14.731  1.00 20.62 LIG 0.24  C 
ATOM      8 O    LYS D   4      17.937 -18.097  13.827  1.00 20.86 LIG-0.27  OA
ATOM      9  N   GLN D   5      18.463 -16.456  15.284  1.00 21.55 LIG-0.35  N 
ATOM     10 H    GLN D   5      18.255 -15.917  15.920  1.00 21.55 LIG 0.16  HD
BRANCH 9 11
ATOM     11  CA  GLN D   5      19.858 -16.357  14.834  1.00 22.83 LIG 0.16  C 
BRANCH 11 12
ATOM     12  C   GLN D   5      20.749 -17.419  15.476  1.00 22.91 LIG 0.22  C 
ATOM     13 O    GLN D   5      20.532 -17.828  16.618  1.00 23.29 LIG-0.29  OA
ENDBRANCH 11 12
BRANCH 11 14
ATOM     14  CB  GLN D   5      20.422 -14.958  15.093  1.00 22.86 LIG 0.04  C 
BRANCH 14 15
ATOM     15  CG  GLN D   5      21.279 -14.844  16.342  1.00 24.40 LIG 0.10  C 
BRANCH 15 16
ATOM     16  CD  GLN D   5      21.449 -13.414  16.820  1.00 24.21 LIG 0.21  C 
ATOM     17  NE2 GLN D   5      21.604 -13.244  18.134  1.00 25.13 LIG-0.37  N 
ATOM     18 22HE GLN D   5      21.709 -12.454  18.456  1.00 25.13 LIG 0.16  HD
ATOM     19 21HE GLN D   5      21.599 -13.926  18.659  1.00 25.13 LIG 0.16  HD
ATOM     20 OE1  GLN D   5      21.448 -12.471  16.020  1.00 25.71 LIG-0.27  OA
ENDBRANCH 15 16
ENDBRANCH 14 15
ENDBRANCH 11 14
ENDBRANCH 9 11
ENDBRANCH 6 7
BRANCH 6 21
ATOM     21  CB  LYS D   4      15.474 -16.127  14.665  1.00 19.73 LIG 0.04  C 
BRANCH 21 22
ATOM     22  CG  LYS D   4      14.512 -15.410  15.572  1.00 20.49 LIG 0.00  C 
BRANCH 22 23
ATOM     23  CD  LYS D   4      13.198 -16.174  15.629  1.00 20.73 LIG 0.03  C 
BRANCH 23 24
ATOM     24  CE  LYS D   4      12.124 -15.341  16.283  1.00 20.46 LIG 0.23  C 
BRANCH 24 25
ATOM     25  NZ  LYS D   4      11.117 -16.194  16.959  1.00 20.02 LIG-0.08  N 
ATOM     26 HZ3  LYS D   4      11.433 -17.022  17.035  1.00 20.02 LIG 0.27  HD
ATOM     27 HZ1  LYS D   4      10.946 -15.867  17.769  1.00 20.02 LIG 0.27  HD
ATOM     28 HZ2  LYS D   4      10.368 -16.206  16.479  1.00 20.02 LIG 0.27  HD
ENDBRANCH 24 25
ENDBRANCH 23 24
ENDBRANCH 22 23
ENDBRANCH 21 22
ENDBRANCH 6 21
ENDBRANCH 4 6
ENDBRANCH 1 2
BRANCH 1 29
ATOM     29  CB  THR D   3      14.527 -16.942  19.697  1.00 15.86 LIG 0.15  C 
ATOM     30  CG2 THR D   3      14.968 -16.300  21.009  1.00 16.15 LIG 0.04  C 
BRANCH 29 31
ATOM     31 OG1  THR D   3      14.105 -15.912  18.793  1.00 16.19 LIG-0.39  OA
ATOM     32 HG1  THR D   3      14.571 -15.224  18.916  1.00 16.19 LIG 0.21  HD
ENDBRANCH 29 31
ENDBRANCH 1 29
BRANCH 1 33
ATOM     33  N   THR D   3      16.988 -17.147  19.397  1.00 15.75 LIG-0.34  N 
ATOM     34  C   ARG D   2      18.137 -17.766  19.125  1.00 15.31 LIG 0.24  C 
ATOM     35 O    ARG D   2      18.196 -18.841  18.530  1.00 15.17 LIG-0.27  OA
ATOM     36 H    THR D   3      16.939 -16.376  19.776  1.00 15.75 LIG 0.16  HD
BRANCH 34 37
ATOM     37  CA  ARG D   2      19.416 -17.080  19.606  1.00 15.15 LIG 0.18  C 
BRANCH 37 38
ATOM     38  N   ARG D   2      19.253 -15.630  19.753  1.00 15.89 LIG-0.35  N 
ATOM     39  C   ALA D   1      18.816 -14.819  18.788  1.00 16.91 LIG 0.25  C 
ATOM     40 O    ALA D   1      18.619 -15.186  17.622  1.00 17.32 LIG-0.27  OA
ATOM     41 H    ARG D   2      19.468 -15.344  20.535  1.00 15.89 LIG 0.16  HD
BRANCH 39 42
ATOM     42  CA  ALA D   1      18.574 -13.364  19.194  1.00 17.08 LIG 0.27  C 
ATOM     43  CB  ALA D   1      17.195 -13.205  19.873  1.00 17.48 LIG 0.05  C 
BRANCH 42 44
ATOM     44  N   ALA D   1      18.680 -12.454  18.016  1.00 17.36 LIG-0.07  N 
ATOM     45 H3   ALA D   1      18.572 -12.924  17.267  1.00 17.36 LIG 0.28  HD
ATOM     46 H2   ALA D   1      19.482 -12.067  18.010  1.00 17.36 LIG 0.28  HD
ATOM     47 H1   ALA D   1      18.050 -11.827  18.066  1.00 17.36 LIG 0.28  HD
ENDBRANCH 42 44
ENDBRANCH 39 42
ENDBRANCH 37 38
BRANCH 37 48
ATOM     48  CB  ARG D   2      19.835 -17.664  20.963  1.00 15.08 LIG 0.04  C 
BRANCH 48 49
ATOM     49  CG  ARG D   2      20.428 -19.066  20.963  1.00 14.63 LIG 0.02  C 
BRANCH 49 50
ATOM     50  CD  ARG D   2      20.969 -19.424  22.354  1.00 13.91 LIG 0.14  C 
BRANCH 50 51
ATOM     51  NE  ARG D   2      22.292 -18.851  22.597  1.00 10.79 LIG-0.23  N 
ATOM     52 HE   ARG D   2      22.333 -18.076  22.969  1.00 10.79 LIG 0.18  HD
ATOM     53  CZ  ARG D   2      23.441 -19.448  22.279  1.00 10.30 LIG 0.67  C 
ATOM     54  NH2 ARG D   2      23.443 -20.655  21.712  1.00  9.50 LIG-0.23  N 
ATOM     55  NH1 ARG D   2      24.590 -18.836  22.527  1.00  9.44 LIG-0.23  N 
ATOM     56 2HH2 ARG D   2      24.187 -21.033  21.510  1.00  9.50 LIG 0.17  HD
ATOM     57 1HH2 ARG D   2      22.699 -21.054  21.548  1.00  9.50 LIG 0.17  HD
ATOM     58 1HH1 ARG D   2      24.593 -18.057  22.892  1.00  9.44 LIG 0.17  HD
ATOM     59 2HH1 ARG D   2      25.333 -19.219  22.324  1.00  9.44 LIG 0.17  HD
ENDBRANCH 50 51
ENDBRANCH 49 50
ENDBRANCH 48 49
ENDBRANCH 37 48
ENDBRANCH 34 37
ENDBRANCH 1 33
TORSDOF 24
ENDMDL
