MODEL 1
USER: ADFR SOLUTION from run 47
USER: SCORE 16.715751 LL:  -2.791 LR: -16.712 RR:   0.000 FEB: -11.343
USER: RMSD 4.273981
USER: SEED 46
USER: STATUS no improvement in best in 2 clusters for 5 generations
USER: GENES 20
USER: genes 0 Translation |==|  0.45741 0.47762 0.39597
USER: genes 1 Rotation |==|  0.30466 0.61760 0.64827 0.91956
USER: genes 2 Torsion [CB]-CA--N-[C] |==|  0.11111
USER: genes 3 Torsion [N]-C--CA-[N] |==|  0.11942
USER: genes 4 Torsion [C]-CA--CB-[CG] |==|  0.30033
USER: genes 5 Torsion [CA]-CB--CG-[OD1] |==|  0.73232
USER: genes 6 Torsion [C]-CA--N-[C] |==|  0.61904
USER: genes 7 Torsion [N]-C--CA-[N] |==|  0.13824
USER: genes 8 Torsion [C]-CA--CB-[CG] |==|  0.35122
USER: genes 9 Torsion [CA]-CB--CG-[OD1] |==|  0.59491
USER: genes 10 Torsion [N]-CA--CB-[CG] |==|  0.66691
USER: genes 11 Torsion [CA]-CB--CG-[CD2] |==|  0.99015
USER: genes 12 Torsion [N]-CA--C-[N] |==|  0.73427
USER: genes 13 Torsion [C]-N--CA-[CB] |==|  0.41352
USER: genes 14 Torsion [N]-CA--CB-[CG] |==|  0.73403
USER: genes 15 Torsion [CA]-CB--CG-[CD2] |==|  0.84172
USER: genes 16 Torsion [CE2]-CZ--OH-[HH] |==|  0.90687
USER: genes 17 Torsion [N]-CA--C-[N] |==|  0.90569
USER: genes 18 Torsion [C]-N--CA-[C] |==|  0.62378
USER: genes 19 Torsion [N]-CA--C-[O] |==|  0.31607
ROOT
ATOM      1  CA  LEU B 804      49.033  53.022  19.941  1.00 31.72 LIG 0.18  C 
ENDROOT
BRANCH 1 2
ATOM      2  N   LEU B 804      50.310  53.743  20.009  1.00 32.47 LIG-0.35  N 
ATOM      3 H    LEU B 804      50.238  54.540  20.322  1.00 32.47 LIG 0.16  HD
ATOM      4  C   ASP B 803      51.472  53.218  19.624  1.00 36.20 LIG 0.24  C 
ATOM      5 O    ASP B 803      51.599  52.096  19.101  1.00 34.88 LIG-0.27  OA
BRANCH 4 6
ATOM      6  CA  ASP B 803      52.693  54.114  19.882  1.00 38.58 LIG 0.19  C 
BRANCH 6 7
ATOM      7  CB  ASP B 803      53.985  53.345  19.650  1.00 39.00 LIG 0.15  C 
BRANCH 7 8
ATOM      8  CG  ASP B 803      54.693  53.803  18.371  1.00 41.67 LIG 0.17  C 
ATOM      9 OD1  ASP B 803      54.499  53.133  17.313  1.00 44.54 LIG-0.65  OA
ATOM     10 OD2  ASP B 803      55.469  54.792  18.437  1.00 44.60 LIG-0.65  OA
ENDBRANCH 7 8
ENDBRANCH 6 7
BRANCH 6 11
ATOM     11  N   ASP B 803      52.610  54.725  21.200  1.00 40.89 LIG-0.34  N 
ATOM     12  C   ASP B 802      52.929  56.013  21.340  1.00 43.36 LIG 0.26  C 
ATOM     13 O    ASP B 802      53.280  56.716  20.380  1.00 44.71 LIG-0.27  OA
ATOM     14 H    ASP B 803      52.352  54.206  21.835  1.00 40.89 LIG 0.16  HD
BRANCH 12 15
ATOM     15  CA  ASP B 802      52.883  56.606  22.750  1.00 44.06 LIG 0.41  C 
ATOM     16  N   ASP B 802      53.633  55.725  23.680  1.00 45.51 LIG 0.61  N 
BRANCH 15 17
ATOM     17  CB  ASP B 802      53.492  58.011  22.769  1.00 45.52 LIG 0.16  C 
BRANCH 17 18
ATOM     18  CG  ASP B 802      52.557  59.053  23.376  1.00 48.04 LIG 0.17  C 
ATOM     19 OD1  ASP B 802      52.552  60.236  22.937  1.00 55.65 LIG-0.65  OA
ATOM     20 OD2  ASP B 802      51.814  58.675  24.304  1.00 54.24 LIG-0.65  OA
ENDBRANCH 17 18
ENDBRANCH 15 17
ENDBRANCH 12 15
ENDBRANCH 6 11
ENDBRANCH 4 6
ENDBRANCH 1 2
BRANCH 1 21
ATOM     21  CB  LEU B 804      49.265  51.565  20.361  1.00 30.53 LIG 0.04  C 
BRANCH 21 22
ATOM     22  CG  LEU B 804      48.915  50.520  19.287  1.00 30.66 LIG-0.02  C 
ATOM     23  CD1 LEU B 804      47.957  49.484  19.853  1.00 31.81 LIG 0.01  C 
ATOM     24  CD2 LEU B 804      48.327  51.179  18.058  1.00 30.59 LIG 0.01  C 
ENDBRANCH 21 22
ENDBRANCH 1 21
BRANCH 1 25
ATOM     25  C   LEU B 804      47.921  53.624  20.813  1.00 30.12 LIG 0.24  C 
ATOM     26 O    LEU B 804      47.265  54.556  20.402  1.00 28.94 LIG-0.27  OA
ATOM     27  N   TYR B 805      47.740  53.100  22.023  1.00 29.37 LIG-0.35  N 
ATOM     28 H    TYR B 805      48.302  52.572  22.404  1.00 29.37 LIG 0.16  HD
BRANCH 27 29
ATOM     29  CA  TYR B 805      46.544  53.385  22.821  1.00 29.00 LIG 0.18  C 
BRANCH 29 30
ATOM     30  CB  TYR B 805      46.211  52.169  23.702  1.00 27.91 LIG 0.07  C 
BRANCH 30 31
ATOM     31  CG  TYR B 805      45.173  51.337  22.983  1.00 26.10 LIG-0.06  A 
ATOM     32  CD2 TYR B 805      43.973  51.894  22.604  1.00 24.65 LIG 0.01  A 
ATOM     33  CE2 TYR B 805      43.052  51.165  21.860  1.00 24.72 LIG 0.04  A 
ATOM     34  CZ  TYR B 805      43.362  49.874  21.461  1.00 22.85 LIG 0.07  A 
ATOM     35  CE1 TYR B 805      44.540  49.304  21.842  1.00 24.79 LIG 0.04  A 
ATOM     36  CD1 TYR B 805      45.451  50.046  22.570  1.00 25.09 LIG 0.01  A 
BRANCH 34 37
ATOM     37 OH   TYR B 805      42.426  49.126  20.784  1.00 25.16 LIG-0.36  OA
ATOM     38 HH   TYR B 805      41.657  49.323  21.060  1.00 25.16 LIG 0.22  HD
ENDBRANCH 34 37
ENDBRANCH 30 31
ENDBRANCH 29 30
BRANCH 29 39
ATOM     39  C   TYR B 805      46.620  54.663  23.658  1.00 29.85 LIG 0.24  C 
ATOM     40 O    TYR B 805      45.588  55.363  23.857  1.00 30.08 LIG-0.27  OA
ATOM     41  N   GLY B 806      47.822  54.952  24.129  1.00 28.51 LIG-0.35  N 
ATOM     42 H    GLY B 806      48.544  54.561  23.872  1.00 28.51 LIG 0.16  HD
BRANCH 41 43
ATOM     43  CA  GLY B 806      48.021  55.968  25.133  1.00 29.14 LIG 0.23  C 
BRANCH 43 44
ATOM     44  C   GLY B 806      49.183  56.861  24.823  1.00 28.84 LIG 0.19  C 
ATOM     45 O    GLY B 806      49.046  58.065  24.558  1.00 28.96 LIG-0.65  OA
ATOM     46 OXT  GLY B 806      50.287  56.342  24.813  1.00 29.15 LIG-0.65  OA
ENDBRANCH 43 44
ENDBRANCH 41 43
ENDBRANCH 29 39
ENDBRANCH 27 29
ENDBRANCH 1 25
TORSDOF 18
ENDMDL
MODEL 2
USER: ADFR SOLUTION from run 106
USER: SCORE 15.563886 LL:  -2.674 LR: -15.026 RR:   0.000 FEB:  -9.656
USER: RMSD 2.126697
USER: SEED 105
USER: STATUS no improvement in best in 5 clusters for 5 generations
USER: GENES 20
USER: genes 0 Translation |==|  0.48052 0.50426 0.41748
USER: genes 1 Rotation |==|  0.40653 0.51709 0.60778 0.97891
USER: genes 2 Torsion [CB]-CA--N-[C] |==|  0.20980
USER: genes 3 Torsion [N]-C--CA-[N] |==|  0.47305
USER: genes 4 Torsion [C]-CA--CB-[CG] |==|  0.82502
USER: genes 5 Torsion [CA]-CB--CG-[OD1] |==|  0.01691
USER: genes 6 Torsion [C]-CA--N-[C] |==|  0.76163
USER: genes 7 Torsion [N]-C--CA-[N] |==|  0.38136
USER: genes 8 Torsion [C]-CA--CB-[CG] |==|  0.17533
USER: genes 9 Torsion [CA]-CB--CG-[OD1] |==|  0.10390
USER: genes 10 Torsion [N]-CA--CB-[CG] |==|  0.64990
USER: genes 11 Torsion [CA]-CB--CG-[CD2] |==|  0.99496
USER: genes 12 Torsion [N]-CA--C-[N] |==|  0.88767
USER: genes 13 Torsion [C]-N--CA-[CB] |==|  0.35556
USER: genes 14 Torsion [N]-CA--CB-[CG] |==|  0.69754
USER: genes 15 Torsion [CA]-CB--CG-[CD2] |==|  0.85165
USER: genes 16 Torsion [CE2]-CZ--OH-[HH] |==|  0.84120
USER: genes 17 Torsion [N]-CA--C-[N] |==|  0.91500
USER: genes 18 Torsion [C]-N--CA-[C] |==|  0.61466
USER: genes 19 Torsion [N]-CA--C-[O] |==|  0.06693
ROOT
ATOM      1  CA  LEU B 804      49.518  53.502  20.328  1.00 31.72 LIG 0.18  C 
ENDROOT
BRANCH 1 2
ATOM      2  N   LEU B 804      50.723  53.801  21.112  1.00 32.47 LIG-0.35  N 
ATOM      3 H    LEU B 804      50.567  53.914  21.950  1.00 32.47 LIG 0.16  HD
ATOM      4  C   ASP B 803      51.941  53.889  20.583  1.00 36.20 LIG 0.24  C 
ATOM      5 O    ASP B 803      52.189  53.800  19.367  1.00 34.88 LIG-0.27  OA
BRANCH 4 6
ATOM      6  CA  ASP B 803      53.066  54.107  21.607  1.00 38.58 LIG 0.19  C 
BRANCH 6 7
ATOM      7  CB  ASP B 803      52.887  55.433  22.332  1.00 39.00 LIG 0.15  C 
BRANCH 7 8
ATOM      8  CG  ASP B 803      52.981  56.621  21.369  1.00 41.67 LIG 0.17  C 
ATOM      9 OD1  ASP B 803      53.068  56.375  20.130  1.00 44.54 LIG-0.65  OA
ATOM     10 OD2  ASP B 803      53.013  57.782  21.854  1.00 44.60 LIG-0.65  OA
ENDBRANCH 7 8
ENDBRANCH 6 7
BRANCH 6 11
ATOM     11  N   ASP B 803      54.368  53.963  20.975  1.00 40.89 LIG-0.34  N 
ATOM     12  C   ASP B 802      54.907  52.748  20.865  1.00 43.36 LIG 0.26  C 
ATOM     13 O    ASP B 802      54.327  51.728  21.270  1.00 44.71 LIG-0.27  OA
ATOM     14 H    ASP B 803      54.730  54.693  20.697  1.00 40.89 LIG 0.16  HD
BRANCH 12 15
ATOM     15  CA  ASP B 802      56.302  52.643  20.244  1.00 44.06 LIG 0.41  C 
ATOM     16  N   ASP B 802      57.120  51.684  21.027  1.00 45.51 LIG 0.61  N 
BRANCH 15 17
ATOM     17  CB  ASP B 802      56.214  52.174  18.788  1.00 45.52 LIG 0.16  C 
BRANCH 17 18
ATOM     18  CG  ASP B 802      55.468  53.159  17.893  1.00 48.04 LIG 0.17  C 
ATOM     19 OD1  ASP B 802      55.600  54.402  18.064  1.00 55.65 LIG-0.65  OA
ATOM     20 OD2  ASP B 802      54.741  52.674  17.001  1.00 54.24 LIG-0.65  OA
ENDBRANCH 17 18
ENDBRANCH 15 17
ENDBRANCH 12 15
ENDBRANCH 6 11
ENDBRANCH 4 6
ENDBRANCH 1 2
BRANCH 1 21
ATOM     21  CB  LEU B 804      49.511  52.006  19.985  1.00 30.53 LIG 0.04  C 
BRANCH 21 22
ATOM     22  CG  LEU B 804      49.364  51.688  18.487  1.00 30.66 LIG-0.02  C 
ATOM     23  CD1 LEU B 804      48.182  50.759  18.260  1.00 31.81 LIG 0.01  C 
ATOM     24  CD2 LEU B 804      49.213  52.956  17.673  1.00 30.59 LIG 0.01  C 
ENDBRANCH 21 22
ENDBRANCH 1 21
BRANCH 1 25
ATOM     25  C   LEU B 804      48.201  53.860  21.032  1.00 30.12 LIG 0.24  C 
ATOM     26 O    LEU B 804      47.303  54.384  20.409  1.00 28.94 LIG-0.27  OA
ATOM     27  N   TYR B 805      48.110  53.598  22.333  1.00 29.37 LIG-0.35  N 
ATOM     28 H    TYR B 805      48.784  53.401  22.829  1.00 29.37 LIG 0.16  HD
BRANCH 27 29
ATOM     29  CA  TYR B 805      46.827  53.622  23.042  1.00 29.00 LIG 0.18  C 
BRANCH 29 30
ATOM     30  CB  TYR B 805      46.642  52.306  23.816  1.00 27.91 LIG 0.07  C 
BRANCH 30 31
ATOM     31  CG  TYR B 805      45.563  51.501  23.125  1.00 26.10 LIG-0.06  A 
ATOM     32  CD2 TYR B 805      44.330  52.059  22.873  1.00 24.65 LIG 0.01  A 
ATOM     33  CE2 TYR B 805      43.366  51.362  22.155  1.00 24.72 LIG 0.04  A 
ATOM     34  CZ  TYR B 805      43.662  50.104  21.653  1.00 22.85 LIG 0.07  A 
ATOM     35  CE1 TYR B 805      44.873  49.532  21.908  1.00 24.79 LIG 0.04  A 
ATOM     36  CD1 TYR B 805      45.826  50.244  22.612  1.00 25.09 LIG 0.01  A 
BRANCH 34 37
ATOM     37 OH   TYR B 805      42.687  49.382  21.002  1.00 25.16 LIG-0.36  OA
ATOM     38 HH   TYR B 805      42.026  49.282  21.510  1.00 25.16 LIG 0.22  HD
ENDBRANCH 34 37
ENDBRANCH 30 31
ENDBRANCH 29 30
BRANCH 29 39
ATOM     39  C   TYR B 805      46.622  54.829  23.957  1.00 29.85 LIG 0.24  C 
ATOM     40 O    TYR B 805      45.466  55.294  24.160  1.00 30.08 LIG-0.27  OA
ATOM     41  N   GLY B 806      47.729  55.320  24.492  1.00 28.51 LIG-0.35  N 
ATOM     42 H    GLY B 806      48.521  55.099  24.240  1.00 28.51 LIG 0.16  HD
BRANCH 41 43
ATOM     43  CA  GLY B 806      47.693  56.285  25.563  1.00 29.14 LIG 0.23  C 
BRANCH 43 44
ATOM     44  C   GLY B 806      48.712  57.368  25.393  1.00 28.84 LIG 0.19  C 
ATOM     45 O    GLY B 806      49.178  57.678  24.286  1.00 28.96 LIG-0.65  OA
ATOM     46 OXT  GLY B 806      49.096  57.926  26.409  1.00 29.15 LIG-0.65  OA
ENDBRANCH 43 44
ENDBRANCH 41 43
ENDBRANCH 29 39
ENDBRANCH 27 29
ENDBRANCH 1 25
TORSDOF 18
ENDMDL
