MODEL 1
USER: ADFR SOLUTION from run 116
USER: SCORE 16.593258 LL:  -2.805 LR: -13.917 RR:   0.000 FEB: -10.934
USER: RMSD 0.708763
USER: SEED 115
USER: STATUS no improvement in best in 5 clusters for 5 generations
USER: GENES 12
USER: genes 0 Translation |==|  0.54709 0.49365 0.39414
USER: genes 1 Rotation |==|  0.50038 0.51752 0.48454 0.99945
USER: genes 2 Torsion [N]-CA--C-[O] |==|  0.95304
USER: genes 3 Torsion [C]-N--CA-[C] |==|  0.58875
USER: genes 4 Torsion [N]-CA--C-[O] |==|  0.40856
USER: genes 5 Torsion [N]-CA--CB-[CG] |==|  0.20001
USER: genes 6 Torsion [CA]-CB--CG-[CD2] |==|  0.27139
USER: genes 7 Torsion [N]-C--CA-[N] |==|  0.41748
USER: genes 8 Torsion [C]-CA--CB-[CG1] |==|  0.60375
USER: genes 9 Torsion [C]-CA--N-[C] |==|  0.66855
USER: genes 10 Torsion [N]-C--CA-[N] |==|  0.46897
USER: genes 11 Torsion [C]-CA--N-[H3] |==|  0.04304
ROOT
ATOM      1  C   VAL C   2      80.994  62.298  14.628  1.00 19.81 LIG 0.24  C 
ATOM      2 O    VAL C   2      80.697  62.007  15.784  1.00 19.32 LIG-0.27  OA
ATOM      3  N   PRO C   3      80.403  63.300  13.979  1.00 21.82 LIG-0.34  N 
ATOM      4  CA  PRO C   3      79.354  64.102  14.626  1.00 23.90 LIG 0.18  C 
ATOM      5  CB  PRO C   3      79.095  65.236  13.617  1.00 24.45 LIG 0.04  C 
ATOM      6  CG  PRO C   3      80.229  65.190  12.656  1.00 24.10 LIG 0.02  C 
ATOM      7  CD  PRO C   3      80.680  63.765  12.608  1.00 23.24 LIG 0.13  C 
ENDROOT
BRANCH 4 8
ATOM      8  C   PRO C   3      78.056  63.327  14.901  1.00 26.32 LIG 0.24  C 
ATOM      9  N   TRP C   4      77.206  63.862  15.779  1.00 29.14 LIG-0.34  N 
ATOM     10 H    TRP C   4      77.384  64.555  16.256  1.00 29.14 LIG 0.16  HD
ATOM     11 O    PRO C   3      77.847  62.263  14.321  1.00 26.12 LIG-0.27  OA
BRANCH 9 12
ATOM     12  CA  TRP C   4      75.865  63.296  16.007  1.00 31.86 LIG 0.19  C 
BRANCH 12 13
ATOM     13  C   TRP C   4      74.813  64.346  16.376  1.00 33.47 LIG 0.20  C 
ATOM     14 O    TRP C   4      73.627  64.250  16.048  1.00 35.20 LIG-0.65  OA
ATOM     15 OXT  TRP C   4      75.080  65.345  17.036  1.00 33.15 LIG-0.65  OA
ENDBRANCH 12 13
BRANCH 12 16
ATOM     16  CB  TRP C   4      75.919  62.226  17.096  1.00 32.27 LIG 0.08  C 
BRANCH 16 17
ATOM     17  CG  TRP C   4      76.125  62.777  18.458  1.00 32.30 LIG-0.03  A 
ATOM     18  CD2 TRP C   4      75.116  63.035  19.437  1.00 33.19 LIG-0.00  A 
ATOM     19  CE3 TRP C   4      73.726  62.877  19.468  1.00 34.05 LIG 0.01  A 
ATOM     20  CE2 TRP C   4      75.763  63.555  20.579  1.00 33.34 LIG 0.04  A 
ATOM     21  CZ3 TRP C   4      73.040  63.236  20.616  1.00 34.92 LIG 0.00  A 
ATOM     22  CH2 TRP C   4      73.717  63.746  21.731  1.00 35.06 LIG 0.00  A 
ATOM     23  CZ2 TRP C   4      75.073  63.916  21.730  1.00 34.21 LIG 0.03  A 
ATOM     24  NE1 TRP C   4      77.103  63.605  20.302  1.00 32.63 LIG-0.36  N 
ATOM     25  CD1 TRP C   4      77.309  63.138  19.026  1.00 32.29 LIG 0.10  A 
ATOM     26 HE1  TRP C   4      77.715  63.883  20.839  1.00 32.63 LIG 0.17  HD
ENDBRANCH 16 17
ENDBRANCH 12 16
ENDBRANCH 9 12
ENDBRANCH 4 8
BRANCH 1 27
ATOM     27  CA  VAL C   2      82.058  61.490  13.886  1.00 19.23 LIG 0.18  C 
BRANCH 27 28
ATOM     28  CB  VAL C   2      81.349  60.362  13.094  1.00 20.17 LIG 0.01  C 
ATOM     29  CG1 VAL C   2      82.178  59.082  13.110  1.00 20.92 LIG 0.01  C 
ATOM     30  CG2 VAL C   2      79.936  60.108  13.630  1.00 19.95 LIG 0.01  C 
ENDBRANCH 27 28
BRANCH 27 31
ATOM     31  N   VAL C   2      83.056  60.960  14.815  1.00 18.74 LIG-0.35  N 
ATOM     32  C   ALA C   1      84.345  61.278  14.735  1.00 18.58 LIG 0.25  C 
ATOM     33 O    ALA C   1      84.801  62.013  13.864  1.00 20.40 LIG-0.27  OA
ATOM     34 H    VAL C   2      82.733  60.430  15.410  1.00 18.74 LIG 0.16  HD
BRANCH 32 35
ATOM     35  CA  ALA C   1      85.258  60.665  15.784  1.00 18.17 LIG 0.27  C 
ATOM     36  CB  ALA C   1      84.967  61.262  17.164  1.00 17.10 LIG 0.05  C 
BRANCH 35 37
ATOM     37  N   ALA C   1      86.684  60.888  15.409  1.00 16.54 LIG-0.07  N 
ATOM     38 H2   ALA C   1      87.031  60.131  15.096  1.00 16.54 LIG 0.28  HD
ATOM     39 H3   ALA C   1      86.731  61.516  14.781  1.00 16.54 LIG 0.28  HD
ATOM     40 H1   ALA C   1      87.142  61.151  16.125  1.00 16.54 LIG 0.28  HD
ENDBRANCH 35 37
ENDBRANCH 32 35
ENDBRANCH 27 31
ENDBRANCH 1 27
TORSDOF 10
ENDMDL
MODEL 2
USER: ADFR SOLUTION from run 120
USER: SCORE 16.830154 LL:  -3.205 LR: -13.767 RR:   0.000 FEB: -10.784
USER: RMSD 2.153541
USER: SEED 119
USER: STATUS no improvement in best in 3 clusters for 5 generations
USER: GENES 12
USER: genes 0 Translation |==|  0.49100 0.53789 0.39490
USER: genes 1 Rotation |==|  0.45398 0.49367 0.38000 0.98316
USER: genes 2 Torsion [N]-CA--C-[O] |==|  0.90822
USER: genes 3 Torsion [C]-N--CA-[C] |==|  0.51298
USER: genes 4 Torsion [N]-CA--C-[O] |==|  0.60127
USER: genes 5 Torsion [N]-CA--CB-[CG] |==|  0.11086
USER: genes 6 Torsion [CA]-CB--CG-[CD2] |==|  0.22341
USER: genes 7 Torsion [N]-C--CA-[N] |==|  0.31776
USER: genes 8 Torsion [C]-CA--CB-[CG1] |==|  0.18050
USER: genes 9 Torsion [C]-CA--N-[C] |==|  0.77397
USER: genes 10 Torsion [N]-C--CA-[N] |==|  0.50468
USER: genes 11 Torsion [C]-CA--N-[H3] |==|  0.77148
ROOT
ATOM      1  C   VAL C   2      79.732  62.928  14.642  1.00 19.81 LIG 0.24  C 
ATOM      2 O    VAL C   2      79.293  63.033  15.784  1.00 19.32 LIG-0.27  OA
ATOM      3  N   PRO C   3      79.633  63.917  13.754  1.00 21.82 LIG-0.34  N 
ATOM      4  CA  PRO C   3      78.979  65.185  14.108  1.00 23.90 LIG 0.18  C 
ATOM      5  CB  PRO C   3      79.252  66.083  12.888  1.00 24.45 LIG 0.04  C 
ATOM      6  CG  PRO C   3      80.307  65.390  12.102  1.00 24.10 LIG 0.02  C 
ATOM      7  CD  PRO C   3      80.135  63.928  12.368  1.00 23.24 LIG 0.13  C 
ENDROOT
BRANCH 4 8
ATOM      8  C   PRO C   3      77.468  65.062  14.352  1.00 26.32 LIG 0.24  C 
ATOM      9  N   TRP C   4      76.934  65.869  15.270  1.00 29.14 LIG-0.34  N 
ATOM     10 H    TRP C   4      77.396  66.379  15.786  1.00 29.14 LIG 0.16  HD
ATOM     11 O    PRO C   3      76.812  64.241  13.712  1.00 26.12 LIG-0.27  OA
BRANCH 9 12
ATOM     12  CA  TRP C   4      75.478  65.953  15.479  1.00 31.86 LIG 0.19  C 
BRANCH 12 13
ATOM     13  C   TRP C   4      75.068  67.020  16.499  1.00 33.47 LIG 0.20  C 
ATOM     14 O    TRP C   4      74.128  66.870  17.285  1.00 35.20 LIG-0.65  OA
ATOM     15 OXT  TRP C   4      75.659  68.090  16.610  1.00 33.15 LIG-0.65  OA
ENDBRANCH 12 13
BRANCH 12 16
ATOM     16  CB  TRP C   4      74.924  64.598  15.913  1.00 32.27 LIG 0.08  C 
BRANCH 16 17
ATOM     17  CG  TRP C   4      75.802  63.877  16.869  1.00 32.30 LIG-0.03  A 
ATOM     18  CD2 TRP C   4      75.897  64.101  18.277  1.00 33.19 LIG-0.00  A 
ATOM     19  CE3 TRP C   4      75.267  64.976  19.169  1.00 34.05 LIG 0.01  A 
ATOM     20  CE2 TRP C   4      76.853  63.194  18.782  1.00 33.34 LIG 0.04  A 
ATOM     21  CZ3 TRP C   4      75.607  64.919  20.510  1.00 34.92 LIG 0.00  A 
ATOM     22  CH2 TRP C   4      76.559  64.003  20.974  1.00 35.06 LIG 0.00  A 
ATOM     23  CZ2 TRP C   4      77.194  63.138  20.129  1.00 34.21 LIG 0.03  A 
ATOM     24  NE1 TRP C   4      77.311  62.453  17.725  1.00 32.63 LIG-0.36  N 
ATOM     25  CD1 TRP C   4      76.676  62.873  16.581  1.00 32.29 LIG 0.10  A 
ATOM     26 HE1  TRP C   4      77.900  61.827  17.770  1.00 32.63 LIG 0.17  HD
ENDBRANCH 16 17
ENDBRANCH 12 16
ENDBRANCH 9 12
ENDBRANCH 4 8
BRANCH 1 27
ATOM     27  CA  VAL C   2      80.401  61.628  14.198  1.00 19.23 LIG 0.18  C 
BRANCH 27 28
ATOM     28  CB  VAL C   2      79.394  60.467  14.403  1.00 20.17 LIG 0.01  C 
ATOM     29  CG1 VAL C   2      78.184  60.629  13.489  1.00 20.92 LIG 0.01  C 
ATOM     30  CG2 VAL C   2      80.064  59.105  14.193  1.00 19.95 LIG 0.01  C 
ENDBRANCH 27 28
BRANCH 27 31
ATOM     31  N   VAL C   2      81.649  61.405  14.928  1.00 18.74 LIG-0.35  N 
ATOM     32  C   ALA C   1      82.790  61.994  14.585  1.00 18.58 LIG 0.25  C 
ATOM     33 O    ALA C   1      82.894  62.744  13.620  1.00 20.40 LIG-0.27  OA
ATOM     34 H    VAL C   2      81.574  60.862  15.591  1.00 18.74 LIG 0.16  HD
BRANCH 32 35
ATOM     35  CA  ALA C   1      83.999  61.680  15.453  1.00 18.17 LIG 0.27  C 
ATOM     36  CB  ALA C   1      83.709  62.015  16.919  1.00 17.10 LIG 0.05  C 
BRANCH 35 37
ATOM     37  N   ALA C   1      85.184  62.444  14.968  1.00 16.54 LIG-0.07  N 
ATOM     38 H2   ALA C   1      85.777  62.522  15.627  1.00 16.54 LIG 0.28  HD
ATOM     39 H3   ALA C   1      85.557  62.013  14.284  1.00 16.54 LIG 0.28  HD
ATOM     40 H1   ALA C   1      84.927  63.253  14.703  1.00 16.54 LIG 0.28  HD
ENDBRANCH 35 37
ENDBRANCH 32 35
ENDBRANCH 27 31
ENDBRANCH 1 27
TORSDOF 10
ENDMDL
MODEL 3
USER: ADFR SOLUTION from run 20
USER: SCORE 16.198786 LL:  -2.640 LR: -13.710 RR:   0.000 FEB: -10.727
USER: RMSD 2.099597
USER: SEED 19
USER: STATUS no improvement in best in 4 clusters for 5 generations
USER: GENES 12
USER: genes 0 Translation |==|  0.54433 0.49924 0.39525
USER: genes 1 Rotation |==|  0.52499 0.47810 0.46758 0.99784
USER: genes 2 Torsion [N]-CA--C-[O] |==|  0.75504
USER: genes 3 Torsion [C]-N--CA-[C] |==|  0.17885
USER: genes 4 Torsion [N]-CA--C-[O] |==|  0.07974
USER: genes 5 Torsion [N]-CA--CB-[CG] |==|  0.74588
USER: genes 6 Torsion [CA]-CB--CG-[CD2] |==|  0.03211
USER: genes 7 Torsion [N]-C--CA-[N] |==|  0.37116
USER: genes 8 Torsion [C]-CA--CB-[CG1] |==|  0.65689
USER: genes 9 Torsion [C]-CA--N-[C] |==|  0.65001
USER: genes 10 Torsion [N]-C--CA-[N] |==|  0.43518
USER: genes 11 Torsion [C]-CA--N-[H3] |==|  0.03976
ROOT
ATOM      1  C   VAL C   2      80.931  62.377  14.648  1.00 19.81 LIG 0.24  C 
ATOM      2 O    VAL C   2      80.433  62.014  15.710  1.00 19.32 LIG-0.27  OA
ATOM      3  N   PRO C   3      80.520  63.475  14.014  1.00 21.82 LIG-0.34  N 
ATOM      4  CA  PRO C   3      79.432  64.299  14.564  1.00 23.90 LIG 0.18  C 
ATOM      5  CB  PRO C   3      79.414  65.531  13.640  1.00 24.45 LIG 0.04  C 
ATOM      6  CG  PRO C   3      80.684  65.478  12.868  1.00 24.10 LIG 0.02  C 
ATOM      7  CD  PRO C   3      81.046  64.031  12.755  1.00 23.24 LIG 0.13  C 
ENDROOT
BRANCH 4 8
ATOM      8  C   PRO C   3      78.061  63.607  14.557  1.00 26.32 LIG 0.24  C 
ATOM      9  N   TRP C   4      77.721  62.926  15.652  1.00 29.14 LIG-0.34  N 
ATOM     10 H    TRP C   4      78.255  62.780  16.310  1.00 29.14 LIG 0.16  HD
ATOM     11 O    PRO C   3      77.337  63.699  13.567  1.00 26.12 LIG-0.27  OA
BRANCH 9 12
ATOM     12  CA  TRP C   4      76.374  62.355  15.826  1.00 31.86 LIG 0.19  C 
BRANCH 12 13
ATOM     13  C   TRP C   4      76.036  61.263  14.806  1.00 33.47 LIG 0.20  C 
ATOM     14 O    TRP C   4      76.894  60.543  14.287  1.00 35.20 LIG-0.65  OA
ATOM     15 OXT  TRP C   4      74.886  61.024  14.450  1.00 33.15 LIG-0.65  OA
ENDBRANCH 12 13
BRANCH 12 16
ATOM     16  CB  TRP C   4      75.318  63.456  15.758  1.00 32.27 LIG 0.08  C 
BRANCH 16 17
ATOM     17  CG  TRP C   4      74.982  64.037  17.082  1.00 32.30 LIG-0.03  A 
ATOM     18  CD2 TRP C   4      75.688  63.837  18.308  1.00 33.19 LIG-0.00  A 
ATOM     19  CE3 TRP C   4      76.828  63.108  18.667  1.00 34.05 LIG 0.01  A 
ATOM     20  CE2 TRP C   4      75.016  64.576  19.305  1.00 33.34 LIG 0.04  A 
ATOM     21  CZ3 TRP C   4      77.250  63.140  19.986  1.00 34.92 LIG 0.00  A 
ATOM     22  CH2 TRP C   4      76.559  63.888  20.947  1.00 35.06 LIG 0.00  A 
ATOM     23  CZ2 TRP C   4      75.441  64.606  20.628  1.00 34.21 LIG 0.03  A 
ATOM     24  NE1 TRP C   4      73.953  65.198  18.706  1.00 32.63 LIG-0.36  N 
ATOM     25  CD1 TRP C   4      73.940  64.865  17.372  1.00 32.29 LIG 0.10  A 
ATOM     26 HE1  TRP C   4      73.387  65.712  19.100  1.00 32.63 LIG 0.17  HD
ENDBRANCH 16 17
ENDBRANCH 12 16
ENDBRANCH 9 12
ENDBRANCH 4 8
BRANCH 1 27
ATOM     27  CA  VAL C   2      82.049  61.554  14.007  1.00 19.23 LIG 0.18  C 
BRANCH 27 28
ATOM     28  CB  VAL C   2      81.415  60.301  13.350  1.00 20.17 LIG 0.01  C 
ATOM     29  CG1 VAL C   2      82.044  59.024  13.898  1.00 20.92 LIG 0.01  C 
ATOM     30  CG2 VAL C   2      79.894  60.286  13.532  1.00 19.95 LIG 0.01  C 
ENDBRANCH 27 28
BRANCH 27 31
ATOM     31  N   VAL C   2      83.068  61.197  14.993  1.00 18.74 LIG-0.35  N 
ATOM     32  C   ALA C   1      84.358  61.468  14.816  1.00 18.58 LIG 0.25  C 
ATOM     33 O    ALA C   1      84.796  62.010  13.805  1.00 20.40 LIG-0.27  OA
ATOM     34 H    VAL C   2      82.758  60.800  15.690  1.00 18.74 LIG 0.16  HD
BRANCH 32 35
ATOM     35  CA  ALA C   1      85.296  61.055  15.939  1.00 18.17 LIG 0.27  C 
ATOM     36  CB  ALA C   1      85.275  62.092  17.065  1.00 17.10 LIG 0.05  C 
BRANCH 35 37
ATOM     37  N   ALA C   1      86.680  60.888  15.409  1.00 16.54 LIG-0.07  N 
ATOM     38 H2   ALA C   1      86.874  60.021  15.352  1.00 16.54 LIG 0.28  HD
ATOM     39 H3   ALA C   1      86.735  61.257  14.601  1.00 16.54 LIG 0.28  HD
ATOM     40 H1   ALA C   1      87.257  61.286  15.956  1.00 16.54 LIG 0.28  HD
ENDBRANCH 35 37
ENDBRANCH 32 35
ENDBRANCH 27 31
ENDBRANCH 1 27
TORSDOF 10
ENDMDL
MODEL 4
USER: ADFR SOLUTION from run 13
USER: SCORE 15.425865 LL:  -2.992 LR: -12.523 RR:   0.000 FEB:  -9.540
USER: RMSD 3.275515
USER: SEED 102534
USER: STATUS no improvement in best in 5 clusters for 5 generations
USER: GENES 12
USER: genes 0 Translation |==|  0.53914 0.52436 0.38285
USER: genes 1 Rotation |==|  0.50971 0.48727 0.48323 0.99946
USER: genes 2 Torsion [N]-CA--C-[O] |==|  0.81326
USER: genes 3 Torsion [C]-N--CA-[C] |==|  0.16827
USER: genes 4 Torsion [N]-CA--C-[O] |==|  0.03718
USER: genes 5 Torsion [N]-CA--CB-[CG] |==|  0.81050
USER: genes 6 Torsion [CA]-CB--CG-[CD2] |==|  0.27584
USER: genes 7 Torsion [N]-C--CA-[N] |==|  0.42381
USER: genes 8 Torsion [C]-CA--CB-[CG1] |==|  0.45141
USER: genes 9 Torsion [C]-CA--N-[C] |==|  0.63529
USER: genes 10 Torsion [N]-C--CA-[N] |==|  0.49390
USER: genes 11 Torsion [C]-CA--N-[H3] |==|  0.05698
ROOT
ATOM      1  C   VAL C   2      80.815  62.735  14.425  1.00 19.81 LIG 0.24  C 
ATOM      2 O    VAL C   2      80.378  62.409  15.526  1.00 19.32 LIG-0.27  OA
ATOM      3  N   PRO C   3      80.313  63.764  13.743  1.00 21.82 LIG-0.34  N 
ATOM      4  CA  PRO C   3      79.196  64.553  14.284  1.00 23.90 LIG 0.18  C 
ATOM      5  CB  PRO C   3      79.067  65.721  13.290  1.00 24.45 LIG 0.04  C 
ATOM      6  CG  PRO C   3      80.309  65.697  12.473  1.00 24.10 LIG 0.02  C 
ATOM      7  CD  PRO C   3      80.757  64.271  12.432  1.00 23.24 LIG 0.13  C 
ENDROOT
BRANCH 4 8
ATOM      8  C   PRO C   3      77.871  63.781  14.373  1.00 26.32 LIG 0.24  C 
ATOM      9  N   TRP C   4      77.403  63.519  15.595  1.00 29.14 LIG-0.34  N 
ATOM     10 H    TRP C   4      77.841  63.677  16.318  1.00 29.14 LIG 0.16  HD
ATOM     11 O    PRO C   3      77.297  63.433  13.343  1.00 26.12 LIG-0.27  OA
BRANCH 9 12
ATOM     12  CA  TRP C   4      76.071  62.927  15.807  1.00 31.86 LIG 0.19  C 
BRANCH 12 13
ATOM     13  C   TRP C   4      75.905  61.548  15.162  1.00 33.47 LIG 0.20  C 
ATOM     14 O    TRP C   4      76.857  60.888  14.737  1.00 35.20 LIG-0.65  OA
ATOM     15 OXT  TRP C   4      74.812  61.004  15.038  1.00 33.15 LIG-0.65  OA
ENDBRANCH 12 13
BRANCH 12 16
ATOM     16  CB  TRP C   4      74.984  63.865  15.288  1.00 32.27 LIG 0.08  C 
BRANCH 16 17
ATOM     17  CG  TRP C   4      74.851  65.115  16.078  1.00 32.30 LIG-0.03  A 
ATOM     18  CD2 TRP C   4      75.394  66.395  15.752  1.00 33.19 LIG-0.00  A 
ATOM     19  CE3 TRP C   4      76.159  66.885  14.687  1.00 34.05 LIG 0.01  A 
ATOM     20  CE2 TRP C   4      75.021  67.284  16.782  1.00 33.34 LIG 0.04  A 
ATOM     21  CZ3 TRP C   4      76.521  68.222  14.687  1.00 34.92 LIG 0.00  A 
ATOM     22  CH2 TRP C   4      76.129  69.075  15.726  1.00 35.06 LIG 0.00  A 
ATOM     23  CZ2 TRP C   4      75.386  68.626  16.781  1.00 34.21 LIG 0.03  A 
ATOM     24  NE1 TRP C   4      74.282  66.572  17.688  1.00 32.63 LIG-0.36  N 
ATOM     25  CD1 TRP C   4      74.188  65.270  17.258  1.00 32.29 LIG 0.10  A 
ATOM     26 HE1  TRP C   4      73.934  66.888  18.409  1.00 32.63 LIG 0.17  HD
ENDBRANCH 16 17
ENDBRANCH 12 16
ENDBRANCH 9 12
ENDBRANCH 4 8
BRANCH 1 27
ATOM     27  CA  VAL C   2      81.958  61.943  13.791  1.00 19.23 LIG 0.18  C 
BRANCH 27 28
ATOM     28  CB  VAL C   2      81.347  60.886  12.836  1.00 20.17 LIG 0.01  C 
ATOM     29  CG1 VAL C   2      82.397  60.362  11.862  1.00 20.92 LIG 0.01  C 
ATOM     30  CG2 VAL C   2      80.699  59.737  13.617  1.00 19.95 LIG 0.01  C 
ENDBRANCH 27 28
BRANCH 27 31
ATOM     31  N   VAL C   2      82.802  61.330  14.816  1.00 18.74 LIG-0.35  N 
ATOM     32  C   ALA C   1      84.128  61.429  14.801  1.00 18.58 LIG 0.25  C 
ATOM     33 O    ALA C   1      84.747  62.013  13.917  1.00 20.40 LIG-0.27  OA
ATOM     34 H    VAL C   2      82.364  60.904  15.422  1.00 18.74 LIG 0.16  HD
BRANCH 32 35
ATOM     35  CA  ALA C   1      84.868  60.756  15.946  1.00 18.17 LIG 0.27  C 
ATOM     36  CB  ALA C   1      84.434  61.350  17.289  1.00 17.10 LIG 0.05  C 
BRANCH 35 37
ATOM     37  N   ALA C   1      86.340  60.909  15.759  1.00 16.54 LIG-0.07  N 
ATOM     38 H2   ALA C   1      86.675  60.162  15.410  1.00 16.54 LIG 0.28  HD
ATOM     39 H3   ALA C   1      86.500  61.590  15.209  1.00 16.54 LIG 0.28  HD
ATOM     40 H1   ALA C   1      86.724  61.067  16.546  1.00 16.54 LIG 0.28  HD
ENDBRANCH 35 37
ENDBRANCH 32 35
ENDBRANCH 27 31
ENDBRANCH 1 27
TORSDOF 10
ENDMDL
