MODEL 1
USER: ADFR SOLUTION from run 101
USER: SCORE 20.905901 LL:  -4.353 LR: -20.791 RR:   0.000 FEB: -12.439
USER: RMSD 3.234838
USER: SEED 100
USER: STATUS no improvement in best in 3 clusters for 5 generations
USER: GENES 30
USER: genes 0 Translation |==|  0.49129 0.62768 0.51348
USER: genes 1 Rotation |==|  0.38624 0.52623 0.51602 0.98592
USER: genes 2 Torsion [CB]-CA--N-[C] |==|  0.50071
USER: genes 3 Torsion [N]-C--CA-[N] |==|  0.36522
USER: genes 4 Torsion [C]-CA--N-[C] |==|  0.68138
USER: genes 5 Torsion [N]-C--CA-[N] |==|  0.48770
USER: genes 6 Torsion [C]-CA--CB-[CG] |==|  0.50456
USER: genes 7 Torsion [CA]-CB--CG-[CD] |==|  0.48704
USER: genes 8 Torsion [CB]-CG--CD-[OE1] |==|  0.32766
USER: genes 9 Torsion [C]-CA--N-[C] |==|  0.78860
USER: genes 10 Torsion [N]-C--CA-[N] |==|  0.52763
USER: genes 11 Torsion [C]-CA--CB-[CG] |==|  0.19302
USER: genes 12 Torsion [CA]-CB--CG-[CD2] |==|  0.46102
USER: genes 13 Torsion [N]-CA--C-[N] |==|  0.27223
USER: genes 14 Torsion [C]-N--CA-[CB] |==|  0.26064
USER: genes 15 Torsion [N]-CA--CB-[CG] |==|  0.79798
USER: genes 16 Torsion [CA]-CB--CG-[CD2] |==|  0.84947
USER: genes 17 Torsion [N]-CA--C-[N] |==|  0.29681
USER: genes 18 Torsion [C]-N--CA-[CB] |==|  0.33723
USER: genes 19 Torsion [N]-CA--C-[N] |==|  0.13722
USER: genes 20 Torsion [C]-N--CA-[CB] |==|  0.42716
USER: genes 21 Torsion [N]-CA--CB-[OG] |==|  0.17602
USER: genes 22 Torsion [CA]-CB--OG-[HG] |==|  0.85502
USER: genes 23 Torsion [N]-CA--C-[OXT] |==|  0.19168
USER: genes 24 Torsion [N]-CA--CB-[CG] |==|  0.77475
USER: genes 25 Torsion [CA]-CB--CG-[OD2] |==|  0.77094
USER: genes 26 Torsion [N]-CA--CB-[CG] |==|  0.42562
USER: genes 27 Torsion [CA]-CB--CG-[CD] |==|  0.46575
USER: genes 28 Torsion [CB]-CG--CD-[NE] |==|  0.42431
USER: genes 29 Torsion [CG]-CD--NE-[HE] |==|  0.08813
ROOT
ATOM      1  CA  ARG P   5      31.484  32.079  -6.338  1.00 16.30 LIG 0.18  C 
ENDROOT
BRANCH 1 2
ATOM      2  N   ARG P   5      30.256  32.796  -5.966  1.00 16.36 LIG-0.35  N 
ATOM      3  C   PHE P   4      29.162  32.141  -5.620  1.00 16.61 LIG 0.24  C 
ATOM      4 O    PHE P   4      29.119  30.915  -5.496  1.00 17.57 LIG-0.27  OA
ATOM      5 H    ARG P   5      30.318  33.653  -5.993  1.00 16.36 LIG 0.16  HD
BRANCH 3 6
ATOM      6  CA  PHE P   4      27.919  32.993  -5.370  1.00 17.34 LIG 0.18  C 
BRANCH 6 7
ATOM      7  N   PHE P   4      26.824  32.389  -6.106  1.00 18.03 LIG-0.35  N 
ATOM      8  C   GLU P   3      26.236  33.018  -7.125  1.00 20.04 LIG 0.24  C 
ATOM      9 O    GLU P   3      26.447  34.191  -7.391  1.00 20.03 LIG-0.27  OA
ATOM     10 H    PHE P   4      26.597  31.607  -5.828  1.00 18.03 LIG 0.16  HD
BRANCH 8 11
ATOM     11  CA  GLU P   3      25.241  32.202  -7.951  1.00 21.92 LIG 0.18  C 
BRANCH 11 12
ATOM     12  CB  GLU P   3      25.954  31.025  -8.619  1.00 22.70 LIG 0.04  C 
BRANCH 12 13
ATOM     13  CG  GLU P   3      25.021  30.200  -9.485  1.00 23.46 LIG 0.12  C 
BRANCH 13 14
ATOM     14  CD  GLU P   3      25.704  29.091 -10.254  1.00 23.38 LIG 0.17  C 
ATOM     15 OE1  GLU P   3      25.350  27.916 -10.001  1.00 24.20 LIG-0.65  OA
ATOM     16 OE2  GLU P   3      26.593  29.387 -11.079  1.00 25.77 LIG-0.65  OA
ENDBRANCH 13 14
ENDBRANCH 12 13
ENDBRANCH 11 12
BRANCH 11 17
ATOM     17  N   GLU P   3      24.626  33.084  -8.948  1.00 23.31 LIG-0.35  N 
ATOM     18 H    GLU P   3      24.923  32.984  -9.750  1.00 23.31 LIG 0.16  HD
ATOM     19  C   ALA P   2      23.687  33.956  -8.603  1.00 24.65 LIG 0.26  C 
ATOM     20 O    ALA P   2      23.106  33.903  -7.505  1.00 25.69 LIG-0.27  OA
BRANCH 19 21
ATOM     21  CA  ALA P   2      23.284  35.013  -9.647  1.00 24.82 LIG 0.40  C 
ATOM     22  N   ALA P   2      22.412  36.044  -9.032  1.00 26.06 LIG 0.61  N 
ATOM     23  CB  ALA P   2      24.520  35.688 -10.274  1.00 25.99 LIG 0.06  C 
ENDBRANCH 19 21
ENDBRANCH 11 17
ENDBRANCH 8 11
ENDBRANCH 6 7
BRANCH 6 24
ATOM     24  CB  PHE P   4      27.604  33.063  -3.861  1.00 16.70 LIG 0.07  C 
BRANCH 24 25
ATOM     25  CG  PHE P   4      28.606  33.865  -3.055  1.00 15.87 LIG-0.06  A 
ATOM     26  CD2 PHE P   4      28.313  34.261  -1.756  1.00 14.31 LIG 0.01  A 
ATOM     27  CE2 PHE P   4      29.218  35.023  -1.018  1.00 14.76 LIG 0.00  A 
ATOM     28  CZ  PHE P   4      30.438  35.414  -1.586  1.00 16.46 LIG 0.00  A 
ATOM     29  CE1 PHE P   4      30.745  35.020  -2.883  1.00 16.70 LIG 0.00  A 
ATOM     30  CD1 PHE P   4      29.817  34.262  -3.607  1.00 16.73 LIG 0.01  A 
ENDBRANCH 24 25
ENDBRANCH 6 24
ENDBRANCH 3 6
ENDBRANCH 1 2
BRANCH 1 31
ATOM     31  C   ARG P   5      31.970  31.145  -5.218  1.00 16.50 LIG 0.24  C 
ATOM     32  N   HIS P   6      31.640  29.861  -5.326  1.00 17.02 LIG-0.35  N 
ATOM     33 H    HIS P   6      31.127  29.539  -5.936  1.00 17.02 LIG 0.16  HD
ATOM     34 O    ARG P   5      32.646  31.581  -4.278  1.00 15.68 LIG-0.27  OA
BRANCH 32 35
ATOM     35  CA  HIS P   6      32.155  28.875  -4.365  1.00 18.55 LIG 0.18  C 
BRANCH 35 36
ATOM     36  CB  HIS P   6      31.171  28.660  -3.222  1.00 17.94 LIG 0.10  C 
BRANCH 36 37
ATOM     37  CG  HIS P   6      31.087  29.790  -2.249  1.00 17.06 LIG 0.06  A 
ATOM     38 ND1  HIS P   6      29.906  30.439  -1.965  1.00 15.40 LIG-0.24  NA
ATOM     39  CE1 HIS P   6      30.137  31.420  -1.111  1.00 15.09 LIG 0.23  A 
ATOM     40 NE2  HIS P   6      31.426  31.427  -0.824  1.00 16.22 LIG-0.25  NA
ATOM     41  CD2 HIS P   6      32.043  30.419  -1.533  1.00 16.02 LIG 0.14  A 
ENDBRANCH 36 37
ENDBRANCH 35 36
BRANCH 35 42
ATOM     42  C   HIS P   6      32.274  27.564  -5.101  1.00 20.42 LIG 0.24  C 
ATOM     43 O    HIS P   6      31.257  26.931  -5.367  1.00 21.09 LIG-0.27  OA
ATOM     44  N   ASP P   7      33.474  27.119  -5.426  1.00 22.91 LIG-0.34  N 
ATOM     45 H    ASP P   7      34.223  27.490  -5.223  1.00 22.91 LIG 0.16  HD
BRANCH 44 46
ATOM     46  CA  ASP P   7      33.554  25.869  -6.212  1.00 24.36 LIG 0.19  C 
BRANCH 46 47
ATOM     47  C   ASP P   7      34.147  24.696  -5.443  1.00 26.16 LIG 0.24  C 
ATOM     48  N   SER P   8      33.638  24.459  -4.232  1.00 27.90 LIG-0.34  N 
ATOM     49 H    SER P   8      33.058  24.961  -3.843  1.00 27.90 LIG 0.16  HD
ATOM     50 O    ASP P   7      35.053  24.018  -5.915  1.00 26.07 LIG-0.27  OA
BRANCH 48 51
ATOM     51  CA  SER P   8      34.051  23.284  -3.460  1.00 28.60 LIG 0.21  C 
BRANCH 51 52
ATOM     52  CB  SER P   8      33.878  23.553  -1.966  1.00 29.65 LIG 0.20  C 
BRANCH 52 53
ATOM     53 OG   SER P   8      32.512  23.765  -1.651  1.00 30.91 LIG-0.40  OA
ATOM     54 HG   SER P   8      32.195  24.355  -2.157  1.00 30.91 LIG 0.21  HD
ENDBRANCH 52 53
ENDBRANCH 51 52
BRANCH 51 55
ATOM     55  C   SER P   8      33.308  21.983  -3.901  1.00 29.85 LIG 0.20  C 
ATOM     56 OXT  SER P   8      33.515  21.452  -5.001  1.00 30.94 LIG-0.65  OA
ATOM     57 O    SER P   8      32.440  21.408  -3.226  1.00 30.51 LIG-0.65  OA
ENDBRANCH 51 55
ENDBRANCH 48 51
ENDBRANCH 46 47
BRANCH 46 58
ATOM     58  CB  ASP P   7      34.279  26.101  -7.520  1.00 24.61 LIG 0.15  C 
BRANCH 58 59
ATOM     59  CG  ASP P   7      33.370  26.704  -8.560  1.00 26.42 LIG 0.17  C 
ATOM     60 OD2  ASP P   7      32.627  25.955  -9.206  1.00 29.83 LIG-0.65  OA
ATOM     61 OD1  ASP P   7      33.387  27.951  -8.710  1.00 30.09 LIG-0.65  OA
ENDBRANCH 58 59
ENDBRANCH 46 58
ENDBRANCH 44 46
ENDBRANCH 35 42
ENDBRANCH 32 35
ENDBRANCH 1 31
BRANCH 1 62
ATOM     62  CB  ARG P   5      32.577  33.078  -6.680  1.00 16.24 LIG 0.04  C 
BRANCH 62 63
ATOM     63  CG  ARG P   5      33.994  32.583  -6.466  1.00 15.73 LIG 0.02  C 
BRANCH 63 64
ATOM     64  CD  ARG P   5      34.969  33.528  -7.112  1.00 15.69 LIG 0.14  C 
BRANCH 64 65
ATOM     65  NE  ARG P   5      36.298  33.543  -6.485  1.00 15.25 LIG-0.23  N 
ATOM     66 HE   ARG P   5      36.594  32.820  -6.128  1.00 15.25 LIG 0.18  HD
ATOM     67  CZ  ARG P   5      37.063  34.637  -6.448  1.00 16.06 LIG 0.67  C 
ATOM     68  NH2 ARG P   5      38.256  34.613  -5.853  1.00 16.00 LIG-0.23  N 
ATOM     69  NH1 ARG P   5      36.621  35.768  -6.980  1.00 17.19 LIG-0.23  N 
ATOM     70 1HH2 ARG P   5      38.540  33.889  -5.487  1.00 16.00 LIG 0.17  HD
ATOM     71 2HH2 ARG P   5      38.742  35.322  -5.834  1.00 16.00 LIG 0.17  HD
ATOM     72 1HH1 ARG P   5      35.843  35.796  -7.346  1.00 17.19 LIG 0.17  HD
ATOM     73 2HH1 ARG P   5      37.112  36.474  -6.958  1.00 17.19 LIG 0.17  HD
ENDBRANCH 64 65
ENDBRANCH 63 64
ENDBRANCH 62 63
ENDBRANCH 1 62
TORSDOF 28
ENDMDL
MODEL 2
USER: ADFR SOLUTION from run 123
USER: SCORE 21.618369 LL:  -4.203 LR: -19.861 RR:   0.000 FEB: -11.509
USER: RMSD 2.627810
USER: SEED 122
USER: STATUS no improvement in best in 1 clusters for 5 generations
USER: GENES 30
USER: genes 0 Translation |==|  0.49286 0.64107 0.52002
USER: genes 1 Rotation |==|  0.45550 0.52082 0.52767 0.99681
USER: genes 2 Torsion [CB]-CA--N-[C] |==|  0.50093
USER: genes 3 Torsion [N]-C--CA-[N] |==|  0.37630
USER: genes 4 Torsion [C]-CA--N-[C] |==|  0.76806
USER: genes 5 Torsion [N]-C--CA-[N] |==|  0.42655
USER: genes 6 Torsion [C]-CA--CB-[CG] |==|  0.48852
USER: genes 7 Torsion [CA]-CB--CG-[CD] |==|  0.50292
USER: genes 8 Torsion [CB]-CG--CD-[OE1] |==|  0.83115
USER: genes 9 Torsion [C]-CA--N-[C] |==|  0.78241
USER: genes 10 Torsion [N]-C--CA-[N] |==|  0.54560
USER: genes 11 Torsion [C]-CA--CB-[CG] |==|  0.20051
USER: genes 12 Torsion [CA]-CB--CG-[CD2] |==|  0.64918
USER: genes 13 Torsion [N]-CA--C-[N] |==|  0.30091
USER: genes 14 Torsion [C]-N--CA-[CB] |==|  0.24504
USER: genes 15 Torsion [N]-CA--CB-[CG] |==|  0.79716
USER: genes 16 Torsion [CA]-CB--CG-[CD2] |==|  0.39822
USER: genes 17 Torsion [N]-CA--C-[N] |==|  0.35160
USER: genes 18 Torsion [C]-N--CA-[CB] |==|  0.19024
USER: genes 19 Torsion [N]-CA--C-[N] |==|  0.03027
USER: genes 20 Torsion [C]-N--CA-[CB] |==|  0.81715
USER: genes 21 Torsion [N]-CA--CB-[OG] |==|  0.64167
USER: genes 22 Torsion [CA]-CB--OG-[HG] |==|  0.46003
USER: genes 23 Torsion [N]-CA--C-[OXT] |==|  0.14178
USER: genes 24 Torsion [N]-CA--CB-[CG] |==|  0.65778
USER: genes 25 Torsion [CA]-CB--CG-[OD2] |==|  0.53176
USER: genes 26 Torsion [N]-CA--CB-[CG] |==|  0.41293
USER: genes 27 Torsion [CA]-CB--CG-[CD] |==|  0.48464
USER: genes 28 Torsion [CB]-CG--CD-[NE] |==|  0.54049
USER: genes 29 Torsion [CG]-CD--NE-[HE] |==|  0.96836
ROOT
ATOM      1  CA  ARG P   5      31.520  32.401  -6.211  1.00 16.30 LIG 0.18  C 
ENDROOT
BRANCH 1 2
ATOM      2  N   ARG P   5      30.269  32.943  -5.663  1.00 16.36 LIG-0.35  N 
ATOM      3  C   PHE P   4      29.199  32.181  -5.523  1.00 16.61 LIG 0.24  C 
ATOM      4 O    PHE P   4      29.199  30.968  -5.745  1.00 17.57 LIG-0.27  OA
ATOM      5 H    ARG P   5      30.301  33.776  -5.451  1.00 16.36 LIG 0.16  HD
BRANCH 3 6
ATOM      6  CA  PHE P   4      27.927  32.888  -5.055  1.00 17.34 LIG 0.18  C 
BRANCH 6 7
ATOM      7  N   PHE P   4      26.835  32.403  -5.878  1.00 18.03 LIG-0.35  N 
ATOM      8  C   GLU P   3      26.580  32.925  -7.079  1.00 20.04 LIG 0.24  C 
ATOM      9 O    GLU P   3      27.116  33.943  -7.487  1.00 20.03 LIG-0.27  OA
ATOM     10 H    PHE P   4      26.380  31.764  -5.525  1.00 18.03 LIG 0.16  HD
BRANCH 8 11
ATOM     11  CA  GLU P   3      25.543  32.197  -7.936  1.00 21.92 LIG 0.18  C 
BRANCH 11 12
ATOM     12  CB  GLU P   3      26.205  31.048  -8.699  1.00 22.70 LIG 0.04  C 
BRANCH 12 13
ATOM     13  CG  GLU P   3      25.203  30.227  -9.489  1.00 23.46 LIG 0.12  C 
BRANCH 13 14
ATOM     14  CD  GLU P   3      25.810  29.064 -10.241  1.00 23.38 LIG 0.17  C 
ATOM     15 OE1  GLU P   3      26.672  29.329 -11.111  1.00 24.20 LIG-0.65  OA
ATOM     16 OE2  GLU P   3      25.416  27.906  -9.983  1.00 25.77 LIG-0.65  OA
ENDBRANCH 13 14
ENDBRANCH 12 13
ENDBRANCH 11 12
BRANCH 11 17
ATOM     17  N   GLU P   3      24.935  33.164  -8.855  1.00 23.31 LIG-0.35  N 
ATOM     18 H    GLU P   3      25.233  33.131  -9.662  1.00 23.31 LIG 0.16  HD
ATOM     19  C   ALA P   2      23.999  34.008  -8.439  1.00 24.65 LIG 0.26  C 
ATOM     20 O    ALA P   2      23.415  33.865  -7.351  1.00 25.69 LIG-0.27  OA
BRANCH 19 21
ATOM     21  CA  ALA P   2      23.603  35.152  -9.390  1.00 24.82 LIG 0.40  C 
ATOM     22  N   ALA P   2      22.866  36.208  -8.653  1.00 26.06 LIG 0.61  N 
ATOM     23  CB  ALA P   2      24.838  35.767 -10.078  1.00 25.99 LIG 0.06  C 
ENDBRANCH 19 21
ENDBRANCH 11 17
ENDBRANCH 8 11
ENDBRANCH 6 7
BRANCH 6 24
ATOM     24  CB  PHE P   4      27.667  32.603  -3.561  1.00 16.70 LIG 0.07  C 
BRANCH 24 25
ATOM     25  CG  PHE P   4      28.621  33.312  -2.620  1.00 15.87 LIG-0.06  A 
ATOM     26  CD2 PHE P   4      29.335  32.595  -1.667  1.00 14.31 LIG 0.01  A 
ATOM     27  CE2 PHE P   4      30.194  33.243  -0.778  1.00 14.76 LIG 0.00  A 
ATOM     28  CZ  PHE P   4      30.339  34.636  -0.828  1.00 16.46 LIG 0.00  A 
ATOM     29  CE1 PHE P   4      29.634  35.363  -1.780  1.00 16.70 LIG 0.00  A 
ATOM     30  CD1 PHE P   4      28.773  34.692  -2.655  1.00 16.73 LIG 0.01  A 
ENDBRANCH 24 25
ENDBRANCH 6 24
ENDBRANCH 3 6
ENDBRANCH 1 2
BRANCH 1 31
ATOM     31  C   ARG P   5      32.039  31.207  -5.392  1.00 16.50 LIG 0.24  C 
ATOM     32  N   HIS P   6      31.942  30.007  -5.958  1.00 17.02 LIG-0.35  N 
ATOM     33 H    HIS P   6      31.555  29.852  -6.710  1.00 17.02 LIG 0.16  HD
ATOM     34 O    ARG P   5      32.533  31.376  -4.270  1.00 15.68 LIG-0.27  OA
BRANCH 32 35
ATOM     35  CA  HIS P   6      32.515  28.824  -5.300  1.00 18.55 LIG 0.18  C 
BRANCH 35 36
ATOM     36  CB  HIS P   6      31.511  28.190  -4.345  1.00 17.94 LIG 0.10  C 
BRANCH 36 37
ATOM     37  CG  HIS P   6      31.277  28.958  -3.085  1.00 17.06 LIG 0.06  A 
ATOM     38 ND1  HIS P   6      32.290  29.591  -2.401  1.00 15.40 LIG-0.24  NA
ATOM     39  CE1 HIS P   6      31.803  30.147  -1.307  1.00 15.09 LIG 0.23  A 
ATOM     40 NE2  HIS P   6      30.505  29.904  -1.258  1.00 16.22 LIG-0.25  NA
ATOM     41  CD2 HIS P   6      30.154  29.153  -2.359  1.00 16.02 LIG 0.14  A 
ENDBRANCH 36 37
ENDBRANCH 35 36
BRANCH 35 42
ATOM     42  C   HIS P   6      32.797  27.812  -6.383  1.00 20.42 LIG 0.24  C 
ATOM     43 O    HIS P   6      31.892  27.478  -7.141  1.00 21.09 LIG-0.27  OA
ATOM     44  N   ASP P   7      34.010  27.297  -6.476  1.00 22.91 LIG-0.34  N 
ATOM     45 H    ASP P   7      34.668  27.453  -5.945  1.00 22.91 LIG 0.16  HD
BRANCH 44 46
ATOM     46  CA  ASP P   7      34.275  26.366  -7.594  1.00 24.36 LIG 0.19  C 
BRANCH 46 47
ATOM     47  C   ASP P   7      35.550  25.549  -7.424  1.00 26.16 LIG 0.24  C 
ATOM     48  N   SER P   8      36.133  25.600  -6.225  1.00 27.90 LIG-0.34  N 
ATOM     49 H    SER P   8      35.877  26.109  -5.580  1.00 27.90 LIG 0.16  HD
ATOM     50 O    ASP P   7      36.014  24.893  -8.349  1.00 26.07 LIG-0.27  OA
BRANCH 48 51
ATOM     51  CA  SER P   8      37.294  24.758  -5.917  1.00 28.60 LIG 0.21  C 
BRANCH 51 52
ATOM     52  CB  SER P   8      36.886  23.286  -5.920  1.00 29.65 LIG 0.20  C 
BRANCH 52 53
ATOM     53 OG   SER P   8      37.313  22.646  -4.730  1.00 30.91 LIG-0.40  OA
ATOM     54 HG   SER P   8      36.921  21.907  -4.652  1.00 30.91 LIG 0.21  HD
ENDBRANCH 52 53
ENDBRANCH 51 52
BRANCH 51 55
ATOM     55  C   SER P   8      38.500  25.025  -6.872  1.00 29.85 LIG 0.20  C 
ATOM     56 OXT  SER P   8      38.931  26.167  -7.079  1.00 30.94 LIG-0.65  OA
ATOM     57 O    SER P   8      39.088  24.145  -7.521  1.00 30.51 LIG-0.65  OA
ENDBRANCH 51 55
ENDBRANCH 48 51
ENDBRANCH 46 47
BRANCH 46 58
ATOM     58  CB  ASP P   7      34.254  27.095  -8.919  1.00 24.61 LIG 0.15  C 
BRANCH 58 59
ATOM     59  CG  ASP P   7      33.248  26.495  -9.868  1.00 26.42 LIG 0.17  C 
ATOM     60 OD2  ASP P   7      33.268  26.845 -11.055  1.00 29.83 LIG-0.65  OA
ATOM     61 OD1  ASP P   7      32.445  25.641  -9.417  1.00 30.09 LIG-0.65  OA
ENDBRANCH 58 59
ENDBRANCH 46 58
ENDBRANCH 44 46
ENDBRANCH 35 42
ENDBRANCH 32 35
ENDBRANCH 1 31
BRANCH 1 62
ATOM     62  CB  ARG P   5      32.578  33.491  -6.250  1.00 16.24 LIG 0.04  C 
BRANCH 62 63
ATOM     63  CG  ARG P   5      34.005  33.014  -6.062  1.00 15.73 LIG 0.02  C 
BRANCH 63 64
ATOM     64  CD  ARG P   5      34.958  34.161  -6.256  1.00 15.69 LIG 0.14  C 
BRANCH 64 65
ATOM     65  NE  ARG P   5      36.359  33.756  -6.431  1.00 15.25 LIG-0.23  N 
ATOM     66 HE   ARG P   5      36.577  32.941  -6.268  1.00 15.25 LIG 0.18  HD
ATOM     67  CZ  ARG P   5      37.308  34.604  -6.833  1.00 16.06 LIG 0.67  C 
ATOM     68  NH2 ARG P   5      38.573  34.201  -6.962  1.00 16.00 LIG-0.23  N 
ATOM     69  NH1 ARG P   5      36.999  35.871  -7.077  1.00 17.19 LIG-0.23  N 
ATOM     70 1HH2 ARG P   5      38.784  33.386  -6.785  1.00 16.00 LIG 0.17  HD
ATOM     71 2HH2 ARG P   5      39.177  34.755  -7.222  1.00 16.00 LIG 0.17  HD
ATOM     72 1HH1 ARG P   5      36.190  36.143  -6.975  1.00 17.19 LIG 0.17  HD
ATOM     73 2HH1 ARG P   5      37.608  36.420  -7.336  1.00 17.19 LIG 0.17  HD
ENDBRANCH 64 65
ENDBRANCH 63 64
ENDBRANCH 62 63
ENDBRANCH 1 62
TORSDOF 28
ENDMDL
MODEL 3
USER: ADFR SOLUTION from run 69
USER: SCORE 20.048263 LL:  -4.275 LR: -19.109 RR:   0.000 FEB: -10.756
USER: RMSD 2.646551
USER: SEED 68
USER: STATUS no improvement in best in 4 clusters for 5 generations
USER: GENES 30
USER: genes 0 Translation |==|  0.48943 0.63318 0.54864
USER: genes 1 Rotation |==|  0.41596 0.48699 0.50095 0.99271
USER: genes 2 Torsion [CB]-CA--N-[C] |==|  0.50556
USER: genes 3 Torsion [N]-C--CA-[N] |==|  0.38023
USER: genes 4 Torsion [C]-CA--N-[C] |==|  0.73704
USER: genes 5 Torsion [N]-C--CA-[N] |==|  0.39983
USER: genes 6 Torsion [C]-CA--CB-[CG] |==|  0.47160
USER: genes 7 Torsion [CA]-CB--CG-[CD] |==|  0.51541
USER: genes 8 Torsion [CB]-CG--CD-[OE1] |==|  0.35907
USER: genes 9 Torsion [C]-CA--N-[C] |==|  0.78625
USER: genes 10 Torsion [N]-C--CA-[N] |==|  0.31149
USER: genes 11 Torsion [C]-CA--CB-[CG] |==|  0.17344
USER: genes 12 Torsion [CA]-CB--CG-[CD2] |==|  0.24000
USER: genes 13 Torsion [N]-CA--C-[N] |==|  0.30799
USER: genes 14 Torsion [C]-N--CA-[CB] |==|  0.30929
USER: genes 15 Torsion [N]-CA--CB-[CG] |==|  0.76839
USER: genes 16 Torsion [CA]-CB--CG-[CD2] |==|  0.55675
USER: genes 17 Torsion [N]-CA--C-[N] |==|  0.61430
USER: genes 18 Torsion [C]-N--CA-[CB] |==|  0.52906
USER: genes 19 Torsion [N]-CA--C-[N] |==|  0.30082
USER: genes 20 Torsion [C]-N--CA-[CB] |==|  0.46635
USER: genes 21 Torsion [N]-CA--CB-[OG] |==|  0.02267
USER: genes 22 Torsion [CA]-CB--OG-[HG] |==|  0.87793
USER: genes 23 Torsion [N]-CA--C-[OXT] |==|  0.49190
USER: genes 24 Torsion [N]-CA--CB-[CG] |==|  0.76412
USER: genes 25 Torsion [CA]-CB--CG-[OD2] |==|  0.90325
USER: genes 26 Torsion [N]-CA--CB-[CG] |==|  0.56080
USER: genes 27 Torsion [CA]-CB--CG-[CD] |==|  0.45691
USER: genes 28 Torsion [CB]-CG--CD-[NE] |==|  0.38219
USER: genes 29 Torsion [CG]-CD--NE-[HE] |==|  0.03466
ROOT
ATOM      1  CA  ARG P   5      31.440  32.211  -5.653  1.00 16.30 LIG 0.18  C 
ENDROOT
BRANCH 1 2
ATOM      2  N   ARG P   5      30.183  32.926  -5.396  1.00 16.36 LIG-0.35  N 
ATOM      3  C   PHE P   4      29.039  32.275  -5.282  1.00 16.61 LIG 0.24  C 
ATOM      4 O    PHE P   4      28.958  31.045  -5.288  1.00 17.57 LIG-0.27  OA
ATOM      5 H    ARG P   5      30.262  33.780  -5.329  1.00 16.36 LIG 0.16  HD
BRANCH 3 6
ATOM      6  CA  PHE P   4      27.786  33.138  -5.135  1.00 17.34 LIG 0.18  C 
BRANCH 6 7
ATOM      7  N   PHE P   4      26.761  32.562  -5.985  1.00 18.03 LIG-0.35  N 
ATOM      8  C   GLU P   3      26.556  33.002  -7.228  1.00 20.04 LIG 0.24  C 
ATOM      9 O    GLU P   3      27.076  34.016  -7.666  1.00 20.03 LIG-0.27  OA
ATOM     10 H    PHE P   4      26.311  31.926  -5.619  1.00 18.03 LIG 0.16  HD
BRANCH 8 11
ATOM     11  CA  GLU P   3      25.597  32.184  -8.094  1.00 21.92 LIG 0.18  C 
BRANCH 11 12
ATOM     12  CB  GLU P   3      26.380  31.173  -8.933  1.00 22.70 LIG 0.04  C 
BRANCH 12 13
ATOM     13  CG  GLU P   3      25.474  30.171  -9.623  1.00 23.46 LIG 0.12  C 
BRANCH 13 14
ATOM     14  CD  GLU P   3      26.209  29.072 -10.357  1.00 23.38 LIG 0.17  C 
ATOM     15 OE1  GLU P   3      25.862  27.891 -10.119  1.00 24.20 LIG-0.65  OA
ATOM     16 OE2  GLU P   3      27.131  29.380 -11.141  1.00 25.77 LIG-0.65  OA
ENDBRANCH 13 14
ENDBRANCH 12 13
ENDBRANCH 11 12
BRANCH 11 17
ATOM     17  N   GLU P   3      24.836  33.105  -8.946  1.00 23.31 LIG-0.35  N 
ATOM     18 H    GLU P   3      25.099  33.137  -9.765  1.00 23.31 LIG 0.16  HD
ATOM     19  C   ALA P   2      23.828  33.815  -8.456  1.00 24.65 LIG 0.26  C 
ATOM     20 O    ALA P   2      23.317  33.563  -7.351  1.00 25.69 LIG-0.27  OA
BRANCH 19 21
ATOM     21  CA  ALA P   2      23.256  34.938  -9.341  1.00 24.82 LIG 0.40  C 
ATOM     22  N   ALA P   2      21.879  34.602  -9.780  1.00 26.06 LIG 0.61  N 
ATOM     23  CB  ALA P   2      23.249  36.290  -8.602  1.00 25.99 LIG 0.06  C 
ENDBRANCH 19 21
ENDBRANCH 11 17
ENDBRANCH 8 11
ENDBRANCH 6 7
BRANCH 6 24
ATOM     24  CB  PHE P   4      27.327  33.180  -3.661  1.00 16.70 LIG 0.07  C 
BRANCH 24 25
ATOM     25  CG  PHE P   4      28.335  33.805  -2.717  1.00 15.87 LIG-0.06  A 
ATOM     26  CD2 PHE P   4      28.358  35.181  -2.520  1.00 14.31 LIG 0.01  A 
ATOM     27  CE2 PHE P   4      29.301  35.767  -1.675  1.00 14.76 LIG 0.00  A 
ATOM     28  CZ  PHE P   4      30.252  34.973  -1.021  1.00 16.46 LIG 0.00  A 
ATOM     29  CE1 PHE P   4      30.235  33.595  -1.207  1.00 16.70 LIG 0.00  A 
ATOM     30  CD1 PHE P   4      29.285  33.031  -2.065  1.00 16.73 LIG 0.01  A 
ENDBRANCH 24 25
ENDBRANCH 6 24
ENDBRANCH 3 6
ENDBRANCH 1 2
BRANCH 1 31
ATOM     31  C   ARG P   5      31.717  31.130  -4.595  1.00 16.50 LIG 0.24  C 
ATOM     32  N   HIS P   6      31.636  29.865  -4.998  1.00 17.02 LIG-0.35  N 
ATOM     33 H    HIS P   6      31.381  29.618  -5.781  1.00 17.02 LIG 0.16  HD
ATOM     34 O    ARG P   5      32.012  31.440  -3.434  1.00 15.68 LIG-0.27  OA
BRANCH 32 35
ATOM     35  CA  HIS P   6      31.995  28.768  -4.088  1.00 18.55 LIG 0.18  C 
BRANCH 35 36
ATOM     36  CB  HIS P   6      30.765  27.960  -3.695  1.00 17.94 LIG 0.10  C 
BRANCH 36 37
ATOM     37  CG  HIS P   6      29.975  28.535  -2.565  1.00 17.06 LIG 0.06  A 
ATOM     38 ND1  HIS P   6      30.102  29.844  -2.160  1.00 15.40 LIG-0.24  NA
ATOM     39  CE1 HIS P   6      29.322  30.061  -1.116  1.00 15.09 LIG 0.23  A 
ATOM     40 NE2  HIS P   6      28.686  28.939  -0.832  1.00 16.22 LIG-0.25  NA
ATOM     41  CD2 HIS P   6      29.086  27.966  -1.723  1.00 16.02 LIG 0.14  A 
ENDBRANCH 36 37
ENDBRANCH 35 36
BRANCH 35 42
ATOM     42  C   HIS P   6      32.908  27.842  -4.854  1.00 20.42 LIG 0.24  C 
ATOM     43 O    HIS P   6      33.761  28.320  -5.595  1.00 21.09 LIG-0.27  OA
ATOM     44  N   ASP P   7      32.753  26.538  -4.721  1.00 22.91 LIG-0.34  N 
ATOM     45 H    ASP P   7      32.143  26.145  -4.260  1.00 22.91 LIG 0.16  HD
BRANCH 44 46
ATOM     46  CA  ASP P   7      33.711  25.658  -5.426  1.00 24.36 LIG 0.19  C 
BRANCH 46 47
ATOM     47  C   ASP P   7      34.023  26.105  -6.849  1.00 26.16 LIG 0.24  C 
ATOM     48  N   SER P   8      35.238  26.615  -7.059  1.00 27.90 LIG-0.34  N 
ATOM     49 H    SER P   8      35.815  26.768  -6.440  1.00 27.90 LIG 0.16  HD
ATOM     50 O    ASP P   7      33.191  26.007  -7.744  1.00 26.07 LIG-0.27  OA
BRANCH 48 51
ATOM     51  CA  SER P   8      35.684  26.962  -8.412  1.00 28.60 LIG 0.21  C 
BRANCH 51 52
ATOM     52  CB  SER P   8      36.965  27.791  -8.343  1.00 29.65 LIG 0.20  C 
BRANCH 52 53
ATOM     53 OG   SER P   8      37.463  27.834  -7.017  1.00 30.91 LIG-0.40  OA
ATOM     54 HG   SER P   8      36.828  27.970  -6.483  1.00 30.91 LIG 0.21  HD
ENDBRANCH 52 53
ENDBRANCH 51 52
BRANCH 51 55
ATOM     55  C   SER P   8      35.856  25.708  -9.328  1.00 29.85 LIG 0.20  C 
ATOM     56 OXT  SER P   8      36.175  25.808 -10.520  1.00 30.94 LIG-0.65  OA
ATOM     57 O    SER P   8      35.653  24.540  -8.962  1.00 30.51 LIG-0.65  OA
ENDBRANCH 51 55
ENDBRANCH 48 51
ENDBRANCH 46 47
BRANCH 46 58
ATOM     58  CB  ASP P   7      33.250  24.217  -5.383  1.00 24.61 LIG 0.15  C 
BRANCH 58 59
ATOM     59  CG  ASP P   7      33.683  23.533  -4.112  1.00 26.42 LIG 0.17  C 
ATOM     60 OD2  ASP P   7      34.774  23.838  -3.615  1.00 29.83 LIG-0.65  OA
ATOM     61 OD1  ASP P   7      32.901  22.696  -3.596  1.00 30.09 LIG-0.65  OA
ENDBRANCH 58 59
ENDBRANCH 46 58
ENDBRANCH 44 46
ENDBRANCH 35 42
ENDBRANCH 32 35
ENDBRANCH 1 31
BRANCH 1 62
ATOM     62  CB  ARG P   5      32.594  33.200  -5.686  1.00 16.24 LIG 0.04  C 
BRANCH 62 63
ATOM     63  CG  ARG P   5      33.828  32.727  -6.429  1.00 15.73 LIG 0.02  C 
BRANCH 63 64
ATOM     64  CD  ARG P   5      34.730  33.895  -6.719  1.00 15.69 LIG 0.14  C 
BRANCH 64 65
ATOM     65  NE  ARG P   5      36.157  33.624  -6.495  1.00 15.25 LIG-0.23  N 
ATOM     66 HE   ARG P   5      36.409  32.811  -6.380  1.00 15.25 LIG 0.18  HD
ATOM     67  CZ  ARG P   5      37.076  34.592  -6.462  1.00 16.06 LIG 0.67  C 
ATOM     68  NH2 ARG P   5      38.359  34.305  -6.237  1.00 16.00 LIG-0.23  N 
ATOM     69  NH1 ARG P   5      36.708  35.856  -6.621  1.00 17.19 LIG-0.23  N 
ATOM     70 1HH2 ARG P   5      38.601  33.489  -6.111  1.00 16.00 LIG 0.17  HD
ATOM     71 2HH2 ARG P   5      38.944  34.935  -6.217  1.00 16.00 LIG 0.17  HD
ATOM     72 1HH1 ARG P   5      35.879  36.050  -6.744  1.00 17.19 LIG 0.17  HD
ATOM     73 2HH1 ARG P   5      37.298  36.481  -6.600  1.00 17.19 LIG 0.17  HD
ENDBRANCH 64 65
ENDBRANCH 63 64
ENDBRANCH 62 63
ENDBRANCH 1 62
TORSDOF 28
ENDMDL
