MODEL 1
USER: ADFR SOLUTION from run 108
USER: SCORE 17.059233 LL:  -3.040 LR: -15.454 RR:   0.000 FEB: -10.979
USER: RMSD 2.430154
USER: SEED 107
USER: STATUS no improvement in best in 1 clusters for 5 generations
USER: GENES 17
USER: genes 0 Translation |==|  0.51267 0.55235 0.49628
USER: genes 1 Rotation |==|  0.53647 0.47267 0.41487 0.99059
USER: genes 2 Torsion [C]-N--CA-[CB] |==|  0.36886
USER: genes 3 Torsion [N]-CA--C-[N] |==|  0.90371
USER: genes 4 Torsion [C]-N--CA-[C] |==|  0.18814
USER: genes 5 Torsion [N]-CA--CB-[CG] |==|  0.82208
USER: genes 6 Torsion [CA]-CB--CG-[CD2] |==|  0.35900
USER: genes 7 Torsion [N]-CA--C-[OXT] |==|  0.42388
USER: genes 8 Torsion [N]-CA--CB-[CG2] |==|  0.73598
USER: genes 9 Torsion [CA]-CB--OG1-[HG1] |==|  0.94007
USER: genes 10 Torsion [N]-C--CA-[N] |==|  0.31340
USER: genes 11 Torsion [C]-CA--CB-[CG] |==|  0.30445
USER: genes 12 Torsion [CA]-CB--CG-[CD] |==|  0.39479
USER: genes 13 Torsion [CB]-CG--CD-[OE1] |==|  0.30832
USER: genes 14 Torsion [C]-CA--N-[C] |==|  0.71223
USER: genes 15 Torsion [N]-C--CA-[N] |==|  0.97648
USER: genes 16 Torsion [C]-CA--N-[H3] |==|  0.39202
ROOT
ATOM      1  C   GLU S   2     -11.439  14.197  33.058  1.00 67.93 LIG 0.24  C 
ATOM      2 O    GLU S   2     -11.901  15.346  33.070  1.00 66.60 LIG-0.27  OA
ATOM      3  N   THR S   3     -10.226  13.906  32.606  1.00 66.34 LIG-0.34  N 
ATOM      4 H    THR S   3      -9.904  13.108  32.587  1.00 66.34 LIG 0.16  HD
ENDROOT
BRANCH 3 5
ATOM      5  CA  THR S   3      -9.316  14.924  32.097  1.00 65.04 LIG 0.20  C 
BRANCH 5 6
ATOM      6  C   THR S   3      -9.229  14.858  30.580  1.00 64.78 LIG 0.24  C 
ATOM      7 O    THR S   3      -9.085  15.873  29.889  1.00 64.25 LIG-0.27  OA
ATOM      8  N   PHE S   4      -9.315  13.636  30.073  1.00 64.25 LIG-0.34  N 
ATOM      9 H    PHE S   4      -9.427  12.930  30.552  1.00 64.25 LIG 0.16  HD
BRANCH 8 10
ATOM     10  CA  PHE S   4      -9.227  13.372  28.646  1.00 63.65 LIG 0.19  C 
BRANCH 10 11
ATOM     11  CB  PHE S   4     -10.218  14.251  27.916  1.00 60.49 LIG 0.07  C 
BRANCH 11 12
ATOM     12  CG  PHE S   4     -11.629  13.962  28.255  1.00 55.48 LIG-0.06  A 
ATOM     13  CD2 PHE S   4     -12.485  14.985  28.631  1.00 51.26 LIG 0.01  A 
ATOM     14  CE2 PHE S   4     -13.788  14.708  29.016  1.00 48.18 LIG 0.00  A 
ATOM     15  CZ  PHE S   4     -14.251  13.416  29.011  1.00 46.44 LIG 0.00  A 
ATOM     16  CE1 PHE S   4     -13.411  12.385  28.628  1.00 48.00 LIG 0.00  A 
ATOM     17  CD1 PHE S   4     -12.103  12.663  28.238  1.00 50.38 LIG 0.01  A 
ENDBRANCH 11 12
ENDBRANCH 10 11
BRANCH 10 18
ATOM     18  C   PHE S   4      -7.854  13.650  28.092  1.00 64.82 LIG 0.20  C 
ATOM     19 O    PHE S   4      -7.149  14.527  28.639  1.00 66.03 LIG-0.65  OA
ATOM     20 OXT  PHE S   4      -7.521  12.997  27.084  1.00 65.83 LIG-0.65  OA
ENDBRANCH 10 18
ENDBRANCH 8 10
ENDBRANCH 5 6
BRANCH 5 21
ATOM     21  CB  THR S   3      -7.935  14.728  32.710  1.00 64.83 LIG 0.15  C 
ATOM     22  CG2 THR S   3      -7.751  15.606  33.932  1.00 63.45 LIG 0.04  C 
BRANCH 21 23
ATOM     23 OG1  THR S   3      -7.802  13.358  33.095  1.00 64.80 LIG-0.39  OA
ATOM     24 HG1  THR S   3      -8.565  13.018  33.187  1.00 64.80 LIG 0.21  HD
ENDBRANCH 21 23
ENDBRANCH 5 21
ENDBRANCH 3 5
BRANCH 1 25
ATOM     25  CA  GLU S   2     -12.245  12.997  33.583  1.00 70.09 LIG 0.18  C 
BRANCH 25 26
ATOM     26  CB  GLU S   2     -13.595  12.895  32.867  1.00 72.94 LIG 0.04  C 
BRANCH 26 27
ATOM     27  CG  GLU S   2     -13.677  11.699  31.920  1.00 78.29 LIG 0.12  C 
BRANCH 27 28
ATOM     28  CD  GLU S   2     -15.036  11.028  31.913  1.00 81.85 LIG 0.17  C 
ATOM     29 OE1  GLU S   2     -15.747  11.122  30.890  1.00 85.61 LIG-0.65  OA
ATOM     30 OE2  GLU S   2     -15.398  10.404  32.937  1.00 84.00 LIG-0.65  OA
ENDBRANCH 27 28
ENDBRANCH 26 27
ENDBRANCH 25 26
BRANCH 25 31
ATOM     31  N   GLU S   2     -12.479  13.049  35.026  1.00 70.96 LIG-0.35  N 
ATOM     32  C   ALA S   1     -11.788  12.290  35.874  1.00 72.19 LIG 0.25  C 
ATOM     33 O    ALA S   1     -10.898  11.519  35.504  1.00 72.37 LIG-0.27  OA
ATOM     34 H    GLU S   2     -13.090  13.604  35.268  1.00 70.96 LIG 0.16  HD
BRANCH 32 35
ATOM     35  CA  ALA S   1     -12.141  12.412  37.363  1.00 72.54 LIG 0.27  C 
ATOM     36  CB  ALA S   1     -12.728  11.098  37.880  1.00 73.45 LIG 0.05  C 
BRANCH 35 37
ATOM     37  N   ALA S   1     -13.090  13.537  37.635  1.00 73.25 LIG-0.07  N 
ATOM     38 H2   ALA S   1     -13.523  13.748  36.887  1.00 73.25 LIG 0.28  HD
ATOM     39 H3   ALA S   1     -13.677  13.287  38.256  1.00 73.25 LIG 0.28  HD
ATOM     40 H1   ALA S   1     -12.636  14.245  37.925  1.00 73.25 LIG 0.28  HD
ENDBRANCH 35 37
ENDBRANCH 32 35
ENDBRANCH 25 31
ENDBRANCH 1 25
TORSDOF 15
ENDMDL
