MODEL 1
USER: ADFR SOLUTION from run 92
USER: SCORE 17.372919 LL:  -2.719 LR: -15.610 RR:   0.000 FEB: -10.837
USER: RMSD 3.798918
USER: SEED 91
USER: STATUS no improvement in best in 5 clusters for 5 generations
USER: GENES 18
USER: genes 0 Translation |==|  0.50039 0.47597 0.43356
USER: genes 1 Rotation |==|  0.39195 0.49299 0.57282 0.98267
USER: genes 2 Torsion [N]-CA--C-[N] |==|  0.82918
USER: genes 3 Torsion [C]-N--CA-[CB] |==|  0.46107
USER: genes 4 Torsion [N]-CA--CB-[CG] |==|  0.91602
USER: genes 5 Torsion [CA]-CB--CG-[OD2] |==|  0.69389
USER: genes 6 Torsion [N]-CA--C-[O] |==|  0.19052
USER: genes 7 Torsion [C]-CA--CB-[CG] |==|  0.44352
USER: genes 8 Torsion [CA]-CB--CG-[CD2] |==|  0.69433
USER: genes 9 Torsion [C]-CA--N-[C] |==|  0.67600
USER: genes 10 Torsion [N]-C--CA-[N] |==|  0.16861
USER: genes 11 Torsion [C]-CA--N-[C] |==|  0.62174
USER: genes 12 Torsion [N]-C--CA-[N] |==|  0.13451
USER: genes 13 Torsion [C]-CA--CB-[CG] |==|  0.39077
USER: genes 14 Torsion [CA]-CB--CG-[OD2] |==|  0.41603
USER: genes 15 Torsion [C]-CA--CB-[CG] |==|  0.68310
USER: genes 16 Torsion [CA]-CB--CG-[CD] |==|  0.72396
USER: genes 17 Torsion [CB]-CG--CD-[OE2] |==|  0.63002
ROOT
ATOM      1  CA  TRP G 500      -9.807 -42.817  18.972  1.00 57.70 LIG 0.18  C 
ENDROOT
BRANCH 1 2
ATOM      2  C   TRP G 500     -10.236 -43.869  19.989  1.00 58.91 LIG 0.24  C 
ATOM      3 O    TRP G 500     -11.042 -44.744  19.670  1.00 59.13 LIG-0.27  OA
ATOM      4  N   ASP G 501      -9.702 -43.795  21.205  1.00 60.05 LIG-0.35  N 
ATOM      5 H    ASP G 501      -9.142 -43.192  21.454  1.00 60.05 LIG 0.16  HD
BRANCH 4 6
ATOM      6  CA  ASP G 501     -10.049 -44.773  22.232  1.00 61.20 LIG 0.17  C 
BRANCH 6 7
ATOM      7  CB  ASP G 501      -9.070 -44.693  23.405  1.00 62.64 LIG 0.15  C 
BRANCH 7 8
ATOM      8  CG  ASP G 501      -7.681 -44.248  22.974  1.00 64.46 LIG 0.17  C 
ATOM      9 OD2  ASP G 501      -6.748 -45.081  23.008  1.00 65.00 LIG-0.65  OA
ATOM     10 OD1  ASP G 501      -7.524 -43.068  22.590  1.00 64.87 LIG-0.65  OA
ENDBRANCH 7 8
ENDBRANCH 6 7
BRANCH 6 11
ATOM     11  C   ASP G 501     -11.471 -44.544  22.745  1.00 61.58 LIG 0.22  C 
ATOM     12 O    ASP G 501     -12.413 -44.781  21.956  1.00 60.92 LIG-0.29  OA
ENDBRANCH 6 11
ENDBRANCH 4 6
ENDBRANCH 1 2
BRANCH 1 13
ATOM     13  CB  TRP G 500      -8.306 -42.940  18.695  1.00 52.85 LIG 0.07  C 
BRANCH 13 14
ATOM     14  CG  TRP G 500      -7.896 -42.307  17.399  1.00 47.47 LIG-0.03  A 
ATOM     15  CD2 TRP G 500      -7.460 -42.986  16.215  1.00 44.29 LIG-0.00  A 
ATOM     16  CE3 TRP G 500      -7.268 -44.335  15.881  1.00 42.43 LIG 0.01  A 
ATOM     17  CE2 TRP G 500      -7.191 -41.996  15.239  1.00 43.87 LIG 0.04  A 
ATOM     18  CZ3 TRP G 500      -6.817 -44.651  14.597  1.00 40.94 LIG 0.00  A 
ATOM     19  CH2 TRP G 500      -6.557 -43.641  13.649  1.00 40.39 LIG 0.00  A 
ATOM     20  CZ2 TRP G 500      -6.738 -42.314  13.948  1.00 41.47 LIG 0.03  A 
ATOM     21  NE1 TRP G 500      -7.455 -40.777  15.808  1.00 44.24 LIG-0.36  N 
ATOM     22  CD1 TRP G 500      -7.876 -40.972  17.104  1.00 45.90 LIG 0.10  A 
ATOM     23 HE1  TRP G 500      -7.372 -40.014  15.418  1.00 44.24 LIG 0.17  HD
ENDBRANCH 13 14
ENDBRANCH 1 13
BRANCH 1 24
ATOM     24  N   TRP G 500     -10.134 -41.448  19.344  1.00 59.87 LIG-0.35  N 
ATOM     25  C   GLU G 499     -10.975 -40.711  18.624  1.00 62.14 LIG 0.24  C 
ATOM     26 O    GLU G 499     -11.541 -41.132  17.611  1.00 62.68 LIG-0.27  OA
ATOM     27 H    TRP G 500      -9.740 -41.170  20.056  1.00 59.87 LIG 0.16  HD
BRANCH 25 28
ATOM     28  CA  GLU G 499     -11.216 -39.289  19.124  1.00 62.75 LIG 0.18  C 
BRANCH 28 29
ATOM     29  N   GLU G 499      -9.968 -38.534  19.135  1.00 64.36 LIG-0.35  N 
ATOM     30 H    GLU G 499      -9.481 -38.639  18.434  1.00 64.36 LIG 0.16  HD
ATOM     31  C   ASP G 498      -9.639 -37.755  20.162  1.00 65.69 LIG 0.26  C 
ATOM     32 O    ASP G 498     -10.355 -37.622  21.157  1.00 66.78 LIG-0.27  OA
BRANCH 31 33
ATOM     33  CA  ASP G 498      -8.308 -37.013  20.056  1.00 65.54 LIG 0.41  C 
ATOM     34  N   ASP G 498      -8.218 -36.345  18.726  1.00 65.34 LIG 0.61  N 
BRANCH 33 35
ATOM     35  CB  ASP G 498      -8.208 -35.969  21.175  1.00 65.84 LIG 0.16  C 
BRANCH 35 36
ATOM     36  CG  ASP G 498      -6.813 -35.879  21.768  1.00 65.00 LIG 0.17  C 
ATOM     37 OD2  ASP G 498      -6.438 -34.777  22.222  1.00 65.16 LIG-0.65  OA
ATOM     38 OD1  ASP G 498      -6.093 -36.901  21.780  1.00 63.97 LIG-0.65  OA
ENDBRANCH 35 36
ENDBRANCH 33 35
ENDBRANCH 31 33
ENDBRANCH 28 29
BRANCH 28 39
ATOM     39  CB  GLU G 499     -12.240 -38.598  18.219  1.00 61.39 LIG 0.04  C 
BRANCH 39 40
ATOM     40  CG  GLU G 499     -11.680 -37.429  17.426  1.00 60.98 LIG 0.12  C 
BRANCH 40 41
ATOM     41  CD  GLU G 499     -12.001 -36.088  18.057  1.00 61.07 LIG 0.17  C 
ATOM     42 OE2  GLU G 499     -12.438 -35.176  17.324  1.00 60.51 LIG-0.65  OA
ATOM     43 OE1  GLU G 499     -11.824 -35.945  19.286  1.00 60.30 LIG-0.65  OA
ENDBRANCH 40 41
ENDBRANCH 39 40
ENDBRANCH 28 39
ENDBRANCH 25 28
ENDBRANCH 1 24
TORSDOF 16
ENDMDL
MODEL 2
USER: ADFR SOLUTION from run 155
USER: SCORE 16.653506 LL:  -2.791 LR: -15.350 RR:   0.000 FEB: -10.577
USER: RMSD 4.936331
USER: SEED 154
USER: STATUS no improvement in best in 6 clusters for 5 generations
USER: GENES 18
USER: genes 0 Translation |==|  0.46868 0.46576 0.42610
USER: genes 1 Rotation |==|  0.36953 0.37541 0.74508 0.89673
USER: genes 2 Torsion [N]-CA--C-[N] |==|  0.80053
USER: genes 3 Torsion [C]-N--CA-[CB] |==|  0.40595
USER: genes 4 Torsion [N]-CA--CB-[CG] |==|  0.82835
USER: genes 5 Torsion [CA]-CB--CG-[OD2] |==|  0.25855
USER: genes 6 Torsion [N]-CA--C-[O] |==|  0.17339
USER: genes 7 Torsion [C]-CA--CB-[CG] |==|  0.37967
USER: genes 8 Torsion [CA]-CB--CG-[CD2] |==|  0.84459
USER: genes 9 Torsion [C]-CA--N-[C] |==|  0.20056
USER: genes 10 Torsion [N]-C--CA-[N] |==|  0.59483
USER: genes 11 Torsion [C]-CA--N-[C] |==|  0.71128
USER: genes 12 Torsion [N]-C--CA-[N] |==|  0.80958
USER: genes 13 Torsion [C]-CA--CB-[CG] |==|  0.70328
USER: genes 14 Torsion [CA]-CB--CG-[OD2] |==|  0.35194
USER: genes 15 Torsion [C]-CA--CB-[CG] |==|  0.74231
USER: genes 16 Torsion [CA]-CB--CG-[CD] |==|  0.54247
USER: genes 17 Torsion [CB]-CG--CD-[OE2] |==|  0.29092
ROOT
ATOM      1  CA  TRP G 500     -10.306 -43.046  18.820  1.00 57.70 LIG 0.18  C 
ENDROOT
BRANCH 1 2
ATOM      2  C   TRP G 500     -10.155 -44.106  19.908  1.00 58.91 LIG 0.24  C 
ATOM      3 O    TRP G 500     -10.109 -45.298  19.606  1.00 59.13 LIG-0.27  OA
ATOM      4  N   ASP G 501     -10.071 -43.681  21.165  1.00 60.05 LIG-0.35  N 
ATOM      5 H    ASP G 501     -10.106 -42.854  21.403  1.00 60.05 LIG 0.16  HD
BRANCH 4 6
ATOM      6  CA  ASP G 501      -9.910 -44.629  22.264  1.00 61.20 LIG 0.17  C 
BRANCH 6 7
ATOM      7  CB  ASP G 501      -9.049 -44.025  23.375  1.00 62.64 LIG 0.15  C 
BRANCH 7 8
ATOM      8  CG  ASP G 501      -7.642 -43.690  22.904  1.00 64.46 LIG 0.17  C 
ATOM      9 OD2  ASP G 501      -7.409 -42.534  22.487  1.00 65.00 LIG-0.65  OA
ATOM     10 OD1  ASP G 501      -6.765 -44.581  22.963  1.00 64.87 LIG-0.65  OA
ENDBRANCH 7 8
ENDBRANCH 6 7
BRANCH 6 11
ATOM     11  C   ASP G 501     -11.267 -45.033  22.839  1.00 61.58 LIG 0.22  C 
ATOM     12 O    ASP G 501     -12.062 -45.627  22.078  1.00 60.92 LIG-0.29  OA
ENDBRANCH 6 11
ENDBRANCH 4 6
ENDBRANCH 1 2
BRANCH 1 13
ATOM     13  CB  TRP G 500      -9.203 -41.994  18.960  1.00 52.85 LIG 0.07  C 
BRANCH 13 14
ATOM     14  CG  TRP G 500      -8.593 -41.609  17.645  1.00 47.47 LIG-0.03  A 
ATOM     15  CD2 TRP G 500      -7.990 -42.491  16.690  1.00 44.29 LIG-0.00  A 
ATOM     16  CE3 TRP G 500      -7.766 -43.875  16.649  1.00 42.43 LIG 0.01  A 
ATOM     17  CE2 TRP G 500      -7.563 -41.697  15.598  1.00 43.87 LIG 0.04  A 
ATOM     18  CZ3 TRP G 500      -7.130 -44.420  15.531  1.00 40.94 LIG 0.00  A 
ATOM     19  CH2 TRP G 500      -6.716 -43.602  14.461  1.00 40.39 LIG 0.00  A 
ATOM     20  CZ2 TRP G 500      -6.923 -42.245  14.475  1.00 41.47 LIG 0.03  A 
ATOM     21  NE1 TRP G 500      -7.895 -40.398  15.881  1.00 44.24 LIG-0.36  N 
ATOM     22  CD1 TRP G 500      -8.511 -40.353  17.111  1.00 45.90 LIG 0.10  A 
ATOM     23 HE1  TRP G 500      -7.744 -39.721  15.372  1.00 44.24 LIG 0.17  HD
ENDBRANCH 13 14
ENDBRANCH 1 13
BRANCH 1 24
ATOM     24  N   TRP G 500     -11.610 -42.399  18.784  1.00 59.87 LIG-0.35  N 
ATOM     25  C   GLU G 499     -11.983 -41.530  19.719  1.00 62.14 LIG 0.24  C 
ATOM     26 O    GLU G 499     -11.258 -41.203  20.663  1.00 62.68 LIG-0.27  OA
ATOM     27 H    TRP G 500     -12.102 -42.628  18.117  1.00 59.87 LIG 0.16  HD
BRANCH 25 28
ATOM     28  CA  GLU G 499     -13.381 -40.938  19.562  1.00 62.75 LIG 0.18  C 
BRANCH 28 29
ATOM     29  N   GLU G 499     -13.406 -39.557  20.033  1.00 64.36 LIG-0.35  N 
ATOM     30 H    GLU G 499     -13.049 -38.991  19.494  1.00 64.36 LIG 0.16  HD
ATOM     31  C   ASP G 498     -13.944 -39.234  21.205  1.00 65.69 LIG 0.26  C 
ATOM     32 O    ASP G 498     -14.450 -40.067  21.961  1.00 66.78 LIG-0.27  OA
BRANCH 31 33
ATOM     33  CA  ASP G 498     -13.913 -37.756  21.587  1.00 65.54 LIG 0.41  C 
ATOM     34  N   ASP G 498     -12.504 -37.342  21.850  1.00 65.34 LIG 0.61  N 
BRANCH 33 35
ATOM     35  CB  ASP G 498     -14.503 -36.915  20.451  1.00 65.84 LIG 0.16  C 
BRANCH 35 36
ATOM     36  CG  ASP G 498     -13.446 -36.141  19.684  1.00 65.00 LIG 0.17  C 
ATOM     37 OD2  ASP G 498     -13.407 -36.272  18.442  1.00 65.16 LIG-0.65  OA
ATOM     38 OD1  ASP G 498     -12.655 -35.408  20.317  1.00 63.97 LIG-0.65  OA
ENDBRANCH 35 36
ENDBRANCH 33 35
ENDBRANCH 31 33
ENDBRANCH 28 29
BRANCH 28 39
ATOM     39  CB  GLU G 499     -13.799 -40.999  18.090  1.00 61.39 LIG 0.04  C 
BRANCH 39 40
ATOM     40  CG  GLU G 499     -13.473 -39.743  17.299  1.00 60.98 LIG 0.12  C 
BRANCH 40 41
ATOM     41  CD  GLU G 499     -14.211 -39.678  15.975  1.00 61.07 LIG 0.17  C 
ATOM     42 OE2  GLU G 499     -15.183 -38.901  15.875  1.00 60.51 LIG-0.65  OA
ATOM     43 OE1  GLU G 499     -13.816 -40.397  15.032  1.00 60.30 LIG-0.65  OA
ENDBRANCH 40 41
ENDBRANCH 39 40
ENDBRANCH 28 39
ENDBRANCH 25 28
ENDBRANCH 1 24
TORSDOF 16
ENDMDL
MODEL 3
USER: ADFR SOLUTION from run 148
USER: SCORE 16.740337 LL:  -2.745 LR: -14.699 RR:   0.000 FEB:  -9.926
USER: RMSD 3.603406
USER: SEED 147
USER: STATUS no improvement in best in 5 clusters for 5 generations
USER: GENES 18
USER: genes 0 Translation |==|  0.48065 0.48774 0.43611
USER: genes 1 Rotation |==|  0.40146 0.45908 0.61392 0.97501
USER: genes 2 Torsion [N]-CA--C-[N] |==|  0.80344
USER: genes 3 Torsion [C]-N--CA-[CB] |==|  0.47236
USER: genes 4 Torsion [N]-CA--CB-[CG] |==|  0.88737
USER: genes 5 Torsion [CA]-CB--CG-[OD2] |==|  0.20538
USER: genes 6 Torsion [N]-CA--C-[O] |==|  0.21858
USER: genes 7 Torsion [C]-CA--CB-[CG] |==|  0.39779
USER: genes 8 Torsion [CA]-CB--CG-[CD2] |==|  0.74623
USER: genes 9 Torsion [C]-CA--N-[C] |==|  0.62051
USER: genes 10 Torsion [N]-C--CA-[N] |==|  0.94278
USER: genes 11 Torsion [C]-CA--N-[C] |==|  0.74960
USER: genes 12 Torsion [N]-C--CA-[N] |==|  0.51282
USER: genes 13 Torsion [C]-CA--CB-[CG] |==|  0.38226
USER: genes 14 Torsion [CA]-CB--CG-[OD2] |==|  0.25286
USER: genes 15 Torsion [C]-CA--CB-[CG] |==|  0.27446
USER: genes 16 Torsion [CA]-CB--CG-[CD] |==|  0.22317
USER: genes 17 Torsion [CB]-CG--CD-[OE2] |==|  0.08793
ROOT
ATOM      1  CA  TRP G 500     -10.118 -42.552  19.023  1.00 57.70 LIG 0.18  C 
ENDROOT
BRANCH 1 2
ATOM      2  C   TRP G 500     -10.420 -43.722  19.954  1.00 58.91 LIG 0.24  C 
ATOM      3 O    TRP G 500     -11.155 -44.636  19.579  1.00 59.13 LIG-0.27  OA
ATOM      4  N   ASP G 501      -9.857 -43.704  21.159  1.00 60.05 LIG-0.35  N 
ATOM      5 H    ASP G 501      -9.344 -43.075  21.446  1.00 60.05 LIG 0.16  HD
BRANCH 4 6
ATOM      6  CA  ASP G 501     -10.083 -44.793  22.105  1.00 61.20 LIG 0.17  C 
BRANCH 6 7
ATOM      7  CB  ASP G 501      -9.144 -44.667  23.306  1.00 62.64 LIG 0.15  C 
BRANCH 7 8
ATOM      8  CG  ASP G 501      -7.740 -44.241  22.907  1.00 64.46 LIG 0.17  C 
ATOM      9 OD2  ASP G 501      -7.548 -43.053  22.567  1.00 65.00 LIG-0.65  OA
ATOM     10 OD1  ASP G 501      -6.825 -45.094  22.944  1.00 64.87 LIG-0.65  OA
ENDBRANCH 7 8
ENDBRANCH 6 7
BRANCH 6 11
ATOM     11  C   ASP G 501     -11.531 -44.799  22.593  1.00 61.58 LIG 0.22  C 
ATOM     12 O    ASP G 501     -12.395 -45.286  21.829  1.00 60.92 LIG-0.29  OA
ENDBRANCH 6 11
ENDBRANCH 4 6
ENDBRANCH 1 2
BRANCH 1 13
ATOM     13  CB  TRP G 500      -8.604 -42.373  18.885  1.00 52.85 LIG 0.07  C 
BRANCH 13 14
ATOM     14  CG  TRP G 500      -8.187 -41.964  17.503  1.00 47.47 LIG-0.03  A 
ATOM     15  CD2 TRP G 500      -7.820 -42.836  16.427  1.00 44.29 LIG-0.00  A 
ATOM     16  CE3 TRP G 500      -7.715 -44.229  16.295  1.00 42.43 LIG 0.01  A 
ATOM     17  CE2 TRP G 500      -7.514 -42.019  15.312  1.00 43.87 LIG 0.04  A 
ATOM     18  CZ3 TRP G 500      -7.314 -44.758  15.066  1.00 40.94 LIG 0.00  A 
ATOM     19  CH2 TRP G 500      -7.017 -43.918  13.975  1.00 40.39 LIG 0.00  A 
ATOM     20  CZ2 TRP G 500      -7.111 -42.552  14.077  1.00 41.47 LIG 0.03  A 
ATOM     21  NE1 TRP G 500      -7.692 -40.716  15.697  1.00 44.24 LIG-0.36  N 
ATOM     22  CD1 TRP G 500      -8.094 -40.691  17.013  1.00 45.90 LIG 0.10  A 
ATOM     23 HE1  TRP G 500      -7.573 -40.026  15.197  1.00 44.24 LIG 0.17  HD
ENDBRANCH 13 14
ENDBRANCH 1 13
BRANCH 1 24
ATOM     24  N   TRP G 500     -10.734 -41.293  19.415  1.00 59.87 LIG-0.35  N 
ATOM     25  C   GLU G 499     -11.319 -40.496  18.526  1.00 62.14 LIG 0.24  C 
ATOM     26 O    GLU G 499     -11.393 -40.767  17.324  1.00 62.68 LIG-0.27  OA
ATOM     27 H    TRP G 500     -10.685 -41.120  20.257  1.00 59.87 LIG 0.16  HD
BRANCH 25 28
ATOM     28  CA  GLU G 499     -11.914 -39.202  19.075  1.00 62.75 LIG 0.18  C 
BRANCH 28 29
ATOM     29  N   GLU G 499     -12.149 -39.318  20.511  1.00 64.36 LIG-0.35  N 
ATOM     30 H    GLU G 499     -11.485 -39.076  21.001  1.00 64.36 LIG 0.16  HD
ATOM     31  C   ASP G 498     -13.306 -39.764  20.990  1.00 65.69 LIG 0.26  C 
ATOM     32 O    ASP G 498     -14.243 -40.105  20.265  1.00 66.78 LIG-0.27  OA
BRANCH 31 33
ATOM     33  CA  ASP G 498     -13.433 -39.837  22.511  1.00 65.54 LIG 0.41  C 
ATOM     34  N   ASP G 498     -14.740 -40.459  22.869  1.00 65.34 LIG 0.61  N 
BRANCH 33 35
ATOM     35  CB  ASP G 498     -12.281 -40.668  23.087  1.00 65.84 LIG 0.16  C 
BRANCH 35 36
ATOM     36  CG  ASP G 498     -11.688 -40.055  24.343  1.00 65.00 LIG 0.17  C 
ATOM     37 OD2  ASP G 498     -12.164 -40.401  25.446  1.00 65.16 LIG-0.65  OA
ATOM     38 OD1  ASP G 498     -10.755 -39.231  24.231  1.00 63.97 LIG-0.65  OA
ENDBRANCH 35 36
ENDBRANCH 33 35
ENDBRANCH 31 33
ENDBRANCH 28 29
BRANCH 28 39
ATOM     39  CB  GLU G 499     -10.958 -38.041  18.791  1.00 61.39 LIG 0.04  C 
BRANCH 39 40
ATOM     40  CG  GLU G 499     -11.330 -37.214  17.571  1.00 60.98 LIG 0.12  C 
BRANCH 40 41
ATOM     41  CD  GLU G 499     -12.427 -36.207  17.860  1.00 61.07 LIG 0.17  C 
ATOM     42 OE2  GLU G 499     -12.493 -35.713  19.005  1.00 60.51 LIG-0.65  OA
ATOM     43 OE1  GLU G 499     -13.218 -35.901  16.942  1.00 60.30 LIG-0.65  OA
ENDBRANCH 40 41
ENDBRANCH 39 40
ENDBRANCH 28 39
ENDBRANCH 25 28
ENDBRANCH 1 24
TORSDOF 16
ENDMDL
MODEL 4
USER: ADFR SOLUTION from run 159
USER: SCORE 18.004881 LL:  -3.629 LR: -14.474 RR:   0.000 FEB:  -9.701
USER: RMSD 3.959029
USER: SEED 158
USER: STATUS no improvement in best in 5 clusters for 5 generations
USER: GENES 18
USER: genes 0 Translation |==|  0.57137 0.53344 0.37541
USER: genes 1 Rotation |==|  0.42860 0.48501 0.60777 0.98277
USER: genes 2 Torsion [N]-CA--C-[N] |==|  0.92567
USER: genes 3 Torsion [C]-N--CA-[CB] |==|  0.46517
USER: genes 4 Torsion [N]-CA--CB-[CG] |==|  0.75850
USER: genes 5 Torsion [CA]-CB--CG-[OD2] |==|  0.80475
USER: genes 6 Torsion [N]-CA--C-[O] |==|  0.20012
USER: genes 7 Torsion [C]-CA--CB-[CG] |==|  0.28413
USER: genes 8 Torsion [CA]-CB--CG-[CD2] |==|  0.81427
USER: genes 9 Torsion [C]-CA--N-[C] |==|  0.77415
USER: genes 10 Torsion [N]-C--CA-[N] |==|  0.90636
USER: genes 11 Torsion [C]-CA--N-[C] |==|  0.83039
USER: genes 12 Torsion [N]-C--CA-[N] |==|  0.69354
USER: genes 13 Torsion [C]-CA--CB-[CG] |==|  0.74948
USER: genes 14 Torsion [CA]-CB--CG-[OD2] |==|  0.11312
USER: genes 15 Torsion [C]-CA--CB-[CG] |==|  0.22753
USER: genes 16 Torsion [CA]-CB--CG-[CD] |==|  0.26129
USER: genes 17 Torsion [CB]-CG--CD-[OE2] |==|  0.63999
ROOT
ATOM      1  CA  TRP G 500      -8.689 -41.524  17.794  1.00 57.70 LIG 0.18  C 
ENDROOT
BRANCH 1 2
ATOM      2  C   TRP G 500      -8.933 -42.761  18.653  1.00 58.91 LIG 0.24  C 
ATOM      3 O    TRP G 500      -9.014 -43.871  18.126  1.00 59.13 LIG-0.27  OA
ATOM      4  N   ASP G 501      -9.045 -42.579  19.965  1.00 60.05 LIG-0.35  N 
ATOM      5 H    ASP G 501      -8.997 -41.815  20.356  1.00 60.05 LIG 0.16  HD
BRANCH 4 6
ATOM      6  CA  ASP G 501      -9.265 -43.713  20.859  1.00 61.20 LIG 0.17  C 
BRANCH 6 7
ATOM      7  CB  ASP G 501      -9.050 -43.300  22.316  1.00 62.64 LIG 0.15  C 
BRANCH 7 8
ATOM      8  CG  ASP G 501      -7.596 -43.416  22.746  1.00 64.46 LIG 0.17  C 
ATOM      9 OD2  ASP G 501      -7.099 -44.557  22.879  1.00 65.00 LIG-0.65  OA
ATOM     10 OD1  ASP G 501      -6.946 -42.366  22.941  1.00 64.87 LIG-0.65  OA
ENDBRANCH 7 8
ENDBRANCH 6 7
BRANCH 6 11
ATOM     11  C   ASP G 501     -10.678 -44.271  20.694  1.00 61.58 LIG 0.22  C 
ATOM     12 O    ASP G 501     -10.930 -44.903  19.644  1.00 60.92 LIG-0.29  OA
ENDBRANCH 6 11
ENDBRANCH 4 6
ENDBRANCH 1 2
BRANCH 1 13
ATOM     13  CB  TRP G 500      -7.195 -41.388  17.487  1.00 52.85 LIG 0.07  C 
BRANCH 13 14
ATOM     14  CG  TRP G 500      -6.841 -41.834  16.100  1.00 47.47 LIG-0.03  A 
ATOM     15  CD2 TRP G 500      -6.909 -43.170  15.587  1.00 44.29 LIG-0.00  A 
ATOM     16  CE3 TRP G 500      -7.278 -44.407  16.137  1.00 42.43 LIG 0.01  A 
ATOM     17  CE2 TRP G 500      -6.494 -43.121  14.234  1.00 43.87 LIG 0.04  A 
ATOM     18  CZ3 TRP G 500      -7.223 -45.545  15.328  1.00 40.94 LIG 0.00  A 
ATOM     19  CH2 TRP G 500      -6.805 -45.462  13.985  1.00 40.39 LIG 0.00  A 
ATOM     20  CZ2 TRP G 500      -6.439 -44.265  13.421  1.00 41.47 LIG 0.03  A 
ATOM     21  NE1 TRP G 500      -6.193 -41.815  13.944  1.00 44.24 LIG-0.36  N 
ATOM     22  CD1 TRP G 500      -6.401 -41.050  15.069  1.00 45.90 LIG 0.10  A 
ATOM     23 HE1  TRP G 500      -5.918 -41.522  13.183  1.00 44.24 LIG 0.17  HD
ENDBRANCH 13 14
ENDBRANCH 1 13
BRANCH 1 24
ATOM     24  N   TRP G 500      -9.195 -40.283  18.364  1.00 59.87 LIG-0.35  N 
ATOM     25  C   GLU G 499     -10.474 -39.938  18.259  1.00 62.14 LIG 0.24  C 
ATOM     26 O    GLU G 499     -11.317 -40.639  17.692  1.00 62.68 LIG-0.27  OA
ATOM     27 H    TRP G 500      -8.600 -39.808  18.765  1.00 59.87 LIG 0.16  HD
BRANCH 25 28
ATOM     28  CA  GLU G 499     -10.863 -38.605  18.893  1.00 62.75 LIG 0.18  C 
BRANCH 28 29
ATOM     29  N   GLU G 499     -10.065 -38.358  20.089  1.00 64.36 LIG-0.35  N 
ATOM     30 H    GLU G 499      -9.578 -37.650  20.053  1.00 64.36 LIG 0.16  HD
ATOM     31  C   ASP G 498     -10.109 -39.180  21.134  1.00 65.69 LIG 0.26  C 
ATOM     32 O    ASP G 498     -10.816 -40.190  21.161  1.00 66.78 LIG-0.27  OA
BRANCH 31 33
ATOM     33  CA  ASP G 498      -9.231 -38.813  22.329  1.00 65.54 LIG 0.41  C 
ATOM     34  N   ASP G 498      -8.115 -39.795  22.442  1.00 65.34 LIG 0.61  N 
BRANCH 33 35
ATOM     35  CB  ASP G 498      -8.670 -37.399  22.145  1.00 65.84 LIG 0.16  C 
BRANCH 35 36
ATOM     36  CG  ASP G 498      -7.336 -37.389  21.420  1.00 65.00 LIG 0.17  C 
ATOM     37 OD2  ASP G 498      -7.188 -38.165  20.451  1.00 65.16 LIG-0.65  OA
ATOM     38 OD1  ASP G 498      -6.438 -36.614  21.815  1.00 63.97 LIG-0.65  OA
ENDBRANCH 35 36
ENDBRANCH 33 35
ENDBRANCH 31 33
ENDBRANCH 28 29
BRANCH 28 39
ATOM     39  CB  GLU G 499     -10.652 -37.478  17.879  1.00 61.39 LIG 0.04  C 
BRANCH 39 40
ATOM     40  CG  GLU G 499     -11.793 -37.312  16.887  1.00 60.98 LIG 0.12  C 
BRANCH 40 41
ATOM     41  CD  GLU G 499     -12.808 -36.276  17.331  1.00 61.07 LIG 0.17  C 
ATOM     42 OE2  GLU G 499     -14.016 -36.589  17.328  1.00 60.51 LIG-0.65  OA
ATOM     43 OE1  GLU G 499     -12.398 -35.152  17.692  1.00 60.30 LIG-0.65  OA
ENDBRANCH 40 41
ENDBRANCH 39 40
ENDBRANCH 28 39
ENDBRANCH 25 28
ENDBRANCH 1 24
TORSDOF 16
ENDMDL
MODEL 5
USER: ADFR SOLUTION from run 72
USER: SCORE 16.097072 LL:  -2.103 LR: -14.187 RR:   0.000 FEB:  -9.414
USER: RMSD 4.440440
USER: SEED 71
USER: STATUS no improvement in best in 8 clusters for 5 generations
USER: GENES 18
USER: genes 0 Translation |==|  0.51227 0.45833 0.45439
USER: genes 1 Rotation |==|  0.48364 0.62048 0.46408 0.98366
USER: genes 2 Torsion [N]-CA--C-[N] |==|  0.94132
USER: genes 3 Torsion [C]-N--CA-[CB] |==|  0.39325
USER: genes 4 Torsion [N]-CA--CB-[CG] |==|  0.91588
USER: genes 5 Torsion [CA]-CB--CG-[OD2] |==|  0.33631
USER: genes 6 Torsion [N]-CA--C-[O] |==|  0.33566
USER: genes 7 Torsion [C]-CA--CB-[CG] |==|  0.49266
USER: genes 8 Torsion [CA]-CB--CG-[CD2] |==|  0.54849
USER: genes 9 Torsion [C]-CA--N-[C] |==|  0.82732
USER: genes 10 Torsion [N]-C--CA-[N] |==|  0.31256
USER: genes 11 Torsion [C]-CA--N-[C] |==|  0.70997
USER: genes 12 Torsion [N]-C--CA-[N] |==|  0.45547
USER: genes 13 Torsion [C]-CA--CB-[CG] |==|  0.36909
USER: genes 14 Torsion [CA]-CB--CG-[OD2] |==|  0.92949
USER: genes 15 Torsion [C]-CA--CB-[CG] |==|  0.34831
USER: genes 16 Torsion [CA]-CB--CG-[CD] |==|  0.81316
USER: genes 17 Torsion [CB]-CG--CD-[OE2] |==|  0.06100
ROOT
ATOM      1  CA  TRP G 500      -9.620 -43.214  19.393  1.00 57.70 LIG 0.18  C 
ENDROOT
BRANCH 1 2
ATOM      2  C   TRP G 500     -10.178 -44.287  20.323  1.00 58.91 LIG 0.24  C 
ATOM      3 O    TRP G 500     -11.046 -45.061  19.920  1.00 59.13 LIG-0.27  OA
ATOM      4  N   ASP G 501      -9.682 -44.344  21.556  1.00 60.05 LIG-0.35  N 
ATOM      5 H    ASP G 501      -9.079 -43.812  21.862  1.00 60.05 LIG 0.16  HD
BRANCH 4 6
ATOM      6  CA  ASP G 501     -10.151 -45.351  22.502  1.00 61.20 LIG 0.17  C 
BRANCH 6 7
ATOM      7  CB  ASP G 501      -8.990 -45.877  23.349  1.00 62.64 LIG 0.15  C 
BRANCH 7 8
ATOM      8  CG  ASP G 501      -7.666 -45.846  22.604  1.00 64.46 LIG 0.17  C 
ATOM      9 OD2  ASP G 501      -6.722 -45.180  23.085  1.00 65.00 LIG-0.65  OA
ATOM     10 OD1  ASP G 501      -7.563 -46.499  21.542  1.00 64.87 LIG-0.65  OA
ENDBRANCH 7 8
ENDBRANCH 6 7
BRANCH 6 11
ATOM     11  C   ASP G 501     -11.228 -44.776  23.422  1.00 61.58 LIG 0.22  C 
ATOM     12 O    ASP G 501     -12.350 -45.331  23.414  1.00 60.92 LIG-0.29  OA
ENDBRANCH 6 11
ENDBRANCH 4 6
ENDBRANCH 1 2
BRANCH 1 13
ATOM     13  CB  TRP G 500      -8.643 -43.843  18.396  1.00 52.85 LIG 0.07  C 
BRANCH 13 14
ATOM     14  CG  TRP G 500      -8.100 -42.855  17.407  1.00 47.47 LIG-0.03  A 
ATOM     15  CD2 TRP G 500      -7.461 -43.156  16.161  1.00 44.29 LIG-0.00  A 
ATOM     16  CE3 TRP G 500      -7.136 -44.347  15.495  1.00 42.43 LIG 0.01  A 
ATOM     17  CE2 TRP G 500      -7.125 -41.921  15.554  1.00 43.87 LIG 0.04  A 
ATOM     18  CZ3 TRP G 500      -6.492 -44.271  14.258  1.00 40.94 LIG 0.00  A 
ATOM     19  CH2 TRP G 500      -6.171 -43.026  13.681  1.00 40.39 LIG 0.00  A 
ATOM     20  CZ2 TRP G 500      -6.478 -41.845  14.310  1.00 41.47 LIG 0.03  A 
ATOM     21  NE1 TRP G 500      -7.545 -40.923  16.395  1.00 44.24 LIG-0.36  N 
ATOM     22  CD1 TRP G 500      -8.127 -41.491  17.505  1.00 45.90 LIG 0.10  A 
ATOM     23 HE1  TRP G 500      -7.459 -40.079  16.251  1.00 44.24 LIG 0.17  HD
ENDBRANCH 13 14
ENDBRANCH 1 13
BRANCH 1 24
ATOM     24  N   TRP G 500      -8.985 -42.095  20.075  1.00 59.87 LIG-0.35  N 
ATOM     25  C   GLU G 499      -9.665 -41.302  20.897  1.00 62.14 LIG 0.24  C 
ATOM     26 O    GLU G 499     -10.863 -41.461  21.149  1.00 62.68 LIG-0.27  OA
ATOM     27 H    TRP G 500      -8.148 -42.001  19.899  1.00 59.87 LIG 0.16  HD
BRANCH 25 28
ATOM     28  CA  GLU G 499      -8.876 -40.161  21.533  1.00 62.75 LIG 0.18  C 
BRANCH 28 29
ATOM     29  N   GLU G 499      -9.342 -38.875  21.029  1.00 64.36 LIG-0.35  N 
ATOM     30 H    GLU G 499     -10.094 -38.615  21.356  1.00 64.36 LIG 0.16  HD
ATOM     31  C   ASP G 498      -8.639 -38.185  20.135  1.00 65.69 LIG 0.26  C 
ATOM     32 O    ASP G 498      -7.563 -38.580  19.681  1.00 66.78 LIG-0.27  OA
BRANCH 31 33
ATOM     33  CA  ASP G 498      -9.229 -36.849  19.685  1.00 65.54 LIG 0.41  C 
ATOM     34  N   ASP G 498      -8.171 -36.043  19.011  1.00 65.34 LIG 0.61  N 
BRANCH 33 35
ATOM     35  CB  ASP G 498     -10.394 -37.097  18.721  1.00 65.84 LIG 0.16  C 
BRANCH 35 36
ATOM     36  CG  ASP G 498     -11.622 -36.273  19.061  1.00 65.00 LIG 0.17  C 
ATOM     37 OD2  ASP G 498     -11.770 -35.901  20.245  1.00 65.16 LIG-0.65  OA
ATOM     38 OD1  ASP G 498     -12.438 -35.999  18.154  1.00 63.97 LIG-0.65  OA
ENDBRANCH 35 36
ENDBRANCH 33 35
ENDBRANCH 31 33
ENDBRANCH 28 29
BRANCH 28 39
ATOM     39  CB  GLU G 499      -9.035 -40.218  23.055  1.00 61.39 LIG 0.04  C 
BRANCH 39 40
ATOM     40  CG  GLU G 499      -7.721 -40.263  23.817  1.00 60.98 LIG 0.12  C 
BRANCH 40 41
ATOM     41  CD  GLU G 499      -6.959 -41.555  23.593  1.00 61.07 LIG 0.17  C 
ATOM     42 OE2  GLU G 499      -7.209 -42.222  22.568  1.00 60.51 LIG-0.65  OA
ATOM     43 OE1  GLU G 499      -6.103 -41.901  24.435  1.00 60.30 LIG-0.65  OA
ENDBRANCH 40 41
ENDBRANCH 39 40
ENDBRANCH 28 39
ENDBRANCH 25 28
ENDBRANCH 1 24
TORSDOF 16
ENDMDL
MODEL 6
USER: ADFR SOLUTION from run 138
USER: SCORE 16.505465 LL:  -3.305 LR: -14.009 RR:   0.000 FEB:  -9.236
USER: RMSD 3.162995
USER: SEED 137
USER: STATUS no improvement in best in 4 clusters for 5 generations
USER: GENES 18
USER: genes 0 Translation |==|  0.56051 0.53864 0.41901
USER: genes 1 Rotation |==|  0.53108 0.52708 0.55886 0.99481
USER: genes 2 Torsion [N]-CA--C-[N] |==|  0.95163
USER: genes 3 Torsion [C]-N--CA-[CB] |==|  0.44905
USER: genes 4 Torsion [N]-CA--CB-[CG] |==|  0.88651
USER: genes 5 Torsion [CA]-CB--CG-[OD2] |==|  0.16521
USER: genes 6 Torsion [N]-CA--C-[O] |==|  0.15971
USER: genes 7 Torsion [C]-CA--CB-[CG] |==|  0.22353
USER: genes 8 Torsion [CA]-CB--CG-[CD2] |==|  0.75504
USER: genes 9 Torsion [C]-CA--N-[C] |==|  0.57898
USER: genes 10 Torsion [N]-C--CA-[N] |==|  0.04139
USER: genes 11 Torsion [C]-CA--N-[C] |==|  0.71873
USER: genes 12 Torsion [N]-C--CA-[N] |==|  0.65110
USER: genes 13 Torsion [C]-CA--CB-[CG] |==|  0.56447
USER: genes 14 Torsion [CA]-CB--CG-[OD2] |==|  0.42946
USER: genes 15 Torsion [C]-CA--CB-[CG] |==|  0.52224
USER: genes 16 Torsion [CA]-CB--CG-[CD] |==|  0.31017
USER: genes 17 Torsion [CB]-CG--CD-[OE2] |==|  0.87960
ROOT
ATOM      1  CA  TRP G 500      -8.860 -41.407  18.677  1.00 57.70 LIG 0.18  C 
ENDROOT
BRANCH 1 2
ATOM      2  C   TRP G 500      -9.245 -42.821  19.100  1.00 58.91 LIG 0.24  C 
ATOM      3 O    TRP G 500      -9.524 -43.665  18.248  1.00 59.13 LIG-0.27  OA
ATOM      4  N   ASP G 501      -9.254 -43.087  20.403  1.00 60.05 LIG-0.35  N 
ATOM      5 H    ASP G 501      -9.068 -42.514  21.017  1.00 60.05 LIG 0.16  HD
BRANCH 4 6
ATOM      6  CA  ASP G 501      -9.597 -44.420  20.890  1.00 61.20 LIG 0.17  C 
BRANCH 6 7
ATOM      7  CB  ASP G 501      -9.111 -44.609  22.328  1.00 62.64 LIG 0.15  C 
BRANCH 7 8
ATOM      8  CG  ASP G 501      -7.731 -44.015  22.560  1.00 64.46 LIG 0.17  C 
ATOM      9 OD2  ASP G 501      -7.564 -42.791  22.361  1.00 65.00 LIG-0.65  OA
ATOM     10 OD1  ASP G 501      -6.814 -44.770  22.953  1.00 64.87 LIG-0.65  OA
ENDBRANCH 7 8
ENDBRANCH 6 7
BRANCH 6 11
ATOM     11  C   ASP G 501     -11.106 -44.651  20.831  1.00 61.58 LIG 0.22  C 
ATOM     12 O    ASP G 501     -11.666 -44.528  19.718  1.00 60.92 LIG-0.29  OA
ENDBRANCH 6 11
ENDBRANCH 4 6
ENDBRANCH 1 2
BRANCH 1 13
ATOM     13  CB  TRP G 500      -7.458 -41.409  18.061  1.00 52.85 LIG 0.07  C 
BRANCH 13 14
ATOM     14  CG  TRP G 500      -7.450 -41.856  16.629  1.00 47.47 LIG-0.03  A 
ATOM     15  CD2 TRP G 500      -7.333 -43.202  16.154  1.00 44.29 LIG-0.00  A 
ATOM     16  CE3 TRP G 500      -7.188 -44.448  16.782  1.00 42.43 LIG 0.01  A 
ATOM     17  CE2 TRP G 500      -7.384 -43.152  14.739  1.00 43.87 LIG 0.04  A 
ATOM     18  CZ3 TRP G 500      -7.100 -45.594  15.989  1.00 40.94 LIG 0.00  A 
ATOM     19  CH2 TRP G 500      -7.153 -45.510  14.583  1.00 40.39 LIG 0.00  A 
ATOM     20  CZ2 TRP G 500      -7.295 -44.305  13.942  1.00 41.47 LIG 0.03  A 
ATOM     21  NE1 TRP G 500      -7.528 -41.837  14.380  1.00 44.24 LIG-0.36  N 
ATOM     22  CD1 TRP G 500      -7.564 -41.065  15.519  1.00 45.90 LIG 0.10  A 
ATOM     23 HE1  TRP G 500      -7.586 -41.543  13.574  1.00 44.24 LIG 0.17  HD
ENDBRANCH 13 14
ENDBRANCH 1 13
BRANCH 1 24
ATOM     24  N   TRP G 500      -8.934 -40.417  19.742  1.00 59.87 LIG-0.35  N 
ATOM     25  C   GLU G 499      -9.184 -39.136  19.487  1.00 62.14 LIG 0.24  C 
ATOM     26 O    GLU G 499      -9.381 -38.701  18.349  1.00 62.68 LIG-0.27  OA
ATOM     27 H    TRP G 500      -8.804 -40.734  20.531  1.00 59.87 LIG 0.16  HD
BRANCH 25 28
ATOM     28  CA  GLU G 499      -9.221 -38.207  20.698  1.00 62.75 LIG 0.18  C 
BRANCH 28 29
ATOM     29  N   GLU G 499      -8.629 -38.861  21.860  1.00 64.36 LIG-0.35  N 
ATOM     30 H    GLU G 499      -7.769 -38.865  21.867  1.00 64.36 LIG 0.16  HD
ATOM     31  C   ASP G 498      -9.384 -39.396  22.815  1.00 65.69 LIG 0.26  C 
ATOM     32 O    ASP G 498     -10.617 -39.377  22.781  1.00 66.78 LIG-0.27  OA
BRANCH 31 33
ATOM     33  CA  ASP G 498      -8.648 -40.049  23.983  1.00 65.54 LIG 0.41  C 
ATOM     34  N   ASP G 498      -9.126 -41.452  24.146  1.00 65.34 LIG 0.61  N 
BRANCH 33 35
ATOM     35  CB  ASP G 498      -7.139 -40.037  23.716  1.00 65.84 LIG 0.16  C 
BRANCH 35 36
ATOM     36  CG  ASP G 498      -6.399 -41.112  24.491  1.00 65.00 LIG 0.17  C 
ATOM     37 OD2  ASP G 498      -5.313 -41.526  24.030  1.00 65.16 LIG-0.65  OA
ATOM     38 OD1  ASP G 498      -6.897 -41.545  25.552  1.00 63.97 LIG-0.65  OA
ENDBRANCH 35 36
ENDBRANCH 33 35
ENDBRANCH 31 33
ENDBRANCH 28 29
BRANCH 28 39
ATOM     39  CB  GLU G 499      -8.461 -36.918  20.375  1.00 61.39 LIG 0.04  C 
BRANCH 39 40
ATOM     40  CG  GLU G 499      -8.265 -35.996  21.568  1.00 60.98 LIG 0.12  C 
BRANCH 40 41
ATOM     41  CD  GLU G 499      -6.814 -35.900  22.000  1.00 61.07 LIG 0.17  C 
ATOM     42 OE2  GLU G 499      -6.139 -36.949  22.052  1.00 60.51 LIG-0.65  OA
ATOM     43 OE1  GLU G 499      -6.345 -34.776  22.279  1.00 60.30 LIG-0.65  OA
ENDBRANCH 40 41
ENDBRANCH 39 40
ENDBRANCH 28 39
ENDBRANCH 25 28
ENDBRANCH 1 24
TORSDOF 16
ENDMDL
MODEL 7
USER: ADFR SOLUTION from run 83
USER: SCORE 15.957478 LL:  -2.675 LR: -13.991 RR:   0.000 FEB:  -9.219
USER: RMSD 4.448028
USER: SEED 82
USER: STATUS no improvement in best in 10 clusters for 5 generations
USER: GENES 18
USER: genes 0 Translation |==|  0.50290 0.51335 0.44390
USER: genes 1 Rotation |==|  0.37248 0.52074 0.54760 0.98067
USER: genes 2 Torsion [N]-CA--C-[N] |==|  0.83847
USER: genes 3 Torsion [C]-N--CA-[CB] |==|  0.44289
USER: genes 4 Torsion [N]-CA--CB-[CG] |==|  0.89418
USER: genes 5 Torsion [CA]-CB--CG-[OD2] |==|  0.23603
USER: genes 6 Torsion [N]-CA--C-[O] |==|  0.12637
USER: genes 7 Torsion [C]-CA--CB-[CG] |==|  0.43486
USER: genes 8 Torsion [CA]-CB--CG-[CD2] |==|  0.67713
USER: genes 9 Torsion [C]-CA--N-[C] |==|  0.20373
USER: genes 10 Torsion [N]-C--CA-[N] |==|  0.09263
USER: genes 11 Torsion [C]-CA--N-[C] |==|  0.15791
USER: genes 12 Torsion [N]-C--CA-[N] |==|  0.53473
USER: genes 13 Torsion [C]-CA--CB-[CG] |==|  0.30144
USER: genes 14 Torsion [CA]-CB--CG-[OD2] |==|  0.15840
USER: genes 15 Torsion [C]-CA--CB-[CG] |==|  0.26658
USER: genes 16 Torsion [CA]-CB--CG-[CD] |==|  0.27189
USER: genes 17 Torsion [CB]-CG--CD-[OE2] |==|  0.43667
ROOT
ATOM      1  CA  TRP G 500      -9.767 -41.976  19.181  1.00 57.70 LIG 0.18  C 
ENDROOT
BRANCH 1 2
ATOM      2  C   TRP G 500     -10.236 -42.874  20.322  1.00 58.91 LIG 0.24  C 
ATOM      3 O    TRP G 500     -11.119 -43.709  20.126  1.00 59.13 LIG-0.27  OA
ATOM      4  N   ASP G 501      -9.648 -42.714  21.504  1.00 60.05 LIG-0.35  N 
ATOM      5 H    ASP G 501      -9.033 -42.136  21.667  1.00 60.05 LIG 0.16  HD
BRANCH 4 6
ATOM      6  CA  ASP G 501     -10.028 -43.544  22.644  1.00 61.20 LIG 0.17  C 
BRANCH 6 7
ATOM      7  CB  ASP G 501      -8.921 -43.547  23.700  1.00 62.64 LIG 0.15  C 
BRANCH 7 8
ATOM      8  CG  ASP G 501      -7.530 -43.566  23.087  1.00 64.46 LIG 0.17  C 
ATOM      9 OD2  ASP G 501      -7.009 -42.481  22.749  1.00 65.00 LIG-0.65  OA
ATOM     10 OD1  ASP G 501      -6.952 -44.668  22.955  1.00 64.87 LIG-0.65  OA
ENDBRANCH 7 8
ENDBRANCH 6 7
BRANCH 6 11
ATOM     11  C   ASP G 501     -11.328 -43.045  23.273  1.00 61.58 LIG 0.22  C 
ATOM     12 O    ASP G 501     -12.269 -42.757  22.501  1.00 60.92 LIG-0.29  OA
ENDBRANCH 6 11
ENDBRANCH 4 6
ENDBRANCH 1 2
BRANCH 1 13
ATOM     13  CB  TRP G 500      -8.318 -42.308  18.816  1.00 52.85 LIG 0.07  C 
BRANCH 13 14
ATOM     14  CG  TRP G 500      -7.963 -41.913  17.414  1.00 47.47 LIG-0.03  A 
ATOM     15  CD2 TRP G 500      -7.587 -42.791  16.346  1.00 44.29 LIG-0.00  A 
ATOM     16  CE3 TRP G 500      -7.421 -44.180  16.240  1.00 42.43 LIG 0.01  A 
ATOM     17  CE2 TRP G 500      -7.354 -41.986  15.204  1.00 43.87 LIG 0.04  A 
ATOM     18  CZ3 TRP G 500      -7.032 -44.718  15.011  1.00 40.94 LIG 0.00  A 
ATOM     19  CH2 TRP G 500      -6.807 -43.890  13.894  1.00 40.39 LIG 0.00  A 
ATOM     20  CZ2 TRP G 500      -6.963 -42.528  13.969  1.00 41.47 LIG 0.03  A 
ATOM     21  NE1 TRP G 500      -7.582 -40.684  15.566  1.00 44.24 LIG-0.36  N 
ATOM     22  CD1 TRP G 500      -7.945 -40.648  16.894  1.00 45.90 LIG 0.10  A 
ATOM     23 HE1  TRP G 500      -7.510 -40.001  15.048  1.00 44.24 LIG 0.17  HD
ENDBRANCH 13 14
ENDBRANCH 1 13
BRANCH 1 24
ATOM     24  N   TRP G 500      -9.901 -40.550  19.442  1.00 59.87 LIG-0.35  N 
ATOM     25  C   GLU G 499      -9.089 -39.915  20.282  1.00 62.14 LIG 0.24  C 
ATOM     26 O    GLU G 499      -8.169 -40.477  20.884  1.00 62.68 LIG-0.27  OA
ATOM     27 H    TRP G 500     -10.539 -40.168  19.009  1.00 59.87 LIG 0.16  HD
BRANCH 25 28
ATOM     28  CA  GLU G 499      -9.351 -38.424  20.469  1.00 62.75 LIG 0.18  C 
BRANCH 28 29
ATOM     29  N   GLU G 499     -10.778 -38.139  20.364  1.00 64.36 LIG-0.35  N 
ATOM     30 H    GLU G 499     -10.983 -37.562  19.760  1.00 64.36 LIG 0.16  HD
ATOM     31  C   ASP G 498     -11.665 -38.741  21.152  1.00 65.69 LIG 0.26  C 
ATOM     32 O    ASP G 498     -11.344 -39.566  22.011  1.00 66.78 LIG-0.27  OA
BRANCH 31 33
ATOM     33  CA  ASP G 498     -13.130 -38.363  20.945  1.00 65.54 LIG 0.41  C 
ATOM     34  N   ASP G 498     -13.940 -38.881  22.085  1.00 65.34 LIG 0.61  N 
BRANCH 33 35
ATOM     35  CB  ASP G 498     -13.264 -36.839  20.856  1.00 65.84 LIG 0.16  C 
BRANCH 35 36
ATOM     36  CG  ASP G 498     -13.585 -36.361  19.451  1.00 65.00 LIG 0.17  C 
ATOM     37 OD2  ASP G 498     -14.610 -36.812  18.897  1.00 65.16 LIG-0.65  OA
ATOM     38 OD1  ASP G 498     -12.818 -35.541  18.901  1.00 63.97 LIG-0.65  OA
ENDBRANCH 35 36
ENDBRANCH 33 35
ENDBRANCH 31 33
ENDBRANCH 28 29
BRANCH 28 39
ATOM     39  CB  GLU G 499      -8.827 -37.981  21.838  1.00 61.39 LIG 0.04  C 
BRANCH 39 40
ATOM     40  CG  GLU G 499      -7.431 -37.381  21.805  1.00 60.98 LIG 0.12  C 
BRANCH 40 41
ATOM     41  CD  GLU G 499      -7.447 -35.864  21.784  1.00 61.07 LIG 0.17  C 
ATOM     42 OE2  GLU G 499      -6.434 -35.254  22.184  1.00 60.51 LIG-0.65  OA
ATOM     43 OE1  GLU G 499      -8.468 -35.281  21.362  1.00 60.30 LIG-0.65  OA
ENDBRANCH 40 41
ENDBRANCH 39 40
ENDBRANCH 28 39
ENDBRANCH 25 28
ENDBRANCH 1 24
TORSDOF 16
ENDMDL
MODEL 8
USER: ADFR SOLUTION from run 146
USER: SCORE 16.729158 LL:  -3.176 LR: -13.946 RR:   0.000 FEB:  -9.173
USER: RMSD 4.311539
USER: SEED 145
USER: STATUS no improvement in best in 11 clusters for 5 generations
USER: GENES 18
USER: genes 0 Translation |==|  0.49388 0.49670 0.44575
USER: genes 1 Rotation |==|  0.39973 0.43988 0.76148 0.90983
USER: genes 2 Torsion [N]-CA--C-[N] |==|  0.88013
USER: genes 3 Torsion [C]-N--CA-[CB] |==|  0.37576
USER: genes 4 Torsion [N]-CA--CB-[CG] |==|  0.71827
USER: genes 5 Torsion [CA]-CB--CG-[OD2] |==|  0.42588
USER: genes 6 Torsion [N]-CA--C-[O] |==|  0.13135
USER: genes 7 Torsion [C]-CA--CB-[CG] |==|  0.34132
USER: genes 8 Torsion [CA]-CB--CG-[CD2] |==|  0.85307
USER: genes 9 Torsion [C]-CA--N-[C] |==|  0.80152
USER: genes 10 Torsion [N]-C--CA-[N] |==|  0.85240
USER: genes 11 Torsion [C]-CA--N-[C] |==|  0.80271
USER: genes 12 Torsion [N]-C--CA-[N] |==|  0.36530
USER: genes 13 Torsion [C]-CA--CB-[CG] |==|  0.50052
USER: genes 14 Torsion [CA]-CB--CG-[OD2] |==|  0.13492
USER: genes 15 Torsion [C]-CA--CB-[CG] |==|  0.10588
USER: genes 16 Torsion [CA]-CB--CG-[CD] |==|  0.44910
USER: genes 17 Torsion [CB]-CG--CD-[OE2] |==|  0.98094
ROOT
ATOM      1  CA  TRP G 500      -9.909 -42.350  19.218  1.00 57.70 LIG 0.18  C 
ENDROOT
BRANCH 1 2
ATOM      2  C   TRP G 500      -9.454 -43.377  20.251  1.00 58.91 LIG 0.24  C 
ATOM      3 O    TRP G 500      -9.002 -44.462  19.884  1.00 59.13 LIG-0.27  OA
ATOM      4  N   ASP G 501      -9.564 -43.042  21.533  1.00 60.05 LIG-0.35  N 
ATOM      5 H    ASP G 501      -9.881 -42.294  21.815  1.00 60.05 LIG 0.16  HD
BRANCH 4 6
ATOM      6  CA  ASP G 501      -9.137 -43.962  22.583  1.00 61.20 LIG 0.17  C 
BRANCH 6 7
ATOM      7  CB  ASP G 501      -8.330 -43.223  23.652  1.00 62.64 LIG 0.15  C 
BRANCH 7 8
ATOM      8  CG  ASP G 501      -6.832 -43.437  23.503  1.00 64.46 LIG 0.17  C 
ATOM      9 OD2  ASP G 501      -6.055 -42.556  23.932  1.00 65.00 LIG-0.65  OA
ATOM     10 OD1  ASP G 501      -6.431 -44.494  22.966  1.00 64.87 LIG-0.65  OA
ENDBRANCH 7 8
ENDBRANCH 6 7
BRANCH 6 11
ATOM     11  C   ASP G 501     -10.341 -44.639  23.238  1.00 61.58 LIG 0.22  C 
ATOM     12 O    ASP G 501     -11.215 -45.118  22.481  1.00 60.92 LIG-0.29  OA
ENDBRANCH 6 11
ENDBRANCH 4 6
ENDBRANCH 1 2
BRANCH 1 13
ATOM     13  CB  TRP G 500      -8.807 -41.311  18.995  1.00 52.85 LIG 0.07  C 
BRANCH 13 14
ATOM     14  CG  TRP G 500      -8.375 -41.217  17.562  1.00 47.47 LIG-0.03  A 
ATOM     15  CD2 TRP G 500      -7.949 -42.298  16.724  1.00 44.29 LIG-0.00  A 
ATOM     16  CE3 TRP G 500      -7.788 -43.678  16.920  1.00 42.43 LIG 0.01  A 
ATOM     17  CE2 TRP G 500      -7.649 -41.750  15.453  1.00 43.87 LIG 0.04  A 
ATOM     18  CZ3 TRP G 500      -7.339 -44.460  15.854  1.00 40.94 LIG 0.00  A 
ATOM     19  CH2 TRP G 500      -7.049 -43.884  14.601  1.00 40.39 LIG 0.00  A 
ATOM     20  CZ2 TRP G 500      -7.197 -42.537  14.381  1.00 41.47 LIG 0.03  A 
ATOM     21  NE1 TRP G 500      -7.886 -40.402  15.522  1.00 44.24 LIG-0.36  N 
ATOM     22  CD1 TRP G 500      -8.319 -40.089  16.791  1.00 45.90 LIG 0.10  A 
ATOM     23 HE1  TRP G 500      -7.782 -39.842  14.877  1.00 44.24 LIG 0.17  HD
ENDBRANCH 13 14
ENDBRANCH 1 13
BRANCH 1 24
ATOM     24  N   TRP G 500     -11.163 -41.685  19.540  1.00 59.87 LIG-0.35  N 
ATOM     25  C   GLU G 499     -12.328 -42.322  19.476  1.00 62.14 LIG 0.24  C 
ATOM     26 O    GLU G 499     -12.429 -43.510  19.156  1.00 62.68 LIG-0.27  OA
ATOM     27 H    TRP G 500     -11.079 -40.860  19.771  1.00 59.87 LIG 0.16  HD
BRANCH 25 28
ATOM     28  CA  GLU G 499     -13.563 -41.498  19.829  1.00 62.75 LIG 0.18  C 
BRANCH 28 29
ATOM     29  N   GLU G 499     -13.397 -40.863  21.132  1.00 64.36 LIG-0.35  N 
ATOM     30 H    GLU G 499     -13.286 -40.011  21.102  1.00 64.36 LIG 0.16  HD
ATOM     31  C   ASP G 498     -13.421 -41.573  22.257  1.00 65.69 LIG 0.26  C 
ATOM     32 O    ASP G 498     -13.582 -42.795  22.273  1.00 66.78 LIG-0.27  OA
BRANCH 31 33
ATOM     33  CA  ASP G 498     -13.240 -40.796  23.559  1.00 65.54 LIG 0.41  C 
ATOM     34  N   ASP G 498     -14.297 -41.201  24.529  1.00 65.34 LIG 0.61  N 
BRANCH 33 35
ATOM     35  CB  ASP G 498     -11.853 -41.084  24.145  1.00 65.84 LIG 0.16  C 
BRANCH 35 36
ATOM     36  CG  ASP G 498     -11.602 -40.346  25.448  1.00 65.00 LIG 0.17  C 
ATOM     37 OD2  ASP G 498     -12.482 -40.402  26.333  1.00 65.16 LIG-0.65  OA
ATOM     38 OD1  ASP G 498     -10.535 -39.710  25.587  1.00 63.97 LIG-0.65  OA
ENDBRANCH 35 36
ENDBRANCH 33 35
ENDBRANCH 31 33
ENDBRANCH 28 29
BRANCH 28 39
ATOM     39  CB  GLU G 499     -13.791 -40.434  18.752  1.00 61.39 LIG 0.04  C 
BRANCH 39 40
ATOM     40  CG  GLU G 499     -13.496 -40.908  17.338  1.00 60.98 LIG 0.12  C 
BRANCH 40 41
ATOM     41  CD  GLU G 499     -14.132 -40.026  16.281  1.00 61.07 LIG 0.17  C 
ATOM     42 OE2  GLU G 499     -14.910 -39.122  16.651  1.00 60.51 LIG-0.65  OA
ATOM     43 OE1  GLU G 499     -13.850 -40.228  15.080  1.00 60.30 LIG-0.65  OA
ENDBRANCH 40 41
ENDBRANCH 39 40
ENDBRANCH 28 39
ENDBRANCH 25 28
ENDBRANCH 1 24
TORSDOF 16
ENDMDL
MODEL 9
USER: ADFR SOLUTION from run 1
USER: SCORE 17.015359 LL:  -3.406 LR: -13.677 RR:   0.000 FEB:  -8.905
USER: RMSD 2.661242
USER: SEED 831560
USER: STATUS no improvement in best in 8 clusters for 5 generations
USER: GENES 18
USER: genes 0 Translation |==|  0.53156 0.52381 0.42200
USER: genes 1 Rotation |==|  0.52324 0.50210 0.59890 0.98956
USER: genes 2 Torsion [N]-CA--C-[N] |==|  0.95420
USER: genes 3 Torsion [C]-N--CA-[CB] |==|  0.41801
USER: genes 4 Torsion [N]-CA--CB-[CG] |==|  0.88802
USER: genes 5 Torsion [CA]-CB--CG-[OD2] |==|  0.14578
USER: genes 6 Torsion [N]-CA--C-[O] |==|  0.11945
USER: genes 7 Torsion [C]-CA--CB-[CG] |==|  0.25261
USER: genes 8 Torsion [CA]-CB--CG-[CD2] |==|  0.75522
USER: genes 9 Torsion [C]-CA--N-[C] |==|  0.80099
USER: genes 10 Torsion [N]-C--CA-[N] |==|  0.88525
USER: genes 11 Torsion [C]-CA--N-[C] |==|  0.84492
USER: genes 12 Torsion [N]-C--CA-[N] |==|  0.49217
USER: genes 13 Torsion [C]-CA--CB-[CG] |==|  0.60363
USER: genes 14 Torsion [CA]-CB--CG-[OD2] |==|  0.38272
USER: genes 15 Torsion [C]-CA--CB-[CG] |==|  0.17468
USER: genes 16 Torsion [CA]-CB--CG-[CD] |==|  0.43417
USER: genes 17 Torsion [CB]-CG--CD-[OE2] |==|  0.93762
ROOT
ATOM      1  CA  TRP G 500      -9.316 -41.740  18.737  1.00 57.70 LIG 0.18  C 
ENDROOT
BRANCH 1 2
ATOM      2  C   TRP G 500      -9.521 -43.197  19.140  1.00 58.91 LIG 0.24  C 
ATOM      3 O    TRP G 500      -9.553 -44.077  18.280  1.00 59.13 LIG-0.27  OA
ATOM      4  N   ASP G 501      -9.654 -43.458  20.438  1.00 60.05 LIG-0.35  N 
ATOM      5 H    ASP G 501      -9.640 -42.861  21.057  1.00 60.05 LIG 0.16  HD
BRANCH 4 6
ATOM      6  CA  ASP G 501      -9.839 -44.828  20.908  1.00 61.20 LIG 0.17  C 
BRANCH 6 7
ATOM      7  CB  ASP G 501      -9.258 -44.998  22.314  1.00 62.64 LIG 0.15  C 
BRANCH 7 8
ATOM      8  CG  ASP G 501      -7.938 -44.266  22.491  1.00 64.46 LIG 0.17  C 
ATOM      9 OD2  ASP G 501      -7.880 -43.052  22.192  1.00 65.00 LIG-0.65  OA
ATOM     10 OD1  ASP G 501      -6.959 -44.901  22.942  1.00 64.87 LIG-0.65  OA
ENDBRANCH 7 8
ENDBRANCH 6 7
BRANCH 6 11
ATOM     11  C   ASP G 501     -11.320 -45.204  20.924  1.00 61.58 LIG 0.22  C 
ATOM     12 O    ASP G 501     -12.013 -44.858  19.940  1.00 60.92 LIG-0.29  OA
ENDBRANCH 6 11
ENDBRANCH 4 6
ENDBRANCH 1 2
BRANCH 1 13
ATOM     13  CB  TRP G 500      -7.871 -41.524  18.279  1.00 52.85 LIG 0.07  C 
BRANCH 13 14
ATOM     14  CG  TRP G 500      -7.689 -41.726  16.805  1.00 47.47 LIG-0.03  A 
ATOM     15  CD2 TRP G 500      -7.397 -42.962  16.140  1.00 44.29 LIG-0.00  A 
ATOM     16  CE3 TRP G 500      -7.188 -44.277  16.579  1.00 42.43 LIG 0.01  A 
ATOM     17  CE2 TRP G 500      -7.324 -42.684  14.754  1.00 43.87 LIG 0.04  A 
ATOM     18  CZ3 TRP G 500      -6.916 -45.266  15.630  1.00 40.94 LIG 0.00  A 
ATOM     19  CH2 TRP G 500      -6.849 -44.957  14.257  1.00 40.39 LIG 0.00  A 
ATOM     20  CZ2 TRP G 500      -7.050 -43.678  13.800  1.00 41.47 LIG 0.03  A 
ATOM     21  NE1 TRP G 500      -7.563 -41.344  14.590  1.00 44.24 LIG-0.36  N 
ATOM     22  CD1 TRP G 500      -7.779 -40.776  15.825  1.00 45.90 LIG 0.10  A 
ATOM     23 HE1  TRP G 500      -7.577 -40.927  13.838  1.00 44.24 LIG 0.17  HD
ENDBRANCH 13 14
ENDBRANCH 1 13
BRANCH 1 24
ATOM     24  N   TRP G 500      -9.661 -40.774  19.770  1.00 59.87 LIG-0.35  N 
ATOM     25  C   GLU G 499     -10.925 -40.538  20.110  1.00 62.14 LIG 0.24  C 
ATOM     26 O    GLU G 499     -11.882 -41.122  19.594  1.00 62.68 LIG-0.27  OA
ATOM     27 H    TRP G 500      -8.985 -40.381  20.128  1.00 59.87 LIG 0.16  HD
BRANCH 25 28
ATOM     28  CA  GLU G 499     -11.141 -39.490  21.199  1.00 62.75 LIG 0.18  C 
BRANCH 28 29
ATOM     29  N   GLU G 499     -10.149 -39.643  22.258  1.00 64.36 LIG-0.35  N 
ATOM     30 H    GLU G 499      -9.689 -38.935  22.420  1.00 64.36 LIG 0.16  HD
ATOM     31  C   ASP G 498      -9.994 -40.797  22.901  1.00 65.69 LIG 0.26  C 
ATOM     32 O    ASP G 498     -10.667 -41.799  22.649  1.00 66.78 LIG-0.27  OA
BRANCH 31 33
ATOM     33  CA  ASP G 498      -8.925 -40.833  23.991  1.00 65.54 LIG 0.41  C 
ATOM     34  N   ASP G 498      -8.934 -42.171  24.649  1.00 65.34 LIG 0.61  N 
BRANCH 33 35
ATOM     35  CB  ASP G 498      -7.548 -40.560  23.376  1.00 65.84 LIG 0.16  C 
BRANCH 35 36
ATOM     36  CG  ASP G 498      -6.446 -41.387  24.015  1.00 65.00 LIG 0.17  C 
ATOM     37 OD2  ASP G 498      -5.588 -41.901  23.266  1.00 65.16 LIG-0.65  OA
ATOM     38 OD1  ASP G 498      -6.438 -41.526  25.258  1.00 63.97 LIG-0.65  OA
ENDBRANCH 35 36
ENDBRANCH 33 35
ENDBRANCH 31 33
ENDBRANCH 28 29
BRANCH 28 39
ATOM     39  CB  GLU G 499     -11.044 -38.091  20.586  1.00 61.39 LIG 0.04  C 
BRANCH 39 40
ATOM     40  CG  GLU G 499     -12.109 -37.794  19.543  1.00 60.98 LIG 0.12  C 
BRANCH 40 41
ATOM     41  CD  GLU G 499     -12.366 -36.308  19.376  1.00 61.07 LIG 0.17  C 
ATOM     42 OE2  GLU G 499     -12.063 -35.544  20.316  1.00 60.51 LIG-0.65  OA
ATOM     43 OE1  GLU G 499     -12.862 -35.901  18.304  1.00 60.30 LIG-0.65  OA
ENDBRANCH 40 41
ENDBRANCH 39 40
ENDBRANCH 28 39
ENDBRANCH 25 28
ENDBRANCH 1 24
TORSDOF 16
ENDMDL
MODEL 10
USER: ADFR SOLUTION from run 151
USER: SCORE 16.556334 LL:  -3.354 LR: -13.681 RR:   0.000 FEB:  -8.908
USER: RMSD 3.602669
USER: SEED 150
USER: STATUS no improvement in best in 5 clusters for 5 generations
USER: GENES 18
USER: genes 0 Translation |==|  0.46661 0.47188 0.43618
USER: genes 1 Rotation |==|  0.41080 0.46358 0.57035 0.98556
USER: genes 2 Torsion [N]-CA--C-[N] |==|  0.97436
USER: genes 3 Torsion [C]-N--CA-[CB] |==|  0.82931
USER: genes 4 Torsion [N]-CA--CB-[CG] |==|  0.43096
USER: genes 5 Torsion [CA]-CB--CG-[OD2] |==|  0.15875
USER: genes 6 Torsion [N]-CA--C-[O] |==|  0.10096
USER: genes 7 Torsion [C]-CA--CB-[CG] |==|  0.44358
USER: genes 8 Torsion [CA]-CB--CG-[CD2] |==|  0.70446
USER: genes 9 Torsion [C]-CA--N-[C] |==|  0.66330
USER: genes 10 Torsion [N]-C--CA-[N] |==|  0.22866
USER: genes 11 Torsion [C]-CA--N-[C] |==|  0.76476
USER: genes 12 Torsion [N]-C--CA-[N] |==|  0.09546
USER: genes 13 Torsion [C]-CA--CB-[CG] |==|  0.63586
USER: genes 14 Torsion [CA]-CB--CG-[OD2] |==|  0.15214
USER: genes 15 Torsion [C]-CA--CB-[CG] |==|  0.45916
USER: genes 16 Torsion [CA]-CB--CG-[CD] |==|  0.23504
USER: genes 17 Torsion [CB]-CG--CD-[OE2] |==|  0.17859
ROOT
ATOM      1  CA  TRP G 500     -10.339 -42.909  19.025  1.00 57.70 LIG 0.18  C 
ENDROOT
BRANCH 1 2
ATOM      2  C   TRP G 500     -10.850 -44.056  19.891  1.00 58.91 LIG 0.24  C 
ATOM      3 O    TRP G 500     -10.722 -45.220  19.511  1.00 59.13 LIG-0.27  OA
ATOM      4  N   ASP G 501     -11.420 -43.737  21.049  1.00 60.05 LIG-0.35  N 
ATOM      5 H    ASP G 501     -11.526 -42.933  21.334  1.00 60.05 LIG 0.16  HD
BRANCH 4 6
ATOM      6  CA  ASP G 501     -11.923 -44.776  21.944  1.00 61.20 LIG 0.17  C 
BRANCH 6 7
ATOM      7  CB  ASP G 501     -13.028 -45.585  21.263  1.00 62.64 LIG 0.15  C 
BRANCH 7 8
ATOM      8  CG  ASP G 501     -13.167 -46.985  21.841  1.00 64.46 LIG 0.17  C 
ATOM      9 OD2  ASP G 501     -13.389 -47.108  23.066  1.00 65.00 LIG-0.65  OA
ATOM     10 OD1  ASP G 501     -13.066 -47.963  21.067  1.00 64.87 LIG-0.65  OA
ENDBRANCH 7 8
ENDBRANCH 6 7
BRANCH 6 11
ATOM     11  C   ASP G 501     -10.798 -45.718  22.372  1.00 61.58 LIG 0.22  C 
ATOM     12 O    ASP G 501      -9.667 -45.217  22.561  1.00 60.92 LIG-0.29  OA
ENDBRANCH 6 11
ENDBRANCH 4 6
ENDBRANCH 1 2
BRANCH 1 13
ATOM     13  CB  TRP G 500      -8.815 -42.990  18.897  1.00 52.85 LIG 0.07  C 
BRANCH 13 14
ATOM     14  CG  TRP G 500      -8.286 -42.235  17.715  1.00 47.47 LIG-0.03  A 
ATOM     15  CD2 TRP G 500      -7.783 -42.795  16.496  1.00 44.29 LIG-0.00  A 
ATOM     16  CE3 TRP G 500      -7.610 -44.105  16.025  1.00 42.43 LIG 0.01  A 
ATOM     17  CE2 TRP G 500      -7.407 -41.715  15.662  1.00 43.87 LIG 0.04  A 
ATOM     18  CZ3 TRP G 500      -7.073 -44.295  14.750  1.00 40.94 LIG 0.00  A 
ATOM     19  CH2 TRP G 500      -6.708 -43.198  13.945  1.00 40.39 LIG 0.00  A 
ATOM     20  CZ2 TRP G 500      -6.867 -41.906  14.380  1.00 41.47 LIG 0.03  A 
ATOM     21  NE1 TRP G 500      -7.674 -40.557  16.345  1.00 44.24 LIG-0.36  N 
ATOM     22  CD1 TRP G 500      -8.199 -40.877  17.577  1.00 45.90 LIG 0.10  A 
ATOM     23 HE1  TRP G 500      -7.535 -39.760  16.052  1.00 44.24 LIG 0.17  HD
ENDBRANCH 13 14
ENDBRANCH 1 13
BRANCH 1 24
ATOM     24  N   TRP G 500     -10.730 -41.584  19.484  1.00 59.87 LIG-0.35  N 
ATOM     25  C   GLU G 499     -11.431 -40.758  18.714  1.00 62.14 LIG 0.24  C 
ATOM     26 O    GLU G 499     -11.808 -41.053  17.577  1.00 62.68 LIG-0.27  OA
ATOM     27 H    TRP G 500     -10.470 -41.394  20.282  1.00 59.87 LIG 0.16  HD
BRANCH 25 28
ATOM     28  CA  GLU G 499     -11.761 -39.396  19.320  1.00 62.75 LIG 0.18  C 
BRANCH 28 29
ATOM     29  N   GLU G 499     -10.633 -38.484  19.168  1.00 64.36 LIG-0.35  N 
ATOM     30 H    GLU G 499     -10.678 -37.972  18.478  1.00 64.36 LIG 0.16  HD
ATOM     31  C   ASP G 498      -9.631 -38.469  20.042  1.00 65.69 LIG 0.26  C 
ATOM     32 O    ASP G 498      -9.589 -39.213  21.024  1.00 66.78 LIG-0.27  OA
BRANCH 31 33
ATOM     33  CA  ASP G 498      -8.508 -37.467  19.778  1.00 65.54 LIG 0.41  C 
ATOM     34  N   ASP G 498      -9.080 -36.232  19.169  1.00 65.34 LIG 0.61  N 
BRANCH 33 35
ATOM     35  CB  ASP G 498      -7.800 -37.124  21.093  1.00 65.84 LIG 0.16  C 
BRANCH 35 36
ATOM     36  CG  ASP G 498      -7.638 -35.629  21.298  1.00 65.00 LIG 0.17  C 
ATOM     37 OD2  ASP G 498      -8.661 -34.914  21.242  1.00 65.16 LIG-0.65  OA
ATOM     38 OD1  ASP G 498      -6.495 -35.168  21.510  1.00 63.97 LIG-0.65  OA
ENDBRANCH 35 36
ENDBRANCH 33 35
ENDBRANCH 31 33
ENDBRANCH 28 29
BRANCH 28 39
ATOM     39  CB  GLU G 499     -13.001 -38.818  18.630  1.00 61.39 LIG 0.04  C 
BRANCH 39 40
ATOM     40  CG  GLU G 499     -13.634 -37.649  19.367  1.00 60.98 LIG 0.12  C 
BRANCH 40 41
ATOM     41  CD  GLU G 499     -12.977 -36.323  19.033  1.00 61.07 LIG 0.17  C 
ATOM     42 OE2  GLU G 499     -13.055 -35.901  17.861  1.00 60.51 LIG-0.65  OA
ATOM     43 OE1  GLU G 499     -12.391 -35.698  19.942  1.00 60.30 LIG-0.65  OA
ENDBRANCH 40 41
ENDBRANCH 39 40
ENDBRANCH 28 39
ENDBRANCH 25 28
ENDBRANCH 1 24
TORSDOF 16
ENDMDL
