MODEL 1
USER: ADFR SOLUTION from run 82
USER: SCORE 9.350938 LL:  -1.868 LR: -10.225 RR:   0.000 FEB:  -5.154
USER: RMSD 5.356658
USER: SEED 81
USER: STATUS no improvement in best in 8 clusters for 5 generations
USER: GENES 19
USER: genes 0 Translation |==|  0.39983 0.41036 0.45584
USER: genes 1 Rotation |==|  0.48639 0.44607 0.50010 0.99690
USER: genes 2 Torsion [C]-CA--CB-[CG] |==|  0.39443
USER: genes 3 Torsion [CA]-CB--CG-[CD2] |==|  0.68578
USER: genes 4 Torsion [N]-CA--C-[N] |==|  0.44053
USER: genes 5 Torsion [C]-N--CA-[C] |==|  0.31040
USER: genes 6 Torsion [N]-CA--C-[N] |==|  0.20642
USER: genes 7 Torsion [C]-N--CA-[CB] |==|  0.27245
USER: genes 8 Torsion [N]-CA--CB-[CG] |==|  0.60408
USER: genes 9 Torsion [CA]-CB--CG-[CD] |==|  0.52117
USER: genes 10 Torsion [CB]-CG--CD-[OE2] |==|  0.79694
USER: genes 11 Torsion [N]-CA--C-[OXT] |==|  0.97001
USER: genes 12 Torsion [CB]-CA--N-[C] |==|  0.38143
USER: genes 13 Torsion [N]-C--CA-[N] |==|  0.42231
USER: genes 14 Torsion [C]-CA--N-[C] |==|  0.43266
USER: genes 15 Torsion [N]-C--CA-[N] |==|  0.45231
USER: genes 16 Torsion [C]-CA--CB-[CG] |==|  0.46031
USER: genes 17 Torsion [CA]-CB--CG-[CD] |==|  0.30630
USER: genes 18 Torsion [CB]-CG--CD-[NE2] |==|  0.74719
ROOT
ATOM      1  CA  HIS G 812     -27.997  32.092  20.640  1.00 98.11 LIG 0.18  C 
ENDROOT
BRANCH 1 2
ATOM      2  CB  HIS G 812     -27.655  30.598  20.559  1.00 96.29 LIG 0.10  C 
BRANCH 2 3
ATOM      3  CG  HIS G 812     -28.055  29.914  19.282  1.00 94.00 LIG 0.06  A 
ATOM      4  CD2 HIS G 812     -28.971  28.957  19.036  1.00 93.71 LIG 0.14  A 
ATOM      5 NE2  HIS G 812     -28.794  28.542  17.733  1.00 93.19 LIG-0.25  NA
ATOM      6  CE1 HIS G 812     -27.805  29.240  17.202  1.00 92.78 LIG 0.23  A 
ATOM      7 ND1  HIS G 812     -27.345  30.077  18.109  1.00 93.58 LIG-0.24  NA
ENDBRANCH 2 3
ENDBRANCH 1 2
BRANCH 1 8
ATOM      8  C   HIS G 812     -28.432  32.356  22.078  1.00 99.25 LIG 0.24  C 
ATOM      9  N   GLY G 813     -29.705  32.138  22.385  1.00100.26 LIG-0.35  N 
ATOM     10 H    GLY G 813     -30.305  31.867  21.832  1.00100.26 LIG 0.16  HD
ATOM     11 O    HIS G 812     -27.605  32.732  22.911  1.00 99.52 LIG-0.27  OA
BRANCH 9 12
ATOM     12  CA  GLY G 813     -30.166  32.359  23.744  1.00101.48 LIG 0.23  C 
BRANCH 12 13
ATOM     13  C   GLY G 813     -31.116  33.538  23.867  1.00102.44 LIG 0.24  C 
ATOM     14 O    GLY G 813     -30.723  34.594  24.362  1.00102.98 LIG-0.27  OA
ATOM     15  N   GLU G 814     -32.358  33.374  23.415  1.00102.70 LIG-0.34  N 
ATOM     16 H    GLU G 814     -32.648  32.650  23.052  1.00102.70 LIG 0.16  HD
BRANCH 15 17
ATOM     17  CA  GLU G 814     -33.348  34.449  23.508  1.00102.89 LIG 0.19  C 
BRANCH 17 18
ATOM     18  CB  GLU G 814     -33.454  35.212  22.180  1.00101.97 LIG 0.05  C 
BRANCH 18 19
ATOM     19  CG  GLU G 814     -33.661  36.708  22.316  1.00100.63 LIG 0.12  C 
BRANCH 19 20
ATOM     20  CD  GLU G 814     -33.944  37.384  20.983  1.00100.36 LIG 0.17  C 
ATOM     21 OE1  GLU G 814     -35.107  37.782  20.751  1.00 99.71 LIG-0.65  OA
ATOM     22 OE2  GLU G 814     -33.006  37.526  20.170  1.00 99.42 LIG-0.65  OA
ENDBRANCH 19 20
ENDBRANCH 18 19
ENDBRANCH 17 18
BRANCH 17 23
ATOM     23  C   GLU G 814     -34.726  33.888  23.871  1.00103.78 LIG 0.20  C 
ATOM     24 OXT  GLU G 814     -34.899  32.648  23.837  1.00104.07 LIG-0.65  OA
ATOM     25 O    GLU G 814     -35.622  34.700  24.192  1.00104.32 LIG-0.65  OA
ENDBRANCH 17 23
ENDBRANCH 15 17
ENDBRANCH 12 13
ENDBRANCH 9 12
ENDBRANCH 1 8
BRANCH 1 26
ATOM     26  N   HIS G 812     -26.779  32.908  20.549  1.00 98.48 LIG-0.35  N 
ATOM     27  C   GLY G 811     -26.644  34.026  19.832  1.00 98.46 LIG 0.24  C 
ATOM     28 O    GLY G 811     -27.528  34.502  19.110  1.00 98.78 LIG-0.27  OA
ATOM     29 H    HIS G 812     -26.134  32.588  21.018  1.00 98.48 LIG 0.16  HD
BRANCH 27 30
ATOM     30  CA  GLY G 811     -25.284  34.695  19.955  1.00 98.06 LIG 0.23  C 
BRANCH 30 31
ATOM     31  N   GLY G 811     -24.839  35.481  18.817  1.00 97.66 LIG-0.35  N 
ATOM     32 H    GLY G 811     -25.190  35.260  18.064  1.00 97.66 LIG 0.16  HD
ATOM     33  C   GLN G 810     -23.951  36.459  18.979  1.00 97.43 LIG 0.26  C 
ATOM     34 O    GLN G 810     -23.451  36.736  20.070  1.00 97.76 LIG-0.27  OA
BRANCH 33 35
ATOM     35  CA  GLN G 810     -23.551  37.235  17.723  1.00 96.79 LIG 0.40  C 
ATOM     36  N   GLN G 810     -22.900  38.526  18.092  1.00 96.61 LIG 0.61  N 
BRANCH 35 37
ATOM     37  CB  GLN G 810     -22.597  36.377  16.896  1.00 96.38 LIG 0.06  C 
BRANCH 37 38
ATOM     38  CG  GLN G 810     -22.367  36.844  15.467  1.00 95.56 LIG 0.10  C 
BRANCH 38 39
ATOM     39  CD  GLN G 810     -20.969  37.382  15.263  1.00 95.11 LIG 0.21  C 
ATOM     40  NE2 GLN G 810     -20.807  38.686  15.460  1.00 94.31 LIG-0.37  N 
ATOM     41 21HE GLN G 810     -21.478  39.173  15.688  1.00 94.31 LIG 0.16  HD
ATOM     42 22HE GLN G 810     -20.031  39.043  15.358  1.00 94.31 LIG 0.16  HD
ATOM     43 OE1  GLN G 810     -20.043  36.639  14.935  1.00 94.65 LIG-0.27  OA
ENDBRANCH 38 39
ENDBRANCH 37 38
ENDBRANCH 35 37
ENDBRANCH 33 35
ENDBRANCH 30 31
ENDBRANCH 27 30
ENDBRANCH 1 26
TORSDOF 17
ENDMDL
MODEL 2
USER: ADFR SOLUTION from run 115
USER: SCORE 11.494905 LL:  -2.572 LR: -10.170 RR:   0.000 FEB:  -5.099
USER: RMSD 5.730485
USER: SEED 114
USER: STATUS no improvement in best in 15 clusters for 5 generations
USER: GENES 19
USER: genes 0 Translation |==|  0.42308 0.42313 0.40923
USER: genes 1 Rotation |==|  0.49293 0.48036 0.63187 0.98184
USER: genes 2 Torsion [C]-CA--CB-[CG] |==|  0.34385
USER: genes 3 Torsion [CA]-CB--CG-[CD2] |==|  0.82998
USER: genes 4 Torsion [N]-CA--C-[N] |==|  0.35087
USER: genes 5 Torsion [C]-N--CA-[C] |==|  0.32019
USER: genes 6 Torsion [N]-CA--C-[N] |==|  0.23875
USER: genes 7 Torsion [C]-N--CA-[CB] |==|  0.23315
USER: genes 8 Torsion [N]-CA--CB-[CG] |==|  0.52542
USER: genes 9 Torsion [CA]-CB--CG-[CD] |==|  0.48688
USER: genes 10 Torsion [CB]-CG--CD-[OE2] |==|  0.92099
USER: genes 11 Torsion [N]-CA--C-[OXT] |==|  0.94157
USER: genes 12 Torsion [CB]-CA--N-[C] |==|  0.52503
USER: genes 13 Torsion [N]-C--CA-[N] |==|  0.02461
USER: genes 14 Torsion [C]-CA--N-[C] |==|  0.71807
USER: genes 15 Torsion [N]-C--CA-[N] |==|  0.21736
USER: genes 16 Torsion [C]-CA--CB-[CG] |==|  0.22035
USER: genes 17 Torsion [CA]-CB--CG-[CD] |==|  0.07466
USER: genes 18 Torsion [CB]-CG--CD-[NE2] |==|  0.20872
ROOT
ATOM      1  CA  HIS G 812     -27.544  32.332  19.486  1.00 98.11 LIG 0.18  C 
ENDROOT
BRANCH 1 2
ATOM      2  CB  HIS G 812     -26.507  31.208  19.346  1.00 96.29 LIG 0.10  C 
BRANCH 2 3
ATOM      3  CG  HIS G 812     -26.890  30.090  18.417  1.00 94.00 LIG 0.06  A 
ATOM      4  CD2 HIS G 812     -27.918  29.220  18.452  1.00 93.71 LIG 0.14  A 
ATOM      5 NE2  HIS G 812     -27.689  28.273  17.476  1.00 93.19 LIG-0.25  NA
ATOM      6  CE1 HIS G 812     -26.559  28.573  16.859  1.00 92.78 LIG 0.23  A 
ATOM      7 ND1  HIS G 812     -26.059  29.664  17.401  1.00 93.58 LIG-0.24  NA
ENDBRANCH 2 3
ENDBRANCH 1 2
BRANCH 1 8
ATOM      8  C   HIS G 812     -27.861  32.441  20.974  1.00 99.25 LIG 0.24  C 
ATOM      9  N   GLY G 813     -29.109  32.200  21.356  1.00100.26 LIG-0.35  N 
ATOM     10 H    GLY G 813     -29.755  31.996  20.827  1.00100.26 LIG 0.16  HD
ATOM     11 O    HIS G 812     -26.965  32.717  21.775  1.00 99.52 LIG-0.27  OA
BRANCH 9 12
ATOM     12  CA  GLY G 813     -29.460  32.276  22.764  1.00101.48 LIG 0.23  C 
BRANCH 12 13
ATOM     13  C   GLY G 813     -30.444  33.389  23.074  1.00102.44 LIG 0.24  C 
ATOM     14 O    GLY G 813     -30.031  34.492  23.430  1.00102.98 LIG-0.27  OA
ATOM     15  N   GLU G 814     -31.741  33.117  22.935  1.00102.70 LIG-0.34  N 
ATOM     16 H    GLU G 814     -32.050  32.358  22.673  1.00102.70 LIG 0.16  HD
BRANCH 15 17
ATOM     17  CA  GLU G 814     -32.763  34.123  23.229  1.00102.89 LIG 0.19  C 
BRANCH 17 18
ATOM     18  CB  GLU G 814     -32.986  35.046  22.023  1.00101.97 LIG 0.05  C 
BRANCH 18 19
ATOM     19  CG  GLU G 814     -33.863  36.253  22.295  1.00100.63 LIG 0.12  C 
BRANCH 19 20
ATOM     20  CD  GLU G 814     -33.956  37.191  21.100  1.00100.36 LIG 0.17  C 
ATOM     21 OE1  GLU G 814     -34.989  37.884  20.965  1.00 99.71 LIG-0.65  OA
ATOM     22 OE2  GLU G 814     -32.999  37.242  20.300  1.00 99.42 LIG-0.65  OA
ENDBRANCH 19 20
ENDBRANCH 18 19
ENDBRANCH 17 18
BRANCH 17 23
ATOM     23  C   GLU G 814     -34.092  33.455  23.596  1.00103.78 LIG 0.20  C 
ATOM     24 OXT  GLU G 814     -34.292  32.273  23.233  1.00104.07 LIG-0.65  OA
ATOM     25 O    GLU G 814     -34.922  34.124  24.251  1.00104.32 LIG-0.65  OA
ENDBRANCH 17 23
ENDBRANCH 15 17
ENDBRANCH 12 13
ENDBRANCH 9 12
ENDBRANCH 1 8
BRANCH 1 26
ATOM     26  N   HIS G 812     -26.930  33.639  19.222  1.00 98.48 LIG-0.35  N 
ATOM     27  C   GLY G 811     -27.508  34.825  19.424  1.00 98.46 LIG 0.24  C 
ATOM     28 O    GLY G 811     -28.667  34.976  19.826  1.00 98.78 LIG-0.27  OA
ATOM     29 H    HIS G 812     -26.130  33.570  18.913  1.00 98.48 LIG 0.16  HD
BRANCH 27 30
ATOM     30  CA  GLY G 811     -26.625  36.022  19.106  1.00 98.06 LIG 0.23  C 
BRANCH 30 31
ATOM     31  N   GLY G 811     -25.361  35.743  18.446  1.00 97.66 LIG-0.35  N 
ATOM     32 H    GLY G 811     -25.418  35.592  17.602  1.00 97.66 LIG 0.16  HD
ATOM     33  C   GLN G 810     -24.225  35.734  19.141  1.00 97.43 LIG 0.26  C 
ATOM     34 O    GLN G 810     -24.182  35.934  20.355  1.00 97.76 LIG-0.27  OA
BRANCH 33 35
ATOM     35  CA  GLN G 810     -22.946  35.440  18.356  1.00 96.79 LIG 0.40  C 
ATOM     36  N   GLN G 810     -22.503  36.652  17.607  1.00 96.61 LIG 0.61  N 
BRANCH 35 37
ATOM     37  CB  GLN G 810     -21.860  34.994  19.332  1.00 96.38 LIG 0.06  C 
BRANCH 37 38
ATOM     38  CG  GLN G 810     -21.946  33.546  19.790  1.00 95.56 LIG 0.10  C 
BRANCH 38 39
ATOM     39  CD  GLN G 810     -22.632  32.667  18.769  1.00 95.11 LIG 0.21  C 
ATOM     40  NE2 GLN G 810     -21.919  32.350  17.693  1.00 94.31 LIG-0.37  N 
ATOM     41 21HE GLN G 810     -21.115  32.644  17.608  1.00 94.31 LIG 0.16  HD
ATOM     42 22HE GLN G 810     -22.261  31.851  17.082  1.00 94.31 LIG 0.16  HD
ATOM     43 OE1  GLN G 810     -23.787  32.273  18.941  1.00 94.65 LIG-0.27  OA
ENDBRANCH 38 39
ENDBRANCH 37 38
ENDBRANCH 35 37
ENDBRANCH 33 35
ENDBRANCH 30 31
ENDBRANCH 27 30
ENDBRANCH 1 26
TORSDOF 17
ENDMDL
MODEL 3
USER: ADFR SOLUTION from run 160
USER: SCORE 10.321278 LL:  -2.069 LR:  -9.678 RR:   0.000 FEB:  -4.607
USER: RMSD 5.223073
USER: SEED 159
USER: STATUS no improvement in best in 20 clusters for 5 generations
USER: GENES 19
USER: genes 0 Translation |==|  0.42310 0.43297 0.40628
USER: genes 1 Rotation |==|  0.48707 0.49652 0.64287 0.97897
USER: genes 2 Torsion [C]-CA--CB-[CG] |==|  0.34609
USER: genes 3 Torsion [CA]-CB--CG-[CD2] |==|  0.83299
USER: genes 4 Torsion [N]-CA--C-[N] |==|  0.37932
USER: genes 5 Torsion [C]-N--CA-[C] |==|  0.28669
USER: genes 6 Torsion [N]-CA--C-[N] |==|  0.16667
USER: genes 7 Torsion [C]-N--CA-[CB] |==|  0.38077
USER: genes 8 Torsion [N]-CA--CB-[CG] |==|  0.72647
USER: genes 9 Torsion [CA]-CB--CG-[CD] |==|  0.72854
USER: genes 10 Torsion [CB]-CG--CD-[OE2] |==|  0.74738
USER: genes 11 Torsion [N]-CA--C-[OXT] |==|  0.80101
USER: genes 12 Torsion [CB]-CA--N-[C] |==|  0.51703
USER: genes 13 Torsion [N]-C--CA-[N] |==|  0.00140
USER: genes 14 Torsion [C]-CA--N-[C] |==|  0.66360
USER: genes 15 Torsion [N]-C--CA-[N] |==|  0.80894
USER: genes 16 Torsion [C]-CA--CB-[CG] |==|  0.17871
USER: genes 17 Torsion [CA]-CB--CG-[CD] |==|  0.69710
USER: genes 18 Torsion [CB]-CG--CD-[NE2] |==|  0.24038
ROOT
ATOM      1  CA  HIS G 812     -27.544  32.516  19.413  1.00 98.11 LIG 0.18  C 
ENDROOT
BRANCH 1 2
ATOM      2  CB  HIS G 812     -26.466  31.433  19.260  1.00 96.29 LIG 0.10  C 
BRANCH 2 3
ATOM      3  CG  HIS G 812     -26.843  30.270  18.385  1.00 94.00 LIG 0.06  A 
ATOM      4  CD2 HIS G 812     -27.842  29.371  18.484  1.00 93.71 LIG 0.14  A 
ATOM      5 NE2  HIS G 812     -27.614  28.395  17.536  1.00 93.19 LIG-0.25  NA
ATOM      6  CE1 HIS G 812     -26.513  28.706  16.872  1.00 92.78 LIG 0.23  A 
ATOM      7 ND1  HIS G 812     -26.031  29.832  17.358  1.00 93.58 LIG-0.24  NA
ENDBRANCH 2 3
ENDBRANCH 1 2
BRANCH 1 8
ATOM      8  C   HIS G 812     -27.782  32.675  20.912  1.00 99.25 LIG 0.24  C 
ATOM      9  N   GLY G 813     -28.921  32.205  21.405  1.00100.26 LIG-0.35  N 
ATOM     10 H    GLY G 813     -29.538  31.825  20.944  1.00100.26 LIG 0.16  HD
ATOM     11 O    HIS G 812     -26.920  33.201  21.619  1.00 99.52 LIG-0.27  OA
BRANCH 9 12
ATOM     12  CA  GLY G 813     -29.190  32.317  22.829  1.00101.48 LIG 0.23  C 
BRANCH 12 13
ATOM     13  C   GLY G 813     -30.170  33.427  23.164  1.00102.44 LIG 0.24  C 
ATOM     14 O    GLY G 813     -29.823  34.353  23.896  1.00102.98 LIG-0.27  OA
ATOM     15  N   GLU G 814     -31.388  33.350  22.630  1.00102.70 LIG-0.34  N 
ATOM     16 H    GLU G 814     -31.647  32.721  22.104  1.00102.70 LIG 0.16  HD
BRANCH 15 17
ATOM     17  CA  GLU G 814     -32.406  34.366  22.912  1.00102.89 LIG 0.19  C 
BRANCH 17 18
ATOM     18  CB  GLU G 814     -33.162  34.752  21.634  1.00101.97 LIG 0.05  C 
BRANCH 18 19
ATOM     19  CG  GLU G 814     -32.679  36.024  20.965  1.00100.63 LIG 0.12  C 
BRANCH 19 20
ATOM     20  CD  GLU G 814     -33.524  37.236  21.329  1.00100.36 LIG 0.17  C 
ATOM     21 OE1  GLU G 814     -33.204  37.905  22.336  1.00 99.71 LIG-0.65  OA
ATOM     22 OE2  GLU G 814     -34.502  37.525  20.608  1.00 99.42 LIG-0.65  OA
ENDBRANCH 19 20
ENDBRANCH 18 19
ENDBRANCH 17 18
BRANCH 17 23
ATOM     23  C   GLU G 814     -33.410  33.853  23.949  1.00103.78 LIG 0.20  C 
ATOM     24 OXT  GLU G 814     -34.229  32.969  23.608  1.00104.07 LIG-0.65  OA
ATOM     25 O    GLU G 814     -33.364  34.342  25.100  1.00104.32 LIG-0.65  OA
ENDBRANCH 17 23
ENDBRANCH 15 17
ENDBRANCH 12 13
ENDBRANCH 9 12
ENDBRANCH 1 8
BRANCH 1 26
ATOM     26  N   HIS G 812     -27.004  33.836  19.062  1.00 98.48 LIG-0.35  N 
ATOM     27  C   GLY G 811     -27.644  34.999  19.198  1.00 98.46 LIG 0.24  C 
ATOM     28 O    GLY G 811     -28.806  35.112  19.606  1.00 98.78 LIG-0.27  OA
ATOM     29 H    HIS G 812     -26.205  33.791  18.747  1.00 98.48 LIG 0.16  HD
BRANCH 27 30
ATOM     30  CA  GLY G 811     -26.830  36.220  18.797  1.00 98.06 LIG 0.23  C 
BRANCH 30 31
ATOM     31  N   GLY G 811     -25.484  35.976  18.312  1.00 97.66 LIG-0.35  N 
ATOM     32 H    GLY G 811     -25.434  35.470  17.619  1.00 97.66 LIG 0.16  HD
ATOM     33  C   GLN G 810     -24.435  36.518  18.929  1.00 97.43 LIG 0.26  C 
ATOM     34 O    GLN G 810     -24.541  37.222  19.934  1.00 97.76 LIG-0.27  OA
BRANCH 33 35
ATOM     35  CA  GLN G 810     -23.059  36.210  18.338  1.00 96.79 LIG 0.40  C 
ATOM     36  N   GLN G 810     -22.713  34.772  18.541  1.00 96.61 LIG 0.61  N 
BRANCH 35 37
ATOM     37  CB  GLN G 810     -23.076  36.546  16.849  1.00 96.38 LIG 0.06  C 
BRANCH 37 38
ATOM     38  CG  GLN G 810     -23.283  38.015  16.511  1.00 95.56 LIG 0.10  C 
BRANCH 38 39
ATOM     39  CD  GLN G 810     -24.646  38.273  15.911  1.00 95.11 LIG 0.21  C 
ATOM     40  NE2 GLN G 810     -25.635  38.491  16.771  1.00 94.31 LIG-0.37  N 
ATOM     41 21HE GLN G 810     -25.480  38.478  17.617  1.00 94.31 LIG 0.16  HD
ATOM     42 22HE GLN G 810     -26.431  38.644  16.482  1.00 94.31 LIG 0.16  HD
ATOM     43 OE1  GLN G 810     -24.813  38.279  14.690  1.00 94.65 LIG-0.27  OA
ENDBRANCH 38 39
ENDBRANCH 37 38
ENDBRANCH 35 37
ENDBRANCH 33 35
ENDBRANCH 30 31
ENDBRANCH 27 30
ENDBRANCH 1 26
TORSDOF 17
ENDMDL
MODEL 4
USER: ADFR SOLUTION from run 137
USER: SCORE 9.299968 LL:  -1.521 LR:  -9.483 RR:   0.000 FEB:  -4.412
USER: RMSD 2.487494
USER: SEED 136
USER: STATUS no improvement in best in 6 clusters for 5 generations
USER: GENES 19
USER: genes 0 Translation |==|  0.42441 0.43373 0.42022
USER: genes 1 Rotation |==|  0.46369 0.59662 0.64636 0.96683
USER: genes 2 Torsion [C]-CA--CB-[CG] |==|  0.40268
USER: genes 3 Torsion [CA]-CB--CG-[CD2] |==|  0.81015
USER: genes 4 Torsion [N]-CA--C-[N] |==|  0.38265
USER: genes 5 Torsion [C]-N--CA-[C] |==|  0.49522
USER: genes 6 Torsion [N]-CA--C-[N] |==|  0.44559
USER: genes 7 Torsion [C]-N--CA-[CB] |==|  0.38973
USER: genes 8 Torsion [N]-CA--CB-[CG] |==|  0.53733
USER: genes 9 Torsion [CA]-CB--CG-[CD] |==|  0.54482
USER: genes 10 Torsion [CB]-CG--CD-[OE2] |==|  0.83470
USER: genes 11 Torsion [N]-CA--C-[OXT] |==|  0.39417
USER: genes 12 Torsion [CB]-CA--N-[C] |==|  0.52264
USER: genes 13 Torsion [N]-C--CA-[N] |==|  0.89606
USER: genes 14 Torsion [C]-CA--N-[C] |==|  0.59183
USER: genes 15 Torsion [N]-C--CA-[N] |==|  0.95029
USER: genes 16 Torsion [C]-CA--CB-[CG] |==|  0.41319
USER: genes 17 Torsion [CA]-CB--CG-[CD] |==|  0.25056
USER: genes 18 Torsion [CB]-CG--CD-[NE2] |==|  0.82805
ROOT
ATOM      1  CA  HIS G 812     -27.518  32.530  19.758  1.00 98.11 LIG 0.18  C 
ENDROOT
BRANCH 1 2
ATOM      2  CB  HIS G 812     -26.506  31.416  19.454  1.00 96.29 LIG 0.10  C 
BRANCH 2 3
ATOM      3  CG  HIS G 812     -27.017  30.302  18.585  1.00 94.00 LIG 0.06  A 
ATOM      4  CD2 HIS G 812     -27.937  29.345  18.817  1.00 93.71 LIG 0.14  A 
ATOM      5 NE2  HIS G 812     -27.881  28.455  17.764  1.00 93.19 LIG-0.25  NA
ATOM      6  CE1 HIS G 812     -26.961  28.873  16.912  1.00 92.78 LIG 0.23  A 
ATOM      7 ND1  HIS G 812     -26.428  29.985  17.377  1.00 93.58 LIG-0.24  NA
ENDBRANCH 2 3
ENDBRANCH 1 2
BRANCH 1 8
ATOM      8  C   HIS G 812     -27.229  32.996  21.182  1.00 99.25 LIG 0.24  C 
ATOM      9  N   GLY G 813     -28.086  32.639  22.131  1.00100.26 LIG-0.35  N 
ATOM     10 H    GLY G 813     -28.796  32.173  22.003  1.00100.26 LIG 0.16  HD
ATOM     11 O    HIS G 812     -26.215  33.656  21.419  1.00 99.52 LIG-0.27  OA
BRANCH 9 12
ATOM     12  CA  GLY G 813     -27.848  33.045  23.505  1.00101.48 LIG 0.23  C 
BRANCH 12 13
ATOM     13  C   GLY G 813     -28.940  32.592  24.458  1.00102.44 LIG 0.24  C 
ATOM     14 O    GLY G 813     -30.045  32.273  24.019  1.00102.98 LIG-0.27  OA
ATOM     15  N   GLU G 814     -28.643  32.551  25.756  1.00102.70 LIG-0.34  N 
ATOM     16 H    GLU G 814     -27.873  32.755  26.082  1.00102.70 LIG 0.16  HD
BRANCH 15 17
ATOM     17  CA  GLU G 814     -29.639  32.144  26.750  1.00102.89 LIG 0.19  C 
BRANCH 17 18
ATOM     18  CB  GLU G 814     -29.001  31.267  27.836  1.00101.97 LIG 0.05  C 
BRANCH 18 19
ATOM     19  CG  GLU G 814     -29.986  30.535  28.726  1.00100.63 LIG 0.12  C 
BRANCH 19 20
ATOM     20  CD  GLU G 814     -29.344  30.008  30.002  1.00100.36 LIG 0.17  C 
ATOM     21 OE1  GLU G 814     -29.794  30.398  31.101  1.00 99.71 LIG-0.65  OA
ATOM     22 OE2  GLU G 814     -28.396  29.200  29.907  1.00 99.42 LIG-0.65  OA
ENDBRANCH 19 20
ENDBRANCH 18 19
ENDBRANCH 17 18
BRANCH 17 23
ATOM     23  C   GLU G 814     -30.277  33.370  27.412  1.00103.78 LIG 0.20  C 
ATOM     24 OXT  GLU G 814     -31.500  33.341  27.680  1.00104.07 LIG-0.65  OA
ATOM     25 O    GLU G 814     -29.540  34.350  27.661  1.00104.32 LIG-0.65  OA
ENDBRANCH 17 23
ENDBRANCH 15 17
ENDBRANCH 12 13
ENDBRANCH 9 12
ENDBRANCH 1 8
BRANCH 1 26
ATOM     26  N   HIS G 812     -27.204  33.739  18.986  1.00 98.48 LIG-0.35  N 
ATOM     27  C   GLY G 811     -27.791  34.929  19.131  1.00 98.46 LIG 0.24  C 
ATOM     28 O    GLY G 811     -28.717  35.158  19.919  1.00 98.78 LIG-0.27  OA
ATOM     29 H    HIS G 812     -26.582  33.607  18.407  1.00 98.48 LIG 0.16  HD
BRANCH 27 30
ATOM     30  CA  GLY G 811     -27.239  36.022  18.229  1.00 98.06 LIG 0.23  C 
BRANCH 30 31
ATOM     31  N   GLY G 811     -25.806  36.011  17.994  1.00 97.66 LIG-0.35  N 
ATOM     32 H    GLY G 811     -25.447  35.230  17.977  1.00 97.66 LIG 0.16  HD
ATOM     33  C   GLN G 810     -25.141  37.152  17.823  1.00 97.43 LIG 0.26  C 
ATOM     34 O    GLN G 810     -25.684  38.256  17.874  1.00 97.76 LIG-0.27  OA
BRANCH 33 35
ATOM     35  CA  GLN G 810     -23.638  37.037  17.571  1.00 96.79 LIG 0.40  C 
ATOM     36  N   GLN G 810     -23.139  35.694  17.990  1.00 96.61 LIG 0.61  N 
BRANCH 35 37
ATOM     37  CB  GLN G 810     -23.367  37.263  16.086  1.00 96.38 LIG 0.06  C 
BRANCH 37 38
ATOM     38  CG  GLN G 810     -22.029  37.906  15.754  1.00 95.56 LIG 0.10  C 
BRANCH 38 39
ATOM     39  CD  GLN G 810     -20.943  36.876  15.538  1.00 95.11 LIG 0.21  C 
ATOM     40  NE2 GLN G 810     -20.654  36.102  16.579  1.00 94.31 LIG-0.37  N 
ATOM     41 21HE GLN G 810     -21.075  36.204  17.321  1.00 94.31 LIG 0.16  HD
ATOM     42 22HE GLN G 810     -20.044  35.499  16.510  1.00 94.31 LIG 0.16  HD
ATOM     43 OE1  GLN G 810     -20.370  36.773  14.453  1.00 94.65 LIG-0.27  OA
ENDBRANCH 38 39
ENDBRANCH 37 38
ENDBRANCH 35 37
ENDBRANCH 33 35
ENDBRANCH 30 31
ENDBRANCH 27 30
ENDBRANCH 1 26
TORSDOF 17
ENDMDL
MODEL 5
USER: ADFR SOLUTION from run 160
USER: SCORE 9.062732 LL:  -1.589 LR:  -9.385 RR:   0.000 FEB:  -4.313
USER: RMSD 3.315093
USER: SEED 159
USER: STATUS no improvement in best in 20 clusters for 5 generations
USER: GENES 19
USER: genes 0 Translation |==|  0.47441 0.40361 0.47259
USER: genes 1 Rotation |==|  0.63836 0.65183 0.53761 0.95430
USER: genes 2 Torsion [C]-CA--CB-[CG] |==|  0.30038
USER: genes 3 Torsion [CA]-CB--CG-[CD2] |==|  0.92935
USER: genes 4 Torsion [N]-CA--C-[N] |==|  0.35556
USER: genes 5 Torsion [C]-N--CA-[C] |==|  0.44644
USER: genes 6 Torsion [N]-CA--C-[N] |==|  0.43716
USER: genes 7 Torsion [C]-N--CA-[CB] |==|  0.46826
USER: genes 8 Torsion [N]-CA--CB-[CG] |==|  0.58833
USER: genes 9 Torsion [CA]-CB--CG-[CD] |==|  0.65249
USER: genes 10 Torsion [CB]-CG--CD-[OE2] |==|  0.72869
USER: genes 11 Torsion [N]-CA--C-[OXT] |==|  0.87810
USER: genes 12 Torsion [CB]-CA--N-[C] |==|  0.24018
USER: genes 13 Torsion [N]-C--CA-[N] |==|  0.37064
USER: genes 14 Torsion [C]-CA--N-[C] |==|  0.38059
USER: genes 15 Torsion [N]-C--CA-[N] |==|  0.39020
USER: genes 16 Torsion [C]-CA--CB-[CG] |==|  0.37305
USER: genes 17 Torsion [CA]-CB--CG-[CD] |==|  0.64046
USER: genes 18 Torsion [CB]-CG--CD-[NE2] |==|  0.12986
ROOT
ATOM      1  CA  HIS G 812     -26.543  31.966  21.055  1.00 98.11 LIG 0.18  C 
ENDROOT
BRANCH 1 2
ATOM      2  CB  HIS G 812     -26.480  30.925  19.928  1.00 96.29 LIG 0.10  C 
BRANCH 2 3
ATOM      3  CG  HIS G 812     -27.757  30.172  19.675  1.00 94.00 LIG 0.06  A 
ATOM      4  CD2 HIS G 812     -28.799  29.893  20.483  1.00 93.71 LIG 0.14  A 
ATOM      5 NE2  HIS G 812     -29.613  29.003  19.814  1.00 93.19 LIG-0.25  NA
ATOM      6  CE1 HIS G 812     -29.082  28.761  18.628  1.00 92.78 LIG 0.23  A 
ATOM      7 ND1  HIS G 812     -27.967  29.455  18.514  1.00 93.58 LIG-0.24  NA
ENDBRANCH 2 3
ENDBRANCH 1 2
BRANCH 1 8
ATOM      8  C   HIS G 812     -25.734  31.393  22.214  1.00 99.25 LIG 0.24  C 
ATOM      9  N   GLY G 813     -26.380  31.126  23.342  1.00100.26 LIG-0.35  N 
ATOM     10 H    GLY G 813     -27.219  31.259  23.472  1.00100.26 LIG 0.16  HD
ATOM     11 O    HIS G 812     -24.530  31.172  22.072  1.00 99.52 LIG-0.27  OA
BRANCH 9 12
ATOM     12  CA  GLY G 813     -25.658  30.565  24.470  1.00101.48 LIG 0.23  C 
BRANCH 12 13
ATOM     13  C   GLY G 813     -26.385  30.745  25.792  1.00102.44 LIG 0.24  C 
ATOM     14 O    GLY G 813     -27.226  31.634  25.914  1.00102.98 LIG-0.27  OA
ATOM     15  N   GLU G 814     -26.076  29.906  26.779  1.00102.70 LIG-0.34  N 
ATOM     16 H    GLU G 814     -25.502  29.268  26.711  1.00102.70 LIG 0.16  HD
BRANCH 15 17
ATOM     17  CA  GLU G 814     -26.712  30.015  28.094  1.00102.89 LIG 0.19  C 
BRANCH 17 18
ATOM     18  CB  GLU G 814     -26.405  28.781  28.954  1.00101.97 LIG 0.05  C 
BRANCH 18 19
ATOM     19  CG  GLU G 814     -27.502  28.391  29.926  1.00100.63 LIG 0.12  C 
BRANCH 19 20
ATOM     20  CD  GLU G 814     -27.007  28.297  31.362  1.00100.36 LIG 0.17  C 
ATOM     21 OE1  GLU G 814     -26.924  29.349  32.034  1.00 99.71 LIG-0.65  OA
ATOM     22 OE2  GLU G 814     -26.707  27.175  31.822  1.00 99.42 LIG-0.65  OA
ENDBRANCH 19 20
ENDBRANCH 18 19
ENDBRANCH 17 18
BRANCH 17 23
ATOM     23  C   GLU G 814     -26.226  31.267  28.830  1.00103.78 LIG 0.20  C 
ATOM     24 OXT  GLU G 814     -25.004  31.540  28.811  1.00104.07 LIG-0.65  OA
ATOM     25 O    GLU G 814     -27.079  31.970  29.416  1.00104.32 LIG-0.65  OA
ENDBRANCH 17 23
ENDBRANCH 15 17
ENDBRANCH 12 13
ENDBRANCH 9 12
ENDBRANCH 1 8
BRANCH 1 26
ATOM     26  N   HIS G 812     -25.754  33.154  20.706  1.00 98.48 LIG-0.35  N 
ATOM     27  C   GLY G 811     -26.193  34.200  20.002  1.00 98.46 LIG 0.24  C 
ATOM     28 O    GLY G 811     -27.325  34.285  19.512  1.00 98.78 LIG-0.27  OA
ATOM     29 H    HIS G 812     -24.949  33.115  21.007  1.00 98.48 LIG 0.16  HD
BRANCH 27 30
ATOM     30  CA  GLY G 811     -25.174  35.316  19.826  1.00 98.06 LIG 0.23  C 
BRANCH 30 31
ATOM     31  N   GLY G 811     -25.027  35.858  18.487  1.00 97.66 LIG-0.35  N 
ATOM     32 H    GLY G 811     -25.012  35.273  17.857  1.00 97.66 LIG 0.16  HD
ATOM     33  C   GLN G 810     -24.927  37.173  18.298  1.00 97.43 LIG 0.26  C 
ATOM     34 O    GLN G 810     -24.932  37.983  19.226  1.00 97.76 LIG-0.27  OA
BRANCH 33 35
ATOM     35  CA  GLN G 810     -24.786  37.648  16.852  1.00 96.79 LIG 0.40  C 
ATOM     36  N   GLN G 810     -25.582  38.891  16.630  1.00 96.61 LIG 0.61  N 
BRANCH 35 37
ATOM     37  CB  GLN G 810     -23.309  37.905  16.560  1.00 96.38 LIG 0.06  C 
BRANCH 37 38
ATOM     38  CG  GLN G 810     -22.794  37.345  15.244  1.00 95.56 LIG 0.10  C 
BRANCH 38 39
ATOM     39  CD  GLN G 810     -21.532  36.532  15.428  1.00 95.11 LIG 0.21  C 
ATOM     40  NE2 GLN G 810     -21.543  35.648  16.420  1.00 94.31 LIG-0.37  N 
ATOM     41 21HE GLN G 810     -22.241  35.566  16.915  1.00 94.31 LIG 0.16  HD
ATOM     42 22HE GLN G 810     -20.851  35.159  16.567  1.00 94.31 LIG 0.16  HD
ATOM     43 OE1  GLN G 810     -20.560  36.691  14.689  1.00 94.65 LIG-0.27  OA
ENDBRANCH 38 39
ENDBRANCH 37 38
ENDBRANCH 35 37
ENDBRANCH 33 35
ENDBRANCH 30 31
ENDBRANCH 27 30
ENDBRANCH 1 26
TORSDOF 17
ENDMDL
MODEL 6
USER: ADFR SOLUTION from run 82
USER: SCORE 9.376360 LL:  -2.100 LR:  -9.365 RR:   0.000 FEB:  -4.294
USER: RMSD 5.573727
USER: SEED 81
USER: STATUS no improvement in best in 8 clusters for 5 generations
USER: GENES 19
USER: genes 0 Translation |==|  0.38866 0.38935 0.45434
USER: genes 1 Rotation |==|  0.48421 0.45484 0.47590 0.99712
USER: genes 2 Torsion [C]-CA--CB-[CG] |==|  0.41285
USER: genes 3 Torsion [CA]-CB--CG-[CD2] |==|  0.68789
USER: genes 4 Torsion [N]-CA--C-[N] |==|  0.42599
USER: genes 5 Torsion [C]-N--CA-[C] |==|  0.33884
USER: genes 6 Torsion [N]-CA--C-[N] |==|  0.19292
USER: genes 7 Torsion [C]-N--CA-[CB] |==|  0.27700
USER: genes 8 Torsion [N]-CA--CB-[CG] |==|  0.60232
USER: genes 9 Torsion [CA]-CB--CG-[CD] |==|  0.52113
USER: genes 10 Torsion [CB]-CG--CD-[OE2] |==|  0.80199
USER: genes 11 Torsion [N]-CA--C-[OXT] |==|  0.49511
USER: genes 12 Torsion [CB]-CA--N-[C] |==|  0.45000
USER: genes 13 Torsion [N]-C--CA-[N] |==|  0.45729
USER: genes 14 Torsion [C]-CA--N-[C] |==|  0.58750
USER: genes 15 Torsion [N]-C--CA-[N] |==|  0.49183
USER: genes 16 Torsion [C]-CA--CB-[CG] |==|  0.21257
USER: genes 17 Torsion [CA]-CB--CG-[CD] |==|  0.20983
USER: genes 18 Torsion [CB]-CG--CD-[NE2] |==|  0.32924
ROOT
ATOM      1  CA  HIS G 812     -28.215  31.698  20.603  1.00 98.11 LIG 0.18  C 
ENDROOT
BRANCH 1 2
ATOM      2  CB  HIS G 812     -28.023  30.178  20.511  1.00 96.29 LIG 0.10  C 
BRANCH 2 3
ATOM      3  CG  HIS G 812     -28.385  29.562  19.188  1.00 94.00 LIG 0.06  A 
ATOM      4  CD2 HIS G 812     -29.380  28.722  18.842  1.00 93.71 LIG 0.14  A 
ATOM      5 NE2  HIS G 812     -29.138  28.306  17.549  1.00 93.19 LIG-0.25  NA
ATOM      6  CE1 HIS G 812     -28.033  28.892  17.122  1.00 92.78 LIG 0.23  A 
ATOM      7 ND1  HIS G 812     -27.561  29.657  18.085  1.00 93.58 LIG-0.24  NA
ENDBRANCH 2 3
ENDBRANCH 1 2
BRANCH 1 8
ATOM      8  C   HIS G 812     -28.576  31.998  22.054  1.00 99.25 LIG 0.24  C 
ATOM      9  N   GLY G 813     -29.863  32.009  22.378  1.00100.26 LIG-0.35  N 
ATOM     10 H    GLY G 813     -30.509  31.868  21.830  1.00100.26 LIG 0.16  HD
ATOM     11 O    HIS G 812     -27.683  32.193  22.881  1.00 99.52 LIG-0.27  OA
BRANCH 9 12
ATOM     12  CA  GLY G 813     -30.258  32.275  23.750  1.00101.48 LIG 0.23  C 
BRANCH 12 13
ATOM     13  C   GLY G 813     -31.182  33.473  23.884  1.00102.44 LIG 0.24  C 
ATOM     14 O    GLY G 813     -30.775  34.506  24.413  1.00102.98 LIG-0.27  OA
ATOM     15  N   GLU G 814     -32.418  33.349  23.402  1.00102.70 LIG-0.34  N 
ATOM     16 H    GLU G 814     -32.717  32.642  23.014  1.00102.70 LIG 0.16  HD
BRANCH 15 17
ATOM     17  CA  GLU G 814     -33.384  34.446  23.502  1.00102.89 LIG 0.19  C 
BRANCH 17 18
ATOM     18  CB  GLU G 814     -33.474  35.218  22.178  1.00101.97 LIG 0.05  C 
BRANCH 18 19
ATOM     19  CG  GLU G 814     -33.663  36.716  22.324  1.00100.63 LIG 0.12  C 
BRANCH 19 20
ATOM     20  CD  GLU G 814     -33.930  37.405  20.994  1.00100.36 LIG 0.17  C 
ATOM     21 OE1  GLU G 814     -35.078  37.849  20.772  1.00 99.71 LIG-0.65  OA
ATOM     22 OE2  GLU G 814     -32.995  37.510  20.173  1.00 99.42 LIG-0.65  OA
ENDBRANCH 19 20
ENDBRANCH 18 19
ENDBRANCH 17 18
BRANCH 17 23
ATOM     23  C   GLU G 814     -34.774  33.913  23.861  1.00103.78 LIG 0.20  C 
ATOM     24 OXT  GLU G 814     -35.710  34.730  24.018  1.00104.07 LIG-0.65  OA
ATOM     25 O    GLU G 814     -34.914  32.675  23.978  1.00104.32 LIG-0.65  OA
ENDBRANCH 17 23
ENDBRANCH 15 17
ENDBRANCH 12 13
ENDBRANCH 9 12
ENDBRANCH 1 8
BRANCH 1 26
ATOM     26  N   HIS G 812     -26.927  32.391  20.472  1.00 98.48 LIG-0.35  N 
ATOM     27  C   GLY G 811     -26.765  33.681  20.172  1.00 98.46 LIG 0.24  C 
ATOM     28 O    GLY G 811     -27.692  34.460  19.920  1.00 98.78 LIG-0.27  OA
ATOM     29 H    HIS G 812     -26.257  31.870  20.613  1.00 98.48 LIG 0.16  HD
BRANCH 27 30
ATOM     30  CA  GLY G 811     -25.317  34.148  20.146  1.00 98.06 LIG 0.23  C 
BRANCH 30 31
ATOM     31  N   GLY G 811     -25.055  35.422  19.501  1.00 97.66 LIG-0.35  N 
ATOM     32 H    GLY G 811     -25.692  35.997  19.559  1.00 97.66 LIG 0.16  HD
ATOM     33  C   GLN G 810     -23.897  35.637  18.878  1.00 97.43 LIG 0.26  C 
ATOM     34 O    GLN G 810     -23.013  34.784  18.796  1.00 97.76 LIG-0.27  OA
BRANCH 33 35
ATOM     35  CA  GLN G 810     -23.710  37.013  18.237  1.00 96.79 LIG 0.40  C 
ATOM     36  N   GLN G 810     -22.347  37.131  17.642  1.00 96.61 LIG 0.61  N 
BRANCH 35 37
ATOM     37  CB  GLN G 810     -24.777  37.205  17.162  1.00 96.38 LIG 0.06  C 
BRANCH 37 38
ATOM     38  CG  GLN G 810     -26.172  37.531  17.673  1.00 95.56 LIG 0.10  C 
BRANCH 38 39
ATOM     39  CD  GLN G 810     -26.284  38.965  18.141  1.00 95.11 LIG 0.21  C 
ATOM     40  NE2 GLN G 810     -27.158  39.727  17.494  1.00 94.31 LIG-0.37  N 
ATOM     41 21HE GLN G 810     -27.620  39.398  16.847  1.00 94.31 LIG 0.16  HD
ATOM     42 22HE GLN G 810     -27.262  40.550  17.721  1.00 94.31 LIG 0.16  HD
ATOM     43 OE1  GLN G 810     -25.597  39.385  19.074  1.00 94.65 LIG-0.27  OA
ENDBRANCH 38 39
ENDBRANCH 37 38
ENDBRANCH 35 37
ENDBRANCH 33 35
ENDBRANCH 30 31
ENDBRANCH 27 30
ENDBRANCH 1 26
TORSDOF 17
ENDMDL
MODEL 7
USER: ADFR SOLUTION from run 188
USER: SCORE 10.271437 LL:  -2.066 LR:  -9.327 RR:   0.000 FEB:  -4.256
USER: RMSD 4.480099
USER: SEED 187
USER: STATUS no improvement in best in 11 clusters for 5 generations
USER: GENES 19
USER: genes 0 Translation |==|  0.43011 0.44099 0.40888
USER: genes 1 Rotation |==|  0.47951 0.49930 0.63964 0.97967
USER: genes 2 Torsion [C]-CA--CB-[CG] |==|  0.32924
USER: genes 3 Torsion [CA]-CB--CG-[CD2] |==|  0.33427
USER: genes 4 Torsion [N]-CA--C-[N] |==|  0.37464
USER: genes 5 Torsion [C]-N--CA-[C] |==|  0.29110
USER: genes 6 Torsion [N]-CA--C-[N] |==|  0.37882
USER: genes 7 Torsion [C]-N--CA-[CB] |==|  0.29247
USER: genes 8 Torsion [N]-CA--CB-[CG] |==|  0.93893
USER: genes 9 Torsion [CA]-CB--CG-[CD] |==|  0.67877
USER: genes 10 Torsion [CB]-CG--CD-[OE2] |==|  0.52217
USER: genes 11 Torsion [N]-CA--C-[OXT] |==|  0.97492
USER: genes 12 Torsion [CB]-CA--N-[C] |==|  0.51111
USER: genes 13 Torsion [N]-C--CA-[N] |==|  0.00114
USER: genes 14 Torsion [C]-CA--N-[C] |==|  0.66764
USER: genes 15 Torsion [N]-C--CA-[N] |==|  0.82608
USER: genes 16 Torsion [C]-CA--CB-[CG] |==|  0.35519
USER: genes 17 Torsion [CA]-CB--CG-[CD] |==|  0.36382
USER: genes 18 Torsion [CB]-CG--CD-[NE2] |==|  0.48597
ROOT
ATOM      1  CA  HIS G 812     -27.407  32.667  19.478  1.00 98.11 LIG 0.18  C 
ENDROOT
BRANCH 1 2
ATOM      2  CB  HIS G 812     -26.345  31.564  19.357  1.00 96.29 LIG 0.10  C 
BRANCH 2 3
ATOM      3  CG  HIS G 812     -26.788  30.319  18.641  1.00 94.00 LIG 0.06  A 
ATOM      4  CD2 HIS G 812     -26.319  29.718  17.530  1.00 93.71 LIG 0.14  A 
ATOM      5 NE2  HIS G 812     -27.211  28.722  17.192  1.00 93.19 LIG-0.25  NA
ATOM      6  CE1 HIS G 812     -28.186  28.713  18.085  1.00 92.78 LIG 0.23  A 
ATOM      7 ND1  HIS G 812     -27.955  29.660  18.971  1.00 93.58 LIG-0.24  NA
ENDBRANCH 2 3
ENDBRANCH 1 2
BRANCH 1 8
ATOM      8  C   HIS G 812     -27.640  32.876  20.970  1.00 99.25 LIG 0.24  C 
ATOM      9  N   GLY G 813     -28.799  32.469  21.474  1.00100.26 LIG-0.35  N 
ATOM     10 H    GLY G 813     -29.431  32.103  21.022  1.00100.26 LIG 0.16  HD
ATOM     11 O    HIS G 812     -26.758  33.384  21.665  1.00 99.52 LIG-0.27  OA
BRANCH 9 12
ATOM     12  CA  GLY G 813     -29.064  32.632  22.893  1.00101.48 LIG 0.23  C 
BRANCH 12 13
ATOM     13  C   GLY G 813     -30.027  33.767  23.193  1.00102.44 LIG 0.24  C 
ATOM     14 O    GLY G 813     -29.911  34.842  22.606  1.00102.98 LIG-0.27  OA
ATOM     15  N   GLU G 814     -30.982  33.538  24.093  1.00102.70 LIG-0.34  N 
ATOM     16 H    GLU G 814     -31.091  32.789  24.503  1.00102.70 LIG 0.16  HD
BRANCH 15 17
ATOM     17  CA  GLU G 814     -31.945  34.579  24.459  1.00102.89 LIG 0.19  C 
BRANCH 17 18
ATOM     18  CB  GLU G 814     -33.317  34.301  23.830  1.00101.97 LIG 0.05  C 
BRANCH 18 19
ATOM     19  CG  GLU G 814     -33.291  33.398  22.612  1.00100.63 LIG 0.12  C 
BRANCH 19 20
ATOM     20  CD  GLU G 814     -33.748  34.108  21.346  1.00100.36 LIG 0.17  C 
ATOM     21 OE1  GLU G 814     -33.934  35.344  21.389  1.00 99.71 LIG-0.65  OA
ATOM     22 OE2  GLU G 814     -33.916  33.435  20.307  1.00 99.42 LIG-0.65  OA
ENDBRANCH 19 20
ENDBRANCH 18 19
ENDBRANCH 17 18
BRANCH 17 23
ATOM     23  C   GLU G 814     -32.103  34.661  25.980  1.00103.78 LIG 0.20  C 
ATOM     24 OXT  GLU G 814     -31.572  33.776  26.689  1.00104.07 LIG-0.65  OA
ATOM     25 O    GLU G 814     -32.755  35.620  26.450  1.00104.32 LIG-0.65  OA
ENDBRANCH 17 23
ENDBRANCH 15 17
ENDBRANCH 12 13
ENDBRANCH 9 12
ENDBRANCH 1 8
BRANCH 1 26
ATOM     26  N   HIS G 812     -26.850  33.967  19.083  1.00 98.48 LIG-0.35  N 
ATOM     27  C   GLY G 811     -27.488  35.138  19.146  1.00 98.46 LIG 0.24  C 
ATOM     28 O    GLY G 811     -28.662  35.273  19.512  1.00 98.78 LIG-0.27  OA
ATOM     29 H    HIS G 812     -26.041  33.905  18.796  1.00 98.48 LIG 0.16  HD
BRANCH 27 30
ATOM     30  CA  GLY G 811     -26.656  36.336  18.716  1.00 98.06 LIG 0.23  C 
BRANCH 30 31
ATOM     31  N   GLY G 811     -25.295  36.065  18.287  1.00 97.66 LIG-0.35  N 
ATOM     32 H    GLY G 811     -25.226  35.542  17.608  1.00 97.66 LIG 0.16  HD
ATOM     33  C   GLN G 810     -24.264  36.609  18.930  1.00 97.43 LIG 0.26  C 
ATOM     34 O    GLN G 810     -24.399  37.338  19.914  1.00 97.76 LIG-0.27  OA
BRANCH 33 35
ATOM     35  CA  GLN G 810     -22.871  36.272  18.398  1.00 96.79 LIG 0.40  C 
ATOM     36  N   GLN G 810     -22.609  34.807  18.511  1.00 96.61 LIG 0.61  N 
BRANCH 35 37
ATOM     37  CB  GLN G 810     -22.779  36.716  16.941  1.00 96.38 LIG 0.06  C 
BRANCH 37 38
ATOM     38  CG  GLN G 810     -21.589  37.599  16.598  1.00 95.56 LIG 0.10  C 
BRANCH 38 39
ATOM     39  CD  GLN G 810     -20.853  37.110  15.371  1.00 95.11 LIG 0.21  C 
ATOM     40  NE2 GLN G 810     -19.861  37.879  14.936  1.00 94.31 LIG-0.37  N 
ATOM     41 21HE GLN G 810     -19.671  38.610  15.348  1.00 94.31 LIG 0.16  HD
ATOM     42 22HE GLN G 810     -19.409  37.647  14.242  1.00 94.31 LIG 0.16  HD
ATOM     43 OE1  GLN G 810     -21.168  36.055  14.819  1.00 94.65 LIG-0.27  OA
ENDBRANCH 38 39
ENDBRANCH 37 38
ENDBRANCH 35 37
ENDBRANCH 33 35
ENDBRANCH 30 31
ENDBRANCH 27 30
ENDBRANCH 1 26
TORSDOF 17
ENDMDL
MODEL 8
USER: ADFR SOLUTION from run 170
USER: SCORE 9.601888 LL:  -2.055 LR:  -9.307 RR:   0.000 FEB:  -4.236
USER: RMSD 3.829296
USER: SEED 169
USER: STATUS no improvement in best in 11 clusters for 5 generations
USER: GENES 19
USER: genes 0 Translation |==|  0.48315 0.39253 0.48934
USER: genes 1 Rotation |==|  0.65123 0.64498 0.51389 0.95378
USER: genes 2 Torsion [C]-CA--CB-[CG] |==|  0.30243
USER: genes 3 Torsion [CA]-CB--CG-[CD2] |==|  0.95188
USER: genes 4 Torsion [N]-CA--C-[N] |==|  0.36204
USER: genes 5 Torsion [C]-N--CA-[C] |==|  0.43508
USER: genes 6 Torsion [N]-CA--C-[N] |==|  0.49307
USER: genes 7 Torsion [C]-N--CA-[CB] |==|  0.45024
USER: genes 8 Torsion [N]-CA--CB-[CG] |==|  0.41416
USER: genes 9 Torsion [CA]-CB--CG-[CD] |==|  0.38073
USER: genes 10 Torsion [CB]-CG--CD-[OE2] |==|  0.01456
USER: genes 11 Torsion [N]-CA--C-[OXT] |==|  0.88456
USER: genes 12 Torsion [CB]-CA--N-[C] |==|  0.16204
USER: genes 13 Torsion [N]-C--CA-[N] |==|  0.49490
USER: genes 14 Torsion [C]-CA--N-[C] |==|  0.41632
USER: genes 15 Torsion [N]-C--CA-[N] |==|  0.81132
USER: genes 16 Torsion [C]-CA--CB-[CG] |==|  0.10750
USER: genes 17 Torsion [CA]-CB--CG-[CD] |==|  0.70059
USER: genes 18 Torsion [CB]-CG--CD-[NE2] |==|  0.88949
ROOT
ATOM      1  CA  HIS G 812     -26.373  31.758  21.469  1.00 98.11 LIG 0.18  C 
ENDROOT
BRANCH 1 2
ATOM      2  CB  HIS G 812     -26.429  30.740  20.321  1.00 96.29 LIG 0.10  C 
BRANCH 2 3
ATOM      3  CG  HIS G 812     -27.785  30.149  20.051  1.00 94.00 LIG 0.06  A 
ATOM      4  CD2 HIS G 812     -28.902  30.107  20.804  1.00 93.71 LIG 0.14  A 
ATOM      5 NE2  HIS G 812     -29.797  29.272  20.168  1.00 93.19 LIG-0.25  NA
ATOM      6  CE1 HIS G 812     -29.238  28.832  19.053  1.00 92.78 LIG 0.23  A 
ATOM      7 ND1  HIS G 812     -28.030  29.348  18.954  1.00 93.58 LIG-0.24  NA
ENDBRANCH 2 3
ENDBRANCH 1 2
BRANCH 1 8
ATOM      8  C   HIS G 812     -25.625  31.077  22.611  1.00 99.25 LIG 0.24  C 
ATOM      9  N   GLY G 813     -26.305  30.815  23.720  1.00100.26 LIG-0.35  N 
ATOM     10 H    GLY G 813     -27.132  31.008  23.848  1.00100.26 LIG 0.16  HD
ATOM     11 O    HIS G 812     -24.440  30.767  22.471  1.00 99.52 LIG-0.27  OA
BRANCH 9 12
ATOM     12  CA  GLY G 813     -25.643  30.153  24.831  1.00101.48 LIG 0.23  C 
BRANCH 12 13
ATOM     13  C   GLY G 813     -26.314  30.417  26.168  1.00102.44 LIG 0.24  C 
ATOM     14 O    GLY G 813     -27.292  31.160  26.228  1.00102.98 LIG-0.27  OA
ATOM     15  N   GLU G 814     -25.806  29.809  27.239  1.00102.70 LIG-0.34  N 
ATOM     16 H    GLU G 814     -25.133  29.273  27.217  1.00102.70 LIG 0.16  HD
BRANCH 15 17
ATOM     17  CA  GLU G 814     -26.376  30.017  28.571  1.00102.89 LIG 0.19  C 
BRANCH 17 18
ATOM     18  CB  GLU G 814     -25.932  28.909  29.536  1.00101.97 LIG 0.05  C 
BRANCH 18 19
ATOM     19  CG  GLU G 814     -25.806  29.337  30.986  1.00100.63 LIG 0.12  C 
BRANCH 19 20
ATOM     20  CD  GLU G 814     -26.383  28.312  31.952  1.00100.36 LIG 0.17  C 
ATOM     21 OE1  GLU G 814     -26.432  28.601  33.168  1.00 99.71 LIG-0.65  OA
ATOM     22 OE2  GLU G 814     -26.794  27.223  31.498  1.00 99.42 LIG-0.65  OA
ENDBRANCH 19 20
ENDBRANCH 18 19
ENDBRANCH 17 18
BRANCH 17 23
ATOM     23  C   GLU G 814     -25.946  31.373  29.140  1.00103.78 LIG 0.20  C 
ATOM     24 OXT  GLU G 814     -24.760  31.744  28.978  1.00104.07 LIG-0.65  OA
ATOM     25 O    GLU G 814     -26.806  32.056  29.739  1.00104.32 LIG-0.65  OA
ENDBRANCH 17 23
ENDBRANCH 15 17
ENDBRANCH 12 13
ENDBRANCH 9 12
ENDBRANCH 1 8
BRANCH 1 26
ATOM     26  N   HIS G 812     -25.460  32.860  21.139  1.00 98.48 LIG-0.35  N 
ATOM     27  C   GLY G 811     -25.567  33.667  20.081  1.00 98.46 LIG 0.24  C 
ATOM     28 O    GLY G 811     -26.437  33.563  19.209  1.00 98.78 LIG-0.27  OA
ATOM     29 H    HIS G 812     -24.824  32.943  21.711  1.00 98.48 LIG 0.16  HD
BRANCH 27 30
ATOM     30  CA  GLY G 811     -24.507  34.756  20.007  1.00 98.06 LIG 0.23  C 
BRANCH 30 31
ATOM     31  N   GLY G 811     -24.556  35.635  18.852  1.00 97.66 LIG-0.35  N 
ATOM     32 H    GLY G 811     -24.868  35.277  18.136  1.00 97.66 LIG 0.16  HD
ATOM     33  C   GLN G 810     -24.135  36.896  18.945  1.00 97.43 LIG 0.26  C 
ATOM     34 O    GLN G 810     -23.673  37.371  19.983  1.00 97.76 LIG-0.27  OA
BRANCH 33 35
ATOM     35  CA  GLN G 810     -24.235  37.745  17.679  1.00 96.79 LIG 0.40  C 
ATOM     36  N   GLN G 810     -23.280  37.254  16.643  1.00 96.61 LIG 0.61  N 
BRANCH 35 37
ATOM     37  CB  GLN G 810     -25.667  37.680  17.153  1.00 96.38 LIG 0.06  C 
BRANCH 37 38
ATOM     38  CG  GLN G 810     -26.756  37.691  18.214  1.00 95.56 LIG 0.10  C 
BRANCH 38 39
ATOM     39  CD  GLN G 810     -27.421  36.341  18.360  1.00 95.11 LIG 0.21  C 
ATOM     40  NE2 GLN G 810     -27.648  35.674  17.233  1.00 94.31 LIG-0.37  N 
ATOM     41 21HE GLN G 810     -27.420  36.016  16.477  1.00 94.31 LIG 0.16  HD
ATOM     42 22HE GLN G 810     -28.023  34.900  17.259  1.00 94.31 LIG 0.16  HD
ATOM     43 OE1  GLN G 810     -27.727  35.898  19.468  1.00 94.65 LIG-0.27  OA
ENDBRANCH 38 39
ENDBRANCH 37 38
ENDBRANCH 35 37
ENDBRANCH 33 35
ENDBRANCH 30 31
ENDBRANCH 27 30
ENDBRANCH 1 26
TORSDOF 17
ENDMDL
MODEL 9
USER: ADFR SOLUTION from run 163
USER: SCORE 10.348337 LL:  -2.084 LR:  -9.292 RR:   0.000 FEB:  -4.221
USER: RMSD 5.444356
USER: SEED 162
USER: STATUS no improvement in best in 12 clusters for 5 generations
USER: GENES 19
USER: genes 0 Translation |==|  0.38808 0.36638 0.43627
USER: genes 1 Rotation |==|  0.46996 0.46965 0.48541 0.99796
USER: genes 2 Torsion [C]-CA--CB-[CG] |==|  0.39506
USER: genes 3 Torsion [CA]-CB--CG-[CD2] |==|  0.76170
USER: genes 4 Torsion [N]-CA--C-[N] |==|  0.38495
USER: genes 5 Torsion [C]-N--CA-[C] |==|  0.36666
USER: genes 6 Torsion [N]-CA--C-[N] |==|  0.46562
USER: genes 7 Torsion [C]-N--CA-[CB] |==|  0.19226
USER: genes 8 Torsion [N]-CA--CB-[CG] |==|  0.60129
USER: genes 9 Torsion [CA]-CB--CG-[CD] |==|  0.32456
USER: genes 10 Torsion [CB]-CG--CD-[OE2] |==|  0.50565
USER: genes 11 Torsion [N]-CA--C-[OXT] |==|  0.45181
USER: genes 12 Torsion [CB]-CA--N-[C] |==|  0.55125
USER: genes 13 Torsion [N]-C--CA-[N] |==|  0.36521
USER: genes 14 Torsion [C]-CA--N-[C] |==|  0.24049
USER: genes 15 Torsion [N]-C--CA-[N] |==|  0.86130
USER: genes 16 Torsion [C]-CA--CB-[CG] |==|  0.10188
USER: genes 17 Torsion [CA]-CB--CG-[CD] |==|  0.69998
USER: genes 18 Torsion [CB]-CG--CD-[NE2] |==|  0.93375
ROOT
ATOM      1  CA  HIS G 812     -28.226  31.268  20.156  1.00 98.11 LIG 0.18  C 
ENDROOT
BRANCH 1 2
ATOM      2  CB  HIS G 812     -27.991  29.751  20.137  1.00 96.29 LIG 0.10  C 
BRANCH 2 3
ATOM      3  CG  HIS G 812     -28.549  29.027  18.943  1.00 94.00 LIG 0.06  A 
ATOM      4  CD2 HIS G 812     -29.776  28.523  18.704  1.00 93.71 LIG 0.14  A 
ATOM      5 NE2  HIS G 812     -29.698  27.783  17.542  1.00 93.19 LIG-0.25  NA
ATOM      6  CE1 HIS G 812     -28.459  27.851  17.086  1.00 92.78 LIG 0.23  A 
ATOM      7 ND1  HIS G 812     -27.747  28.597  17.905  1.00 93.58 LIG-0.24  NA
ENDBRANCH 2 3
ENDBRANCH 1 2
BRANCH 1 8
ATOM      8  C   HIS G 812     -28.506  31.641  21.608  1.00 99.25 LIG 0.24  C 
ATOM      9  N   GLY G 813     -29.759  31.926  21.939  1.00100.26 LIG-0.35  N 
ATOM     10 H    GLY G 813     -30.424  31.925  21.395  1.00100.26 LIG 0.16  HD
ATOM     11 O    HIS G 812     -27.587  31.643  22.429  1.00 99.52 LIG-0.27  OA
BRANCH 9 12
ATOM     12  CA  GLY G 813     -30.080  32.273  23.313  1.00101.48 LIG 0.23  C 
BRANCH 12 13
ATOM     13  C   GLY G 813     -30.938  33.521  23.428  1.00102.44 LIG 0.24  C 
ATOM     14 O    GLY G 813     -31.104  34.244  22.447  1.00102.98 LIG-0.27  OA
ATOM     15  N   GLU G 814     -31.492  33.775  24.612  1.00102.70 LIG-0.34  N 
ATOM     16 H    GLU G 814     -31.402  33.275  25.306  1.00102.70 LIG 0.16  HD
BRANCH 15 17
ATOM     17  CA  GLU G 814     -32.321  34.965  24.822  1.00102.89 LIG 0.19  C 
BRANCH 17 18
ATOM     18  CB  GLU G 814     -33.646  34.851  24.056  1.00101.97 LIG 0.05  C 
BRANCH 18 19
ATOM     19  CG  GLU G 814     -34.157  36.151  23.467  1.00100.63 LIG 0.12  C 
BRANCH 19 20
ATOM     20  CD  GLU G 814     -34.228  36.119  21.947  1.00100.36 LIG 0.17  C 
ATOM     21 OE1  GLU G 814     -33.918  35.060  21.358  1.00 99.71 LIG-0.65  OA
ATOM     22 OE2  GLU G 814     -34.599  37.146  21.341  1.00 99.42 LIG-0.65  OA
ENDBRANCH 19 20
ENDBRANCH 18 19
ENDBRANCH 17 18
BRANCH 17 23
ATOM     23  C   GLU G 814     -32.623  35.160  26.311  1.00103.78 LIG 0.20  C 
ATOM     24 OXT  GLU G 814     -33.027  36.279  26.702  1.00104.07 LIG-0.65  OA
ATOM     25 O    GLU G 814     -32.455  34.183  27.075  1.00104.32 LIG-0.65  OA
ENDBRANCH 17 23
ENDBRANCH 15 17
ENDBRANCH 12 13
ENDBRANCH 9 12
ENDBRANCH 1 8
BRANCH 1 26
ATOM     26  N   HIS G 812     -26.972  31.989  19.904  1.00 98.48 LIG-0.35  N 
ATOM     27  C   GLY G 811     -26.743  33.273  20.188  1.00 98.46 LIG 0.24  C 
ATOM     28 O    GLY G 811     -27.585  34.041  20.669  1.00 98.78 LIG-0.27  OA
ATOM     29 H    HIS G 812     -26.372  31.489  19.543  1.00 98.48 LIG 0.16  HD
BRANCH 27 30
ATOM     30  CA  GLY G 811     -25.337  33.752  19.863  1.00 98.06 LIG 0.23  C 
BRANCH 30 31
ATOM     31  N   GLY G 811     -25.227  34.992  19.115  1.00 97.66 LIG-0.35  N 
ATOM     32 H    GLY G 811     -25.171  34.898  18.263  1.00 97.66 LIG 0.16  HD
ATOM     33  C   GLN G 810     -25.218  36.163  19.749  1.00 97.43 LIG 0.26  C 
ATOM     34 O    GLN G 810     -25.279  36.261  20.975  1.00 97.76 LIG-0.27  OA
BRANCH 33 35
ATOM     35  CA  GLN G 810     -25.109  37.413  18.875  1.00 96.79 LIG 0.40  C 
ATOM     36  N   GLN G 810     -23.979  37.278  17.909  1.00 96.61 LIG 0.61  N 
BRANCH 35 37
ATOM     37  CB  GLN G 810     -26.425  37.608  18.127  1.00 96.38 LIG 0.06  C 
BRANCH 37 38
ATOM     38  CG  GLN G 810     -27.681  37.247  18.905  1.00 95.56 LIG 0.10  C 
BRANCH 38 39
ATOM     39  CD  GLN G 810     -28.318  35.973  18.396  1.00 95.11 LIG 0.21  C 
ATOM     40  NE2 GLN G 810     -28.046  35.643  17.138  1.00 94.31 LIG-0.37  N 
ATOM     41 21HE GLN G 810     -27.534  36.145  16.663  1.00 94.31 LIG 0.16  HD
ATOM     42 22HE GLN G 810     -28.382  34.927  16.799  1.00 94.31 LIG 0.16  HD
ATOM     43 OE1  GLN G 810     -29.044  35.291  19.121  1.00 94.65 LIG-0.27  OA
ENDBRANCH 38 39
ENDBRANCH 37 38
ENDBRANCH 35 37
ENDBRANCH 33 35
ENDBRANCH 30 31
ENDBRANCH 27 30
ENDBRANCH 1 26
TORSDOF 17
ENDMDL
MODEL 10
USER: ADFR SOLUTION from run 122
USER: SCORE 10.479395 LL:  -2.764 LR:  -9.241 RR:   0.000 FEB:  -4.170
USER: RMSD 4.408875
USER: SEED 121
USER: STATUS no improvement in best in 27 clusters for 5 generations
USER: GENES 19
USER: genes 0 Translation |==|  0.43857 0.40910 0.41738
USER: genes 1 Rotation |==|  0.50837 0.63510 0.63196 0.96289
USER: genes 2 Torsion [C]-CA--CB-[CG] |==|  0.38196
USER: genes 3 Torsion [CA]-CB--CG-[CD2] |==|  0.87032
USER: genes 4 Torsion [N]-CA--C-[N] |==|  0.45556
USER: genes 5 Torsion [C]-N--CA-[C] |==|  0.24268
USER: genes 6 Torsion [N]-CA--C-[N] |==|  0.22662
USER: genes 7 Torsion [C]-N--CA-[CB] |==|  0.23438
USER: genes 8 Torsion [N]-CA--CB-[CG] |==|  0.12028
USER: genes 9 Torsion [CA]-CB--CG-[CD] |==|  0.43859
USER: genes 10 Torsion [CB]-CG--CD-[OE2] |==|  0.19119
USER: genes 11 Torsion [N]-CA--C-[OXT] |==|  0.55254
USER: genes 12 Torsion [CB]-CA--N-[C] |==|  0.48958
USER: genes 13 Torsion [N]-C--CA-[N] |==|  0.86157
USER: genes 14 Torsion [C]-CA--N-[C] |==|  0.80489
USER: genes 15 Torsion [N]-C--CA-[N] |==|  0.54745
USER: genes 16 Torsion [C]-CA--CB-[CG] |==|  0.73996
USER: genes 17 Torsion [CA]-CB--CG-[CD] |==|  0.39086
USER: genes 18 Torsion [CB]-CG--CD-[NE2] |==|  0.23740
ROOT
ATOM      1  CA  HIS G 812     -27.242  32.069  19.688  1.00 98.11 LIG 0.18  C 
ENDROOT
BRANCH 1 2
ATOM      2  CB  HIS G 812     -26.428  30.918  19.080  1.00 96.29 LIG 0.10  C 
BRANCH 2 3
ATOM      3  CG  HIS G 812     -27.233  29.865  18.370  1.00 94.00 LIG 0.06  A 
ATOM      4  CD2 HIS G 812     -28.355  29.212  18.730  1.00 93.71 LIG 0.14  A 
ATOM      5 NE2  HIS G 812     -28.560  28.207  17.807  1.00 93.19 LIG-0.25  NA
ATOM      6  CE1 HIS G 812     -27.594  28.262  16.907  1.00 92.78 LIG 0.23  A 
ATOM      7 ND1  HIS G 812     -26.783  29.253  17.217  1.00 93.58 LIG-0.24  NA
ENDBRANCH 2 3
ENDBRANCH 1 2
BRANCH 1 8
ATOM      8  C   HIS G 812     -26.643  32.337  21.065  1.00 99.25 LIG 0.24  C 
ATOM      9  N   GLY G 813     -27.002  31.534  22.059  1.00100.26 LIG-0.35  N 
ATOM     10 H    GLY G 813     -27.554  30.879  21.987  1.00100.26 LIG 0.16  HD
ATOM     11 O    HIS G 812     -25.836  33.257  21.215  1.00 99.52 LIG-0.27  OA
BRANCH 9 12
ATOM     12  CA  GLY G 813     -26.449  31.738  23.386  1.00101.48 LIG 0.23  C 
BRANCH 12 13
ATOM     13  C   GLY G 813     -27.245  32.728  24.219  1.00102.44 LIG 0.24  C 
ATOM     14 O    GLY G 813     -26.877  33.899  24.298  1.00102.98 LIG-0.27  OA
ATOM     15  N   GLU G 814     -28.336  32.273  24.833  1.00102.70 LIG-0.34  N 
ATOM     16 H    GLU G 814     -28.619  31.463  24.778  1.00102.70 LIG 0.16  HD
BRANCH 15 17
ATOM     17  CA  GLU G 814     -29.156  33.150  25.671  1.00102.89 LIG 0.19  C 
BRANCH 17 18
ATOM     18  CB  GLU G 814     -30.162  33.937  24.820  1.00101.97 LIG 0.05  C 
BRANCH 18 19
ATOM     19  CG  GLU G 814     -30.864  33.127  23.747  1.00100.63 LIG 0.12  C 
BRANCH 19 20
ATOM     20  CD  GLU G 814     -32.180  33.751  23.307  1.00100.36 LIG 0.17  C 
ATOM     21 OE1  GLU G 814     -33.246  33.170  23.608  1.00 99.71 LIG-0.65  OA
ATOM     22 OE2  GLU G 814     -32.152  34.823  22.667  1.00 99.42 LIG-0.65  OA
ENDBRANCH 19 20
ENDBRANCH 18 19
ENDBRANCH 17 18
BRANCH 17 23
ATOM     23  C   GLU G 814     -29.921  32.338  26.721  1.00103.78 LIG 0.20  C 
ATOM     24 OXT  GLU G 814     -30.919  32.855  27.273  1.00104.07 LIG-0.65  OA
ATOM     25 O    GLU G 814     -29.514  31.183  26.977  1.00104.32 LIG-0.65  OA
ENDBRANCH 17 23
ENDBRANCH 15 17
ENDBRANCH 12 13
ENDBRANCH 9 12
ENDBRANCH 1 8
BRANCH 1 26
ATOM     26  N   HIS G 812     -26.954  33.330  18.993  1.00 98.48 LIG-0.35  N 
ATOM     27  C   GLY G 811     -27.548  34.502  19.230  1.00 98.46 LIG 0.24  C 
ATOM     28 O    GLY G 811     -28.459  34.668  20.050  1.00 98.78 LIG-0.27  OA
ATOM     29 H    HIS G 812     -26.343  33.243  18.394  1.00 98.48 LIG 0.16  HD
BRANCH 27 30
ATOM     30  CA  GLY G 811     -27.023  35.658  18.393  1.00 98.06 LIG 0.23  C 
BRANCH 30 31
ATOM     31  N   GLY G 811     -25.582  35.837  18.358  1.00 97.66 LIG-0.35  N 
ATOM     32 H    GLY G 811     -25.211  35.648  17.606  1.00 97.66 LIG 0.16  HD
ATOM     33  C   GLN G 810     -24.929  36.264  19.437  1.00 97.43 LIG 0.26  C 
ATOM     34 O    GLN G 810     -25.491  36.506  20.506  1.00 97.76 LIG-0.27  OA
BRANCH 33 35
ATOM     35  CA  GLN G 810     -23.416  36.431  19.300  1.00 96.79 LIG 0.40  C 
ATOM     36  N   GLN G 810     -22.774  36.506  20.644  1.00 96.61 LIG 0.61  N 
BRANCH 35 37
ATOM     37  CB  GLN G 810     -22.859  35.247  18.512  1.00 96.38 LIG 0.06  C 
BRANCH 37 38
ATOM     38  CG  GLN G 810     -22.358  34.080  19.349  1.00 95.56 LIG 0.10  C 
BRANCH 38 39
ATOM     39  CD  GLN G 810     -22.712  32.746  18.733  1.00 95.11 LIG 0.21  C 
ATOM     40  NE2 GLN G 810     -21.869  32.279  17.819  1.00 94.31 LIG-0.37  N 
ATOM     41 21HE GLN G 810     -21.169  32.732  17.608  1.00 94.31 LIG 0.16  HD
ATOM     42 22HE GLN G 810     -22.022  31.523  17.438  1.00 94.31 LIG 0.16  HD
ATOM     43 OE1  GLN G 810     -23.729  32.137  19.072  1.00 94.65 LIG-0.27  OA
ENDBRANCH 38 39
ENDBRANCH 37 38
ENDBRANCH 35 37
ENDBRANCH 33 35
ENDBRANCH 30 31
ENDBRANCH 27 30
ENDBRANCH 1 26
TORSDOF 17
ENDMDL
MODEL 11
USER: ADFR SOLUTION from run 134
USER: SCORE 9.486714 LL:  -1.549 LR:  -9.240 RR:   0.000 FEB:  -4.169
USER: RMSD 3.216002
USER: SEED 133
USER: STATUS no improvement in best in 7 clusters for 5 generations
USER: GENES 19
USER: genes 0 Translation |==|  0.47985 0.36943 0.48522
USER: genes 1 Rotation |==|  0.54820 0.66214 0.35233 0.94675
USER: genes 2 Torsion [C]-CA--CB-[CG] |==|  0.58248
USER: genes 3 Torsion [CA]-CB--CG-[CD2] |==|  0.60208
USER: genes 4 Torsion [N]-CA--C-[N] |==|  0.47321
USER: genes 5 Torsion [C]-N--CA-[C] |==|  0.48048
USER: genes 6 Torsion [N]-CA--C-[N] |==|  0.41779
USER: genes 7 Torsion [C]-N--CA-[CB] |==|  0.48754
USER: genes 8 Torsion [N]-CA--CB-[CG] |==|  0.58032
USER: genes 9 Torsion [CA]-CB--CG-[CD] |==|  0.62310
USER: genes 10 Torsion [CB]-CG--CD-[OE2] |==|  0.73140
USER: genes 11 Torsion [N]-CA--C-[OXT] |==|  0.37614
USER: genes 12 Torsion [CB]-CA--N-[C] |==|  0.48905
USER: genes 13 Torsion [N]-C--CA-[N] |==|  0.42388
USER: genes 14 Torsion [C]-CA--N-[C] |==|  0.33756
USER: genes 15 Torsion [N]-C--CA-[N] |==|  0.51850
USER: genes 16 Torsion [C]-CA--CB-[CG] |==|  0.45516
USER: genes 17 Torsion [CA]-CB--CG-[CD] |==|  0.26659
USER: genes 18 Torsion [CB]-CG--CD-[NE2] |==|  0.62645
ROOT
ATOM      1  CA  HIS G 812     -26.437  31.325  21.367  1.00 98.11 LIG 0.18  C 
ENDROOT
BRANCH 1 2
ATOM      2  CB  HIS G 812     -27.246  30.067  21.020  1.00 96.29 LIG 0.10  C 
BRANCH 2 3
ATOM      3  CG  HIS G 812     -27.569  29.891  19.562  1.00 94.00 LIG 0.06  A 
ATOM      4  CD2 HIS G 812     -28.665  29.406  18.947  1.00 93.71 LIG 0.14  A 
ATOM      5 NE2  HIS G 812     -28.363  29.276  17.608  1.00 93.19 LIG-0.25  NA
ATOM      6  CE1 HIS G 812     -27.120  29.684  17.418  1.00 92.78 LIG 0.23  A 
ATOM      7 ND1  HIS G 812     -26.619  30.065  18.575  1.00 93.58 LIG-0.24  NA
ENDBRANCH 2 3
ENDBRANCH 1 2
BRANCH 1 8
ATOM      8  C   HIS G 812     -25.611  30.977  22.601  1.00 99.25 LIG 0.24  C 
ATOM      9  N   GLY G 813     -26.247  30.894  23.763  1.00100.26 LIG-0.35  N 
ATOM     10 H    GLY G 813     -27.088  31.031  23.875  1.00100.26 LIG 0.16  HD
ATOM     11 O    HIS G 812     -24.403  30.758  22.490  1.00 99.52 LIG-0.27  OA
BRANCH 9 12
ATOM     12  CA  GLY G 813     -25.508  30.551  24.966  1.00101.48 LIG 0.23  C 
BRANCH 12 13
ATOM     13  C   GLY G 813     -26.341  30.664  26.230  1.00102.44 LIG 0.24  C 
ATOM     14 O    GLY G 813     -27.265  31.474  26.287  1.00102.98 LIG-0.27  OA
ATOM     15  N   GLU G 814     -26.031  29.855  27.242  1.00102.70 LIG-0.34  N 
ATOM     16 H    GLU G 814     -25.400  29.271  27.218  1.00102.70 LIG 0.16  HD
BRANCH 15 17
ATOM     17  CA  GLU G 814     -26.768  29.905  28.507  1.00102.89 LIG 0.19  C 
BRANCH 17 18
ATOM     18  CB  GLU G 814     -26.292  28.802  29.462  1.00101.97 LIG 0.05  C 
BRANCH 18 19
ATOM     19  CG  GLU G 814     -27.341  28.304  30.437  1.00100.63 LIG 0.12  C 
BRANCH 19 20
ATOM     20  CD  GLU G 814     -26.801  28.150  31.852  1.00100.36 LIG 0.17  C 
ATOM     21 OE1  GLU G 814     -26.766  29.160  32.589  1.00 99.71 LIG-0.65  OA
ATOM     22 OE2  GLU G 814     -26.419  27.023  32.230  1.00 99.42 LIG-0.65  OA
ENDBRANCH 19 20
ENDBRANCH 18 19
ENDBRANCH 17 18
BRANCH 17 23
ATOM     23  C   GLU G 814     -26.586  31.265  29.187  1.00103.78 LIG 0.20  C 
ATOM     24 OXT  GLU G 814     -27.590  31.835  29.673  1.00104.07 LIG-0.65  OA
ATOM     25 O    GLU G 814     -25.432  31.747  29.231  1.00104.32 LIG-0.65  OA
ENDBRANCH 17 23
ENDBRANCH 15 17
ENDBRANCH 12 13
ENDBRANCH 9 12
ENDBRANCH 1 8
BRANCH 1 26
ATOM     26  N   HIS G 812     -25.386  31.556  20.367  1.00 98.48 LIG-0.35  N 
ATOM     27  C   GLY G 811     -24.559  32.603  20.337  1.00 98.46 LIG 0.24  C 
ATOM     28 O    GLY G 811     -24.600  33.547  21.135  1.00 98.78 LIG-0.27  OA
ATOM     29 H    HIS G 812     -25.350  30.930  19.778  1.00 98.48 LIG 0.16  HD
BRANCH 27 30
ATOM     30  CA  GLY G 811     -23.534  32.567  19.214  1.00 98.06 LIG 0.23  C 
BRANCH 30 31
ATOM     31  N   GLY G 811     -23.046  33.848  18.735  1.00 97.66 LIG-0.35  N 
ATOM     32 H    GLY G 811     -23.652  34.380  18.437  1.00 97.66 LIG 0.16  HD
ATOM     33  C   GLN G 810     -21.745  34.133  18.776  1.00 97.43 LIG 0.26  C 
ATOM     34 O    GLN G 810     -20.900  33.339  19.191  1.00 97.76 LIG-0.27  OA
BRANCH 33 35
ATOM     35  CA  GLN G 810     -21.330  35.510  18.259  1.00 96.79 LIG 0.40  C 
ATOM     36  N   GLN G 810     -19.843  35.625  18.216  1.00 96.61 LIG 0.61  N 
BRANCH 35 37
ATOM     37  CB  GLN G 810     -21.918  35.711  16.865  1.00 96.38 LIG 0.06  C 
BRANCH 37 38
ATOM     38  CG  GLN G 810     -21.932  37.146  16.360  1.00 95.56 LIG 0.10  C 
BRANCH 38 39
ATOM     39  CD  GLN G 810     -20.735  37.453  15.488  1.00 95.11 LIG 0.21  C 
ATOM     40  NE2 GLN G 810     -20.109  38.600  15.733  1.00 94.31 LIG-0.37  N 
ATOM     41 21HE GLN G 810     -20.392  39.119  16.357  1.00 94.31 LIG 0.16  HD
ATOM     42 22HE GLN G 810     -19.422  38.823  15.267  1.00 94.31 LIG 0.16  HD
ATOM     43 OE1  GLN G 810     -20.372  36.673  14.607  1.00 94.65 LIG-0.27  OA
ENDBRANCH 38 39
ENDBRANCH 37 38
ENDBRANCH 35 37
ENDBRANCH 33 35
ENDBRANCH 30 31
ENDBRANCH 27 30
ENDBRANCH 1 26
TORSDOF 17
ENDMDL
MODEL 12
USER: ADFR SOLUTION from run 115
USER: SCORE 10.572803 LL:  -2.420 LR:  -9.235 RR:   0.000 FEB:  -4.164
USER: RMSD 5.520080
USER: SEED 114
USER: STATUS no improvement in best in 15 clusters for 5 generations
USER: GENES 19
USER: genes 0 Translation |==|  0.43549 0.43602 0.41588
USER: genes 1 Rotation |==|  0.45690 0.48085 0.65948 0.97153
USER: genes 2 Torsion [C]-CA--CB-[CG] |==|  0.84636
USER: genes 3 Torsion [CA]-CB--CG-[CD2] |==|  0.80157
USER: genes 4 Torsion [N]-CA--C-[N] |==|  0.39114
USER: genes 5 Torsion [C]-N--CA-[C] |==|  0.25948
USER: genes 6 Torsion [N]-CA--C-[N] |==|  0.24248
USER: genes 7 Torsion [C]-N--CA-[CB] |==|  0.23683
USER: genes 8 Torsion [N]-CA--CB-[CG] |==|  0.55809
USER: genes 9 Torsion [CA]-CB--CG-[CD] |==|  0.47465
USER: genes 10 Torsion [CB]-CG--CD-[OE2] |==|  0.37368
USER: genes 11 Torsion [N]-CA--C-[OXT] |==|  0.42746
USER: genes 12 Torsion [CB]-CA--N-[C] |==|  0.53624
USER: genes 13 Torsion [N]-C--CA-[N] |==|  0.00791
USER: genes 14 Torsion [C]-CA--N-[C] |==|  0.70675
USER: genes 15 Torsion [N]-C--CA-[N] |==|  0.79462
USER: genes 16 Torsion [C]-CA--CB-[CG] |==|  0.34774
USER: genes 17 Torsion [CA]-CB--CG-[CD] |==|  0.32704
USER: genes 18 Torsion [CB]-CG--CD-[NE2] |==|  0.49199
ROOT
ATOM      1  CA  HIS G 812     -27.302  32.573  19.651  1.00 98.11 LIG 0.18  C 
ENDROOT
BRANCH 1 2
ATOM      2  CB  HIS G 812     -26.144  31.567  19.705  1.00 96.29 LIG 0.10  C 
BRANCH 2 3
ATOM      3  CG  HIS G 812     -24.963  31.989  20.535  1.00 94.00 LIG 0.06  A 
ATOM      4  CD2 HIS G 812     -24.019  32.927  20.324  1.00 93.71 LIG 0.14  A 
ATOM      5 NE2  HIS G 812     -23.053  32.767  21.295  1.00 93.19 LIG-0.25  NA
ATOM      6  CE1 HIS G 812     -23.412  31.764  22.080  1.00 92.78 LIG 0.23  A 
ATOM      7 ND1  HIS G 812     -24.559  31.281  21.649  1.00 93.58 LIG-0.24  NA
ENDBRANCH 2 3
ENDBRANCH 1 2
BRANCH 1 8
ATOM      8  C   HIS G 812     -27.694  32.855  21.098  1.00 99.25 LIG 0.24  C 
ATOM      9  N   GLY G 813     -28.796  32.277  21.560  1.00100.26 LIG-0.35  N 
ATOM     10 H    GLY G 813     -29.310  31.762  21.103  1.00100.26 LIG 0.16  HD
ATOM     11 O    HIS G 812     -26.981  33.576  21.799  1.00 99.52 LIG-0.27  OA
BRANCH 9 12
ATOM     12  CA  GLY G 813     -29.205  32.501  22.935  1.00101.48 LIG 0.23  C 
BRANCH 12 13
ATOM     13  C   GLY G 813     -30.187  33.649  23.086  1.00102.44 LIG 0.24  C 
ATOM     14 O    GLY G 813     -29.775  34.784  23.320  1.00102.98 LIG-0.27  OA
ATOM     15  N   GLU G 814     -31.482  33.369  22.947  1.00102.70 LIG-0.34  N 
ATOM     16 H    GLU G 814     -31.791  32.586  22.768  1.00102.70 LIG 0.16  HD
BRANCH 15 17
ATOM     17  CA  GLU G 814     -32.503  34.408  23.093  1.00102.89 LIG 0.19  C 
BRANCH 17 18
ATOM     18  CB  GLU G 814     -32.711  35.161  21.771  1.00101.97 LIG 0.05  C 
BRANCH 18 19
ATOM     19  CG  GLU G 814     -33.343  36.532  21.909  1.00100.63 LIG 0.12  C 
BRANCH 19 20
ATOM     20  CD  GLU G 814     -33.323  37.321  20.608  1.00100.36 LIG 0.17  C 
ATOM     21 OE1  GLU G 814     -32.268  37.337  19.936  1.00 99.71 LIG-0.65  OA
ATOM     22 OE2  GLU G 814     -34.361  37.918  20.251  1.00 99.42 LIG-0.65  OA
ENDBRANCH 19 20
ENDBRANCH 18 19
ENDBRANCH 17 18
BRANCH 17 23
ATOM     23  C   GLU G 814     -33.838  33.799  23.533  1.00103.78 LIG 0.20  C 
ATOM     24 OXT  GLU G 814     -34.647  34.516  24.167  1.00104.07 LIG-0.65  OA
ATOM     25 O    GLU G 814     -34.065  32.606  23.233  1.00104.32 LIG-0.65  OA
ENDBRANCH 17 23
ENDBRANCH 15 17
ENDBRANCH 12 13
ENDBRANCH 9 12
ENDBRANCH 1 8
BRANCH 1 26
ATOM     26  N   HIS G 812     -26.822  33.891  19.216  1.00 98.48 LIG-0.35  N 
ATOM     27  C   GLY G 811     -27.507  35.034  19.297  1.00 98.46 LIG 0.24  C 
ATOM     28 O    GLY G 811     -28.667  35.123  19.717  1.00 98.78 LIG-0.27  OA
ATOM     29 H    HIS G 812     -26.026  33.861  18.891  1.00 98.48 LIG 0.16  HD
BRANCH 27 30
ATOM     30  CA  GLY G 811     -26.750  36.261  18.814  1.00 98.06 LIG 0.23  C 
BRANCH 30 31
ATOM     31  N   GLY G 811     -25.422  36.037  18.272  1.00 97.66 LIG-0.35  N 
ATOM     32 H    GLY G 811     -25.404  35.687  17.487  1.00 97.66 LIG 0.16  HD
ATOM     33  C   GLN G 810     -24.341  36.365  18.978  1.00 97.43 LIG 0.26  C 
ATOM     34 O    GLN G 810     -24.402  36.846  20.110  1.00 97.76 LIG-0.27  OA
BRANCH 33 35
ATOM     35  CA  GLN G 810     -22.987  36.100  18.320  1.00 96.79 LIG 0.40  C 
ATOM     36  N   GLN G 810     -22.683  34.639  18.321  1.00 96.61 LIG 0.61  N 
BRANCH 35 37
ATOM     37  CB  GLN G 810     -23.022  36.632  16.889  1.00 96.38 LIG 0.06  C 
BRANCH 37 38
ATOM     38  CG  GLN G 810     -21.920  37.616  16.529  1.00 95.56 LIG 0.10  C 
BRANCH 38 39
ATOM     39  CD  GLN G 810     -21.030  37.093  15.424  1.00 95.11 LIG 0.21  C 
ATOM     40  NE2 GLN G 810     -20.074  37.914  15.002  1.00 94.31 LIG-0.37  N 
ATOM     41 21HE GLN G 810     -19.990  38.693  15.355  1.00 94.31 LIG 0.16  HD
ATOM     42 22HE GLN G 810     -19.539  37.665  14.376  1.00 94.31 LIG 0.16  HD
ATOM     43 OE1  GLN G 810     -21.195  35.967  14.953  1.00 94.65 LIG-0.27  OA
ENDBRANCH 38 39
ENDBRANCH 37 38
ENDBRANCH 35 37
ENDBRANCH 33 35
ENDBRANCH 30 31
ENDBRANCH 27 30
ENDBRANCH 1 26
TORSDOF 17
ENDMDL
MODEL 13
USER: ADFR SOLUTION from run 67
USER: SCORE 10.048502 LL:  -2.086 LR:  -9.177 RR:   0.000 FEB:  -4.106
USER: RMSD 3.813260
USER: SEED 66
USER: STATUS no improvement in best in 8 clusters for 5 generations
USER: GENES 19
USER: genes 0 Translation |==|  0.44237 0.42613 0.41086
USER: genes 1 Rotation |==|  0.50301 0.61310 0.65345 0.96223
USER: genes 2 Torsion [C]-CA--CB-[CG] |==|  0.37145
USER: genes 3 Torsion [CA]-CB--CG-[CD2] |==|  0.88794
USER: genes 4 Torsion [N]-CA--C-[N] |==|  0.42884
USER: genes 5 Torsion [C]-N--CA-[C] |==|  0.27851
USER: genes 6 Torsion [N]-CA--C-[N] |==|  0.28004
USER: genes 7 Torsion [C]-N--CA-[CB] |==|  0.22361
USER: genes 8 Torsion [N]-CA--CB-[CG] |==|  0.55585
USER: genes 9 Torsion [CA]-CB--CG-[CD] |==|  0.53299
USER: genes 10 Torsion [CB]-CG--CD-[OE2] |==|  0.52442
USER: genes 11 Torsion [N]-CA--C-[OXT] |==|  0.00520
USER: genes 12 Torsion [CB]-CA--N-[C] |==|  0.49798
USER: genes 13 Torsion [N]-C--CA-[N] |==|  0.92692
USER: genes 14 Torsion [C]-CA--N-[C] |==|  0.76676
USER: genes 15 Torsion [N]-C--CA-[N] |==|  0.76545
USER: genes 16 Torsion [C]-CA--CB-[CG] |==|  0.40946
USER: genes 17 Torsion [CA]-CB--CG-[CD] |==|  0.24712
USER: genes 18 Torsion [CB]-CG--CD-[NE2] |==|  0.77731
ROOT
ATOM      1  CA  HIS G 812     -27.168  32.388  19.527  1.00 98.11 LIG 0.18  C 
ENDROOT
BRANCH 1 2
ATOM      2  CB  HIS G 812     -26.208  31.328  18.967  1.00 96.29 LIG 0.10  C 
BRANCH 2 3
ATOM      3  CG  HIS G 812     -26.864  30.186  18.240  1.00 94.00 LIG 0.06  A 
ATOM      4  CD2 HIS G 812     -27.985  29.490  18.508  1.00 93.71 LIG 0.14  A 
ATOM      5 NE2  HIS G 812     -28.024  28.419  17.639  1.00 93.19 LIG-0.25  NA
ATOM      6  CE1 HIS G 812     -26.958  28.477  16.858  1.00 92.78 LIG 0.23  A 
ATOM      7 ND1  HIS G 812     -26.245  29.532  17.194  1.00 93.58 LIG-0.24  NA
ENDBRANCH 2 3
ENDBRANCH 1 2
BRANCH 1 8
ATOM      8  C   HIS G 812     -26.716  32.664  20.957  1.00 99.25 LIG 0.24  C 
ATOM      9  N   GLY G 813     -27.245  31.922  21.923  1.00100.26 LIG-0.35  N 
ATOM     10 H    GLY G 813     -27.830  31.304  21.804  1.00100.26 LIG 0.16  HD
ATOM     11 O    HIS G 812     -25.868  33.531  21.177  1.00 99.52 LIG-0.27  OA
BRANCH 9 12
ATOM     12  CA  GLY G 813     -26.836  32.135  23.300  1.00101.48 LIG 0.23  C 
BRANCH 12 13
ATOM     13  C   GLY G 813     -27.830  32.964  24.096  1.00102.44 LIG 0.24  C 
ATOM     14 O    GLY G 813     -27.852  34.187  23.966  1.00102.98 LIG-0.27  OA
ATOM     15  N   GLU G 814     -28.657  32.311  24.911  1.00102.70 LIG-0.34  N 
ATOM     16 H    GLU G 814     -28.669  31.457  25.005  1.00102.70 LIG 0.16  HD
BRANCH 15 17
ATOM     17  CA  GLU G 814     -29.636  33.029  25.730  1.00102.89 LIG 0.19  C 
BRANCH 17 18
ATOM     18  CB  GLU G 814     -30.875  33.401  24.903  1.00101.97 LIG 0.05  C 
BRANCH 18 19
ATOM     19  CG  GLU G 814     -31.715  34.524  25.480  1.00100.63 LIG 0.12  C 
BRANCH 19 20
ATOM     20  CD  GLU G 814     -33.065  34.660  24.791  1.00100.36 LIG 0.17  C 
ATOM     21 OE1  GLU G 814     -33.414  33.771  23.983  1.00 99.71 LIG-0.65  OA
ATOM     22 OE2  GLU G 814     -33.780  35.648  25.059  1.00 99.42 LIG-0.65  OA
ENDBRANCH 19 20
ENDBRANCH 18 19
ENDBRANCH 17 18
BRANCH 17 23
ATOM     23  C   GLU G 814     -30.074  32.174  26.924  1.00103.78 LIG 0.20  C 
ATOM     24 OXT  GLU G 814     -29.554  31.046  27.080  1.00104.07 LIG-0.65  OA
ATOM     25 O    GLU G 814     -30.935  32.648  27.699  1.00104.32 LIG-0.65  OA
ENDBRANCH 17 23
ENDBRANCH 15 17
ENDBRANCH 12 13
ENDBRANCH 9 12
ENDBRANCH 1 8
BRANCH 1 26
ATOM     26  N   HIS G 812     -26.930  33.689  18.889  1.00 98.48 LIG-0.35  N 
ATOM     27  C   GLY G 811     -27.603  34.814  19.141  1.00 98.46 LIG 0.24  C 
ATOM     28 O    GLY G 811     -28.555  34.895  19.926  1.00 98.78 LIG-0.27  OA
ATOM     29 H    HIS G 812     -26.291  33.662  18.314  1.00 98.48 LIG 0.16  HD
BRANCH 27 30
ATOM     30  CA  GLY G 811     -27.117  36.030  18.368  1.00 98.06 LIG 0.23  C 
BRANCH 30 31
ATOM     31  N   GLY G 811     -25.726  36.023  17.949  1.00 97.66 LIG-0.35  N 
ATOM     32 H    GLY G 811     -25.591  35.752  17.145  1.00 97.66 LIG 0.16  HD
ATOM     33  C   GLN G 810     -24.768  36.416  18.786  1.00 97.43 LIG 0.26  C 
ATOM     34 O    GLN G 810     -24.996  36.779  19.941  1.00 97.76 LIG-0.27  OA
BRANCH 33 35
ATOM     35  CA  GLN G 810     -23.337  36.383  18.251  1.00 96.79 LIG 0.40  C 
ATOM     36  N   GLN G 810     -22.753  35.018  18.403  1.00 96.61 LIG 0.61  N 
BRANCH 35 37
ATOM     37  CB  GLN G 810     -23.351  36.792  16.780  1.00 96.38 LIG 0.06  C 
BRANCH 37 38
ATOM     38  CG  GLN G 810     -22.119  37.543  16.297  1.00 95.56 LIG 0.10  C 
BRANCH 38 39
ATOM     39  CD  GLN G 810     -21.043  36.606  15.796  1.00 95.11 LIG 0.21  C 
ATOM     40  NE2 GLN G 810     -20.288  36.029  16.724  1.00 94.31 LIG-0.37  N 
ATOM     41 21HE GLN G 810     -20.425  36.199  17.556  1.00 94.31 LIG 0.16  HD
ATOM     42 22HE GLN G 810     -19.662  35.486  16.493  1.00 94.31 LIG 0.16  HD
ATOM     43 OE1  GLN G 810     -20.891  36.398  14.591  1.00 94.65 LIG-0.27  OA
ENDBRANCH 38 39
ENDBRANCH 37 38
ENDBRANCH 35 37
ENDBRANCH 33 35
ENDBRANCH 30 31
ENDBRANCH 27 30
ENDBRANCH 1 26
TORSDOF 17
ENDMDL
MODEL 14
USER: ADFR SOLUTION from run 82
USER: SCORE 10.468976 LL:  -2.862 LR:  -9.112 RR:   0.000 FEB:  -4.041
USER: RMSD 6.864813
USER: SEED 81
USER: STATUS no improvement in best in 8 clusters for 5 generations
USER: GENES 19
USER: genes 0 Translation |==|  0.38933 0.39417 0.45266
USER: genes 1 Rotation |==|  0.46802 0.45568 0.53220 0.99596
USER: genes 2 Torsion [C]-CA--CB-[CG] |==|  0.39028
USER: genes 3 Torsion [CA]-CB--CG-[CD2] |==|  0.68604
USER: genes 4 Torsion [N]-CA--C-[N] |==|  0.42460
USER: genes 5 Torsion [C]-N--CA-[C] |==|  0.29374
USER: genes 6 Torsion [N]-CA--C-[N] |==|  0.23271
USER: genes 7 Torsion [C]-N--CA-[CB] |==|  0.25246
USER: genes 8 Torsion [N]-CA--CB-[CG] |==|  0.60201
USER: genes 9 Torsion [CA]-CB--CG-[CD] |==|  0.51987
USER: genes 10 Torsion [CB]-CG--CD-[OE2] |==|  0.79818
USER: genes 11 Torsion [N]-CA--C-[OXT] |==|  0.47390
USER: genes 12 Torsion [CB]-CA--N-[C] |==|  0.47620
USER: genes 13 Torsion [N]-C--CA-[N] |==|  0.95065
USER: genes 14 Torsion [C]-CA--N-[C] |==|  0.81315
USER: genes 15 Torsion [N]-C--CA-[N] |==|  0.45172
USER: genes 16 Torsion [C]-CA--CB-[CG] |==|  0.71682
USER: genes 17 Torsion [CA]-CB--CG-[CD] |==|  0.19967
USER: genes 18 Torsion [CB]-CG--CD-[NE2] |==|  0.31112
ROOT
ATOM      1  CA  HIS G 812     -28.202  31.789  20.561  1.00 98.11 LIG 0.18  C 
ENDROOT
BRANCH 1 2
ATOM      2  CB  HIS G 812     -27.686  30.343  20.591  1.00 96.29 LIG 0.10  C 
BRANCH 2 3
ATOM      3  CG  HIS G 812     -28.076  29.495  19.412  1.00 94.00 LIG 0.06  A 
ATOM      4  CD2 HIS G 812     -28.883  28.421  19.320  1.00 93.71 LIG 0.14  A 
ATOM      5 NE2  HIS G 812     -28.736  27.903  18.050  1.00 93.19 LIG-0.25  NA
ATOM      6  CE1 HIS G 812     -27.872  28.654  17.389  1.00 92.78 LIG 0.23  A 
ATOM      7 ND1  HIS G 812     -27.462  29.623  18.182  1.00 93.58 LIG-0.24  NA
ENDBRANCH 2 3
ENDBRANCH 1 2
BRANCH 1 8
ATOM      8  C   HIS G 812     -28.614  32.127  21.991  1.00 99.25 LIG 0.24  C 
ATOM      9  N   GLY G 813     -29.874  31.897  22.338  1.00100.26 LIG-0.35  N 
ATOM     10 H    GLY G 813     -30.478  31.580  21.816  1.00100.26 LIG 0.16  HD
ATOM     11 O    HIS G 812     -27.779  32.571  22.781  1.00 99.52 LIG-0.27  OA
BRANCH 9 12
ATOM     12  CA  GLY G 813     -30.312  32.188  23.692  1.00101.48 LIG 0.23  C 
BRANCH 12 13
ATOM     13  C   GLY G 813     -31.172  33.436  23.785  1.00102.44 LIG 0.24  C 
ATOM     14 O    GLY G 813     -30.660  34.514  24.084  1.00102.98 LIG-0.27  OA
ATOM     15  N   GLU G 814     -32.472  33.305  23.524  1.00102.70 LIG-0.34  N 
ATOM     16 H    GLU G 814     -32.847  32.565  23.298  1.00102.70 LIG 0.16  HD
BRANCH 15 17
ATOM     17  CA  GLU G 814     -33.382  34.450  23.606  1.00102.89 LIG 0.19  C 
BRANCH 17 18
ATOM     18  CB  GLU G 814     -33.491  35.161  22.250  1.00101.97 LIG 0.05  C 
BRANCH 18 19
ATOM     19  CG  GLU G 814     -33.608  36.670  22.327  1.00100.63 LIG 0.12  C 
BRANCH 19 20
ATOM     20  CD  GLU G 814     -33.887  37.307  20.973  1.00100.36 LIG 0.17  C 
ATOM     21 OE1  GLU G 814     -35.029  37.769  20.755  1.00 99.71 LIG-0.65  OA
ATOM     22 OE2  GLU G 814     -32.967  37.352  20.129  1.00 99.42 LIG-0.65  OA
ENDBRANCH 19 20
ENDBRANCH 18 19
ENDBRANCH 17 18
BRANCH 17 23
ATOM     23  C   GLU G 814     -34.779  34.002  24.046  1.00103.78 LIG 0.20  C 
ATOM     24 OXT  GLU G 814     -35.627  34.876  24.338  1.00104.07 LIG-0.65  OA
ATOM     25 O    GLU G 814     -35.013  32.774  24.089  1.00104.32 LIG-0.65  OA
ENDBRANCH 17 23
ENDBRANCH 15 17
ENDBRANCH 12 13
ENDBRANCH 9 12
ENDBRANCH 1 8
BRANCH 1 26
ATOM     26  N   HIS G 812     -27.095  32.729  20.345  1.00 98.48 LIG-0.35  N 
ATOM     27  C   GLY G 811     -27.221  34.037  20.108  1.00 98.46 LIG 0.24  C 
ATOM     28 O    GLY G 811     -28.303  34.624  19.998  1.00 98.78 LIG-0.27  OA
ATOM     29 H    HIS G 812     -26.326  32.347  20.387  1.00 98.48 LIG 0.16  HD
BRANCH 27 30
ATOM     30  CA  GLY G 811     -25.903  34.784  19.967  1.00 98.06 LIG 0.23  C 
BRANCH 30 31
ATOM     31  N   GLY G 811     -24.719  34.121  20.485  1.00 97.66 LIG-0.35  N 
ATOM     32 H    GLY G 811     -24.148  33.881  19.889  1.00 97.66 LIG 0.16  HD
ATOM     33  C   GLN G 810     -24.574  33.923  21.793  1.00 97.43 LIG 0.26  C 
ATOM     34 O    GLN G 810     -25.423  34.262  22.619  1.00 97.76 LIG-0.27  OA
BRANCH 33 35
ATOM     35  CA  GLN G 810     -23.290  33.227  22.242  1.00 96.79 LIG 0.40  C 
ATOM     36  N   GLN G 810     -23.060  33.442  23.701  1.00 96.61 LIG 0.61  N 
BRANCH 35 37
ATOM     37  CB  GLN G 810     -23.406  31.735  21.938  1.00 96.38 LIG 0.06  C 
BRANCH 37 38
ATOM     38  CG  GLN G 810     -23.732  30.847  23.129  1.00 95.56 LIG 0.10  C 
BRANCH 38 39
ATOM     39  CD  GLN G 810     -25.162  31.017  23.590  1.00 95.11 LIG 0.21  C 
ATOM     40  NE2 GLN G 810     -25.967  29.976  23.404  1.00 94.31 LIG-0.37  N 
ATOM     41 21HE GLN G 810     -25.664  29.259  23.038  1.00 94.31 LIG 0.16  HD
ATOM     42 22HE GLN G 810     -26.790  30.019  23.649  1.00 94.31 LIG 0.16  HD
ATOM     43 OE1  GLN G 810     -25.543  32.067  24.109  1.00 94.65 LIG-0.27  OA
ENDBRANCH 38 39
ENDBRANCH 37 38
ENDBRANCH 35 37
ENDBRANCH 33 35
ENDBRANCH 30 31
ENDBRANCH 27 30
ENDBRANCH 1 26
TORSDOF 17
ENDMDL
MODEL 15
USER: ADFR SOLUTION from run 62
USER: SCORE 10.392603 LL:  -2.359 LR:  -9.113 RR:   0.000 FEB:  -4.042
USER: RMSD 3.108439
USER: SEED 61
USER: STATUS searching
USER: GENES 19
USER: genes 0 Translation |==|  0.42811 0.43711 0.42315
USER: genes 1 Rotation |==|  0.45781 0.58388 0.65096 0.96733
USER: genes 2 Torsion [C]-CA--CB-[CG] |==|  0.39700
USER: genes 3 Torsion [CA]-CB--CG-[CD2] |==|  0.33011
USER: genes 4 Torsion [N]-CA--C-[N] |==|  0.38738
USER: genes 5 Torsion [C]-N--CA-[C] |==|  0.49057
USER: genes 6 Torsion [N]-CA--C-[N] |==|  0.43333
USER: genes 7 Torsion [C]-N--CA-[CB] |==|  0.38172
USER: genes 8 Torsion [N]-CA--CB-[CG] |==|  0.48735
USER: genes 9 Torsion [CA]-CB--CG-[CD] |==|  0.54657
USER: genes 10 Torsion [CB]-CG--CD-[OE2] |==|  0.35361
USER: genes 11 Torsion [N]-CA--C-[OXT] |==|  0.40308
USER: genes 12 Torsion [CB]-CA--N-[C] |==|  0.50845
USER: genes 13 Torsion [N]-C--CA-[N] |==|  0.92852
USER: genes 14 Torsion [C]-CA--N-[C] |==|  0.76930
USER: genes 15 Torsion [N]-C--CA-[N] |==|  0.38649
USER: genes 16 Torsion [C]-CA--CB-[CG] |==|  0.38205
USER: genes 17 Torsion [CA]-CB--CG-[CD] |==|  0.64855
USER: genes 18 Torsion [CB]-CG--CD-[NE2] |==|  0.54183
ROOT
ATOM      1  CA  HIS G 812     -27.446  32.594  19.831  1.00 98.11 LIG 0.18  C 
ENDROOT
BRANCH 1 2
ATOM      2  CB  HIS G 812     -26.392  31.505  19.586  1.00 96.29 LIG 0.10  C 
BRANCH 2 3
ATOM      3  CG  HIS G 812     -26.844  30.351  18.734  1.00 94.00 LIG 0.06  A 
ATOM      4  CD2 HIS G 812     -26.395  29.893  17.549  1.00 93.71 LIG 0.14  A 
ATOM      5 NE2  HIS G 812     -27.289  28.938  17.111  1.00 93.19 LIG-0.25  NA
ATOM      6  CE1 HIS G 812     -28.245  28.815  18.016  1.00 92.78 LIG 0.23  A 
ATOM      7 ND1  HIS G 812     -28.001  29.649  19.006  1.00 93.58 LIG-0.24  NA
ENDBRANCH 2 3
ENDBRANCH 1 2
BRANCH 1 8
ATOM      8  C   HIS G 812     -27.245  33.070  21.266  1.00 99.25 LIG 0.24  C 
ATOM      9  N   GLY G 813     -28.123  32.667  22.176  1.00100.26 LIG-0.35  N 
ATOM     10 H    GLY G 813     -28.802  32.164  22.016  1.00100.26 LIG 0.16  HD
ATOM     11 O    HIS G 812     -26.279  33.782  21.548  1.00 99.52 LIG-0.27  OA
BRANCH 9 12
ATOM     12  CA  GLY G 813     -27.968  33.080  23.560  1.00101.48 LIG 0.23  C 
BRANCH 12 13
ATOM     13  C   GLY G 813     -29.098  32.602  24.455  1.00102.44 LIG 0.24  C 
ATOM     14 O    GLY G 813     -30.195  32.333  23.969  1.00102.98 LIG-0.27  OA
ATOM     15  N   GLU G 814     -28.840  32.486  25.757  1.00102.70 LIG-0.34  N 
ATOM     16 H    GLU G 814     -28.076  32.654  26.115  1.00102.70 LIG 0.16  HD
BRANCH 15 17
ATOM     17  CA  GLU G 814     -29.873  32.049  26.699  1.00102.89 LIG 0.19  C 
BRANCH 17 18
ATOM     18  CB  GLU G 814     -29.302  31.046  27.710  1.00101.97 LIG 0.05  C 
BRANCH 18 19
ATOM     19  CG  GLU G 814     -30.268  30.614  28.797  1.00100.63 LIG 0.12  C 
BRANCH 19 20
ATOM     20  CD  GLU G 814     -29.566  29.962  29.980  1.00100.36 LIG 0.17  C 
ATOM     21 OE1  GLU G 814     -28.780  29.015  29.759  1.00 99.71 LIG-0.65  OA
ATOM     22 OE2  GLU G 814     -29.794  30.398  31.128  1.00 99.42 LIG-0.65  OA
ENDBRANCH 19 20
ENDBRANCH 18 19
ENDBRANCH 17 18
BRANCH 17 23
ATOM     23  C   GLU G 814     -30.454  33.245  27.459  1.00103.78 LIG 0.20  C 
ATOM     24 OXT  GLU G 814     -31.669  33.233  27.762  1.00104.07 LIG-0.65  OA
ATOM     25 O    GLU G 814     -29.682  34.185  27.750  1.00104.32 LIG-0.65  OA
ENDBRANCH 17 23
ENDBRANCH 15 17
ENDBRANCH 12 13
ENDBRANCH 9 12
ENDBRANCH 1 8
BRANCH 1 26
ATOM     26  N   HIS G 812     -27.121  33.808  19.072  1.00 98.48 LIG-0.35  N 
ATOM     27  C   GLY G 811     -27.803  34.955  19.110  1.00 98.46 LIG 0.24  C 
ATOM     28 O    GLY G 811     -28.836  35.130  19.768  1.00 98.78 LIG-0.27  OA
ATOM     29 H    HIS G 812     -26.423  33.711  18.579  1.00 98.48 LIG 0.16  HD
BRANCH 27 30
ATOM     30  CA  GLY G 811     -27.218  36.068  18.255  1.00 98.06 LIG 0.23  C 
BRANCH 30 31
ATOM     31  N   GLY G 811     -25.792  36.004  17.987  1.00 97.66 LIG-0.35  N 
ATOM     32 H    GLY G 811     -25.580  35.651  17.233  1.00 97.66 LIG 0.16  HD
ATOM     33  C   GLN G 810     -24.917  36.471  18.876  1.00 97.43 LIG 0.26  C 
ATOM     34 O    GLN G 810     -25.256  36.953  19.958  1.00 97.76 LIG-0.27  OA
BRANCH 33 35
ATOM     35  CA  GLN G 810     -23.439  36.368  18.501  1.00 96.79 LIG 0.40  C 
ATOM     36  N   GLN G 810     -22.711  37.608  18.899  1.00 96.61 LIG 0.61  N 
BRANCH 35 37
ATOM     37  CB  GLN G 810     -22.836  35.152  19.199  1.00 96.38 LIG 0.06  C 
BRANCH 37 38
ATOM     38  CG  GLN G 810     -21.901  34.304  18.350  1.00 95.56 LIG 0.10  C 
BRANCH 38 39
ATOM     39  CD  GLN G 810     -22.306  32.847  18.342  1.00 95.11 LIG 0.21  C 
ATOM     40  NE2 GLN G 810     -21.396  31.988  17.896  1.00 94.31 LIG-0.37  N 
ATOM     41 21HE GLN G 810     -20.629  32.273  17.631  1.00 94.31 LIG 0.16  HD
ATOM     42 22HE GLN G 810     -21.574  31.147  17.871  1.00 94.31 LIG 0.16  HD
ATOM     43 OE1  GLN G 810     -23.419  32.493  18.733  1.00 94.65 LIG-0.27  OA
ENDBRANCH 38 39
ENDBRANCH 37 38
ENDBRANCH 35 37
ENDBRANCH 33 35
ENDBRANCH 30 31
ENDBRANCH 27 30
ENDBRANCH 1 26
TORSDOF 17
ENDMDL
MODEL 16
USER: ADFR SOLUTION from run 159
USER: SCORE 11.006840 LL:  -2.642 LR:  -9.053 RR:   0.000 FEB:  -3.982
USER: RMSD 4.871380
USER: SEED 158
USER: STATUS no improvement in best in 3 clusters for 5 generations
USER: GENES 19
USER: genes 0 Translation |==|  0.42308 0.43595 0.41278
USER: genes 1 Rotation |==|  0.47599 0.51669 0.63038 0.98182
USER: genes 2 Torsion [C]-CA--CB-[CG] |==|  0.35996
USER: genes 3 Torsion [CA]-CB--CG-[CD2] |==|  0.81709
USER: genes 4 Torsion [N]-CA--C-[N] |==|  0.40556
USER: genes 5 Torsion [C]-N--CA-[C] |==|  0.26686
USER: genes 6 Torsion [N]-CA--C-[N] |==|  0.42425
USER: genes 7 Torsion [C]-N--CA-[CB] |==|  0.22096
USER: genes 8 Torsion [N]-CA--CB-[CG] |==|  0.35430
USER: genes 9 Torsion [CA]-CB--CG-[CD] |==|  0.50799
USER: genes 10 Torsion [CB]-CG--CD-[OE2] |==|  0.27203
USER: genes 11 Torsion [N]-CA--C-[OXT] |==|  0.43163
USER: genes 12 Torsion [CB]-CA--N-[C] |==|  0.51928
USER: genes 13 Torsion [N]-C--CA-[N] |==|  0.96933
USER: genes 14 Torsion [C]-CA--N-[C] |==|  0.74607
USER: genes 15 Torsion [N]-C--CA-[N] |==|  0.40143
USER: genes 16 Torsion [C]-CA--CB-[CG] |==|  0.96398
USER: genes 17 Torsion [CA]-CB--CG-[CD] |==|  0.46494
USER: genes 18 Torsion [CB]-CG--CD-[NE2] |==|  0.88088
ROOT
ATOM      1  CA  HIS G 812     -27.544  32.572  19.574  1.00 98.11 LIG 0.18  C 
ENDROOT
BRANCH 1 2
ATOM      2  CB  HIS G 812     -26.536  31.423  19.427  1.00 96.29 LIG 0.10  C 
BRANCH 2 3
ATOM      3  CG  HIS G 812     -26.985  30.281  18.559  1.00 94.00 LIG 0.06  A 
ATOM      4  CD2 HIS G 812     -27.977  29.383  18.715  1.00 93.71 LIG 0.14  A 
ATOM      5 NE2  HIS G 812     -27.828  28.428  17.731  1.00 93.19 LIG-0.25  NA
ATOM      6  CE1 HIS G 812     -26.779  28.749  16.992  1.00 92.78 LIG 0.23  A 
ATOM      7 ND1  HIS G 812     -26.256  29.862  17.463  1.00 93.58 LIG-0.24  NA
ENDBRANCH 2 3
ENDBRANCH 1 2
BRANCH 1 8
ATOM      8  C   HIS G 812     -27.676  32.838  21.071  1.00 99.25 LIG 0.24  C 
ATOM      9  N   GLY G 813     -28.711  32.297  21.701  1.00100.26 LIG-0.35  N 
ATOM     10 H    GLY G 813     -29.318  31.815  21.329  1.00100.26 LIG 0.16  HD
ATOM     11 O    HIS G 812     -26.824  33.512  21.652  1.00 99.52 LIG-0.27  OA
BRANCH 9 12
ATOM     12  CA  GLY G 813     -28.874  32.508  23.129  1.00101.48 LIG 0.23  C 
BRANCH 12 13
ATOM     13  C   GLY G 813     -29.815  33.653  23.460  1.00102.44 LIG 0.24  C 
ATOM     14 O    GLY G 813     -29.959  34.579  22.662  1.00102.98 LIG-0.27  OA
ATOM     15  N   GLU G 814     -30.463  33.597  24.622  1.00102.70 LIG-0.34  N 
ATOM     16 H    GLU G 814     -30.389  32.953  25.187  1.00102.70 LIG 0.16  HD
BRANCH 15 17
ATOM     17  CA  GLU G 814     -31.377  34.666  25.033  1.00102.89 LIG 0.19  C 
BRANCH 17 18
ATOM     18  CB  GLU G 814     -32.738  34.519  24.338  1.00101.97 LIG 0.05  C 
BRANCH 18 19
ATOM     19  CG  GLU G 814     -33.935  34.523  25.268  1.00100.63 LIG 0.12  C 
BRANCH 19 20
ATOM     20  CD  GLU G 814     -35.250  34.305  24.533  1.00100.36 LIG 0.17  C 
ATOM     21 OE1  GLU G 814     -35.789  35.285  23.973  1.00 99.71 LIG-0.65  OA
ATOM     22 OE2  GLU G 814     -35.742  33.158  24.509  1.00 99.42 LIG-0.65  OA
ENDBRANCH 19 20
ENDBRANCH 18 19
ENDBRANCH 17 18
BRANCH 17 23
ATOM     23  C   GLU G 814     -31.590  34.644  26.550  1.00103.78 LIG 0.20  C 
ATOM     24 OXT  GLU G 814     -31.932  35.703  27.125  1.00104.07 LIG-0.65  OA
ATOM     25 O    GLU G 814     -31.415  33.560  27.150  1.00104.32 LIG-0.65  OA
ENDBRANCH 17 23
ENDBRANCH 15 17
ENDBRANCH 12 13
ENDBRANCH 9 12
ENDBRANCH 1 8
BRANCH 1 26
ATOM     26  N   HIS G 812     -26.961  33.835  19.103  1.00 98.48 LIG-0.35  N 
ATOM     27  C   GLY G 811     -27.523  35.040  19.215  1.00 98.46 LIG 0.24  C 
ATOM     28 O    GLY G 811     -28.643  35.245  19.700  1.00 98.78 LIG-0.27  OA
ATOM     29 H    HIS G 812     -26.193  33.725  18.734  1.00 98.48 LIG 0.16  HD
BRANCH 27 30
ATOM     30  CA  GLY G 811     -26.677  36.185  18.680  1.00 98.06 LIG 0.23  C 
BRANCH 30 31
ATOM     31  N   GLY G 811     -25.296  35.878  18.353  1.00 97.66 LIG-0.35  N 
ATOM     32 H    GLY G 811     -25.167  35.601  17.550  1.00 97.66 LIG 0.16  HD
ATOM     33  C   GLN G 810     -24.337  36.031  19.264  1.00 97.43 LIG 0.26  C 
ATOM     34 O    GLN G 810     -24.561  36.411  20.414  1.00 97.76 LIG-0.27  OA
BRANCH 33 35
ATOM     35  CA  GLN G 810     -22.914  35.691  18.822  1.00 96.79 LIG 0.40  C 
ATOM     36  N   GLN G 810     -21.932  36.614  19.464  1.00 96.61 LIG 0.61  N 
BRANCH 35 37
ATOM     37  CB  GLN G 810     -22.610  34.245  19.206  1.00 96.38 LIG 0.06  C 
BRANCH 37 38
ATOM     38  CG  GLN G 810     -23.597  33.601  20.167  1.00 95.56 LIG 0.10  C 
BRANCH 38 39
ATOM     39  CD  GLN G 810     -23.408  32.103  20.257  1.00 95.11 LIG 0.21  C 
ATOM     40  NE2 GLN G 810     -23.203  31.467  19.108  1.00 94.31 LIG-0.37  N 
ATOM     41 21HE GLN G 810     -23.187  31.908  18.370  1.00 94.31 LIG 0.16  HD
ATOM     42 22HE GLN G 810     -23.088  30.615  19.103  1.00 94.31 LIG 0.16  HD
ATOM     43 OE1  GLN G 810     -23.441  31.521  21.342  1.00 94.65 LIG-0.27  OA
ENDBRANCH 38 39
ENDBRANCH 37 38
ENDBRANCH 35 37
ENDBRANCH 33 35
ENDBRANCH 30 31
ENDBRANCH 27 30
ENDBRANCH 1 26
TORSDOF 17
ENDMDL
MODEL 17
USER: ADFR SOLUTION from run 154
USER: SCORE 10.111923 LL:  -2.619 LR:  -9.037 RR:   0.000 FEB:  -3.966
USER: RMSD 3.964173
USER: SEED 153
USER: STATUS no improvement in best in 17 clusters for 5 generations
USER: GENES 19
USER: genes 0 Translation |==|  0.44136 0.40235 0.40985
USER: genes 1 Rotation |==|  0.55213 0.66304 0.62489 0.95288
USER: genes 2 Torsion [C]-CA--CB-[CG] |==|  0.33809
USER: genes 3 Torsion [CA]-CB--CG-[CD2] |==|  0.39021
USER: genes 4 Torsion [N]-CA--C-[N] |==|  0.42453
USER: genes 5 Torsion [C]-N--CA-[C] |==|  0.27912
USER: genes 6 Torsion [N]-CA--C-[N] |==|  0.30000
USER: genes 7 Torsion [C]-N--CA-[CB] |==|  0.44402
USER: genes 8 Torsion [N]-CA--CB-[CG] |==|  0.50217
USER: genes 9 Torsion [CA]-CB--CG-[CD] |==|  0.26264
USER: genes 10 Torsion [CB]-CG--CD-[OE2] |==|  0.86338
USER: genes 11 Torsion [N]-CA--C-[OXT] |==|  0.78333
USER: genes 12 Torsion [CB]-CA--N-[C] |==|  0.47279
USER: genes 13 Torsion [N]-C--CA-[N] |==|  0.86473
USER: genes 14 Torsion [C]-CA--N-[C] |==|  0.80510
USER: genes 15 Torsion [N]-C--CA-[N] |==|  0.56475
USER: genes 16 Torsion [C]-CA--CB-[CG] |==|  0.66684
USER: genes 17 Torsion [CA]-CB--CG-[CD] |==|  0.34319
USER: genes 18 Torsion [CB]-CG--CD-[NE2] |==|  0.37416
ROOT
ATOM      1  CA  HIS G 812     -27.187  31.942  19.502  1.00 98.11 LIG 0.18  C 
ENDROOT
BRANCH 1 2
ATOM      2  CB  HIS G 812     -26.562  30.840  18.635  1.00 96.29 LIG 0.10  C 
BRANCH 2 3
ATOM      3  CG  HIS G 812     -27.488  29.720  18.249  1.00 94.00 LIG 0.06  A 
ATOM      4  CD2 HIS G 812     -27.623  29.037  17.096  1.00 93.71 LIG 0.14  A 
ATOM      5 NE2  HIS G 812     -28.755  28.256  17.210  1.00 93.19 LIG-0.25  NA
ATOM      6  CE1 HIS G 812     -29.280  28.453  18.407  1.00 92.78 LIG 0.23  A 
ATOM      7 ND1  HIS G 812     -28.536  29.326  19.056  1.00 93.58 LIG-0.24  NA
ENDBRANCH 2 3
ENDBRANCH 1 2
BRANCH 1 8
ATOM      8  C   HIS G 812     -26.363  31.999  20.784  1.00 99.25 LIG 0.24  C 
ATOM      9  N   GLY G 813     -26.762  31.250  21.805  1.00100.26 LIG-0.35  N 
ATOM     10 H    GLY G 813     -27.455  30.742  21.801  1.00100.26 LIG 0.16  HD
ATOM     11 O    HIS G 812     -25.353  32.703  20.834  1.00 99.52 LIG-0.27  OA
BRANCH 9 12
ATOM     12  CA  GLY G 813     -26.003  31.257  23.043  1.00101.48 LIG 0.23  C 
BRANCH 12 13
ATOM     13  C   GLY G 813     -26.622  32.135  24.117  1.00102.44 LIG 0.24  C 
ATOM     14 O    GLY G 813     -26.585  33.359  24.006  1.00102.98 LIG-0.27  OA
ATOM     15  N   GLU G 814     -27.199  31.523  25.150  1.00102.70 LIG-0.34  N 
ATOM     16 H    GLU G 814     -27.250  30.669  25.240  1.00102.70 LIG 0.16  HD
BRANCH 15 17
ATOM     17  CA  GLU G 814     -27.806  32.288  26.242  1.00102.89 LIG 0.19  C 
BRANCH 17 18
ATOM     18  CB  GLU G 814     -28.808  31.426  27.023  1.00101.97 LIG 0.05  C 
BRANCH 18 19
ATOM     19  CG  GLU G 814     -29.507  32.136  28.166  1.00100.63 LIG 0.12  C 
BRANCH 19 20
ATOM     20  CD  GLU G 814     -30.854  32.716  27.761  1.00100.36 LIG 0.17  C 
ATOM     21 OE1  GLU G 814     -31.845  32.485  28.488  1.00 99.71 LIG-0.65  OA
ATOM     22 OE2  GLU G 814     -30.924  33.405  26.722  1.00 99.42 LIG-0.65  OA
ENDBRANCH 19 20
ENDBRANCH 18 19
ENDBRANCH 17 18
BRANCH 17 23
ATOM     23  C   GLU G 814     -26.733  32.800  27.207  1.00103.78 LIG 0.20  C 
ATOM     24 OXT  GLU G 814     -26.241  32.003  28.039  1.00104.07 LIG-0.65  OA
ATOM     25 O    GLU G 814     -26.389  34.000  27.118  1.00104.32 LIG-0.65  OA
ENDBRANCH 17 23
ENDBRANCH 15 17
ENDBRANCH 12 13
ENDBRANCH 9 12
ENDBRANCH 1 8
BRANCH 1 26
ATOM     26  N   HIS G 812     -26.923  33.266  18.925  1.00 98.48 LIG-0.35  N 
ATOM     27  C   GLY G 811     -27.477  34.413  19.325  1.00 98.46 LIG 0.24  C 
ATOM     28 O    GLY G 811     -28.328  34.502  20.219  1.00 98.78 LIG-0.27  OA
ATOM     29 H    HIS G 812     -26.356  33.237  18.280  1.00 98.48 LIG 0.16  HD
BRANCH 27 30
ATOM     30  CA  GLY G 811     -26.988  35.646  18.580  1.00 98.06 LIG 0.23  C 
BRANCH 30 31
ATOM     31  N   GLY G 811     -25.550  35.797  18.443  1.00 97.66 LIG-0.35  N 
ATOM     32 H    GLY G 811     -25.248  35.688  17.646  1.00 97.66 LIG 0.16  HD
ATOM     33  C   GLN G 810     -24.798  36.085  19.504  1.00 97.43 LIG 0.26  C 
ATOM     34 O    GLN G 810     -25.262  36.214  20.637  1.00 97.76 LIG-0.27  OA
BRANCH 33 35
ATOM     35  CA  GLN G 810     -23.297  36.234  19.258  1.00 96.79 LIG 0.40  C 
ATOM     36  N   GLN G 810     -22.534  35.992  20.517  1.00 96.61 LIG 0.61  N 
BRANCH 35 37
ATOM     37  CB  GLN G 810     -22.872  35.238  18.181  1.00 96.38 LIG 0.06  C 
BRANCH 37 38
ATOM     38  CG  GLN G 810     -21.826  34.220  18.606  1.00 95.56 LIG 0.10  C 
BRANCH 38 39
ATOM     39  CD  GLN G 810     -22.298  32.799  18.396  1.00 95.11 LIG 0.21  C 
ATOM     40  NE2 GLN G 810     -21.427  31.968  17.832  1.00 94.31 LIG-0.37  N 
ATOM     41 21HE GLN G 810     -20.647  32.251  17.607  1.00 94.31 LIG 0.16  HD
ATOM     42 22HE GLN G 810     -21.645  31.148  17.691  1.00 94.31 LIG 0.16  HD
ATOM     43 OE1  GLN G 810     -23.428  32.447  18.737  1.00 94.65 LIG-0.27  OA
ENDBRANCH 38 39
ENDBRANCH 37 38
ENDBRANCH 35 37
ENDBRANCH 33 35
ENDBRANCH 30 31
ENDBRANCH 27 30
ENDBRANCH 1 26
TORSDOF 17
ENDMDL
MODEL 18
USER: ADFR SOLUTION from run 73
USER: SCORE 9.591494 LL:  -2.122 LR:  -9.042 RR:   0.000 FEB:  -3.971
USER: RMSD 5.516513
USER: SEED 72
USER: STATUS no improvement in best in 5 clusters for 5 generations
USER: GENES 19
USER: genes 0 Translation |==|  0.51021 0.45403 0.46366
USER: genes 1 Rotation |==|  0.28123 0.24949 0.73790 0.78773
USER: genes 2 Torsion [C]-CA--CB-[CG] |==|  0.25904
USER: genes 3 Torsion [CA]-CB--CG-[CD2] |==|  0.64041
USER: genes 4 Torsion [N]-CA--C-[N] |==|  0.55951
USER: genes 5 Torsion [C]-N--CA-[C] |==|  0.80447
USER: genes 6 Torsion [N]-CA--C-[N] |==|  0.48285
USER: genes 7 Torsion [C]-N--CA-[CB] |==|  0.33311
USER: genes 8 Torsion [N]-CA--CB-[CG] |==|  0.65591
USER: genes 9 Torsion [CA]-CB--CG-[CD] |==|  0.59981
USER: genes 10 Torsion [CB]-CG--CD-[OE2] |==|  0.69307
USER: genes 11 Torsion [N]-CA--C-[OXT] |==|  0.34582
USER: genes 12 Torsion [CB]-CA--N-[C] |==|  0.24032
USER: genes 13 Torsion [N]-C--CA-[N] |==|  0.59349
USER: genes 14 Torsion [C]-CA--N-[C] |==|  0.67392
USER: genes 15 Torsion [N]-C--CA-[N] |==|  0.76672
USER: genes 16 Torsion [C]-CA--CB-[CG] |==|  0.38546
USER: genes 17 Torsion [CA]-CB--CG-[CD] |==|  0.21879
USER: genes 18 Torsion [CB]-CG--CD-[NE2] |==|  0.42120
ROOT
ATOM      1  CA  HIS G 812     -25.845  32.911  20.834  1.00 98.11 LIG 0.18  C 
ENDROOT
BRANCH 1 2
ATOM      2  CB  HIS G 812     -25.437  32.964  22.313  1.00 96.29 LIG 0.10  C 
BRANCH 2 3
ATOM      3  CG  HIS G 812     -25.155  31.633  22.951  1.00 94.00 LIG 0.06  A 
ATOM      4  CD2 HIS G 812     -25.607  31.082  24.094  1.00 93.71 LIG 0.14  A 
ATOM      5 NE2  HIS G 812     -24.880  29.931  24.314  1.00 93.19 LIG-0.25  NA
ATOM      6  CE1 HIS G 812     -24.019  29.785  23.321  1.00 92.78 LIG 0.23  A 
ATOM      7 ND1  HIS G 812     -24.165  30.791  22.483  1.00 93.58 LIG-0.24  NA
ENDBRANCH 2 3
ENDBRANCH 1 2
BRANCH 1 8
ATOM      8  C   HIS G 812     -27.369  32.868  20.810  1.00 99.25 LIG 0.24  C 
ATOM      9  N   GLY G 813     -27.976  32.076  21.685  1.00100.26 LIG-0.35  N 
ATOM     10 H    GLY G 813     -27.574  31.578  22.259  1.00100.26 LIG 0.16  HD
ATOM     11 O    HIS G 812     -27.991  33.575  20.014  1.00 99.52 LIG-0.27  OA
BRANCH 9 12
ATOM     12  CA  GLY G 813     -29.427  32.010  21.713  1.00101.48 LIG 0.23  C 
BRANCH 12 13
ATOM     13  C   GLY G 813     -30.070  33.278  22.246  1.00102.44 LIG 0.24  C 
ATOM     14 O    GLY G 813     -29.367  34.181  22.697  1.00102.98 LIG-0.27  OA
ATOM     15  N   GLU G 814     -31.399  33.360  22.191  1.00102.70 LIG-0.34  N 
ATOM     16 H    GLU G 814     -31.908  32.748  21.866  1.00102.70 LIG 0.16  HD
BRANCH 15 17
ATOM     17  CA  GLU G 814     -32.108  34.537  22.698  1.00102.89 LIG 0.19  C 
BRANCH 17 18
ATOM     18  CB  GLU G 814     -32.918  35.211  21.583  1.00101.97 LIG 0.05  C 
BRANCH 18 19
ATOM     19  CG  GLU G 814     -32.599  36.675  21.356  1.00100.63 LIG 0.12  C 
BRANCH 19 20
ATOM     20  CD  GLU G 814     -33.827  37.493  20.983  1.00100.36 LIG 0.17  C 
ATOM     21 OE1  GLU G 814     -34.698  37.694  21.858  1.00 99.71 LIG-0.65  OA
ATOM     22 OE2  GLU G 814     -33.922  37.939  19.820  1.00 99.42 LIG-0.65  OA
ENDBRANCH 19 20
ENDBRANCH 18 19
ENDBRANCH 17 18
BRANCH 17 23
ATOM     23  C   GLU G 814     -33.056  34.150  23.837  1.00103.78 LIG 0.20  C 
ATOM     24 OXT  GLU G 814     -32.942  34.732  24.940  1.00104.07 LIG-0.65  OA
ATOM     25 O    GLU G 814     -33.912  33.266  23.611  1.00104.32 LIG-0.65  OA
ENDBRANCH 17 23
ENDBRANCH 15 17
ENDBRANCH 12 13
ENDBRANCH 9 12
ENDBRANCH 1 8
BRANCH 1 26
ATOM     26  N   HIS G 812     -25.578  34.197  20.177  1.00 98.48 LIG-0.35  N 
ATOM     27  C   GLY G 811     -24.419  34.563  19.624  1.00 98.46 LIG 0.24  C 
ATOM     28 O    GLY G 811     -23.395  33.870  19.631  1.00 98.78 LIG-0.27  OA
ATOM     29 H    HIS G 812     -26.264  34.716  20.180  1.00 98.48 LIG 0.16  HD
BRANCH 27 30
ATOM     30  CA  GLY G 811     -24.435  35.936  18.972  1.00 98.06 LIG 0.23  C 
BRANCH 30 31
ATOM     31  N   GLY G 811     -23.608  36.106  17.790  1.00 97.66 LIG-0.35  N 
ATOM     32 H    GLY G 811     -23.825  35.612  17.121  1.00 97.66 LIG 0.16  HD
ATOM     33  C   GLN G 810     -22.600  36.976  17.791  1.00 97.43 LIG 0.26  C 
ATOM     34 O    GLN G 810     -22.303  37.654  18.775  1.00 97.76 LIG-0.27  OA
BRANCH 33 35
ATOM     35  CA  GLN G 810     -21.793  37.090  16.498  1.00 96.79 LIG 0.40  C 
ATOM     36  N   GLN G 810     -20.744  36.031  16.440  1.00 96.61 LIG 0.61  N 
BRANCH 35 37
ATOM     37  CB  GLN G 810     -22.745  36.959  15.311  1.00 96.38 LIG 0.06  C 
BRANCH 37 38
ATOM     38  CG  GLN G 810     -22.484  37.910  14.153  1.00 95.56 LIG 0.10  C 
BRANCH 38 39
ATOM     39  CD  GLN G 810     -21.335  37.448  13.286  1.00 95.11 LIG 0.21  C 
ATOM     40  NE2 GLN G 810     -21.379  37.813  12.009  1.00 94.31 LIG-0.37  N 
ATOM     41 21HE GLN G 810     -22.037  38.284  11.719  1.00 94.31 LIG 0.16  HD
ATOM     42 22HE GLN G 810     -20.750  37.577  11.472  1.00 94.31 LIG 0.16  HD
ATOM     43 OE1  GLN G 810     -20.416  36.773  13.753  1.00 94.65 LIG-0.27  OA
ENDBRANCH 38 39
ENDBRANCH 37 38
ENDBRANCH 35 37
ENDBRANCH 33 35
ENDBRANCH 30 31
ENDBRANCH 27 30
ENDBRANCH 1 26
TORSDOF 17
ENDMDL
MODEL 19
USER: ADFR SOLUTION from run 117
USER: SCORE 8.878436 LL:  -2.362 LR:  -9.005 RR:   0.000 FEB:  -3.934
USER: RMSD 3.912741
USER: SEED 116
USER: STATUS no improvement in best in 3 clusters for 5 generations
USER: GENES 19
USER: genes 0 Translation |==|  0.46843 0.40067 0.46168
USER: genes 1 Rotation |==|  0.63873 0.66195 0.58600 0.94399
USER: genes 2 Torsion [C]-CA--CB-[CG] |==|  0.30269
USER: genes 3 Torsion [CA]-CB--CG-[CD2] |==|  0.44818
USER: genes 4 Torsion [N]-CA--C-[N] |==|  0.33934
USER: genes 5 Torsion [C]-N--CA-[C] |==|  0.42364
USER: genes 6 Torsion [N]-CA--C-[N] |==|  0.41388
USER: genes 7 Torsion [C]-N--CA-[CB] |==|  0.44126
USER: genes 8 Torsion [N]-CA--CB-[CG] |==|  0.50311
USER: genes 9 Torsion [CA]-CB--CG-[CD] |==|  0.61597
USER: genes 10 Torsion [CB]-CG--CD-[OE2] |==|  0.61774
USER: genes 11 Torsion [N]-CA--C-[OXT] |==|  0.89823
USER: genes 12 Torsion [CB]-CA--N-[C] |==|  0.24997
USER: genes 13 Torsion [N]-C--CA-[N] |==|  0.18704
USER: genes 14 Torsion [C]-CA--N-[C] |==|  0.64465
USER: genes 15 Torsion [N]-C--CA-[N] |==|  0.33741
USER: genes 16 Torsion [C]-CA--CB-[CG] |==|  0.08752
USER: genes 17 Torsion [CA]-CB--CG-[CD] |==|  0.20966
USER: genes 18 Torsion [CB]-CG--CD-[NE2] |==|  0.14277
ROOT
ATOM      1  CA  HIS G 812     -26.660  31.911  20.785  1.00 98.11 LIG 0.18  C 
ENDROOT
BRANCH 1 2
ATOM      2  CB  HIS G 812     -26.404  30.980  19.591  1.00 96.29 LIG 0.10  C 
BRANCH 2 3
ATOM      3  CG  HIS G 812     -27.524  30.032  19.262  1.00 94.00 LIG 0.06  A 
ATOM      4  CD2 HIS G 812     -27.798  29.336  18.141  1.00 93.71 LIG 0.14  A 
ATOM      5 NE2  HIS G 812     -29.051  28.779  18.298  1.00 93.19 LIG-0.25  NA
ATOM      6  CE1 HIS G 812     -29.514  29.121  19.488  1.00 92.78 LIG 0.23  A 
ATOM      7 ND1  HIS G 812     -28.615  29.870  20.092  1.00 93.58 LIG-0.24  NA
ENDBRANCH 2 3
ENDBRANCH 1 2
BRANCH 1 8
ATOM      8  C   HIS G 812     -25.754  31.423  21.911  1.00 99.25 LIG 0.24  C 
ATOM      9  N   GLY G 813     -26.330  31.073  23.055  1.00100.26 LIG-0.35  N 
ATOM     10 H    GLY G 813     -27.174  31.109  23.212  1.00100.26 LIG 0.16  HD
ATOM     11 O    HIS G 812     -24.538  31.341  21.729  1.00 99.52 LIG-0.27  OA
BRANCH 9 12
ATOM     12  CA  GLY G 813     -25.513  30.588  24.153  1.00101.48 LIG 0.23  C 
BRANCH 12 13
ATOM     13  C   GLY G 813     -26.128  30.852  25.516  1.00102.44 LIG 0.24  C 
ATOM     14 O    GLY G 813     -26.843  31.839  25.686  1.00102.98 LIG-0.27  OA
ATOM     15  N   GLU G 814     -25.867  29.977  26.486  1.00102.70 LIG-0.34  N 
ATOM     16 H    GLU G 814     -25.383  29.273  26.385  1.00102.70 LIG 0.16  HD
BRANCH 15 17
ATOM     17  CA  GLU G 814     -26.403  30.160  27.837  1.00102.89 LIG 0.19  C 
BRANCH 17 18
ATOM     18  CB  GLU G 814     -26.421  28.830  28.603  1.00101.97 LIG 0.05  C 
BRANCH 18 19
ATOM     19  CG  GLU G 814     -26.986  28.909  30.008  1.00100.63 LIG 0.12  C 
BRANCH 19 20
ATOM     20  CD  GLU G 814     -26.182  28.094  31.010  1.00100.36 LIG 0.17  C 
ATOM     21 OE1  GLU G 814     -24.933  28.141  30.953  1.00 99.71 LIG-0.65  OA
ATOM     22 OE2  GLU G 814     -26.794  27.411  31.858  1.00 99.42 LIG-0.65  OA
ENDBRANCH 19 20
ENDBRANCH 18 19
ENDBRANCH 17 18
BRANCH 17 23
ATOM     23  C   GLU G 814     -25.563  31.173  28.621  1.00103.78 LIG 0.20  C 
ATOM     24 OXT  GLU G 814     -24.323  31.189  28.448  1.00104.07 LIG-0.65  OA
ATOM     25 O    GLU G 814     -26.160  31.949  29.400  1.00104.32 LIG-0.65  OA
ENDBRANCH 17 23
ENDBRANCH 15 17
ENDBRANCH 12 13
ENDBRANCH 9 12
ENDBRANCH 1 8
BRANCH 1 26
ATOM     26  N   HIS G 812     -26.110  33.247  20.525  1.00 98.48 LIG-0.35  N 
ATOM     27  C   GLY G 811     -26.763  34.259  19.949  1.00 98.46 LIG 0.24  C 
ATOM     28 O    GLY G 811     -27.919  34.185  19.516  1.00 98.78 LIG-0.27  OA
ATOM     29 H    HIS G 812     -25.295  33.325  20.789  1.00 98.48 LIG 0.16  HD
BRANCH 27 30
ATOM     30  CA  GLY G 811     -25.966  35.549  19.844  1.00 98.06 LIG 0.23  C 
BRANCH 30 31
ATOM     31  N   GLY G 811     -24.821  35.538  18.951  1.00 97.66 LIG-0.35  N 
ATOM     32 H    GLY G 811     -24.985  35.263  18.154  1.00 97.66 LIG 0.16  HD
ATOM     33  C   GLN G 810     -23.625  35.934  19.382  1.00 97.43 LIG 0.26  C 
ATOM     34 O    GLN G 810     -23.420  36.304  20.539  1.00 97.76 LIG-0.27  OA
BRANCH 33 35
ATOM     35  CA  GLN G 810     -22.484  35.896  18.366  1.00 96.79 LIG 0.40  C 
ATOM     36  N   GLN G 810     -21.886  37.253  18.199  1.00 96.61 LIG 0.61  N 
BRANCH 35 37
ATOM     37  CB  GLN G 810     -21.426  34.907  18.849  1.00 96.38 LIG 0.06  C 
BRANCH 37 38
ATOM     38  CG  GLN G 810     -21.950  33.726  19.652  1.00 95.56 LIG 0.10  C 
BRANCH 38 39
ATOM     39  CD  GLN G 810     -22.619  32.693  18.773  1.00 95.11 LIG 0.21  C 
ATOM     40  NE2 GLN G 810     -21.919  32.273  17.724  1.00 94.31 LIG-0.37  N 
ATOM     41 21HE GLN G 810     -21.133  32.590  17.577  1.00 94.31 LIG 0.16  HD
ATOM     42 22HE GLN G 810     -22.252  31.685  17.192  1.00 94.31 LIG 0.16  HD
ATOM     43 OE1  GLN G 810     -23.748  32.274  19.030  1.00 94.65 LIG-0.27  OA
ENDBRANCH 38 39
ENDBRANCH 37 38
ENDBRANCH 35 37
ENDBRANCH 33 35
ENDBRANCH 30 31
ENDBRANCH 27 30
ENDBRANCH 1 26
TORSDOF 17
ENDMDL
MODEL 20
USER: ADFR SOLUTION from run 115
USER: SCORE 10.753451 LL:  -2.845 LR:  -8.971 RR:   0.000 FEB:  -3.900
USER: RMSD 5.811078
USER: SEED 114
USER: STATUS no improvement in best in 15 clusters for 5 generations
USER: GENES 19
USER: genes 0 Translation |==|  0.42608 0.43204 0.43091
USER: genes 1 Rotation |==|  0.44702 0.48005 0.64658 0.97467
USER: genes 2 Torsion [C]-CA--CB-[CG] |==|  0.96655
USER: genes 3 Torsion [CA]-CB--CG-[CD2] |==|  0.70860
USER: genes 4 Torsion [N]-CA--C-[N] |==|  0.39655
USER: genes 5 Torsion [C]-N--CA-[C] |==|  0.27761
USER: genes 6 Torsion [N]-CA--C-[N] |==|  0.23641
USER: genes 7 Torsion [C]-N--CA-[CB] |==|  0.21195
USER: genes 8 Torsion [N]-CA--CB-[CG] |==|  0.57445
USER: genes 9 Torsion [CA]-CB--CG-[CD] |==|  0.48681
USER: genes 10 Torsion [CB]-CG--CD-[OE2] |==|  0.90791
USER: genes 11 Torsion [N]-CA--C-[OXT] |==|  0.94150
USER: genes 12 Torsion [CB]-CA--N-[C] |==|  0.52878
USER: genes 13 Torsion [N]-C--CA-[N] |==|  0.03703
USER: genes 14 Torsion [C]-CA--N-[C] |==|  0.72547
USER: genes 15 Torsion [N]-C--CA-[N] |==|  0.22194
USER: genes 16 Torsion [C]-CA--CB-[CG] |==|  0.22818
USER: genes 17 Torsion [CA]-CB--CG-[CD] |==|  0.07814
USER: genes 18 Torsion [CB]-CG--CD-[NE2] |==|  0.20917
ROOT
ATOM      1  CA  HIS G 812     -27.485  32.499  20.023  1.00 98.11 LIG 0.18  C 
ENDROOT
BRANCH 1 2
ATOM      2  CB  HIS G 812     -26.385  31.434  20.134  1.00 96.29 LIG 0.10  C 
BRANCH 2 3
ATOM      3  CG  HIS G 812     -25.813  31.240  21.511  1.00 94.00 LIG 0.06  A 
ATOM      4  CD2 HIS G 812     -24.638  31.623  22.046  1.00 93.71 LIG 0.14  A 
ATOM      5 NE2  HIS G 812     -24.529  31.016  23.280  1.00 93.19 LIG-0.25  NA
ATOM      6  CE1 HIS G 812     -25.619  30.296  23.489  1.00 92.78 LIG 0.23  A 
ATOM      7 ND1  HIS G 812     -26.411  30.416  22.443  1.00 93.58 LIG-0.24  NA
ENDBRANCH 2 3
ENDBRANCH 1 2
BRANCH 1 8
ATOM      8  C   HIS G 812     -27.889  32.850  21.452  1.00 99.25 LIG 0.24  C 
ATOM      9  N   GLY G 813     -29.008  32.315  21.923  1.00100.26 LIG-0.35  N 
ATOM     10 H    GLY G 813     -29.529  31.793  21.481  1.00100.26 LIG 0.16  HD
ATOM     11 O    HIS G 812     -27.168  33.584  22.130  1.00 99.52 LIG-0.27  OA
BRANCH 9 12
ATOM     12  CA  GLY G 813     -29.429  32.606  23.282  1.00101.48 LIG 0.23  C 
BRANCH 12 13
ATOM     13  C   GLY G 813     -30.505  33.674  23.358  1.00102.44 LIG 0.24  C 
ATOM     14 O    GLY G 813     -30.192  34.849  23.543  1.00102.98 LIG-0.27  OA
ATOM     15  N   GLU G 814     -31.770  33.281  23.209  1.00102.70 LIG-0.34  N 
ATOM     16 H    GLU G 814     -32.009  32.468  23.064  1.00102.70 LIG 0.16  HD
BRANCH 15 17
ATOM     17  CA  GLU G 814     -32.875  34.239  23.285  1.00102.89 LIG 0.19  C 
BRANCH 17 18
ATOM     18  CB  GLU G 814     -32.973  35.065  21.996  1.00101.97 LIG 0.05  C 
BRANCH 18 19
ATOM     19  CG  GLU G 814     -33.593  36.439  22.163  1.00100.63 LIG 0.12  C 
BRANCH 19 20
ATOM     20  CD  GLU G 814     -33.560  37.257  20.880  1.00100.36 LIG 0.17  C 
ATOM     21 OE1  GLU G 814     -34.496  38.056  20.658  1.00 99.71 LIG-0.65  OA
ATOM     22 OE2  GLU G 814     -32.598  37.108  20.097  1.00 99.42 LIG-0.65  OA
ENDBRANCH 19 20
ENDBRANCH 18 19
ENDBRANCH 17 18
BRANCH 17 23
ATOM     23  C   GLU G 814     -34.206  33.514  23.513  1.00103.78 LIG 0.20  C 
ATOM     24 OXT  GLU G 814     -34.289  32.300  23.213  1.00104.07 LIG-0.65  OA
ATOM     25 O    GLU G 814     -35.154  34.170  23.997  1.00104.32 LIG-0.65  OA
ENDBRANCH 17 23
ENDBRANCH 15 17
ENDBRANCH 12 13
ENDBRANCH 9 12
ENDBRANCH 1 8
BRANCH 1 26
ATOM     26  N   HIS G 812     -26.927  33.774  19.555  1.00 98.48 LIG-0.35  N 
ATOM     27  C   GLY G 811     -27.568  34.944  19.538  1.00 98.46 LIG 0.24  C 
ATOM     28 O    GLY G 811     -28.747  35.098  19.880  1.00 98.78 LIG-0.27  OA
ATOM     29 H    HIS G 812     -26.115  33.697  19.282  1.00 98.48 LIG 0.16  HD
BRANCH 27 30
ATOM     30  CA  GLY G 811     -26.734  36.116  19.044  1.00 98.06 LIG 0.23  C 
BRANCH 30 31
ATOM     31  N   GLY G 811     -25.483  35.792  18.382  1.00 97.66 LIG-0.35  N 
ATOM     32 H    GLY G 811     -25.557  35.569  17.555  1.00 97.66 LIG 0.16  HD
ATOM     33  C   GLN G 810     -24.331  35.852  19.049  1.00 97.43 LIG 0.26  C 
ATOM     34 O    GLN G 810     -24.264  36.156  20.240  1.00 97.76 LIG-0.27  OA
BRANCH 33 35
ATOM     35  CA  GLN G 810     -23.067  35.502  18.263  1.00 96.79 LIG 0.40  C 
ATOM     36  N   GLN G 810     -22.630  36.663  17.433  1.00 96.61 LIG 0.61  N 
BRANCH 35 37
ATOM     37  CB  GLN G 810     -21.968  35.111  19.248  1.00 96.38 LIG 0.06  C 
BRANCH 37 38
ATOM     38  CG  GLN G 810     -22.015  33.674  19.745  1.00 95.56 LIG 0.10  C 
BRANCH 38 39
ATOM     39  CD  GLN G 810     -22.652  32.745  18.736  1.00 95.11 LIG 0.21  C 
ATOM     40  NE2 GLN G 810     -21.908  32.420  17.684  1.00 94.31 LIG-0.37  N 
ATOM     41 21HE GLN G 810     -21.112  32.737  17.606  1.00 94.31 LIG 0.16  HD
ATOM     42 22HE GLN G 810     -22.222  31.893  17.081  1.00 94.31 LIG 0.16  HD
ATOM     43 OE1  GLN G 810     -23.798  32.320  18.897  1.00 94.65 LIG-0.27  OA
ENDBRANCH 38 39
ENDBRANCH 37 38
ENDBRANCH 35 37
ENDBRANCH 33 35
ENDBRANCH 30 31
ENDBRANCH 27 30
ENDBRANCH 1 26
TORSDOF 17
ENDMDL
MODEL 21
USER: ADFR SOLUTION from run 9
USER: SCORE 9.405470 LL:  -1.991 LR:  -8.967 RR:   0.000 FEB:  -3.896
USER: RMSD 4.703024
USER: SEED 22466
USER: STATUS no improvement in best in 3 clusters for 5 generations
USER: GENES 19
USER: genes 0 Translation |==|  0.40388 0.40884 0.45890
USER: genes 1 Rotation |==|  0.42107 0.43831 0.41924 0.98316
USER: genes 2 Torsion [C]-CA--CB-[CG] |==|  0.41246
USER: genes 3 Torsion [CA]-CB--CG-[CD2] |==|  0.71618
USER: genes 4 Torsion [N]-CA--C-[N] |==|  0.80431
USER: genes 5 Torsion [C]-N--CA-[C] |==|  0.26202
USER: genes 6 Torsion [N]-CA--C-[N] |==|  0.39763
USER: genes 7 Torsion [C]-N--CA-[CB] |==|  0.35389
USER: genes 8 Torsion [N]-CA--CB-[CG] |==|  0.45739
USER: genes 9 Torsion [CA]-CB--CG-[CD] |==|  0.59908
USER: genes 10 Torsion [CB]-CG--CD-[OE2] |==|  0.26529
USER: genes 11 Torsion [N]-CA--C-[OXT] |==|  0.87188
USER: genes 12 Torsion [CB]-CA--N-[C] |==|  0.21661
USER: genes 13 Torsion [N]-C--CA-[N] |==|  0.37621
USER: genes 14 Torsion [C]-CA--N-[C] |==|  0.53741
USER: genes 15 Torsion [N]-C--CA-[N] |==|  0.21455
USER: genes 16 Torsion [C]-CA--CB-[CG] |==|  0.26297
USER: genes 17 Torsion [CA]-CB--CG-[CD] |==|  0.97938
USER: genes 18 Torsion [CB]-CG--CD-[NE2] |==|  0.71182
ROOT
ATOM      1  CA  HIS G 812     -27.918  32.064  20.716  1.00 98.11 LIG 0.18  C 
ENDROOT
BRANCH 1 2
ATOM      2  CB  HIS G 812     -28.114  30.565  20.985  1.00 96.29 LIG 0.10  C 
BRANCH 2 3
ATOM      3  CG  HIS G 812     -28.576  29.754  19.806  1.00 94.00 LIG 0.06  A 
ATOM      4  CD2 HIS G 812     -29.790  29.267  19.484  1.00 93.71 LIG 0.14  A 
ATOM      5 NE2  HIS G 812     -29.624  28.424  18.405  1.00 93.19 LIG-0.25  NA
ATOM      6  CE1 HIS G 812     -28.343  28.414  18.076  1.00 92.78 LIG 0.23  A 
ATOM      7 ND1  HIS G 812     -27.690  29.209  18.899  1.00 93.58 LIG-0.24  NA
ENDBRANCH 2 3
ENDBRANCH 1 2
BRANCH 1 8
ATOM      8  C   HIS G 812     -28.243  32.780  22.023  1.00 99.25 LIG 0.24  C 
ATOM      9  N   GLY G 813     -27.734  32.278  23.141  1.00100.26 LIG-0.35  N 
ATOM     10 H    GLY G 813     -27.243  31.575  23.186  1.00100.26 LIG 0.16  HD
ATOM     11 O    HIS G 812     -28.932  33.802  22.008  1.00 99.52 LIG-0.27  OA
BRANCH 9 12
ATOM     12  CA  GLY G 813     -28.001  32.932  24.410  1.00101.48 LIG 0.23  C 
BRANCH 12 13
ATOM     13  C   GLY G 813     -29.191  32.343  25.147  1.00102.44 LIG 0.24  C 
ATOM     14 O    GLY G 813     -30.172  31.953  24.515  1.00102.98 LIG-0.27  OA
ATOM     15  N   GLU G 814     -29.113  32.266  26.474  1.00102.70 LIG-0.34  N 
ATOM     16 H    GLU G 814     -28.431  32.518  26.934  1.00102.70 LIG 0.16  HD
BRANCH 15 17
ATOM     17  CA  GLU G 814     -30.220  31.728  27.269  1.00102.89 LIG 0.19  C 
BRANCH 17 18
ATOM     18  CB  GLU G 814     -29.730  30.617  28.208  1.00101.97 LIG 0.05  C 
BRANCH 18 19
ATOM     19  CG  GLU G 814     -30.695  30.247  29.318  1.00100.63 LIG 0.12  C 
BRANCH 19 20
ATOM     20  CD  GLU G 814     -29.985  29.884  30.614  1.00100.36 LIG 0.17  C 
ATOM     21 OE1  GLU G 814     -29.569  28.714  30.759  1.00 99.71 LIG-0.65  OA
ATOM     22 OE2  GLU G 814     -29.838  30.767  31.486  1.00 99.42 LIG-0.65  OA
ENDBRANCH 19 20
ENDBRANCH 18 19
ENDBRANCH 17 18
BRANCH 17 23
ATOM     23  C   GLU G 814     -30.874  32.833  28.105  1.00103.78 LIG 0.20  C 
ATOM     24 OXT  GLU G 814     -30.138  33.621  28.743  1.00104.07 LIG-0.65  OA
ATOM     25 O    GLU G 814     -32.123  32.903  28.109  1.00104.32 LIG-0.65  OA
ENDBRANCH 17 23
ENDBRANCH 15 17
ENDBRANCH 12 13
ENDBRANCH 9 12
ENDBRANCH 1 8
BRANCH 1 26
ATOM     26  N   HIS G 812     -26.493  32.379  20.555  1.00 98.48 LIG-0.35  N 
ATOM     27  C   GLY G 811     -25.765  32.151  19.460  1.00 98.46 LIG 0.24  C 
ATOM     28 O    GLY G 811     -26.194  31.600  18.440  1.00 98.78 LIG-0.27  OA
ATOM     29 H    HIS G 812     -26.155  32.739  21.259  1.00 98.48 LIG 0.16  HD
BRANCH 27 30
ATOM     30  CA  GLY G 811     -24.320  32.619  19.552  1.00 98.06 LIG 0.23  C 
BRANCH 30 31
ATOM     31  N   GLY G 811     -23.306  31.703  19.062  1.00 97.66 LIG-0.35  N 
ATOM     32 H    GLY G 811     -23.605  31.047  18.594  1.00 97.66 LIG 0.16  HD
ATOM     33  C   GLN G 810     -22.020  31.907  19.342  1.00 97.43 LIG 0.26  C 
ATOM     34 O    GLN G 810     -21.628  32.847  20.034  1.00 97.76 LIG-0.27  OA
BRANCH 33 35
ATOM     35  CA  GLN G 810     -21.027  30.894  18.774  1.00 96.79 LIG 0.40  C 
ATOM     36  N   GLN G 810     -20.794  31.148  17.322  1.00 96.61 LIG 0.61  N 
BRANCH 35 37
ATOM     37  CB  GLN G 810     -19.715  31.001  19.547  1.00 96.38 LIG 0.06  C 
BRANCH 37 38
ATOM     38  CG  GLN G 810     -19.556  30.029  20.706  1.00 95.56 LIG 0.10  C 
BRANCH 38 39
ATOM     39  CD  GLN G 810     -20.826  29.253  20.975  1.00 95.11 LIG 0.21  C 
ATOM     40  NE2 GLN G 810     -21.536  29.638  22.030  1.00 94.31 LIG-0.37  N 
ATOM     41 21HE GLN G 810     -21.264  30.293  22.516  1.00 94.31 LIG 0.16  HD
ATOM     42 22HE GLN G 810     -22.268  29.231  22.227  1.00 94.31 LIG 0.16  HD
ATOM     43 OE1  GLN G 810     -21.169  28.321  20.246  1.00 94.65 LIG-0.27  OA
ENDBRANCH 38 39
ENDBRANCH 37 38
ENDBRANCH 35 37
ENDBRANCH 33 35
ENDBRANCH 30 31
ENDBRANCH 27 30
ENDBRANCH 1 26
TORSDOF 17
ENDMDL
MODEL 22
USER: ADFR SOLUTION from run 26
USER: SCORE 9.141220 LL:  -1.899 LR:  -8.923 RR:   0.000 FEB:  -3.852
USER: RMSD 4.177334
USER: SEED 25
USER: STATUS no improvement in best in 14 clusters for 5 generations
USER: GENES 19
USER: genes 0 Translation |==|  0.42522 0.42391 0.41103
USER: genes 1 Rotation |==|  0.50069 0.56525 0.65371 0.97129
USER: genes 2 Torsion [C]-CA--CB-[CG] |==|  0.36470
USER: genes 3 Torsion [CA]-CB--CG-[CD2] |==|  0.89126
USER: genes 4 Torsion [N]-CA--C-[N] |==|  0.29676
USER: genes 5 Torsion [C]-N--CA-[C] |==|  0.48031
USER: genes 6 Torsion [N]-CA--C-[N] |==|  0.67725
USER: genes 7 Torsion [C]-N--CA-[CB] |==|  0.86645
USER: genes 8 Torsion [N]-CA--CB-[CG] |==|  0.51654
USER: genes 9 Torsion [CA]-CB--CG-[CD] |==|  0.50138
USER: genes 10 Torsion [CB]-CG--CD-[OE2] |==|  0.86847
USER: genes 11 Torsion [N]-CA--C-[OXT] |==|  0.44554
USER: genes 12 Torsion [CB]-CA--N-[C] |==|  0.51842
USER: genes 13 Torsion [N]-C--CA-[N] |==|  0.93650
USER: genes 14 Torsion [C]-CA--N-[C] |==|  0.74162
USER: genes 15 Torsion [N]-C--CA-[N] |==|  0.79770
USER: genes 16 Torsion [C]-CA--CB-[CG] |==|  0.15764
USER: genes 17 Torsion [CA]-CB--CG-[CD] |==|  0.68803
USER: genes 18 Torsion [CB]-CG--CD-[NE2] |==|  0.32893
ROOT
ATOM      1  CA  HIS G 812     -27.502  32.346  19.531  1.00 98.11 LIG 0.18  C 
ENDROOT
BRANCH 1 2
ATOM      2  CB  HIS G 812     -26.460  31.302  19.107  1.00 96.29 LIG 0.10  C 
BRANCH 2 3
ATOM      3  CG  HIS G 812     -26.984  30.175  18.260  1.00 94.00 LIG 0.06  A 
ATOM      4  CD2 HIS G 812     -28.139  29.484  18.319  1.00 93.71 LIG 0.14  A 
ATOM      5 NE2  HIS G 812     -28.031  28.426  17.441  1.00 93.19 LIG-0.25  NA
ATOM      6  CE1 HIS G 812     -26.846  28.486  16.858  1.00 92.78 LIG 0.23  A 
ATOM      7 ND1  HIS G 812     -26.196  29.531  17.328  1.00 93.58 LIG-0.24  NA
ENDBRANCH 2 3
ENDBRANCH 1 2
BRANCH 1 8
ATOM      8  C   HIS G 812     -27.325  32.545  21.033  1.00 99.25 LIG 0.24  C 
ATOM      9  N   GLY G 813     -28.422  32.625  21.776  1.00100.26 LIG-0.35  N 
ATOM     10 H    GLY G 813     -29.225  32.583  21.474  1.00100.26 LIG 0.16  HD
ATOM     11 O    HIS G 812     -26.192  32.599  21.516  1.00 99.52 LIG-0.27  OA
BRANCH 9 12
ATOM     12  CA  GLY G 813     -28.307  32.800  23.213  1.00101.48 LIG 0.23  C 
BRANCH 12 13
ATOM     13  C   GLY G 813     -29.642  33.044  23.893  1.00102.44 LIG 0.24  C 
ATOM     14 O    GLY G 813     -30.506  32.168  23.881  1.00102.98 LIG-0.27  OA
ATOM     15  N   GLU G 814     -29.818  34.220  24.493  1.00102.70 LIG-0.34  N 
ATOM     16 H    GLU G 814     -29.222  34.840  24.526  1.00102.70 LIG 0.16  HD
BRANCH 15 17
ATOM     17  CA  GLU G 814     -31.080  34.551  25.159  1.00102.89 LIG 0.19  C 
BRANCH 17 18
ATOM     18  CB  GLU G 814     -32.277  34.226  24.256  1.00101.97 LIG 0.05  C 
BRANCH 18 19
ATOM     19  CG  GLU G 814     -33.624  34.663  24.798  1.00100.63 LIG 0.12  C 
BRANCH 19 20
ATOM     20  CD  GLU G 814     -34.775  34.305  23.868  1.00100.36 LIG 0.17  C 
ATOM     21 OE1  GLU G 814     -35.791  33.764  24.358  1.00 99.71 LIG-0.65  OA
ATOM     22 OE2  GLU G 814     -34.669  34.568  22.652  1.00 99.42 LIG-0.65  OA
ENDBRANCH 19 20
ENDBRANCH 18 19
ENDBRANCH 17 18
BRANCH 17 23
ATOM     23  C   GLU G 814     -31.221  33.773  26.471  1.00103.78 LIG 0.20  C 
ATOM     24 OXT  GLU G 814     -32.026  34.190  27.335  1.00104.07 LIG-0.65  OA
ATOM     25 O    GLU G 814     -30.524  32.745  26.619  1.00104.32 LIG-0.65  OA
ENDBRANCH 17 23
ENDBRANCH 15 17
ENDBRANCH 12 13
ENDBRANCH 9 12
ENDBRANCH 1 8
BRANCH 1 26
ATOM     26  N   HIS G 812     -27.143  33.674  19.016  1.00 98.48 LIG-0.35  N 
ATOM     27  C   GLY G 811     -27.769  34.816  19.307  1.00 98.46 LIG 0.24  C 
ATOM     28 O    GLY G 811     -28.771  34.898  20.027  1.00 98.78 LIG-0.27  OA
ATOM     29 H    HIS G 812     -26.465  33.649  18.487  1.00 98.48 LIG 0.16  HD
BRANCH 27 30
ATOM     30  CA  GLY G 811     -27.157  36.053  18.668  1.00 98.06 LIG 0.23  C 
BRANCH 30 31
ATOM     31  N   GLY G 811     -25.761  35.964  18.279  1.00 97.66 LIG-0.35  N 
ATOM     32 H    GLY G 811     -25.623  35.645  17.493  1.00 97.66 LIG 0.16  HD
ATOM     33  C   GLN G 810     -24.801  36.360  19.114  1.00 97.43 LIG 0.26  C 
ATOM     34 O    GLN G 810     -25.033  36.793  20.242  1.00 97.76 LIG-0.27  OA
BRANCH 33 35
ATOM     35  CA  GLN G 810     -23.363  36.235  18.610  1.00 96.79 LIG 0.40  C 
ATOM     36  N   GLN G 810     -22.939  34.805  18.585  1.00 96.61 LIG 0.61  N 
BRANCH 35 37
ATOM     37  CB  GLN G 810     -23.277  36.838  17.210  1.00 96.38 LIG 0.06  C 
BRANCH 37 38
ATOM     38  CG  GLN G 810     -23.726  38.286  17.091  1.00 95.56 LIG 0.10  C 
BRANCH 38 39
ATOM     39  CD  GLN G 810     -24.996  38.422  16.281  1.00 95.11 LIG 0.21  C 
ATOM     40  NE2 GLN G 810     -26.045  38.933  16.916  1.00 94.31 LIG-0.37  N 
ATOM     41 21HE GLN G 810     -25.978  39.163  17.742  1.00 94.31 LIG 0.16  HD
ATOM     42 22HE GLN G 810     -26.792  39.033  16.502  1.00 94.31 LIG 0.16  HD
ATOM     43 OE1  GLN G 810     -25.038  38.077  15.099  1.00 94.65 LIG-0.27  OA
ENDBRANCH 38 39
ENDBRANCH 37 38
ENDBRANCH 35 37
ENDBRANCH 33 35
ENDBRANCH 30 31
ENDBRANCH 27 30
ENDBRANCH 1 26
TORSDOF 17
ENDMDL
MODEL 23
USER: ADFR SOLUTION from run 164
USER: SCORE 8.773889 LL:  -1.942 LR:  -8.902 RR:   0.000 FEB:  -3.831
USER: RMSD 2.746129
USER: SEED 163
USER: STATUS no improvement in best in 9 clusters for 5 generations
USER: GENES 19
USER: genes 0 Translation |==|  0.38196 0.43059 0.47130
USER: genes 1 Rotation |==|  0.44230 0.50006 0.50568 0.99663
USER: genes 2 Torsion [C]-CA--CB-[CG] |==|  0.47962
USER: genes 3 Torsion [CA]-CB--CG-[CD2] |==|  0.64172
USER: genes 4 Torsion [N]-CA--C-[N] |==|  0.73039
USER: genes 5 Torsion [C]-N--CA-[C] |==|  0.23976
USER: genes 6 Torsion [N]-CA--C-[N] |==|  0.40678
USER: genes 7 Torsion [C]-N--CA-[CB] |==|  0.39025
USER: genes 8 Torsion [N]-CA--CB-[CG] |==|  0.41719
USER: genes 9 Torsion [CA]-CB--CG-[CD] |==|  0.65320
USER: genes 10 Torsion [CB]-CG--CD-[OE2] |==|  0.91953
USER: genes 11 Torsion [N]-CA--C-[OXT] |==|  0.85872
USER: genes 12 Torsion [CB]-CA--N-[C] |==|  0.41969
USER: genes 13 Torsion [N]-C--CA-[N] |==|  0.43734
USER: genes 14 Torsion [C]-CA--N-[C] |==|  0.25590
USER: genes 15 Torsion [N]-C--CA-[N] |==|  0.44136
USER: genes 16 Torsion [C]-CA--CB-[CG] |==|  0.38115
USER: genes 17 Torsion [CA]-CB--CG-[CD] |==|  0.18631
USER: genes 18 Torsion [CB]-CG--CD-[NE2] |==|  0.50094
ROOT
ATOM      1  CA  HIS G 812     -28.346  32.472  21.023  1.00 98.11 LIG 0.18  C 
ENDROOT
BRANCH 1 2
ATOM      2  CB  HIS G 812     -28.004  30.979  21.136  1.00 96.29 LIG 0.10  C 
BRANCH 2 3
ATOM      3  CG  HIS G 812     -28.005  30.218  19.839  1.00 94.00 LIG 0.06  A 
ATOM      4  CD2 HIS G 812     -28.611  29.069  19.484  1.00 93.71 LIG 0.14  A 
ATOM      5 NE2  HIS G 812     -28.120  28.708  18.247  1.00 93.19 LIG-0.25  NA
ATOM      6  CE1 HIS G 812     -27.249  29.625  17.860  1.00 92.78 LIG 0.23  A 
ATOM      7 ND1  HIS G 812     -27.163  30.548  18.795  1.00 93.58 LIG-0.24  NA
ENDBRANCH 2 3
ENDBRANCH 1 2
BRANCH 1 8
ATOM      8  C   HIS G 812     -28.469  32.993  22.451  1.00 99.25 LIG 0.24  C 
ATOM      9  N   GLY G 813     -27.918  32.270  23.418  1.00100.26 LIG-0.35  N 
ATOM     10 H    GLY G 813     -27.505  31.526  23.303  1.00100.26 LIG 0.16  HD
ATOM     11 O    HIS G 812     -29.040  34.064  22.667  1.00 99.52 LIG-0.27  OA
BRANCH 9 12
ATOM     12  CA  GLY G 813     -27.994  32.731  24.794  1.00101.48 LIG 0.23  C 
BRANCH 12 13
ATOM     13  C   GLY G 813     -29.270  32.302  25.497  1.00102.44 LIG 0.24  C 
ATOM     14 O    GLY G 813     -30.318  32.201  24.861  1.00102.98 LIG-0.27  OA
ATOM     15  N   GLU G 814     -29.192  32.039  26.801  1.00102.70 LIG-0.34  N 
ATOM     16 H    GLU G 814     -28.467  32.088  27.261  1.00102.70 LIG 0.16  HD
BRANCH 15 17
ATOM     17  CA  GLU G 814     -30.374  31.636  27.566  1.00102.89 LIG 0.19  C 
BRANCH 17 18
ATOM     18  CB  GLU G 814     -30.022  30.540  28.580  1.00101.97 LIG 0.05  C 
BRANCH 18 19
ATOM     19  CG  GLU G 814     -30.871  30.535  29.837  1.00100.63 LIG 0.12  C 
BRANCH 19 20
ATOM     20  CD  GLU G 814     -30.038  30.615  31.108  1.00100.36 LIG 0.17  C 
ATOM     21 OE1  GLU G 814     -30.544  31.148  32.120  1.00 99.71 LIG-0.65  OA
ATOM     22 OE2  GLU G 814     -28.882  30.141  31.100  1.00 99.42 LIG-0.65  OA
ENDBRANCH 19 20
ENDBRANCH 18 19
ENDBRANCH 17 18
BRANCH 17 23
ATOM     23  C   GLU G 814     -30.970  32.833  28.313  1.00103.78 LIG 0.20  C 
ATOM     24 OXT  GLU G 814     -30.215  33.538  29.020  1.00104.07 LIG-0.65  OA
ATOM     25 O    GLU G 814     -32.194  33.056  28.179  1.00104.32 LIG-0.65  OA
ENDBRANCH 17 23
ENDBRANCH 15 17
ENDBRANCH 12 13
ENDBRANCH 9 12
ENDBRANCH 1 8
BRANCH 1 26
ATOM     26  N   HIS G 812     -27.189  33.232  20.532  1.00 98.48 LIG-0.35  N 
ATOM     27  C   GLY G 811     -27.245  34.361  19.823  1.00 98.46 LIG 0.24  C 
ATOM     28 O    GLY G 811     -28.294  34.898  19.449  1.00 98.78 LIG-0.27  OA
ATOM     29 H    HIS G 812     -26.441  32.869  20.752  1.00 98.48 LIG 0.16  HD
BRANCH 27 30
ATOM     30  CA  GLY G 811     -25.890  34.963  19.484  1.00 98.06 LIG 0.23  C 
BRANCH 30 31
ATOM     31  N   GLY G 811     -25.841  35.855  18.340  1.00 97.66 LIG-0.35  N 
ATOM     32 H    GLY G 811     -25.704  35.469  17.584  1.00 97.66 LIG 0.16  HD
ATOM     33  C   GLN G 810     -26.001  37.168  18.500  1.00 97.43 LIG 0.26  C 
ATOM     34 O    GLN G 810     -26.174  37.691  19.601  1.00 97.76 LIG-0.27  OA
BRANCH 33 35
ATOM     35  CA  GLN G 810     -25.942  38.023  17.234  1.00 96.79 LIG 0.40  C 
ATOM     36  N   GLN G 810     -26.620  39.334  17.457  1.00 96.61 LIG 0.61  N 
BRANCH 35 37
ATOM     37  CB  GLN G 810     -24.480  38.241  16.853  1.00 96.38 LIG 0.06  C 
BRANCH 37 38
ATOM     38  CG  GLN G 810     -24.163  38.109  15.371  1.00 95.56 LIG 0.10  C 
BRANCH 38 39
ATOM     39  CD  GLN G 810     -24.798  39.211  14.554  1.00 95.11 LIG 0.21  C 
ATOM     40  NE2 GLN G 810     -24.579  39.172  13.244  1.00 94.31 LIG-0.37  N 
ATOM     41 21HE GLN G 810     -24.097  38.544  12.907  1.00 94.31 LIG 0.16  HD
ATOM     42 22HE GLN G 810     -24.919  39.774  12.733  1.00 94.31 LIG 0.16  HD
ATOM     43 OE1  GLN G 810     -25.480  40.087  15.088  1.00 94.65 LIG-0.27  OA
ENDBRANCH 38 39
ENDBRANCH 37 38
ENDBRANCH 35 37
ENDBRANCH 33 35
ENDBRANCH 30 31
ENDBRANCH 27 30
ENDBRANCH 1 26
TORSDOF 17
ENDMDL
MODEL 24
USER: ADFR SOLUTION from run 60
USER: SCORE 9.185926 LL:  -2.013 LR:  -8.903 RR:   0.000 FEB:  -3.832
USER: RMSD 4.770759
USER: SEED 59
USER: STATUS no improvement in best in 14 clusters for 5 generations
USER: GENES 19
USER: genes 0 Translation |==|  0.40764 0.38835 0.45346
USER: genes 1 Rotation |==|  0.44766 0.42181 0.42495 0.98530
USER: genes 2 Torsion [C]-CA--CB-[CG] |==|  0.39293
USER: genes 3 Torsion [CA]-CB--CG-[CD2] |==|  0.71840
USER: genes 4 Torsion [N]-CA--C-[N] |==|  0.37810
USER: genes 5 Torsion [C]-N--CA-[C] |==|  0.83583
USER: genes 6 Torsion [N]-CA--C-[N] |==|  0.32222
USER: genes 7 Torsion [C]-N--CA-[CB] |==|  0.42065
USER: genes 8 Torsion [N]-CA--CB-[CG] |==|  0.87280
USER: genes 9 Torsion [CA]-CB--CG-[CD] |==|  0.25917
USER: genes 10 Torsion [CB]-CG--CD-[OE2] |==|  0.47484
USER: genes 11 Torsion [N]-CA--C-[OXT] |==|  0.96903
USER: genes 12 Torsion [CB]-CA--N-[C] |==|  0.20893
USER: genes 13 Torsion [N]-C--CA-[N] |==|  0.40054
USER: genes 14 Torsion [C]-CA--N-[C] |==|  0.59401
USER: genes 15 Torsion [N]-C--CA-[N] |==|  0.11842
USER: genes 16 Torsion [C]-CA--CB-[CG] |==|  0.49271
USER: genes 17 Torsion [CA]-CB--CG-[CD] |==|  0.25440
USER: genes 18 Torsion [CB]-CG--CD-[NE2] |==|  0.99103
ROOT
ATOM      1  CA  HIS G 812     -27.845  31.680  20.581  1.00 98.11 LIG 0.18  C 
ENDROOT
BRANCH 1 2
ATOM      2  CB  HIS G 812     -27.984  30.155  20.700  1.00 96.29 LIG 0.10  C 
BRANCH 2 3
ATOM      3  CG  HIS G 812     -28.476  29.455  19.464  1.00 94.00 LIG 0.06  A 
ATOM      4  CD2 HIS G 812     -29.693  28.976  19.140  1.00 93.71 LIG 0.14  A 
ATOM      5 NE2  HIS G 812     -29.553  28.248  17.976  1.00 93.19 LIG-0.25  NA
ATOM      6  CE1 HIS G 812     -28.286  28.299  17.602  1.00 92.78 LIG 0.23  A 
ATOM      7 ND1  HIS G 812     -27.616  29.022  18.475  1.00 93.58 LIG-0.24  NA
ENDBRANCH 2 3
ENDBRANCH 1 2
BRANCH 1 8
ATOM      8  C   HIS G 812     -28.301  32.258  21.917  1.00 99.25 LIG 0.24  C 
ATOM      9  N   GLY G 813     -29.465  32.895  21.946  1.00100.26 LIG-0.35  N 
ATOM     10 H    GLY G 813     -29.978  33.014  21.267  1.00100.26 LIG 0.16  HD
ATOM     11 O    HIS G 812     -27.606  32.101  22.923  1.00 99.52 LIG-0.27  OA
BRANCH 9 12
ATOM     12  CA  GLY G 813     -29.951  33.451  23.197  1.00101.48 LIG 0.23  C 
BRANCH 12 13
ATOM     13  C   GLY G 813     -30.122  32.407  24.287  1.00102.44 LIG 0.24  C 
ATOM     14 O    GLY G 813     -30.941  31.500  24.145  1.00102.98 LIG-0.27  OA
ATOM     15  N   GLU G 814     -29.353  32.520  25.368  1.00102.70 LIG-0.34  N 
ATOM     16 H    GLU G 814     -28.764  33.137  25.481  1.00102.70 LIG 0.16  HD
BRANCH 15 17
ATOM     17  CA  GLU G 814     -29.461  31.570  26.478  1.00102.89 LIG 0.19  C 
BRANCH 17 18
ATOM     18  CB  GLU G 814     -28.122  31.436  27.216  1.00101.97 LIG 0.05  C 
BRANCH 18 19
ATOM     19  CG  GLU G 814     -26.910  31.279  26.318  1.00100.63 LIG 0.12  C 
BRANCH 19 20
ATOM     20  CD  GLU G 814     -26.237  32.607  26.004  1.00100.36 LIG 0.17  C 
ATOM     21 OE1  GLU G 814     -26.810  33.663  26.350  1.00 99.71 LIG-0.65  OA
ATOM     22 OE2  GLU G 814     -25.134  32.597  25.418  1.00 99.42 LIG-0.65  OA
ENDBRANCH 19 20
ENDBRANCH 18 19
ENDBRANCH 17 18
BRANCH 17 23
ATOM     23  C   GLU G 814     -30.534  32.019  27.474  1.00103.78 LIG 0.20  C 
ATOM     24 OXT  GLU G 814     -31.011  33.173  27.366  1.00104.07 LIG-0.65  OA
ATOM     25 O    GLU G 814     -30.894  31.206  28.354  1.00104.32 LIG-0.65  OA
ENDBRANCH 17 23
ENDBRANCH 15 17
ENDBRANCH 12 13
ENDBRANCH 9 12
ENDBRANCH 1 8
BRANCH 1 26
ATOM     26  N   HIS G 812     -26.429  32.070  20.561  1.00 98.48 LIG-0.35  N 
ATOM     27  C   GLY G 811     -25.598  31.928  19.527  1.00 98.46 LIG 0.24  C 
ATOM     28 O    GLY G 811     -25.908  31.405  18.450  1.00 98.78 LIG-0.27  OA
ATOM     29 H    HIS G 812     -26.172  32.413  21.307  1.00 98.48 LIG 0.16  HD
BRANCH 27 30
ATOM     30  CA  GLY G 811     -24.193  32.460  19.766  1.00 98.06 LIG 0.23  C 
BRANCH 30 31
ATOM     31  N   GLY G 811     -23.103  31.717  19.159  1.00 97.66 LIG-0.35  N 
ATOM     32 H    GLY G 811     -23.287  31.357  18.401  1.00 97.66 LIG 0.16  HD
ATOM     33  C   GLN G 810     -21.923  31.630  19.771  1.00 97.43 LIG 0.26  C 
ATOM     34 O    GLN G 810     -21.700  32.142  20.869  1.00 97.76 LIG-0.27  OA
BRANCH 33 35
ATOM     35  CA  GLN G 810     -20.836  30.835  19.050  1.00 96.79 LIG 0.40  C 
ATOM     36  N   GLN G 810     -20.830  31.160  17.593  1.00 96.61 LIG 0.61  N 
BRANCH 35 37
ATOM     37  CB  GLN G 810     -19.483  31.171  19.673  1.00 96.38 LIG 0.06  C 
BRANCH 37 38
ATOM     38  CG  GLN G 810     -18.293  30.412  19.106  1.00 95.56 LIG 0.10  C 
BRANCH 38 39
ATOM     39  CD  GLN G 810     -17.636  31.156  17.965  1.00 95.11 LIG 0.21  C 
ATOM     40  NE2 GLN G 810     -18.217  32.291  17.592  1.00 94.31 LIG-0.37  N 
ATOM     41 21HE GLN G 810     -18.927  32.563  17.995  1.00 94.31 LIG 0.16  HD
ATOM     42 22HE GLN G 810     -17.884  32.754  16.949  1.00 94.31 LIG 0.16  HD
ATOM     43 OE1  GLN G 810     -16.619  30.720  17.423  1.00 94.65 LIG-0.27  OA
ENDBRANCH 38 39
ENDBRANCH 37 38
ENDBRANCH 35 37
ENDBRANCH 33 35
ENDBRANCH 30 31
ENDBRANCH 27 30
ENDBRANCH 1 26
TORSDOF 17
ENDMDL
MODEL 25
USER: ADFR SOLUTION from run 44
USER: SCORE 8.798275 LL:  -1.990 LR:  -8.835 RR:   0.000 FEB:  -3.764
USER: RMSD 3.426739
USER: SEED 43
USER: STATUS no improvement in best in 29 clusters for 5 generations
USER: GENES 19
USER: genes 0 Translation |==|  0.44547 0.41840 0.39835
USER: genes 1 Rotation |==|  0.57249 0.66471 0.62327 0.94991
USER: genes 2 Torsion [C]-CA--CB-[CG] |==|  0.30738
USER: genes 3 Torsion [CA]-CB--CG-[CD2] |==|  0.90682
USER: genes 4 Torsion [N]-CA--C-[N] |==|  0.43204
USER: genes 5 Torsion [C]-N--CA-[C] |==|  0.24176
USER: genes 6 Torsion [N]-CA--C-[N] |==|  0.27443
USER: genes 7 Torsion [C]-N--CA-[CB] |==|  0.38222
USER: genes 8 Torsion [N]-CA--CB-[CG] |==|  0.35022
USER: genes 9 Torsion [CA]-CB--CG-[CD] |==|  0.46222
USER: genes 10 Torsion [CB]-CG--CD-[OE2] |==|  0.85766
USER: genes 11 Torsion [N]-CA--C-[OXT] |==|  0.92928
USER: genes 12 Torsion [CB]-CA--N-[C] |==|  0.45563
USER: genes 13 Torsion [N]-C--CA-[N] |==|  0.90626
USER: genes 14 Torsion [C]-CA--N-[C] |==|  0.69187
USER: genes 15 Torsion [N]-C--CA-[N] |==|  0.88368
USER: genes 16 Torsion [C]-CA--CB-[CG] |==|  0.68457
USER: genes 17 Torsion [CA]-CB--CG-[CD] |==|  0.68038
USER: genes 18 Torsion [CB]-CG--CD-[NE2] |==|  0.86478
ROOT
ATOM      1  CA  HIS G 812     -27.107  32.243  19.217  1.00 98.11 LIG 0.18  C 
ENDROOT
BRANCH 1 2
ATOM      2  CB  HIS G 812     -26.541  31.189  18.255  1.00 96.29 LIG 0.10  C 
BRANCH 2 3
ATOM      3  CG  HIS G 812     -27.418  29.990  18.024  1.00 94.00 LIG 0.06  A 
ATOM      4  CD2 HIS G 812     -28.270  29.343  18.843  1.00 93.71 LIG 0.14  A 
ATOM      5 NE2  HIS G 812     -28.667  28.190  18.197  1.00 93.19 LIG-0.25  NA
ATOM      6  CE1 HIS G 812     -28.078  28.150  17.014  1.00 92.78 LIG 0.23  A 
ATOM      7 ND1  HIS G 812     -27.326  29.223  16.880  1.00 93.58 LIG-0.24  NA
ENDBRANCH 2 3
ENDBRANCH 1 2
BRANCH 1 8
ATOM      8  C   HIS G 812     -26.244  32.185  20.473  1.00 99.25 LIG 0.24  C 
ATOM      9  N   GLY G 813     -26.604  31.336  21.428  1.00100.26 LIG-0.35  N 
ATOM     10 H    GLY G 813     -27.292  30.822  21.396  1.00100.26 LIG 0.16  HD
ATOM     11 O    HIS G 812     -25.239  32.893  20.561  1.00 99.52 LIG-0.27  OA
BRANCH 9 12
ATOM     12  CA  GLY G 813     -25.806  31.232  22.637  1.00101.48 LIG 0.23  C 
BRANCH 12 13
ATOM     13  C   GLY G 813     -26.207  32.236  23.704  1.00102.44 LIG 0.24  C 
ATOM     14 O    GLY G 813     -25.803  33.396  23.638  1.00102.98 LIG-0.27  OA
ATOM     15  N   GLU G 814     -27.004  31.807  24.681  1.00102.70 LIG-0.34  N 
ATOM     16 H    GLU G 814     -27.311  31.005  24.737  1.00102.70 LIG 0.16  HD
BRANCH 15 17
ATOM     17  CA  GLU G 814     -27.428  32.700  25.762  1.00102.89 LIG 0.19  C 
BRANCH 17 18
ATOM     18  CB  GLU G 814     -28.916  32.503  26.083  1.00101.97 LIG 0.05  C 
BRANCH 18 19
ATOM     19  CG  GLU G 814     -29.222  32.209  27.539  1.00100.63 LIG 0.12  C 
BRANCH 19 20
ATOM     20  CD  GLU G 814     -30.702  32.349  27.866  1.00100.36 LIG 0.17  C 
ATOM     21 OE1  GLU G 814     -31.272  31.409  28.462  1.00 99.71 LIG-0.65  OA
ATOM     22 OE2  GLU G 814     -31.294  33.398  27.535  1.00 99.42 LIG-0.65  OA
ENDBRANCH 19 20
ENDBRANCH 18 19
ENDBRANCH 17 18
BRANCH 17 23
ATOM     23  C   GLU G 814     -26.608  32.443  27.030  1.00103.78 LIG 0.20  C 
ATOM     24 OXT  GLU G 814     -26.095  31.312  27.197  1.00104.07 LIG-0.65  OA
ATOM     25 O    GLU G 814     -26.481  33.383  27.846  1.00104.32 LIG-0.65  OA
ENDBRANCH 17 23
ENDBRANCH 15 17
ENDBRANCH 12 13
ENDBRANCH 9 12
ENDBRANCH 1 8
BRANCH 1 26
ATOM     26  N   HIS G 812     -26.821  33.598  18.727  1.00 98.48 LIG-0.35  N 
ATOM     27  C   GLY G 811     -27.414  34.717  19.146  1.00 98.46 LIG 0.24  C 
ATOM     28 O    GLY G 811     -28.324  34.753  19.984  1.00 98.78 LIG-0.27  OA
ATOM     29 H    HIS G 812     -26.211  33.606  18.121  1.00 98.48 LIG 0.16  HD
BRANCH 27 30
ATOM     30  CA  GLY G 811     -26.892  35.991  18.499  1.00 98.06 LIG 0.23  C 
BRANCH 30 31
ATOM     31  N   GLY G 811     -25.479  36.019  18.163  1.00 97.66 LIG-0.35  N 
ATOM     32 H    GLY G 811     -25.248  35.496  17.522  1.00 97.66 LIG 0.16  HD
ATOM     33  C   GLN G 810     -24.643  36.813  18.829  1.00 97.43 LIG 0.26  C 
ATOM     34 O    GLN G 810     -25.004  37.536  19.758  1.00 97.76 LIG-0.27  OA
BRANCH 33 35
ATOM     35  CA  GLN G 810     -23.177  36.780  18.396  1.00 96.79 LIG 0.40  C 
ATOM     36  N   GLN G 810     -22.742  35.378  18.129  1.00 96.61 LIG 0.61  N 
BRANCH 35 37
ATOM     37  CB  GLN G 810     -23.015  37.633  17.140  1.00 96.38 LIG 0.06  C 
BRANCH 37 38
ATOM     38  CG  GLN G 810     -22.644  36.873  15.876  1.00 95.56 LIG 0.10  C 
BRANCH 38 39
ATOM     39  CD  GLN G 810     -21.273  37.257  15.364  1.00 95.11 LIG 0.21  C 
ATOM     40  NE2 GLN G 810     -21.026  38.559  15.267  1.00 94.31 LIG-0.37  N 
ATOM     41 21HE GLN G 810     -21.631  39.129  15.488  1.00 94.31 LIG 0.16  HD
ATOM     42 22HE GLN G 810     -20.261  38.832  14.983  1.00 94.31 LIG 0.16  HD
ATOM     43 OE1  GLN G 810     -20.443  36.398  15.062  1.00 94.65 LIG-0.27  OA
ENDBRANCH 38 39
ENDBRANCH 37 38
ENDBRANCH 35 37
ENDBRANCH 33 35
ENDBRANCH 30 31
ENDBRANCH 27 30
ENDBRANCH 1 26
TORSDOF 17
ENDMDL
MODEL 26
USER: ADFR SOLUTION from run 146
USER: SCORE 9.637548 LL:  -1.726 LR:  -8.810 RR:   0.000 FEB:  -3.739
USER: RMSD 4.148610
USER: SEED 145
USER: STATUS no improvement in best in 11 clusters for 5 generations
USER: GENES 19
USER: genes 0 Translation |==|  0.45779 0.42453 0.48233
USER: genes 1 Rotation |==|  0.45419 0.48710 0.44963 0.99518
USER: genes 2 Torsion [C]-CA--CB-[CG] |==|  0.36090
USER: genes 3 Torsion [CA]-CB--CG-[CD2] |==|  0.73870
USER: genes 4 Torsion [N]-CA--C-[N] |==|  0.66931
USER: genes 5 Torsion [C]-N--CA-[C] |==|  0.28514
USER: genes 6 Torsion [N]-CA--C-[N] |==|  0.44502
USER: genes 7 Torsion [C]-N--CA-[CB] |==|  0.44683
USER: genes 8 Torsion [N]-CA--CB-[CG] |==|  0.70525
USER: genes 9 Torsion [CA]-CB--CG-[CD] |==|  0.48607
USER: genes 10 Torsion [CB]-CG--CD-[OE2] |==|  0.54681
USER: genes 11 Torsion [N]-CA--C-[OXT] |==|  0.94731
USER: genes 12 Torsion [CB]-CA--N-[C] |==|  0.15392
USER: genes 13 Torsion [N]-C--CA-[N] |==|  0.40865
USER: genes 14 Torsion [C]-CA--N-[C] |==|  0.81636
USER: genes 15 Torsion [N]-C--CA-[N] |==|  0.94784
USER: genes 16 Torsion [C]-CA--CB-[CG] |==|  0.49152
USER: genes 17 Torsion [CA]-CB--CG-[CD] |==|  0.25292
USER: genes 18 Torsion [CB]-CG--CD-[NE2] |==|  0.00860
ROOT
ATOM      1  CA  HIS G 812     -26.867  32.358  21.296  1.00 98.11 LIG 0.18  C 
ENDROOT
BRANCH 1 2
ATOM      2  CB  HIS G 812     -26.862  30.823  21.350  1.00 96.29 LIG 0.10  C 
BRANCH 2 3
ATOM      3  CG  HIS G 812     -27.824  30.143  20.417  1.00 94.00 LIG 0.06  A 
ATOM      4  CD2 HIS G 812     -29.082  29.700  20.608  1.00 93.71 LIG 0.14  A 
ATOM      5 NE2  HIS G 812     -29.437  28.972  19.491  1.00 93.19 LIG-0.25  NA
ATOM      6  CE1 HIS G 812     -28.423  28.988  18.642  1.00 92.78 LIG 0.23  A 
ATOM      7 ND1  HIS G 812     -27.441  29.689  19.171  1.00 93.58 LIG-0.24  NA
ENDBRANCH 2 3
ENDBRANCH 1 2
BRANCH 1 8
ATOM      8  C   HIS G 812     -26.991  32.838  22.738  1.00 99.25 LIG 0.24  C 
ATOM      9  N   GLY G 813     -27.133  31.917  23.683  1.00100.26 LIG-0.35  N 
ATOM     10 H    GLY G 813     -27.169  31.070  23.543  1.00100.26 LIG 0.16  HD
ATOM     11 O    HIS G 812     -26.932  34.043  22.992  1.00 99.52 LIG-0.27  OA
BRANCH 9 12
ATOM     12  CA  GLY G 813     -27.241  32.322  25.074  1.00101.48 LIG 0.23  C 
BRANCH 12 13
ATOM     13  C   GLY G 813     -28.664  32.272  25.601  1.00102.44 LIG 0.24  C 
ATOM     14 O    GLY G 813     -29.610  32.269  24.815  1.00102.98 LIG-0.27  OA
ATOM     15  N   GLU G 814     -28.826  32.225  26.922  1.00102.70 LIG-0.34  N 
ATOM     16 H    GLU G 814     -28.179  32.211  27.488  1.00102.70 LIG 0.16  HD
BRANCH 15 17
ATOM     17  CA  GLU G 814     -30.162  32.194  27.522  1.00102.89 LIG 0.19  C 
BRANCH 17 18
ATOM     18  CB  GLU G 814     -30.102  31.674  28.964  1.00101.97 LIG 0.05  C 
BRANCH 18 19
ATOM     19  CG  GLU G 814     -30.623  30.263  29.158  1.00100.63 LIG 0.12  C 
BRANCH 19 20
ATOM     20  CD  GLU G 814     -30.428  29.756  30.579  1.00100.36 LIG 0.17  C 
ATOM     21 OE1  GLU G 814     -30.196  30.589  31.483  1.00 99.71 LIG-0.65  OA
ATOM     22 OE2  GLU G 814     -30.513  28.528  30.796  1.00 99.42 LIG-0.65  OA
ENDBRANCH 19 20
ENDBRANCH 18 19
ENDBRANCH 17 18
BRANCH 17 23
ATOM     23  C   GLU G 814     -30.790  33.591  27.522  1.00103.78 LIG 0.20  C 
ATOM     24 OXT  GLU G 814     -30.042  34.587  27.389  1.00104.07 LIG-0.65  OA
ATOM     25 O    GLU G 814     -32.031  33.675  27.651  1.00104.32 LIG-0.65  OA
ENDBRANCH 17 23
ENDBRANCH 15 17
ENDBRANCH 12 13
ENDBRANCH 9 12
ENDBRANCH 1 8
BRANCH 1 26
ATOM     26  N   HIS G 812     -25.539  32.867  20.931  1.00 98.48 LIG-0.35  N 
ATOM     27  C   GLY G 811     -24.848  32.528  19.841  1.00 98.46 LIG 0.24  C 
ATOM     28 O    GLY G 811     -25.227  31.698  19.006  1.00 98.78 LIG-0.27  OA
ATOM     29 H    HIS G 812     -25.232  33.427  21.507  1.00 98.48 LIG 0.16  HD
BRANCH 27 30
ATOM     30  CA  GLY G 811     -23.515  33.244  19.688  1.00 98.06 LIG 0.23  C 
BRANCH 30 31
ATOM     31  N   GLY G 811     -22.443  32.496  19.054  1.00 97.66 LIG-0.35  N 
ATOM     32 H    GLY G 811     -22.187  32.803  18.293  1.00 97.66 LIG 0.16  HD
ATOM     33  C   GLN G 810     -21.927  31.422  19.648  1.00 97.43 LIG 0.26  C 
ATOM     34 O    GLN G 810     -22.331  30.997  20.731  1.00 97.76 LIG-0.27  OA
BRANCH 33 35
ATOM     35  CA  GLN G 810     -20.796  30.708  18.907  1.00 96.79 LIG 0.40  C 
ATOM     36  N   GLN G 810     -20.794  31.089  17.464  1.00 96.61 LIG 0.61  N 
BRANCH 35 37
ATOM     37  CB  GLN G 810     -19.466  31.086  19.556  1.00 96.38 LIG 0.06  C 
BRANCH 37 38
ATOM     38  CG  GLN G 810     -18.237  30.399  18.980  1.00 95.56 LIG 0.10  C 
BRANCH 38 39
ATOM     39  CD  GLN G 810     -17.611  31.201  17.861  1.00 95.11 LIG 0.21  C 
ATOM     40  NE2 GLN G 810     -18.169  32.378  17.599  1.00 94.31 LIG-0.37  N 
ATOM     41 21HE GLN G 810     -18.848  32.643  18.055  1.00 94.31 LIG 0.16  HD
ATOM     42 22HE GLN G 810     -17.851  32.875  16.973  1.00 94.31 LIG 0.16  HD
ATOM     43 OE1  GLN G 810     -16.638  30.773  17.238  1.00 94.65 LIG-0.27  OA
ENDBRANCH 38 39
ENDBRANCH 37 38
ENDBRANCH 35 37
ENDBRANCH 33 35
ENDBRANCH 30 31
ENDBRANCH 27 30
ENDBRANCH 1 26
TORSDOF 17
ENDMDL
MODEL 27
USER: ADFR SOLUTION from run 170
USER: SCORE 9.616353 LL:  -2.005 LR:  -8.796 RR:   0.000 FEB:  -3.725
USER: RMSD 3.175706
USER: SEED 169
USER: STATUS no improvement in best in 11 clusters for 5 generations
USER: GENES 19
USER: genes 0 Translation |==|  0.40363 0.38910 0.46381
USER: genes 1 Rotation |==|  0.48288 0.54719 0.47220 0.99670
USER: genes 2 Torsion [C]-CA--CB-[CG] |==|  0.50674
USER: genes 3 Torsion [CA]-CB--CG-[CD2] |==|  0.65328
USER: genes 4 Torsion [N]-CA--C-[N] |==|  0.31464
USER: genes 5 Torsion [C]-N--CA-[C] |==|  0.70235
USER: genes 6 Torsion [N]-CA--C-[N] |==|  0.45235
USER: genes 7 Torsion [C]-N--CA-[CB] |==|  0.35529
USER: genes 8 Torsion [N]-CA--CB-[CG] |==|  0.46148
USER: genes 9 Torsion [CA]-CB--CG-[CD] |==|  0.65066
USER: genes 10 Torsion [CB]-CG--CD-[OE2] |==|  0.85385
USER: genes 11 Torsion [N]-CA--C-[OXT] |==|  0.36129
USER: genes 12 Torsion [CB]-CA--N-[C] |==|  0.55472
USER: genes 13 Torsion [N]-C--CA-[N] |==|  0.35310
USER: genes 14 Torsion [C]-CA--N-[C] |==|  0.23333
USER: genes 15 Torsion [N]-C--CA-[N] |==|  0.80792
USER: genes 16 Torsion [C]-CA--CB-[CG] |==|  0.13120
USER: genes 17 Torsion [CA]-CB--CG-[CD] |==|  0.68977
USER: genes 18 Torsion [CB]-CG--CD-[NE2] |==|  0.90582
ROOT
ATOM      1  CA  HIS G 812     -27.923  31.694  20.837  1.00 98.11 LIG 0.18  C 
ENDROOT
BRANCH 1 2
ATOM      2  CB  HIS G 812     -27.822  30.171  20.669  1.00 96.29 LIG 0.10  C 
BRANCH 2 3
ATOM      3  CG  HIS G 812     -27.930  29.671  19.255  1.00 94.00 LIG 0.06  A 
ATOM      4  CD2 HIS G 812     -28.757  28.767  18.694  1.00 93.71 LIG 0.14  A 
ATOM      5 NE2  HIS G 812     -28.301  28.530  17.414  1.00 93.19 LIG-0.25  NA
ATOM      6  CE1 HIS G 812     -27.234  29.282  17.205  1.00 92.78 LIG 0.23  A 
ATOM      7 ND1  HIS G 812     -26.991  29.982  18.293  1.00 93.58 LIG-0.24  NA
ENDBRANCH 2 3
ENDBRANCH 1 2
BRANCH 1 8
ATOM      8  C   HIS G 812     -27.728  31.975  22.324  1.00 99.25 LIG 0.24  C 
ATOM      9  N   GLY G 813     -28.606  32.772  22.919  1.00100.26 LIG-0.35  N 
ATOM     10 H    GLY G 813     -29.273  33.149  22.528  1.00100.26 LIG 0.16  HD
ATOM     11 O    HIS G 812     -26.794  31.447  22.931  1.00 99.52 LIG-0.27  OA
BRANCH 9 12
ATOM     12  CA  GLY G 813     -28.473  33.060  24.336  1.00101.48 LIG 0.23  C 
BRANCH 12 13
ATOM     13  C   GLY G 813     -29.518  32.360  25.188  1.00102.44 LIG 0.24  C 
ATOM     14 O    GLY G 813     -30.529  31.897  24.662  1.00102.98 LIG-0.27  OA
ATOM     15  N   GLU G 814     -29.281  32.269  26.496  1.00102.70 LIG-0.34  N 
ATOM     16 H    GLU G 814     -28.574  32.572  26.881  1.00102.70 LIG 0.16  HD
BRANCH 15 17
ATOM     17  CA  GLU G 814     -30.240  31.627  27.397  1.00102.89 LIG 0.19  C 
BRANCH 17 18
ATOM     18  CB  GLU G 814     -29.553  30.556  28.255  1.00101.97 LIG 0.05  C 
BRANCH 18 19
ATOM     19  CG  GLU G 814     -30.366  30.066  29.438  1.00100.63 LIG 0.12  C 
BRANCH 19 20
ATOM     20  CD  GLU G 814     -29.614  30.184  30.755  1.00100.36 LIG 0.17  C 
ATOM     21 OE1  GLU G 814     -30.169  30.773  31.709  1.00 99.71 LIG-0.65  OA
ATOM     22 OE2  GLU G 814     -28.472  29.684  30.843  1.00 99.42 LIG-0.65  OA
ENDBRANCH 19 20
ENDBRANCH 18 19
ENDBRANCH 17 18
BRANCH 17 23
ATOM     23  C   GLU G 814     -30.892  32.661  28.321  1.00103.78 LIG 0.20  C 
ATOM     24 OXT  GLU G 814     -32.141  32.675  28.423  1.00104.07 LIG-0.65  OA
ATOM     25 O    GLU G 814     -30.142  33.448  28.941  1.00104.32 LIG-0.65  OA
ENDBRANCH 17 23
ENDBRANCH 15 17
ENDBRANCH 12 13
ENDBRANCH 9 12
ENDBRANCH 1 8
BRANCH 1 26
ATOM     26  N   HIS G 812     -26.749  32.358  20.257  1.00 98.48 LIG-0.35  N 
ATOM     27  C   GLY G 811     -26.334  33.594  20.542  1.00 98.46 LIG 0.24  C 
ATOM     28 O    GLY G 811     -26.918  34.364  21.313  1.00 98.78 LIG-0.27  OA
ATOM     29 H    HIS G 812     -26.334  31.858  19.692  1.00 98.48 LIG 0.16  HD
BRANCH 27 30
ATOM     30  CA  GLY G 811     -25.060  34.014  19.827  1.00 98.06 LIG 0.23  C 
BRANCH 30 31
ATOM     31  N   GLY G 811     -25.108  35.264  19.088  1.00 97.66 LIG-0.35  N 
ATOM     32 H    GLY G 811     -25.271  35.182  18.248  1.00 97.66 LIG 0.16  HD
ATOM     33  C   GLN G 810     -24.909  36.424  19.710  1.00 97.43 LIG 0.26  C 
ATOM     34 O    GLN G 810     -24.657  36.503  20.913  1.00 97.76 LIG-0.27  OA
BRANCH 33 35
ATOM     35  CA  GLN G 810     -24.990  37.684  18.849  1.00 96.79 LIG 0.40  C 
ATOM     36  N   GLN G 810     -23.835  37.749  17.907  1.00 96.61 LIG 0.61  N 
BRANCH 35 37
ATOM     37  CB  GLN G 810     -26.305  37.669  18.074  1.00 96.38 LIG 0.06  C 
BRANCH 37 38
ATOM     38  CG  GLN G 810     -27.544  37.335  18.892  1.00 95.56 LIG 0.10  C 
BRANCH 38 39
ATOM     39  CD  GLN G 810     -28.130  35.993  18.512  1.00 95.11 LIG 0.21  C 
ATOM     40  NE2 GLN G 810     -28.026  35.648  17.233  1.00 94.31 LIG-0.37  N 
ATOM     41 21HE GLN G 810     -27.643  36.178  16.674  1.00 94.31 LIG 0.16  HD
ATOM     42 22HE GLN G 810     -28.342  34.895  16.964  1.00 94.31 LIG 0.16  HD
ATOM     43 OE1  GLN G 810     -28.669  35.273  19.353  1.00 94.65 LIG-0.27  OA
ENDBRANCH 38 39
ENDBRANCH 37 38
ENDBRANCH 35 37
ENDBRANCH 33 35
ENDBRANCH 30 31
ENDBRANCH 27 30
ENDBRANCH 1 26
TORSDOF 17
ENDMDL
MODEL 28
USER: ADFR SOLUTION from run 51
USER: SCORE 9.052346 LL:  -2.607 LR:  -8.759 RR:   0.000 FEB:  -3.688
USER: RMSD 6.235771
USER: SEED 50
USER: STATUS no improvement in best in 15 clusters for 5 generations
USER: GENES 19
USER: genes 0 Translation |==|  0.39248 0.42526 0.46476
USER: genes 1 Rotation |==|  0.48549 0.44058 0.51362 0.99606
USER: genes 2 Torsion [C]-CA--CB-[CG] |==|  0.45867
USER: genes 3 Torsion [CA]-CB--CG-[CD2] |==|  0.67477
USER: genes 4 Torsion [N]-CA--C-[N] |==|  0.45870
USER: genes 5 Torsion [C]-N--CA-[C] |==|  0.29419
USER: genes 6 Torsion [N]-CA--C-[N] |==|  0.16071
USER: genes 7 Torsion [C]-N--CA-[CB] |==|  0.36538
USER: genes 8 Torsion [N]-CA--CB-[CG] |==|  0.72159
USER: genes 9 Torsion [CA]-CB--CG-[CD] |==|  0.71913
USER: genes 10 Torsion [CB]-CG--CD-[OE2] |==|  0.72399
USER: genes 11 Torsion [N]-CA--C-[OXT] |==|  0.93841
USER: genes 12 Torsion [CB]-CA--N-[C] |==|  0.43525
USER: genes 13 Torsion [N]-C--CA-[N] |==|  0.17921
USER: genes 14 Torsion [C]-CA--N-[C] |==|  0.73605
USER: genes 15 Torsion [N]-C--CA-[N] |==|  0.26720
USER: genes 16 Torsion [C]-CA--CB-[CG] |==|  0.67940
USER: genes 17 Torsion [CA]-CB--CG-[CD] |==|  0.30606
USER: genes 18 Torsion [CB]-CG--CD-[NE2] |==|  0.90687
ROOT
ATOM      1  CA  HIS G 812     -28.141  32.372  20.861  1.00 98.11 LIG 0.18  C 
ENDROOT
BRANCH 1 2
ATOM      2  CB  HIS G 812     -27.716  30.897  20.802  1.00 96.29 LIG 0.10  C 
BRANCH 2 3
ATOM      3  CG  HIS G 812     -27.540  30.332  19.420  1.00 94.00 LIG 0.06  A 
ATOM      4  CD2 HIS G 812     -28.187  29.342  18.776  1.00 93.71 LIG 0.14  A 
ATOM      5 NE2  HIS G 812     -27.499  29.091  17.607  1.00 93.19 LIG-0.25  NA
ATOM      6  CE1 HIS G 812     -26.470  29.919  17.542  1.00 92.78 LIG 0.23  A 
ATOM      7 ND1  HIS G 812     -26.472  30.681  18.617  1.00 93.58 LIG-0.24  NA
ENDBRANCH 2 3
ENDBRANCH 1 2
BRANCH 1 8
ATOM      8  C   HIS G 812     -28.619  32.624  22.287  1.00 99.25 LIG 0.24  C 
ATOM      9  N   GLY G 813     -29.842  32.218  22.606  1.00100.26 LIG-0.35  N 
ATOM     10 H    GLY G 813     -30.388  31.831  22.067  1.00100.26 LIG 0.16  HD
ATOM     11 O    HIS G 812     -27.867  33.163  23.101  1.00 99.52 LIG-0.27  OA
BRANCH 9 12
ATOM     12  CA  GLY G 813     -30.340  32.421  23.955  1.00101.48 LIG 0.23  C 
BRANCH 12 13
ATOM     13  C   GLY G 813     -31.367  33.536  24.051  1.00102.44 LIG 0.24  C 
ATOM     14 O    GLY G 813     -31.165  34.495  24.795  1.00102.98 LIG-0.27  OA
ATOM     15  N   GLU G 814     -32.461  33.426  23.299  1.00102.70 LIG-0.34  N 
ATOM     16 H    GLU G 814     -32.614  32.773  22.761  1.00102.70 LIG 0.16  HD
BRANCH 15 17
ATOM     17  CA  GLU G 814     -33.514  34.443  23.339  1.00102.89 LIG 0.19  C 
BRANCH 17 18
ATOM     18  CB  GLU G 814     -33.918  34.868  21.921  1.00101.97 LIG 0.05  C 
BRANCH 18 19
ATOM     19  CG  GLU G 814     -33.309  36.174  21.447  1.00100.63 LIG 0.12  C 
BRANCH 19 20
ATOM     20  CD  GLU G 814     -34.280  37.342  21.540  1.00100.36 LIG 0.17  C 
ATOM     21 OE1  GLU G 814     -34.436  37.900  22.649  1.00 99.71 LIG-0.65  OA
ATOM     22 OE2  GLU G 814     -34.881  37.708  20.509  1.00 99.42 LIG-0.65  OA
ENDBRANCH 19 20
ENDBRANCH 18 19
ENDBRANCH 17 18
BRANCH 17 23
ATOM     23  C   GLU G 814     -34.751  33.915  24.071  1.00103.78 LIG 0.20  C 
ATOM     24 OXT  GLU G 814     -34.918  32.676  24.155  1.00104.07 LIG-0.65  OA
ATOM     25 O    GLU G 814     -35.543  34.751  24.562  1.00104.32 LIG-0.65  OA
ENDBRANCH 17 23
ENDBRANCH 15 17
ENDBRANCH 12 13
ENDBRANCH 9 12
ENDBRANCH 1 8
BRANCH 1 26
ATOM     26  N   HIS G 812     -26.967  33.251  20.786  1.00 98.48 LIG-0.35  N 
ATOM     27  C   GLY G 811     -26.972  34.522  20.379  1.00 98.46 LIG 0.24  C 
ATOM     28 O    GLY G 811     -27.974  35.118  19.966  1.00 98.78 LIG-0.27  OA
ATOM     29 H    HIS G 812     -26.245  32.858  21.040  1.00 98.48 LIG 0.16  HD
BRANCH 27 30
ATOM     30  CA  GLY G 811     -25.619  35.213  20.445  1.00 98.06 LIG 0.23  C 
BRANCH 30 31
ATOM     31  N   GLY G 811     -24.577  34.691  19.578  1.00 97.66 LIG-0.35  N 
ATOM     32 H    GLY G 811     -24.582  35.002  18.777  1.00 97.66 LIG 0.16  HD
ATOM     33  C   GLN G 810     -23.702  33.799  20.038  1.00 97.43 LIG 0.26  C 
ATOM     34 O    GLN G 810     -23.736  33.359  21.187  1.00 97.76 LIG-0.27  OA
BRANCH 33 35
ATOM     35  CA  GLN G 810     -22.636  33.317  19.053  1.00 96.79 LIG 0.40  C 
ATOM     36  N   GLN G 810     -21.374  34.093  19.226  1.00 96.61 LIG 0.61  N 
BRANCH 35 37
ATOM     37  CB  GLN G 810     -22.381  31.830  19.292  1.00 96.38 LIG 0.06  C 
BRANCH 37 38
ATOM     38  CG  GLN G 810     -20.985  31.476  19.782  1.00 95.56 LIG 0.10  C 
BRANCH 38 39
ATOM     39  CD  GLN G 810     -20.990  31.006  21.219  1.00 95.11 LIG 0.21  C 
ATOM     40  NE2 GLN G 810     -21.890  31.570  22.018  1.00 94.31 LIG-0.37  N 
ATOM     41 21HE GLN G 810     -22.427  32.166  21.708  1.00 94.31 LIG 0.16  HD
ATOM     42 22HE GLN G 810     -21.937  31.338  22.845  1.00 94.31 LIG 0.16  HD
ATOM     43 OE1  GLN G 810     -20.198  30.148  21.611  1.00 94.65 LIG-0.27  OA
ENDBRANCH 38 39
ENDBRANCH 37 38
ENDBRANCH 35 37
ENDBRANCH 33 35
ENDBRANCH 30 31
ENDBRANCH 27 30
ENDBRANCH 1 26
TORSDOF 17
ENDMDL
MODEL 29
USER: ADFR SOLUTION from run 21
USER: SCORE 9.656036 LL:  -2.100 LR:  -8.672 RR:   0.000 FEB:  -3.601
USER: RMSD 4.326203
USER: SEED 20
USER: STATUS no improvement in best in 24 clusters for 5 generations
USER: GENES 19
USER: genes 0 Translation |==|  0.39128 0.40390 0.44761
USER: genes 1 Rotation |==|  0.47865 0.44586 0.55092 0.99398
USER: genes 2 Torsion [C]-CA--CB-[CG] |==|  0.38669
USER: genes 3 Torsion [CA]-CB--CG-[CD2] |==|  0.70772
USER: genes 4 Torsion [N]-CA--C-[N] |==|  0.39219
USER: genes 5 Torsion [C]-N--CA-[C] |==|  0.24581
USER: genes 6 Torsion [N]-CA--C-[N] |==|  0.43907
USER: genes 7 Torsion [C]-N--CA-[CB] |==|  0.31967
USER: genes 8 Torsion [N]-CA--CB-[CG] |==|  0.90588
USER: genes 9 Torsion [CA]-CB--CG-[CD] |==|  0.27010
USER: genes 10 Torsion [CB]-CG--CD-[OE2] |==|  0.67016
USER: genes 11 Torsion [N]-CA--C-[OXT] |==|  0.77195
USER: genes 12 Torsion [CB]-CA--N-[C] |==|  0.49359
USER: genes 13 Torsion [N]-C--CA-[N] |==|  0.08233
USER: genes 14 Torsion [C]-CA--N-[C] |==|  0.71114
USER: genes 15 Torsion [N]-C--CA-[N] |==|  0.78590
USER: genes 16 Torsion [C]-CA--CB-[CG] |==|  0.12850
USER: genes 17 Torsion [CA]-CB--CG-[CD] |==|  0.45980
USER: genes 18 Torsion [CB]-CG--CD-[NE2] |==|  0.89626
ROOT
ATOM      1  CA  HIS G 812     -28.164  31.971  20.436  1.00 98.11 LIG 0.18  C 
ENDROOT
BRANCH 1 2
ATOM      2  CB  HIS G 812     -27.533  30.572  20.431  1.00 96.29 LIG 0.10  C 
BRANCH 2 3
ATOM      3  CG  HIS G 812     -27.841  29.730  19.224  1.00 94.00 LIG 0.06  A 
ATOM      4  CD2 HIS G 812     -28.667  28.678  19.062  1.00 93.71 LIG 0.14  A 
ATOM      5 NE2  HIS G 812     -28.423  28.151  17.811  1.00 93.19 LIG-0.25  NA
ATOM      6  CE1 HIS G 812     -27.484  28.876  17.228  1.00 92.78 LIG 0.23  A 
ATOM      7 ND1  HIS G 812     -27.119  29.837  18.052  1.00 93.58 LIG-0.24  NA
ENDBRANCH 2 3
ENDBRANCH 1 2
BRANCH 1 8
ATOM      8  C   HIS G 812     -28.645  32.220  21.862  1.00 99.25 LIG 0.24  C 
ATOM      9  N   GLY G 813     -29.946  32.102  22.101  1.00100.26 LIG-0.35  N 
ATOM     10 H    GLY G 813     -30.539  31.905  21.512  1.00100.26 LIG 0.16  HD
ATOM     11 O    HIS G 812     -27.831  32.492  22.747  1.00 99.52 LIG-0.27  OA
BRANCH 9 12
ATOM     12  CA  GLY G 813     -30.453  32.314  23.446  1.00101.48 LIG 0.23  C 
BRANCH 12 13
ATOM     13  C   GLY G 813     -30.801  33.764  23.731  1.00102.44 LIG 0.24  C 
ATOM     14 O    GLY G 813     -30.298  34.660  23.055  1.00102.98 LIG-0.27  OA
ATOM     15  N   GLU G 814     -31.663  34.004  24.718  1.00102.70 LIG-0.34  N 
ATOM     16 H    GLU G 814     -32.037  33.393  25.192  1.00102.70 LIG 0.16  HD
BRANCH 15 17
ATOM     17  CA  GLU G 814     -32.044  35.373  25.076  1.00102.89 LIG 0.19  C 
BRANCH 17 18
ATOM     18  CB  GLU G 814     -33.534  35.615  24.800  1.00101.97 LIG 0.05  C 
BRANCH 18 19
ATOM     19  CG  GLU G 814     -34.091  34.877  23.599  1.00100.63 LIG 0.12  C 
BRANCH 19 20
ATOM     20  CD  GLU G 814     -34.792  33.581  23.980  1.00100.36 LIG 0.17  C 
ATOM     21 OE1  GLU G 814     -35.794  33.643  24.726  1.00 99.71 LIG-0.65  OA
ATOM     22 OE2  GLU G 814     -34.348  32.503  23.531  1.00 99.42 LIG-0.65  OA
ENDBRANCH 19 20
ENDBRANCH 18 19
ENDBRANCH 17 18
BRANCH 17 23
ATOM     23  C   GLU G 814     -31.761  35.645  26.556  1.00103.78 LIG 0.20  C 
ATOM     24 OXT  GLU G 814     -32.597  35.266  27.408  1.00104.07 LIG-0.65  OA
ATOM     25 O    GLU G 814     -30.697  36.233  26.851  1.00104.32 LIG-0.65  OA
ENDBRANCH 17 23
ENDBRANCH 15 17
ENDBRANCH 12 13
ENDBRANCH 9 12
ENDBRANCH 1 8
BRANCH 1 26
ATOM     26  N   HIS G 812     -27.131  33.005  20.292  1.00 98.48 LIG-0.35  N 
ATOM     27  C   GLY G 811     -27.352  34.319  20.216  1.00 98.46 LIG 0.24  C 
ATOM     28 O    GLY G 811     -28.475  34.839  20.217  1.00 98.78 LIG-0.27  OA
ATOM     29 H    HIS G 812     -26.338  32.675  20.259  1.00 98.48 LIG 0.16  HD
BRANCH 27 30
ATOM     30  CA  GLY G 811     -26.094  35.168  20.115  1.00 98.06 LIG 0.23  C 
BRANCH 30 31
ATOM     31  N   GLY G 811     -24.946  34.557  19.468  1.00 97.66 LIG-0.35  N 
ATOM     32 H    GLY G 811     -24.993  34.515  18.611  1.00 97.66 LIG 0.16  HD
ATOM     33  C   GLN G 810     -23.921  34.111  20.192  1.00 97.43 LIG 0.26  C 
ATOM     34 O    GLN G 810     -23.896  34.169  21.422  1.00 97.76 LIG-0.27  OA
BRANCH 33 35
ATOM     35  CA  GLN G 810     -22.756  33.494  19.420  1.00 96.79 LIG 0.40  C 
ATOM     36  N   GLN G 810     -23.099  32.113  18.971  1.00 96.61 LIG 0.61  N 
BRANCH 35 37
ATOM     37  CB  GLN G 810     -22.438  34.378  18.216  1.00 96.38 LIG 0.06  C 
BRANCH 37 38
ATOM     38  CG  GLN G 810     -22.359  35.870  18.501  1.00 95.56 LIG 0.10  C 
BRANCH 38 39
ATOM     39  CD  GLN G 810     -21.707  36.631  17.368  1.00 95.11 LIG 0.21  C 
ATOM     40  NE2 GLN G 810     -20.696  36.023  16.758  1.00 94.31 LIG-0.37  N 
ATOM     41 21HE GLN G 810     -20.445  35.241  17.015  1.00 94.31 LIG 0.16  HD
ATOM     42 22HE GLN G 810     -20.291  36.411  16.106  1.00 94.31 LIG 0.16  HD
ATOM     43 OE1  GLN G 810     -22.107  37.749  17.041  1.00 94.65 LIG-0.27  OA
ENDBRANCH 38 39
ENDBRANCH 37 38
ENDBRANCH 35 37
ENDBRANCH 33 35
ENDBRANCH 30 31
ENDBRANCH 27 30
ENDBRANCH 1 26
TORSDOF 17
ENDMDL
MODEL 30
USER: ADFR SOLUTION from run 86
USER: SCORE 8.341311 LL:  -1.820 LR:  -8.655 RR:   0.000 FEB:  -3.584
USER: RMSD 2.445177
USER: SEED 85
USER: STATUS no improvement in best in 8 clusters for 5 generations
USER: GENES 19
USER: genes 0 Translation |==|  0.37381 0.44909 0.49311
USER: genes 1 Rotation |==|  0.47782 0.51020 0.48801 0.99926
USER: genes 2 Torsion [C]-CA--CB-[CG] |==|  0.53101
USER: genes 3 Torsion [CA]-CB--CG-[CD2] |==|  0.61856
USER: genes 4 Torsion [N]-CA--C-[N] |==|  0.73876
USER: genes 5 Torsion [C]-N--CA-[C] |==|  0.26122
USER: genes 6 Torsion [N]-CA--C-[N] |==|  0.42811
USER: genes 7 Torsion [C]-N--CA-[CB] |==|  0.44527
USER: genes 8 Torsion [N]-CA--CB-[CG] |==|  0.73673
USER: genes 9 Torsion [CA]-CB--CG-[CD] |==|  0.35347
USER: genes 10 Torsion [CB]-CG--CD-[OE2] |==|  0.76015
USER: genes 11 Torsion [N]-CA--C-[OXT] |==|  0.08974
USER: genes 12 Torsion [CB]-CA--N-[C] |==|  0.34848
USER: genes 13 Torsion [N]-C--CA-[N] |==|  0.42108
USER: genes 14 Torsion [C]-CA--N-[C] |==|  0.34426
USER: genes 15 Torsion [N]-C--CA-[N] |==|  0.36721
USER: genes 16 Torsion [C]-CA--CB-[CG] |==|  0.40328
USER: genes 17 Torsion [CA]-CB--CG-[CD] |==|  0.61949
USER: genes 18 Torsion [CB]-CG--CD-[NE2] |==|  0.07649
ROOT
ATOM      1  CA  HIS G 812     -28.505  32.818  21.562  1.00 98.11 LIG 0.18  C 
ENDROOT
BRANCH 1 2
ATOM      2  CB  HIS G 812     -28.276  31.304  21.452  1.00 96.29 LIG 0.10  C 
BRANCH 2 3
ATOM      3  CG  HIS G 812     -27.940  30.803  20.075  1.00 94.00 LIG 0.06  A 
ATOM      4  CD2 HIS G 812     -28.366  29.720  19.396  1.00 93.71 LIG 0.14  A 
ATOM      5 NE2  HIS G 812     -27.595  29.618  18.257  1.00 93.19 LIG-0.25  NA
ATOM      6  CE1 HIS G 812     -26.734  30.622  18.243  1.00 92.78 LIG 0.23  A 
ATOM      7 ND1  HIS G 812     -26.923  31.354  19.322  1.00 93.58 LIG-0.24  NA
ENDBRANCH 2 3
ENDBRANCH 1 2
BRANCH 1 8
ATOM      8  C   HIS G 812     -28.546  33.138  23.053  1.00 99.25 LIG 0.24  C 
ATOM      9  N   GLY G 813     -27.972  32.276  23.883  1.00100.26 LIG-0.35  N 
ATOM     10 H    GLY G 813     -27.586  31.546  23.645  1.00100.26 LIG 0.16  HD
ATOM     11 O    HIS G 812     -29.077  34.180  23.443  1.00 99.52 LIG-0.27  OA
BRANCH 9 12
ATOM     12  CA  GLY G 813     -27.971  32.543  25.311  1.00101.48 LIG 0.23  C 
BRANCH 12 13
ATOM     13  C   GLY G 813     -29.130  31.886  26.041  1.00102.44 LIG 0.24  C 
ATOM     14 O    GLY G 813     -30.168  31.626  25.435  1.00102.98 LIG-0.27  OA
ATOM     15  N   GLU G 814     -28.962  31.609  27.333  1.00102.70 LIG-0.34  N 
ATOM     16 H    GLU G 814     -28.239  31.768  27.771  1.00102.70 LIG 0.16  HD
BRANCH 15 17
ATOM     17  CA  GLU G 814     -30.031  30.992  28.122  1.00102.89 LIG 0.19  C 
BRANCH 17 18
ATOM     18  CB  GLU G 814     -29.467  30.339  29.391  1.00101.97 LIG 0.05  C 
BRANCH 18 19
ATOM     19  CG  GLU G 814     -29.164  28.858  29.267  1.00100.63 LIG 0.12  C 
BRANCH 19 20
ATOM     20  CD  GLU G 814     -27.743  28.513  29.689  1.00100.36 LIG 0.17  C 
ATOM     21 OE1  GLU G 814     -27.544  28.148  30.869  1.00 99.71 LIG-0.65  OA
ATOM     22 OE2  GLU G 814     -26.827  28.601  28.845  1.00 99.42 LIG-0.65  OA
ENDBRANCH 19 20
ENDBRANCH 18 19
ENDBRANCH 17 18
BRANCH 17 23
ATOM     23  C   GLU G 814     -31.079  32.035  28.523  1.00103.78 LIG 0.20  C 
ATOM     24 OXT  GLU G 814     -31.306  32.991  27.745  1.00104.07 LIG-0.65  OA
ATOM     25 O    GLU G 814     -31.669  31.882  29.615  1.00104.32 LIG-0.65  OA
ENDBRANCH 17 23
ENDBRANCH 15 17
ENDBRANCH 12 13
ENDBRANCH 9 12
ENDBRANCH 1 8
BRANCH 1 26
ATOM     26  N   HIS G 812     -27.307  33.555  21.139  1.00 98.48 LIG-0.35  N 
ATOM     27  C   GLY G 811     -27.269  34.504  20.201  1.00 98.46 LIG 0.24  C 
ATOM     28 O    GLY G 811     -28.245  34.861  19.530  1.00 98.78 LIG-0.27  OA
ATOM     29 H    HIS G 812     -26.602  33.310  21.566  1.00 98.48 LIG 0.16  HD
BRANCH 27 30
ATOM     30  CA  GLY G 811     -25.901  35.135  19.993  1.00 98.06 LIG 0.23  C 
BRANCH 30 31
ATOM     31  N   GLY G 811     -25.617  35.654  18.668  1.00 97.66 LIG-0.35  N 
ATOM     32 H    GLY G 811     -25.702  35.086  18.029  1.00 97.66 LIG 0.16  HD
ATOM     33  C   GLN G 810     -25.254  36.925  18.505  1.00 97.43 LIG 0.26  C 
ATOM     34 O    GLN G 810     -25.120  37.709  19.445  1.00 97.76 LIG-0.27  OA
BRANCH 33 35
ATOM     35  CA  GLN G 810     -24.985  37.381  17.071  1.00 96.79 LIG 0.40  C 
ATOM     36  N   GLN G 810     -25.684  38.670  16.792  1.00 96.61 LIG 0.61  N 
BRANCH 35 37
ATOM     37  CB  GLN G 810     -23.479  37.543  16.878  1.00 96.38 LIG 0.06  C 
BRANCH 37 38
ATOM     38  CG  GLN G 810     -22.952  37.179  15.499  1.00 95.56 LIG 0.10  C 
BRANCH 38 39
ATOM     39  CD  GLN G 810     -21.671  36.379  15.573  1.00 95.11 LIG 0.21  C 
ATOM     40  NE2 GLN G 810     -21.498  35.648  16.669  1.00 94.31 LIG-0.37  N 
ATOM     41 21HE GLN G 810     -22.097  35.650  17.286  1.00 94.31 LIG 0.16  HD
ATOM     42 22HE GLN G 810     -20.787  35.173  16.762  1.00 94.31 LIG 0.16  HD
ATOM     43 OE1  GLN G 810     -20.845  36.413  14.660  1.00 94.65 LIG-0.27  OA
ENDBRANCH 38 39
ENDBRANCH 37 38
ENDBRANCH 35 37
ENDBRANCH 33 35
ENDBRANCH 30 31
ENDBRANCH 27 30
ENDBRANCH 1 26
TORSDOF 17
ENDMDL
MODEL 31
USER: ADFR SOLUTION from run 89
USER: SCORE 8.784826 LL:  -1.951 LR:  -8.643 RR:   0.000 FEB:  -3.572
USER: RMSD 3.106135
USER: SEED 88
USER: STATUS no improvement in best in 10 clusters for 5 generations
USER: GENES 19
USER: genes 0 Translation |==|  0.52218 0.42348 0.45389
USER: genes 1 Rotation |==|  0.65120 0.63584 0.40672 0.94720
USER: genes 2 Torsion [C]-CA--CB-[CG] |==|  0.21886
USER: genes 3 Torsion [CA]-CB--CG-[CD2] |==|  0.01324
USER: genes 4 Torsion [N]-CA--C-[N] |==|  0.43435
USER: genes 5 Torsion [C]-N--CA-[C] |==|  0.42463
USER: genes 6 Torsion [N]-CA--C-[N] |==|  0.47968
USER: genes 7 Torsion [C]-N--CA-[CB] |==|  0.48715
USER: genes 8 Torsion [N]-CA--CB-[CG] |==|  0.52069
USER: genes 9 Torsion [CA]-CB--CG-[CD] |==|  0.56079
USER: genes 10 Torsion [CB]-CG--CD-[OE2] |==|  0.12023
USER: genes 11 Torsion [N]-CA--C-[OXT] |==|  0.91607
USER: genes 12 Torsion [CB]-CA--N-[C] |==|  0.28311
USER: genes 13 Torsion [N]-C--CA-[N] |==|  0.43333
USER: genes 14 Torsion [C]-CA--N-[C] |==|  0.48977
USER: genes 15 Torsion [N]-C--CA-[N] |==|  0.49363
USER: genes 16 Torsion [C]-CA--CB-[CG] |==|  0.50063
USER: genes 17 Torsion [CA]-CB--CG-[CD] |==|  0.27364
USER: genes 18 Torsion [CB]-CG--CD-[NE2] |==|  0.42560
ROOT
ATOM      1  CA  HIS G 812     -25.611  32.338  20.592  1.00 98.11 LIG 0.18  C 
ENDROOT
BRANCH 1 2
ATOM      2  CB  HIS G 812     -26.197  31.325  19.598  1.00 96.29 LIG 0.10  C 
BRANCH 2 3
ATOM      3  CG  HIS G 812     -27.548  30.772  19.963  1.00 94.00 LIG 0.06  A 
ATOM      4  CD2 HIS G 812     -28.385  31.071  20.975  1.00 93.71 LIG 0.14  A 
ATOM      5 NE2  HIS G 812     -29.395  30.131  20.965  1.00 93.19 LIG-0.25  NA
ATOM      6  CE1 HIS G 812     -29.178  29.296  19.963  1.00 92.78 LIG 0.23  A 
ATOM      7 ND1  HIS G 812     -28.077  29.660  19.340  1.00 93.58 LIG-0.24  NA
ENDBRANCH 2 3
ENDBRANCH 1 2
BRANCH 1 8
ATOM      8  C   HIS G 812     -25.047  31.525  21.752  1.00 99.25 LIG 0.24  C 
ATOM      9  N   GLY G 813     -25.870  31.223  22.749  1.00100.26 LIG-0.35  N 
ATOM     10 H    GLY G 813     -26.695  31.458  22.794  1.00100.26 LIG 0.16  HD
ATOM     11 O    HIS G 812     -23.872  31.151  21.726  1.00 99.52 LIG-0.27  OA
BRANCH 9 12
ATOM     12  CA  GLY G 813     -25.385  30.437  23.870  1.00101.48 LIG 0.23  C 
BRANCH 12 13
ATOM     13  C   GLY G 813     -26.141  30.707  25.159  1.00102.44 LIG 0.24  C 
ATOM     14 O    GLY G 813     -26.973  31.613  25.204  1.00102.98 LIG-0.27  OA
ATOM     15  N   GLU G 814     -25.869  29.928  26.204  1.00102.70 LIG-0.34  N 
ATOM     16 H    GLU G 814     -25.303  29.280  26.189  1.00102.70 LIG 0.16  HD
BRANCH 15 17
ATOM     17  CA  GLU G 814     -26.536  30.126  27.493  1.00102.89 LIG 0.19  C 
BRANCH 17 18
ATOM     18  CB  GLU G 814     -26.133  29.032  28.491  1.00101.97 LIG 0.05  C 
BRANCH 18 19
ATOM     19  CG  GLU G 814     -26.903  29.045  29.798  1.00100.63 LIG 0.12  C 
BRANCH 19 20
ATOM     20  CD  GLU G 814     -26.159  28.342  30.924  1.00100.36 LIG 0.17  C 
ATOM     21 OE1  GLU G 814     -26.800  27.572  31.673  1.00 99.71 LIG-0.65  OA
ATOM     22 OE2  GLU G 814     -24.935  28.552  31.058  1.00 99.42 LIG-0.65  OA
ENDBRANCH 19 20
ENDBRANCH 18 19
ENDBRANCH 17 18
BRANCH 17 23
ATOM     23  C   GLU G 814     -26.179  31.494  28.083  1.00103.78 LIG 0.20  C 
ATOM     24 OXT  GLU G 814     -25.060  31.990  27.819  1.00104.07 LIG-0.65  OA
ATOM     25 O    GLU G 814     -27.031  32.061  28.803  1.00104.32 LIG-0.65  OA
ENDBRANCH 17 23
ENDBRANCH 15 17
ENDBRANCH 12 13
ENDBRANCH 9 12
ENDBRANCH 1 8
BRANCH 1 26
ATOM     26  N   HIS G 812     -24.394  32.953  20.046  1.00 98.48 LIG-0.35  N 
ATOM     27  C   GLY G 811     -24.314  34.170  19.505  1.00 98.46 LIG 0.24  C 
ATOM     28 O    GLY G 811     -25.277  34.931  19.354  1.00 98.78 LIG-0.27  OA
ATOM     29 H    HIS G 812     -23.709  32.438  20.110  1.00 98.48 LIG 0.16  HD
BRANCH 27 30
ATOM     30  CA  GLY G 811     -22.917  34.574  19.060  1.00 98.06 LIG 0.23  C 
BRANCH 30 31
ATOM     31  N   GLY G 811     -22.830  35.586  18.022  1.00 97.66 LIG-0.35  N 
ATOM     32 H    GLY G 811     -23.585  35.844  17.703  1.00 97.66 LIG 0.16  HD
ATOM     33  C   GLN G 810     -21.645  36.048  17.627  1.00 97.43 LIG 0.26  C 
ATOM     34 O    GLN G 810     -20.580  35.640  18.092  1.00 97.76 LIG-0.27  OA
BRANCH 33 35
ATOM     35  CA  GLN G 810     -21.656  37.118  16.536  1.00 96.79 LIG 0.40  C 
ATOM     36  N   GLN G 810     -20.268  37.576  16.238  1.00 96.61 LIG 0.61  N 
BRANCH 35 37
ATOM     37  CB  GLN G 810     -22.303  36.536  15.281  1.00 96.38 LIG 0.06  C 
BRANCH 37 38
ATOM     38  CG  GLN G 810     -22.388  37.478  14.091  1.00 95.56 LIG 0.10  C 
BRANCH 38 39
ATOM     39  CD  GLN G 810     -21.271  37.243  13.099  1.00 95.11 LIG 0.21  C 
ATOM     40  NE2 GLN G 810     -21.527  37.574  11.838  1.00 94.31 LIG-0.37  N 
ATOM     41 21HE GLN G 810     -22.294  37.900  11.625  1.00 94.31 LIG 0.16  HD
ATOM     42 22HE GLN G 810     -20.925  37.462  11.233  1.00 94.31 LIG 0.16  HD
ATOM     43 OE1  GLN G 810     -20.190  36.773  13.457  1.00 94.65 LIG-0.27  OA
ENDBRANCH 38 39
ENDBRANCH 37 38
ENDBRANCH 35 37
ENDBRANCH 33 35
ENDBRANCH 30 31
ENDBRANCH 27 30
ENDBRANCH 1 26
TORSDOF 17
ENDMDL
MODEL 32
USER: ADFR SOLUTION from run 6
USER: SCORE 9.140883 LL:  -1.728 LR:  -8.633 RR:   0.000 FEB:  -3.562
USER: RMSD 2.583914
USER: SEED 838096
USER: STATUS no improvement in best in 17 clusters for 5 generations
USER: GENES 19
USER: genes 0 Translation |==|  0.41871 0.36350 0.45212
USER: genes 1 Rotation |==|  0.47960 0.54406 0.37798 0.98245
USER: genes 2 Torsion [C]-CA--CB-[CG] |==|  0.50110
USER: genes 3 Torsion [CA]-CB--CG-[CD2] |==|  0.61972
USER: genes 4 Torsion [N]-CA--C-[N] |==|  0.35921
USER: genes 5 Torsion [C]-N--CA-[C] |==|  0.66274
USER: genes 6 Torsion [N]-CA--C-[N] |==|  0.40247
USER: genes 7 Torsion [C]-N--CA-[CB] |==|  0.43601
USER: genes 8 Torsion [N]-CA--CB-[CG] |==|  0.46784
USER: genes 9 Torsion [CA]-CB--CG-[CD] |==|  0.57999
USER: genes 10 Torsion [CB]-CG--CD-[OE2] |==|  0.34198
USER: genes 11 Torsion [N]-CA--C-[OXT] |==|  0.42861
USER: genes 12 Torsion [CB]-CA--N-[C] |==|  0.54445
USER: genes 13 Torsion [N]-C--CA-[N] |==|  0.46468
USER: genes 14 Torsion [C]-CA--N-[C] |==|  0.56632
USER: genes 15 Torsion [N]-C--CA-[N] |==|  0.33532
USER: genes 16 Torsion [C]-CA--CB-[CG] |==|  0.47689
USER: genes 17 Torsion [CA]-CB--CG-[CD] |==|  0.35659
USER: genes 18 Torsion [CB]-CG--CD-[NE2] |==|  0.51067
ROOT
ATOM      1  CA  HIS G 812     -27.629  31.214  20.548  1.00 98.11 LIG 0.18  C 
ENDROOT
BRANCH 1 2
ATOM      2  CB  HIS G 812     -28.096  29.754  20.454  1.00 96.29 LIG 0.10  C 
BRANCH 2 3
ATOM      3  CG  HIS G 812     -28.414  29.268  19.067  1.00 94.00 LIG 0.06  A 
ATOM      4  CD2 HIS G 812     -29.434  28.521  18.600  1.00 93.71 LIG 0.14  A 
ATOM      5 NE2  HIS G 812     -29.140  28.194  17.293  1.00 93.19 LIG-0.25  NA
ATOM      6  CE1 HIS G 812     -27.980  28.742  16.975  1.00 92.78 LIG 0.23  A 
ATOM      7 ND1  HIS G 812     -27.522  29.398  18.022  1.00 93.58 LIG-0.24  NA
ENDBRANCH 2 3
ENDBRANCH 1 2
BRANCH 1 8
ATOM      8  C   HIS G 812     -27.357  31.483  22.024  1.00 99.25 LIG 0.24  C 
ATOM      9  N   GLY G 813     -28.127  32.373  22.639  1.00100.26 LIG-0.35  N 
ATOM     10 H    GLY G 813     -28.762  32.815  22.266  1.00100.26 LIG 0.16  HD
ATOM     11 O    HIS G 812     -26.466  30.863  22.608  1.00 99.52 LIG-0.27  OA
BRANCH 9 12
ATOM     12  CA  GLY G 813     -27.918  32.654  24.048  1.00101.48 LIG 0.23  C 
BRANCH 12 13
ATOM     13  C   GLY G 813     -29.148  32.387  24.898  1.00102.44 LIG 0.24  C 
ATOM     14 O    GLY G 813     -30.270  32.600  24.440  1.00102.98 LIG-0.27  OA
ATOM     15  N   GLU G 814     -28.952  31.915  26.128  1.00102.70 LIG-0.34  N 
ATOM     16 H    GLU G 814     -28.178  31.745  26.463  1.00102.70 LIG 0.16  HD
BRANCH 15 17
ATOM     17  CA  GLU G 814     -30.077  31.645  27.026  1.00102.89 LIG 0.19  C 
BRANCH 17 18
ATOM     18  CB  GLU G 814     -29.687  30.620  28.100  1.00101.97 LIG 0.05  C 
BRANCH 18 19
ATOM     19  CG  GLU G 814     -30.681  30.475  29.236  1.00100.63 LIG 0.12  C 
BRANCH 19 20
ATOM     20  CD  GLU G 814     -30.022  30.052  30.541  1.00100.36 LIG 0.17  C 
ATOM     21 OE1  GLU G 814     -29.350  28.997  30.555  1.00 99.71 LIG-0.65  OA
ATOM     22 OE2  GLU G 814     -30.169  30.773  31.550  1.00 99.42 LIG-0.65  OA
ENDBRANCH 19 20
ENDBRANCH 18 19
ENDBRANCH 17 18
BRANCH 17 23
ATOM     23  C   GLU G 814     -30.544  32.932  27.713  1.00103.78 LIG 0.20  C 
ATOM     24 OXT  GLU G 814     -31.731  33.008  28.106  1.00104.07 LIG-0.65  OA
ATOM     25 O    GLU G 814     -29.711  33.854  27.857  1.00104.32 LIG-0.65  OA
ENDBRANCH 17 23
ENDBRANCH 15 17
ENDBRANCH 12 13
ENDBRANCH 9 12
ENDBRANCH 1 8
BRANCH 1 26
ATOM     26  N   HIS G 812     -26.288  31.366  19.971  1.00 98.48 LIG-0.35  N 
ATOM     27  C   GLY G 811     -25.475  32.409  20.155  1.00 98.46 LIG 0.24  C 
ATOM     28 O    GLY G 811     -25.770  33.414  20.812  1.00 98.78 LIG-0.27  OA
ATOM     29 H    HIS G 812     -26.061  30.695  19.483  1.00 98.48 LIG 0.16  HD
BRANCH 27 30
ATOM     30  CA  GLY G 811     -24.121  32.285  19.474  1.00 98.06 LIG 0.23  C 
BRANCH 30 31
ATOM     31  N   GLY G 811     -23.316  33.491  19.399  1.00 97.66 LIG-0.35  N 
ATOM     32 H    GLY G 811     -23.493  34.083  19.996  1.00 97.66 LIG 0.16  HD
ATOM     33  C   GLN G 810     -22.384  33.622  18.458  1.00 97.43 LIG 0.26  C 
ATOM     34 O    GLN G 810     -22.169  32.761  17.604  1.00 97.76 LIG-0.27  OA
BRANCH 33 35
ATOM     35  CA  GLN G 810     -21.581  34.924  18.467  1.00 96.79 LIG 0.40  C 
ATOM     36  N   GLN G 810     -20.126  34.639  18.634  1.00 96.61 LIG 0.61  N 
BRANCH 35 37
ATOM     37  CB  GLN G 810     -21.829  35.665  17.155  1.00 96.38 LIG 0.06  C 
BRANCH 37 38
ATOM     38  CG  GLN G 810     -21.261  37.074  17.081  1.00 95.56 LIG 0.10  C 
BRANCH 38 39
ATOM     39  CD  GLN G 810     -20.420  37.283  15.842  1.00 95.11 LIG 0.21  C 
ATOM     40  NE2 GLN G 810     -19.817  38.462  15.733  1.00 94.31 LIG-0.37  N 
ATOM     41 21HE GLN G 810     -19.919  39.055  16.347  1.00 94.31 LIG 0.16  HD
ATOM     42 22HE GLN G 810     -19.326  38.632  15.048  1.00 94.31 LIG 0.16  HD
ATOM     43 OE1  GLN G 810     -20.308  36.398  14.991  1.00 94.65 LIG-0.27  OA
ENDBRANCH 38 39
ENDBRANCH 37 38
ENDBRANCH 35 37
ENDBRANCH 33 35
ENDBRANCH 30 31
ENDBRANCH 27 30
ENDBRANCH 1 26
TORSDOF 17
ENDMDL
MODEL 33
USER: ADFR SOLUTION from run 118
USER: SCORE 7.892989 LL:  -1.716 LR:  -8.605 RR:   0.000 FEB:  -3.534
USER: RMSD 3.196854
USER: SEED 117
USER: STATUS no improvement in best in 12 clusters for 5 generations
USER: GENES 19
USER: genes 0 Translation |==|  0.47717 0.41178 0.45203
USER: genes 1 Rotation |==|  0.64466 0.64363 0.57046 0.95109
USER: genes 2 Torsion [C]-CA--CB-[CG] |==|  0.28288
USER: genes 3 Torsion [CA]-CB--CG-[CD2] |==|  0.94513
USER: genes 4 Torsion [N]-CA--C-[N] |==|  0.35799
USER: genes 5 Torsion [C]-N--CA-[C] |==|  0.39156
USER: genes 6 Torsion [N]-CA--C-[N] |==|  0.39072
USER: genes 7 Torsion [C]-N--CA-[CB] |==|  0.18898
USER: genes 8 Torsion [N]-CA--CB-[CG] |==|  0.52145
USER: genes 9 Torsion [CA]-CB--CG-[CD] |==|  0.38307
USER: genes 10 Torsion [CB]-CG--CD-[OE2] |==|  0.58025
USER: genes 11 Torsion [N]-CA--C-[OXT] |==|  0.81122
USER: genes 12 Torsion [CB]-CA--N-[C] |==|  0.20530
USER: genes 13 Torsion [N]-C--CA-[N] |==|  0.25556
USER: genes 14 Torsion [C]-CA--N-[C] |==|  0.47321
USER: genes 15 Torsion [N]-C--CA-[N] |==|  0.93461
USER: genes 16 Torsion [C]-CA--CB-[CG] |==|  0.46059
USER: genes 17 Torsion [CA]-CB--CG-[CD] |==|  0.48561
USER: genes 18 Torsion [CB]-CG--CD-[NE2] |==|  0.50194
ROOT
ATOM      1  CA  HIS G 812     -26.489  32.119  20.546  1.00 98.11 LIG 0.18  C 
ENDROOT
BRANCH 1 2
ATOM      2  CB  HIS G 812     -26.253  31.173  19.360  1.00 96.29 LIG 0.10  C 
BRANCH 2 3
ATOM      3  CG  HIS G 812     -27.373  30.212  19.070  1.00 94.00 LIG 0.06  A 
ATOM      4  CD2 HIS G 812     -28.390  29.776  19.838  1.00 93.71 LIG 0.14  A 
ATOM      5 NE2  HIS G 812     -29.011  28.750  19.157  1.00 93.19 LIG-0.25  NA
ATOM      6  CE1 HIS G 812     -28.391  28.580  18.001  1.00 92.78 LIG 0.23  A 
ATOM      7 ND1  HIS G 812     -27.405  29.449  17.920  1.00 93.58 LIG-0.24  NA
ENDBRANCH 2 3
ENDBRANCH 1 2
BRANCH 1 8
ATOM      8  C   HIS G 812     -25.691  31.550  21.714  1.00 99.25 LIG 0.24  C 
ATOM      9  N   GLY G 813     -26.370  31.121  22.771  1.00100.26 LIG-0.35  N 
ATOM     10 H    GLY G 813     -27.225  31.148  22.851  1.00100.26 LIG 0.16  HD
ATOM     11 O    HIS G 812     -24.463  31.477  21.642  1.00 99.52 LIG-0.27  OA
BRANCH 9 12
ATOM     12  CA  GLY G 813     -25.657  30.556  23.904  1.00101.48 LIG 0.23  C 
BRANCH 12 13
ATOM     13  C   GLY G 813     -26.249  30.962  25.243  1.00102.44 LIG 0.24  C 
ATOM     14 O    GLY G 813     -26.667  32.107  25.408  1.00102.98 LIG-0.27  OA
ATOM     15  N   GLU G 814     -26.297  30.034  26.197  1.00102.70 LIG-0.34  N 
ATOM     16 H    GLU G 814     -26.024  29.224  26.098  1.00102.70 LIG 0.16  HD
BRANCH 15 17
ATOM     17  CA  GLU G 814     -26.834  30.339  27.525  1.00102.89 LIG 0.19  C 
BRANCH 17 18
ATOM     18  CB  GLU G 814     -28.345  30.599  27.458  1.00101.97 LIG 0.05  C 
BRANCH 18 19
ATOM     19  CG  GLU G 814     -28.965  31.102  28.747  1.00100.63 LIG 0.12  C 
BRANCH 19 20
ATOM     20  CD  GLU G 814     -29.973  32.218  28.516  1.00100.36 LIG 0.17  C 
ATOM     21 OE1  GLU G 814     -30.600  32.241  27.434  1.00 99.71 LIG-0.65  OA
ATOM     22 OE2  GLU G 814     -30.145  33.069  29.415  1.00 99.42 LIG-0.65  OA
ENDBRANCH 19 20
ENDBRANCH 18 19
ENDBRANCH 17 18
BRANCH 17 23
ATOM     23  C   GLU G 814     -26.571  29.182  28.495  1.00103.78 LIG 0.20  C 
ATOM     24 OXT  GLU G 814     -27.168  28.096  28.313  1.00104.07 LIG-0.65  OA
ATOM     25 O    GLU G 814     -25.762  29.374  29.430  1.00104.32 LIG-0.65  OA
ENDBRANCH 17 23
ENDBRANCH 15 17
ENDBRANCH 12 13
ENDBRANCH 9 12
ENDBRANCH 1 8
BRANCH 1 26
ATOM     26  N   HIS G 812     -25.811  33.403  20.326  1.00 98.48 LIG-0.35  N 
ATOM     27  C   GLY G 811     -26.205  34.355  19.478  1.00 98.46 LIG 0.24  C 
ATOM     28 O    GLY G 811     -27.183  34.260  18.728  1.00 98.78 LIG-0.27  OA
ATOM     29 H    HIS G 812     -25.108  33.491  20.813  1.00 98.48 LIG 0.16  HD
BRANCH 27 30
ATOM     30  CA  GLY G 811     -25.339  35.606  19.485  1.00 98.06 LIG 0.23  C 
BRANCH 30 31
ATOM     31  N   GLY G 811     -24.246  35.647  18.531  1.00 97.66 LIG-0.35  N 
ATOM     32 H    GLY G 811     -24.092  34.906  18.123  1.00 97.66 LIG 0.16  HD
ATOM     33  C   GLN G 810     -23.561  36.773  18.337  1.00 97.43 LIG 0.26  C 
ATOM     34 O    GLN G 810     -23.795  37.812  18.954  1.00 97.76 LIG-0.27  OA
BRANCH 33 35
ATOM     35  CA  GLN G 810     -22.435  36.719  17.305  1.00 96.79 LIG 0.40  C 
ATOM     36  N   GLN G 810     -21.954  35.317  17.128  1.00 96.61 LIG 0.61  N 
BRANCH 35 37
ATOM     37  CB  GLN G 810     -22.953  37.272  15.979  1.00 96.38 LIG 0.06  C 
BRANCH 37 38
ATOM     38  CG  GLN G 810     -21.887  37.604  14.946  1.00 95.56 LIG 0.10  C 
BRANCH 38 39
ATOM     39  CD  GLN G 810     -22.489  38.026  13.625  1.00 95.11 LIG 0.21  C 
ATOM     40  NE2 GLN G 810     -21.629  38.322  12.656  1.00 94.31 LIG-0.37  N 
ATOM     41 21HE GLN G 810     -20.783  38.270  12.801  1.00 94.31 LIG 0.16  HD
ATOM     42 22HE GLN G 810     -21.919  38.566  11.884  1.00 94.31 LIG 0.16  HD
ATOM     43 OE1  GLN G 810     -23.710  38.083  13.471  1.00 94.65 LIG-0.27  OA
ENDBRANCH 38 39
ENDBRANCH 37 38
ENDBRANCH 35 37
ENDBRANCH 33 35
ENDBRANCH 30 31
ENDBRANCH 27 30
ENDBRANCH 1 26
TORSDOF 17
ENDMDL
MODEL 34
USER: ADFR SOLUTION from run 21
USER: SCORE 9.549882 LL:  -2.384 LR:  -8.594 RR:   0.000 FEB:  -3.523
USER: RMSD 4.177835
USER: SEED 20
USER: STATUS no improvement in best in 24 clusters for 5 generations
USER: GENES 19
USER: genes 0 Translation |==|  0.42653 0.43205 0.40904
USER: genes 1 Rotation |==|  0.47339 0.55186 0.65601 0.97145
USER: genes 2 Torsion [C]-CA--CB-[CG] |==|  0.35021
USER: genes 3 Torsion [CA]-CB--CG-[CD2] |==|  0.34979
USER: genes 4 Torsion [N]-CA--C-[N] |==|  0.32931
USER: genes 5 Torsion [C]-N--CA-[C] |==|  0.48406
USER: genes 6 Torsion [N]-CA--C-[N] |==|  0.68990
USER: genes 7 Torsion [C]-N--CA-[CB] |==|  0.44127
USER: genes 8 Torsion [N]-CA--CB-[CG] |==|  0.77638
USER: genes 9 Torsion [CA]-CB--CG-[CD] |==|  0.84590
USER: genes 10 Torsion [CB]-CG--CD-[OE2] |==|  0.75821
USER: genes 11 Torsion [N]-CA--C-[OXT] |==|  0.33683
USER: genes 12 Torsion [CB]-CA--N-[C] |==|  0.53358
USER: genes 13 Torsion [N]-C--CA-[N] |==|  0.93910
USER: genes 14 Torsion [C]-CA--N-[C] |==|  0.77063
USER: genes 15 Torsion [N]-C--CA-[N] |==|  0.23957
USER: genes 16 Torsion [C]-CA--CB-[CG] |==|  0.34396
USER: genes 17 Torsion [CA]-CB--CG-[CD] |==|  0.87062
USER: genes 18 Torsion [CB]-CG--CD-[NE2] |==|  0.38584
ROOT
ATOM      1  CA  HIS G 812     -27.477  32.499  19.482  1.00 98.11 LIG 0.18  C 
ENDROOT
BRANCH 1 2
ATOM      2  CB  HIS G 812     -26.382  31.450  19.238  1.00 96.29 LIG 0.10  C 
BRANCH 2 3
ATOM      3  CG  HIS G 812     -26.839  30.189  18.558  1.00 94.00 LIG 0.06  A 
ATOM      4  CD2 HIS G 812     -26.395  29.568  17.448  1.00 93.71 LIG 0.14  A 
ATOM      5 NE2  HIS G 812     -27.292  28.562  17.152  1.00 93.19 LIG-0.25  NA
ATOM      6  CE1 HIS G 812     -28.246  28.570  18.068  1.00 92.78 LIG 0.23  A 
ATOM      7 ND1  HIS G 812     -27.996  29.534  18.929  1.00 93.58 LIG-0.24  NA
ENDBRANCH 2 3
ENDBRANCH 1 2
BRANCH 1 8
ATOM      8  C   HIS G 812     -27.431  32.828  20.970  1.00 99.25 LIG 0.24  C 
ATOM      9  N   GLY G 813     -28.559  32.709  21.661  1.00100.26 LIG-0.35  N 
ATOM     10 H    GLY G 813     -29.315  32.469  21.331  1.00100.26 LIG 0.16  HD
ATOM     11 O    HIS G 812     -26.367  33.164  21.493  1.00 99.52 LIG-0.27  OA
BRANCH 9 12
ATOM     12  CA  GLY G 813     -28.565  32.996  23.085  1.00101.48 LIG 0.23  C 
BRANCH 12 13
ATOM     13  C   GLY G 813     -29.954  32.947  23.697  1.00102.44 LIG 0.24  C 
ATOM     14 O    GLY G 813     -30.544  31.872  23.795  1.00102.98 LIG-0.27  OA
ATOM     15  N   GLU G 814     -30.479  34.097  24.117  1.00102.70 LIG-0.34  N 
ATOM     16 H    GLU G 814     -30.078  34.857  24.072  1.00102.70 LIG 0.16  HD
BRANCH 15 17
ATOM     17  CA  GLU G 814     -31.820  34.149  24.704  1.00102.89 LIG 0.19  C 
BRANCH 17 18
ATOM     18  CB  GLU G 814     -31.993  35.410  25.561  1.00101.97 LIG 0.05  C 
BRANCH 18 19
ATOM     19  CG  GLU G 814     -31.403  35.321  26.956  1.00100.63 LIG 0.12  C 
BRANCH 19 20
ATOM     20  CD  GLU G 814     -31.938  34.134  27.744  1.00100.36 LIG 0.17  C 
ATOM     21 OE1  GLU G 814     -31.295  33.062  27.717  1.00 99.71 LIG-0.65  OA
ATOM     22 OE2  GLU G 814     -32.995  34.272  28.395  1.00 99.42 LIG-0.65  OA
ENDBRANCH 19 20
ENDBRANCH 18 19
ENDBRANCH 17 18
BRANCH 17 23
ATOM     23  C   GLU G 814     -32.891  34.141  23.610  1.00103.78 LIG 0.20  C 
ATOM     24 OXT  GLU G 814     -33.743  33.222  23.608  1.00104.07 LIG-0.65  OA
ATOM     25 O    GLU G 814     -32.871  35.062  22.764  1.00104.32 LIG-0.65  OA
ENDBRANCH 17 23
ENDBRANCH 15 17
ENDBRANCH 12 13
ENDBRANCH 9 12
ENDBRANCH 1 8
BRANCH 1 26
ATOM     26  N   HIS G 812     -27.101  33.787  18.886  1.00 98.48 LIG-0.35  N 
ATOM     27  C   GLY G 811     -27.710  34.954  19.107  1.00 98.46 LIG 0.24  C 
ATOM     28 O    GLY G 811     -28.711  35.093  19.821  1.00 98.78 LIG-0.27  OA
ATOM     29 H    HIS G 812     -26.424  33.721  18.359  1.00 98.48 LIG 0.16  HD
BRANCH 27 30
ATOM     30  CA  GLY G 811     -27.083  36.141  18.393  1.00 98.06 LIG 0.23  C 
BRANCH 30 31
ATOM     31  N   GLY G 811     -25.695  36.001  17.991  1.00 97.66 LIG-0.35  N 
ATOM     32 H    GLY G 811     -25.575  35.770  17.172  1.00 97.66 LIG 0.16  HD
ATOM     33  C   GLN G 810     -24.714  36.226  18.863  1.00 97.43 LIG 0.26  C 
ATOM     34 O    GLN G 810     -24.921  36.537  20.037  1.00 97.76 LIG-0.27  OA
BRANCH 33 35
ATOM     35  CA  GLN G 810     -23.286  36.063  18.343  1.00 96.79 LIG 0.40  C 
ATOM     36  N   GLN G 810     -22.810  37.329  17.714  1.00 96.61 LIG 0.61  N 
BRANCH 35 37
ATOM     37  CB  GLN G 810     -22.378  35.676  19.509  1.00 96.38 LIG 0.06  C 
BRANCH 37 38
ATOM     38  CG  GLN G 810     -21.591  34.388  19.327  1.00 95.56 LIG 0.10  C 
BRANCH 38 39
ATOM     39  CD  GLN G 810     -22.457  33.261  18.810  1.00 95.11 LIG 0.21  C 
ATOM     40  NE2 GLN G 810     -21.914  32.481  17.882  1.00 94.31 LIG-0.37  N 
ATOM     41 21HE GLN G 810     -21.113  32.633  17.608  1.00 94.31 LIG 0.16  HD
ATOM     42 22HE GLN G 810     -22.363  31.824  17.555  1.00 94.31 LIG 0.16  HD
ATOM     43 OE1  GLN G 810     -23.600  33.089  19.238  1.00 94.65 LIG-0.27  OA
ENDBRANCH 38 39
ENDBRANCH 37 38
ENDBRANCH 35 37
ENDBRANCH 33 35
ENDBRANCH 30 31
ENDBRANCH 27 30
ENDBRANCH 1 26
TORSDOF 17
ENDMDL
MODEL 35
USER: ADFR SOLUTION from run 122
USER: SCORE 8.851028 LL:  -2.052 LR:  -8.595 RR:   0.000 FEB:  -3.523
USER: RMSD 4.313608
USER: SEED 121
USER: STATUS no improvement in best in 27 clusters for 5 generations
USER: GENES 19
USER: genes 0 Translation |==|  0.37270 0.41281 0.46991
USER: genes 1 Rotation |==|  0.47969 0.46127 0.52660 0.99737
USER: genes 2 Torsion [C]-CA--CB-[CG] |==|  0.42595
USER: genes 3 Torsion [CA]-CB--CG-[CD2] |==|  0.70065
USER: genes 4 Torsion [N]-CA--C-[N] |==|  0.42547
USER: genes 5 Torsion [C]-N--CA-[C] |==|  0.24343
USER: genes 6 Torsion [N]-CA--C-[N] |==|  0.49024
USER: genes 7 Torsion [C]-N--CA-[CB] |==|  0.21331
USER: genes 8 Torsion [N]-CA--CB-[CG] |==|  0.11978
USER: genes 9 Torsion [CA]-CB--CG-[CD] |==|  0.67970
USER: genes 10 Torsion [CB]-CG--CD-[OE2] |==|  0.72464
USER: genes 11 Torsion [N]-CA--C-[OXT] |==|  0.33985
USER: genes 12 Torsion [CB]-CA--N-[C] |==|  0.42559
USER: genes 13 Torsion [N]-C--CA-[N] |==|  0.33966
USER: genes 14 Torsion [C]-CA--N-[C] |==|  0.32497
USER: genes 15 Torsion [N]-C--CA-[N] |==|  0.41353
USER: genes 16 Torsion [C]-CA--CB-[CG] |==|  0.42447
USER: genes 17 Torsion [CA]-CB--CG-[CD] |==|  0.52305
USER: genes 18 Torsion [CB]-CG--CD-[NE2] |==|  0.23340
ROOT
ATOM      1  CA  HIS G 812     -28.526  32.138  20.988  1.00 98.11 LIG 0.18  C 
ENDROOT
BRANCH 1 2
ATOM      2  CB  HIS G 812     -28.039  30.683  20.937  1.00 96.29 LIG 0.10  C 
BRANCH 2 3
ATOM      3  CG  HIS G 812     -28.210  29.993  19.613  1.00 94.00 LIG 0.06  A 
ATOM      4  CD2 HIS G 812     -29.061  29.026  19.219  1.00 93.71 LIG 0.14  A 
ATOM      5 NE2  HIS G 812     -28.663  28.611  17.965  1.00 93.19 LIG-0.25  NA
ATOM      6  CE1 HIS G 812     -27.605  29.320  17.607  1.00 92.78 LIG 0.23  A 
ATOM      7 ND1  HIS G 812     -27.314  30.163  18.576  1.00 93.58 LIG-0.24  NA
ENDBRANCH 2 3
ENDBRANCH 1 2
BRANCH 1 8
ATOM      8  C   HIS G 812     -28.897  32.416  22.442  1.00 99.25 LIG 0.24  C 
ATOM      9  N   GLY G 813     -30.151  32.188  22.810  1.00100.26 LIG-0.35  N 
ATOM     10 H    GLY G 813     -30.773  31.904  22.290  1.00100.26 LIG 0.16  HD
ATOM     11 O    HIS G 812     -28.036  32.812  23.230  1.00 99.52 LIG-0.27  OA
BRANCH 9 12
ATOM     12  CA  GLY G 813     -30.551  32.423  24.187  1.00101.48 LIG 0.23  C 
BRANCH 12 13
ATOM     13  C   GLY G 813     -30.995  33.852  24.444  1.00102.44 LIG 0.24  C 
ATOM     14 O    GLY G 813     -30.935  34.686  23.541  1.00102.98 LIG-0.27  OA
ATOM     15  N   GLU G 814     -31.449  34.143  25.662  1.00102.70 LIG-0.34  N 
ATOM     16 H    GLU G 814     -31.514  33.573  26.303  1.00102.70 LIG 0.16  HD
BRANCH 15 17
ATOM     17  CA  GLU G 814     -31.882  35.499  26.007  1.00102.89 LIG 0.19  C 
BRANCH 17 18
ATOM     18  CB  GLU G 814     -33.270  35.795  25.423  1.00101.97 LIG 0.05  C 
BRANCH 18 19
ATOM     19  CG  GLU G 814     -34.277  34.670  25.567  1.00100.63 LIG 0.12  C 
BRANCH 19 20
ATOM     20  CD  GLU G 814     -34.711  34.096  24.226  1.00100.36 LIG 0.17  C 
ATOM     21 OE1  GLU G 814     -33.968  33.259  23.667  1.00 99.71 LIG-0.65  OA
ATOM     22 OE2  GLU G 814     -35.794  34.474  23.732  1.00 99.42 LIG-0.65  OA
ENDBRANCH 19 20
ENDBRANCH 18 19
ENDBRANCH 17 18
BRANCH 17 23
ATOM     23  C   GLU G 814     -31.932  35.683  27.527  1.00103.78 LIG 0.20  C 
ATOM     24 OXT  GLU G 814     -31.247  36.594  28.046  1.00104.07 LIG-0.65  OA
ATOM     25 O    GLU G 814     -32.665  34.912  28.185  1.00104.32 LIG-0.65  OA
ENDBRANCH 17 23
ENDBRANCH 15 17
ENDBRANCH 12 13
ENDBRANCH 9 12
ENDBRANCH 1 8
BRANCH 1 26
ATOM     26  N   HIS G 812     -27.406  33.066  20.789  1.00 98.48 LIG-0.35  N 
ATOM     27  C   GLY G 811     -27.497  34.299  20.285  1.00 98.46 LIG 0.24  C 
ATOM     28 O    GLY G 811     -28.547  34.809  19.877  1.00 98.78 LIG-0.27  OA
ATOM     29 H    HIS G 812     -26.653  32.731  21.037  1.00 98.48 LIG 0.16  HD
BRANCH 27 30
ATOM     30  CA  GLY G 811     -26.182  35.060  20.232  1.00 98.06 LIG 0.23  C 
BRANCH 30 31
ATOM     31  N   GLY G 811     -25.754  35.534  18.928  1.00 97.66 LIG-0.35  N 
ATOM     32 H    GLY G 811     -25.597  34.917  18.351  1.00 97.66 LIG 0.16  HD
ATOM     33  C   GLN G 810     -25.630  36.839  18.692  1.00 97.43 LIG 0.26  C 
ATOM     34 O    GLN G 810     -25.844  37.697  19.549  1.00 97.76 LIG-0.27  OA
BRANCH 33 35
ATOM     35  CA  GLN G 810     -25.184  37.240  17.286  1.00 96.79 LIG 0.40  C 
ATOM     36  N   GLN G 810     -25.772  38.558  16.907  1.00 96.61 LIG 0.61  N 
BRANCH 35 37
ATOM     37  CB  GLN G 810     -23.660  37.311  17.253  1.00 96.38 LIG 0.06  C 
BRANCH 37 38
ATOM     38  CG  GLN G 810     -23.020  37.056  15.897  1.00 95.56 LIG 0.10  C 
BRANCH 38 39
ATOM     39  CD  GLN G 810     -21.515  36.946  15.991  1.00 95.11 LIG 0.21  C 
ATOM     40  NE2 GLN G 810     -21.033  35.753  16.324  1.00 94.31 LIG-0.37  N 
ATOM     41 21HE GLN G 810     -21.571  35.099  16.474  1.00 94.31 LIG 0.16  HD
ATOM     42 22HE GLN G 810     -20.184  35.635  16.390  1.00 94.31 LIG 0.16  HD
ATOM     43 OE1  GLN G 810     -20.790  37.916  15.765  1.00 94.65 LIG-0.27  OA
ENDBRANCH 38 39
ENDBRANCH 37 38
ENDBRANCH 35 37
ENDBRANCH 33 35
ENDBRANCH 30 31
ENDBRANCH 27 30
ENDBRANCH 1 26
TORSDOF 17
ENDMDL
MODEL 36
USER: ADFR SOLUTION from run 187
USER: SCORE 8.683545 LL:  -2.033 LR:  -8.535 RR:   0.000 FEB:  -3.463
USER: RMSD 4.806451
USER: SEED 186
USER: STATUS no improvement in best in 9 clusters for 5 generations
USER: GENES 19
USER: genes 0 Translation |==|  0.45569 0.36499 0.39194
USER: genes 1 Rotation |==|  0.59888 0.37550 0.43236 0.96920
USER: genes 2 Torsion [C]-CA--CB-[CG] |==|  0.16723
USER: genes 3 Torsion [CA]-CB--CG-[CD2] |==|  0.80262
USER: genes 4 Torsion [N]-CA--C-[N] |==|  0.26634
USER: genes 5 Torsion [C]-N--CA-[C] |==|  0.45442
USER: genes 6 Torsion [N]-CA--C-[N] |==|  0.42525
USER: genes 7 Torsion [C]-N--CA-[CB] |==|  0.41832
USER: genes 8 Torsion [N]-CA--CB-[CG] |==|  0.91542
USER: genes 9 Torsion [CA]-CB--CG-[CD] |==|  0.78740
USER: genes 10 Torsion [CB]-CG--CD-[OE2] |==|  0.93481
USER: genes 11 Torsion [N]-CA--C-[OXT] |==|  0.90490
USER: genes 12 Torsion [CB]-CA--N-[C] |==|  0.49150
USER: genes 13 Torsion [N]-C--CA-[N] |==|  0.32269
USER: genes 14 Torsion [C]-CA--N-[C] |==|  0.78755
USER: genes 15 Torsion [N]-C--CA-[N] |==|  0.30853
USER: genes 16 Torsion [C]-CA--CB-[CG] |==|  0.42751
USER: genes 17 Torsion [CA]-CB--CG-[CD] |==|  0.36805
USER: genes 18 Torsion [CB]-CG--CD-[NE2] |==|  0.48179
ROOT
ATOM      1  CA  HIS G 812     -26.908  31.242  19.059  1.00 98.11 LIG 0.18  C 
ENDROOT
BRANCH 1 2
ATOM      2  CB  HIS G 812     -26.759  29.889  18.349  1.00 96.29 LIG 0.10  C 
BRANCH 2 3
ATOM      3  CG  HIS G 812     -28.045  29.250  17.903  1.00 94.00 LIG 0.06  A 
ATOM      4  CD2 HIS G 812     -29.042  28.677  18.606  1.00 93.71 LIG 0.14  A 
ATOM      5 NE2  HIS G 812     -29.888  28.070  17.701  1.00 93.19 LIG-0.25  NA
ATOM      6  CE1 HIS G 812     -29.420  28.283  16.483  1.00 92.78 LIG 0.23  A 
ATOM      7 ND1  HIS G 812     -28.315  28.994  16.574  1.00 93.58 LIG-0.24  NA
ENDBRANCH 2 3
ENDBRANCH 1 2
BRANCH 1 8
ATOM      8  C   HIS G 812     -27.763  30.985  20.296  1.00 99.25 LIG 0.24  C 
ATOM      9  N   GLY G 813     -28.553  31.968  20.711  1.00100.26 LIG-0.35  N 
ATOM     10 H    GLY G 813     -28.613  32.741  20.341  1.00100.26 LIG 0.16  HD
ATOM     11 O    HIS G 812     -27.721  29.887  20.854  1.00 99.52 LIG-0.27  OA
BRANCH 9 12
ATOM     12  CA  GLY G 813     -29.398  31.769  21.876  1.00101.48 LIG 0.23  C 
BRANCH 12 13
ATOM     13  C   GLY G 813     -29.929  33.068  22.456  1.00102.44 LIG 0.24  C 
ATOM     14 O    GLY G 813     -29.302  34.114  22.296  1.00102.98 LIG-0.27  OA
ATOM     15  N   GLU G 814     -31.083  33.015  23.120  1.00102.70 LIG-0.34  N 
ATOM     16 H    GLU G 814     -31.545  32.298  23.229  1.00102.70 LIG 0.16  HD
BRANCH 15 17
ATOM     17  CA  GLU G 814     -31.663  34.214  23.728  1.00102.89 LIG 0.19  C 
BRANCH 17 18
ATOM     18  CB  GLU G 814     -33.194  34.119  23.773  1.00101.97 LIG 0.05  C 
BRANCH 18 19
ATOM     19  CG  GLU G 814     -33.818  33.314  22.650  1.00100.63 LIG 0.12  C 
BRANCH 19 20
ATOM     20  CD  GLU G 814     -33.854  34.074  21.332  1.00100.36 LIG 0.17  C 
ATOM     21 OE1  GLU G 814     -33.920  33.421  20.268  1.00 99.71 LIG-0.65  OA
ATOM     22 OE2  GLU G 814     -33.823  35.323  21.358  1.00 99.42 LIG-0.65  OA
ENDBRANCH 19 20
ENDBRANCH 18 19
ENDBRANCH 17 18
BRANCH 17 23
ATOM     23  C   GLU G 814     -31.135  34.408  25.153  1.00103.78 LIG 0.20  C 
ATOM     24 OXT  GLU G 814     -30.893  33.395  25.849  1.00104.07 LIG-0.65  OA
ATOM     25 O    GLU G 814     -30.963  35.579  25.559  1.00104.32 LIG-0.65  OA
ENDBRANCH 17 23
ENDBRANCH 15 17
ENDBRANCH 12 13
ENDBRANCH 9 12
ENDBRANCH 1 8
BRANCH 1 26
ATOM     26  N   HIS G 812     -25.634  31.652  19.663  1.00 98.48 LIG-0.35  N 
ATOM     27  C   GLY G 811     -25.411  32.802  20.302  1.00 98.46 LIG 0.24  C 
ATOM     28 O    GLY G 811     -26.250  33.701  20.432  1.00 98.78 LIG-0.27  OA
ATOM     29 H    HIS G 812     -25.018  31.060  19.565  1.00 98.48 LIG 0.16  HD
BRANCH 27 30
ATOM     30  CA  GLY G 811     -24.008  32.949  20.870  1.00 98.06 LIG 0.23  C 
BRANCH 30 31
ATOM     31  N   GLY G 811     -23.189  34.015  20.319  1.00 97.66 LIG-0.35  N 
ATOM     32 H    GLY G 811     -23.112  34.709  20.820  1.00 97.66 LIG 0.16  HD
ATOM     33  C   GLN G 810     -22.622  33.879  19.122  1.00 97.43 LIG 0.26  C 
ATOM     34 O    GLN G 810     -22.771  32.878  18.421  1.00 97.76 LIG-0.27  OA
BRANCH 33 35
ATOM     35  CA  GLN G 810     -21.771  35.051  18.632  1.00 96.79 LIG 0.40  C 
ATOM     36  N   GLN G 810     -20.328  34.671  18.599  1.00 96.61 LIG 0.61  N 
BRANCH 35 37
ATOM     37  CB  GLN G 810     -22.244  35.455  17.238  1.00 96.38 LIG 0.06  C 
BRANCH 37 38
ATOM     38  CG  GLN G 810     -21.984  36.903  16.852  1.00 95.56 LIG 0.10  C 
BRANCH 38 39
ATOM     39  CD  GLN G 810     -21.372  37.022  15.474  1.00 95.11 LIG 0.21  C 
ATOM     40  NE2 GLN G 810     -21.234  38.255  14.998  1.00 94.31 LIG-0.37  N 
ATOM     41 21HE GLN G 810     -21.490  38.929  15.467  1.00 94.31 LIG 0.16  HD
ATOM     42 22HE GLN G 810     -20.890  38.380  14.219  1.00 94.31 LIG 0.16  HD
ATOM     43 OE1  GLN G 810     -21.023  36.023  14.844  1.00 94.65 LIG-0.27  OA
ENDBRANCH 38 39
ENDBRANCH 37 38
ENDBRANCH 35 37
ENDBRANCH 33 35
ENDBRANCH 30 31
ENDBRANCH 27 30
ENDBRANCH 1 26
TORSDOF 17
ENDMDL
MODEL 37
USER: ADFR SOLUTION from run 21
USER: SCORE 9.031604 LL:  -2.071 LR:  -8.442 RR:   0.000 FEB:  -3.371
USER: RMSD 3.690476
USER: SEED 20
USER: STATUS no improvement in best in 24 clusters for 5 generations
USER: GENES 19
USER: genes 0 Translation |==|  0.42600 0.43206 0.40841
USER: genes 1 Rotation |==|  0.47144 0.55270 0.65551 0.97141
USER: genes 2 Torsion [C]-CA--CB-[CG] |==|  0.35012
USER: genes 3 Torsion [CA]-CB--CG-[CD2] |==|  0.35030
USER: genes 4 Torsion [N]-CA--C-[N] |==|  0.33039
USER: genes 5 Torsion [C]-N--CA-[C] |==|  0.48454
USER: genes 6 Torsion [N]-CA--C-[N] |==|  0.68769
USER: genes 7 Torsion [C]-N--CA-[CB] |==|  0.44162
USER: genes 8 Torsion [N]-CA--CB-[CG] |==|  0.77598
USER: genes 9 Torsion [CA]-CB--CG-[CD] |==|  0.84605
USER: genes 10 Torsion [CB]-CG--CD-[OE2] |==|  0.75734
USER: genes 11 Torsion [N]-CA--C-[OXT] |==|  0.33620
USER: genes 12 Torsion [CB]-CA--N-[C] |==|  0.52845
USER: genes 13 Torsion [N]-C--CA-[N] |==|  0.93064
USER: genes 14 Torsion [C]-CA--N-[C] |==|  0.76667
USER: genes 15 Torsion [N]-C--CA-[N] |==|  0.75829
USER: genes 16 Torsion [C]-CA--CB-[CG] |==|  0.19972
USER: genes 17 Torsion [CA]-CB--CG-[CD] |==|  0.68385
USER: genes 18 Torsion [CB]-CG--CD-[NE2] |==|  0.26576
ROOT
ATOM      1  CA  HIS G 812     -27.487  32.499  19.466  1.00 98.11 LIG 0.18  C 
ENDROOT
BRANCH 1 2
ATOM      2  CB  HIS G 812     -26.394  31.447  19.230  1.00 96.29 LIG 0.10  C 
BRANCH 2 3
ATOM      3  CG  HIS G 812     -26.853  30.180  18.563  1.00 94.00 LIG 0.06  A 
ATOM      4  CD2 HIS G 812     -26.409  29.547  17.460  1.00 93.71 LIG 0.14  A 
ATOM      5 NE2  HIS G 812     -27.308  28.541  17.172  1.00 93.19 LIG-0.25  NA
ATOM      6  CE1 HIS G 812     -28.263  28.559  18.086  1.00 92.78 LIG 0.23  A 
ATOM      7 ND1  HIS G 812     -28.012  29.532  18.939  1.00 93.58 LIG-0.24  NA
ENDBRANCH 2 3
ENDBRANCH 1 2
BRANCH 1 8
ATOM      8  C   HIS G 812     -27.440  32.841  20.952  1.00 99.25 LIG 0.24  C 
ATOM      9  N   GLY G 813     -28.565  32.722  21.645  1.00100.26 LIG-0.35  N 
ATOM     10 H    GLY G 813     -29.321  32.475  21.319  1.00100.26 LIG 0.16  HD
ATOM     11 O    HIS G 812     -26.376  33.187  21.469  1.00 99.52 LIG-0.27  OA
BRANCH 9 12
ATOM     12  CA  GLY G 813     -28.571  33.021  23.067  1.00101.48 LIG 0.23  C 
BRANCH 12 13
ATOM     13  C   GLY G 813     -29.957  32.965  23.683  1.00102.44 LIG 0.24  C 
ATOM     14 O    GLY G 813     -30.544  31.888  23.779  1.00102.98 LIG-0.27  OA
ATOM     15  N   GLU G 814     -30.484  34.112  24.110  1.00102.70 LIG-0.34  N 
ATOM     16 H    GLU G 814     -30.085  34.873  24.067  1.00102.70 LIG 0.16  HD
BRANCH 15 17
ATOM     17  CA  GLU G 814     -31.823  34.158  24.702  1.00102.89 LIG 0.19  C 
BRANCH 17 18
ATOM     18  CB  GLU G 814     -31.998  35.416  25.563  1.00101.97 LIG 0.05  C 
BRANCH 18 19
ATOM     19  CG  GLU G 814     -31.407  35.325  26.956  1.00100.63 LIG 0.12  C 
BRANCH 19 20
ATOM     20  CD  GLU G 814     -31.937  34.134  27.741  1.00100.36 LIG 0.17  C 
ATOM     21 OE1  GLU G 814     -31.293  33.062  27.705  1.00 99.71 LIG-0.65  OA
ATOM     22 OE2  GLU G 814     -32.990  34.269  28.399  1.00 99.42 LIG-0.65  OA
ENDBRANCH 19 20
ENDBRANCH 18 19
ENDBRANCH 17 18
BRANCH 17 23
ATOM     23  C   GLU G 814     -32.898  34.148  23.611  1.00103.78 LIG 0.20  C 
ATOM     24 OXT  GLU G 814     -33.744  33.224  23.607  1.00104.07 LIG-0.65  OA
ATOM     25 O    GLU G 814     -32.887  35.074  22.769  1.00104.32 LIG-0.65  OA
ENDBRANCH 17 23
ENDBRANCH 15 17
ENDBRANCH 12 13
ENDBRANCH 9 12
ENDBRANCH 1 8
BRANCH 1 26
ATOM     26  N   HIS G 812     -27.110  33.782  18.859  1.00 98.48 LIG-0.35  N 
ATOM     27  C   GLY G 811     -27.739  34.944  19.043  1.00 98.46 LIG 0.24  C 
ATOM     28 O    GLY G 811     -28.760  35.084  19.727  1.00 98.78 LIG-0.27  OA
ATOM     29 H    HIS G 812     -26.418  33.715  18.352  1.00 98.48 LIG 0.16  HD
BRANCH 27 30
ATOM     30  CA  GLY G 811     -27.106  36.127  18.326  1.00 98.06 LIG 0.23  C 
BRANCH 30 31
ATOM     31  N   GLY G 811     -25.689  36.025  18.026  1.00 97.66 LIG-0.35  N 
ATOM     32 H    GLY G 811     -25.505  35.750  17.233  1.00 97.66 LIG 0.16  HD
ATOM     33  C   GLN G 810     -24.780  36.347  18.944  1.00 97.43 LIG 0.26  C 
ATOM     34 O    GLN G 810     -25.079  36.720  20.079  1.00 97.76 LIG-0.27  OA
BRANCH 33 35
ATOM     35  CA  GLN G 810     -23.314  36.217  18.531  1.00 96.79 LIG 0.40  C 
ATOM     36  N   GLN G 810     -22.823  34.829  18.776  1.00 96.61 LIG 0.61  N 
BRANCH 35 37
ATOM     37  CB  GLN G 810     -23.186  36.570  17.051  1.00 96.38 LIG 0.06  C 
BRANCH 37 38
ATOM     38  CG  GLN G 810     -23.350  38.044  16.713  1.00 95.56 LIG 0.10  C 
BRANCH 38 39
ATOM     39  CD  GLN G 810     -24.591  38.302  15.887  1.00 95.11 LIG 0.21  C 
ATOM     40  NE2 GLN G 810     -25.675  38.676  16.559  1.00 94.31 LIG-0.37  N 
ATOM     41 21HE GLN G 810     -25.645  38.756  17.414  1.00 94.31 LIG 0.16  HD
ATOM     42 22HE GLN G 810     -26.408  38.836  16.137  1.00 94.31 LIG 0.16  HD
ATOM     43 OE1  GLN G 810     -24.579  38.171  14.662  1.00 94.65 LIG-0.27  OA
ENDBRANCH 38 39
ENDBRANCH 37 38
ENDBRANCH 35 37
ENDBRANCH 33 35
ENDBRANCH 30 31
ENDBRANCH 27 30
ENDBRANCH 1 26
TORSDOF 17
ENDMDL
MODEL 38
USER: ADFR SOLUTION from run 154
USER: SCORE 9.832392 LL:  -2.269 LR:  -8.429 RR:   0.000 FEB:  -3.357
USER: RMSD 4.246053
USER: SEED 153
USER: STATUS no improvement in best in 17 clusters for 5 generations
USER: GENES 19
USER: genes 0 Translation |==|  0.45414 0.43177 0.42404
USER: genes 1 Rotation |==|  0.47056 0.59938 0.66950 0.95883
USER: genes 2 Torsion [C]-CA--CB-[CG] |==|  0.87376
USER: genes 3 Torsion [CA]-CB--CG-[CD2] |==|  0.73064
USER: genes 4 Torsion [N]-CA--C-[N] |==|  0.50803
USER: genes 5 Torsion [C]-N--CA-[C] |==|  0.21060
USER: genes 6 Torsion [N]-CA--C-[N] |==|  0.09304
USER: genes 7 Torsion [C]-N--CA-[CB] |==|  0.45155
USER: genes 8 Torsion [N]-CA--CB-[CG] |==|  0.58622
USER: genes 9 Torsion [CA]-CB--CG-[CD] |==|  0.52008
USER: genes 10 Torsion [CB]-CG--CD-[OE2] |==|  0.70485
USER: genes 11 Torsion [N]-CA--C-[OXT] |==|  0.45568
USER: genes 12 Torsion [CB]-CA--N-[C] |==|  0.50000
USER: genes 13 Torsion [N]-C--CA-[N] |==|  0.93978
USER: genes 14 Torsion [C]-CA--N-[C] |==|  0.74054
USER: genes 15 Torsion [N]-C--CA-[N] |==|  0.78876
USER: genes 16 Torsion [C]-CA--CB-[CG] |==|  0.41749
USER: genes 17 Torsion [CA]-CB--CG-[CD] |==|  0.25089
USER: genes 18 Torsion [CB]-CG--CD-[NE2] |==|  0.77999
ROOT
ATOM      1  CA  HIS G 812     -26.938  32.494  19.853  1.00 98.11 LIG 0.18  C 
ENDROOT
BRANCH 1 2
ATOM      2  CB  HIS G 812     -25.842  31.487  19.476  1.00 96.29 LIG 0.10  C 
BRANCH 2 3
ATOM      3  CG  HIS G 812     -24.442  31.891  19.848  1.00 94.00 LIG 0.06  A 
ATOM      4  CD2 HIS G 812     -23.465  32.476  19.127  1.00 93.71 LIG 0.14  A 
ATOM      5 NE2  HIS G 812     -22.314  32.439  19.886  1.00 93.19 LIG-0.25  NA
ATOM      6  CE1 HIS G 812     -22.593  31.858  21.040  1.00 92.78 LIG 0.23  A 
ATOM      7 ND1  HIS G 812     -23.867  31.523  21.048  1.00 93.58 LIG-0.24  NA
ENDBRANCH 2 3
ENDBRANCH 1 2
BRANCH 1 8
ATOM      8  C   HIS G 812     -26.645  32.931  21.285  1.00 99.25 LIG 0.24  C 
ATOM      9  N   GLY G 813     -26.662  31.998  22.228  1.00100.26 LIG-0.35  N 
ATOM     10 H    GLY G 813     -26.834  31.166  22.095  1.00100.26 LIG 0.16  HD
ATOM     11 O    HIS G 812     -26.379  34.111  21.524  1.00 99.52 LIG-0.27  OA
BRANCH 9 12
ATOM     12  CA  GLY G 813     -26.375  32.360  23.605  1.00101.48 LIG 0.23  C 
BRANCH 12 13
ATOM     13  C   GLY G 813     -27.529  33.073  24.288  1.00102.44 LIG 0.24  C 
ATOM     14 O    GLY G 813     -27.303  33.947  25.123  1.00102.98 LIG-0.27  OA
ATOM     15  N   GLU G 814     -28.763  32.716  23.936  1.00102.70 LIG-0.34  N 
ATOM     16 H    GLU G 814     -28.943  32.118  23.343  1.00102.70 LIG 0.16  HD
BRANCH 15 17
ATOM     17  CA  GLU G 814     -29.938  33.336  24.553  1.00102.89 LIG 0.19  C 
BRANCH 17 18
ATOM     18  CB  GLU G 814     -31.195  33.091  23.707  1.00101.97 LIG 0.05  C 
BRANCH 18 19
ATOM     19  CG  GLU G 814     -32.235  34.192  23.775  1.00100.63 LIG 0.12  C 
BRANCH 19 20
ATOM     20  CD  GLU G 814     -33.528  33.822  23.062  1.00100.36 LIG 0.17  C 
ATOM     21 OE1  GLU G 814     -34.294  32.998  23.608  1.00 99.71 LIG-0.65  OA
ATOM     22 OE2  GLU G 814     -33.783  34.357  21.963  1.00 99.42 LIG-0.65  OA
ENDBRANCH 19 20
ENDBRANCH 18 19
ENDBRANCH 17 18
BRANCH 17 23
ATOM     23  C   GLU G 814     -30.169  32.777  25.961  1.00103.78 LIG 0.20  C 
ATOM     24 OXT  GLU G 814     -30.930  33.398  26.738  1.00104.07 LIG-0.65  OA
ATOM     25 O    GLU G 814     -29.587  31.713  26.271  1.00104.32 LIG-0.65  OA
ENDBRANCH 17 23
ENDBRANCH 15 17
ENDBRANCH 12 13
ENDBRANCH 9 12
ENDBRANCH 1 8
BRANCH 1 26
ATOM     26  N   HIS G 812     -26.759  33.753  19.120  1.00 98.48 LIG-0.35  N 
ATOM     27  C   GLY G 811     -27.541  34.830  19.220  1.00 98.46 LIG 0.24  C 
ATOM     28 O    GLY G 811     -28.557  34.890  19.924  1.00 98.78 LIG-0.27  OA
ATOM     29 H    HIS G 812     -26.076  33.735  18.598  1.00 98.48 LIG 0.16  HD
BRANCH 27 30
ATOM     30  CA  GLY G 811     -27.097  36.016  18.378  1.00 98.06 LIG 0.23  C 
BRANCH 30 31
ATOM     31  N   GLY G 811     -25.702  36.045  17.977  1.00 97.66 LIG-0.35  N 
ATOM     32 H    GLY G 811     -25.524  35.619  17.252  1.00 97.66 LIG 0.16  HD
ATOM     33  C   GLN G 810     -24.802  36.696  18.712  1.00 97.43 LIG 0.26  C 
ATOM     34 O    GLN G 810     -25.088  37.279  19.758  1.00 97.76 LIG-0.27  OA
BRANCH 33 35
ATOM     35  CA  GLN G 810     -23.361  36.678  18.203  1.00 96.79 LIG 0.40  C 
ATOM     36  N   GLN G 810     -22.727  35.355  18.476  1.00 96.61 LIG 0.61  N 
BRANCH 35 37
ATOM     37  CB  GLN G 810     -23.364  36.964  16.703  1.00 96.38 LIG 0.06  C 
BRANCH 37 38
ATOM     38  CG  GLN G 810     -22.123  37.661  16.166  1.00 95.56 LIG 0.10  C 
BRANCH 38 39
ATOM     39  CD  GLN G 810     -21.067  36.676  15.720  1.00 95.11 LIG 0.21  C 
ATOM     40  NE2 GLN G 810     -20.328  36.131  16.681  1.00 94.31 LIG-0.37  N 
ATOM     41 21HE GLN G 810     -20.464  36.347  17.502  1.00 94.31 LIG 0.16  HD
ATOM     42 22HE GLN G 810     -19.713  35.563  16.482  1.00 94.31 LIG 0.16  HD
ATOM     43 OE1  GLN G 810     -20.914  36.403  14.528  1.00 94.65 LIG-0.27  OA
ENDBRANCH 38 39
ENDBRANCH 37 38
ENDBRANCH 35 37
ENDBRANCH 33 35
ENDBRANCH 30 31
ENDBRANCH 27 30
ENDBRANCH 1 26
TORSDOF 17
ENDMDL
MODEL 39
USER: ADFR SOLUTION from run 176
USER: SCORE 8.793033 LL:  -2.729 LR:  -8.417 RR:   0.000 FEB:  -3.346
USER: RMSD 5.090558
USER: SEED 175
USER: STATUS no improvement in best in 4 clusters for 5 generations
USER: GENES 19
USER: genes 0 Translation |==|  0.37494 0.39315 0.46695
USER: genes 1 Rotation |==|  0.43026 0.40231 0.34848 0.96112
USER: genes 2 Torsion [C]-CA--CB-[CG] |==|  0.46079
USER: genes 3 Torsion [CA]-CB--CG-[CD2] |==|  0.64394
USER: genes 4 Torsion [N]-CA--C-[N] |==|  0.60776
USER: genes 5 Torsion [C]-N--CA-[C] |==|  0.77377
USER: genes 6 Torsion [N]-CA--C-[N] |==|  0.08183
USER: genes 7 Torsion [C]-N--CA-[CB] |==|  0.45517
USER: genes 8 Torsion [N]-CA--CB-[CG] |==|  0.11300
USER: genes 9 Torsion [CA]-CB--CG-[CD] |==|  0.56908
USER: genes 10 Torsion [CB]-CG--CD-[OE2] |==|  0.53574
USER: genes 11 Torsion [N]-CA--C-[OXT] |==|  0.36800
USER: genes 12 Torsion [CB]-CA--N-[C] |==|  0.29026
USER: genes 13 Torsion [N]-C--CA-[N] |==|  0.50786
USER: genes 14 Torsion [C]-CA--N-[C] |==|  0.32778
USER: genes 15 Torsion [N]-C--CA-[N] |==|  0.40516
USER: genes 16 Torsion [C]-CA--CB-[CG] |==|  0.27391
USER: genes 17 Torsion [CA]-CB--CG-[CD] |==|  0.64679
USER: genes 18 Torsion [CB]-CG--CD-[NE2] |==|  0.26511
ROOT
ATOM      1  CA  HIS G 812     -28.483  31.770  20.915  1.00 98.11 LIG 0.18  C 
ENDROOT
BRANCH 1 2
ATOM      2  CB  HIS G 812     -29.102  30.371  21.052  1.00 96.29 LIG 0.10  C 
BRANCH 2 3
ATOM      3  CG  HIS G 812     -29.131  29.553  19.791  1.00 94.00 LIG 0.06  A 
ATOM      4  CD2 HIS G 812     -30.138  28.900  19.179  1.00 93.71 LIG 0.14  A 
ATOM      5 NE2  HIS G 812     -29.583  28.142  18.168  1.00 93.19 LIG-0.25  NA
ATOM      6  CE1 HIS G 812     -28.276  28.345  18.163  1.00 92.78 LIG 0.23  A 
ATOM      7 ND1  HIS G 812     -27.976  29.193  19.125  1.00 93.58 LIG-0.24  NA
ENDBRANCH 2 3
ENDBRANCH 1 2
BRANCH 1 8
ATOM      8  C   HIS G 812     -28.872  32.537  22.174  1.00 99.25 LIG 0.24  C 
ATOM      9  N   GLY G 813     -29.975  32.159  22.808  1.00100.26 LIG-0.35  N 
ATOM     10 H    GLY G 813     -30.492  31.519  22.558  1.00100.26 LIG 0.16  HD
ATOM     11 O    HIS G 812     -28.155  33.454  22.581  1.00 99.52 LIG-0.27  OA
BRANCH 9 12
ATOM     12  CA  GLY G 813     -30.381  32.848  24.021  1.00101.48 LIG 0.23  C 
BRANCH 12 13
ATOM     13  C   GLY G 813     -29.644  32.364  25.257  1.00102.44 LIG 0.24  C 
ATOM     14 O    GLY G 813     -30.195  32.405  26.356  1.00102.98 LIG-0.27  OA
ATOM     15  N   GLU G 814     -28.407  31.898  25.089  1.00102.70 LIG-0.34  N 
ATOM     16 H    GLU G 814     -28.009  31.846  24.328  1.00102.70 LIG 0.16  HD
BRANCH 15 17
ATOM     17  CA  GLU G 814     -27.613  31.427  26.226  1.00102.89 LIG 0.19  C 
BRANCH 17 18
ATOM     18  CB  GLU G 814     -26.419  30.589  25.750  1.00101.97 LIG 0.05  C 
BRANCH 18 19
ATOM     19  CG  GLU G 814     -25.714  31.122  24.518  1.00100.63 LIG 0.12  C 
BRANCH 19 20
ATOM     20  CD  GLU G 814     -24.984  30.035  23.743  1.00100.36 LIG 0.17  C 
ATOM     21 OE1  GLU G 814     -25.228  28.840  24.019  1.00 99.71 LIG-0.65  OA
ATOM     22 OE2  GLU G 814     -24.171  30.372  22.857  1.00 99.42 LIG-0.65  OA
ENDBRANCH 19 20
ENDBRANCH 18 19
ENDBRANCH 17 18
BRANCH 17 23
ATOM     23  C   GLU G 814     -27.094  32.608  27.052  1.00103.78 LIG 0.20  C 
ATOM     24 OXT  GLU G 814     -27.223  32.576  28.297  1.00104.07 LIG-0.65  OA
ATOM     25 O    GLU G 814     -26.554  33.557  26.440  1.00104.32 LIG-0.65  OA
ENDBRANCH 17 23
ENDBRANCH 15 17
ENDBRANCH 12 13
ENDBRANCH 9 12
ENDBRANCH 1 8
BRANCH 1 26
ATOM     26  N   HIS G 812     -27.022  31.704  21.052  1.00 98.48 LIG-0.35  N 
ATOM     27  C   GLY G 811     -26.142  31.796  20.053  1.00 98.46 LIG 0.24  C 
ATOM     28 O    GLY G 811     -26.451  31.909  18.861  1.00 98.78 LIG-0.27  OA
ATOM     29 H    HIS G 812     -26.773  31.597  21.869  1.00 98.48 LIG 0.16  HD
BRANCH 27 30
ATOM     30  CA  GLY G 811     -24.685  31.741  20.485  1.00 98.06 LIG 0.23  C 
BRANCH 30 31
ATOM     31  N   GLY G 811     -23.689  31.901  19.441  1.00 97.66 LIG-0.35  N 
ATOM     32 H    GLY G 811     -23.701  31.295  18.832  1.00 97.66 LIG 0.16  HD
ATOM     33  C   GLN G 810     -22.840  32.926  19.470  1.00 97.43 LIG 0.26  C 
ATOM     34 O    GLN G 810     -22.835  33.766  20.371  1.00 97.76 LIG-0.27  OA
BRANCH 33 35
ATOM     35  CA  GLN G 810     -21.834  33.014  18.322  1.00 96.79 LIG 0.40  C 
ATOM     36  N   GLN G 810     -21.554  34.439  17.980  1.00 96.61 LIG 0.61  N 
BRANCH 35 37
ATOM     37  CB  GLN G 810     -20.546  32.307  18.739  1.00 96.38 LIG 0.06  C 
BRANCH 37 38
ATOM     38  CG  GLN G 810     -20.386  30.883  18.230  1.00 95.56 LIG 0.10  C 
BRANCH 38 39
ATOM     39  CD  GLN G 810     -20.087  29.910  19.349  1.00 95.11 LIG 0.21  C 
ATOM     40  NE2 GLN G 810     -21.129  29.263  19.859  1.00 94.31 LIG-0.37  N 
ATOM     41 21HE GLN G 810     -21.919  29.411  19.552  1.00 94.31 LIG 0.16  HD
ATOM     42 22HE GLN G 810     -21.014  28.697  20.496  1.00 94.31 LIG 0.16  HD
ATOM     43 OE1  GLN G 810     -18.935  29.738  19.750  1.00 94.65 LIG-0.27  OA
ENDBRANCH 38 39
ENDBRANCH 37 38
ENDBRANCH 35 37
ENDBRANCH 33 35
ENDBRANCH 30 31
ENDBRANCH 27 30
ENDBRANCH 1 26
TORSDOF 17
ENDMDL
MODEL 40
USER: ADFR SOLUTION from run 48
USER: SCORE 9.542757 LL:  -2.170 LR:  -8.382 RR:   0.000 FEB:  -3.311
USER: RMSD 2.777920
USER: SEED 47
USER: STATUS no improvement in best in 19 clusters for 5 generations
USER: GENES 19
USER: genes 0 Translation |==|  0.44044 0.43400 0.42369
USER: genes 1 Rotation |==|  0.44283 0.58250 0.67209 0.95860
USER: genes 2 Torsion [C]-CA--CB-[CG] |==|  0.88033
USER: genes 3 Torsion [CA]-CB--CG-[CD2] |==|  0.76373
USER: genes 4 Torsion [N]-CA--C-[N] |==|  0.40131
USER: genes 5 Torsion [C]-N--CA-[C] |==|  0.45663
USER: genes 6 Torsion [N]-CA--C-[N] |==|  0.42541
USER: genes 7 Torsion [C]-N--CA-[CB] |==|  0.39032
USER: genes 8 Torsion [N]-CA--CB-[CG] |==|  0.47925
USER: genes 9 Torsion [CA]-CB--CG-[CD] |==|  0.51187
USER: genes 10 Torsion [CB]-CG--CD-[OE2] |==|  0.36037
USER: genes 11 Torsion [N]-CA--C-[OXT] |==|  0.90703
USER: genes 12 Torsion [CB]-CA--N-[C] |==|  0.52970
USER: genes 13 Torsion [N]-C--CA-[N] |==|  0.90727
USER: genes 14 Torsion [C]-CA--N-[C] |==|  0.76128
USER: genes 15 Torsion [N]-C--CA-[N] |==|  0.75770
USER: genes 16 Torsion [C]-CA--CB-[CG] |==|  0.41059
USER: genes 17 Torsion [CA]-CB--CG-[CD] |==|  0.27789
USER: genes 18 Torsion [CB]-CG--CD-[NE2] |==|  0.80050
ROOT
ATOM      1  CA  HIS G 812     -27.205  32.536  19.844  1.00 98.11 LIG 0.18  C 
ENDROOT
BRANCH 1 2
ATOM      2  CB  HIS G 812     -26.045  31.548  19.656  1.00 96.29 LIG 0.10  C 
BRANCH 2 3
ATOM      3  CG  HIS G 812     -24.714  32.011  20.179  1.00 94.00 LIG 0.06  A 
ATOM      4  CD2 HIS G 812     -23.756  32.775  19.618  1.00 93.71 LIG 0.14  A 
ATOM      5 NE2  HIS G 812     -22.653  32.726  20.445  1.00 93.19 LIG-0.25  NA
ATOM      6  CE1 HIS G 812     -22.944  31.963  21.485  1.00 92.78 LIG 0.23  A 
ATOM      7 ND1  HIS G 812     -24.179  31.523  21.354  1.00 93.58 LIG-0.24  NA
ENDBRANCH 2 3
ENDBRANCH 1 2
BRANCH 1 8
ATOM      8  C   HIS G 812     -27.071  33.090  21.259  1.00 99.25 LIG 0.24  C 
ATOM      9  N   GLY G 813     -27.847  32.567  22.200  1.00100.26 LIG-0.35  N 
ATOM     10 H    GLY G 813     -28.425  31.945  22.072  1.00100.26 LIG 0.16  HD
ATOM     11 O    HIS G 812     -26.245  33.974  21.496  1.00 99.52 LIG-0.27  OA
BRANCH 9 12
ATOM     12  CA  GLY G 813     -27.747  33.050  23.567  1.00101.48 LIG 0.23  C 
BRANCH 12 13
ATOM     13  C   GLY G 813     -28.926  32.641  24.432  1.00102.44 LIG 0.24  C 
ATOM     14 O    GLY G 813     -30.019  32.418  23.913  1.00102.98 LIG-0.27  OA
ATOM     15  N   GLU G 814     -28.715  32.532  25.742  1.00102.70 LIG-0.34  N 
ATOM     16 H    GLU G 814     -27.956  32.668  26.123  1.00102.70 LIG 0.16  HD
BRANCH 15 17
ATOM     17  CA  GLU G 814     -29.797  32.160  26.656  1.00102.89 LIG 0.19  C 
BRANCH 17 18
ATOM     18  CB  GLU G 814     -29.290  31.205  27.745  1.00101.97 LIG 0.05  C 
BRANCH 18 19
ATOM     19  CG  GLU G 814     -30.290  30.900  28.844  1.00100.63 LIG 0.12  C 
BRANCH 19 20
ATOM     20  CD  GLU G 814     -29.702  30.034  29.949  1.00100.36 LIG 0.17  C 
ATOM     21 OE1  GLU G 814     -29.095  28.988  29.627  1.00 99.71 LIG-0.65  OA
ATOM     22 OE2  GLU G 814     -29.839  30.398  31.136  1.00 99.42 LIG-0.65  OA
ENDBRANCH 19 20
ENDBRANCH 18 19
ENDBRANCH 17 18
BRANCH 17 23
ATOM     23  C   GLU G 814     -30.394  33.403  27.324  1.00103.78 LIG 0.20  C 
ATOM     24 OXT  GLU G 814     -29.641  34.370  27.578  1.00104.07 LIG-0.65  OA
ATOM     25 O    GLU G 814     -31.619  33.398  27.582  1.00104.32 LIG-0.65  OA
ENDBRANCH 17 23
ENDBRANCH 15 17
ENDBRANCH 12 13
ENDBRANCH 9 12
ENDBRANCH 1 8
BRANCH 1 26
ATOM     26  N   HIS G 812     -26.994  33.743  19.035  1.00 98.48 LIG-0.35  N 
ATOM     27  C   GLY G 811     -27.703  34.871  19.122  1.00 98.46 LIG 0.24  C 
ATOM     28 O    GLY G 811     -28.669  35.031  19.877  1.00 98.78 LIG-0.27  OA
ATOM     29 H    HIS G 812     -26.345  33.655  18.478  1.00 98.48 LIG 0.16  HD
BRANCH 27 30
ATOM     30  CA  GLY G 811     -27.238  35.982  18.193  1.00 98.06 LIG 0.23  C 
BRANCH 30 31
ATOM     31  N   GLY G 811     -25.813  36.054  17.923  1.00 97.66 LIG-0.35  N 
ATOM     32 H    GLY G 811     -25.558  35.644  17.212  1.00 97.66 LIG 0.16  HD
ATOM     33  C   GLN G 810     -25.003  36.717  18.745  1.00 97.43 LIG 0.26  C 
ATOM     34 O    GLN G 810     -25.400  37.277  19.768  1.00 97.76 LIG-0.27  OA
BRANCH 33 35
ATOM     35  CA  GLN G 810     -23.521  36.744  18.371  1.00 96.79 LIG 0.40  C 
ATOM     36  N   GLN G 810     -22.820  35.548  18.925  1.00 96.61 LIG 0.61  N 
BRANCH 35 37
ATOM     37  CB  GLN G 810     -23.397  36.772  16.850  1.00 96.38 LIG 0.06  C 
BRANCH 37 38
ATOM     38  CG  GLN G 810     -22.196  37.529  16.304  1.00 95.56 LIG 0.10  C 
BRANCH 38 39
ATOM     39  CD  GLN G 810     -21.069  36.600  15.911  1.00 95.11 LIG 0.21  C 
ATOM     40  NE2 GLN G 810     -20.410  36.023  16.910  1.00 94.31 LIG-0.37  N 
ATOM     41 21HE GLN G 810     -20.631  36.189  17.724  1.00 94.31 LIG 0.16  HD
ATOM     42 22HE GLN G 810     -19.760  35.484  16.742  1.00 94.31 LIG 0.16  HD
ATOM     43 OE1  GLN G 810     -20.794  36.398  14.728  1.00 94.65 LIG-0.27  OA
ENDBRANCH 38 39
ENDBRANCH 37 38
ENDBRANCH 35 37
ENDBRANCH 33 35
ENDBRANCH 30 31
ENDBRANCH 27 30
ENDBRANCH 1 26
TORSDOF 17
ENDMDL
MODEL 41
USER: ADFR SOLUTION from run 99
USER: SCORE 9.678969 LL:  -2.417 LR:  -8.365 RR:   0.000 FEB:  -3.294
USER: RMSD 4.630511
USER: SEED 98
USER: STATUS no improvement in best in 17 clusters for 5 generations
USER: GENES 19
USER: genes 0 Translation |==|  0.45619 0.40835 0.40338
USER: genes 1 Rotation |==|  0.55532 0.44679 0.51272 0.99391
USER: genes 2 Torsion [C]-CA--CB-[CG] |==|  0.22841
USER: genes 3 Torsion [CA]-CB--CG-[CD2] |==|  0.82285
USER: genes 4 Torsion [N]-CA--C-[N] |==|  0.31524
USER: genes 5 Torsion [C]-N--CA-[C] |==|  0.36667
USER: genes 6 Torsion [N]-CA--C-[N] |==|  0.45141
USER: genes 7 Torsion [C]-N--CA-[CB] |==|  0.27398
USER: genes 8 Torsion [N]-CA--CB-[CG] |==|  0.01371
USER: genes 9 Torsion [CA]-CB--CG-[CD] |==|  0.42925
USER: genes 10 Torsion [CB]-CG--CD-[OE2] |==|  0.65695
USER: genes 11 Torsion [N]-CA--C-[OXT] |==|  0.90265
USER: genes 12 Torsion [CB]-CA--N-[C] |==|  0.88049
USER: genes 13 Torsion [N]-C--CA-[N] |==|  0.04609
USER: genes 14 Torsion [C]-CA--N-[C] |==|  0.67378
USER: genes 15 Torsion [N]-C--CA-[N] |==|  0.44788
USER: genes 16 Torsion [C]-CA--CB-[CG] |==|  0.22438
USER: genes 17 Torsion [CA]-CB--CG-[CD] |==|  0.63155
USER: genes 18 Torsion [CB]-CG--CD-[NE2] |==|  0.89450
ROOT
ATOM      1  CA  HIS G 812     -26.898  32.055  19.342  1.00 98.11 LIG 0.18  C 
ENDROOT
BRANCH 1 2
ATOM      2  CB  HIS G 812     -26.440  30.667  18.869  1.00 96.29 LIG 0.10  C 
BRANCH 2 3
ATOM      3  CG  HIS G 812     -27.540  29.741  18.431  1.00 94.00 LIG 0.06  A 
ATOM      4  CD2 HIS G 812     -28.567  29.197  19.113  1.00 93.71 LIG 0.14  A 
ATOM      5 NE2  HIS G 812     -29.160  28.263  18.289  1.00 93.19 LIG-0.25  NA
ATOM      6  CE1 HIS G 812     -28.515  28.254  17.135  1.00 92.78 LIG 0.23  A 
ATOM      7 ND1  HIS G 812     -27.539  29.137  17.190  1.00 93.58 LIG-0.24  NA
ENDBRANCH 2 3
ENDBRANCH 1 2
BRANCH 1 8
ATOM      8  C   HIS G 812     -27.333  31.892  20.795  1.00 99.25 LIG 0.24  C 
ATOM      9  N   GLY G 813     -28.512  32.391  21.143  1.00100.26 LIG-0.35  N 
ATOM     10 H    GLY G 813     -29.046  32.807  20.614  1.00100.26 LIG 0.16  HD
ATOM     11 O    HIS G 812     -26.608  31.290  21.589  1.00 99.52 LIG-0.27  OA
BRANCH 9 12
ATOM     12  CA  GLY G 813     -28.979  32.249  22.511  1.00101.48 LIG 0.23  C 
BRANCH 12 13
ATOM     13  C   GLY G 813     -29.501  33.547  23.101  1.00102.44 LIG 0.24  C 
ATOM     14 O    GLY G 813     -29.219  34.620  22.570  1.00102.98 LIG-0.27  OA
ATOM     15  N   GLU G 814     -30.266  33.462  24.188  1.00102.70 LIG-0.34  N 
ATOM     16 H    GLU G 814     -30.489  32.722  24.566  1.00102.70 LIG 0.16  HD
BRANCH 15 17
ATOM     17  CA  GLU G 814     -30.800  34.662  24.836  1.00102.89 LIG 0.19  C 
BRANCH 17 18
ATOM     18  CB  GLU G 814     -32.251  34.916  24.407  1.00101.97 LIG 0.05  C 
BRANCH 18 19
ATOM     19  CG  GLU G 814     -32.855  33.841  23.524  1.00100.63 LIG 0.12  C 
BRANCH 19 20
ATOM     20  CD  GLU G 814     -34.372  33.782  23.626  1.00100.36 LIG 0.17  C 
ATOM     21 OE1  GLU G 814     -35.027  34.817  23.373  1.00 99.71 LIG-0.65  OA
ATOM     22 OE2  GLU G 814     -34.911  32.703  23.951  1.00 99.42 LIG-0.65  OA
ENDBRANCH 19 20
ENDBRANCH 18 19
ENDBRANCH 17 18
BRANCH 17 23
ATOM     23  C   GLU G 814     -30.749  34.523  26.361  1.00103.78 LIG 0.20  C 
ATOM     24 OXT  GLU G 814     -30.945  33.395  26.869  1.00104.07 LIG-0.65  OA
ATOM     25 O    GLU G 814     -30.507  35.549  27.035  1.00104.32 LIG-0.65  OA
ENDBRANCH 17 23
ENDBRANCH 15 17
ENDBRANCH 12 13
ENDBRANCH 9 12
ENDBRANCH 1 8
BRANCH 1 26
ATOM     26  N   HIS G 812     -25.750  32.959  19.480  1.00 98.48 LIG-0.35  N 
ATOM     27  C   GLY G 811     -24.573  32.644  20.024  1.00 98.46 LIG 0.24  C 
ATOM     28 O    GLY G 811     -24.309  31.545  20.527  1.00 98.78 LIG-0.27  OA
ATOM     29 H    HIS G 812     -25.909  33.744  19.165  1.00 98.48 LIG 0.16  HD
BRANCH 27 30
ATOM     30  CA  GLY G 811     -23.543  33.763  19.997  1.00 98.06 LIG 0.23  C 
BRANCH 30 31
ATOM     31  N   GLY G 811     -24.042  35.103  19.747  1.00 97.66 LIG-0.35  N 
ATOM     32 H    GLY G 811     -24.587  35.404  20.340  1.00 97.66 LIG 0.16  HD
ATOM     33  C   GLN G 810     -23.656  35.776  18.664  1.00 97.43 LIG 0.26  C 
ATOM     34 O    GLN G 810     -22.890  35.306  17.823  1.00 97.76 LIG-0.27  OA
BRANCH 33 35
ATOM     35  CA  GLN G 810     -24.229  37.183  18.493  1.00 96.79 LIG 0.40  C 
ATOM     36  N   GLN G 810     -23.400  37.972  17.535  1.00 96.61 LIG 0.61  N 
BRANCH 35 37
ATOM     37  CB  GLN G 810     -25.664  37.072  17.985  1.00 96.38 LIG 0.06  C 
BRANCH 37 38
ATOM     38  CG  GLN G 810     -26.714  36.778  19.046  1.00 95.56 LIG 0.10  C 
BRANCH 38 39
ATOM     39  CD  GLN G 810     -27.651  35.669  18.625  1.00 95.11 LIG 0.21  C 
ATOM     40  NE2 GLN G 810     -27.999  35.649  17.343  1.00 94.31 LIG-0.37  N 
ATOM     41 21HE GLN G 810     -27.695  36.247  16.805  1.00 94.31 LIG 0.16  HD
ATOM     42 22HE GLN G 810     -28.529  35.038  17.050  1.00 94.31 LIG 0.16  HD
ATOM     43 OE1  GLN G 810     -28.058  34.837  19.437  1.00 94.65 LIG-0.27  OA
ENDBRANCH 38 39
ENDBRANCH 37 38
ENDBRANCH 35 37
ENDBRANCH 33 35
ENDBRANCH 30 31
ENDBRANCH 27 30
ENDBRANCH 1 26
TORSDOF 17
ENDMDL
MODEL 42
USER: ADFR SOLUTION from run 116
USER: SCORE 8.579406 LL:  -1.958 LR:  -8.369 RR:   0.000 FEB:  -3.297
USER: RMSD 4.250280
USER: SEED 115
USER: STATUS no improvement in best in 7 clusters for 5 generations
USER: GENES 19
USER: genes 0 Translation |==|  0.34788 0.48293 0.53692
USER: genes 1 Rotation |==|  0.59676 0.65722 0.37283 0.94693
USER: genes 2 Torsion [C]-CA--CB-[CG] |==|  0.81379
USER: genes 3 Torsion [CA]-CB--CG-[CD2] |==|  0.91515
USER: genes 4 Torsion [N]-CA--C-[N] |==|  0.49534
USER: genes 5 Torsion [C]-N--CA-[C] |==|  0.49997
USER: genes 6 Torsion [N]-CA--C-[N] |==|  0.48209
USER: genes 7 Torsion [C]-N--CA-[CB] |==|  0.39082
USER: genes 8 Torsion [N]-CA--CB-[CG] |==|  0.05885
USER: genes 9 Torsion [CA]-CB--CG-[CD] |==|  0.27626
USER: genes 10 Torsion [CB]-CG--CD-[OE2] |==|  0.73952
USER: genes 11 Torsion [N]-CA--C-[OXT] |==|  0.05984
USER: genes 12 Torsion [CB]-CA--N-[C] |==|  0.20760
USER: genes 13 Torsion [N]-C--CA-[N] |==|  0.17650
USER: genes 14 Torsion [C]-CA--N-[C] |==|  0.73011
USER: genes 15 Torsion [N]-C--CA-[N] |==|  0.94617
USER: genes 16 Torsion [C]-CA--CB-[CG] |==|  0.27832
USER: genes 17 Torsion [CA]-CB--CG-[CD] |==|  0.27760
USER: genes 18 Torsion [CB]-CG--CD-[NE2] |==|  0.97342
ROOT
ATOM      1  CA  HIS G 812     -29.010  33.453  22.647  1.00 98.11 LIG 0.18  C 
ENDROOT
BRANCH 1 2
ATOM      2  CB  HIS G 812     -29.768  32.286  21.997  1.00 96.29 LIG 0.10  C 
BRANCH 2 3
ATOM      3  CG  HIS G 812     -28.903  31.222  21.379  1.00 94.00 LIG 0.06  A 
ATOM      4  CD2 HIS G 812     -27.687  31.289  20.805  1.00 93.71 LIG 0.14  A 
ATOM      5 NE2  HIS G 812     -27.438  30.064  20.221  1.00 93.19 LIG-0.25  NA
ATOM      6  CE1 HIS G 812     -28.473  29.274  20.450  1.00 92.78 LIG 0.23  A 
ATOM      7 ND1  HIS G 812     -29.368  29.943  21.149  1.00 93.58 LIG-0.24  NA
ENDBRANCH 2 3
ENDBRANCH 1 2
BRANCH 1 8
ATOM      8  C   HIS G 812     -28.282  32.873  23.855  1.00 99.25 LIG 0.24  C 
ATOM      9  N   GLY G 813     -29.022  32.417  24.858  1.00100.26 LIG-0.35  N 
ATOM     10 H    GLY G 813     -29.881  32.432  24.882  1.00100.26 LIG 0.16  HD
ATOM     11 O    HIS G 812     -27.051  32.817  23.861  1.00 99.52 LIG-0.27  OA
BRANCH 9 12
ATOM     12  CA  GLY G 813     -28.377  31.841  26.025  1.00101.48 LIG 0.23  C 
BRANCH 12 13
ATOM     13  C   GLY G 813     -29.363  31.369  27.079  1.00102.44 LIG 0.24  C 
ATOM     14 O    GLY G 813     -30.565  31.595  26.941  1.00102.98 LIG-0.27  OA
ATOM     15  N   GLU G 814     -28.871  30.708  28.126  1.00102.70 LIG-0.34  N 
ATOM     16 H    GLU G 814     -28.038  30.526  28.234  1.00102.70 LIG 0.16  HD
BRANCH 15 17
ATOM     17  CA  GLU G 814     -29.744  30.230  29.200  1.00102.89 LIG 0.19  C 
BRANCH 17 18
ATOM     18  CB  GLU G 814     -29.305  28.842  29.686  1.00101.97 LIG 0.05  C 
BRANCH 18 19
ATOM     19  CG  GLU G 814     -27.866  28.481  29.373  1.00100.63 LIG 0.12  C 
BRANCH 19 20
ATOM     20  CD  GLU G 814     -26.938  28.686  30.562  1.00100.36 LIG 0.17  C 
ATOM     21 OE1  GLU G 814     -26.814  27.756  31.389  1.00 99.71 LIG-0.65  OA
ATOM     22 OE2  GLU G 814     -26.329  29.771  30.668  1.00 99.42 LIG-0.65  OA
ENDBRANCH 19 20
ENDBRANCH 18 19
ENDBRANCH 17 18
BRANCH 17 23
ATOM     23  C   GLU G 814     -29.726  31.200  30.386  1.00103.78 LIG 0.20  C 
ATOM     24 OXT  GLU G 814     -29.372  32.386  30.188  1.00104.07 LIG-0.65  OA
ATOM     25 O    GLU G 814     -30.074  30.763  31.505  1.00104.32 LIG-0.65  OA
ENDBRANCH 17 23
ENDBRANCH 15 17
ENDBRANCH 12 13
ENDBRANCH 9 12
ENDBRANCH 1 8
BRANCH 1 26
ATOM     26  N   HIS G 812     -27.885  33.874  21.802  1.00 98.48 LIG-0.35  N 
ATOM     27  C   GLY G 811     -27.983  34.575  20.670  1.00 98.46 LIG 0.24  C 
ATOM     28 O    GLY G 811     -29.052  34.930  20.160  1.00 98.78 LIG-0.27  OA
ATOM     29 H    HIS G 812     -27.126  33.618  22.114  1.00 98.48 LIG 0.16  HD
BRANCH 27 30
ATOM     30  CA  GLY G 811     -26.651  34.913  20.019  1.00 98.06 LIG 0.23  C 
BRANCH 30 31
ATOM     31  N   GLY G 811     -25.848  33.795  19.557  1.00 97.66 LIG-0.35  N 
ATOM     32 H    GLY G 811     -26.062  33.490  18.782  1.00 97.66 LIG 0.16  HD
ATOM     33  C   GLN G 810     -24.864  33.313  20.313  1.00 97.43 LIG 0.26  C 
ATOM     34 O    GLN G 810     -24.596  33.761  21.428  1.00 97.76 LIG-0.27  OA
BRANCH 33 35
ATOM     35  CA  GLN G 810     -24.069  32.141  19.736  1.00 96.79 LIG 0.40  C 
ATOM     36  N   GLN G 810     -24.841  31.471  18.649  1.00 96.61 LIG 0.61  N 
BRANCH 35 37
ATOM     37  CB  GLN G 810     -22.740  32.664  19.197  1.00 96.38 LIG 0.06  C 
BRANCH 37 38
ATOM     38  CG  GLN G 810     -21.537  32.457  20.105  1.00 95.56 LIG 0.10  C 
BRANCH 38 39
ATOM     39  CD  GLN G 810     -20.707  31.265  19.684  1.00 95.11 LIG 0.21  C 
ATOM     40  NE2 GLN G 810     -21.235  30.483  18.748  1.00 94.31 LIG-0.37  N 
ATOM     41 21HE GLN G 810     -22.008  30.667  18.420  1.00 94.31 LIG 0.16  HD
ATOM     42 22HE GLN G 810     -20.804  29.792  18.472  1.00 94.31 LIG 0.16  HD
ATOM     43 OE1  GLN G 810     -19.605  31.047  20.189  1.00 94.65 LIG-0.27  OA
ENDBRANCH 38 39
ENDBRANCH 37 38
ENDBRANCH 35 37
ENDBRANCH 33 35
ENDBRANCH 30 31
ENDBRANCH 27 30
ENDBRANCH 1 26
TORSDOF 17
ENDMDL
MODEL 43
USER: ADFR SOLUTION from run 165
USER: SCORE 9.651237 LL:  -1.909 LR:  -8.340 RR:   0.000 FEB:  -3.269
USER: RMSD 6.005402
USER: SEED 164
USER: STATUS no improvement in best in 7 clusters for 5 generations
USER: GENES 19
USER: genes 0 Translation |==|  0.40375 0.39552 0.43572
USER: genes 1 Rotation |==|  0.48017 0.44901 0.50512 0.99697
USER: genes 2 Torsion [C]-CA--CB-[CG] |==|  0.35181
USER: genes 3 Torsion [CA]-CB--CG-[CD2] |==|  0.76132
USER: genes 4 Torsion [N]-CA--C-[N] |==|  0.42076
USER: genes 5 Torsion [C]-N--CA-[C] |==|  0.28296
USER: genes 6 Torsion [N]-CA--C-[N] |==|  0.45043
USER: genes 7 Torsion [C]-N--CA-[CB] |==|  0.23890
USER: genes 8 Torsion [N]-CA--CB-[CG] |==|  0.63602
USER: genes 9 Torsion [CA]-CB--CG-[CD] |==|  0.33984
USER: genes 10 Torsion [CB]-CG--CD-[OE2] |==|  0.43526
USER: genes 11 Torsion [N]-CA--C-[OXT] |==|  0.86991
USER: genes 12 Torsion [CB]-CA--N-[C] |==|  0.53898
USER: genes 13 Torsion [N]-C--CA-[N] |==|  0.02220
USER: genes 14 Torsion [C]-CA--N-[C] |==|  0.79952
USER: genes 15 Torsion [N]-C--CA-[N] |==|  0.00439
USER: genes 16 Torsion [C]-CA--CB-[CG] |==|  0.34554
USER: genes 17 Torsion [CA]-CB--CG-[CD] |==|  0.19175
USER: genes 18 Torsion [CB]-CG--CD-[NE2] |==|  0.09024
ROOT
ATOM      1  CA  HIS G 812     -27.921  31.814  20.142  1.00 98.11 LIG 0.18  C 
ENDROOT
BRANCH 1 2
ATOM      2  CB  HIS G 812     -27.554  30.324  20.097  1.00 96.29 LIG 0.10  C 
BRANCH 2 3
ATOM      3  CG  HIS G 812     -28.254  29.520  19.037  1.00 94.00 LIG 0.06  A 
ATOM      4  CD2 HIS G 812     -29.451  28.900  19.038  1.00 93.71 LIG 0.14  A 
ATOM      5 NE2  HIS G 812     -29.521  28.139  17.890  1.00 93.19 LIG-0.25  NA
ATOM      6  CE1 HIS G 812     -28.401  28.306  17.208  1.00 92.78 LIG 0.23  A 
ATOM      7 ND1  HIS G 812     -27.622  29.136  17.871  1.00 93.58 LIG-0.24  NA
ENDBRANCH 2 3
ENDBRANCH 1 2
BRANCH 1 8
ATOM      8  C   HIS G 812     -28.343  32.109  21.578  1.00 99.25 LIG 0.24  C 
ATOM      9  N   GLY G 813     -29.634  32.017  21.870  1.00100.26 LIG-0.35  N 
ATOM     10 H    GLY G 813     -30.253  31.812  21.309  1.00100.26 LIG 0.16  HD
ATOM     11 O    HIS G 812     -27.492  32.394  22.422  1.00 99.52 LIG-0.27  OA
BRANCH 9 12
ATOM     12  CA  GLY G 813     -30.086  32.273  23.226  1.00101.48 LIG 0.23  C 
BRANCH 12 13
ATOM     13  C   GLY G 813     -30.706  33.649  23.399  1.00102.44 LIG 0.24  C 
ATOM     14 O    GLY G 813     -30.503  34.523  22.558  1.00102.98 LIG-0.27  OA
ATOM     15  N   GLU G 814     -31.466  33.848  24.475  1.00102.70 LIG-0.34  N 
ATOM     16 H    GLU G 814     -31.633  33.246  25.066  1.00102.70 LIG 0.16  HD
BRANCH 15 17
ATOM     17  CA  GLU G 814     -32.090  35.147  24.733  1.00102.89 LIG 0.19  C 
BRANCH 17 18
ATOM     18  CB  GLU G 814     -33.436  35.263  24.005  1.00101.97 LIG 0.05  C 
BRANCH 18 19
ATOM     19  CG  GLU G 814     -33.624  36.538  23.207  1.00100.63 LIG 0.12  C 
BRANCH 19 20
ATOM     20  CD  GLU G 814     -33.911  36.272  21.736  1.00100.36 LIG 0.17  C 
ATOM     21 OE1  GLU G 814     -33.545  35.182  21.245  1.00 99.71 LIG-0.65  OA
ATOM     22 OE2  GLU G 814     -34.505  37.148  21.072  1.00 99.42 LIG-0.65  OA
ENDBRANCH 19 20
ENDBRANCH 18 19
ENDBRANCH 17 18
BRANCH 17 23
ATOM     23  C   GLU G 814     -32.317  35.351  26.234  1.00103.78 LIG 0.20  C 
ATOM     24 OXT  GLU G 814     -32.831  34.421  26.897  1.00104.07 LIG-0.65  OA
ATOM     25 O    GLU G 814     -31.971  36.444  26.735  1.00104.32 LIG-0.65  OA
ENDBRANCH 17 23
ENDBRANCH 15 17
ENDBRANCH 12 13
ENDBRANCH 9 12
ENDBRANCH 1 8
BRANCH 1 26
ATOM     26  N   HIS G 812     -26.718  32.647  20.014  1.00 98.48 LIG-0.35  N 
ATOM     27  C   GLY G 811     -26.646  33.954  20.275  1.00 98.46 LIG 0.24  C 
ATOM     28 O    GLY G 811     -27.608  34.649  20.624  1.00 98.78 LIG-0.27  OA
ATOM     29 H    HIS G 812     -26.035  32.199  19.744  1.00 98.48 LIG 0.16  HD
BRANCH 27 30
ATOM     30  CA  GLY G 811     -25.262  34.559  20.100  1.00 98.06 LIG 0.23  C 
BRANCH 30 31
ATOM     31  N   GLY G 811     -24.247  33.705  19.508  1.00 97.66 LIG-0.35  N 
ATOM     32 H    GLY G 811     -24.025  33.910  18.703  1.00 97.66 LIG 0.16  HD
ATOM     33  C   GLN G 810     -23.729  32.693  20.201  1.00 97.43 LIG 0.26  C 
ATOM     34 O    GLN G 810     -24.086  32.415  21.347  1.00 97.76 LIG-0.27  OA
BRANCH 33 35
ATOM     35  CA  GLN G 810     -22.661  31.858  19.497  1.00 96.79 LIG 0.40  C 
ATOM     36  N   GLN G 810     -22.387  32.401  18.134  1.00 96.61 LIG 0.61  N 
BRANCH 35 37
ATOM     37  CB  GLN G 810     -21.387  31.874  20.339  1.00 96.38 LIG 0.06  C 
BRANCH 37 38
ATOM     38  CG  GLN G 810     -20.844  30.508  20.731  1.00 95.56 LIG 0.10  C 
BRANCH 38 39
ATOM     39  CD  GLN G 810     -20.297  29.752  19.541  1.00 95.11 LIG 0.21  C 
ATOM     40  NE2 GLN G 810     -19.748  30.487  18.580  1.00 94.31 LIG-0.37  N 
ATOM     41 21HE GLN G 810     -19.720  31.343  18.656  1.00 94.31 LIG 0.16  HD
ATOM     42 22HE GLN G 810     -19.420  30.107  17.881  1.00 94.31 LIG 0.16  HD
ATOM     43 OE1  GLN G 810     -20.362  28.523  19.483  1.00 94.65 LIG-0.27  OA
ENDBRANCH 38 39
ENDBRANCH 37 38
ENDBRANCH 35 37
ENDBRANCH 33 35
ENDBRANCH 30 31
ENDBRANCH 27 30
ENDBRANCH 1 26
TORSDOF 17
ENDMDL
MODEL 44
USER: ADFR SOLUTION from run 61
USER: SCORE 8.533963 LL:  -1.626 LR:  -8.338 RR:   0.000 FEB:  -3.267
USER: RMSD 2.749943
USER: SEED 60
USER: STATUS no improvement in best in 9 clusters for 5 generations
USER: GENES 19
USER: genes 0 Translation |==|  0.47177 0.41625 0.53498
USER: genes 1 Rotation |==|  0.53858 0.58766 0.49923 0.99074
USER: genes 2 Torsion [C]-CA--CB-[CG] |==|  0.41613
USER: genes 3 Torsion [CA]-CB--CG-[CD2] |==|  0.75613
USER: genes 4 Torsion [N]-CA--C-[N] |==|  0.48119
USER: genes 5 Torsion [C]-N--CA-[C] |==|  0.45703
USER: genes 6 Torsion [N]-CA--C-[N] |==|  0.46667
USER: genes 7 Torsion [C]-N--CA-[CB] |==|  0.33846
USER: genes 8 Torsion [N]-CA--CB-[CG] |==|  0.12079
USER: genes 9 Torsion [CA]-CB--CG-[CD] |==|  0.33217
USER: genes 10 Torsion [CB]-CG--CD-[OE2] |==|  0.78417
USER: genes 11 Torsion [N]-CA--C-[OXT] |==|  0.01415
USER: genes 12 Torsion [CB]-CA--N-[C] |==|  0.20295
USER: genes 13 Torsion [N]-C--CA-[N] |==|  0.50483
USER: genes 14 Torsion [C]-CA--N-[C] |==|  0.50358
USER: genes 15 Torsion [N]-C--CA-[N] |==|  0.17134
USER: genes 16 Torsion [C]-CA--CB-[CG] |==|  0.24252
USER: genes 17 Torsion [CA]-CB--CG-[CD] |==|  0.36865
USER: genes 18 Torsion [CB]-CG--CD-[NE2] |==|  0.21596
ROOT
ATOM      1  CA  HIS G 812     -26.595  32.203  22.599  1.00 98.11 LIG 0.18  C 
ENDROOT
BRANCH 1 2
ATOM      2  CB  HIS G 812     -26.430  30.777  22.053  1.00 96.29 LIG 0.10  C 
BRANCH 2 3
ATOM      3  CG  HIS G 812     -27.377  30.398  20.947  1.00 94.00 LIG 0.06  A 
ATOM      4  CD2 HIS G 812     -28.616  29.871  20.982  1.00 93.71 LIG 0.14  A 
ATOM      5 NE2  HIS G 812     -28.955  29.530  19.689  1.00 93.19 LIG-0.25  NA
ATOM      6  CE1 HIS G 812     -27.951  29.856  18.894  1.00 92.78 LIG 0.23  A 
ATOM      7 ND1  HIS G 812     -26.989  30.385  19.623  1.00 93.58 LIG-0.24  NA
ENDBRANCH 2 3
ENDBRANCH 1 2
BRANCH 1 8
ATOM      8  C   HIS G 812     -26.178  32.151  24.065  1.00 99.25 LIG 0.24  C 
ATOM      9  N   GLY G 813     -26.985  31.525  24.912  1.00100.26 LIG-0.35  N 
ATOM     10 H    GLY G 813     -27.730  31.153  24.698  1.00100.26 LIG 0.16  HD
ATOM     11 O    HIS G 812     -25.111  32.658  24.419  1.00 99.52 LIG-0.27  OA
BRANCH 9 12
ATOM     12  CA  GLY G 813     -26.626  31.435  26.317  1.00101.48 LIG 0.23  C 
BRANCH 12 13
ATOM     13  C   GLY G 813     -27.791  31.034  27.205  1.00102.44 LIG 0.24  C 
ATOM     14 O    GLY G 813     -28.935  31.031  26.753  1.00102.98 LIG-0.27  OA
ATOM     15  N   GLU G 814     -27.512  30.688  28.461  1.00102.70 LIG-0.34  N 
ATOM     16 H    GLU G 814     -26.718  30.668  28.792  1.00102.70 LIG 0.16  HD
BRANCH 15 17
ATOM     17  CA  GLU G 814     -28.573  30.304  29.395  1.00102.89 LIG 0.19  C 
BRANCH 17 18
ATOM     18  CB  GLU G 814     -28.336  28.889  29.940  1.00101.97 LIG 0.05  C 
BRANCH 18 19
ATOM     19  CG  GLU G 814     -26.904  28.588  30.338  1.00100.63 LIG 0.12  C 
BRANCH 19 20
ATOM     20  CD  GLU G 814     -26.768  28.227  31.810  1.00100.36 LIG 0.17  C 
ATOM     21 OE1  GLU G 814     -26.629  27.023  32.119  1.00 99.71 LIG-0.65  OA
ATOM     22 OE2  GLU G 814     -26.794  29.144  32.658  1.00 99.42 LIG-0.65  OA
ENDBRANCH 19 20
ENDBRANCH 18 19
ENDBRANCH 17 18
BRANCH 17 23
ATOM     23  C   GLU G 814     -28.641  31.284  30.571  1.00103.78 LIG 0.20  C 
ATOM     24 OXT  GLU G 814     -27.902  32.296  30.554  1.00104.07 LIG-0.65  OA
ATOM     25 O    GLU G 814     -29.441  31.031  31.498  1.00104.32 LIG-0.65  OA
ENDBRANCH 17 23
ENDBRANCH 15 17
ENDBRANCH 12 13
ENDBRANCH 9 12
ENDBRANCH 1 8
BRANCH 1 26
ATOM     26  N   HIS G 812     -25.572  33.094  22.035  1.00 98.48 LIG-0.35  N 
ATOM     27  C   GLY G 811     -25.546  33.553  20.782  1.00 98.46 LIG 0.24  C 
ATOM     28 O    GLY G 811     -26.370  33.250  19.911  1.00 98.78 LIG-0.27  OA
ATOM     29 H    HIS G 812     -24.966  33.302  22.608  1.00 98.48 LIG 0.16  HD
BRANCH 27 30
ATOM     30  CA  GLY G 811     -24.394  34.498  20.479  1.00 98.06 LIG 0.23  C 
BRANCH 30 31
ATOM     31  N   GLY G 811     -24.344  35.056  19.139  1.00 97.66 LIG-0.35  N 
ATOM     32 H    GLY G 811     -24.989  34.818  18.622  1.00 97.66 LIG 0.16  HD
ATOM     33  C   GLN G 810     -23.353  35.872  18.784  1.00 97.43 LIG 0.26  C 
ATOM     34 O    GLN G 810     -22.433  36.177  19.544  1.00 97.76 LIG-0.27  OA
BRANCH 33 35
ATOM     35  CA  GLN G 810     -23.393  36.416  17.356  1.00 96.79 LIG 0.40  C 
ATOM     36  N   GLN G 810     -24.624  37.232  17.142  1.00 96.61 LIG 0.61  N 
BRANCH 35 37
ATOM     37  CB  GLN G 810     -22.147  37.265  17.117  1.00 96.38 LIG 0.06  C 
BRANCH 37 38
ATOM     38  CG  GLN G 810     -20.920  36.506  16.632  1.00 95.56 LIG 0.10  C 
BRANCH 38 39
ATOM     39  CD  GLN G 810     -20.260  37.187  15.455  1.00 95.11 LIG 0.21  C 
ATOM     40  NE2 GLN G 810     -19.510  38.248  15.735  1.00 94.31 LIG-0.37  N 
ATOM     41 21HE GLN G 810     -19.425  38.511  16.550  1.00 94.31 LIG 0.16  HD
ATOM     42 22HE GLN G 810     -19.111  38.672  15.102  1.00 94.31 LIG 0.16  HD
ATOM     43 OE1  GLN G 810     -20.416  36.768  14.307  1.00 94.65 LIG-0.27  OA
ENDBRANCH 38 39
ENDBRANCH 37 38
ENDBRANCH 35 37
ENDBRANCH 33 35
ENDBRANCH 30 31
ENDBRANCH 27 30
ENDBRANCH 1 26
TORSDOF 17
ENDMDL
MODEL 45
USER: ADFR SOLUTION from run 26
USER: SCORE 8.616721 LL:  -1.984 LR:  -8.341 RR:   0.000 FEB:  -3.270
USER: RMSD 5.328600
USER: SEED 25
USER: STATUS no improvement in best in 14 clusters for 5 generations
USER: GENES 19
USER: genes 0 Translation |==|  0.39693 0.40665 0.44361
USER: genes 1 Rotation |==|  0.46696 0.48361 0.57822 0.99246
USER: genes 2 Torsion [C]-CA--CB-[CG] |==|  0.41668
USER: genes 3 Torsion [CA]-CB--CG-[CD2] |==|  0.76578
USER: genes 4 Torsion [N]-CA--C-[N] |==|  0.35156
USER: genes 5 Torsion [C]-N--CA-[C] |==|  0.41307
USER: genes 6 Torsion [N]-CA--C-[N] |==|  0.69381
USER: genes 7 Torsion [C]-N--CA-[CB] |==|  0.83094
USER: genes 8 Torsion [N]-CA--CB-[CG] |==|  0.64866
USER: genes 9 Torsion [CA]-CB--CG-[CD] |==|  0.43561
USER: genes 10 Torsion [CB]-CG--CD-[OE2] |==|  0.83882
USER: genes 11 Torsion [N]-CA--C-[OXT] |==|  0.60940
USER: genes 12 Torsion [CB]-CA--N-[C] |==|  0.51580
USER: genes 13 Torsion [N]-C--CA-[N] |==|  0.00424
USER: genes 14 Torsion [C]-CA--N-[C] |==|  0.79174
USER: genes 15 Torsion [N]-C--CA-[N] |==|  0.76115
USER: genes 16 Torsion [C]-CA--CB-[CG] |==|  0.18742
USER: genes 17 Torsion [CA]-CB--CG-[CD] |==|  0.64659
USER: genes 18 Torsion [CB]-CG--CD-[NE2] |==|  0.05069
ROOT
ATOM      1  CA  HIS G 812     -28.054  32.023  20.337  1.00 98.11 LIG 0.18  C 
ENDROOT
BRANCH 1 2
ATOM      2  CB  HIS G 812     -27.290  30.691  20.329  1.00 96.29 LIG 0.10  C 
BRANCH 2 3
ATOM      3  CG  HIS G 812     -27.494  29.839  19.107  1.00 94.00 LIG 0.06  A 
ATOM      4  CD2 HIS G 812     -28.459  28.954  18.792  1.00 93.71 LIG 0.14  A 
ATOM      5 NE2  HIS G 812     -28.062  28.302  17.643  1.00 93.19 LIG-0.25  NA
ATOM      6  CE1 HIS G 812     -26.893  28.792  17.267  1.00 92.78 LIG 0.23  A 
ATOM      7 ND1  HIS G 812     -26.529  29.722  18.126  1.00 93.58 LIG-0.24  NA
ENDBRANCH 2 3
ENDBRANCH 1 2
BRANCH 1 8
ATOM      8  C   HIS G 812     -28.347  32.340  21.800  1.00 99.25 LIG 0.24  C 
ATOM      9  N   GLY G 813     -29.620  32.413  22.170  1.00100.26 LIG-0.35  N 
ATOM     10 H    GLY G 813     -30.292  32.303  21.646  1.00100.26 LIG 0.16  HD
ATOM     11 O    HIS G 812     -27.417  32.493  22.594  1.00 99.52 LIG-0.27  OA
BRANCH 9 12
ATOM     12  CA  GLY G 813     -29.953  32.697  23.555  1.00101.48 LIG 0.23  C 
BRANCH 12 13
ATOM     13  C   GLY G 813     -31.253  33.466  23.710  1.00102.44 LIG 0.24  C 
ATOM     14 O    GLY G 813     -32.325  32.913  23.471  1.00102.98 LIG-0.27  OA
ATOM     15  N   GLU G 814     -31.171  34.732  24.116  1.00102.70 LIG-0.34  N 
ATOM     16 H    GLU G 814     -30.434  35.133  24.304  1.00102.70 LIG 0.16  HD
BRANCH 15 17
ATOM     17  CA  GLU G 814     -32.371  35.556  24.277  1.00102.89 LIG 0.19  C 
BRANCH 17 18
ATOM     18  CB  GLU G 814     -33.118  35.702  22.944  1.00101.97 LIG 0.05  C 
BRANCH 18 19
ATOM     19  CG  GLU G 814     -33.403  37.131  22.524  1.00100.63 LIG 0.12  C 
BRANCH 19 20
ATOM     20  CD  GLU G 814     -33.611  37.271  21.023  1.00100.36 LIG 0.17  C 
ATOM     21 OE1  GLU G 814     -34.689  37.753  20.612  1.00 99.71 LIG-0.65  OA
ATOM     22 OE2  GLU G 814     -32.697  36.905  20.254  1.00 99.42 LIG-0.65  OA
ENDBRANCH 19 20
ENDBRANCH 18 19
ENDBRANCH 17 18
BRANCH 17 23
ATOM     23  C   GLU G 814     -33.317  34.940  25.312  1.00103.78 LIG 0.20  C 
ATOM     24 OXT  GLU G 814     -34.551  34.975  25.097  1.00104.07 LIG-0.65  OA
ATOM     25 O    GLU G 814     -32.811  34.419  26.331  1.00104.32 LIG-0.65  OA
ENDBRANCH 17 23
ENDBRANCH 15 17
ENDBRANCH 12 13
ENDBRANCH 9 12
ENDBRANCH 1 8
BRANCH 1 26
ATOM     26  N   HIS G 812     -27.164  33.132  19.970  1.00 98.48 LIG-0.35  N 
ATOM     27  C   GLY G 811     -27.487  34.426  19.987  1.00 98.46 LIG 0.24  C 
ATOM     28 O    GLY G 811     -28.607  34.861  20.279  1.00 98.78 LIG-0.27  OA
ATOM     29 H    HIS G 812     -26.382  32.861  19.734  1.00 98.48 LIG 0.16  HD
BRANCH 27 30
ATOM     30  CA  GLY G 811     -26.355  35.366  19.601  1.00 98.06 LIG 0.23  C 
BRANCH 30 31
ATOM     31  N   GLY G 811     -25.093  34.750  19.234  1.00 97.66 LIG-0.35  N 
ATOM     32 H    GLY G 811     -24.919  34.752  18.392  1.00 97.66 LIG 0.16  HD
ATOM     33  C   GLN G 810     -24.296  34.235  20.168  1.00 97.43 LIG 0.26  C 
ATOM     34 O    GLN G 810     -24.585  34.231  21.366  1.00 97.76 LIG-0.27  OA
BRANCH 33 35
ATOM     35  CA  GLN G 810     -22.984  33.617  19.684  1.00 96.79 LIG 0.40  C 
ATOM     36  N   GLN G 810     -23.192  32.195  19.285  1.00 96.61 LIG 0.61  N 
BRANCH 35 37
ATOM     37  CB  GLN G 810     -22.465  34.429  18.500  1.00 96.38 LIG 0.06  C 
BRANCH 37 38
ATOM     38  CG  GLN G 810     -22.012  35.844  18.824  1.00 95.56 LIG 0.10  C 
BRANCH 38 39
ATOM     39  CD  GLN G 810     -22.676  36.871  17.933  1.00 95.11 LIG 0.21  C 
ATOM     40  NE2 GLN G 810     -23.778  36.476  17.304  1.00 94.31 LIG-0.37  N 
ATOM     41 21HE GLN G 810     -24.073  35.676  17.414  1.00 94.31 LIG 0.16  HD
ATOM     42 22HE GLN G 810     -24.196  37.021  16.786  1.00 94.31 LIG 0.16  HD
ATOM     43 OE1  GLN G 810     -22.210  38.005  17.812  1.00 94.65 LIG-0.27  OA
ENDBRANCH 38 39
ENDBRANCH 37 38
ENDBRANCH 35 37
ENDBRANCH 33 35
ENDBRANCH 30 31
ENDBRANCH 27 30
ENDBRANCH 1 26
TORSDOF 17
ENDMDL
MODEL 46
USER: ADFR SOLUTION from run 2
USER: SCORE 9.188509 LL:  -2.226 LR:  -8.288 RR:   0.000 FEB:  -3.217
USER: RMSD 4.569684
USER: SEED 240802
USER: STATUS no improvement in best in 13 clusters for 5 generations
USER: GENES 19
USER: genes 0 Translation |==|  0.45877 0.39143 0.51028
USER: genes 1 Rotation |==|  0.56745 0.68633 0.50549 0.95902
USER: genes 2 Torsion [C]-CA--CB-[CG] |==|  0.59954
USER: genes 3 Torsion [CA]-CB--CG-[CD2] |==|  0.66559
USER: genes 4 Torsion [N]-CA--C-[N] |==|  0.48102
USER: genes 5 Torsion [C]-N--CA-[C] |==|  0.34352
USER: genes 6 Torsion [N]-CA--C-[N] |==|  0.36593
USER: genes 7 Torsion [C]-N--CA-[CB] |==|  0.45270
USER: genes 8 Torsion [N]-CA--CB-[CG] |==|  0.51239
USER: genes 9 Torsion [CA]-CB--CG-[CD] |==|  0.58147
USER: genes 10 Torsion [CB]-CG--CD-[OE2] |==|  0.36440
USER: genes 11 Torsion [N]-CA--C-[OXT] |==|  0.85995
USER: genes 12 Torsion [CB]-CA--N-[C] |==|  0.47318
USER: genes 13 Torsion [N]-C--CA-[N] |==|  0.96929
USER: genes 14 Torsion [C]-CA--N-[C] |==|  0.81072
USER: genes 15 Torsion [N]-C--CA-[N] |==|  0.24745
USER: genes 16 Torsion [C]-CA--CB-[CG] |==|  0.67042
USER: genes 17 Torsion [CA]-CB--CG-[CD] |==|  0.69721
USER: genes 18 Torsion [CB]-CG--CD-[NE2] |==|  0.24272
ROOT
ATOM      1  CA  HIS G 812     -26.848  31.737  21.988  1.00 98.11 LIG 0.18  C 
ENDROOT
BRANCH 1 2
ATOM      2  CB  HIS G 812     -26.905  30.399  21.238  1.00 96.29 LIG 0.10  C 
BRANCH 2 3
ATOM      3  CG  HIS G 812     -27.044  30.503  19.744  1.00 94.00 LIG 0.06  A 
ATOM      4  CD2 HIS G 812     -27.995  30.045  18.907  1.00 93.71 LIG 0.14  A 
ATOM      5 NE2  HIS G 812     -27.537  30.236  17.619  1.00 93.19 LIG-0.25  NA
ATOM      6  CE1 HIS G 812     -26.345  30.806  17.680  1.00 92.78 LIG 0.23  A 
ATOM      7 ND1  HIS G 812     -26.025  30.983  18.945  1.00 93.58 LIG-0.24  NA
ENDBRANCH 2 3
ENDBRANCH 1 2
BRANCH 1 8
ATOM      8  C   HIS G 812     -25.879  31.538  23.148  1.00 99.25 LIG 0.24  C 
ATOM      9  N   GLY G 813     -26.276  30.770  24.155  1.00100.26 LIG-0.35  N 
ATOM     10 H    GLY G 813     -27.041  30.383  24.207  1.00100.26 LIG 0.16  HD
ATOM     11 O    HIS G 812     -24.763  32.061  23.114  1.00 99.52 LIG-0.27  OA
BRANCH 9 12
ATOM     12  CA  GLY G 813     -25.384  30.536  25.278  1.00101.48 LIG 0.23  C 
BRANCH 12 13
ATOM     13  C   GLY G 813     -25.991  30.928  26.613  1.00102.44 LIG 0.24  C 
ATOM     14 O    GLY G 813     -26.543  32.020  26.740  1.00102.98 LIG-0.27  OA
ATOM     15  N   GLU G 814     -25.903  30.047  27.608  1.00102.70 LIG-0.34  N 
ATOM     16 H    GLU G 814     -25.535  29.272  27.537  1.00102.70 LIG 0.16  HD
BRANCH 15 17
ATOM     17  CA  GLU G 814     -26.444  30.345  28.936  1.00102.89 LIG 0.19  C 
BRANCH 17 18
ATOM     18  CB  GLU G 814     -26.603  29.062  29.763  1.00101.97 LIG 0.05  C 
BRANCH 18 19
ATOM     19  CG  GLU G 814     -27.256  29.252  31.119  1.00100.63 LIG 0.12  C 
BRANCH 19 20
ATOM     20  CD  GLU G 814     -26.786  28.232  32.145  1.00100.36 LIG 0.17  C 
ATOM     21 OE1  GLU G 814     -26.777  27.023  31.824  1.00 99.71 LIG-0.65  OA
ATOM     22 OE2  GLU G 814     -26.419  28.635  33.269  1.00 99.42 LIG-0.65  OA
ENDBRANCH 19 20
ENDBRANCH 18 19
ENDBRANCH 17 18
BRANCH 17 23
ATOM     23  C   GLU G 814     -25.527  31.313  29.691  1.00103.78 LIG 0.20  C 
ATOM     24 OXT  GLU G 814     -24.304  31.052  29.761  1.00104.07 LIG-0.65  OA
ATOM     25 O    GLU G 814     -26.044  32.331  30.202  1.00104.32 LIG-0.65  OA
ENDBRANCH 17 23
ENDBRANCH 15 17
ENDBRANCH 12 13
ENDBRANCH 9 12
ENDBRANCH 1 8
BRANCH 1 26
ATOM     26  N   HIS G 812     -26.143  32.748  21.189  1.00 98.48 LIG-0.35  N 
ATOM     27  C   GLY G 811     -26.079  34.052  21.466  1.00 98.46 LIG 0.24  C 
ATOM     28 O    GLY G 811     -26.646  34.590  22.424  1.00 98.78 LIG-0.27  OA
ATOM     29 H    HIS G 812     -25.760  32.411  20.496  1.00 98.48 LIG 0.16  HD
BRANCH 27 30
ATOM     30  CA  GLY G 811     -25.242  34.866  20.491  1.00 98.06 LIG 0.23  C 
BRANCH 30 31
ATOM     31  N   GLY G 811     -24.429  34.119  19.548  1.00 97.66 LIG-0.35  N 
ATOM     32 H    GLY G 811     -24.677  34.179  18.727  1.00 97.66 LIG 0.16  HD
ATOM     33  C   GLN G 810     -23.386  33.407  19.972  1.00 97.43 LIG 0.26  C 
ATOM     34 O    GLN G 810     -23.070  33.325  21.159  1.00 97.76 LIG-0.27  OA
BRANCH 33 35
ATOM     35  CA  GLN G 810     -22.586  32.663  18.902  1.00 96.79 LIG 0.40  C 
ATOM     36  N   GLN G 810     -21.500  33.532  18.362  1.00 96.61 LIG 0.61  N 
BRANCH 35 37
ATOM     37  CB  GLN G 810     -21.994  31.398  19.520  1.00 96.38 LIG 0.06  C 
BRANCH 37 38
ATOM     38  CG  GLN G 810     -20.476  31.317  19.520  1.00 95.56 LIG 0.10  C 
BRANCH 38 39
ATOM     39  CD  GLN G 810     -19.962  30.286  18.540  1.00 95.11 LIG 0.21  C 
ATOM     40  NE2 GLN G 810     -19.770  30.705  17.294  1.00 94.31 LIG-0.37  N 
ATOM     41 21HE GLN G 810     -19.938  31.522  17.084  1.00 94.31 LIG 0.16  HD
ATOM     42 22HE GLN G 810     -19.478  30.160  16.696  1.00 94.31 LIG 0.16  HD
ATOM     43 OE1  GLN G 810     -19.737  29.128  18.894  1.00 94.65 LIG-0.27  OA
ENDBRANCH 38 39
ENDBRANCH 37 38
ENDBRANCH 35 37
ENDBRANCH 33 35
ENDBRANCH 30 31
ENDBRANCH 27 30
ENDBRANCH 1 26
TORSDOF 17
ENDMDL
MODEL 47
USER: ADFR SOLUTION from run 69
USER: SCORE 8.578878 LL:  -2.028 LR:  -8.264 RR:   0.000 FEB:  -3.193
USER: RMSD 3.897500
USER: SEED 68
USER: STATUS no improvement in best in 7 clusters for 5 generations
USER: GENES 19
USER: genes 0 Translation |==|  0.48233 0.41823 0.51176
USER: genes 1 Rotation |==|  0.54677 0.55581 0.44936 0.99207
USER: genes 2 Torsion [C]-CA--CB-[CG] |==|  0.48343
USER: genes 3 Torsion [CA]-CB--CG-[CD2] |==|  0.66300
USER: genes 4 Torsion [N]-CA--C-[N] |==|  0.44998
USER: genes 5 Torsion [C]-N--CA-[C] |==|  0.50494
USER: genes 6 Torsion [N]-CA--C-[N] |==|  0.42367
USER: genes 7 Torsion [C]-N--CA-[CB] |==|  0.50847
USER: genes 8 Torsion [N]-CA--CB-[CG] |==|  0.81017
USER: genes 9 Torsion [CA]-CB--CG-[CD] |==|  0.34268
USER: genes 10 Torsion [CB]-CG--CD-[OE2] |==|  0.76538
USER: genes 11 Torsion [N]-CA--C-[OXT] |==|  0.29281
USER: genes 12 Torsion [CB]-CA--N-[C] |==|  0.26656
USER: genes 13 Torsion [N]-C--CA-[N] |==|  0.13875
USER: genes 14 Torsion [C]-CA--N-[C] |==|  0.20055
USER: genes 15 Torsion [N]-C--CA-[N] |==|  0.33124
USER: genes 16 Torsion [C]-CA--CB-[CG] |==|  0.51308
USER: genes 17 Torsion [CA]-CB--CG-[CD] |==|  0.58199
USER: genes 18 Torsion [CB]-CG--CD-[NE2] |==|  0.04336
ROOT
ATOM      1  CA  HIS G 812     -26.389  32.240  22.024  1.00 98.11 LIG 0.18  C 
ENDROOT
BRANCH 1 2
ATOM      2  CB  HIS G 812     -26.469  30.804  21.487  1.00 96.29 LIG 0.10  C 
BRANCH 2 3
ATOM      3  CG  HIS G 812     -26.837  30.678  20.035  1.00 94.00 LIG 0.06  A 
ATOM      4  CD2 HIS G 812     -27.861  30.046  19.430  1.00 93.71 LIG 0.14  A 
ATOM      5 NE2  HIS G 812     -27.618  30.073  18.072  1.00 93.19 LIG-0.25  NA
ATOM      6  CE1 HIS G 812     -26.482  30.716  17.864  1.00 92.78 LIG 0.23  A 
ATOM      7 ND1  HIS G 812     -25.992  31.097  19.026  1.00 93.58 LIG-0.24  NA
ENDBRANCH 2 3
ENDBRANCH 1 2
BRANCH 1 8
ATOM      8  C   HIS G 812     -26.155  32.124  23.527  1.00 99.25 LIG 0.24  C 
ATOM      9  N   GLY G 813     -27.214  31.917  24.299  1.00100.26 LIG-0.35  N 
ATOM     10 H    GLY G 813     -28.024  31.852  24.018  1.00100.26 LIG 0.16  HD
ATOM     11 O    HIS G 812     -25.010  32.197  23.978  1.00 99.52 LIG-0.27  OA
BRANCH 9 12
ATOM     12  CA  GLY G 813     -27.043  31.785  25.736  1.00101.48 LIG 0.23  C 
BRANCH 12 13
ATOM     13  C   GLY G 813     -28.345  31.510  26.468  1.00102.44 LIG 0.24  C 
ATOM     14 O    GLY G 813     -29.411  31.896  25.992  1.00102.98 LIG-0.27  OA
ATOM     15  N   GLU G 814     -28.271  30.839  27.617  1.00102.70 LIG-0.34  N 
ATOM     16 H    GLU G 814     -27.538  30.547  27.960  1.00102.70 LIG 0.16  HD
BRANCH 15 17
ATOM     17  CA  GLU G 814     -29.472  30.544  28.401  1.00102.89 LIG 0.19  C 
BRANCH 17 18
ATOM     18  CB  GLU G 814     -29.109  29.832  29.711  1.00101.97 LIG 0.05  C 
BRANCH 18 19
ATOM     19  CG  GLU G 814     -28.570  28.424  29.546  1.00100.63 LIG 0.12  C 
BRANCH 19 20
ATOM     20  CD  GLU G 814     -27.198  28.243  30.177  1.00100.36 LIG 0.17  C 
ATOM     21 OE1  GLU G 814     -27.131  27.773  31.334  1.00 99.71 LIG-0.65  OA
ATOM     22 OE2  GLU G 814     -26.186  28.563  29.517  1.00 99.42 LIG-0.65  OA
ENDBRANCH 19 20
ENDBRANCH 18 19
ENDBRANCH 17 18
BRANCH 17 23
ATOM     23  C   GLU G 814     -30.235  31.831  28.730  1.00103.78 LIG 0.20  C 
ATOM     24 OXT  GLU G 814     -31.294  32.078  28.109  1.00104.07 LIG-0.65  OA
ATOM     25 O    GLU G 814     -29.765  32.580  29.615  1.00104.32 LIG-0.65  OA
ENDBRANCH 17 23
ENDBRANCH 15 17
ENDBRANCH 12 13
ENDBRANCH 9 12
ENDBRANCH 1 8
BRANCH 1 26
ATOM     26  N   HIS G 812     -25.146  32.888  21.584  1.00 98.48 LIG-0.35  N 
ATOM     27  C   GLY G 811     -25.019  33.684  20.520  1.00 98.46 LIG 0.24  C 
ATOM     28 O    GLY G 811     -25.937  33.948  19.734  1.00 98.78 LIG-0.27  OA
ATOM     29 H    HIS G 812     -24.480  32.702  22.094  1.00 98.48 LIG 0.16  HD
BRANCH 27 30
ATOM     30  CA  GLY G 811     -23.625  34.258  20.322  1.00 98.06 LIG 0.23  C 
BRANCH 30 31
ATOM     31  N   GLY G 811     -22.520  33.316  20.361  1.00 97.66 LIG-0.35  N 
ATOM     32 H    GLY G 811     -22.029  33.361  21.065  1.00 97.66 LIG 0.16  HD
ATOM     33  C   GLN G 810     -22.324  32.464  19.356  1.00 97.43 LIG 0.26  C 
ATOM     34 O    GLN G 810     -23.036  32.439  18.352  1.00 97.76 LIG-0.27  OA
BRANCH 33 35
ATOM     35  CA  GLN G 810     -21.142  31.505  19.494  1.00 96.79 LIG 0.40  C 
ATOM     36  N   GLN G 810     -21.612  30.089  19.483  1.00 96.61 LIG 0.61  N 
BRANCH 35 37
ATOM     37  CB  GLN G 810     -20.172  31.749  18.340  1.00 96.38 LIG 0.06  C 
BRANCH 37 38
ATOM     38  CG  GLN G 810     -18.989  30.797  18.266  1.00 95.56 LIG 0.10  C 
BRANCH 38 39
ATOM     39  CD  GLN G 810     -17.773  31.448  17.645  1.00 95.11 LIG 0.21  C 
ATOM     40  NE2 GLN G 810     -17.795  32.774  17.564  1.00 94.31 LIG-0.37  N 
ATOM     41 21HE GLN G 810     -18.476  33.212  17.855  1.00 94.31 LIG 0.16  HD
ATOM     42 22HE GLN G 810     -17.128  33.195  17.220  1.00 94.31 LIG 0.16  HD
ATOM     43 OE1  GLN G 810     -16.824  30.773  17.244  1.00 94.65 LIG-0.27  OA
ENDBRANCH 38 39
ENDBRANCH 37 38
ENDBRANCH 35 37
ENDBRANCH 33 35
ENDBRANCH 30 31
ENDBRANCH 27 30
ENDBRANCH 1 26
TORSDOF 17
ENDMDL
MODEL 48
USER: ADFR SOLUTION from run 98
USER: SCORE 8.882079 LL:  -2.076 LR:  -8.244 RR:   0.000 FEB:  -3.173
USER: RMSD 3.239058
USER: SEED 97
USER: STATUS no improvement in best in 9 clusters for 5 generations
USER: GENES 19
USER: genes 0 Translation |==|  0.45118 0.41507 0.53485
USER: genes 1 Rotation |==|  0.53288 0.60778 0.51153 0.98700
USER: genes 2 Torsion [C]-CA--CB-[CG] |==|  0.42814
USER: genes 3 Torsion [CA]-CB--CG-[CD2] |==|  0.79911
USER: genes 4 Torsion [N]-CA--C-[N] |==|  0.45058
USER: genes 5 Torsion [C]-N--CA-[C] |==|  0.50526
USER: genes 6 Torsion [N]-CA--C-[N] |==|  0.45047
USER: genes 7 Torsion [C]-N--CA-[CB] |==|  0.39351
USER: genes 8 Torsion [N]-CA--CB-[CG] |==|  0.23141
USER: genes 9 Torsion [CA]-CB--CG-[CD] |==|  0.43747
USER: genes 10 Torsion [CB]-CG--CD-[OE2] |==|  0.59009
USER: genes 11 Torsion [N]-CA--C-[OXT] |==|  0.01484
USER: genes 12 Torsion [CB]-CA--N-[C] |==|  0.21744
USER: genes 13 Torsion [N]-C--CA-[N] |==|  0.52769
USER: genes 14 Torsion [C]-CA--N-[C] |==|  0.27581
USER: genes 15 Torsion [N]-C--CA-[N] |==|  0.43922
USER: genes 16 Torsion [C]-CA--CB-[CG] |==|  0.41228
USER: genes 17 Torsion [CA]-CB--CG-[CD] |==|  0.21554
USER: genes 18 Torsion [CB]-CG--CD-[NE2] |==|  0.51236
ROOT
ATOM      1  CA  HIS G 812     -26.996  32.181  22.595  1.00 98.11 LIG 0.18  C 
ENDROOT
BRANCH 1 2
ATOM      2  CB  HIS G 812     -26.791  30.759  22.053  1.00 96.29 LIG 0.10  C 
BRANCH 2 3
ATOM      3  CG  HIS G 812     -27.734  30.346  20.956  1.00 94.00 LIG 0.06  A 
ATOM      4  CD2 HIS G 812     -29.045  30.037  20.983  1.00 93.71 LIG 0.14  A 
ATOM      5 NE2  HIS G 812     -29.374  29.532  19.742  1.00 93.19 LIG-0.25  NA
ATOM      6  CE1 HIS G 812     -28.291  29.549  18.983  1.00 92.78 LIG 0.23  A 
ATOM      7 ND1  HIS G 812     -27.290  30.039  19.686  1.00 93.58 LIG-0.24  NA
ENDBRANCH 2 3
ENDBRANCH 1 2
BRANCH 1 8
ATOM      8  C   HIS G 812     -26.465  32.175  24.025  1.00 99.25 LIG 0.24  C 
ATOM      9  N   GLY G 813     -27.267  31.714  24.977  1.00100.26 LIG-0.35  N 
ATOM     10 H    GLY G 813     -28.066  31.426  24.850  1.00100.26 LIG 0.16  HD
ATOM     11 O    HIS G 812     -25.318  32.565  24.256  1.00 99.52 LIG-0.27  OA
BRANCH 9 12
ATOM     12  CA  GLY G 813     -26.803  31.674  26.353  1.00101.48 LIG 0.23  C 
BRANCH 12 13
ATOM     13  C   GLY G 813     -27.821  31.078  27.309  1.00102.44 LIG 0.24  C 
ATOM     14 O    GLY G 813     -29.001  30.989  26.971  1.00102.98 LIG-0.27  OA
ATOM     15  N   GLU G 814     -27.379  30.663  28.495  1.00102.70 LIG-0.34  N 
ATOM     16 H    GLU G 814     -26.557  30.702  28.745  1.00102.70 LIG 0.16  HD
BRANCH 15 17
ATOM     17  CA  GLU G 814     -28.292  30.092  29.487  1.00102.89 LIG 0.19  C 
BRANCH 17 18
ATOM     18  CB  GLU G 814     -27.631  28.923  30.231  1.00101.97 LIG 0.05  C 
BRANCH 18 19
ATOM     19  CG  GLU G 814     -26.744  29.325  31.393  1.00100.63 LIG 0.12  C 
BRANCH 19 20
ATOM     20  CD  GLU G 814     -26.560  28.203  32.405  1.00100.36 LIG 0.17  C 
ATOM     21 OE1  GLU G 814     -26.549  27.023  31.992  1.00 99.71 LIG-0.65  OA
ATOM     22 OE2  GLU G 814     -26.419  28.499  33.611  1.00 99.42 LIG-0.65  OA
ENDBRANCH 19 20
ENDBRANCH 18 19
ENDBRANCH 17 18
BRANCH 17 23
ATOM     23  C   GLU G 814     -28.717  31.153  30.507  1.00103.78 LIG 0.20  C 
ATOM     24 OXT  GLU G 814     -28.349  32.338  30.332  1.00104.07 LIG-0.65  OA
ATOM     25 O    GLU G 814     -29.421  30.788  31.474  1.00104.32 LIG-0.65  OA
ENDBRANCH 17 23
ENDBRANCH 15 17
ENDBRANCH 12 13
ENDBRANCH 9 12
ENDBRANCH 1 8
BRANCH 1 26
ATOM     26  N   HIS G 812     -26.075  33.121  21.945  1.00 98.48 LIG-0.35  N 
ATOM     27  C   GLY G 811     -26.226  33.638  20.724  1.00 98.46 LIG 0.24  C 
ATOM     28 O    GLY G 811     -27.154  33.356  19.957  1.00 98.78 LIG-0.27  OA
ATOM     29 H    HIS G 812     -25.400  33.317  22.441  1.00 98.48 LIG 0.16  HD
BRANCH 27 30
ATOM     30  CA  GLY G 811     -25.141  34.624  20.315  1.00 98.06 LIG 0.23  C 
BRANCH 30 31
ATOM     31  N   GLY G 811     -25.373  35.381  19.098  1.00 97.66 LIG-0.35  N 
ATOM     32 H    GLY G 811     -25.195  34.961  18.370  1.00 97.66 LIG 0.16  HD
ATOM     33  C   GLN G 810     -25.829  36.631  19.157  1.00 97.43 LIG 0.26  C 
ATOM     34 O    GLN G 810     -26.055  37.210  20.220  1.00 97.76 LIG-0.27  OA
BRANCH 33 35
ATOM     35  CA  GLN G 810     -26.051  37.342  17.822  1.00 96.79 LIG 0.40  C 
ATOM     36  N   GLN G 810     -27.018  38.466  17.983  1.00 96.61 LIG 0.61  N 
BRANCH 35 37
ATOM     37  CB  GLN G 810     -24.710  37.866  17.314  1.00 96.38 LIG 0.06  C 
BRANCH 37 38
ATOM     38  CG  GLN G 810     -24.553  37.909  15.802  1.00 95.56 LIG 0.10  C 
BRANCH 38 39
ATOM     39  CD  GLN G 810     -25.276  39.088  15.190  1.00 95.11 LIG 0.21  C 
ATOM     40  NE2 GLN G 810     -25.271  39.155  13.863  1.00 94.31 LIG-0.37  N 
ATOM     41 21HE GLN G 810     -24.870  38.550  13.403  1.00 94.31 LIG 0.16  HD
ATOM     42 22HE GLN G 810     -25.669  39.805  13.464  1.00 94.31 LIG 0.16  HD
ATOM     43 OE1  GLN G 810     -25.835  39.928  15.897  1.00 94.65 LIG-0.27  OA
ENDBRANCH 38 39
ENDBRANCH 37 38
ENDBRANCH 35 37
ENDBRANCH 33 35
ENDBRANCH 30 31
ENDBRANCH 27 30
ENDBRANCH 1 26
TORSDOF 17
ENDMDL
