MODEL 1
USER: ADFR SOLUTION from run 150
USER: SCORE 13.740365 LL:  -2.962 LR: -13.285 RR:   0.000 FEB:  -7.617
USER: RMSD 1.707023
USER: SEED 149
USER: STATUS no improvement in best in 4 clusters for 5 generations
USER: GENES 21
USER: genes 0 Translation |==|  0.52652 0.43708 0.57505
USER: genes 1 Rotation |==|  0.58487 0.67082 0.47186 0.96133
USER: genes 2 Torsion [C]-N--CA-[CB] |==|  0.25887
USER: genes 3 Torsion [N]-CA--C-[N] |==|  0.47949
USER: genes 4 Torsion [C]-N--CA-[C] |==|  0.79623
USER: genes 5 Torsion [N]-CA--CB-[SG] |==|  0.91624
USER: genes 6 Torsion [CA]-CB--SG-[HG] |==|  0.15028
USER: genes 7 Torsion [N]-CA--C-[N] |==|  0.36394
USER: genes 8 Torsion [C]-N--CA-[CB] |==|  0.46667
USER: genes 9 Torsion [N]-CA--C-[N] |==|  0.42384
USER: genes 10 Torsion [C]-N--CA-[CB] |==|  0.28207
USER: genes 11 Torsion [N]-CA--C-[O] |==|  0.75638
USER: genes 12 Torsion [N]-CA--CB-[CG2] |==|  0.82105
USER: genes 13 Torsion [O]-C--CA-[N] |==|  0.13678
USER: genes 14 Torsion [N]-C--CA-[N] |==|  0.31985
USER: genes 15 Torsion [C]-CA--N-[C] |==|  0.57481
USER: genes 16 Torsion [N]-C--CA-[N] |==|  0.24905
USER: genes 17 Torsion [C]-CA--CB-[OG] |==|  0.27577
USER: genes 18 Torsion [CA]-CB--OG-[HG] |==|  0.68820
USER: genes 19 Torsion [C]-CA--CB-[CG] |==|  0.06996
USER: genes 20 Torsion [CA]-CB--CG-[ND2] |==|  0.27975
ROOT
ATOM      1  C   PRO X1002      16.765  36.434  27.998  1.00 98.27 LIG 0.24  C 
ATOM      2 O    PRO X1002      15.959  37.354  27.977  1.00 97.40 LIG-0.27  OA
ATOM      3  N   ALA X1003      18.052  36.584  27.697  1.00 97.43 LIG-0.35  N 
ATOM      4 H    ALA X1003      18.660  36.013  27.909  1.00 97.43 LIG 0.16  HD
ENDROOT
BRANCH 3 5
ATOM      5  CA  ALA X1003      18.556  37.748  26.966  1.00 96.73 LIG 0.17  C 
ATOM      6  CB  ALA X1003      19.020  38.816  27.930  1.00 96.74 LIG 0.04  C 
BRANCH 5 7
ATOM      7  C   ALA X1003      19.716  37.221  26.120  1.00 95.66 LIG 0.24  C 
ATOM      8 O    ALA X1003      20.099  36.074  26.286  1.00 95.14 LIG-0.27  OA
ATOM      9  N   CYS X1004      20.305  38.001  25.221  1.00 94.40 LIG-0.34  N 
ATOM     10 H    CYS X1004      20.814  37.670  24.612  1.00 94.40 LIG 0.16  HD
BRANCH 9 11
ATOM     11  CA  CYS X1004      20.204  39.457  25.111  1.00 94.17 LIG 0.18  C 
BRANCH 11 12
ATOM     12  CB  CYS X1004      21.325  39.926  24.155  1.00 94.12 LIG 0.10  C 
BRANCH 12 13
ATOM     13 SG   CYS X1004      22.830  38.992  24.081  1.00 91.26 LIG-0.18  SA
ATOM     14 HG   CYS X1004      22.577  37.842  23.848  1.00 91.26 LIG 0.10  HD
ENDBRANCH 12 13
ENDBRANCH 11 12
BRANCH 11 15
ATOM     15  C   CYS X1004      18.839  39.917  24.565  1.00 93.84 LIG 0.24  C 
ATOM     16 O    CYS X1004      18.379  39.448  23.535  1.00 93.01 LIG-0.27  OA
ATOM     17  N   VAL X1005      18.226  40.876  25.242  1.00 93.78 LIG-0.35  N 
ATOM     18 H    VAL X1005      18.594  41.309  25.887  1.00 93.78 LIG 0.16  HD
BRANCH 17 19
ATOM     19  CA  VAL X1005      16.850  41.293  24.956  1.00 93.73 LIG 0.18  C 
BRANCH 19 20
ATOM     20  C   VAL X1005      16.721  41.976  23.589  1.00 93.48 LIG 0.24  C 
ATOM     21  N   ALA X1006      15.535  41.887  22.989  1.00 93.27 LIG-0.35  N 
ATOM     22 H    ALA X1006      14.865  41.468  23.328  1.00 93.27 LIG 0.16  HD
ATOM     23 O    VAL X1005      17.679  42.558  23.090  1.00 93.20 LIG-0.27  OA
BRANCH 21 24
ATOM     24  CA  ALA X1006      15.255  42.494  21.689  1.00 93.01 LIG 0.16  C 
ATOM     25  CB  ALA X1006      15.298  41.452  20.611  1.00 92.79 LIG 0.04  C 
BRANCH 24 26
ATOM     26  C   ALA X1006      13.903  43.191  21.692  1.00 92.71 LIG 0.22  C 
ATOM     27 O    ALA X1006      12.873  42.583  21.417  1.00 91.80 LIG-0.29  OA
ENDBRANCH 24 26
ENDBRANCH 21 24
ENDBRANCH 19 20
BRANCH 19 28
ATOM     28  CB  VAL X1005      16.341  42.207  26.111  1.00 93.65 LIG 0.01  C 
ATOM     29  CG2 VAL X1005      16.276  41.407  27.391  1.00 92.72 LIG 0.01  C 
ATOM     30  CG1 VAL X1005      15.010  42.866  25.785  1.00 92.97 LIG 0.01  C 
ENDBRANCH 19 28
ENDBRANCH 17 19
ENDBRANCH 11 15
ENDBRANCH 9 11
ENDBRANCH 5 7
ENDBRANCH 3 5
BRANCH 1 31
ATOM     31  CA  PRO X1002      16.340  35.032  28.444  1.00 99.31 LIG 0.18  C 
ATOM     32  N   PRO X1002      15.125  34.509  27.815  1.00 99.88 LIG-0.34  N 
ATOM     33  CD  PRO X1002      15.449  33.480  26.821  1.00 99.70 LIG 0.13  C 
ATOM     34  C   ASN X1001      13.930  34.952  28.241  1.00100.64 LIG 0.24  C 
ATOM     35  CG  PRO X1002      16.648  32.869  27.412  1.00 99.65 LIG 0.02  C 
ATOM     36  CB  PRO X1002      17.404  34.007  28.038  1.00 99.37 LIG 0.04  C 
ATOM     37 O    ASN X1001      13.834  35.760  29.157  1.00100.22 LIG-0.27  OA
BRANCH 34 38
ATOM     38  CA  ASN X1001      12.660  34.332  27.620  1.00101.23 LIG 0.18  C 
BRANCH 38 39
ATOM     39  N   ASN X1001      11.964  33.621  28.701  1.00101.62 LIG-0.34  N 
ATOM     40  C   SER X1000      11.176  32.579  28.424  1.00101.89 LIG 0.26  C 
ATOM     41 O    SER X1000      10.659  32.412  27.311  1.00101.60 LIG-0.27  OA
ATOM     42 H    ASN X1001      12.108  33.928  29.492  1.00101.62 LIG 0.16  HD
BRANCH 40 43
ATOM     43  CA  SER X1000      10.916  31.573  29.555  1.00101.91 LIG 0.42  C 
ATOM     44  N   SER X1000       9.724  31.940  30.365  1.00101.55 LIG 0.62  N 
BRANCH 43 45
ATOM     45  CB  SER X1000      10.774  30.150  29.016  1.00101.96 LIG 0.21  C 
BRANCH 45 46
ATOM     46 OG   SER X1000      11.970  29.403  29.160  1.00101.15 LIG-0.40  OA
ATOM     47 HG   SER X1000      12.295  29.246  28.402  1.00101.15 LIG 0.21  HD
ENDBRANCH 45 46
ENDBRANCH 43 45
ENDBRANCH 40 43
ENDBRANCH 38 39
BRANCH 38 48
ATOM     48  CB  ASN X1001      11.727  35.313  26.866  1.00101.08 LIG 0.14  C 
BRANCH 48 49
ATOM     49  CG  ASN X1001      12.425  36.565  26.320  1.00100.04 LIG 0.22  C 
ATOM     50  ND2 ASN X1001      12.731  36.583  25.035  1.00 98.76 LIG-0.37  N 
ATOM     51 21HD ASN X1001      13.087  37.284  24.687  1.00 98.76 LIG 0.16  HD
ATOM     52 22HD ASN X1001      12.573  35.893  24.545  1.00 98.76 LIG 0.16  HD
ATOM     53 OD1  ASN X1001      12.632  37.523  27.051  1.00 97.91 LIG-0.27  OA
ENDBRANCH 48 49
ENDBRANCH 38 48
ENDBRANCH 34 38
ENDBRANCH 1 31
TORSDOF 19
ENDMDL
MODEL 2
USER: ADFR SOLUTION from run 39
USER: SCORE 13.857874 LL:  -2.588 LR: -12.537 RR:   0.000 FEB:  -6.870
USER: RMSD 2.365019
USER: SEED 38
USER: STATUS no improvement in best in 3 clusters for 5 generations
USER: GENES 21
USER: genes 0 Translation |==|  0.55392 0.43109 0.57265
USER: genes 1 Rotation |==|  0.48024 0.49106 0.51052 0.99942
USER: genes 2 Torsion [C]-N--CA-[CB] |==|  0.48577
USER: genes 3 Torsion [N]-CA--C-[N] |==|  0.41549
USER: genes 4 Torsion [C]-N--CA-[C] |==|  0.64354
USER: genes 5 Torsion [N]-CA--CB-[SG] |==|  0.99848
USER: genes 6 Torsion [CA]-CB--SG-[HG] |==|  0.14163
USER: genes 7 Torsion [N]-CA--C-[N] |==|  0.49365
USER: genes 8 Torsion [C]-N--CA-[CB] |==|  0.81626
USER: genes 9 Torsion [N]-CA--C-[N] |==|  0.45556
USER: genes 10 Torsion [C]-N--CA-[CB] |==|  0.32509
USER: genes 11 Torsion [N]-CA--C-[O] |==|  0.60169
USER: genes 12 Torsion [N]-CA--CB-[CG2] |==|  0.71469
USER: genes 13 Torsion [O]-C--CA-[N] |==|  0.03823
USER: genes 14 Torsion [N]-C--CA-[N] |==|  0.17191
USER: genes 15 Torsion [C]-CA--N-[C] |==|  0.15436
USER: genes 16 Torsion [N]-C--CA-[N] |==|  0.49060
USER: genes 17 Torsion [C]-CA--CB-[OG] |==|  0.35841
USER: genes 18 Torsion [CA]-CB--OG-[HG] |==|  0.73729
USER: genes 19 Torsion [C]-CA--CB-[CG] |==|  0.15489
USER: genes 20 Torsion [CA]-CB--CG-[ND2] |==|  0.20462
ROOT
ATOM      1  C   PRO X1002      17.423  36.313  27.952  1.00 98.27 LIG 0.24  C 
ATOM      2 O    PRO X1002      16.839  36.897  27.049  1.00 97.40 LIG-0.27  OA
ATOM      3  N   ALA X1003      18.564  36.743  28.483  1.00 97.43 LIG-0.35  N 
ATOM      4 H    ALA X1003      18.867  36.473  29.241  1.00 97.43 LIG 0.16  HD
ENDROOT
BRANCH 3 5
ATOM      5  CA  ALA X1003      19.417  37.728  27.816  1.00 96.73 LIG 0.17  C 
ATOM      6  CB  ALA X1003      20.574  38.115  28.708  1.00 96.74 LIG 0.04  C 
BRANCH 5 7
ATOM      7  C   ALA X1003      19.904  37.042  26.540  1.00 95.66 LIG 0.24  C 
ATOM      8 O    ALA X1003      20.054  35.830  26.537  1.00 95.14 LIG-0.27  OA
ATOM      9  N   CYS X1004      20.169  37.752  25.449  1.00 94.40 LIG-0.34  N 
ATOM     10 H    CYS X1004      20.251  37.372  24.682  1.00 94.40 LIG 0.16  HD
BRANCH 9 11
ATOM     11  CA  CYS X1004      20.357  39.201  25.361  1.00 94.17 LIG 0.18  C 
BRANCH 11 12
ATOM     12  CB  CYS X1004      21.846  39.453  25.032  1.00 94.12 LIG 0.10  C 
BRANCH 12 13
ATOM     13 SG   CYS X1004      22.931  38.062  24.861  1.00 91.26 LIG-0.18  SA
ATOM     14 HG   CYS X1004      22.449  37.270  24.098  1.00 91.26 LIG 0.10  HD
ENDBRANCH 12 13
ENDBRANCH 11 12
BRANCH 11 15
ATOM     15  C   CYS X1004      19.475  39.847  24.276  1.00 93.84 LIG 0.24  C 
ATOM     16 O    CYS X1004      18.784  39.166  23.534  1.00 93.01 LIG-0.27  OA
ATOM     17  N   VAL X1005      19.551  41.164  24.163  1.00 93.78 LIG-0.35  N 
ATOM     18 H    VAL X1005      20.129  41.643  24.582  1.00 93.78 LIG 0.16  HD
BRANCH 17 19
ATOM     19  CA  VAL X1005      18.648  41.940  23.306  1.00 93.73 LIG 0.18  C 
BRANCH 19 20
ATOM     20  C   VAL X1005      17.175  41.747  23.688  1.00 93.48 LIG 0.24  C 
ATOM     21  N   ALA X1006      16.313  42.640  23.204  1.00 93.27 LIG-0.35  N 
ATOM     22 H    ALA X1006      16.548  43.301  22.707  1.00 93.27 LIG 0.16  HD
ATOM     23 O    VAL X1005      16.835  40.818  24.413  1.00 93.20 LIG-0.27  OA
BRANCH 21 24
ATOM     24  CA  ALA X1006      14.877  42.583  23.470  1.00 93.01 LIG 0.16  C 
ATOM     25  CB  ALA X1006      14.444  43.800  24.233  1.00 92.79 LIG 0.04  C 
BRANCH 24 26
ATOM     26  C   ALA X1006      14.086  42.466  22.177  1.00 92.71 LIG 0.22  C 
ATOM     27 O    ALA X1006      13.005  43.031  22.037  1.00 91.80 LIG-0.29  OA
ENDBRANCH 24 26
ENDBRANCH 21 24
ENDBRANCH 19 20
BRANCH 19 28
ATOM     28  CB  VAL X1005      18.913  41.572  21.816  1.00 93.65 LIG 0.01  C 
ATOM     29  CG2 VAL X1005      19.723  42.669  21.166  1.00 92.72 LIG 0.01  C 
ATOM     30  CG1 VAL X1005      17.631  41.285  21.052  1.00 92.97 LIG 0.01  C 
ENDBRANCH 19 28
ENDBRANCH 17 19
ENDBRANCH 11 15
ENDBRANCH 9 11
ENDBRANCH 5 7
ENDBRANCH 3 5
BRANCH 1 31
ATOM     31  CA  PRO X1002      16.826  35.050  28.579  1.00 99.31 LIG 0.18  C 
ATOM     32  N   PRO X1002      15.720  34.436  27.839  1.00 99.88 LIG-0.34  N 
ATOM     33  CD  PRO X1002      16.157  33.211  27.162  1.00 99.70 LIG 0.13  C 
ATOM     34  C   ASN X1001      14.499  34.992  27.915  1.00100.64 LIG 0.24  C 
ATOM     35  CG  PRO X1002      17.177  32.709  28.095  1.00 99.65 LIG 0.02  C 
ATOM     36  CB  PRO X1002      17.875  33.934  28.614  1.00 99.37 LIG 0.04  C 
ATOM     37 O    ASN X1001      14.285  35.980  28.608  1.00100.22 LIG-0.27  OA
BRANCH 34 38
ATOM     38  CA  ASN X1001      13.333  34.287  27.191  1.00101.23 LIG 0.18  C 
BRANCH 38 39
ATOM     39  N   ASN X1001      13.192  32.960  27.808  1.00101.62 LIG-0.34  N 
ATOM     40  C   SER X1000      13.013  32.846  29.126  1.00101.89 LIG 0.26  C 
ATOM     41 O    SER X1000      13.360  33.727  29.925  1.00101.60 LIG-0.27  OA
ATOM     42 H    ASN X1001      13.235  32.297  27.261  1.00101.62 LIG 0.16  HD
BRANCH 40 43
ATOM     43  CA  SER X1000      12.355  31.556  29.638  1.00101.91 LIG 0.42  C 
ATOM     44  N   SER X1000      12.286  31.518  31.123  1.00101.55 LIG 0.62  N 
BRANCH 43 45
ATOM     45  CB  SER X1000      10.966  31.358  29.036  1.00101.96 LIG 0.21  C 
BRANCH 45 46
ATOM     46 OG   SER X1000      10.805  30.067  28.473  1.00101.15 LIG-0.40  OA
ATOM     47 HG   SER X1000      10.977  30.097  27.652  1.00101.15 LIG 0.21  HD
ENDBRANCH 45 46
ENDBRANCH 43 45
ENDBRANCH 40 43
ENDBRANCH 38 39
BRANCH 38 48
ATOM     48  CB  ASN X1001      11.991  35.062  27.154  1.00101.08 LIG 0.14  C 
BRANCH 48 49
ATOM     49  CG  ASN X1001      12.084  36.468  26.548  1.00100.04 LIG 0.22  C 
ATOM     50  ND2 ASN X1001      12.226  36.561  25.238  1.00 98.76 LIG-0.37  N 
ATOM     51 21HD ASN X1001      12.241  37.333  24.860  1.00 98.76 LIG 0.16  HD
ATOM     52 22HD ASN X1001      12.302  35.848  24.762  1.00 98.76 LIG 0.16  HD
ATOM     53 OD1  ASN X1001      11.972  37.455  27.261  1.00 97.91 LIG-0.27  OA
ENDBRANCH 48 49
ENDBRANCH 38 48
ENDBRANCH 34 38
ENDBRANCH 1 31
TORSDOF 19
ENDMDL
MODEL 3
USER: ADFR SOLUTION from run 39
USER: SCORE 14.240759 LL:  -3.687 LR: -12.412 RR:   0.000 FEB:  -6.744
USER: RMSD 1.892440
USER: SEED 38
USER: STATUS no improvement in best in 3 clusters for 5 generations
USER: GENES 21
USER: genes 0 Translation |==|  0.54715 0.44896 0.55851
USER: genes 1 Rotation |==|  0.47420 0.52331 0.54710 0.99656
USER: genes 2 Torsion [C]-N--CA-[CB] |==|  0.45556
USER: genes 3 Torsion [N]-CA--C-[N] |==|  0.43450
USER: genes 4 Torsion [C]-N--CA-[C] |==|  0.74351
USER: genes 5 Torsion [N]-CA--CB-[SG] |==|  0.88346
USER: genes 6 Torsion [CA]-CB--SG-[HG] |==|  0.11980
USER: genes 7 Torsion [N]-CA--C-[N] |==|  0.33180
USER: genes 8 Torsion [C]-N--CA-[CB] |==|  0.48099
USER: genes 9 Torsion [N]-CA--C-[N] |==|  0.38953
USER: genes 10 Torsion [C]-N--CA-[CB] |==|  0.29543
USER: genes 11 Torsion [N]-CA--C-[O] |==|  0.75978
USER: genes 12 Torsion [N]-CA--CB-[CG2] |==|  0.82356
USER: genes 13 Torsion [O]-C--CA-[N] |==|  0.99945
USER: genes 14 Torsion [N]-C--CA-[N] |==|  0.35760
USER: genes 15 Torsion [C]-CA--N-[C] |==|  0.85222
USER: genes 16 Torsion [N]-C--CA-[N] |==|  0.42384
USER: genes 17 Torsion [C]-CA--CB-[OG] |==|  0.19330
USER: genes 18 Torsion [CA]-CB--OG-[HG] |==|  0.74880
USER: genes 19 Torsion [C]-CA--CB-[CG] |==|  0.01004
USER: genes 20 Torsion [CA]-CB--CG-[ND2] |==|  0.36561
ROOT
ATOM      1  C   PRO X1002      17.261  36.674  27.676  1.00 98.27 LIG 0.24  C 
ATOM      2 O    PRO X1002      16.486  37.137  26.849  1.00 97.40 LIG-0.27  OA
ATOM      3  N   ALA X1003      18.388  37.279  28.039  1.00 97.43 LIG-0.35  N 
ATOM      4 H    ALA X1003      18.824  37.083  28.754  1.00 97.43 LIG 0.16  HD
ENDROOT
BRANCH 3 5
ATOM      5  CA  ALA X1003      18.998  38.346  27.243  1.00 96.73 LIG 0.17  C 
ATOM      6  CB  ALA X1003      20.019  39.099  28.064  1.00 96.74 LIG 0.04  C 
BRANCH 5 7
ATOM      7  C   ALA X1003      19.651  37.639  26.055  1.00 95.66 LIG 0.24  C 
ATOM      8 O    ALA X1003      19.965  36.464  26.162  1.00 95.14 LIG-0.27  OA
ATOM      9  N   CYS X1004      19.882  38.294  24.922  1.00 94.40 LIG-0.34  N 
ATOM     10 H    CYS X1004      20.061  37.872  24.194  1.00 94.40 LIG 0.16  HD
BRANCH 9 11
ATOM     11  CA  CYS X1004      19.874  39.744  24.722  1.00 94.17 LIG 0.18  C 
BRANCH 11 12
ATOM     12  CB  CYS X1004      20.928  40.064  23.637  1.00 94.12 LIG 0.10  C 
BRANCH 12 13
ATOM     13 SG   CYS X1004      22.487  39.223  23.687  1.00 91.26 LIG-0.18  SA
ATOM     14 HG   CYS X1004      22.308  38.060  23.925  1.00 91.26 LIG 0.10  HD
ENDBRANCH 12 13
ENDBRANCH 11 12
BRANCH 11 15
ATOM     15  C   CYS X1004      18.499  40.273  24.273  1.00 93.84 LIG 0.24  C 
ATOM     16 O    CYS X1004      18.004  39.928  23.210  1.00 93.01 LIG-0.27  OA
ATOM     17  N   VAL X1005      17.916  41.153  25.073  1.00 93.78 LIG-0.35  N 
ATOM     18 H    VAL X1005      18.308  41.507  25.751  1.00 93.78 LIG 0.16  HD
BRANCH 17 19
ATOM     19  CA  VAL X1005      16.537  41.610  24.878  1.00 93.73 LIG 0.18  C 
BRANCH 19 20
ATOM     20  C   VAL X1005      16.348  42.337  23.540  1.00 93.48 LIG 0.24  C 
ATOM     21  N   ALA X1006      15.218  42.087  22.882  1.00 93.27 LIG-0.35  N 
ATOM     22 H    ALA X1006      14.614  41.546  23.169  1.00 93.27 LIG 0.16  HD
ATOM     23 O    VAL X1005      17.214  43.094  23.115  1.00 93.20 LIG-0.27  OA
BRANCH 21 24
ATOM     24  CA  ALA X1006      14.890  42.710  21.601  1.00 93.01 LIG 0.16  C 
ATOM     25  CB  ALA X1006      15.034  41.714  20.489  1.00 92.79 LIG 0.04  C 
BRANCH 24 26
ATOM     26  C   ALA X1006      13.480  43.279  21.616  1.00 92.71 LIG 0.22  C 
ATOM     27 O    ALA X1006      12.509  42.583  21.333  1.00 91.80 LIG-0.29  OA
ENDBRANCH 24 26
ENDBRANCH 21 24
ENDBRANCH 19 20
BRANCH 19 28
ATOM     28  CB  VAL X1005      16.117  42.500  26.085  1.00 93.65 LIG 0.01  C 
ATOM     29  CG2 VAL X1005      16.126  41.669  27.346  1.00 92.72 LIG 0.01  C 
ATOM     30  CG1 VAL X1005      14.776  43.182  25.864  1.00 92.97 LIG 0.01  C 
ENDBRANCH 19 28
ENDBRANCH 17 19
ENDBRANCH 11 15
ENDBRANCH 9 11
ENDBRANCH 5 7
ENDBRANCH 3 5
BRANCH 1 31
ATOM     31  CA  PRO X1002      16.936  35.367  28.404  1.00 99.31 LIG 0.18  C 
ATOM     32  N   PRO X1002      15.662  34.740  28.043  1.00 99.88 LIG-0.34  N 
ATOM     33  CD  PRO X1002      15.877  33.559  27.201  1.00 99.70 LIG 0.13  C 
ATOM     34  C   ASN X1001      14.524  35.245  28.548  1.00100.64 LIG 0.24  C 
ATOM     35  CG  PRO X1002      17.161  33.061  27.717  1.00 99.65 LIG 0.02  C 
ATOM     36  CB  PRO X1002      17.963  34.292  28.035  1.00 99.37 LIG 0.04  C 
ATOM     37 O    ASN X1001      14.530  36.197  29.320  1.00100.22 LIG-0.27  OA
BRANCH 34 38
ATOM     38  CA  ASN X1001      13.199  34.524  28.218  1.00101.23 LIG 0.18  C 
BRANCH 38 39
ATOM     39  N   ASN X1001      12.512  34.296  29.498  1.00101.62 LIG-0.34  N 
ATOM     40  C   SER X1000      13.143  33.680  30.500  1.00101.89 LIG 0.26  C 
ATOM     41 O    SER X1000      14.108  32.925  30.317  1.00101.60 LIG-0.27  OA
ATOM     42 H    ASN X1001      11.703  34.584  29.534  1.00101.62 LIG 0.16  HD
BRANCH 40 43
ATOM     43  CA  SER X1000      12.622  33.933  31.922  1.00101.91 LIG 0.42  C 
ATOM     44  N   SER X1000      12.904  32.791  32.831  1.00101.55 LIG 0.62  N 
BRANCH 43 45
ATOM     45  CB  SER X1000      13.187  35.227  32.504  1.00101.96 LIG 0.21  C 
BRANCH 45 46
ATOM     46 OG   SER X1000      12.664  36.376  31.859  1.00101.15 LIG-0.40  OA
ATOM     47 HG   SER X1000      13.157  36.583  31.211  1.00101.15 LIG 0.21  HD
ENDBRANCH 45 46
ENDBRANCH 43 45
ENDBRANCH 40 43
ENDBRANCH 38 39
BRANCH 38 48
ATOM     48  CB  ASN X1001      12.288  35.224  27.179  1.00101.08 LIG 0.14  C 
BRANCH 48 49
ATOM     49  CG  ASN X1001      12.883  36.498  26.564  1.00100.04 LIG 0.22  C 
ATOM     50  ND2 ASN X1001      12.840  36.619  25.249  1.00 98.76 LIG-0.37  N 
ATOM     51 21HD ASN X1001      13.129  37.337  24.874  1.00 98.76 LIG 0.16  HD
ATOM     52 22HD ASN X1001      12.523  35.980  24.768  1.00 98.76 LIG 0.16  HD
ATOM     53 OD1  ASN X1001      13.325  37.381  27.285  1.00 97.91 LIG-0.27  OA
ENDBRANCH 48 49
ENDBRANCH 38 48
ENDBRANCH 34 38
ENDBRANCH 1 31
TORSDOF 19
ENDMDL
MODEL 4
USER: ADFR SOLUTION from run 68
USER: SCORE 12.230331 LL:  -2.901 LR: -12.298 RR:   0.000 FEB:  -6.630
USER: RMSD 2.327631
USER: SEED 67
USER: STATUS no improvement in best in 2 clusters for 5 generations
USER: GENES 21
USER: genes 0 Translation |==|  0.54582 0.43079 0.56060
USER: genes 1 Rotation |==|  0.54024 0.61872 0.46776 0.98296
USER: genes 2 Torsion [C]-N--CA-[CB] |==|  0.26391
USER: genes 3 Torsion [N]-CA--C-[N] |==|  0.47462
USER: genes 4 Torsion [C]-N--CA-[C] |==|  0.80470
USER: genes 5 Torsion [N]-CA--CB-[SG] |==|  0.57379
USER: genes 6 Torsion [CA]-CB--SG-[HG] |==|  0.42577
USER: genes 7 Torsion [N]-CA--C-[N] |==|  0.49742
USER: genes 8 Torsion [C]-N--CA-[CB] |==|  0.25000
USER: genes 9 Torsion [N]-CA--C-[N] |==|  0.81742
USER: genes 10 Torsion [C]-N--CA-[CB] |==|  0.22091
USER: genes 11 Torsion [N]-CA--C-[O] |==|  0.06337
USER: genes 12 Torsion [N]-CA--CB-[CG2] |==|  0.80834
USER: genes 13 Torsion [O]-C--CA-[N] |==|  0.09984
USER: genes 14 Torsion [N]-C--CA-[N] |==|  0.27013
USER: genes 15 Torsion [C]-CA--N-[C] |==|  0.56123
USER: genes 16 Torsion [N]-C--CA-[N] |==|  0.11661
USER: genes 17 Torsion [C]-CA--CB-[OG] |==|  0.18351
USER: genes 18 Torsion [CA]-CB--OG-[HG] |==|  0.05586
USER: genes 19 Torsion [C]-CA--CB-[CG] |==|  0.10751
USER: genes 20 Torsion [CA]-CB--CG-[ND2] |==|  0.25451
ROOT
ATOM      1  C   PRO X1002      17.229  36.306  27.717  1.00 98.27 LIG 0.24  C 
ATOM      2 O    PRO X1002      16.449  37.176  27.350  1.00 97.40 LIG-0.27  OA
ATOM      3  N   ALA X1003      18.551  36.441  27.662  1.00 97.43 LIG-0.35  N 
ATOM      4 H    ALA X1003      19.098  35.944  28.103  1.00 97.43 LIG 0.16  HD
ENDROOT
BRANCH 3 5
ATOM      5  CA  ALA X1003      19.202  37.460  26.837  1.00 96.73 LIG 0.17  C 
ATOM      6  CB  ALA X1003      19.501  38.693  27.658  1.00 96.74 LIG 0.04  C 
BRANCH 5 7
ATOM      7  C   ALA X1003      20.487  36.805  26.329  1.00 95.66 LIG 0.24  C 
ATOM      8 O    ALA X1003      20.829  35.729  26.793  1.00 95.14 LIG-0.27  OA
ATOM      9  N   CYS X1004      21.228  37.400  25.401  1.00 94.40 LIG-0.34  N 
ATOM     10 H    CYS X1004      21.833  36.966  24.970  1.00 94.40 LIG 0.16  HD
BRANCH 9 11
ATOM     11  CA  CYS X1004      21.157  38.799  24.975  1.00 94.17 LIG 0.18  C 
BRANCH 11 12
ATOM     12  CB  CYS X1004      22.390  39.072  24.084  1.00 94.12 LIG 0.10  C 
BRANCH 12 13
ATOM     13 SG   CYS X1004      23.018  40.726  23.979  1.00 91.26 LIG-0.18  SA
ATOM     14 HG   CYS X1004      24.189  40.695  23.719  1.00 91.26 LIG 0.10  HD
ENDBRANCH 12 13
ENDBRANCH 11 12
BRANCH 11 15
ATOM     15  C   CYS X1004      19.873  39.112  24.184  1.00 93.84 LIG 0.24  C 
ATOM     16 O    CYS X1004      19.067  38.235  23.912  1.00 93.01 LIG-0.27  OA
ATOM     17  N   VAL X1005      19.722  40.364  23.778  1.00 93.78 LIG-0.35  N 
ATOM     18 H    VAL X1005      20.338  40.959  23.842  1.00 93.78 LIG 0.16  HD
BRANCH 17 19
ATOM     19  CA  VAL X1005      18.480  40.857  23.175  1.00 93.73 LIG 0.18  C 
BRANCH 19 20
ATOM     20  C   VAL X1005      18.738  41.907  22.087  1.00 93.48 LIG 0.24  C 
ATOM     21  N   ALA X1006      19.271  43.060  22.488  1.00 93.27 LIG-0.35  N 
ATOM     22 H    ALA X1006      19.462  43.232  23.308  1.00 93.27 LIG 0.16  HD
ATOM     23 O    VAL X1005      18.450  41.677  20.917  1.00 93.20 LIG-0.27  OA
BRANCH 21 24
ATOM     24  CA  ALA X1006      19.584  44.152  21.568  1.00 93.01 LIG 0.16  C 
ATOM     25  CB  ALA X1006      18.339  44.920  21.233  1.00 92.79 LIG 0.04  C 
BRANCH 24 26
ATOM     26  C   ALA X1006      20.630  45.083  22.162  1.00 92.71 LIG 0.22  C 
ATOM     27 O    ALA X1006      21.397  44.701  23.041  1.00 91.80 LIG-0.29  OA
ENDBRANCH 24 26
ENDBRANCH 21 24
ENDBRANCH 19 20
BRANCH 19 28
ATOM     28  CB  VAL X1005      17.547  41.402  24.297  1.00 93.65 LIG 0.01  C 
ATOM     29  CG2 VAL X1005      17.054  40.251  25.142  1.00 92.72 LIG 0.01  C 
ATOM     30  CG1 VAL X1005      16.399  42.233  23.744  1.00 92.97 LIG 0.01  C 
ENDBRANCH 19 28
ENDBRANCH 17 19
ENDBRANCH 11 15
ENDBRANCH 9 11
ENDBRANCH 5 7
ENDBRANCH 3 5
BRANCH 1 31
ATOM     31  CA  PRO X1002      16.712  35.003  28.332  1.00 99.31 LIG 0.18  C 
ATOM     32  N   PRO X1002      15.465  34.485  27.764  1.00 99.88 LIG-0.34  N 
ATOM     33  CD  PRO X1002      15.720  33.320  26.910  1.00 99.70 LIG 0.13  C 
ATOM     34  C   ASN X1001      14.302  35.055  28.121  1.00100.64 LIG 0.24  C 
ATOM     35  CG  PRO X1002      16.877  32.712  27.583  1.00 99.65 LIG 0.02  C 
ATOM     36  CB  PRO X1002      17.706  33.867  28.067  1.00 99.37 LIG 0.04  C 
ATOM     37 O    ASN X1001      14.260  35.977  28.927  1.00100.22 LIG-0.27  OA
BRANCH 34 38
ATOM     38  CA  ASN X1001      12.994  34.446  27.572  1.00101.23 LIG 0.18  C 
BRANCH 38 39
ATOM     39  N   ASN X1001      12.469  33.558  28.620  1.00101.62 LIG-0.34  N 
ATOM     40  C   SER X1000      11.622  32.575  28.307  1.00101.89 LIG 0.26  C 
ATOM     41 O    SER X1000      10.924  32.597  27.284  1.00101.60 LIG-0.27  OA
ATOM     42 H    ASN X1001      12.748  33.728  29.416  1.00101.62 LIG 0.16  HD
BRANCH 40 43
ATOM     43  CA  SER X1000      11.528  31.391  29.280  1.00101.91 LIG 0.42  C 
ATOM     44  N   SER X1000      11.521  31.835  30.699  1.00101.55 LIG 0.62  N 
BRANCH 43 45
ATOM     45  CB  SER X1000      10.305  30.523  28.989  1.00101.96 LIG 0.21  C 
BRANCH 45 46
ATOM     46 OG   SER X1000      10.398  29.872  27.733  1.00101.15 LIG-0.40  OA
ATOM     47 HG   SER X1000      11.201  29.848  27.489  1.00101.15 LIG 0.21  HD
ENDBRANCH 45 46
ENDBRANCH 43 45
ENDBRANCH 40 43
ENDBRANCH 38 39
BRANCH 38 48
ATOM     48  CB  ASN X1001      11.932  35.459  27.074  1.00101.08 LIG 0.14  C 
BRANCH 48 49
ATOM     49  CG  ASN X1001      12.507  36.671  26.330  1.00100.04 LIG 0.22  C 
ATOM     50  ND2 ASN X1001      12.624  36.583  25.017  1.00 98.76 LIG-0.37  N 
ATOM     51 21HD ASN X1001      12.905  37.258  24.564  1.00 98.76 LIG 0.16  HD
ATOM     52 22HD ASN X1001      12.419  35.850  24.615  1.00 98.76 LIG 0.16  HD
ATOM     53 OD1  ASN X1001      12.788  37.692  26.941  1.00 97.91 LIG-0.27  OA
ENDBRANCH 48 49
ENDBRANCH 38 48
ENDBRANCH 34 38
ENDBRANCH 1 31
TORSDOF 19
ENDMDL
MODEL 5
USER: ADFR SOLUTION from run 93
USER: SCORE 12.207771 LL:  -3.621 LR: -12.103 RR:   0.000 FEB:  -6.436
USER: RMSD 2.433252
USER: SEED 92
USER: STATUS no improvement in best in 3 clusters for 5 generations
USER: GENES 21
USER: genes 0 Translation |==|  0.53109 0.42221 0.55950
USER: genes 1 Rotation |==|  0.51020 0.53204 0.50792 0.99881
USER: genes 2 Torsion [C]-N--CA-[CB] |==|  0.38618
USER: genes 3 Torsion [N]-CA--C-[N] |==|  0.46502
USER: genes 4 Torsion [C]-N--CA-[C] |==|  0.69370
USER: genes 5 Torsion [N]-CA--CB-[SG] |==|  0.05336
USER: genes 6 Torsion [CA]-CB--SG-[HG] |==|  0.10114
USER: genes 7 Torsion [N]-CA--C-[N] |==|  0.56615
USER: genes 8 Torsion [C]-N--CA-[CB] |==|  0.13290
USER: genes 9 Torsion [N]-CA--C-[N] |==|  0.49211
USER: genes 10 Torsion [C]-N--CA-[CB] |==|  0.29625
USER: genes 11 Torsion [N]-CA--C-[O] |==|  0.86978
USER: genes 12 Torsion [N]-CA--CB-[CG2] |==|  0.60769
USER: genes 13 Torsion [O]-C--CA-[N] |==|  0.00889
USER: genes 14 Torsion [N]-C--CA-[N] |==|  0.36710
USER: genes 15 Torsion [C]-CA--N-[C] |==|  0.85482
USER: genes 16 Torsion [N]-C--CA-[N] |==|  0.43437
USER: genes 17 Torsion [C]-CA--CB-[OG] |==|  0.14847
USER: genes 18 Torsion [CA]-CB--OG-[HG] |==|  0.81664
USER: genes 19 Torsion [C]-CA--CB-[CG] |==|  0.02723
USER: genes 20 Torsion [CA]-CB--CG-[ND2] |==|  0.34674
ROOT
ATOM      1  C   PRO X1002      16.875  36.133  27.695  1.00 98.27 LIG 0.24  C 
ATOM      2 O    PRO X1002      16.166  36.822  26.974  1.00 97.40 LIG-0.27  OA
ATOM      3  N   ALA X1003      18.098  36.492  28.075  1.00 97.43 LIG-0.35  N 
ATOM      4 H    ALA X1003      18.515  36.134  28.737  1.00 97.43 LIG 0.16  HD
ENDROOT
BRANCH 3 5
ATOM      5  CA  ALA X1003      18.854  37.545  27.394  1.00 96.73 LIG 0.17  C 
ATOM      6  CB  ALA X1003      19.576  38.412  28.399  1.00 96.74 LIG 0.04  C 
BRANCH 5 7
ATOM      7  C   ALA X1003      19.839  36.809  26.485  1.00 95.66 LIG 0.24  C 
ATOM      8 O    ALA X1003      20.009  35.611  26.641  1.00 95.14 LIG-0.27  OA
ATOM      9  N   CYS X1004      20.506  37.464  25.542  1.00 94.40 LIG-0.34  N 
ATOM     10 H    CYS X1004      20.905  37.042  24.907  1.00 94.40 LIG 0.16  HD
BRANCH 9 11
ATOM     11  CA  CYS X1004      20.674  38.913  25.420  1.00 94.17 LIG 0.18  C 
BRANCH 11 12
ATOM     12  CB  CYS X1004      22.185  39.189  25.244  1.00 94.12 LIG 0.10  C 
BRANCH 12 13
ATOM     13 SG   CYS X1004      23.238  37.866  24.715  1.00 91.26 LIG-0.18  SA
ATOM     14 HG   CYS X1004      22.653  37.179  23.924  1.00 91.26 LIG 0.10  HD
ENDBRANCH 12 13
ENDBRANCH 11 12
BRANCH 11 15
ATOM     15  C   CYS X1004      19.901  39.500  24.223  1.00 93.84 LIG 0.24  C 
ATOM     16 O    CYS X1004      18.957  38.905  23.727  1.00 93.01 LIG-0.27  OA
ATOM     17  N   VAL X1005      20.349  40.648  23.739  1.00 93.78 LIG-0.35  N 
ATOM     18 H    VAL X1005      21.089  41.010  23.987  1.00 93.78 LIG 0.16  HD
BRANCH 17 19
ATOM     19  CA  VAL X1005      19.622  41.419  22.726  1.00 93.73 LIG 0.18  C 
BRANCH 19 20
ATOM     20  C   VAL X1005      20.259  42.791  22.471  1.00 93.48 LIG 0.24  C 
ATOM     21  N   ALA X1006      19.699  43.539  21.522  1.00 93.27 LIG-0.35  N 
ATOM     22 H    ALA X1006      19.020  43.285  21.059  1.00 93.27 LIG 0.16  HD
ATOM     23 O    VAL X1005      21.239  43.152  23.112  1.00 93.20 LIG-0.27  OA
BRANCH 21 24
ATOM     24  CA  ALA X1006      20.185  44.872  21.171  1.00 93.01 LIG 0.16  C 
ATOM     25  CB  ALA X1006      20.896  44.833  19.851  1.00 92.79 LIG 0.04  C 
BRANCH 24 26
ATOM     26  C   ALA X1006      19.042  45.874  21.122  1.00 92.71 LIG 0.22  C 
ATOM     27 O    ALA X1006      17.995  45.619  20.534  1.00 91.80 LIG-0.29  OA
ENDBRANCH 24 26
ENDBRANCH 21 24
ENDBRANCH 19 20
BRANCH 19 28
ATOM     28  CB  VAL X1005      18.129  41.543  23.151  1.00 93.65 LIG 0.01  C 
ATOM     29  CG2 VAL X1005      17.249  41.417  21.929  1.00 92.72 LIG 0.01  C 
ATOM     30  CG1 VAL X1005      17.849  42.823  23.922  1.00 92.97 LIG 0.01  C 
ENDBRANCH 19 28
ENDBRANCH 17 19
ENDBRANCH 11 15
ENDBRANCH 9 11
ENDBRANCH 5 7
ENDBRANCH 3 5
BRANCH 1 31
ATOM     31  CA  PRO X1002      16.358  34.809  28.265  1.00 99.31 LIG 0.18  C 
ATOM     32  N   PRO X1002      15.017  34.412  27.829  1.00 99.88 LIG-0.34  N 
ATOM     33  CD  PRO X1002      15.083  33.318  26.855  1.00 99.70 LIG 0.13  C 
ATOM     34  C   ASN X1001      13.950  35.010  28.385  1.00100.64 LIG 0.24  C 
ATOM     35  CG  PRO X1002      16.275  32.589  27.313  1.00 99.65 LIG 0.02  C 
ATOM     36  CB  PRO X1002      17.233  33.650  27.775  1.00 99.37 LIG 0.04  C 
ATOM     37 O    ASN X1001      14.073  35.856  29.263  1.00100.22 LIG-0.27  OA
BRANCH 34 38
ATOM     38  CA  ASN X1001      12.545  34.524  27.969  1.00101.23 LIG 0.18  C 
BRANCH 38 39
ATOM     39  N   ASN X1001      11.781  34.328  29.209  1.00101.62 LIG-0.34  N 
ATOM     40  C   SER X1000      12.279  33.577  30.195  1.00101.89 LIG 0.26  C 
ATOM     41 O    SER X1000      13.136  32.704  30.000  1.00101.60 LIG-0.27  OA
ATOM     42 H    ASN X1001      11.019  34.725  29.235  1.00101.62 LIG 0.16  HD
BRANCH 40 43
ATOM     43  CA  SER X1000      11.739  33.826  31.611  1.00101.91 LIG 0.42  C 
ATOM     44  N   SER X1000      11.906  32.636  32.488  1.00101.55 LIG 0.62  N 
BRANCH 43 45
ATOM     45  CB  SER X1000      12.388  35.052  32.250  1.00101.96 LIG 0.21  C 
BRANCH 45 46
ATOM     46 OG   SER X1000      12.280  36.203  31.430  1.00101.15 LIG-0.40  OA
ATOM     47 HG   SER X1000      12.728  36.091  30.729  1.00101.15 LIG 0.21  HD
ENDBRANCH 45 46
ENDBRANCH 43 45
ENDBRANCH 40 43
ENDBRANCH 38 39
BRANCH 38 48
ATOM     48  CB  ASN X1001      11.793  35.419  26.952  1.00101.08 LIG 0.14  C 
BRANCH 48 49
ATOM     49  CG  ASN X1001      12.647  36.531  26.328  1.00100.04 LIG 0.22  C 
ATOM     50  ND2 ASN X1001      12.714  36.583  25.010  1.00 98.76 LIG-0.37  N 
ATOM     51 21HD ASN X1001      13.151  37.216  24.626  1.00 98.76 LIG 0.16  HD
ATOM     52 22HD ASN X1001      12.321  35.983  24.535  1.00 98.76 LIG 0.16  HD
ATOM     53 OD1  ASN X1001      13.190  37.363  27.040  1.00 97.91 LIG-0.27  OA
ENDBRANCH 48 49
ENDBRANCH 38 48
ENDBRANCH 34 38
ENDBRANCH 1 31
TORSDOF 19
ENDMDL
MODEL 6
USER: ADFR SOLUTION from run 132
USER: SCORE 12.256221 LL:  -3.451 LR: -11.961 RR:   0.000 FEB:  -6.294
USER: RMSD 3.146724
USER: SEED 131
USER: STATUS no improvement in best in 4 clusters for 5 generations
USER: GENES 21
USER: genes 0 Translation |==|  0.54726 0.43283 0.57195
USER: genes 1 Rotation |==|  0.48918 0.52767 0.54263 0.99729
USER: genes 2 Torsion [C]-N--CA-[CB] |==|  0.42892
USER: genes 3 Torsion [N]-CA--C-[N] |==|  0.41469
USER: genes 4 Torsion [C]-N--CA-[C] |==|  0.77937
USER: genes 5 Torsion [N]-CA--CB-[SG] |==|  0.83814
USER: genes 6 Torsion [CA]-CB--SG-[HG] |==|  0.20740
USER: genes 7 Torsion [N]-CA--C-[N] |==|  0.48333
USER: genes 8 Torsion [C]-N--CA-[CB] |==|  0.29994
USER: genes 9 Torsion [N]-CA--C-[N] |==|  0.37880
USER: genes 10 Torsion [C]-N--CA-[CB] |==|  0.30071
USER: genes 11 Torsion [N]-CA--C-[O] |==|  0.76461
USER: genes 12 Torsion [N]-CA--CB-[CG2] |==|  0.81347
USER: genes 13 Torsion [O]-C--CA-[N] |==|  0.98320
USER: genes 14 Torsion [N]-C--CA-[N] |==|  0.79906
USER: genes 15 Torsion [C]-CA--N-[C] |==|  0.69737
USER: genes 16 Torsion [N]-C--CA-[N] |==|  0.47760
USER: genes 17 Torsion [C]-CA--CB-[OG] |==|  0.93472
USER: genes 18 Torsion [CA]-CB--OG-[HG] |==|  0.39069
USER: genes 19 Torsion [C]-CA--CB-[CG] |==|  0.46159
USER: genes 20 Torsion [CA]-CB--CG-[ND2] |==|  0.29455
ROOT
ATOM      1  C   PRO X1002      17.263  36.348  27.938  1.00 98.27 LIG 0.24  C 
ATOM      2 O    PRO X1002      16.482  36.873  27.156  1.00 97.40 LIG-0.27  OA
ATOM      3  N   ALA X1003      18.412  36.907  28.309  1.00 97.43 LIG-0.35  N 
ATOM      4 H    ALA X1003      18.858  36.661  29.002  1.00 97.43 LIG 0.16  HD
ENDROOT
BRANCH 3 5
ATOM      5  CA  ALA X1003      19.028  38.004  27.562  1.00 96.73 LIG 0.17  C 
ATOM      6  CB  ALA X1003      19.908  38.832  28.469  1.00 96.74 LIG 0.04  C 
BRANCH 5 7
ATOM      7  C   ALA X1003      19.843  37.332  26.457  1.00 95.66 LIG 0.24  C 
ATOM      8 O    ALA X1003      20.332  36.233  26.665  1.00 95.14 LIG-0.27  OA
ATOM      9  N   CYS X1004      20.026  37.936  25.289  1.00 94.40 LIG-0.34  N 
ATOM     10 H    CYS X1004      20.306  37.499  24.602  1.00 94.40 LIG 0.16  HD
BRANCH 9 11
ATOM     11  CA  CYS X1004      19.800  39.348  24.978  1.00 94.17 LIG 0.18  C 
BRANCH 11 12
ATOM     12  CB  CYS X1004      20.607  39.673  23.699  1.00 94.12 LIG 0.10  C 
BRANCH 12 13
ATOM     13 SG   CYS X1004      22.359  39.410  23.706  1.00 91.26 LIG-0.18  SA
ATOM     14 HG   CYS X1004      22.588  38.234  23.635  1.00 91.26 LIG 0.10  HD
ENDBRANCH 12 13
ENDBRANCH 11 12
BRANCH 11 15
ATOM     15  C   CYS X1004      18.313  39.673  24.743  1.00 93.84 LIG 0.24  C 
ATOM     16 O    CYS X1004      17.476  38.787  24.668  1.00 93.01 LIG-0.27  OA
ATOM     17  N   VAL X1005      18.008  40.951  24.577  1.00 93.78 LIG-0.35  N 
ATOM     18 H    VAL X1005      18.598  41.571  24.492  1.00 93.78 LIG 0.16  HD
BRANCH 17 19
ATOM     19  CA  VAL X1005      16.625  41.436  24.524  1.00 93.73 LIG 0.18  C 
BRANCH 19 20
ATOM     20  C   VAL X1005      16.355  42.287  23.276  1.00 93.48 LIG 0.24  C 
ATOM     21  N   ALA X1006      15.212  42.053  22.634  1.00 93.27 LIG-0.35  N 
ATOM     22 H    ALA X1006      14.644  41.457  22.883  1.00 93.27 LIG 0.16  HD
ATOM     23 O    VAL X1005      17.169  43.124  22.904  1.00 93.20 LIG-0.27  OA
BRANCH 21 24
ATOM     24  CA  ALA X1006      14.809  42.788  21.437  1.00 93.01 LIG 0.16  C 
ATOM     25  CB  ALA X1006      14.910  41.906  20.228  1.00 92.79 LIG 0.04  C 
BRANCH 24 26
ATOM     26  C   ALA X1006      13.393  43.325  21.577  1.00 92.71 LIG 0.22  C 
ATOM     27 O    ALA X1006      12.418  42.629  21.308  1.00 91.80 LIG-0.29  OA
ENDBRANCH 24 26
ENDBRANCH 21 24
ENDBRANCH 19 20
BRANCH 19 28
ATOM     28  CB  VAL X1005      16.303  42.212  25.836  1.00 93.65 LIG 0.01  C 
ATOM     29  CG2 VAL X1005      16.300  41.248  26.999  1.00 92.72 LIG 0.01  C 
ATOM     30  CG1 VAL X1005      15.003  42.994  25.743  1.00 92.97 LIG 0.01  C 
ENDBRANCH 19 28
ENDBRANCH 17 19
ENDBRANCH 11 15
ENDBRANCH 9 11
ENDBRANCH 5 7
ENDBRANCH 3 5
BRANCH 1 31
ATOM     31  CA  PRO X1002      16.925  35.008  28.598  1.00 99.31 LIG 0.18  C 
ATOM     32  N   PRO X1002      15.578  34.495  28.336  1.00 99.88 LIG-0.34  N 
ATOM     33  CD  PRO X1002      15.616  33.377  27.389  1.00 99.70 LIG 0.13  C 
ATOM     34  C   ASN X1001      14.539  35.028  29.002  1.00100.64 LIG 0.24  C 
ATOM     35  CG  PRO X1002      16.908  32.758  27.718  1.00 99.65 LIG 0.02  C 
ATOM     36  CB  PRO X1002      17.826  33.904  28.036  1.00 99.37 LIG 0.04  C 
ATOM     37 O    ASN X1001      14.697  35.910  29.838  1.00100.22 LIG-0.27  OA
BRANCH 34 38
ATOM     38  CA  ASN X1001      13.139  34.422  28.771  1.00101.23 LIG 0.18  C 
BRANCH 38 39
ATOM     39  N   ASN X1001      12.717  34.834  27.424  1.00101.62 LIG-0.34  N 
ATOM     40  C   SER X1000      11.744  35.735  27.270  1.00101.89 LIG 0.26  C 
ATOM     41 O    SER X1000      10.890  35.950  28.142  1.00101.60 LIG-0.27  OA
ATOM     42 H    ASN X1001      13.139  34.455  26.777  1.00101.62 LIG 0.16  HD
BRANCH 40 43
ATOM     43  CA  SER X1000      11.705  36.510  25.945  1.00101.91 LIG 0.42  C 
ATOM     44  N   SER X1000      10.475  37.336  25.818  1.00101.55 LIG 0.62  N 
BRANCH 43 45
ATOM     45  CB  SER X1000      12.949  37.378  25.768  1.00101.96 LIG 0.21  C 
BRANCH 45 46
ATOM     46 OG   SER X1000      13.560  37.696  27.007  1.00101.15 LIG-0.40  OA
ATOM     47 HG   SER X1000      14.395  37.666  26.923  1.00101.15 LIG 0.21  HD
ENDBRANCH 45 46
ENDBRANCH 43 45
ENDBRANCH 40 43
ENDBRANCH 38 39
BRANCH 38 48
ATOM     48  CB  ASN X1001      13.022  32.891  28.980  1.00101.08 LIG 0.14  C 
BRANCH 48 49
ATOM     49  CG  ASN X1001      11.582  32.368  29.073  1.00100.04 LIG 0.22  C 
ATOM     50  ND2 ASN X1001      11.103  31.708  28.033  1.00 98.76 LIG-0.37  N 
ATOM     51 21HD ASN X1001      10.315  31.367  28.067  1.00 98.76 LIG 0.16  HD
ATOM     52 22HD ASN X1001      11.581  31.618  27.323  1.00 98.76 LIG 0.16  HD
ATOM     53 OD1  ASN X1001      10.938  32.519  30.101  1.00 97.91 LIG-0.27  OA
ENDBRANCH 48 49
ENDBRANCH 38 48
ENDBRANCH 34 38
ENDBRANCH 1 31
TORSDOF 19
ENDMDL
MODEL 7
USER: ADFR SOLUTION from run 184
USER: SCORE 13.294080 LL:  -3.570 LR: -11.671 RR:   0.000 FEB:  -6.003
USER: RMSD 2.758362
USER: SEED 183
USER: STATUS no improvement in best in 5 clusters for 5 generations
USER: GENES 21
USER: genes 0 Translation |==|  0.54127 0.42848 0.56429
USER: genes 1 Rotation |==|  0.49197 0.51352 0.51406 0.99956
USER: genes 2 Torsion [C]-N--CA-[CB] |==|  0.42821
USER: genes 3 Torsion [N]-CA--C-[N] |==|  0.44167
USER: genes 4 Torsion [C]-N--CA-[C] |==|  0.72443
USER: genes 5 Torsion [N]-CA--CB-[SG] |==|  0.93331
USER: genes 6 Torsion [CA]-CB--SG-[HG] |==|  0.22562
USER: genes 7 Torsion [N]-CA--C-[N] |==|  0.49651
USER: genes 8 Torsion [C]-N--CA-[CB] |==|  0.82815
USER: genes 9 Torsion [N]-CA--C-[N] |==|  0.93973
USER: genes 10 Torsion [C]-N--CA-[CB] |==|  0.32533
USER: genes 11 Torsion [N]-CA--C-[O] |==|  0.77826
USER: genes 12 Torsion [N]-CA--CB-[CG2] |==|  0.77662
USER: genes 13 Torsion [O]-C--CA-[N] |==|  0.02472
USER: genes 14 Torsion [N]-C--CA-[N] |==|  0.28477
USER: genes 15 Torsion [C]-CA--N-[C] |==|  0.57135
USER: genes 16 Torsion [N]-C--CA-[N] |==|  0.12613
USER: genes 17 Torsion [C]-CA--CB-[OG] |==|  0.18971
USER: genes 18 Torsion [CA]-CB--OG-[HG] |==|  0.86579
USER: genes 19 Torsion [C]-CA--CB-[CG] |==|  0.08322
USER: genes 20 Torsion [CA]-CB--CG-[ND2] |==|  0.27692
ROOT
ATOM      1  C   PRO X1002      17.119  36.260  27.789  1.00 98.27 LIG 0.24  C 
ATOM      2 O    PRO X1002      16.450  36.876  26.970  1.00 97.40 LIG-0.27  OA
ATOM      3  N   ALA X1003      18.300  36.681  28.233  1.00 97.43 LIG-0.35  N 
ATOM      4 H    ALA X1003      18.674  36.382  28.947  1.00 97.43 LIG 0.16  HD
ENDROOT
BRANCH 3 5
ATOM      5  CA  ALA X1003      19.079  37.707  27.536  1.00 96.73 LIG 0.17  C 
ATOM      6  CB  ALA X1003      19.989  38.428  28.505  1.00 96.74 LIG 0.04  C 
BRANCH 5 7
ATOM      7  C   ALA X1003      19.882  36.952  26.476  1.00 95.66 LIG 0.24  C 
ATOM      8 O    ALA X1003      20.078  35.756  26.620  1.00 95.14 LIG-0.27  OA
ATOM      9  N   CYS X1004      20.367  37.588  25.416  1.00 94.40 LIG-0.34  N 
ATOM     10 H    CYS X1004      20.643  37.154  24.726  1.00 94.40 LIG 0.16  HD
BRANCH 9 11
ATOM     11  CA  CYS X1004      20.509  39.034  25.240  1.00 94.17 LIG 0.18  C 
BRANCH 11 12
ATOM     12  CB  CYS X1004      21.857  39.280  24.523  1.00 94.12 LIG 0.10  C 
BRANCH 12 13
ATOM     13 SG   CYS X1004      23.133  38.058  24.660  1.00 91.26 LIG-0.18  SA
ATOM     14 HG   CYS X1004      22.926  37.173  23.877  1.00 91.26 LIG 0.10  HD
ENDBRANCH 12 13
ENDBRANCH 11 12
BRANCH 11 15
ATOM     15  C   CYS X1004      19.366  39.645  24.408  1.00 93.84 LIG 0.24  C 
ATOM     16 O    CYS X1004      18.500  38.942  23.910  1.00 93.01 LIG-0.27  OA
ATOM     17  N   VAL X1005      19.407  40.956  24.224  1.00 93.78 LIG-0.35  N 
ATOM     18 H    VAL X1005      20.077  41.445  24.451  1.00 93.78 LIG 0.16  HD
BRANCH 17 19
ATOM     19  CA  VAL X1005      18.305  41.705  23.613  1.00 93.73 LIG 0.18  C 
BRANCH 19 20
ATOM     20  C   VAL X1005      17.017  41.629  24.443  1.00 93.48 LIG 0.24  C 
ATOM     21  N   ALA X1006      16.915  40.604  25.288  1.00 93.27 LIG-0.35  N 
ATOM     22 H    ALA X1006      17.522  40.002  25.375  1.00 93.27 LIG 0.16  HD
ATOM     23 O    VAL X1005      16.138  42.473  24.309  1.00 93.20 LIG-0.27  OA
BRANCH 21 24
ATOM     24  CA  ALA X1006      15.754  40.402  26.153  1.00 93.01 LIG 0.16  C 
ATOM     25  CB  ALA X1006      15.065  39.116  25.802  1.00 92.79 LIG 0.04  C 
BRANCH 24 26
ATOM     26  C   ALA X1006      16.160  40.396  27.618  1.00 92.71 LIG 0.22  C 
ATOM     27 O    ALA X1006      16.653  39.400  28.140  1.00 91.80 LIG-0.29  OA
ENDBRANCH 24 26
ENDBRANCH 21 24
ENDBRANCH 19 20
BRANCH 19 28
ATOM     28  CB  VAL X1005      18.086  41.198  22.156  1.00 93.65 LIG 0.01  C 
ATOM     29  CG2 VAL X1005      19.107  41.839  21.245  1.00 92.72 LIG 0.01  C 
ATOM     30  CG1 VAL X1005      16.665  41.430  21.668  1.00 92.97 LIG 0.01  C 
ENDBRANCH 19 28
ENDBRANCH 17 19
ENDBRANCH 11 15
ENDBRANCH 9 11
ENDBRANCH 5 7
ENDBRANCH 3 5
BRANCH 1 31
ATOM     31  CA  PRO X1002      16.594  34.963  28.410  1.00 99.31 LIG 0.18  C 
ATOM     32  N   PRO X1002      15.366  34.427  27.816  1.00 99.88 LIG-0.34  N 
ATOM     33  CD  PRO X1002      15.653  33.251  26.989  1.00 99.70 LIG 0.13  C 
ATOM     34  C   ASN X1001      14.190  34.996  28.130  1.00100.64 LIG 0.24  C 
ATOM     35  CG  PRO X1002      16.794  32.661  27.704  1.00 99.65 LIG 0.02  C 
ATOM     36  CB  PRO X1002      17.602  33.830  28.192  1.00 99.37 LIG 0.04  C 
ATOM     37 O    ASN X1001      14.119  35.930  28.919  1.00100.22 LIG-0.27  OA
BRANCH 34 38
ATOM     38  CA  ASN X1001      12.902  34.369  27.555  1.00101.23 LIG 0.18  C 
BRANCH 38 39
ATOM     39  N   ASN X1001      12.285  33.597  28.643  1.00101.62 LIG-0.34  N 
ATOM     40  C   SER X1000      11.487  32.563  28.366  1.00101.89 LIG 0.26  C 
ATOM     41 O    SER X1000      10.897  32.447  27.283  1.00101.60 LIG-0.27  OA
ATOM     42 H    ASN X1001      12.480  33.866  29.437  1.00101.62 LIG 0.16  HD
BRANCH 40 43
ATOM     43  CA  SER X1000      11.310  31.498  29.459  1.00101.91 LIG 0.42  C 
ATOM     44  N   SER X1000      11.071  32.106  30.795  1.00101.55 LIG 0.62  N 
BRANCH 43 45
ATOM     45  CB  SER X1000      10.189  30.521  29.112  1.00101.96 LIG 0.21  C 
BRANCH 45 46
ATOM     46 OG   SER X1000      10.520  29.699  28.005  1.00101.15 LIG-0.40  OA
ATOM     47 HG   SER X1000      10.818  30.176  27.382  1.00101.15 LIG 0.21  HD
ENDBRANCH 45 46
ENDBRANCH 43 45
ENDBRANCH 40 43
ENDBRANCH 38 39
BRANCH 38 48
ATOM     48  CB  ASN X1001      11.906  35.355  26.895  1.00101.08 LIG 0.14  C 
BRANCH 48 49
ATOM     49  CG  ASN X1001      12.557  36.592  26.261  1.00100.04 LIG 0.22  C 
ATOM     50  ND2 ASN X1001      12.740  36.583  24.953  1.00 98.76 LIG-0.37  N 
ATOM     51 21HD ASN X1001      13.065  37.275  24.560  1.00 98.76 LIG 0.16  HD
ATOM     52 22HD ASN X1001      12.533  35.885  24.494  1.00 98.76 LIG 0.16  HD
ATOM     53 OD1  ASN X1001      12.837  37.561  26.951  1.00 97.91 LIG-0.27  OA
ENDBRANCH 48 49
ENDBRANCH 38 48
ENDBRANCH 34 38
ENDBRANCH 1 31
TORSDOF 19
ENDMDL
MODEL 8
USER: ADFR SOLUTION from run 90
USER: SCORE 12.211129 LL:  -3.331 LR: -11.526 RR:   0.000 FEB:  -5.858
USER: RMSD 1.684492
USER: SEED 89
USER: STATUS no improvement in best in 6 clusters for 5 generations
USER: GENES 21
USER: genes 0 Translation |==|  0.58476 0.39829 0.58131
USER: genes 1 Rotation |==|  0.55963 0.58930 0.46582 0.98714
USER: genes 2 Torsion [C]-N--CA-[CB] |==|  0.36254
USER: genes 3 Torsion [N]-CA--C-[N] |==|  0.44046
USER: genes 4 Torsion [C]-N--CA-[C] |==|  0.74490
USER: genes 5 Torsion [N]-CA--CB-[SG] |==|  0.44407
USER: genes 6 Torsion [CA]-CB--SG-[HG] |==|  0.45605
USER: genes 7 Torsion [N]-CA--C-[N] |==|  0.21528
USER: genes 8 Torsion [C]-N--CA-[CB] |==|  0.51898
USER: genes 9 Torsion [N]-CA--C-[N] |==|  0.38537
USER: genes 10 Torsion [C]-N--CA-[CB] |==|  0.19440
USER: genes 11 Torsion [N]-CA--C-[O] |==|  0.87118
USER: genes 12 Torsion [N]-CA--CB-[CG2] |==|  0.69084
USER: genes 13 Torsion [O]-C--CA-[N] |==|  0.06770
USER: genes 14 Torsion [N]-C--CA-[N] |==|  0.44867
USER: genes 15 Torsion [C]-CA--N-[C] |==|  0.59220
USER: genes 16 Torsion [N]-C--CA-[N] |==|  0.78426
USER: genes 17 Torsion [C]-CA--CB-[OG] |==|  0.76543
USER: genes 18 Torsion [CA]-CB--OG-[HG] |==|  0.43850
USER: genes 19 Torsion [C]-CA--CB-[CG] |==|  0.78129
USER: genes 20 Torsion [CA]-CB--CG-[ND2] |==|  0.57038
ROOT
ATOM      1  C   PRO X1002      18.163  35.648  28.121  1.00 98.27 LIG 0.24  C 
ATOM      2 O    PRO X1002      17.461  36.568  27.721  1.00 97.40 LIG-0.27  OA
ATOM      3  N   ALA X1003      19.486  35.735  28.235  1.00 97.43 LIG-0.35  N 
ATOM      4 H    ALA X1003      19.959  35.192  28.705  1.00 97.43 LIG 0.16  HD
ENDROOT
BRANCH 3 5
ATOM      5  CA  ALA X1003      20.264  36.778  27.563  1.00 96.73 LIG 0.17  C 
ATOM      6  CB  ALA X1003      21.202  37.449  28.540  1.00 96.74 LIG 0.04  C 
BRANCH 5 7
ATOM      7  C   ALA X1003      21.036  36.055  26.459  1.00 95.66 LIG 0.24  C 
ATOM      8 O    ALA X1003      21.227  34.853  26.556  1.00 95.14 LIG-0.27  OA
ATOM      9  N   CYS X1004      21.500  36.724  25.410  1.00 94.40 LIG-0.34  N 
ATOM     10 H    CYS X1004      21.757  36.313  24.699  1.00 94.40 LIG 0.16  HD
BRANCH 9 11
ATOM     11  CA  CYS X1004      21.650  38.175  25.281  1.00 94.17 LIG 0.18  C 
BRANCH 11 12
ATOM     12  CB  CYS X1004      22.880  38.433  24.381  1.00 94.12 LIG 0.10  C 
BRANCH 12 13
ATOM     13 SG   CYS X1004      23.038  40.007  23.583  1.00 91.26 LIG-0.18  SA
ATOM     14 HG   CYS X1004      24.164  40.147  23.192  1.00 91.26 LIG 0.10  HD
ENDBRANCH 12 13
ENDBRANCH 11 12
BRANCH 11 15
ATOM     15  C   CYS X1004      20.409  38.845  24.660  1.00 93.84 LIG 0.24  C 
ATOM     16 O    CYS X1004      20.415  39.239  23.504  1.00 93.01 LIG-0.27  OA
ATOM     17  N   VAL X1005      19.368  39.013  25.460  1.00 93.78 LIG-0.35  N 
ATOM     18 H    VAL X1005      19.393  38.866  26.307  1.00 93.78 LIG 0.16  HD
BRANCH 17 19
ATOM     19  CA  VAL X1005      18.061  39.467  24.976  1.00 93.73 LIG 0.18  C 
BRANCH 19 20
ATOM     20  C   VAL X1005      18.172  40.703  24.073  1.00 93.48 LIG 0.24  C 
ATOM     21  N   ALA X1006      17.396  40.720  22.991  1.00 93.27 LIG-0.35  N 
ATOM     22 H    ALA X1006      16.859  40.081  22.785  1.00 93.27 LIG 0.16  HD
ATOM     23 O    VAL X1005      18.951  41.609  24.350  1.00 93.20 LIG-0.27  OA
BRANCH 21 24
ATOM     24  CA  ALA X1006      17.382  41.832  22.042  1.00 93.01 LIG 0.16  C 
ATOM     25  CB  ALA X1006      18.670  41.872  21.273  1.00 92.79 LIG 0.04  C 
BRANCH 24 26
ATOM     26  C   ALA X1006      16.204  41.719  21.087  1.00 92.71 LIG 0.22  C 
ATOM     27 O    ALA X1006      15.930  40.658  20.535  1.00 91.80 LIG-0.29  OA
ENDBRANCH 24 26
ENDBRANCH 21 24
ENDBRANCH 19 20
BRANCH 19 28
ATOM     28  CB  VAL X1005      17.123  39.721  26.193  1.00 93.65 LIG 0.01  C 
ATOM     29  CG2 VAL X1005      16.025  38.683  26.204  1.00 92.72 LIG 0.01  C 
ATOM     30  CG1 VAL X1005      16.567  41.136  26.212  1.00 92.97 LIG 0.01  C 
ENDBRANCH 19 28
ENDBRANCH 17 19
ENDBRANCH 11 15
ENDBRANCH 9 11
ENDBRANCH 5 7
ENDBRANCH 3 5
BRANCH 1 31
ATOM     31  CA  PRO X1002      17.536  34.330  28.582  1.00 99.31 LIG 0.18  C 
ATOM     32  N   PRO X1002      16.216  34.026  28.022  1.00 99.88 LIG-0.34  N 
ATOM     33  CD  PRO X1002      16.306  32.975  27.004  1.00 99.70 LIG 0.13  C 
ATOM     34  C   ASN X1001      15.139  34.656  28.520  1.00100.64 LIG 0.24  C 
ATOM     35  CG  PRO X1002      17.419  32.163  27.519  1.00 99.65 LIG 0.02  C 
ATOM     36  CB  PRO X1002      18.388  33.149  28.107  1.00 99.37 LIG 0.04  C 
ATOM     37 O    ASN X1001      15.232  35.453  29.446  1.00100.22 LIG-0.27  OA
BRANCH 34 38
ATOM     38  CA  ASN X1001      13.750  34.265  27.971  1.00101.23 LIG 0.18  C 
BRANCH 38 39
ATOM     39  N   ASN X1001      12.760  34.734  28.952  1.00101.62 LIG-0.34  N 
ATOM     40  C   SER X1000      11.632  34.048  29.151  1.00101.89 LIG 0.26  C 
ATOM     41 O    SER X1000      11.159  33.283  28.299  1.00101.60 LIG-0.27  OA
ATOM     42 H    ASN X1001      12.970  35.459  29.365  1.00101.62 LIG 0.16  HD
BRANCH 40 43
ATOM     43  CA  SER X1000      10.915  34.246  30.494  1.00101.91 LIG 0.42  C 
ATOM     44  N   SER X1000      11.574  33.493  31.594  1.00101.55 LIG 0.62  N 
BRANCH 43 45
ATOM     45  CB  SER X1000      10.803  35.726  30.856  1.00101.96 LIG 0.21  C 
BRANCH 45 46
ATOM     46 OG   SER X1000      11.971  36.209  31.497  1.00101.15 LIG-0.40  OA
ATOM     47 HG   SER X1000      12.013  37.043  31.412  1.00101.15 LIG 0.21  HD
ENDBRANCH 45 46
ENDBRANCH 43 45
ENDBRANCH 40 43
ENDBRANCH 38 39
BRANCH 38 48
ATOM     48  CB  ASN X1001      13.429  34.751  26.535  1.00101.08 LIG 0.14  C 
BRANCH 48 49
ATOM     49  CG  ASN X1001      13.017  36.226  26.438  1.00100.04 LIG 0.22  C 
ATOM     50  ND2 ASN X1001      12.262  36.583  25.414  1.00 98.76 LIG-0.37  N 
ATOM     51 21HD ASN X1001      11.979  37.392  25.350  1.00 98.76 LIG 0.16  HD
ATOM     52 22HD ASN X1001      12.052  36.005  24.812  1.00 98.76 LIG 0.16  HD
ATOM     53 OD1  ASN X1001      13.338  37.014  27.316  1.00 97.91 LIG-0.27  OA
ENDBRANCH 48 49
ENDBRANCH 38 48
ENDBRANCH 34 38
ENDBRANCH 1 31
TORSDOF 19
ENDMDL
MODEL 9
USER: ADFR SOLUTION from run 66
USER: SCORE 12.517028 LL:  -3.124 LR: -11.512 RR:   0.000 FEB:  -5.844
USER: RMSD 3.452424
USER: SEED 65
USER: STATUS searching
USER: GENES 21
USER: genes 0 Translation |==|  0.46438 0.50903 0.51709
USER: genes 1 Rotation |==|  0.44914 0.49817 0.49544 0.99738
USER: genes 2 Torsion [C]-N--CA-[CB] |==|  0.34613
USER: genes 3 Torsion [N]-CA--C-[N] |==|  0.46850
USER: genes 4 Torsion [C]-N--CA-[C] |==|  0.82222
USER: genes 5 Torsion [N]-CA--CB-[SG] |==|  0.90881
USER: genes 6 Torsion [CA]-CB--SG-[HG] |==|  0.25364
USER: genes 7 Torsion [N]-CA--C-[N] |==|  0.46056
USER: genes 8 Torsion [C]-N--CA-[CB] |==|  0.85713
USER: genes 9 Torsion [N]-CA--C-[N] |==|  0.36304
USER: genes 10 Torsion [C]-N--CA-[CB] |==|  0.18957
USER: genes 11 Torsion [N]-CA--C-[O] |==|  0.16840
USER: genes 12 Torsion [N]-CA--CB-[CG2] |==|  0.82590
USER: genes 13 Torsion [O]-C--CA-[N] |==|  0.06166
USER: genes 14 Torsion [N]-C--CA-[N] |==|  0.25901
USER: genes 15 Torsion [C]-CA--N-[C] |==|  0.75242
USER: genes 16 Torsion [N]-C--CA-[N] |==|  0.04273
USER: genes 17 Torsion [C]-CA--CB-[OG] |==|  0.14763
USER: genes 18 Torsion [CA]-CB--OG-[HG] |==|  0.83572
USER: genes 19 Torsion [C]-CA--CB-[CG] |==|  0.44141
USER: genes 20 Torsion [CA]-CB--CG-[ND2] |==|  0.07463
ROOT
ATOM      1  C   PRO X1002      15.274  37.891  26.868  1.00 98.27 LIG 0.24  C 
ATOM      2 O    PRO X1002      14.704  38.397  25.911  1.00 97.40 LIG-0.27  OA
ATOM      3  N   ALA X1003      16.454  38.309  27.319  1.00 97.43 LIG-0.35  N 
ATOM      4 H    ALA X1003      16.760  38.115  28.100  1.00 97.43 LIG 0.16  HD
ENDROOT
BRANCH 3 5
ATOM      5  CA  ALA X1003      17.348  39.147  26.519  1.00 96.73 LIG 0.17  C 
ATOM      6  CB  ALA X1003      17.698  40.412  27.269  1.00 96.74 LIG 0.04  C 
BRANCH 5 7
ATOM      7  C   ALA X1003      18.587  38.288  26.267  1.00 95.66 LIG 0.24  C 
ATOM      8 O    ALA X1003      18.729  37.252  26.895  1.00 95.14 LIG-0.27  OA
ATOM      9  N   CYS X1004      19.503  38.666  25.382  1.00 94.40 LIG-0.34  N 
ATOM     10 H    CYS X1004      20.092  38.112  25.090  1.00 94.40 LIG 0.16  HD
BRANCH 9 11
ATOM     11  CA  CYS X1004      19.665  39.995  24.789  1.00 94.17 LIG 0.18  C 
BRANCH 11 12
ATOM     12  CB  CYS X1004      20.937  39.956  23.912  1.00 94.12 LIG 0.10  C 
BRANCH 12 13
ATOM     13 SG   CYS X1004      22.287  38.922  24.413  1.00 91.26 LIG-0.18  SA
ATOM     14 HG   CYS X1004      22.170  37.839  23.910  1.00 91.26 LIG 0.10  HD
ENDBRANCH 12 13
ENDBRANCH 11 12
BRANCH 11 15
ATOM     15  C   CYS X1004      18.458  40.408  23.925  1.00 93.84 LIG 0.24  C 
ATOM     16 O    CYS X1004      17.647  39.583  23.534  1.00 93.01 LIG-0.27  OA
ATOM     17  N   VAL X1005      18.384  41.688  23.591  1.00 93.78 LIG-0.35  N 
ATOM     18 H    VAL X1005      19.014  42.254  23.742  1.00 93.78 LIG 0.16  HD
BRANCH 17 19
ATOM     19  CA  VAL X1005      17.211  42.268  22.929  1.00 93.73 LIG 0.18  C 
BRANCH 19 20
ATOM     20  C   VAL X1005      16.018  42.416  23.883  1.00 93.48 LIG 0.24  C 
ATOM     21  N   ALA X1006      15.415  43.603  23.899  1.00 93.27 LIG-0.35  N 
ATOM     22 H    ALA X1006      15.666  44.267  23.415  1.00 93.27 LIG 0.16  HD
ATOM     23 O    VAL X1005      15.666  41.479  24.590  1.00 93.20 LIG-0.27  OA
BRANCH 21 24
ATOM     24  CA  ALA X1006      14.259  43.894  24.746  1.00 93.01 LIG 0.16  C 
ATOM     25  CB  ALA X1006      14.665  43.904  26.190  1.00 92.79 LIG 0.04  C 
BRANCH 24 26
ATOM     26  C   ALA X1006      13.629  45.226  24.370  1.00 92.71 LIG 0.22  C 
ATOM     27 O    ALA X1006      13.173  45.421  23.246  1.00 91.80 LIG-0.29  OA
ENDBRANCH 24 26
ENDBRANCH 21 24
ENDBRANCH 19 20
BRANCH 19 28
ATOM     28  CB  VAL X1005      16.852  41.410  21.680  1.00 93.65 LIG 0.01  C 
ATOM     29  CG2 VAL X1005      17.996  41.455  20.695  1.00 92.72 LIG 0.01  C 
ATOM     30  CG1 VAL X1005      15.538  41.834  21.043  1.00 92.97 LIG 0.01  C 
ENDBRANCH 19 28
ENDBRANCH 17 19
ENDBRANCH 11 15
ENDBRANCH 9 11
ENDBRANCH 5 7
ENDBRANCH 3 5
BRANCH 1 31
ATOM     31  CA  PRO X1002      14.617  36.757  27.660  1.00 99.31 LIG 0.18  C 
ATOM     32  N   PRO X1002      13.583  36.003  26.946  1.00 99.88 LIG-0.34  N 
ATOM     33  CD  PRO X1002      14.076  34.681  26.549  1.00 99.70 LIG 0.13  C 
ATOM     34  C   ASN X1001      12.362  36.546  26.808  1.00100.64 LIG 0.24  C 
ATOM     35  CG  PRO X1002      15.004  34.371  27.647  1.00 99.65 LIG 0.02  C 
ATOM     36  CB  PRO X1002      15.655  35.680  27.994  1.00 99.37 LIG 0.04  C 
ATOM     37 O    ASN X1001      12.088  37.641  27.286  1.00100.22 LIG-0.27  OA
BRANCH 34 38
ATOM     38  CA  ASN X1001      11.265  35.705  26.122  1.00101.23 LIG 0.18  C 
BRANCH 38 39
ATOM     39  N   ASN X1001      10.536  35.007  27.191  1.00101.62 LIG-0.34  N 
ATOM     40  C   SER X1000      10.944  33.807  27.612  1.00101.89 LIG 0.26  C 
ATOM     41 O    SER X1000      11.631  33.053  26.910  1.00101.60 LIG-0.27  OA
ATOM     42 H    ASN X1001       9.854  35.428  27.503  1.00101.62 LIG 0.16  HD
BRANCH 40 43
ATOM     43  CA  SER X1000      10.520  33.375  29.023  1.00101.91 LIG 0.42  C 
ATOM     44  N   SER X1000       9.417  34.217  29.556  1.00101.55 LIG 0.62  N 
BRANCH 43 45
ATOM     45  CB  SER X1000      10.129  31.899  29.062  1.00101.96 LIG 0.21  C 
BRANCH 45 46
ATOM     46 OG   SER X1000      11.141  31.063  28.526  1.00101.15 LIG-0.40  OA
ATOM     47 HG   SER X1000      11.292  31.282  27.730  1.00101.15 LIG 0.21  HD
ENDBRANCH 45 46
ENDBRANCH 43 45
ENDBRANCH 40 43
ENDBRANCH 38 39
BRANCH 38 48
ATOM     48  CB  ASN X1001      10.315  36.477  25.171  1.00101.08 LIG 0.14  C 
BRANCH 48 49
ATOM     49  CG  ASN X1001       9.593  35.599  24.141  1.00100.04 LIG 0.22  C 
ATOM     50  ND2 ASN X1001       9.385  34.333  24.454  1.00 98.76 LIG-0.37  N 
ATOM     51 21HD ASN X1001       8.949  33.823  23.917  1.00 98.76 LIG 0.16  HD
ATOM     52 22HD ASN X1001       9.687  34.019  25.196  1.00 98.76 LIG 0.16  HD
ATOM     53 OD1  ASN X1001       9.182  36.087  23.097  1.00 97.91 LIG-0.27  OA
ENDBRANCH 48 49
ENDBRANCH 38 48
ENDBRANCH 34 38
ENDBRANCH 1 31
TORSDOF 19
ENDMDL
MODEL 10
USER: ADFR SOLUTION from run 146
USER: SCORE 13.025827 LL:  -3.086 LR: -11.435 RR:   0.000 FEB:  -5.767
USER: RMSD 2.661553
USER: SEED 145
USER: STATUS no improvement in best in 7 clusters for 5 generations
USER: GENES 21
USER: genes 0 Translation |==|  0.56731 0.43960 0.56932
USER: genes 1 Rotation |==|  0.51677 0.64147 0.46272 0.97782
USER: genes 2 Torsion [C]-N--CA-[CB] |==|  0.27332
USER: genes 3 Torsion [N]-CA--C-[N] |==|  0.50290
USER: genes 4 Torsion [C]-N--CA-[C] |==|  0.80345
USER: genes 5 Torsion [N]-CA--CB-[SG] |==|  0.52149
USER: genes 6 Torsion [CA]-CB--SG-[HG] |==|  0.43043
USER: genes 7 Torsion [N]-CA--C-[N] |==|  0.46560
USER: genes 8 Torsion [C]-N--CA-[CB] |==|  0.79789
USER: genes 9 Torsion [N]-CA--C-[N] |==|  0.32307
USER: genes 10 Torsion [C]-N--CA-[CB] |==|  0.19686
USER: genes 11 Torsion [N]-CA--C-[O] |==|  0.86852
USER: genes 12 Torsion [N]-CA--CB-[CG2] |==|  0.76313
USER: genes 13 Torsion [O]-C--CA-[N] |==|  0.10059
USER: genes 14 Torsion [N]-C--CA-[N] |==|  0.42951
USER: genes 15 Torsion [C]-CA--N-[C] |==|  0.65712
USER: genes 16 Torsion [N]-C--CA-[N] |==|  0.51662
USER: genes 17 Torsion [C]-CA--CB-[OG] |==|  0.20826
USER: genes 18 Torsion [CA]-CB--OG-[HG] |==|  0.10807
USER: genes 19 Torsion [C]-CA--CB-[CG] |==|  0.85996
USER: genes 20 Torsion [CA]-CB--CG-[ND2] |==|  0.47085
ROOT
ATOM      1  C   PRO X1002      17.744  36.485  27.887  1.00 98.27 LIG 0.24  C 
ATOM      2 O    PRO X1002      16.921  37.315  27.526  1.00 97.40 LIG-0.27  OA
ATOM      3  N   ALA X1003      19.053  36.620  27.688  1.00 97.43 LIG-0.35  N 
ATOM      4 H    ALA X1003      19.647  36.166  28.113  1.00 97.43 LIG 0.16  HD
ENDROOT
BRANCH 3 5
ATOM      5  CA  ALA X1003      19.605  37.564  26.715  1.00 96.73 LIG 0.17  C 
ATOM      6  CB  ALA X1003      20.044  38.836  27.405  1.00 96.74 LIG 0.04  C 
BRANCH 5 7
ATOM      7  C   ALA X1003      20.791  36.839  26.078  1.00 95.66 LIG 0.24  C 
ATOM      8 O    ALA X1003      21.052  35.702  26.435  1.00 95.14 LIG-0.27  OA
ATOM      9  N   CYS X1004      21.532  37.439  25.154  1.00 94.40 LIG-0.34  N 
ATOM     10 H    CYS X1004      22.067  36.988  24.653  1.00 94.40 LIG 0.16  HD
BRANCH 9 11
ATOM     11  CA  CYS X1004      21.572  38.869  24.843  1.00 94.17 LIG 0.18  C 
BRANCH 11 12
ATOM     12  CB  CYS X1004      22.782  39.103  23.908  1.00 94.12 LIG 0.10  C 
BRANCH 12 13
ATOM     13 SG   CYS X1004      23.240  40.766  23.505  1.00 91.26 LIG-0.18  SA
ATOM     14 HG   CYS X1004      24.404  40.802  23.215  1.00 91.26 LIG 0.10  HD
ENDBRANCH 12 13
ENDBRANCH 11 12
BRANCH 11 15
ATOM     15  C   CYS X1004      20.287  39.361  24.151  1.00 93.84 LIG 0.24  C 
ATOM     16 O    CYS X1004      19.485  38.573  23.672  1.00 93.01 LIG-0.27  OA
ATOM     17  N   VAL X1005      20.130  40.673  24.064  1.00 93.78 LIG-0.35  N 
ATOM     18 H    VAL X1005      20.744  41.237  24.273  1.00 93.78 LIG 0.16  HD
BRANCH 17 19
ATOM     19  CA  VAL X1005      18.886  41.293  23.599  1.00 93.73 LIG 0.18  C 
BRANCH 19 20
ATOM     20  C   VAL X1005      17.657  40.772  24.355  1.00 93.48 LIG 0.24  C 
ATOM     21  N   ALA X1006      16.987  41.661  25.085  1.00 93.27 LIG-0.35  N 
ATOM     22 H    ALA X1006      17.215  42.488  25.149  1.00 93.27 LIG 0.16  HD
ATOM     23 O    VAL X1005      17.337  39.590  24.284  1.00 93.20 LIG-0.27  OA
BRANCH 21 24
ATOM     24  CA  ALA X1006      15.791  41.319  25.852  1.00 93.01 LIG 0.16  C 
ATOM     25  CB  ALA X1006      16.159  40.469  27.032  1.00 92.79 LIG 0.04  C 
BRANCH 24 26
ATOM     26  C   ALA X1006      15.062  42.571  26.315  1.00 92.71 LIG 0.22  C 
ATOM     27 O    ALA X1006      15.665  43.502  26.842  1.00 91.80 LIG-0.29  OA
ENDBRANCH 24 26
ENDBRANCH 21 24
ENDBRANCH 19 20
BRANCH 19 28
ATOM     28  CB  VAL X1005      18.752  41.084  22.061  1.00 93.65 LIG 0.01  C 
ATOM     29  CG2 VAL X1005      19.504  42.178  21.340  1.00 92.72 LIG 0.01  C 
ATOM     30  CG1 VAL X1005      17.302  41.000  21.611  1.00 92.97 LIG 0.01  C 
ENDBRANCH 19 28
ENDBRANCH 17 19
ENDBRANCH 11 15
ENDBRANCH 9 11
ENDBRANCH 5 7
ENDBRANCH 3 5
BRANCH 1 31
ATOM     31  CA  PRO X1002      17.309  35.238  28.662  1.00 99.31 LIG 0.18  C 
ATOM     32  N   PRO X1002      16.021  34.663  28.266  1.00 99.88 LIG-0.34  N 
ATOM     33  CD  PRO X1002      16.211  33.428  27.498  1.00 99.70 LIG 0.13  C 
ATOM     34  C   ASN X1001      14.889  35.256  28.682  1.00100.64 LIG 0.24  C 
ATOM     35  CG  PRO X1002      17.437  32.890  28.107  1.00 99.65 LIG 0.02  C 
ATOM     36  CB  PRO X1002      18.290  34.090  28.404  1.00 99.37 LIG 0.04  C 
ATOM     37 O    ASN X1001      14.910  36.246  29.403  1.00100.22 LIG-0.27  OA
BRANCH 34 38
ATOM     38  CA  ASN X1001      13.545  34.591  28.319  1.00101.23 LIG 0.18  C 
BRANCH 38 39
ATOM     39  N   ASN X1001      12.573  35.017  29.336  1.00101.62 LIG-0.34  N 
ATOM     40  C   SER X1000      11.908  34.110  30.054  1.00101.89 LIG 0.26  C 
ATOM     41 O    SER X1000      11.733  32.947  29.662  1.00101.60 LIG-0.27  OA
ATOM     42 H    ASN X1001      12.481  35.869  29.419  1.00101.62 LIG 0.16  HD
BRANCH 40 43
ATOM     43  CA  SER X1000      11.343  34.560  31.409  1.00101.91 LIG 0.42  C 
ATOM     44  N   SER X1000      10.752  33.427  32.170  1.00101.55 LIG 0.62  N 
BRANCH 43 45
ATOM     45  CB  SER X1000      12.402  35.269  32.250  1.00101.96 LIG 0.21  C 
BRANCH 45 46
ATOM     46 OG   SER X1000      12.662  36.583  31.785  1.00101.15 LIG-0.40  OA
ATOM     47 HG   SER X1000      11.942  36.942  31.544  1.00101.15 LIG 0.21  HD
ENDBRANCH 45 46
ENDBRANCH 43 45
ENDBRANCH 40 43
ENDBRANCH 38 39
BRANCH 38 48
ATOM     48  CB  ASN X1001      13.033  34.841  26.877  1.00101.08 LIG 0.14  C 
BRANCH 48 49
ATOM     49  CG  ASN X1001      13.017  36.316  26.453  1.00100.04 LIG 0.22  C 
ATOM     50  ND2 ASN X1001      12.798  36.583  25.179  1.00 98.76 LIG-0.37  N 
ATOM     51 21HD ASN X1001      12.743  37.399  24.914  1.00 98.76 LIG 0.16  HD
ATOM     52 22HD ASN X1001      12.709  35.940  24.613  1.00 98.76 LIG 0.16  HD
ATOM     53 OD1  ASN X1001      13.148  37.198  27.290  1.00 97.91 LIG-0.27  OA
ENDBRANCH 48 49
ENDBRANCH 38 48
ENDBRANCH 34 38
ENDBRANCH 1 31
TORSDOF 19
ENDMDL
