MODEL 1
USER: ADFR SOLUTION from run 156
USER: SCORE 17.406723 LL:  -3.337 LR: -15.549 RR:   0.000 FEB:  -9.583
USER: RMSD 4.046137
USER: SEED 155
USER: STATUS no improvement in best in 6 clusters for 5 generations
USER: GENES 22
USER: genes 0 Translation |==|  0.60968 0.57239 0.35704
USER: genes 1 Rotation |==|  0.58420 0.49493 0.63599 0.97370
USER: genes 2 Torsion [C]-CA--N-[C] |==|  0.66817
USER: genes 3 Torsion [N]-C--CA-[N] |==|  0.07254
USER: genes 4 Torsion [C]-CA--N-[C] |==|  0.68442
USER: genes 5 Torsion [N]-C--CA-[N] |==|  0.30825
USER: genes 6 Torsion [C]-CA--CB-[CG2] |==|  0.69160
USER: genes 7 Torsion [CA]-CB--OG1-[HG1] |==|  0.64903
USER: genes 8 Torsion [C]-CA--CB-[CG] |==|  0.27475
USER: genes 9 Torsion [CA]-CB--CG-[OD2] |==|  0.60513
USER: genes 10 Torsion [N]-CA--CB-[CG] |==|  0.27406
USER: genes 11 Torsion [CA]-CB--CG-[ND1] |==|  0.72557
USER: genes 12 Torsion [N]-CA--C-[N] |==|  0.91178
USER: genes 13 Torsion [C]-N--CA-[C] |==|  0.37201
USER: genes 14 Torsion [N]-CA--C-[N] |==|  0.55354
USER: genes 15 Torsion [C]-N--CA-[CB] |==|  0.51115
USER: genes 16 Torsion [N]-CA--C-[N] |==|  0.33613
USER: genes 17 Torsion [C]-N--CA-[CB] |==|  0.40353
USER: genes 18 Torsion [N]-CA--CB-[CG] |==|  0.32472
USER: genes 19 Torsion [CA]-CB--CG-[CD] |==|  0.36188
USER: genes 20 Torsion [CB]-CG--CD-[OE1] |==|  0.50595
USER: genes 21 Torsion [N]-CA--C-[OXT] |==|  0.47137
ROOT
ATOM      1  CA  HIS A 388     -26.565 -26.248  12.040  1.00 17.64 LIG 0.18  C 
ENDROOT
BRANCH 1 2
ATOM      2  N   HIS A 388     -27.014 -27.603  11.715  1.00 19.60 LIG-0.35  N 
ATOM      3 H    HIS A 388     -27.277 -28.059  12.395  1.00 19.60 LIG 0.16  HD
ATOM      4  C   ASP A 387     -27.009 -28.074  10.467  1.00 22.66 LIG 0.24  C 
ATOM      5 O    ASP A 387     -26.648 -27.398   9.498  1.00 22.02 LIG-0.27  OA
BRANCH 4 6
ATOM      6  CA  ASP A 387     -27.501 -29.504  10.270  1.00 25.57 LIG 0.19  C 
BRANCH 6 7
ATOM      7  N   ASP A 387     -28.427 -29.776  11.388  1.00 28.40 LIG-0.34  N 
ATOM      8 H    ASP A 387     -29.148 -29.308  11.369  1.00 28.40 LIG 0.16  HD
ATOM      9  C   THR A 386     -28.150 -30.680  12.341  1.00 31.30 LIG 0.26  C 
ATOM     10 O    THR A 386     -27.351 -31.620  12.165  1.00 31.60 LIG-0.27  OA
BRANCH 9 11
ATOM     11  CA  THR A 386     -28.901 -30.561  13.692  1.00 33.11 LIG 0.43  C 
ATOM     12  N   THR A 386     -29.881 -31.661  13.941  1.00 33.83 LIG 0.62  N 
BRANCH 11 13
ATOM     13  CB  THR A 386     -27.908 -30.409  14.881  1.00 33.77 LIG 0.16  C 
ATOM     14  CG2 THR A 386     -27.897 -31.648  15.782  1.00 34.60 LIG 0.04  C 
BRANCH 13 15
ATOM     15 OG1  THR A 386     -26.561 -30.295  14.398  1.00 35.18 LIG-0.39  OA
ATOM     16 HG1  THR A 386     -26.079 -30.872  14.774  1.00 35.18 LIG 0.21  HD
ENDBRANCH 13 15
ENDBRANCH 11 13
ENDBRANCH 9 11
ENDBRANCH 6 7
BRANCH 6 17
ATOM     17  CB  ASP A 387     -28.191 -29.648   8.885  1.00 25.68 LIG 0.15  C 
BRANCH 17 18
ATOM     18  CG  ASP A 387     -27.270 -30.259   7.807  1.00 25.80 LIG 0.17  C 
ATOM     19 OD2  ASP A 387     -27.286 -29.871   6.616  1.00 26.75 LIG-0.65  OA
ATOM     20 OD1  ASP A 387     -26.454 -31.180   8.088  1.00 21.65 LIG-0.65  OA
ENDBRANCH 17 18
ENDBRANCH 6 17
ENDBRANCH 4 6
ENDBRANCH 1 2
BRANCH 1 21
ATOM     21  CB  HIS A 388     -27.680 -25.385  12.696  1.00 17.51 LIG 0.10  C 
BRANCH 21 22
ATOM     22  CG  HIS A 388     -27.618 -25.293  14.202  1.00 19.36 LIG 0.06  A 
ATOM     23 ND1  HIS A 388     -28.393 -26.063  15.037  1.00 21.21 LIG-0.24  NA
ATOM     24  CE1 HIS A 388     -28.111 -25.774  16.296  1.00 22.16 LIG 0.23  A 
ATOM     25 NE2  HIS A 388     -27.199 -24.819  16.310  1.00 21.69 LIG-0.25  NA
ATOM     26  CD2 HIS A 388     -26.878 -24.497  15.013  1.00 21.19 LIG 0.14  A 
ENDBRANCH 21 22
ENDBRANCH 1 21
BRANCH 1 27
ATOM     27  C   HIS A 388     -25.376 -26.323  13.007  1.00 15.45 LIG 0.24  C 
ATOM     28 O    HIS A 388     -24.506 -25.469  12.956  1.00 14.42 LIG-0.27  OA
ATOM     29  N   GLY A 389     -25.326 -27.340  13.877  1.00 14.00 LIG-0.35  N 
ATOM     30 H    GLY A 389     -25.934 -27.944  13.950  1.00 14.00 LIG 0.16  HD
BRANCH 29 31
ATOM     31  CA  GLY A 389     -24.196 -27.500  14.792  1.00 13.01 LIG 0.23  C 
BRANCH 31 32
ATOM     32  C   GLY A 389     -24.629 -27.797  16.211  1.00 11.92 LIG 0.24  C 
ATOM     33 O    GLY A 389     -25.766 -28.263  16.468  1.00 12.61 LIG-0.27  OA
ATOM     34  N   ALA A 390     -23.726 -27.566  17.145  1.00 10.53 LIG-0.35  N 
ATOM     35 H    ALA A 390     -22.925 -27.302  16.976  1.00 10.53 LIG 0.16  HD
BRANCH 34 36
ATOM     36  CA  ALA A 390     -24.006 -27.738  18.573  1.00 11.53 LIG 0.17  C 
ATOM     37  CB  ALA A 390     -22.803 -27.299  19.379  1.00 11.91 LIG 0.04  C 
BRANCH 36 38
ATOM     38  C   ALA A 390     -25.238 -26.906  18.983  1.00 13.11 LIG 0.24  C 
ATOM     39  N   GLU A 391     -26.240 -27.605  19.497  1.00 14.39 LIG-0.34  N 
ATOM     40 H    GLU A 391     -26.207 -28.454  19.630  1.00 14.39 LIG 0.16  HD
ATOM     41 O    ALA A 390     -25.306 -25.685  18.792  1.00 12.73 LIG-0.27  OA
BRANCH 39 42
ATOM     42  CA  GLU A 391     -27.486 -27.002  19.881  1.00 15.60 LIG 0.19  C 
BRANCH 42 43
ATOM     43  CB  GLU A 391     -28.626 -27.987  19.601  1.00 17.03 LIG 0.05  C 
BRANCH 43 44
ATOM     44  CG  GLU A 391     -29.390 -28.451  20.811  1.00 23.68 LIG 0.12  C 
BRANCH 44 45
ATOM     45  CD  GLU A 391     -30.894 -28.306  20.590  1.00 29.63 LIG 0.17  C 
ATOM     46 OE1  GLU A 391     -31.662 -28.622  21.548  1.00 31.73 LIG-0.65  OA
ATOM     47 OE2  GLU A 391     -31.287 -27.937  19.449  1.00 33.20 LIG-0.65  OA
ENDBRANCH 44 45
ENDBRANCH 43 44
ENDBRANCH 42 43
BRANCH 42 48
ATOM     48  C   GLU A 391     -27.398 -26.687  21.372  1.00 14.85 LIG 0.20  C 
ATOM     49 OXT  GLU A 391     -28.260 -25.998  21.899  1.00 14.73 LIG-0.65  OA
ATOM     50 O    GLU A 391     -26.454 -27.107  22.042  1.00 14.85 LIG-0.65  OA
ENDBRANCH 42 48
ENDBRANCH 39 42
ENDBRANCH 36 38
ENDBRANCH 34 36
ENDBRANCH 31 32
ENDBRANCH 29 31
ENDBRANCH 1 27
TORSDOF 20
ENDMDL
MODEL 2
USER: ADFR SOLUTION from run 110
USER: SCORE 16.778803 LL:  -2.994 LR: -15.171 RR:   0.000 FEB:  -9.205
USER: RMSD 3.634338
USER: SEED 109
USER: STATUS no improvement in best in 7 clusters for 5 generations
USER: GENES 22
USER: genes 0 Translation |==|  0.68361 0.53912 0.39683
USER: genes 1 Rotation |==|  0.54108 0.46961 0.48265 0.99708
USER: genes 2 Torsion [C]-CA--N-[C] |==|  0.59616
USER: genes 3 Torsion [N]-C--CA-[N] |==|  0.24987
USER: genes 4 Torsion [C]-CA--N-[C] |==|  0.75227
USER: genes 5 Torsion [N]-C--CA-[N] |==|  0.32957
USER: genes 6 Torsion [C]-CA--CB-[CG2] |==|  0.89762
USER: genes 7 Torsion [CA]-CB--OG1-[HG1] |==|  0.35708
USER: genes 8 Torsion [C]-CA--CB-[CG] |==|  0.19290
USER: genes 9 Torsion [CA]-CB--CG-[OD2] |==|  0.61221
USER: genes 10 Torsion [N]-CA--CB-[CG] |==|  0.28638
USER: genes 11 Torsion [CA]-CB--CG-[ND1] |==|  0.74834
USER: genes 12 Torsion [N]-CA--C-[N] |==|  0.97428
USER: genes 13 Torsion [C]-N--CA-[C] |==|  0.22975
USER: genes 14 Torsion [N]-CA--C-[N] |==|  0.41187
USER: genes 15 Torsion [C]-N--CA-[CB] |==|  0.79209
USER: genes 16 Torsion [N]-CA--C-[N] |==|  0.21842
USER: genes 17 Torsion [C]-N--CA-[CB] |==|  0.44389
USER: genes 18 Torsion [N]-CA--CB-[CG] |==|  0.30010
USER: genes 19 Torsion [CA]-CB--CG-[CD] |==|  0.36199
USER: genes 20 Torsion [CB]-CG--CD-[OE1] |==|  0.45073
USER: genes 21 Torsion [N]-CA--C-[OXT] |==|  0.49359
ROOT
ATOM      1  CA  HIS A 388     -25.124 -26.822  12.905  1.00 17.64 LIG 0.18  C 
ENDROOT
BRANCH 1 2
ATOM      2  N   HIS A 388     -26.293 -27.681  12.717  1.00 19.60 LIG-0.35  N 
ATOM      3 H    HIS A 388     -26.563 -28.071  13.435  1.00 19.60 LIG 0.16  HD
ATOM      4  C   ASP A 387     -26.879 -27.836  11.528  1.00 22.66 LIG 0.24  C 
ATOM      5 O    ASP A 387     -26.492 -27.252  10.511  1.00 22.02 LIG-0.27  OA
BRANCH 4 6
ATOM      6  CA  ASP A 387     -28.088 -28.764  11.474  1.00 25.57 LIG 0.19  C 
BRANCH 6 7
ATOM      7  N   ASP A 387     -29.268 -27.916  11.738  1.00 28.40 LIG-0.34  N 
ATOM      8 H    ASP A 387     -29.628 -27.583  11.032  1.00 28.40 LIG 0.16  HD
ATOM      9  C   THR A 386     -29.724 -27.695  12.981  1.00 31.30 LIG 0.26  C 
ATOM     10 O    THR A 386     -29.488 -28.465  13.932  1.00 31.60 LIG-0.27  OA
BRANCH 9 11
ATOM     11  CA  THR A 386     -30.619 -26.451  13.213  1.00 33.11 LIG 0.43  C 
ATOM     12  N   THR A 386     -31.995 -26.774  13.697  1.00 33.83 LIG 0.62  N 
BRANCH 11 13
ATOM     13  CB  THR A 386     -29.922 -25.416  14.144  1.00 33.77 LIG 0.16  C 
ATOM     14  CG2 THR A 386     -29.110 -26.095  15.252  1.00 34.60 LIG 0.04  C 
BRANCH 13 15
ATOM     15 OG1  THR A 386     -28.962 -24.644  13.407  1.00 35.18 LIG-0.39  OA
ATOM     16 HG1  THR A 386     -29.101 -23.825  13.539  1.00 35.18 LIG 0.21  HD
ENDBRANCH 13 15
ENDBRANCH 11 13
ENDBRANCH 9 11
ENDBRANCH 6 7
BRANCH 6 17
ATOM     17  CB  ASP A 387     -28.165 -29.463  10.088  1.00 25.68 LIG 0.15  C 
BRANCH 17 18
ATOM     18  CG  ASP A 387     -27.038 -30.494   9.863  1.00 25.80 LIG 0.17  C 
ATOM     19 OD2  ASP A 387     -26.449 -30.613   8.764  1.00 26.75 LIG-0.65  OA
ATOM     20 OD1  ASP A 387     -26.658 -31.261  10.790  1.00 21.65 LIG-0.65  OA
ENDBRANCH 17 18
ENDBRANCH 6 17
ENDBRANCH 4 6
ENDBRANCH 1 2
BRANCH 1 21
ATOM     21  CB  HIS A 388     -25.500 -25.381  13.354  1.00 17.51 LIG 0.10  C 
BRANCH 21 22
ATOM     22  CG  HIS A 388     -25.282 -25.088  14.819  1.00 19.36 LIG 0.06  A 
ATOM     23 ND1  HIS A 388     -26.249 -25.282  15.779  1.00 21.21 LIG-0.24  NA
ATOM     24  CE1 HIS A 388     -25.767 -24.953  16.965  1.00 22.16 LIG 0.23  A 
ATOM     25 NE2  HIS A 388     -24.529 -24.525  16.809  1.00 21.69 LIG-0.25  NA
ATOM     26  CD2 HIS A 388     -24.204 -24.594  15.475  1.00 21.19 LIG 0.14  A 
ENDBRANCH 21 22
ENDBRANCH 1 21
BRANCH 1 27
ATOM     27  C   HIS A 388     -24.204 -27.438  13.969  1.00 15.45 LIG 0.24  C 
ATOM     28 O    HIS A 388     -23.090 -26.970  14.141  1.00 14.42 LIG-0.27  OA
ATOM     29  N   GLY A 389     -24.654 -28.485  14.671  1.00 14.00 LIG-0.35  N 
ATOM     30 H    GLY A 389     -25.440 -28.822  14.585  1.00 14.00 LIG 0.16  HD
BRANCH 29 31
ATOM     31  CA  GLY A 389     -23.811 -29.151  15.664  1.00 13.01 LIG 0.23  C 
BRANCH 31 32
ATOM     32  C   GLY A 389     -23.815 -28.446  17.003  1.00 11.92 LIG 0.24  C 
ATOM     33 O    GLY A 389     -23.976 -27.205  17.093  1.00 12.61 LIG-0.27  OA
ATOM     34  N   ALA A 390     -23.671 -29.225  18.059  1.00 10.53 LIG-0.35  N 
ATOM     35 H    ALA A 390     -23.618 -30.081  18.013  1.00 10.53 LIG 0.16  HD
BRANCH 34 36
ATOM     36  CA  ALA A 390     -23.587 -28.696  19.423  1.00 11.53 LIG 0.17  C 
ATOM     37  CB  ALA A 390     -22.224 -28.075  19.640  1.00 11.91 LIG 0.04  C 
BRANCH 36 38
ATOM     38  C   ALA A 390     -24.683 -27.636  19.655  1.00 13.11 LIG 0.24  C 
ATOM     39  N   GLU A 391     -25.893 -28.124  19.889  1.00 14.39 LIG-0.34  N 
ATOM     40 H    GLU A 391     -26.063 -28.965  19.945  1.00 14.39 LIG 0.16  HD
ATOM     41 O    ALA A 390     -24.459 -26.422  19.572  1.00 12.73 LIG-0.27  OA
BRANCH 39 42
ATOM     42  CA  GLU A 391     -27.044 -27.283  20.072  1.00 15.60 LIG 0.19  C 
BRANCH 42 43
ATOM     43  CB  GLU A 391     -28.311 -28.107  19.818  1.00 17.03 LIG 0.05  C 
BRANCH 43 44
ATOM     44  CG  GLU A 391     -29.119 -28.440  21.041  1.00 23.68 LIG 0.12  C 
BRANCH 44 45
ATOM     45  CD  GLU A 391     -30.592 -28.095  20.828  1.00 29.63 LIG 0.17  C 
ATOM     46 OE1  GLU A 391     -31.439 -28.622  21.610  1.00 31.73 LIG-0.65  OA
ATOM     47 OE2  GLU A 391     -30.885 -27.353  19.850  1.00 33.20 LIG-0.65  OA
ENDBRANCH 44 45
ENDBRANCH 43 44
ENDBRANCH 42 43
BRANCH 42 48
ATOM     48  C   GLU A 391     -27.010 -26.773  21.510  1.00 14.85 LIG 0.20  C 
ATOM     49 OXT  GLU A 391     -27.871 -25.996  21.899  1.00 14.73 LIG-0.65  OA
ATOM     50 O    GLU A 391     -26.111 -27.124  22.274  1.00 14.85 LIG-0.65  OA
ENDBRANCH 42 48
ENDBRANCH 39 42
ENDBRANCH 36 38
ENDBRANCH 34 36
ENDBRANCH 31 32
ENDBRANCH 29 31
ENDBRANCH 1 27
TORSDOF 20
ENDMDL
MODEL 3
USER: ADFR SOLUTION from run 64
USER: SCORE 16.341241 LL:  -2.497 LR: -14.970 RR:   0.000 FEB:  -9.004
USER: RMSD 3.592554
USER: SEED 63
USER: STATUS no improvement in best in 9 clusters for 5 generations
USER: GENES 22
USER: genes 0 Translation |==|  0.62282 0.58840 0.34639
USER: genes 1 Rotation |==|  0.50583 0.44283 0.62728 0.98010
USER: genes 2 Torsion [C]-CA--N-[C] |==|  0.61957
USER: genes 3 Torsion [N]-C--CA-[N] |==|  0.06672
USER: genes 4 Torsion [C]-CA--N-[C] |==|  0.68221
USER: genes 5 Torsion [N]-C--CA-[N] |==|  0.20622
USER: genes 6 Torsion [C]-CA--CB-[CG2] |==|  0.78390
USER: genes 7 Torsion [CA]-CB--OG1-[HG1] |==|  0.49781
USER: genes 8 Torsion [C]-CA--CB-[CG] |==|  0.24822
USER: genes 9 Torsion [CA]-CB--CG-[OD2] |==|  0.56884
USER: genes 10 Torsion [N]-CA--CB-[CG] |==|  0.68935
USER: genes 11 Torsion [CA]-CB--CG-[ND1] |==|  0.74886
USER: genes 12 Torsion [N]-CA--C-[N] |==|  0.08625
USER: genes 13 Torsion [C]-N--CA-[C] |==|  0.26224
USER: genes 14 Torsion [N]-CA--C-[N] |==|  0.48011
USER: genes 15 Torsion [C]-N--CA-[CB] |==|  0.50929
USER: genes 16 Torsion [N]-CA--C-[N] |==|  0.38890
USER: genes 17 Torsion [C]-N--CA-[CB] |==|  0.36277
USER: genes 18 Torsion [N]-CA--CB-[CG] |==|  0.26938
USER: genes 19 Torsion [CA]-CB--CG-[CD] |==|  0.38767
USER: genes 20 Torsion [CB]-CG--CD-[OE1] |==|  0.01638
USER: genes 21 Torsion [N]-CA--C-[OXT] |==|  0.50548
ROOT
ATOM      1  CA  HIS A 388     -26.309 -25.972  11.808  1.00 17.64 LIG 0.18  C 
ENDROOT
BRANCH 1 2
ATOM      2  N   HIS A 388     -26.804 -27.344  11.689  1.00 19.60 LIG-0.35  N 
ATOM      3 H    HIS A 388     -27.075 -27.686  12.431  1.00 19.60 LIG 0.16  HD
ATOM      4  C   ASP A 387     -26.827 -27.994  10.524  1.00 22.66 LIG 0.24  C 
ATOM      5 O    ASP A 387     -26.454 -27.481   9.465  1.00 22.02 LIG-0.27  OA
BRANCH 4 6
ATOM      6  CA  ASP A 387     -27.366 -29.421  10.544  1.00 25.57 LIG 0.19  C 
BRANCH 6 7
ATOM      7  N   ASP A 387     -28.249 -29.509  11.724  1.00 28.40 LIG-0.34  N 
ATOM      8 H    ASP A 387     -28.952 -29.016  11.676  1.00 28.40 LIG 0.16  HD
ATOM      9  C   THR A 386     -27.963 -30.297  12.773  1.00 31.30 LIG 0.26  C 
ATOM     10 O    THR A 386     -27.209 -31.286  12.686  1.00 31.60 LIG-0.27  OA
BRANCH 9 11
ATOM     11  CA  THR A 386     -28.645 -29.976  14.127  1.00 33.11 LIG 0.43  C 
ATOM     12  N   THR A 386     -30.090 -30.350  14.183  1.00 33.83 LIG 0.62  N 
BRANCH 11 13
ATOM     13  CB  THR A 386     -27.857 -30.590  15.320  1.00 33.77 LIG 0.16  C 
ATOM     14  CG2 THR A 386     -28.115 -32.093  15.466  1.00 34.60 LIG 0.04  C 
BRANCH 13 15
ATOM     15 OG1  THR A 386     -26.443 -30.483  15.095  1.00 35.18 LIG-0.39  OA
ATOM     16 HG1  THR A 386     -26.029 -30.808  15.750  1.00 35.18 LIG 0.21  HD
ENDBRANCH 13 15
ENDBRANCH 11 13
ENDBRANCH 9 11
ENDBRANCH 6 7
BRANCH 6 17
ATOM     17  CB  ASP A 387     -28.120 -29.727   9.220  1.00 25.68 LIG 0.15  C 
BRANCH 17 18
ATOM     18  CG  ASP A 387     -27.204 -30.296   8.115  1.00 25.80 LIG 0.17  C 
ATOM     19 OD2  ASP A 387     -27.476 -30.184   6.898  1.00 26.75 LIG-0.65  OA
ATOM     20 OD1  ASP A 387     -26.131 -30.897   8.399  1.00 21.65 LIG-0.65  OA
ENDBRANCH 17 18
ENDBRANCH 6 17
ENDBRANCH 4 6
ENDBRANCH 1 2
BRANCH 1 21
ATOM     21  CB  HIS A 388     -27.455 -24.924  11.908  1.00 17.51 LIG 0.10  C 
BRANCH 21 22
ATOM     22  CG  HIS A 388     -27.591 -24.007  10.717  1.00 19.36 LIG 0.06  A 
ATOM     23 ND1  HIS A 388     -26.941 -22.799  10.616  1.00 21.21 LIG-0.24  NA
ATOM     24  CE1 HIS A 388     -27.241 -22.228   9.463  1.00 22.16 LIG 0.23  A 
ATOM     25 NE2  HIS A 388     -28.088 -23.010   8.818  1.00 21.69 LIG-0.25  NA
ATOM     26  CD2 HIS A 388     -28.328 -24.125   9.584  1.00 21.19 LIG 0.14  A 
ENDBRANCH 21 22
ENDBRANCH 1 21
BRANCH 1 27
ATOM     27  C   HIS A 388     -25.431 -25.853  13.061  1.00 15.45 LIG 0.24  C 
ATOM     28 O    HIS A 388     -25.377 -24.790  13.657  1.00 14.42 LIG-0.27  OA
ATOM     29  N   GLY A 389     -24.736 -26.927  13.456  1.00 14.00 LIG-0.35  N 
ATOM     30 H    GLY A 389     -24.771 -27.694  13.069  1.00 14.00 LIG 0.16  HD
BRANCH 29 31
ATOM     31  CA  GLY A 389     -23.841 -26.869  14.612  1.00 13.01 LIG 0.23  C 
BRANCH 31 32
ATOM     32  C   GLY A 389     -24.508 -27.321  15.893  1.00 11.92 LIG 0.24  C 
ATOM     33 O    GLY A 389     -25.730 -27.600  15.936  1.00 12.61 LIG-0.27  OA
ATOM     34  N   ALA A 390     -23.714 -27.432  16.942  1.00 10.53 LIG-0.35  N 
ATOM     35 H    ALA A 390     -22.865 -27.300  16.910  1.00 10.53 LIG 0.16  HD
BRANCH 34 36
ATOM     36  CA  ALA A 390     -24.211 -27.795  18.271  1.00 11.53 LIG 0.17  C 
ATOM     37  CB  ALA A 390     -23.069 -27.756  19.264  1.00 11.91 LIG 0.04  C 
BRANCH 36 38
ATOM     38  C   ALA A 390     -25.318 -26.818  18.715  1.00 13.11 LIG 0.24  C 
ATOM     39  N   GLU A 391     -26.340 -27.379  19.345  1.00 14.39 LIG-0.34  N 
ATOM     40 H    GLU A 391     -26.381 -28.218  19.531  1.00 14.39 LIG 0.16  HD
ATOM     41 O    ALA A 390     -25.281 -25.609  18.451  1.00 12.73 LIG-0.27  OA
BRANCH 39 42
ATOM     42  CA  GLU A 391     -27.487 -26.630  19.780  1.00 15.60 LIG 0.19  C 
BRANCH 42 43
ATOM     43  CB  GLU A 391     -28.759 -27.347  19.315  1.00 17.03 LIG 0.05  C 
BRANCH 43 44
ATOM     44  CG  GLU A 391     -29.410 -28.235  20.340  1.00 23.68 LIG 0.12  C 
BRANCH 44 45
ATOM     45  CD  GLU A 391     -30.930 -28.098  20.287  1.00 29.63 LIG 0.17  C 
ATOM     46 OE1  GLU A 391     -31.425 -27.388  19.360  1.00 31.73 LIG-0.65  OA
ATOM     47 OE2  GLU A 391     -31.601 -28.651  21.202  1.00 33.20 LIG-0.65  OA
ENDBRANCH 44 45
ENDBRANCH 43 44
ENDBRANCH 42 43
BRANCH 42 48
ATOM     48  C   GLU A 391     -27.432 -26.559  21.303  1.00 14.85 LIG 0.20  C 
ATOM     49 OXT  GLU A 391     -28.329 -25.997  21.917  1.00 14.73 LIG-0.65  OA
ATOM     50 O    GLU A 391     -26.482 -27.047  21.916  1.00 14.85 LIG-0.65  OA
ENDBRANCH 42 48
ENDBRANCH 39 42
ENDBRANCH 36 38
ENDBRANCH 34 36
ENDBRANCH 31 32
ENDBRANCH 29 31
ENDBRANCH 1 27
TORSDOF 20
ENDMDL
MODEL 4
USER: ADFR SOLUTION from run 56
USER: SCORE 15.709843 LL:  -3.045 LR: -14.861 RR:   0.000 FEB:  -8.895
USER: RMSD 3.416531
USER: SEED 55
USER: STATUS no improvement in best in 9 clusters for 5 generations
USER: GENES 22
USER: genes 0 Translation |==|  0.62213 0.55270 0.36432
USER: genes 1 Rotation |==|  0.56578 0.48515 0.58866 0.98743
USER: genes 2 Torsion [C]-CA--N-[C] |==|  0.63315
USER: genes 3 Torsion [N]-C--CA-[N] |==|  0.46590
USER: genes 4 Torsion [C]-CA--N-[C] |==|  0.24418
USER: genes 5 Torsion [N]-C--CA-[N] |==|  0.92374
USER: genes 6 Torsion [C]-CA--CB-[CG2] |==|  0.83275
USER: genes 7 Torsion [CA]-CB--OG1-[HG1] |==|  0.98654
USER: genes 8 Torsion [C]-CA--CB-[CG] |==|  0.26035
USER: genes 9 Torsion [CA]-CB--CG-[OD2] |==|  0.29250
USER: genes 10 Torsion [N]-CA--CB-[CG] |==|  0.26916
USER: genes 11 Torsion [CA]-CB--CG-[ND1] |==|  0.74958
USER: genes 12 Torsion [N]-CA--C-[N] |==|  0.95714
USER: genes 13 Torsion [C]-N--CA-[C] |==|  0.30419
USER: genes 14 Torsion [N]-CA--C-[N] |==|  0.55999
USER: genes 15 Torsion [C]-N--CA-[CB] |==|  0.54393
USER: genes 16 Torsion [N]-CA--C-[N] |==|  0.35556
USER: genes 17 Torsion [C]-N--CA-[CB] |==|  0.31943
USER: genes 18 Torsion [N]-CA--CB-[CG] |==|  0.27009
USER: genes 19 Torsion [CA]-CB--CG-[CD] |==|  0.35222
USER: genes 20 Torsion [CB]-CG--CD-[OE1] |==|  0.49530
USER: genes 21 Torsion [N]-CA--C-[OXT] |==|  0.50997
ROOT
ATOM      1  CA  HIS A 388     -26.322 -26.588  12.198  1.00 17.64 LIG 0.18  C 
ENDROOT
BRANCH 1 2
ATOM      2  N   HIS A 388     -27.029 -27.844  11.946  1.00 19.60 LIG-0.35  N 
ATOM      3 H    HIS A 388     -27.242 -28.277  12.658  1.00 19.60 LIG 0.16  HD
ATOM      4  C   ASP A 387     -27.311 -28.267  10.713  1.00 22.66 LIG 0.24  C 
ATOM      5 O    ASP A 387     -27.016 -27.623   9.701  1.00 22.02 LIG-0.27  OA
BRANCH 4 6
ATOM      6  CA  ASP A 387     -28.049 -29.597  10.594  1.00 25.57 LIG 0.19  C 
BRANCH 6 7
ATOM      7  N   ASP A 387     -28.500 -29.691   9.190  1.00 28.40 LIG-0.34  N 
ATOM      8 H    ASP A 387     -29.291 -29.383   9.054  1.00 28.40 LIG 0.16  HD
ATOM      9  C   THR A 386     -27.728 -30.215   8.226  1.00 31.30 LIG 0.26  C 
ATOM     10 O    THR A 386     -26.486 -30.275   8.315  1.00 31.60 LIG-0.27  OA
BRANCH 9 11
ATOM     11  CA  THR A 386     -28.423 -30.717   6.934  1.00 33.11 LIG 0.43  C 
ATOM     12  N   THR A 386     -29.836 -31.156   7.137  1.00 33.83 LIG 0.62  N 
BRANCH 11 13
ATOM     13  CB  THR A 386     -28.317 -29.668   5.789  1.00 33.77 LIG 0.16  C 
ATOM     14  CG2 THR A 386     -28.978 -28.338   6.165  1.00 34.60 LIG 0.04  C 
BRANCH 13 15
ATOM     15 OG1  THR A 386     -26.943 -29.336   5.538  1.00 35.18 LIG-0.39  OA
ATOM     16 HG1  THR A 386     -26.454 -29.721   6.102  1.00 35.18 LIG 0.21  HD
ENDBRANCH 13 15
ENDBRANCH 11 13
ENDBRANCH 9 11
ENDBRANCH 6 7
BRANCH 6 17
ATOM     17  CB  ASP A 387     -27.108 -30.769  10.989  1.00 25.68 LIG 0.15  C 
BRANCH 17 18
ATOM     18  CG  ASP A 387     -27.231 -31.174  12.474  1.00 25.80 LIG 0.17  C 
ATOM     19 OD2  ASP A 387     -27.822 -32.216  12.836  1.00 26.75 LIG-0.65  OA
ATOM     20 OD1  ASP A 387     -26.729 -30.464  13.389  1.00 21.65 LIG-0.65  OA
ENDBRANCH 17 18
ENDBRANCH 6 17
ENDBRANCH 4 6
ENDBRANCH 1 2
BRANCH 1 21
ATOM     21  CB  HIS A 388     -27.252 -25.476  12.763  1.00 17.51 LIG 0.10  C 
BRANCH 21 22
ATOM     22  CG  HIS A 388     -27.231 -25.323  14.265  1.00 19.36 LIG 0.06  A 
ATOM     23 ND1  HIS A 388     -28.079 -26.007  15.105  1.00 21.21 LIG-0.24  NA
ATOM     24  CE1 HIS A 388     -27.818 -25.681  16.359  1.00 22.16 LIG 0.23  A 
ATOM     25 NE2  HIS A 388     -26.847 -24.787  16.365  1.00 21.69 LIG-0.25  NA
ATOM     26  CD2 HIS A 388     -26.467 -24.542  15.067  1.00 21.19 LIG 0.14  A 
ENDBRANCH 21 22
ENDBRANCH 1 21
BRANCH 1 27
ATOM     27  C   HIS A 388     -25.190 -26.832  13.205  1.00 15.45 LIG 0.24  C 
ATOM     28 O    HIS A 388     -24.307 -26.000  13.327  1.00 14.42 LIG-0.27  OA
ATOM     29  N   GLY A 389     -25.203 -27.967  13.914  1.00 14.00 LIG-0.35  N 
ATOM     30 H    GLY A 389     -25.822 -28.562  13.864  1.00 14.00 LIG 0.16  HD
BRANCH 29 31
ATOM     31  CA  GLY A 389     -24.128 -28.287  14.854  1.00 13.01 LIG 0.23  C 
BRANCH 31 32
ATOM     32  C   GLY A 389     -24.570 -28.207  16.299  1.00 11.92 LIG 0.24  C 
ATOM     33 O    GLY A 389     -25.776 -28.323  16.626  1.00 12.61 LIG-0.27  OA
ATOM     34  N   ALA A 390     -23.605 -28.041  17.184  1.00 10.53 LIG-0.35  N 
ATOM     35 H    ALA A 390     -22.771 -28.018  16.977  1.00 10.53 LIG 0.16  HD
BRANCH 34 36
ATOM     36  CA  ALA A 390     -23.868 -27.879  18.616  1.00 11.53 LIG 0.17  C 
ATOM     37  CB  ALA A 390     -22.632 -27.330  19.296  1.00 11.91 LIG 0.04  C 
BRANCH 36 38
ATOM     38  C   ALA A 390     -25.053 -26.918  18.839  1.00 13.11 LIG 0.24  C 
ATOM     39  N   GLU A 391     -26.013 -27.385  19.624  1.00 14.39 LIG-0.34  N 
ATOM     40 H    GLU A 391     -25.976 -28.150  20.015  1.00 14.39 LIG 0.16  HD
ATOM     41 O    ALA A 390     -25.128 -25.816  18.279  1.00 12.73 LIG-0.27  OA
BRANCH 39 42
ATOM     42  CA  GLU A 391     -27.217 -26.649  19.896  1.00 15.60 LIG 0.19  C 
BRANCH 42 43
ATOM     43  CB  GLU A 391     -28.411 -27.409  19.309  1.00 17.03 LIG 0.05  C 
BRANCH 43 44
ATOM     44  CG  GLU A 391     -29.165 -28.275  20.280  1.00 23.68 LIG 0.12  C 
BRANCH 44 45
ATOM     45  CD  GLU A 391     -30.656 -27.942  20.258  1.00 29.63 LIG 0.17  C 
ATOM     46 OE1  GLU A 391     -31.421 -28.621  21.007  1.00 31.73 LIG-0.65  OA
ATOM     47 OE2  GLU A 391     -31.047 -27.052  19.453  1.00 33.20 LIG-0.65  OA
ENDBRANCH 44 45
ENDBRANCH 43 44
ENDBRANCH 42 43
BRANCH 42 48
ATOM     48  C   GLU A 391     -27.344 -26.530  21.411  1.00 14.85 LIG 0.20  C 
ATOM     49 OXT  GLU A 391     -28.331 -25.997  21.898  1.00 14.73 LIG-0.65  OA
ATOM     50 O    GLU A 391     -26.450 -26.952  22.146  1.00 14.85 LIG-0.65  OA
ENDBRANCH 42 48
ENDBRANCH 39 42
ENDBRANCH 36 38
ENDBRANCH 34 36
ENDBRANCH 31 32
ENDBRANCH 29 31
ENDBRANCH 1 27
TORSDOF 20
ENDMDL
MODEL 5
USER: ADFR SOLUTION from run 162
USER: SCORE 17.290783 LL:  -3.673 LR: -14.823 RR:   0.000 FEB:  -8.857
USER: RMSD 2.978117
USER: SEED 161
USER: STATUS no improvement in best in 5 clusters for 5 generations
USER: GENES 22
USER: genes 0 Translation |==|  0.65011 0.57052 0.36598
USER: genes 1 Rotation |==|  0.55702 0.47271 0.54178 0.99422
USER: genes 2 Torsion [C]-CA--N-[C] |==|  0.64195
USER: genes 3 Torsion [N]-C--CA-[N] |==|  0.38387
USER: genes 4 Torsion [C]-CA--N-[C] |==|  0.84472
USER: genes 5 Torsion [N]-C--CA-[N] |==|  0.43218
USER: genes 6 Torsion [C]-CA--CB-[CG2] |==|  0.84590
USER: genes 7 Torsion [CA]-CB--OG1-[HG1] |==|  0.80001
USER: genes 8 Torsion [C]-CA--CB-[CG] |==|  0.80481
USER: genes 9 Torsion [CA]-CB--CG-[OD2] |==|  0.45962
USER: genes 10 Torsion [N]-CA--CB-[CG] |==|  0.22513
USER: genes 11 Torsion [CA]-CB--CG-[ND1] |==|  0.69569
USER: genes 12 Torsion [N]-CA--C-[N] |==|  0.99064
USER: genes 13 Torsion [C]-N--CA-[C] |==|  0.30098
USER: genes 14 Torsion [N]-CA--C-[N] |==|  0.58744
USER: genes 15 Torsion [C]-N--CA-[CB] |==|  0.51226
USER: genes 16 Torsion [N]-CA--C-[N] |==|  0.37799
USER: genes 17 Torsion [C]-N--CA-[CB] |==|  0.31573
USER: genes 18 Torsion [N]-CA--CB-[CG] |==|  0.24585
USER: genes 19 Torsion [CA]-CB--CG-[CD] |==|  0.34765
USER: genes 20 Torsion [CB]-CG--CD-[OE1] |==|  0.56438
USER: genes 21 Torsion [N]-CA--C-[OXT] |==|  0.50914
ROOT
ATOM      1  CA  HIS A 388     -25.777 -26.281  12.234  1.00 17.64 LIG 0.18  C 
ENDROOT
BRANCH 1 2
ATOM      2  N   HIS A 388     -26.708 -27.382  11.986  1.00 19.60 LIG-0.35  N 
ATOM      3 H    HIS A 388     -27.052 -27.719  12.698  1.00 19.60 LIG 0.16  HD
ATOM      4  C   ASP A 387     -26.985 -27.815  10.755  1.00 22.66 LIG 0.24  C 
ATOM      5 O    ASP A 387     -26.497 -27.307   9.741  1.00 22.02 LIG-0.27  OA
BRANCH 4 6
ATOM      6  CA  ASP A 387     -27.971 -28.974  10.640  1.00 25.57 LIG 0.19  C 
BRANCH 6 7
ATOM      7  N   ASP A 387     -28.854 -28.649   9.502  1.00 28.40 LIG-0.34  N 
ATOM      8 H    ASP A 387     -28.877 -29.253   8.890  1.00 28.40 LIG 0.16  HD
ATOM      9  C   THR A 386     -29.552 -27.504   9.444  1.00 31.30 LIG 0.26  C 
ATOM     10 O    THR A 386     -29.846 -26.842  10.459  1.00 31.60 LIG-0.27  OA
BRANCH 9 11
ATOM     11  CA  THR A 386     -30.045 -27.026   8.054  1.00 33.11 LIG 0.43  C 
ATOM     12  N   THR A 386     -31.240 -26.131   8.108  1.00 33.83 LIG 0.62  N 
BRANCH 11 13
ATOM     13  CB  THR A 386     -28.892 -26.378   7.235  1.00 33.77 LIG 0.16  C 
ATOM     14  CG2 THR A 386     -28.223 -25.228   7.995  1.00 34.60 LIG 0.04  C 
BRANCH 13 15
ATOM     15 OG1  THR A 386     -27.840 -27.328   7.010  1.00 35.18 LIG-0.39  OA
ATOM     16 HG1  THR A 386     -27.428 -27.467   7.730  1.00 35.18 LIG 0.21  HD
ENDBRANCH 13 15
ENDBRANCH 11 13
ENDBRANCH 9 11
ENDBRANCH 6 7
BRANCH 6 17
ATOM     17  CB  ASP A 387     -27.205 -30.309  10.428  1.00 25.68 LIG 0.15  C 
BRANCH 17 18
ATOM     18  CG  ASP A 387     -26.544 -30.417   9.037  1.00 25.80 LIG 0.17  C 
ATOM     19 OD2  ASP A 387     -25.675 -31.280   8.774  1.00 26.75 LIG-0.65  OA
ATOM     20 OD1  ASP A 387     -26.862 -29.635   8.098  1.00 21.65 LIG-0.65  OA
ENDBRANCH 17 18
ENDBRANCH 6 17
ENDBRANCH 4 6
ENDBRANCH 1 2
BRANCH 1 21
ATOM     21  CB  HIS A 388     -26.487 -24.995  12.747  1.00 17.51 LIG 0.10  C 
BRANCH 21 22
ATOM     22  CG  HIS A 388     -26.810 -24.985  14.222  1.00 19.36 LIG 0.06  A 
ATOM     23 ND1  HIS A 388     -28.091 -25.080  14.715  1.00 21.21 LIG-0.24  NA
ATOM     24  CE1 HIS A 388     -28.060 -25.059  16.036  1.00 22.16 LIG 0.23  A 
ATOM     25 NE2  HIS A 388     -26.805 -24.924  16.422  1.00 21.69 LIG-0.25  NA
ATOM     26  CD2 HIS A 388     -26.004 -24.870  15.307  1.00 21.19 LIG 0.14  A 
ENDBRANCH 21 22
ENDBRANCH 1 21
BRANCH 1 27
ATOM     27  C   HIS A 388     -24.741 -26.713  13.281  1.00 15.45 LIG 0.24  C 
ATOM     28 O    HIS A 388     -23.830 -25.956  13.572  1.00 14.42 LIG-0.27  OA
ATOM     29  N   GLY A 389     -24.866 -27.925  13.837  1.00 14.00 LIG-0.35  N 
ATOM     30 H    GLY A 389     -25.508 -28.471  13.667  1.00 14.00 LIG 0.16  HD
BRANCH 29 31
ATOM     31  CA  GLY A 389     -23.886 -28.420  14.804  1.00 13.01 LIG 0.23  C 
BRANCH 31 32
ATOM     32  C   GLY A 389     -24.428 -28.467  16.216  1.00 11.92 LIG 0.24  C 
ATOM     33 O    GLY A 389     -25.635 -28.714  16.450  1.00 12.61 LIG-0.27  OA
ATOM     34  N   ALA A 390     -23.543 -28.264  17.174  1.00 10.53 LIG-0.35  N 
ATOM     35 H    ALA A 390     -22.703 -28.151  17.029  1.00 10.53 LIG 0.16  HD
BRANCH 34 36
ATOM     36  CA  ALA A 390     -23.914 -28.211  18.591  1.00 11.53 LIG 0.17  C 
ATOM     37  CB  ALA A 390     -22.697 -27.857  19.418  1.00 11.91 LIG 0.04  C 
BRANCH 36 38
ATOM     38  C   ALA A 390     -25.019 -27.160  18.817  1.00 13.11 LIG 0.24  C 
ATOM     39  N   GLU A 391     -26.005 -27.547  19.614  1.00 14.39 LIG-0.34  N 
ATOM     40 H    GLU A 391     -26.023 -28.310  20.010  1.00 14.39 LIG 0.16  HD
ATOM     41 O    ALA A 390     -25.013 -26.059  18.252  1.00 12.73 LIG-0.27  OA
BRANCH 39 42
ATOM     42  CA  GLU A 391     -27.145 -26.718  19.892  1.00 15.60 LIG 0.19  C 
BRANCH 42 43
ATOM     43  CB  GLU A 391     -28.395 -27.369  19.291  1.00 17.03 LIG 0.05  C 
BRANCH 43 44
ATOM     44  CG  GLU A 391     -29.109 -28.344  20.187  1.00 23.68 LIG 0.12  C 
BRANCH 44 45
ATOM     45  CD  GLU A 391     -30.579 -27.960  20.344  1.00 29.63 LIG 0.17  C 
ATOM     46 OE1  GLU A 391     -31.189 -28.379  21.373  1.00 31.73 LIG-0.65  OA
ATOM     47 OE2  GLU A 391     -31.115 -27.300  19.411  1.00 33.20 LIG-0.65  OA
ENDBRANCH 44 45
ENDBRANCH 43 44
ENDBRANCH 42 43
BRANCH 42 48
ATOM     48  C   GLU A 391     -27.269 -26.608  21.409  1.00 14.85 LIG 0.20  C 
ATOM     49 OXT  GLU A 391     -28.208 -25.997  21.899  1.00 14.73 LIG-0.65  OA
ATOM     50 O    GLU A 391     -26.418 -27.115  22.141  1.00 14.85 LIG-0.65  OA
ENDBRANCH 42 48
ENDBRANCH 39 42
ENDBRANCH 36 38
ENDBRANCH 34 36
ENDBRANCH 31 32
ENDBRANCH 29 31
ENDBRANCH 1 27
TORSDOF 20
ENDMDL
MODEL 6
USER: ADFR SOLUTION from run 87
USER: SCORE 17.479125 LL:  -4.095 LR: -14.640 RR:   0.000 FEB:  -8.674
USER: RMSD 3.636332
USER: SEED 86
USER: STATUS no improvement in best in 3 clusters for 5 generations
USER: GENES 22
USER: genes 0 Translation |==|  0.64341 0.53793 0.38497
USER: genes 1 Rotation |==|  0.57728 0.46479 0.60201 0.98206
USER: genes 2 Torsion [C]-CA--N-[C] |==|  0.61214
USER: genes 3 Torsion [N]-C--CA-[N] |==|  0.11047
USER: genes 4 Torsion [C]-CA--N-[C] |==|  0.67759
USER: genes 5 Torsion [N]-C--CA-[N] |==|  0.38282
USER: genes 6 Torsion [C]-CA--CB-[CG2] |==|  0.62550
USER: genes 7 Torsion [CA]-CB--OG1-[HG1] |==|  0.43771
USER: genes 8 Torsion [C]-CA--CB-[CG] |==|  0.24780
USER: genes 9 Torsion [CA]-CB--CG-[OD2] |==|  0.62028
USER: genes 10 Torsion [N]-CA--CB-[CG] |==|  0.70701
USER: genes 11 Torsion [CA]-CB--CG-[ND1] |==|  0.86620
USER: genes 12 Torsion [N]-CA--C-[N] |==|  0.01141
USER: genes 13 Torsion [C]-N--CA-[C] |==|  0.22433
USER: genes 14 Torsion [N]-CA--C-[N] |==|  0.57041
USER: genes 15 Torsion [C]-N--CA-[CB] |==|  0.52803
USER: genes 16 Torsion [N]-CA--C-[N] |==|  0.38944
USER: genes 17 Torsion [C]-N--CA-[CB] |==|  0.21407
USER: genes 18 Torsion [N]-CA--CB-[CG] |==|  0.65463
USER: genes 19 Torsion [CA]-CB--CG-[CD] |==|  0.31406
USER: genes 20 Torsion [CB]-CG--CD-[OE1] |==|  0.10739
USER: genes 21 Torsion [N]-CA--C-[OXT] |==|  0.50817
ROOT
ATOM      1  CA  HIS A 388     -25.908 -26.843  12.647  1.00 17.64 LIG 0.18  C 
ENDROOT
BRANCH 1 2
ATOM      2  N   HIS A 388     -26.531 -28.111  12.266  1.00 19.60 LIG-0.35  N 
ATOM      3 H    HIS A 388     -26.683 -28.640  12.927  1.00 19.60 LIG 0.16  HD
ATOM      4  C   ASP A 387     -26.829 -28.405  11.000  1.00 22.66 LIG 0.24  C 
ATOM      5 O    ASP A 387     -26.623 -27.624  10.066  1.00 22.02 LIG-0.27  OA
BRANCH 4 6
ATOM      6  CA  ASP A 387     -27.473 -29.764  10.743  1.00 25.57 LIG 0.19  C 
BRANCH 6 7
ATOM      7  N   ASP A 387     -28.427 -29.981  11.849  1.00 28.40 LIG-0.34  N 
ATOM      8 H    ASP A 387     -29.075 -29.416  11.872  1.00 28.40 LIG 0.16  HD
ATOM      9  C   THR A 386     -28.279 -30.980  12.734  1.00 31.30 LIG 0.26  C 
ATOM     10 O    THR A 386     -27.620 -32.008  12.485  1.00 31.60 LIG-0.27  OA
BRANCH 9 11
ATOM     11  CA  THR A 386     -29.003 -30.851  14.098  1.00 33.11 LIG 0.43  C 
ATOM     12  N   THR A 386     -29.646 -32.116  14.566  1.00 33.83 LIG 0.62  N 
BRANCH 11 13
ATOM     13  CB  THR A 386     -28.061 -30.262  15.188  1.00 33.77 LIG 0.16  C 
ATOM     14  CG2 THR A 386     -28.154 -31.033  16.508  1.00 34.60 LIG 0.04  C 
BRANCH 13 15
ATOM     15 OG1  THR A 386     -26.688 -30.389  14.786  1.00 35.18 LIG-0.39  OA
ATOM     16 HG1  THR A 386     -26.222 -29.823  15.197  1.00 35.18 LIG 0.21  HD
ENDBRANCH 13 15
ENDBRANCH 11 13
ENDBRANCH 9 11
ENDBRANCH 6 7
BRANCH 6 17
ATOM     17  CB  ASP A 387     -28.171 -29.772   9.354  1.00 25.68 LIG 0.15  C 
BRANCH 17 18
ATOM     18  CG  ASP A 387     -27.236 -30.212   8.206  1.00 25.80 LIG 0.17  C 
ATOM     19 OD2  ASP A 387     -27.210 -29.622   7.102  1.00 26.75 LIG-0.65  OA
ATOM     20 OD1  ASP A 387     -26.451 -31.191   8.340  1.00 21.65 LIG-0.65  OA
ENDBRANCH 17 18
ENDBRANCH 6 17
ENDBRANCH 4 6
ENDBRANCH 1 2
BRANCH 1 21
ATOM     21  CB  HIS A 388     -26.932 -25.810  13.200  1.00 17.51 LIG 0.10  C 
BRANCH 21 22
ATOM     22  CG  HIS A 388     -27.278 -24.682  12.258  1.00 19.36 LIG 0.06  A 
ATOM     23 ND1  HIS A 388     -26.333 -23.946  11.582  1.00 21.21 LIG-0.24  NA
ATOM     24  CE1 HIS A 388     -26.932 -23.043  10.826  1.00 22.16 LIG 0.23  A 
ATOM     25 NE2  HIS A 388     -28.235 -23.146  11.005  1.00 21.69 LIG-0.25  NA
ATOM     26  CD2 HIS A 388     -28.477 -24.160  11.901  1.00 21.19 LIG 0.14  A 
ENDBRANCH 21 22
ENDBRANCH 1 21
BRANCH 1 27
ATOM     27  C   HIS A 388     -24.846 -27.099  13.726  1.00 15.45 LIG 0.24  C 
ATOM     28 O    HIS A 388     -24.256 -26.154  14.223  1.00 14.42 LIG-0.27  OA
ATOM     29  N   GLY A 389     -24.591 -28.364  14.080  1.00 14.00 LIG-0.35  N 
ATOM     30 H    GLY A 389     -25.005 -29.048  13.762  1.00 14.00 LIG 0.16  HD
BRANCH 29 31
ATOM     31  CA  GLY A 389     -23.557 -28.683  15.064  1.00 13.01 LIG 0.23  C 
BRANCH 31 32
ATOM     32  C   GLY A 389     -24.028 -28.497  16.490  1.00 11.92 LIG 0.24  C 
ATOM     33 O    GLY A 389     -25.239 -28.602  16.803  1.00 12.61 LIG-0.27  OA
ATOM     34  N   ALA A 390     -23.082 -28.252  17.378  1.00 10.53 LIG-0.35  N 
ATOM     35 H    ALA A 390     -22.244 -28.236  17.186  1.00 10.53 LIG 0.16  HD
BRANCH 34 36
ATOM     36  CA  ALA A 390     -23.374 -27.983  18.788  1.00 11.53 LIG 0.17  C 
ATOM     37  CB  ALA A 390     -22.117 -27.502  19.480  1.00 11.91 LIG 0.04  C 
BRANCH 36 38
ATOM     38  C   ALA A 390     -24.477 -26.914  18.913  1.00 13.11 LIG 0.24  C 
ATOM     39  N   GLU A 391     -25.365 -27.134  19.872  1.00 14.39 LIG-0.34  N 
ATOM     40 H    GLU A 391     -25.322 -27.800  20.414  1.00 14.39 LIG 0.16  HD
ATOM     41 O    ALA A 390     -24.559 -25.952  18.137  1.00 12.73 LIG-0.27  OA
BRANCH 39 42
ATOM     42  CA  GLU A 391     -26.492 -26.271  20.095  1.00 15.60 LIG 0.19  C 
BRANCH 42 43
ATOM     43  CB  GLU A 391     -27.561 -26.560  19.035  1.00 17.03 LIG 0.05  C 
BRANCH 43 44
ATOM     44  CG  GLU A 391     -28.004 -25.372  18.226  1.00 23.68 LIG 0.12  C 
BRANCH 44 45
ATOM     45  CD  GLU A 391     -27.575 -25.520  16.767  1.00 29.63 LIG 0.17  C 
ATOM     46 OE1  GLU A 391     -27.645 -26.674  16.248  1.00 31.73 LIG-0.65  OA
ATOM     47 OE2  GLU A 391     -27.121 -24.497  16.183  1.00 33.20 LIG-0.65  OA
ENDBRANCH 44 45
ENDBRANCH 43 44
ENDBRANCH 42 43
BRANCH 42 48
ATOM     48  C   GLU A 391     -27.024 -26.571  21.493  1.00 14.85 LIG 0.20  C 
ATOM     49 OXT  GLU A 391     -28.025 -25.997  21.899  1.00 14.73 LIG-0.65  OA
ATOM     50 O    GLU A 391     -26.440 -27.374  22.222  1.00 14.85 LIG-0.65  OA
ENDBRANCH 42 48
ENDBRANCH 39 42
ENDBRANCH 36 38
ENDBRANCH 34 36
ENDBRANCH 31 32
ENDBRANCH 29 31
ENDBRANCH 1 27
TORSDOF 20
ENDMDL
MODEL 7
USER: ADFR SOLUTION from run 75
USER: SCORE 16.475541 LL:  -3.346 LR: -14.639 RR:   0.000 FEB:  -8.673
USER: RMSD 2.417598
USER: SEED 74
USER: STATUS no improvement in best in 8 clusters for 5 generations
USER: GENES 22
USER: genes 0 Translation |==|  0.67785 0.54150 0.40501
USER: genes 1 Rotation |==|  0.47609 0.49873 0.42960 0.99444
USER: genes 2 Torsion [C]-CA--N-[C] |==|  0.63199
USER: genes 3 Torsion [N]-C--CA-[N] |==|  0.30355
USER: genes 4 Torsion [C]-CA--N-[C] |==|  0.77773
USER: genes 5 Torsion [N]-C--CA-[N] |==|  0.22812
USER: genes 6 Torsion [C]-CA--CB-[CG2] |==|  0.56149
USER: genes 7 Torsion [CA]-CB--OG1-[HG1] |==|  0.39535
USER: genes 8 Torsion [C]-CA--CB-[CG] |==|  0.16654
USER: genes 9 Torsion [CA]-CB--CG-[OD2] |==|  0.49689
USER: genes 10 Torsion [N]-CA--CB-[CG] |==|  0.81325
USER: genes 11 Torsion [CA]-CB--CG-[ND1] |==|  0.71572
USER: genes 12 Torsion [N]-CA--C-[N] |==|  0.11581
USER: genes 13 Torsion [C]-N--CA-[C] |==|  0.21201
USER: genes 14 Torsion [N]-CA--C-[N] |==|  0.65068
USER: genes 15 Torsion [C]-N--CA-[CB] |==|  0.50008
USER: genes 16 Torsion [N]-CA--C-[N] |==|  0.35000
USER: genes 17 Torsion [C]-N--CA-[CB] |==|  0.24765
USER: genes 18 Torsion [N]-CA--CB-[CG] |==|  0.82412
USER: genes 19 Torsion [CA]-CB--CG-[CD] |==|  0.72014
USER: genes 20 Torsion [CB]-CG--CD-[OE1] |==|  0.37673
USER: genes 21 Torsion [N]-CA--C-[OXT] |==|  0.52441
ROOT
ATOM      1  CA  HIS A 388     -25.236 -26.781  13.083  1.00 17.64 LIG 0.18  C 
ENDROOT
BRANCH 1 2
ATOM      2  N   HIS A 388     -26.567 -27.366  13.252  1.00 19.60 LIG-0.35  N 
ATOM      3 H    HIS A 388     -26.856 -27.353  14.061  1.00 19.60 LIG 0.16  HD
ATOM      4  C   ASP A 387     -27.256 -27.872  12.228  1.00 22.66 LIG 0.24  C 
ATOM      5 O    ASP A 387     -26.834 -27.863  11.068  1.00 22.02 LIG-0.27  OA
BRANCH 4 6
ATOM      6  CA  ASP A 387     -28.630 -28.454  12.545  1.00 25.57 LIG 0.19  C 
BRANCH 6 7
ATOM      7  N   ASP A 387     -29.615 -27.520  11.962  1.00 28.40 LIG-0.34  N 
ATOM      8 H    ASP A 387     -29.936 -27.774  11.206  1.00 28.40 LIG 0.16  HD
ATOM      9  C   THR A 386     -29.967 -26.379  12.575  1.00 31.30 LIG 0.26  C 
ATOM     10 O    THR A 386     -29.840 -26.207  13.803  1.00 31.60 LIG-0.27  OA
BRANCH 9 11
ATOM     11  CA  THR A 386     -30.599 -25.258  11.711  1.00 33.11 LIG 0.43  C 
ATOM     12  N   THR A 386     -32.061 -25.435  11.461  1.00 33.83 LIG 0.62  N 
BRANCH 11 13
ATOM     13  CB  THR A 386     -30.294 -23.849  12.297  1.00 33.77 LIG 0.16  C 
ATOM     14  CG2 THR A 386     -31.305 -22.799  11.826  1.00 34.60 LIG 0.04  C 
BRANCH 13 15
ATOM     15 OG1  THR A 386     -30.420 -23.863  13.728  1.00 35.18 LIG-0.39  OA
ATOM     16 HG1  THR A 386     -29.825 -23.375  14.066  1.00 35.18 LIG 0.21  HD
ENDBRANCH 13 15
ENDBRANCH 11 13
ENDBRANCH 9 11
ENDBRANCH 6 7
BRANCH 6 17
ATOM     17  CB  ASP A 387     -28.755 -29.886  11.954  1.00 25.68 LIG 0.15  C 
BRANCH 17 18
ATOM     18  CG  ASP A 387     -27.702 -30.868  12.511  1.00 25.80 LIG 0.17  C 
ATOM     19 OD2  ASP A 387     -27.661 -32.071  12.166  1.00 26.75 LIG-0.65  OA
ATOM     20 OD1  ASP A 387     -26.829 -30.491  13.341  1.00 21.65 LIG-0.65  OA
ENDBRANCH 17 18
ENDBRANCH 6 17
ENDBRANCH 4 6
ENDBRANCH 1 2
BRANCH 1 21
ATOM     21  CB  HIS A 388     -25.241 -25.230  13.194  1.00 17.51 LIG 0.10  C 
BRANCH 21 22
ATOM     22  CG  HIS A 388     -25.962 -24.509  12.080  1.00 19.36 LIG 0.06  A 
ATOM     23 ND1  HIS A 388     -25.312 -23.888  11.038  1.00 21.21 LIG-0.24  NA
ATOM     24  CE1 HIS A 388     -26.200 -23.358  10.215  1.00 22.16 LIG 0.23  A 
ATOM     25 NE2  HIS A 388     -27.407 -23.588  10.698  1.00 21.69 LIG-0.25  NA
ATOM     26  CD2 HIS A 388     -27.285 -24.301  11.866  1.00 21.19 LIG 0.14  A 
ENDBRANCH 21 22
ENDBRANCH 1 21
BRANCH 1 27
ATOM     27  C   HIS A 388     -24.292 -27.341  14.156  1.00 15.45 LIG 0.24  C 
ATOM     28 O    HIS A 388     -23.501 -26.594  14.708  1.00 14.42 LIG-0.27  OA
ATOM     29  N   GLY A 389     -24.361 -28.646  14.446  1.00 14.00 LIG-0.35  N 
ATOM     30 H    GLY A 389     -24.922 -29.192  14.089  1.00 14.00 LIG 0.16  HD
BRANCH 29 31
ATOM     31  CA  GLY A 389     -23.457 -29.255  15.421  1.00 13.01 LIG 0.23  C 
BRANCH 31 32
ATOM     32  C   GLY A 389     -23.839 -28.940  16.851  1.00 11.92 LIG 0.24  C 
ATOM     33 O    GLY A 389     -24.981 -29.200  17.300  1.00 12.61 LIG-0.27  OA
ATOM     34  N   ALA A 390     -22.886 -28.407  17.594  1.00 10.53 LIG-0.35  N 
ATOM     35 H    ALA A 390     -22.083 -28.278  17.314  1.00 10.53 LIG 0.16  HD
BRANCH 34 36
ATOM     36  CA  ALA A 390     -23.110 -27.983  18.978  1.00 11.53 LIG 0.17  C 
ATOM     37  CB  ALA A 390     -21.825 -27.418  19.545  1.00 11.91 LIG 0.04  C 
BRANCH 36 38
ATOM     38  C   ALA A 390     -24.219 -26.914  19.039  1.00 13.11 LIG 0.24  C 
ATOM     39  N   GLU A 391     -25.215 -27.188  19.869  1.00 14.39 LIG-0.34  N 
ATOM     40 H    GLU A 391     -25.238 -27.888  20.368  1.00 14.39 LIG 0.16  HD
ATOM     41 O    ALA A 390     -24.207 -25.904  18.324  1.00 12.73 LIG-0.27  OA
BRANCH 39 42
ATOM     42  CA  GLU A 391     -26.361 -26.333  20.011  1.00 15.60 LIG 0.19  C 
BRANCH 42 43
ATOM     43  CB  GLU A 391     -27.427 -26.751  18.994  1.00 17.03 LIG 0.05  C 
BRANCH 43 44
ATOM     44  CG  GLU A 391     -27.036 -26.600  17.549  1.00 23.68 LIG 0.12  C 
BRANCH 44 45
ATOM     45  CD  GLU A 391     -27.643 -25.332  16.953  1.00 29.63 LIG 0.17  C 
ATOM     46 OE1  GLU A 391     -26.895 -24.605  16.232  1.00 31.73 LIG-0.65  OA
ATOM     47 OE2  GLU A 391     -28.835 -25.052  17.259  1.00 33.20 LIG-0.65  OA
ENDBRANCH 44 45
ENDBRANCH 43 44
ENDBRANCH 42 43
BRANCH 42 48
ATOM     48  C   GLU A 391     -26.879 -26.500  21.436  1.00 14.85 LIG 0.20  C 
ATOM     49 OXT  GLU A 391     -27.946 -25.997  21.758  1.00 14.73 LIG-0.65  OA
ATOM     50 O    GLU A 391     -26.219 -27.123  22.270  1.00 14.85 LIG-0.65  OA
ENDBRANCH 42 48
ENDBRANCH 39 42
ENDBRANCH 36 38
ENDBRANCH 34 36
ENDBRANCH 31 32
ENDBRANCH 29 31
ENDBRANCH 1 27
TORSDOF 20
ENDMDL
MODEL 8
USER: ADFR SOLUTION from run 137
USER: SCORE 16.088805 LL:  -2.914 LR: -14.601 RR:   0.000 FEB:  -8.635
USER: RMSD 2.545923
USER: SEED 136
USER: STATUS no improvement in best in 12 clusters for 5 generations
USER: GENES 22
USER: genes 0 Translation |==|  0.65072 0.54146 0.38956
USER: genes 1 Rotation |==|  0.49577 0.49307 0.45078 0.99750
USER: genes 2 Torsion [C]-CA--N-[C] |==|  0.68911
USER: genes 3 Torsion [N]-C--CA-[N] |==|  0.50023
USER: genes 4 Torsion [C]-CA--N-[C] |==|  0.78062
USER: genes 5 Torsion [N]-C--CA-[N] |==|  0.39174
USER: genes 6 Torsion [C]-CA--CB-[CG2] |==|  0.92642
USER: genes 7 Torsion [CA]-CB--OG1-[HG1] |==|  0.53772
USER: genes 8 Torsion [C]-CA--CB-[CG] |==|  0.84587
USER: genes 9 Torsion [CA]-CB--CG-[OD2] |==|  0.33083
USER: genes 10 Torsion [N]-CA--CB-[CG] |==|  0.79400
USER: genes 11 Torsion [CA]-CB--CG-[ND1] |==|  0.67882
USER: genes 12 Torsion [N]-CA--C-[N] |==|  0.07698
USER: genes 13 Torsion [C]-N--CA-[C] |==|  0.24001
USER: genes 14 Torsion [N]-CA--C-[N] |==|  0.64911
USER: genes 15 Torsion [C]-N--CA-[CB] |==|  0.51216
USER: genes 16 Torsion [N]-CA--C-[N] |==|  0.36542
USER: genes 17 Torsion [C]-N--CA-[CB] |==|  0.28864
USER: genes 18 Torsion [N]-CA--CB-[CG] |==|  0.55886
USER: genes 19 Torsion [CA]-CB--CG-[CD] |==|  0.63185
USER: genes 20 Torsion [CB]-CG--CD-[OE1] |==|  0.06780
USER: genes 21 Torsion [N]-CA--C-[OXT] |==|  0.51401
ROOT
ATOM      1  CA  HIS A 388     -25.765 -26.782  12.747  1.00 17.64 LIG 0.18  C 
ENDROOT
BRANCH 1 2
ATOM      2  N   HIS A 388     -27.043 -27.490  12.829  1.00 19.60 LIG-0.35  N 
ATOM      3 H    HIS A 388     -27.488 -27.331  13.547  1.00 19.60 LIG 0.16  HD
ATOM      4  C   ASP A 387     -27.466 -28.308  11.863  1.00 22.66 LIG 0.24  C 
ATOM      5 O    ASP A 387     -26.824 -28.509  10.828  1.00 22.02 LIG-0.27  OA
BRANCH 4 6
ATOM      6  CA  ASP A 387     -28.816 -28.985  12.079  1.00 25.57 LIG 0.19  C 
BRANCH 6 7
ATOM      7  N   ASP A 387     -29.048 -29.825  10.886  1.00 28.40 LIG-0.34  N 
ATOM      8 H    ASP A 387     -28.883 -30.660  11.006  1.00 28.40 LIG 0.16  HD
ATOM      9  C   THR A 386     -29.479 -29.311   9.723  1.00 31.30 LIG 0.26  C 
ATOM     10 O    THR A 386     -30.095 -28.229   9.652  1.00 31.60 LIG-0.27  OA
BRANCH 9 11
ATOM     11  CA  THR A 386     -29.232 -30.133   8.433  1.00 33.11 LIG 0.43  C 
ATOM     12  N   THR A 386     -30.365 -30.092   7.460  1.00 33.83 LIG 0.62  N 
BRANCH 11 13
ATOM     13  CB  THR A 386     -27.891 -29.733   7.753  1.00 33.77 LIG 0.16  C 
ATOM     14  CG2 THR A 386     -27.487 -28.292   8.081  1.00 34.60 LIG 0.04  C 
BRANCH 13 15
ATOM     15 OG1  THR A 386     -26.814 -30.539   8.255  1.00 35.18 LIG-0.39  OA
ATOM     16 HG1  THR A 386     -26.079 -30.198   8.028  1.00 35.18 LIG 0.21  HD
ENDBRANCH 13 15
ENDBRANCH 11 13
ENDBRANCH 9 11
ENDBRANCH 6 7
BRANCH 6 17
ATOM     17  CB  ASP A 387     -28.795 -29.818  13.390  1.00 25.68 LIG 0.15  C 
BRANCH 17 18
ATOM     18  CG  ASP A 387     -27.652 -30.855  13.433  1.00 25.80 LIG 0.17  C 
ATOM     19 OD2  ASP A 387     -26.756 -30.828  14.309  1.00 26.75 LIG-0.65  OA
ATOM     20 OD1  ASP A 387     -27.578 -31.784  12.582  1.00 21.65 LIG-0.65  OA
ENDBRANCH 17 18
ENDBRANCH 6 17
ENDBRANCH 4 6
ENDBRANCH 1 2
BRANCH 1 21
ATOM     21  CB  HIS A 388     -25.910 -25.249  12.971  1.00 17.51 LIG 0.10  C 
BRANCH 21 22
ATOM     22  CG  HIS A 388     -26.515 -24.486  11.818  1.00 19.36 LIG 0.06  A 
ATOM     23 ND1  HIS A 388     -25.829 -23.534  11.100  1.00 21.21 LIG-0.24  NA
ATOM     24  CE1 HIS A 388     -26.608 -23.049  10.149  1.00 22.16 LIG 0.23  A 
ATOM     25 NE2  HIS A 388     -27.788 -23.633  10.238  1.00 21.69 LIG-0.25  NA
ATOM     26  CD2 HIS A 388     -27.758 -24.531  11.278  1.00 21.19 LIG 0.14  A 
ENDBRANCH 21 22
ENDBRANCH 1 21
BRANCH 1 27
ATOM     27  C   HIS A 388     -24.804 -27.339  13.806  1.00 15.45 LIG 0.24  C 
ATOM     28 O    HIS A 388     -23.923 -26.623  14.252  1.00 14.42 LIG-0.27  OA
ATOM     29  N   GLY A 389     -24.959 -28.609  14.201  1.00 14.00 LIG-0.35  N 
ATOM     30 H    GLY A 389     -25.583 -29.130  13.920  1.00 14.00 LIG 0.16  HD
BRANCH 29 31
ATOM     31  CA  GLY A 389     -24.047 -29.219  15.169  1.00 13.01 LIG 0.23  C 
BRANCH 31 32
ATOM     32  C   GLY A 389     -24.459 -28.964  16.603  1.00 11.92 LIG 0.24  C 
ATOM     33 O    GLY A 389     -25.602 -29.269  17.023  1.00 12.61 LIG-0.27  OA
ATOM     34  N   ALA A 390     -23.532 -28.435  17.379  1.00 10.53 LIG-0.35  N 
ATOM     35 H    ALA A 390     -22.728 -28.277  17.117  1.00 10.53 LIG 0.16  HD
BRANCH 34 36
ATOM     36  CA  ALA A 390     -23.787 -28.067  18.773  1.00 11.53 LIG 0.17  C 
ATOM     37  CB  ALA A 390     -22.560 -27.392  19.349  1.00 11.91 LIG 0.04  C 
BRANCH 36 38
ATOM     38  C   ALA A 390     -24.994 -27.112  18.863  1.00 13.11 LIG 0.24  C 
ATOM     39  N   GLU A 391     -25.901 -27.439  19.773  1.00 14.39 LIG-0.34  N 
ATOM     40 H    GLU A 391     -25.818 -28.110  20.304  1.00 14.39 LIG 0.16  HD
ATOM     41 O    ALA A 390     -25.133 -26.145  18.103  1.00 12.73 LIG-0.27  OA
BRANCH 39 42
ATOM     42  CA  GLU A 391     -27.116 -26.695  19.957  1.00 15.60 LIG 0.19  C 
BRANCH 42 43
ATOM     43  CB  GLU A 391     -28.279 -27.477  19.337  1.00 17.03 LIG 0.05  C 
BRANCH 43 44
ATOM     44  CG  GLU A 391     -29.496 -26.661  18.996  1.00 23.68 LIG 0.12  C 
BRANCH 44 45
ATOM     45  CD  GLU A 391     -30.765 -27.342  19.505  1.00 29.63 LIG 0.17  C 
ATOM     46 OE1  GLU A 391     -30.651 -28.143  20.481  1.00 31.73 LIG-0.65  OA
ATOM     47 OE2  GLU A 391     -31.841 -27.113  18.887  1.00 33.20 LIG-0.65  OA
ENDBRANCH 44 45
ENDBRANCH 43 44
ENDBRANCH 42 43
BRANCH 42 48
ATOM     48  C   GLU A 391     -27.321 -26.523  21.459  1.00 14.85 LIG 0.20  C 
ATOM     49 OXT  GLU A 391     -28.344 -25.997  21.876  1.00 14.73 LIG-0.65  OA
ATOM     50 O    GLU A 391     -26.454 -26.892  22.252  1.00 14.85 LIG-0.65  OA
ENDBRANCH 42 48
ENDBRANCH 39 42
ENDBRANCH 36 38
ENDBRANCH 34 36
ENDBRANCH 31 32
ENDBRANCH 29 31
ENDBRANCH 1 27
TORSDOF 20
ENDMDL
MODEL 9
USER: ADFR SOLUTION from run 184
USER: SCORE 16.860298 LL:  -3.402 LR: -14.545 RR:   0.000 FEB:  -8.579
USER: RMSD 2.806080
USER: SEED 183
USER: STATUS no improvement in best in 7 clusters for 5 generations
USER: GENES 22
USER: genes 0 Translation |==|  0.61692 0.61795 0.34287
USER: genes 1 Rotation |==|  0.38998 0.51072 0.52758 0.98685
USER: genes 2 Torsion [C]-CA--N-[C] |==|  0.83466
USER: genes 3 Torsion [N]-C--CA-[N] |==|  0.99224
USER: genes 4 Torsion [C]-CA--N-[C] |==|  0.71431
USER: genes 5 Torsion [N]-C--CA-[N] |==|  0.42807
USER: genes 6 Torsion [C]-CA--CB-[CG2] |==|  0.29048
USER: genes 7 Torsion [CA]-CB--OG1-[HG1] |==|  0.44813
USER: genes 8 Torsion [C]-CA--CB-[CG] |==|  0.24586
USER: genes 9 Torsion [CA]-CB--CG-[OD2] |==|  0.50940
USER: genes 10 Torsion [N]-CA--CB-[CG] |==|  0.64078
USER: genes 11 Torsion [CA]-CB--CG-[ND1] |==|  0.96396
USER: genes 12 Torsion [N]-CA--C-[N] |==|  0.93030
USER: genes 13 Torsion [C]-N--CA-[C] |==|  0.54744
USER: genes 14 Torsion [N]-CA--C-[N] |==|  0.40724
USER: genes 15 Torsion [C]-N--CA-[CB] |==|  0.55351
USER: genes 16 Torsion [N]-CA--C-[N] |==|  0.28768
USER: genes 17 Torsion [C]-N--CA-[CB] |==|  0.40092
USER: genes 18 Torsion [N]-CA--CB-[CG] |==|  0.73035
USER: genes 19 Torsion [CA]-CB--CG-[CD] |==|  0.59441
USER: genes 20 Torsion [CB]-CG--CD-[OE1] |==|  0.96672
USER: genes 21 Torsion [N]-CA--C-[OXT] |==|  0.55124
ROOT
ATOM      1  CA  HIS A 388     -26.424 -25.462  11.732  1.00 17.64 LIG 0.18  C 
ENDROOT
BRANCH 1 2
ATOM      2  N   HIS A 388     -27.416 -26.376  12.299  1.00 19.60 LIG-0.35  N 
ATOM      3 H    HIS A 388     -28.205 -26.041  12.368  1.00 19.60 LIG 0.16  HD
ATOM      4  C   ASP A 387     -27.106 -27.619  12.673  1.00 22.66 LIG 0.24  C 
ATOM      5 O    ASP A 387     -25.972 -28.092  12.547  1.00 22.02 LIG-0.27  OA
BRANCH 4 6
ATOM      6  CA  ASP A 387     -28.236 -28.464  13.253  1.00 25.57 LIG 0.19  C 
BRANCH 6 7
ATOM      7  N   ASP A 387     -29.422 -27.586  13.299  1.00 28.40 LIG-0.34  N 
ATOM      8 H    ASP A 387     -29.805 -27.470  12.538  1.00 28.40 LIG 0.16  HD
ATOM      9  C   THR A 386     -29.851 -27.025  14.441  1.00 31.30 LIG 0.26  C 
ATOM     10 O    THR A 386     -29.579 -27.492  15.564  1.00 31.60 LIG-0.27  OA
BRANCH 9 11
ATOM     11  CA  THR A 386     -30.760 -25.774  14.336  1.00 33.11 LIG 0.43  C 
ATOM     12  N   THR A 386     -31.662 -25.577  15.511  1.00 33.83 LIG 0.62  N 
BRANCH 11 13
ATOM     13  CB  THR A 386     -29.929 -24.491  14.043  1.00 33.77 LIG 0.16  C 
ATOM     14  CG2 THR A 386     -30.063 -24.039  12.585  1.00 34.60 LIG 0.04  C 
BRANCH 13 15
ATOM     15 OG1  THR A 386     -30.422 -23.386  14.815  1.00 35.18 LIG-0.39  OA
ATOM     16 HG1  THR A 386     -29.834 -22.786  14.852  1.00 35.18 LIG 0.21  HD
ENDBRANCH 13 15
ENDBRANCH 11 13
ENDBRANCH 9 11
ENDBRANCH 6 7
BRANCH 6 17
ATOM     17  CB  ASP A 387     -28.470 -29.723  12.372  1.00 25.68 LIG 0.15  C 
BRANCH 17 18
ATOM     18  CG  ASP A 387     -27.594 -30.926  12.784  1.00 25.80 LIG 0.17  C 
ATOM     19 OD2  ASP A 387     -27.601 -32.006  12.151  1.00 26.75 LIG-0.65  OA
ATOM     20 OD1  ASP A 387     -26.826 -30.864  13.784  1.00 21.65 LIG-0.65  OA
ENDBRANCH 17 18
ENDBRANCH 6 17
ENDBRANCH 4 6
ENDBRANCH 1 2
BRANCH 1 21
ATOM     21  CB  HIS A 388     -27.023 -24.074  11.366  1.00 17.51 LIG 0.10  C 
BRANCH 21 22
ATOM     22  CG  HIS A 388     -26.723 -23.593   9.967  1.00 19.36 LIG 0.06  A 
ATOM     23 ND1  HIS A 388     -25.776 -24.175   9.156  1.00 21.21 LIG-0.24  NA
ATOM     24  CE1 HIS A 388     -25.746 -23.552   7.991  1.00 22.16 LIG 0.23  A 
ATOM     25 NE2  HIS A 388     -26.622 -22.565   8.023  1.00 21.69 LIG-0.25  NA
ATOM     26  CD2 HIS A 388     -27.241 -22.566   9.250  1.00 21.19 LIG 0.14  A 
ENDBRANCH 21 22
ENDBRANCH 1 21
BRANCH 1 27
ATOM     27  C   HIS A 388     -25.288 -25.250  12.742  1.00 15.45 LIG 0.24  C 
ATOM     28 O    HIS A 388     -24.179 -24.938  12.341  1.00 14.42 LIG-0.27  OA
ATOM     29  N   GLY A 389     -25.551 -25.428  14.042  1.00 14.00 LIG-0.35  N 
ATOM     30 H    GLY A 389     -26.327 -25.628  14.355  1.00 14.00 LIG 0.16  HD
BRANCH 29 31
ATOM     31  CA  GLY A 389     -24.504 -25.292  15.054  1.00 13.01 LIG 0.23  C 
BRANCH 31 32
ATOM     32  C   GLY A 389     -24.883 -25.919  16.378  1.00 11.92 LIG 0.24  C 
ATOM     33 O    GLY A 389     -26.073 -25.953  16.774  1.00 12.61 LIG-0.27  OA
ATOM     34  N   ALA A 390     -23.888 -26.451  17.064  1.00 10.53 LIG-0.35  N 
ATOM     35 H    ALA A 390     -23.079 -26.486  16.777  1.00 10.53 LIG 0.16  HD
BRANCH 34 36
ATOM     36  CA  ALA A 390     -24.074 -27.039  18.393  1.00 11.53 LIG 0.17  C 
ATOM     37  CB  ALA A 390     -22.737 -27.122  19.098  1.00 11.91 LIG 0.04  C 
BRANCH 36 38
ATOM     38  C   ALA A 390     -25.048 -26.184  19.227  1.00 13.11 LIG 0.24  C 
ATOM     39  N   GLU A 391     -26.271 -26.680  19.343  1.00 14.39 LIG-0.34  N 
ATOM     40 H    GLU A 391     -26.509 -27.438  19.013  1.00 14.39 LIG 0.16  HD
ATOM     41 O    ALA A 390     -24.727 -25.088  19.704  1.00 12.73 LIG-0.27  OA
BRANCH 39 42
ATOM     42  CA  GLU A 391     -27.324 -25.991  20.037  1.00 15.60 LIG 0.19  C 
BRANCH 42 43
ATOM     43  CB  GLU A 391     -28.652 -26.253  19.318  1.00 17.03 LIG 0.05  C 
BRANCH 43 44
ATOM     44  CG  GLU A 391     -29.087 -25.181  18.357  1.00 23.68 LIG 0.12  C 
BRANCH 44 45
ATOM     45  CD  GLU A 391     -30.609 -25.050  18.344  1.00 29.63 LIG 0.17  C 
ATOM     46 OE1  GLU A 391     -31.282 -25.959  18.917  1.00 31.73 LIG-0.65  OA
ATOM     47 OE2  GLU A 391     -31.109 -24.077  17.715  1.00 33.20 LIG-0.65  OA
ENDBRANCH 44 45
ENDBRANCH 43 44
ENDBRANCH 42 43
BRANCH 42 48
ATOM     48  C   GLU A 391     -27.363 -26.537  21.461  1.00 14.85 LIG 0.20  C 
ATOM     49 OXT  GLU A 391     -28.362 -26.372  22.147  1.00 14.73 LIG-0.65  OA
ATOM     50 O    GLU A 391     -26.389 -27.127  21.929  1.00 14.85 LIG-0.65  OA
ENDBRANCH 42 48
ENDBRANCH 39 42
ENDBRANCH 36 38
ENDBRANCH 34 36
ENDBRANCH 31 32
ENDBRANCH 29 31
ENDBRANCH 1 27
TORSDOF 20
ENDMDL
MODEL 10
USER: ADFR SOLUTION from run 46
USER: SCORE 15.566164 LL:  -2.718 LR: -14.328 RR:   0.000 FEB:  -8.362
USER: RMSD 2.550109
USER: SEED 45
USER: STATUS no improvement in best in 6 clusters for 5 generations
USER: GENES 22
USER: genes 0 Translation |==|  0.65694 0.57049 0.37092
USER: genes 1 Rotation |==|  0.51379 0.46999 0.50943 0.99882
USER: genes 2 Torsion [C]-CA--N-[C] |==|  0.63555
USER: genes 3 Torsion [N]-C--CA-[N] |==|  0.21265
USER: genes 4 Torsion [C]-CA--N-[C] |==|  0.78332
USER: genes 5 Torsion [N]-C--CA-[N] |==|  0.34695
USER: genes 6 Torsion [C]-CA--CB-[CG2] |==|  0.63322
USER: genes 7 Torsion [CA]-CB--OG1-[HG1] |==|  0.57471
USER: genes 8 Torsion [C]-CA--CB-[CG] |==|  0.18164
USER: genes 9 Torsion [CA]-CB--CG-[OD2] |==|  0.61222
USER: genes 10 Torsion [N]-CA--CB-[CG] |==|  0.76888
USER: genes 11 Torsion [CA]-CB--CG-[ND1] |==|  0.77218
USER: genes 12 Torsion [N]-CA--C-[N] |==|  0.08919
USER: genes 13 Torsion [C]-N--CA-[C] |==|  0.25805
USER: genes 14 Torsion [N]-CA--C-[N] |==|  0.59356
USER: genes 15 Torsion [C]-N--CA-[CB] |==|  0.48933
USER: genes 16 Torsion [N]-CA--C-[N] |==|  0.41263
USER: genes 17 Torsion [C]-N--CA-[CB] |==|  0.32256
USER: genes 18 Torsion [N]-CA--CB-[CG] |==|  0.28437
USER: genes 19 Torsion [CA]-CB--CG-[CD] |==|  0.37440
USER: genes 20 Torsion [CB]-CG--CD-[OE1] |==|  0.99124
USER: genes 21 Torsion [N]-CA--C-[OXT] |==|  0.98906
ROOT
ATOM      1  CA  HIS A 388     -25.644 -26.281  12.342  1.00 17.64 LIG 0.18  C 
ENDROOT
BRANCH 1 2
ATOM      2  N   HIS A 388     -26.720 -27.269  12.257  1.00 19.60 LIG-0.35  N 
ATOM      3 H    HIS A 388     -27.086 -27.455  13.013  1.00 19.60 LIG 0.16  HD
ATOM      4  C   ASP A 387     -27.088 -27.823  11.101  1.00 22.66 LIG 0.24  C 
ATOM      5 O    ASP A 387     -26.566 -27.528  10.022  1.00 22.02 LIG-0.27  OA
BRANCH 4 6
ATOM      6  CA  ASP A 387     -28.223 -28.841  11.157  1.00 25.57 LIG 0.19  C 
BRANCH 6 7
ATOM      7  N   ASP A 387     -29.467 -28.060  11.306  1.00 28.40 LIG-0.34  N 
ATOM      8 H    ASP A 387     -29.920 -27.976  10.580  1.00 28.40 LIG 0.16  HD
ATOM      9  C   THR A 386     -29.843 -27.533  12.482  1.00 31.30 LIG 0.26  C 
ATOM     10 O    THR A 386     -29.442 -27.975  13.577  1.00 31.60 LIG-0.27  OA
BRANCH 9 11
ATOM     11  CA  THR A 386     -30.854 -26.359  12.460  1.00 33.11 LIG 0.43  C 
ATOM     12  N   THR A 386     -32.076 -26.593  13.286  1.00 33.83 LIG 0.62  N 
BRANCH 11 13
ATOM     13  CB  THR A 386     -30.169 -25.013  12.835  1.00 33.77 LIG 0.16  C 
ATOM     14  CG2 THR A 386     -30.968 -24.235  13.886  1.00 34.60 LIG 0.04  C 
BRANCH 13 15
ATOM     15 OG1  THR A 386     -28.894 -25.253  13.450  1.00 35.18 LIG-0.39  OA
ATOM     16 HG1  THR A 386     -28.704 -24.613  13.961  1.00 35.18 LIG 0.21  HD
ENDBRANCH 13 15
ENDBRANCH 11 13
ENDBRANCH 9 11
ENDBRANCH 6 7
BRANCH 6 17
ATOM     17  CB  ASP A 387     -28.225 -29.711   9.870  1.00 25.68 LIG 0.15  C 
BRANCH 17 18
ATOM     18  CG  ASP A 387     -26.970 -30.600   9.734  1.00 25.80 LIG 0.17  C 
ATOM     19 OD2  ASP A 387     -26.389 -30.775   8.638  1.00 26.75 LIG-0.65  OA
ATOM     20 OD1  ASP A 387     -26.472 -31.187  10.734  1.00 21.65 LIG-0.65  OA
ENDBRANCH 17 18
ENDBRANCH 6 17
ENDBRANCH 4 6
ENDBRANCH 1 2
BRANCH 1 21
ATOM     21  CB  HIS A 388     -26.166 -24.843  12.622  1.00 17.51 LIG 0.10  C 
BRANCH 21 22
ATOM     22  CG  HIS A 388     -26.635 -24.081  11.406  1.00 19.36 LIG 0.06  A 
ATOM     23 ND1  HIS A 388     -25.781 -23.415  10.558  1.00 21.21 LIG-0.24  NA
ATOM     24  CE1 HIS A 388     -26.473 -22.857   9.580  1.00 22.16 LIG 0.23  A 
ATOM     25 NE2  HIS A 388     -27.753 -23.112   9.777  1.00 21.69 LIG-0.25  NA
ATOM     26  CD2 HIS A 388     -27.881 -23.871  10.915  1.00 21.19 LIG 0.14  A 
ENDBRANCH 21 22
ENDBRANCH 1 21
BRANCH 1 27
ATOM     27  C   HIS A 388     -24.676 -26.675  13.467  1.00 15.45 LIG 0.24  C 
ATOM     28 O    HIS A 388     -24.093 -25.802  14.089  1.00 14.42 LIG-0.27  OA
ATOM     29  N   GLY A 389     -24.493 -27.976  13.723  1.00 14.00 LIG-0.35  N 
ATOM     30 H    GLY A 389     -24.906 -28.611  13.315  1.00 14.00 LIG 0.16  HD
BRANCH 29 31
ATOM     31  CA  GLY A 389     -23.549 -28.422  14.746  1.00 13.01 LIG 0.23  C 
BRANCH 31 32
ATOM     32  C   GLY A 389     -24.200 -28.622  16.098  1.00 11.92 LIG 0.24  C 
ATOM     33 O    GLY A 389     -25.372 -29.056  16.206  1.00 12.61 LIG-0.27  OA
ATOM     34  N   ALA A 390     -23.445 -28.342  17.143  1.00 10.53 LIG-0.35  N 
ATOM     35 H    ALA A 390     -22.622 -28.099  17.083  1.00 10.53 LIG 0.16  HD
BRANCH 34 36
ATOM     36  CA  ALA A 390     -23.943 -28.419  18.519  1.00 11.53 LIG 0.17  C 
ATOM     37  CB  ALA A 390     -22.811 -28.130  19.482  1.00 11.91 LIG 0.04  C 
BRANCH 36 38
ATOM     38  C   ALA A 390     -25.081 -27.401  18.735  1.00 13.11 LIG 0.24  C 
ATOM     39  N   GLU A 391     -26.004 -27.771  19.611  1.00 14.39 LIG-0.34  N 
ATOM     40 H    GLU A 391     -25.967 -28.505  20.058  1.00 14.39 LIG 0.16  HD
ATOM     41 O    ALA A 390     -25.155 -26.343  18.096  1.00 12.73 LIG-0.27  OA
BRANCH 39 42
ATOM     42  CA  GLU A 391     -27.164 -26.973  19.895  1.00 15.60 LIG 0.19  C 
BRANCH 42 43
ATOM     43  CB  GLU A 391     -28.419 -27.743  19.467  1.00 17.03 LIG 0.05  C 
BRANCH 43 44
ATOM     44  CG  GLU A 391     -29.191 -28.389  20.584  1.00 23.68 LIG 0.12  C 
BRANCH 44 45
ATOM     45  CD  GLU A 391     -30.688 -28.134  20.426  1.00 29.63 LIG 0.17  C 
ATOM     46 OE1  GLU A 391     -31.061 -27.397  19.464  1.00 31.73 LIG-0.65  OA
ATOM     47 OE2  GLU A 391     -31.462 -28.621  21.296  1.00 33.20 LIG-0.65  OA
ENDBRANCH 44 45
ENDBRANCH 43 44
ENDBRANCH 42 43
BRANCH 42 48
ATOM     48  C   GLU A 391     -27.178 -26.710  21.398  1.00 14.85 LIG 0.20  C 
ATOM     49 OXT  GLU A 391     -26.330 -27.225  22.112  1.00 14.73 LIG-0.65  OA
ATOM     50 O    GLU A 391     -28.049 -25.997  21.897  1.00 14.85 LIG-0.65  OA
ENDBRANCH 42 48
ENDBRANCH 39 42
ENDBRANCH 36 38
ENDBRANCH 34 36
ENDBRANCH 31 32
ENDBRANCH 29 31
ENDBRANCH 1 27
TORSDOF 20
ENDMDL
MODEL 11
USER: ADFR SOLUTION from run 133
USER: SCORE 16.123379 LL:  -3.042 LR: -14.203 RR:   0.000 FEB:  -8.237
USER: RMSD 2.537213
USER: SEED 132
USER: STATUS no improvement in best in 5 clusters for 5 generations
USER: GENES 22
USER: genes 0 Translation |==|  0.63859 0.59105 0.37848
USER: genes 1 Rotation |==|  0.58190 0.45184 0.57757 0.98472
USER: genes 2 Torsion [C]-CA--N-[C] |==|  0.63801
USER: genes 3 Torsion [N]-C--CA-[N] |==|  0.24314
USER: genes 4 Torsion [C]-CA--N-[C] |==|  0.77757
USER: genes 5 Torsion [N]-C--CA-[N] |==|  0.93223
USER: genes 6 Torsion [C]-CA--CB-[CG2] |==|  0.97497
USER: genes 7 Torsion [CA]-CB--OG1-[HG1] |==|  0.60326
USER: genes 8 Torsion [C]-CA--CB-[CG] |==|  0.31738
USER: genes 9 Torsion [CA]-CB--CG-[OD2] |==|  0.51447
USER: genes 10 Torsion [N]-CA--CB-[CG] |==|  0.20290
USER: genes 11 Torsion [CA]-CB--CG-[ND1] |==|  0.29026
USER: genes 12 Torsion [N]-CA--C-[N] |==|  0.03996
USER: genes 13 Torsion [C]-N--CA-[C] |==|  0.23455
USER: genes 14 Torsion [N]-CA--C-[N] |==|  0.56707
USER: genes 15 Torsion [C]-N--CA-[CB] |==|  0.52293
USER: genes 16 Torsion [N]-CA--C-[N] |==|  0.38445
USER: genes 17 Torsion [C]-N--CA-[CB] |==|  0.32964
USER: genes 18 Torsion [N]-CA--CB-[CG] |==|  0.55698
USER: genes 19 Torsion [CA]-CB--CG-[CD] |==|  0.60532
USER: genes 20 Torsion [CB]-CG--CD-[OE1] |==|  0.12689
USER: genes 21 Torsion [N]-CA--C-[OXT] |==|  0.50258
ROOT
ATOM      1  CA  HIS A 388     -26.002 -25.926  12.506  1.00 17.64 LIG 0.18  C 
ENDROOT
BRANCH 1 2
ATOM      2  N   HIS A 388     -26.739 -27.111  12.063  1.00 19.60 LIG-0.35  N 
ATOM      3 H    HIS A 388     -27.074 -27.576  12.704  1.00 19.60 LIG 0.16  HD
ATOM      4  C   ASP A 387     -26.869 -27.426  10.774  1.00 22.66 LIG 0.24  C 
ATOM      5 O    ASP A 387     -26.398 -26.735   9.865  1.00 22.02 LIG-0.27  OA
BRANCH 4 6
ATOM      6  CA  ASP A 387     -27.660 -28.691  10.452  1.00 25.57 LIG 0.19  C 
BRANCH 6 7
ATOM      7  N   ASP A 387     -29.074 -28.276  10.359  1.00 28.40 LIG-0.34  N 
ATOM      8 H    ASP A 387     -29.357 -28.168   9.554  1.00 28.40 LIG 0.16  HD
ATOM      9  C   THR A 386     -29.836 -28.087  11.448  1.00 31.30 LIG 0.26  C 
ATOM     10 O    THR A 386     -29.583 -28.618  12.547  1.00 31.60 LIG-0.27  OA
BRANCH 9 11
ATOM     11  CA  THR A 386     -31.105 -27.210  11.300  1.00 33.11 LIG 0.43  C 
ATOM     12  N   THR A 386     -31.041 -26.233  10.171  1.00 33.83 LIG 0.62  N 
BRANCH 11 13
ATOM     13  CB  THR A 386     -32.392 -28.082  11.218  1.00 33.77 LIG 0.16  C 
ATOM     14  CG2 THR A 386     -32.068 -29.573  11.081  1.00 34.60 LIG 0.04  C 
BRANCH 13 15
ATOM     15 OG1  THR A 386     -33.145 -27.981  12.437  1.00 35.18 LIG-0.39  OA
ATOM     16 HG1  THR A 386     -33.484 -28.728  12.619  1.00 35.18 LIG 0.21  HD
ENDBRANCH 13 15
ENDBRANCH 11 13
ENDBRANCH 9 11
ENDBRANCH 6 7
BRANCH 6 17
ATOM     17  CB  ASP A 387     -27.144 -29.323   9.130  1.00 25.68 LIG 0.15  C 
BRANCH 17 18
ATOM     18  CG  ASP A 387     -26.481 -30.703   9.334  1.00 25.80 LIG 0.17  C 
ATOM     19 OD2  ASP A 387     -25.922 -31.322   8.399  1.00 26.75 LIG-0.65  OA
ATOM     20 OD1  ASP A 387     -26.473 -31.265  10.464  1.00 21.65 LIG-0.65  OA
ENDBRANCH 17 18
ENDBRANCH 6 17
ENDBRANCH 4 6
ENDBRANCH 1 2
BRANCH 1 21
ATOM     21  CB  HIS A 388     -26.931 -24.812  13.065  1.00 17.51 LIG 0.10  C 
BRANCH 21 22
ATOM     22  CG  HIS A 388     -27.528 -25.095  14.423  1.00 19.36 LIG 0.06  A 
ATOM     23 ND1  HIS A 388     -27.087 -24.496  15.581  1.00 21.21 LIG-0.24  NA
ATOM     24  CE1 HIS A 388     -27.804 -24.927  16.604  1.00 22.16 LIG 0.23  A 
ATOM     25 NE2  HIS A 388     -28.680 -25.808  16.158  1.00 21.69 LIG-0.25  NA
ATOM     26  CD2 HIS A 388     -28.524 -25.936  14.798  1.00 21.19 LIG 0.14  A 
ENDBRANCH 21 22
ENDBRANCH 1 21
BRANCH 1 27
ATOM     27  C   HIS A 388     -25.007 -26.326  13.605  1.00 15.45 LIG 0.24  C 
ATOM     28 O    HIS A 388     -24.479 -25.457  14.280  1.00 14.42 LIG-0.27  OA
ATOM     29  N   GLY A 389     -24.739 -27.625  13.779  1.00 14.00 LIG-0.35  N 
ATOM     30 H    GLY A 389     -25.110 -28.260  13.332  1.00 14.00 LIG 0.16  HD
BRANCH 29 31
ATOM     31  CA  GLY A 389     -23.763 -28.072  14.773  1.00 13.01 LIG 0.23  C 
BRANCH 31 32
ATOM     32  C   GLY A 389     -24.357 -28.202  16.159  1.00 11.92 LIG 0.24  C 
ATOM     33 O    GLY A 389     -25.581 -28.416  16.334  1.00 12.61 LIG-0.27  OA
ATOM     34  N   ALA A 390     -23.500 -28.108  17.159  1.00 10.53 LIG-0.35  N 
ATOM     35 H    ALA A 390     -22.652 -28.020  17.051  1.00 10.53 LIG 0.16  HD
BRANCH 34 36
ATOM     36  CA  ALA A 390     -23.919 -28.147  18.563  1.00 11.53 LIG 0.17  C 
ATOM     37  CB  ALA A 390     -22.739 -27.814  19.450  1.00 11.91 LIG 0.04  C 
BRANCH 36 38
ATOM     38  C   ALA A 390     -25.057 -27.136  18.811  1.00 13.11 LIG 0.24  C 
ATOM     39  N   GLU A 391     -26.036 -27.575  19.589  1.00 14.39 LIG-0.34  N 
ATOM     40 H    GLU A 391     -26.034 -28.350  19.963  1.00 14.39 LIG 0.16  HD
ATOM     41 O    ALA A 390     -25.081 -26.020  18.276  1.00 12.73 LIG-0.27  OA
BRANCH 39 42
ATOM     42  CA  GLU A 391     -27.203 -26.790  19.881  1.00 15.60 LIG 0.19  C 
BRANCH 42 43
ATOM     43  CB  GLU A 391     -28.443 -27.524  19.362  1.00 17.03 LIG 0.05  C 
BRANCH 43 44
ATOM     44  CG  GLU A 391     -29.659 -26.666  19.148  1.00 23.68 LIG 0.12  C 
BRANCH 44 45
ATOM     45  CD  GLU A 391     -30.929 -27.413  19.550  1.00 29.63 LIG 0.17  C 
ATOM     46 OE1  GLU A 391     -30.917 -28.041  20.652  1.00 31.73 LIG-0.65  OA
ATOM     47 OE2  GLU A 391     -31.893 -27.412  18.737  1.00 33.20 LIG-0.65  OA
ENDBRANCH 44 45
ENDBRANCH 43 44
ENDBRANCH 42 43
BRANCH 42 48
ATOM     48  C   GLU A 391     -27.269 -26.621  21.396  1.00 14.85 LIG 0.20  C 
ATOM     49 OXT  GLU A 391     -28.193 -25.997  21.898  1.00 14.73 LIG-0.65  OA
ATOM     50 O    GLU A 391     -26.387 -27.094  22.115  1.00 14.85 LIG-0.65  OA
ENDBRANCH 42 48
ENDBRANCH 39 42
ENDBRANCH 36 38
ENDBRANCH 34 36
ENDBRANCH 31 32
ENDBRANCH 29 31
ENDBRANCH 1 27
TORSDOF 20
ENDMDL
MODEL 12
USER: ADFR SOLUTION from run 171
USER: SCORE 15.863391 LL:  -2.587 LR: -14.005 RR:   0.000 FEB:  -8.039
USER: RMSD 2.210692
USER: SEED 170
USER: STATUS no improvement in best in 7 clusters for 5 generations
USER: GENES 22
USER: genes 0 Translation |==|  0.62026 0.57615 0.34325
USER: genes 1 Rotation |==|  0.50148 0.46946 0.59436 0.99006
USER: genes 2 Torsion [C]-CA--N-[C] |==|  0.64703
USER: genes 3 Torsion [N]-C--CA-[N] |==|  0.34172
USER: genes 4 Torsion [C]-CA--N-[C] |==|  0.82149
USER: genes 5 Torsion [N]-C--CA-[N] |==|  0.43321
USER: genes 6 Torsion [C]-CA--CB-[CG2] |==|  0.89379
USER: genes 7 Torsion [CA]-CB--OG1-[HG1] |==|  0.37277
USER: genes 8 Torsion [C]-CA--CB-[CG] |==|  0.80039
USER: genes 9 Torsion [CA]-CB--CG-[OD2] |==|  0.40740
USER: genes 10 Torsion [N]-CA--CB-[CG] |==|  0.67807
USER: genes 11 Torsion [CA]-CB--CG-[ND1] |==|  0.97355
USER: genes 12 Torsion [N]-CA--C-[N] |==|  0.05014
USER: genes 13 Torsion [C]-N--CA-[C] |==|  0.28170
USER: genes 14 Torsion [N]-CA--C-[N] |==|  0.48278
USER: genes 15 Torsion [C]-N--CA-[CB] |==|  0.53980
USER: genes 16 Torsion [N]-CA--C-[N] |==|  0.40283
USER: genes 17 Torsion [C]-N--CA-[CB] |==|  0.29668
USER: genes 18 Torsion [N]-CA--CB-[CG] |==|  0.22246
USER: genes 19 Torsion [CA]-CB--CG-[CD] |==|  0.35714
USER: genes 20 Torsion [CB]-CG--CD-[OE1] |==|  0.08955
USER: genes 21 Torsion [N]-CA--C-[OXT] |==|  0.53538
ROOT
ATOM      1  CA  HIS A 388     -26.359 -26.183  11.740  1.00 17.64 LIG 0.18  C 
ENDROOT
BRANCH 1 2
ATOM      2  N   HIS A 388     -27.045 -27.476  11.722  1.00 19.60 LIG-0.35  N 
ATOM      3 H    HIS A 388     -27.397 -27.698  12.474  1.00 19.60 LIG 0.16  HD
ATOM      4  C   ASP A 387     -27.109 -28.232  10.624  1.00 22.66 LIG 0.24  C 
ATOM      5 O    ASP A 387     -26.617 -27.888   9.546  1.00 22.02 LIG-0.27  OA
BRANCH 4 6
ATOM      6  CA  ASP A 387     -27.853 -29.558  10.746  1.00 25.57 LIG 0.19  C 
BRANCH 6 7
ATOM      7  N   ASP A 387     -28.918 -29.527   9.723  1.00 28.40 LIG-0.34  N 
ATOM      8 H    ASP A 387     -28.832 -30.120   9.107  1.00 28.40 LIG 0.16  HD
ATOM      9  C   THR A 386     -29.925 -28.640   9.768  1.00 31.30 LIG 0.26  C 
ATOM     10 O    THR A 386     -30.282 -28.080  10.823  1.00 31.60 LIG-0.27  OA
BRANCH 9 11
ATOM     11  CA  THR A 386     -30.694 -28.351   8.454  1.00 33.11 LIG 0.43  C 
ATOM     12  N   THR A 386     -32.082 -27.840   8.662  1.00 33.83 LIG 0.62  N 
BRANCH 11 13
ATOM     13  CB  THR A 386     -29.882 -27.411   7.517  1.00 33.77 LIG 0.16  C 
ATOM     14  CG2 THR A 386     -29.137 -26.323   8.298  1.00 34.60 LIG 0.04  C 
BRANCH 13 15
ATOM     15 OG1  THR A 386     -28.850 -28.145   6.840  1.00 35.18 LIG-0.39  OA
ATOM     16 HG1  THR A 386     -28.849 -27.940   6.025  1.00 35.18 LIG 0.21  HD
ENDBRANCH 13 15
ENDBRANCH 11 13
ENDBRANCH 9 11
ENDBRANCH 6 7
BRANCH 6 17
ATOM     17  CB  ASP A 387     -26.871 -30.744  10.536  1.00 25.68 LIG 0.15  C 
BRANCH 17 18
ATOM     18  CG  ASP A 387     -26.410 -30.901   9.071  1.00 25.80 LIG 0.17  C 
ATOM     19 OD2  ASP A 387     -25.266 -31.310   8.769  1.00 26.75 LIG-0.65  OA
ATOM     20 OD1  ASP A 387     -27.180 -30.625   8.110  1.00 21.65 LIG-0.65  OA
ENDBRANCH 17 18
ENDBRANCH 6 17
ENDBRANCH 4 6
ENDBRANCH 1 2
BRANCH 1 21
ATOM     21  CB  HIS A 388     -27.335 -24.985  11.918  1.00 17.51 LIG 0.10  C 
BRANCH 21 22
ATOM     22  CG  HIS A 388     -27.399 -24.031  10.750  1.00 19.36 LIG 0.06  A 
ATOM     23 ND1  HIS A 388     -26.527 -24.079   9.687  1.00 21.21 LIG-0.24  NA
ATOM     24  CE1 HIS A 388     -26.836 -23.133   8.817  1.00 22.16 LIG 0.23  A 
ATOM     25 NE2  HIS A 388     -27.863 -22.451   9.288  1.00 21.69 LIG-0.25  NA
ATOM     26  CD2 HIS A 388     -28.230 -22.989  10.499  1.00 21.19 LIG 0.14  A 
ENDBRANCH 21 22
ENDBRANCH 1 21
BRANCH 1 27
ATOM     27  C   HIS A 388     -25.345 -26.159  12.892  1.00 15.45 LIG 0.24  C 
ATOM     28 O    HIS A 388     -24.905 -25.090  13.282  1.00 14.42 LIG-0.27  OA
ATOM     29  N   GLY A 389     -24.964 -27.325  13.429  1.00 14.00 LIG-0.35  N 
ATOM     30 H    GLY A 389     -25.273 -28.091  13.189  1.00 14.00 LIG 0.16  HD
BRANCH 29 31
ATOM     31  CA  GLY A 389     -23.965 -27.378  14.496  1.00 13.01 LIG 0.23  C 
BRANCH 31 32
ATOM     32  C   GLY A 389     -24.579 -27.567  15.866  1.00 11.92 LIG 0.24  C 
ATOM     33 O    GLY A 389     -25.822 -27.578  16.034  1.00 12.61 LIG-0.27  OA
ATOM     34  N   ALA A 390     -23.724 -27.751  16.855  1.00 10.53 LIG-0.35  N 
ATOM     35 H    ALA A 390     -22.873 -27.803  16.743  1.00 10.53 LIG 0.16  HD
BRANCH 34 36
ATOM     36  CA  ALA A 390     -24.150 -27.884  18.250  1.00 11.53 LIG 0.17  C 
ATOM     37  CB  ALA A 390     -22.951 -27.727  19.160  1.00 11.91 LIG 0.04  C 
BRANCH 36 38
ATOM     38  C   ALA A 390     -25.205 -26.813  18.594  1.00 13.11 LIG 0.24  C 
ATOM     39  N   GLU A 391     -26.144 -27.205  19.443  1.00 14.39 LIG-0.34  N 
ATOM     40 H    GLU A 391     -26.157 -27.982  19.810  1.00 14.39 LIG 0.16  HD
ATOM     41 O    ALA A 390     -25.206 -25.692  18.071  1.00 12.73 LIG-0.27  OA
BRANCH 39 42
ATOM     42  CA  GLU A 391     -27.237 -26.358  19.831  1.00 15.60 LIG 0.19  C 
BRANCH 42 43
ATOM     43  CB  GLU A 391     -28.520 -26.854  19.155  1.00 17.03 LIG 0.05  C 
BRANCH 43 44
ATOM     44  CG  GLU A 391     -29.184 -28.031  19.816  1.00 23.68 LIG 0.12  C 
BRANCH 44 45
ATOM     45  CD  GLU A 391     -30.664 -27.748  20.066  1.00 29.63 LIG 0.17  C 
ATOM     46 OE1  GLU A 391     -31.268 -27.004  19.236  1.00 31.73 LIG-0.65  OA
ATOM     47 OE2  GLU A 391     -31.182 -28.223  21.114  1.00 33.20 LIG-0.65  OA
ENDBRANCH 44 45
ENDBRANCH 43 44
ENDBRANCH 42 43
BRANCH 42 48
ATOM     48  C   GLU A 391     -27.360 -26.441  21.350  1.00 14.85 LIG 0.20  C 
ATOM     49 OXT  GLU A 391     -28.356 -25.997  21.904  1.00 14.73 LIG-0.65  OA
ATOM     50 O    GLU A 391     -26.454 -26.936  22.021  1.00 14.85 LIG-0.65  OA
ENDBRANCH 42 48
ENDBRANCH 39 42
ENDBRANCH 36 38
ENDBRANCH 34 36
ENDBRANCH 31 32
ENDBRANCH 29 31
ENDBRANCH 1 27
TORSDOF 20
ENDMDL
MODEL 13
USER: ADFR SOLUTION from run 45
USER: SCORE 16.504115 LL:  -3.706 LR: -13.999 RR:   0.000 FEB:  -8.033
USER: RMSD 2.697094
USER: SEED 44
USER: STATUS no improvement in best in 7 clusters for 5 generations
USER: GENES 22
USER: genes 0 Translation |==|  0.67201 0.52921 0.40466
USER: genes 1 Rotation |==|  0.49784 0.48130 0.45168 0.99730
USER: genes 2 Torsion [C]-CA--N-[C] |==|  0.60697
USER: genes 3 Torsion [N]-C--CA-[N] |==|  0.35097
USER: genes 4 Torsion [C]-CA--N-[C] |==|  0.81228
USER: genes 5 Torsion [N]-C--CA-[N] |==|  0.40085
USER: genes 6 Torsion [C]-CA--CB-[CG2] |==|  0.87650
USER: genes 7 Torsion [CA]-CB--OG1-[HG1] |==|  0.93684
USER: genes 8 Torsion [C]-CA--CB-[CG] |==|  0.19681
USER: genes 9 Torsion [CA]-CB--CG-[OD2] |==|  0.94059
USER: genes 10 Torsion [N]-CA--CB-[CG] |==|  0.13742
USER: genes 11 Torsion [CA]-CB--CG-[ND1] |==|  0.73974
USER: genes 12 Torsion [N]-CA--C-[N] |==|  0.09561
USER: genes 13 Torsion [C]-N--CA-[C] |==|  0.20000
USER: genes 14 Torsion [N]-CA--C-[N] |==|  0.65486
USER: genes 15 Torsion [C]-N--CA-[CB] |==|  0.51129
USER: genes 16 Torsion [N]-CA--C-[N] |==|  0.38183
USER: genes 17 Torsion [C]-N--CA-[CB] |==|  0.18657
USER: genes 18 Torsion [N]-CA--CB-[CG] |==|  0.52483
USER: genes 19 Torsion [CA]-CB--CG-[CD] |==|  0.62610
USER: genes 20 Torsion [CB]-CG--CD-[OE1] |==|  0.21659
USER: genes 21 Torsion [N]-CA--C-[OXT] |==|  0.49851
ROOT
ATOM      1  CA  HIS A 388     -25.350 -26.993  13.075  1.00 17.64 LIG 0.18  C 
ENDROOT
BRANCH 1 2
ATOM      2  N   HIS A 388     -26.627 -27.706  13.094  1.00 19.60 LIG-0.35  N 
ATOM      3 H    HIS A 388     -26.916 -27.892  13.882  1.00 19.60 LIG 0.16  HD
ATOM      4  C   ASP A 387     -27.275 -28.034  11.974  1.00 22.66 LIG 0.24  C 
ATOM      5 O    ASP A 387     -26.857 -27.741  10.850  1.00 22.02 LIG-0.27  OA
BRANCH 4 6
ATOM      6  CA  ASP A 387     -28.596 -28.780  12.138  1.00 25.57 LIG 0.19  C 
BRANCH 6 7
ATOM      7  N   ASP A 387     -29.599 -28.007  11.378  1.00 28.40 LIG-0.34  N 
ATOM      8 H    ASP A 387     -29.902 -28.411  10.682  1.00 28.40 LIG 0.16  HD
ATOM      9  C   THR A 386     -29.993 -26.780  11.756  1.00 31.30 LIG 0.26  C 
ATOM     10 O    THR A 386     -29.888 -26.372  12.929  1.00 31.60 LIG-0.27  OA
BRANCH 9 11
ATOM     11  CA  THR A 386     -30.645 -25.867  10.687  1.00 33.11 LIG 0.43  C 
ATOM     12  N   THR A 386     -31.739 -24.998  11.216  1.00 33.83 LIG 0.62  N 
BRANCH 11 13
ATOM     13  CB  THR A 386     -29.576 -25.029   9.928  1.00 33.77 LIG 0.16  C 
ATOM     14  CG2 THR A 386     -28.540 -24.421  10.879  1.00 34.60 LIG 0.04  C 
BRANCH 13 15
ATOM     15 OG1  THR A 386     -28.814 -25.868   9.046  1.00 35.18 LIG-0.39  OA
ATOM     16 HG1  THR A 386     -28.856 -26.664   9.311  1.00 35.18 LIG 0.21  HD
ENDBRANCH 13 15
ENDBRANCH 11 13
ENDBRANCH 9 11
ENDBRANCH 6 7
BRANCH 6 17
ATOM     17  CB  ASP A 387     -28.456 -30.237  11.616  1.00 25.68 LIG 0.15  C 
BRANCH 17 18
ATOM     18  CG  ASP A 387     -27.579 -31.127  12.522  1.00 25.80 LIG 0.17  C 
ATOM     19 OD2  ASP A 387     -26.742 -30.648  13.322  1.00 26.75 LIG-0.65  OA
ATOM     20 OD1  ASP A 387     -27.676 -32.385  12.497  1.00 21.65 LIG-0.65  OA
ENDBRANCH 17 18
ENDBRANCH 6 17
ENDBRANCH 4 6
ENDBRANCH 1 2
BRANCH 1 21
ATOM     21  CB  HIS A 388     -25.511 -25.462  13.298  1.00 17.51 LIG 0.10  C 
BRANCH 21 22
ATOM     22  CG  HIS A 388     -26.365 -25.072  14.480  1.00 19.36 LIG 0.06  A 
ATOM     23 ND1  HIS A 388     -27.711 -24.806  14.384  1.00 21.21 LIG-0.24  NA
ATOM     24  CE1 HIS A 388     -28.191 -24.507  15.578  1.00 22.16 LIG 0.23  A 
ATOM     25 NE2  HIS A 388     -27.198 -24.541  16.448  1.00 21.69 LIG-0.25  NA
ATOM     26  CD2 HIS A 388     -26.045 -24.886  15.785  1.00 21.19 LIG 0.14  A 
ENDBRANCH 21 22
ENDBRANCH 1 21
BRANCH 1 27
ATOM     27  C   HIS A 388     -24.438 -27.551  14.177  1.00 15.45 LIG 0.24  C 
ATOM     28 O    HIS A 388     -23.666 -26.801  14.753  1.00 14.42 LIG-0.27  OA
ATOM     29  N   GLY A 389     -24.512 -28.856  14.465  1.00 14.00 LIG-0.35  N 
ATOM     30 H    GLY A 389     -25.060 -29.403  14.091  1.00 14.00 LIG 0.16  HD
BRANCH 29 31
ATOM     31  CA  GLY A 389     -23.637 -29.462  15.468  1.00 13.01 LIG 0.23  C 
BRANCH 31 32
ATOM     32  C   GLY A 389     -24.001 -29.063  16.882  1.00 11.92 LIG 0.24  C 
ATOM     33 O    GLY A 389     -25.146 -29.273  17.350  1.00 12.61 LIG-0.27  OA
ATOM     34  N   ALA A 390     -23.030 -28.516  17.589  1.00 10.53 LIG-0.35  N 
ATOM     35 H    ALA A 390     -22.227 -28.421  17.298  1.00 10.53 LIG 0.16  HD
BRANCH 34 36
ATOM     36  CA  ALA A 390     -23.234 -28.014  18.950  1.00 11.53 LIG 0.17  C 
ATOM     37  CB  ALA A 390     -21.960 -27.361  19.442  1.00 11.91 LIG 0.04  C 
BRANCH 36 38
ATOM     38  C   ALA A 390     -24.387 -26.991  18.979  1.00 13.11 LIG 0.24  C 
ATOM     39  N   GLU A 391     -25.220 -27.113  20.002  1.00 14.39 LIG-0.34  N 
ATOM     40 H    GLU A 391     -25.118 -27.693  20.629  1.00 14.39 LIG 0.16  HD
ATOM     41 O    ALA A 390     -24.552 -26.154  18.082  1.00 12.73 LIG-0.27  OA
BRANCH 39 42
ATOM     42  CA  GLU A 391     -26.381 -26.282  20.158  1.00 15.60 LIG 0.19  C 
BRANCH 42 43
ATOM     43  CB  GLU A 391     -27.380 -26.603  19.041  1.00 17.03 LIG 0.05  C 
BRANCH 43 44
ATOM     44  CG  GLU A 391     -28.557 -25.672  18.941  1.00 23.68 LIG 0.12  C 
BRANCH 44 45
ATOM     45  CD  GLU A 391     -29.855 -26.457  18.766  1.00 29.63 LIG 0.17  C 
ATOM     46 OE1  GLU A 391     -30.358 -26.998  19.797  1.00 31.73 LIG-0.65  OA
ATOM     47 OE2  GLU A 391     -30.320 -26.571  17.598  1.00 33.20 LIG-0.65  OA
ENDBRANCH 44 45
ENDBRANCH 43 44
ENDBRANCH 42 43
BRANCH 42 48
ATOM     48  C   GLU A 391     -26.981 -26.592  21.526  1.00 14.85 LIG 0.20  C 
ATOM     49 OXT  GLU A 391     -27.983 -25.997  21.898  1.00 14.73 LIG-0.65  OA
ATOM     50 O    GLU A 391     -26.452 -27.424  22.264  1.00 14.85 LIG-0.65  OA
ENDBRANCH 42 48
ENDBRANCH 39 42
ENDBRANCH 36 38
ENDBRANCH 34 36
ENDBRANCH 31 32
ENDBRANCH 29 31
ENDBRANCH 1 27
TORSDOF 20
ENDMDL
MODEL 14
USER: ADFR SOLUTION from run 32
USER: SCORE 16.681493 LL:  -3.629 LR: -13.906 RR:   0.000 FEB:  -7.940
USER: RMSD 2.265136
USER: SEED 31
USER: STATUS no improvement in best in 5 clusters for 5 generations
USER: GENES 22
USER: genes 0 Translation |==|  0.65400 0.55138 0.38573
USER: genes 1 Rotation |==|  0.56225 0.46419 0.54909 0.99237
USER: genes 2 Torsion [C]-CA--N-[C] |==|  0.62819
USER: genes 3 Torsion [N]-C--CA-[N] |==|  0.38308
USER: genes 4 Torsion [C]-CA--N-[C] |==|  0.84406
USER: genes 5 Torsion [N]-C--CA-[N] |==|  0.31666
USER: genes 6 Torsion [C]-CA--CB-[CG2] |==|  0.12858
USER: genes 7 Torsion [CA]-CB--OG1-[HG1] |==|  0.42706
USER: genes 8 Torsion [C]-CA--CB-[CG] |==|  0.79374
USER: genes 9 Torsion [CA]-CB--CG-[OD2] |==|  0.48003
USER: genes 10 Torsion [N]-CA--CB-[CG] |==|  0.75818
USER: genes 11 Torsion [CA]-CB--CG-[ND1] |==|  0.81715
USER: genes 12 Torsion [N]-CA--C-[N] |==|  0.03298
USER: genes 13 Torsion [C]-N--CA-[C] |==|  0.22127
USER: genes 14 Torsion [N]-CA--C-[N] |==|  0.59506
USER: genes 15 Torsion [C]-N--CA-[CB] |==|  0.52309
USER: genes 16 Torsion [N]-CA--C-[N] |==|  0.40000
USER: genes 17 Torsion [C]-N--CA-[CB] |==|  0.19870
USER: genes 18 Torsion [N]-CA--CB-[CG] |==|  0.66323
USER: genes 19 Torsion [CA]-CB--CG-[CD] |==|  0.31546
USER: genes 20 Torsion [CB]-CG--CD-[OE1] |==|  0.10224
USER: genes 21 Torsion [N]-CA--C-[OXT] |==|  0.51334
ROOT
ATOM      1  CA  HIS A 388     -25.701 -26.611  12.664  1.00 17.64 LIG 0.18  C 
ENDROOT
BRANCH 1 2
ATOM      2  N   HIS A 388     -26.592 -27.730  12.358  1.00 19.60 LIG-0.35  N 
ATOM      3 H    HIS A 388     -26.900 -28.135  13.052  1.00 19.60 LIG 0.16  HD
ATOM      4  C   ASP A 387     -26.890 -28.081  11.105  1.00 22.66 LIG 0.24  C 
ATOM      5 O    ASP A 387     -26.456 -27.476  10.120  1.00 22.02 LIG-0.27  OA
BRANCH 4 6
ATOM      6  CA  ASP A 387     -27.829 -29.270  10.929  1.00 25.57 LIG 0.19  C 
BRANCH 6 7
ATOM      7  N   ASP A 387     -28.765 -28.896   9.850  1.00 28.40 LIG-0.34  N 
ATOM      8 H    ASP A 387     -28.782 -29.449   9.191  1.00 28.40 LIG 0.16  HD
ATOM      9  C   THR A 386     -29.516 -27.785   9.909  1.00 31.30 LIG 0.26  C 
ATOM     10 O    THR A 386     -29.804 -27.223  10.983  1.00 31.60 LIG-0.27  OA
BRANCH 9 11
ATOM     11  CA  THR A 386     -30.078 -27.220   8.579  1.00 33.11 LIG 0.43  C 
ATOM     12  N   THR A 386     -31.567 -27.285   8.473  1.00 33.83 LIG 0.62  N 
BRANCH 11 13
ATOM     13  CB  THR A 386     -29.556 -25.779   8.309  1.00 33.77 LIG 0.16  C 
ATOM     14  CG2 THR A 386     -28.046 -25.661   8.542  1.00 34.60 LIG 0.04  C 
BRANCH 13 15
ATOM     15 OG1  THR A 386     -29.742 -25.428   6.930  1.00 35.18 LIG-0.39  OA
ATOM     16 HG1  THR A 386     -29.806 -24.593   6.859  1.00 35.18 LIG 0.21  HD
ENDBRANCH 13 15
ENDBRANCH 11 13
ENDBRANCH 9 11
ENDBRANCH 6 7
BRANCH 6 17
ATOM     17  CB  ASP A 387     -27.016 -30.548  10.586  1.00 25.68 LIG 0.15  C 
BRANCH 17 18
ATOM     18  CG  ASP A 387     -26.483 -30.560   9.137  1.00 25.80 LIG 0.17  C 
ATOM     19 OD2  ASP A 387     -25.698 -31.442   8.720  1.00 26.75 LIG-0.65  OA
ATOM     20 OD1  ASP A 387     -26.826 -29.674   8.306  1.00 21.65 LIG-0.65  OA
ENDBRANCH 17 18
ENDBRANCH 6 17
ENDBRANCH 4 6
ENDBRANCH 1 2
BRANCH 1 21
ATOM     21  CB  HIS A 388     -26.464 -25.357  13.179  1.00 17.51 LIG 0.10  C 
BRANCH 21 22
ATOM     22  CG  HIS A 388     -26.966 -24.423  12.103  1.00 19.36 LIG 0.06  A 
ATOM     23 ND1  HIS A 388     -26.131 -23.707  11.277  1.00 21.21 LIG-0.24  NA
ATOM     24  CE1 HIS A 388     -26.852 -22.992  10.431  1.00 22.16 LIG 0.23  A 
ATOM     25 NE2  HIS A 388     -28.129 -23.195  10.695  1.00 21.69 LIG-0.25  NA
ATOM     26  CD2 HIS A 388     -28.227 -24.082  11.741  1.00 21.19 LIG 0.14  A 
ENDBRANCH 21 22
ENDBRANCH 1 21
BRANCH 1 27
ATOM     27  C   HIS A 388     -24.691 -27.040  13.737  1.00 15.45 LIG 0.24  C 
ATOM     28 O    HIS A 388     -23.997 -26.196  14.279  1.00 14.42 LIG-0.27  OA
ATOM     29  N   GLY A 389     -24.597 -28.341  14.038  1.00 14.00 LIG-0.35  N 
ATOM     30 H    GLY A 389     -25.087 -28.955  13.688  1.00 14.00 LIG 0.16  HD
BRANCH 29 31
ATOM     31  CA  GLY A 389     -23.621 -28.825  15.015  1.00 13.01 LIG 0.23  C 
BRANCH 31 32
ATOM     32  C   GLY A 389     -24.071 -28.619  16.445  1.00 11.92 LIG 0.24  C 
ATOM     33 O    GLY A 389     -25.276 -28.731  16.778  1.00 12.61 LIG-0.27  OA
ATOM     34  N   ALA A 390     -23.114 -28.349  17.312  1.00 10.53 LIG-0.35  N 
ATOM     35 H    ALA A 390     -22.279 -28.327  17.106  1.00 10.53 LIG 0.16  HD
BRANCH 34 36
ATOM     36  CA  ALA A 390     -23.386 -28.058  18.722  1.00 11.53 LIG 0.17  C 
ATOM     37  CB  ALA A 390     -22.114 -27.593  19.396  1.00 11.91 LIG 0.04  C 
BRANCH 36 38
ATOM     38  C   ALA A 390     -24.468 -26.966  18.845  1.00 13.11 LIG 0.24  C 
ATOM     39  N   GLU A 391     -25.302 -27.116  19.864  1.00 14.39 LIG-0.34  N 
ATOM     40 H    GLU A 391     -25.236 -27.750  20.441  1.00 14.39 LIG 0.16  HD
ATOM     41 O    ALA A 390     -24.582 -26.050  18.020  1.00 12.73 LIG-0.27  OA
BRANCH 39 42
ATOM     42  CA  GLU A 391     -26.404 -26.225  20.099  1.00 15.60 LIG 0.19  C 
BRANCH 42 43
ATOM     43  CB  GLU A 391     -27.478 -26.464  19.032  1.00 17.03 LIG 0.05  C 
BRANCH 43 44
ATOM     44  CG  GLU A 391     -27.832 -25.268  18.193  1.00 23.68 LIG 0.12  C 
BRANCH 44 45
ATOM     45  CD  GLU A 391     -27.409 -25.480  16.741  1.00 29.63 LIG 0.17  C 
ATOM     46 OE1  GLU A 391     -27.526 -26.647  16.259  1.00 31.73 LIG-0.65  OA
ATOM     47 OE2  GLU A 391     -26.914 -24.497  16.124  1.00 33.20 LIG-0.65  OA
ENDBRANCH 44 45
ENDBRANCH 43 44
ENDBRANCH 42 43
BRANCH 42 48
ATOM     48  C   GLU A 391     -26.948 -26.532  21.491  1.00 14.85 LIG 0.20  C 
ATOM     49 OXT  GLU A 391     -27.952 -25.960  21.891  1.00 14.73 LIG-0.65  OA
ATOM     50 O    GLU A 391     -26.370 -27.338  22.221  1.00 14.85 LIG-0.65  OA
ENDBRANCH 42 48
ENDBRANCH 39 42
ENDBRANCH 36 38
ENDBRANCH 34 36
ENDBRANCH 31 32
ENDBRANCH 29 31
ENDBRANCH 1 27
TORSDOF 20
ENDMDL
MODEL 15
USER: ADFR SOLUTION from run 121
USER: SCORE 16.806801 LL:  -3.915 LR: -13.886 RR:   0.000 FEB:  -7.920
USER: RMSD 3.158081
USER: SEED 120
USER: STATUS no improvement in best in 5 clusters for 5 generations
USER: GENES 22
USER: genes 0 Translation |==|  0.64484 0.62860 0.29174
USER: genes 1 Rotation |==|  0.41411 0.46095 0.55751 0.98764
USER: genes 2 Torsion [C]-CA--N-[C] |==|  0.66115
USER: genes 3 Torsion [N]-C--CA-[N] |==|  0.02777
USER: genes 4 Torsion [C]-CA--N-[C] |==|  0.76461
USER: genes 5 Torsion [N]-C--CA-[N] |==|  0.43842
USER: genes 6 Torsion [C]-CA--CB-[CG2] |==|  0.28568
USER: genes 7 Torsion [CA]-CB--OG1-[HG1] |==|  0.62549
USER: genes 8 Torsion [C]-CA--CB-[CG] |==|  0.23998
USER: genes 9 Torsion [CA]-CB--CG-[OD2] |==|  0.89805
USER: genes 10 Torsion [N]-CA--CB-[CG] |==|  0.67252
USER: genes 11 Torsion [CA]-CB--CG-[ND1] |==|  0.42813
USER: genes 12 Torsion [N]-CA--C-[N] |==|  0.00442
USER: genes 13 Torsion [C]-N--CA-[C] |==|  0.43570
USER: genes 14 Torsion [N]-CA--C-[N] |==|  0.44857
USER: genes 15 Torsion [C]-N--CA-[CB] |==|  0.50000
USER: genes 16 Torsion [N]-CA--C-[N] |==|  0.45164
USER: genes 17 Torsion [C]-N--CA-[CB] |==|  0.22400
USER: genes 18 Torsion [N]-CA--CB-[CG] |==|  0.19712
USER: genes 19 Torsion [CA]-CB--CG-[CD] |==|  0.47446
USER: genes 20 Torsion [CB]-CG--CD-[OE1] |==|  0.66075
USER: genes 21 Torsion [N]-CA--C-[OXT] |==|  0.55975
ROOT
ATOM      1  CA  HIS A 388     -25.880 -25.279  10.619  1.00 17.64 LIG 0.18  C 
ENDROOT
BRANCH 1 2
ATOM      2  N   HIS A 388     -26.781 -26.391  10.922  1.00 19.60 LIG-0.35  N 
ATOM      3 H    HIS A 388     -27.269 -26.269  11.619  1.00 19.60 LIG 0.16  HD
ATOM      4  C   ASP A 387     -26.828 -27.492  10.170  1.00 22.66 LIG 0.24  C 
ATOM      5 O    ASP A 387     -26.135 -27.643   9.160  1.00 22.02 LIG-0.27  OA
BRANCH 4 6
ATOM      6  CA  ASP A 387     -27.811 -28.577  10.601  1.00 25.57 LIG 0.19  C 
BRANCH 6 7
ATOM      7  N   ASP A 387     -28.649 -27.973  11.658  1.00 28.40 LIG-0.34  N 
ATOM      8 H    ASP A 387     -29.392 -27.647  11.374  1.00 28.40 LIG 0.16  HD
ATOM      9  C   THR A 386     -28.266 -27.947  12.944  1.00 31.30 LIG 0.26  C 
ATOM     10 O    THR A 386     -27.434 -28.746  13.416  1.00 31.60 LIG-0.27  OA
BRANCH 9 11
ATOM     11  CA  THR A 386     -28.933 -26.903  13.876  1.00 33.11 LIG 0.43  C 
ATOM     12  N   THR A 386     -28.869 -27.255  15.327  1.00 33.83 LIG 0.62  N 
BRANCH 11 13
ATOM     13  CB  THR A 386     -28.376 -25.474  13.618  1.00 33.77 LIG 0.16  C 
ATOM     14  CG2 THR A 386     -29.347 -24.616  12.800  1.00 34.60 LIG 0.04  C 
BRANCH 13 15
ATOM     15 OG1  THR A 386     -28.217 -24.765  14.857  1.00 35.18 LIG-0.39  OA
ATOM     16 HG1  THR A 386     -28.520 -23.986  14.775  1.00 35.18 LIG 0.21  HD
ENDBRANCH 13 15
ENDBRANCH 11 13
ENDBRANCH 9 11
ENDBRANCH 6 7
BRANCH 6 17
ATOM     17  CB  ASP A 387     -28.652 -29.052   9.384  1.00 25.68 LIG 0.15  C 
BRANCH 17 18
ATOM     18  CG  ASP A 387     -27.967 -30.173   8.572  1.00 25.80 LIG 0.17  C 
ATOM     19 OD2  ASP A 387     -26.728 -30.205   8.389  1.00 26.75 LIG-0.65  OA
ATOM     20 OD1  ASP A 387     -28.635 -31.113   8.061  1.00 21.65 LIG-0.65  OA
ENDBRANCH 17 18
ENDBRANCH 6 17
ENDBRANCH 4 6
ENDBRANCH 1 2
BRANCH 1 21
ATOM     21  CB  HIS A 388     -26.638 -23.961  10.291  1.00 17.51 LIG 0.10  C 
BRANCH 21 22
ATOM     22  CG  HIS A 388     -26.411 -23.420   8.899  1.00 19.36 LIG 0.06  A 
ATOM     23 ND1  HIS A 388     -27.320 -22.622   8.243  1.00 21.21 LIG-0.24  NA
ATOM     24  CE1 HIS A 388     -26.844 -22.293   7.055  1.00 22.16 LIG 0.23  A 
ATOM     25 NE2  HIS A 388     -25.668 -22.873   6.901  1.00 21.69 LIG-0.25  NA
ATOM     26  CD2 HIS A 388     -25.378 -23.588   8.038  1.00 21.19 LIG 0.14  A 
ENDBRANCH 21 22
ENDBRANCH 1 21
BRANCH 1 27
ATOM     27  C   HIS A 388     -24.962 -25.024  11.823  1.00 15.45 LIG 0.24  C 
ATOM     28 O    HIS A 388     -24.146 -24.118  11.774  1.00 14.42 LIG-0.27  OA
ATOM     29  N   GLY A 389     -25.080 -25.819  12.894  1.00 14.00 LIG-0.35  N 
ATOM     30 H    GLY A 389     -25.660 -26.450  12.965  1.00 14.00 LIG 0.16  HD
BRANCH 29 31
ATOM     31  CA  GLY A 389     -24.204 -25.664  14.054  1.00 13.01 LIG 0.23  C 
BRANCH 31 32
ATOM     32  C   GLY A 389     -24.808 -26.223  15.324  1.00 11.92 LIG 0.24  C 
ATOM     33 O    GLY A 389     -26.036 -26.465  15.417  1.00 12.61 LIG-0.27  OA
ATOM     34  N   ALA A 390     -23.958 -26.465  16.304  1.00 10.53 LIG-0.35  N 
ATOM     35 H    ALA A 390     -23.108 -26.358  16.232  1.00 10.53 LIG 0.16  HD
BRANCH 34 36
ATOM     36  CA  ALA A 390     -24.387 -26.945  17.620  1.00 11.53 LIG 0.17  C 
ATOM     37  CB  ALA A 390     -23.177 -27.123  18.511  1.00 11.91 LIG 0.04  C 
BRANCH 36 38
ATOM     38  C   ALA A 390     -25.364 -25.942  18.265  1.00 13.11 LIG 0.24  C 
ATOM     39  N   GLU A 391     -26.084 -26.426  19.266  1.00 14.39 LIG-0.34  N 
ATOM     40 H    GLU A 391     -25.999 -27.227  19.568  1.00 14.39 LIG 0.16  HD
ATOM     41 O    ALA A 390     -25.504 -24.788  17.841  1.00 12.73 LIG-0.27  OA
BRANCH 39 42
ATOM     42  CA  GLU A 391     -27.083 -25.650  19.947  1.00 15.60 LIG 0.19  C 
BRANCH 42 43
ATOM     43  CB  GLU A 391     -28.370 -25.651  19.115  1.00 17.03 LIG 0.05  C 
BRANCH 43 44
ATOM     44  CG  GLU A 391     -29.112 -26.958  19.077  1.00 23.68 LIG 0.12  C 
BRANCH 44 45
ATOM     45  CD  GLU A 391     -30.479 -26.785  18.417  1.00 29.63 LIG 0.17  C 
ATOM     46 OE1  GLU A 391     -31.503 -27.106  19.093  1.00 31.73 LIG-0.65  OA
ATOM     47 OE2  GLU A 391     -30.506 -26.391  17.218  1.00 33.20 LIG-0.65  OA
ENDBRANCH 44 45
ENDBRANCH 43 44
ENDBRANCH 42 43
BRANCH 42 48
ATOM     48  C   GLU A 391     -27.318 -26.302  21.306  1.00 14.85 LIG 0.20  C 
ATOM     49 OXT  GLU A 391     -28.362 -26.093  21.907  1.00 14.73 LIG-0.65  OA
ATOM     50 O    GLU A 391     -26.454 -27.022  21.809  1.00 14.85 LIG-0.65  OA
ENDBRANCH 42 48
ENDBRANCH 39 42
ENDBRANCH 36 38
ENDBRANCH 34 36
ENDBRANCH 31 32
ENDBRANCH 29 31
ENDBRANCH 1 27
TORSDOF 20
ENDMDL
MODEL 16
USER: ADFR SOLUTION from run 9
USER: SCORE 14.544954 LL:  -2.153 LR: -13.548 RR:   0.000 FEB:  -7.582
USER: RMSD 1.613451
USER: SEED 25355
USER: STATUS no improvement in best in 5 clusters for 5 generations
USER: GENES 22
USER: genes 0 Translation |==|  0.62980 0.60741 0.33611
USER: genes 1 Rotation |==|  0.42121 0.49981 0.50996 0.99365
USER: genes 2 Torsion [C]-CA--N-[C] |==|  0.70591
USER: genes 3 Torsion [N]-C--CA-[N] |==|  0.20853
USER: genes 4 Torsion [C]-CA--N-[C] |==|  0.79792
USER: genes 5 Torsion [N]-C--CA-[N] |==|  0.78621
USER: genes 6 Torsion [C]-CA--CB-[CG2] |==|  0.75547
USER: genes 7 Torsion [CA]-CB--OG1-[HG1] |==|  0.49796
USER: genes 8 Torsion [C]-CA--CB-[CG] |==|  0.23426
USER: genes 9 Torsion [CA]-CB--CG-[OD2] |==|  0.93075
USER: genes 10 Torsion [N]-CA--CB-[CG] |==|  0.68101
USER: genes 11 Torsion [CA]-CB--CG-[ND1] |==|  0.96647
USER: genes 12 Torsion [N]-CA--C-[N] |==|  0.03174
USER: genes 13 Torsion [C]-N--CA-[C] |==|  0.40213
USER: genes 14 Torsion [N]-CA--C-[N] |==|  0.48597
USER: genes 15 Torsion [C]-N--CA-[CB] |==|  0.53596
USER: genes 16 Torsion [N]-CA--C-[N] |==|  0.36673
USER: genes 17 Torsion [C]-N--CA-[CB] |==|  0.35864
USER: genes 18 Torsion [N]-CA--CB-[CG] |==|  0.54539
USER: genes 19 Torsion [CA]-CB--CG-[CD] |==|  0.59486
USER: genes 20 Torsion [CB]-CG--CD-[OE1] |==|  0.15075
USER: genes 21 Torsion [N]-CA--C-[OXT] |==|  0.52356
ROOT
ATOM      1  CA  HIS A 388     -26.173 -25.644  11.584  1.00 17.64 LIG 0.18  C 
ENDROOT
BRANCH 1 2
ATOM      2  N   HIS A 388     -27.248 -26.555  11.981  1.00 19.60 LIG-0.35  N 
ATOM      3 H    HIS A 388     -27.752 -26.252  12.608  1.00 19.60 LIG 0.16  HD
ATOM      4  C   ASP A 387     -27.416 -27.748  11.409  1.00 22.66 LIG 0.24  C 
ATOM      5 O    ASP A 387     -26.694 -28.159  10.495  1.00 22.02 LIG-0.27  OA
BRANCH 4 6
ATOM      6  CA  ASP A 387     -28.574 -28.599  11.921  1.00 25.57 LIG 0.19  C 
BRANCH 6 7
ATOM      7  N   ASP A 387     -29.802 -27.999  11.360  1.00 28.40 LIG-0.34  N 
ATOM      8 H    ASP A 387     -30.164 -28.460  10.731  1.00 28.40 LIG 0.16  HD
ATOM      9  C   THR A 386     -30.294 -26.832  11.807  1.00 31.30 LIG 0.26  C 
ATOM     10 O    THR A 386     -30.038 -26.383  12.941  1.00 31.60 LIG-0.27  OA
BRANCH 9 11
ATOM     11  CA  THR A 386     -31.258 -26.051  10.877  1.00 33.11 LIG 0.43  C 
ATOM     12  N   THR A 386     -30.573 -25.323   9.767  1.00 33.83 LIG 0.62  N 
BRANCH 11 13
ATOM     13  CB  THR A 386     -32.392 -26.968  10.336  1.00 33.77 LIG 0.16  C 
ATOM     14  CG2 THR A 386     -31.987 -27.681   9.042  1.00 34.60 LIG 0.04  C 
BRANCH 13 15
ATOM     15 OG1  THR A 386     -32.669 -28.027  11.265  1.00 35.18 LIG-0.39  OA
ATOM     16 HG1  THR A 386     -33.289 -28.508  10.966  1.00 35.18 LIG 0.21  HD
ENDBRANCH 13 15
ENDBRANCH 11 13
ENDBRANCH 9 11
ENDBRANCH 6 7
BRANCH 6 17
ATOM     17  CB  ASP A 387     -28.388 -30.077  11.481  1.00 25.68 LIG 0.15  C 
BRANCH 17 18
ATOM     18  CG  ASP A 387     -27.478 -30.885  12.432  1.00 25.80 LIG 0.17  C 
ATOM     19 OD2  ASP A 387     -26.610 -30.340  13.151  1.00 26.75 LIG-0.65  OA
ATOM     20 OD1  ASP A 387     -27.579 -32.140  12.526  1.00 21.65 LIG-0.65  OA
ENDBRANCH 17 18
ENDBRANCH 6 17
ENDBRANCH 4 6
ENDBRANCH 1 2
BRANCH 1 21
ATOM     21  CB  HIS A 388     -26.667 -24.184  11.374  1.00 17.51 LIG 0.10  C 
BRANCH 21 22
ATOM     22  CG  HIS A 388     -26.566 -23.670   9.958  1.00 19.36 LIG 0.06  A 
ATOM     23 ND1  HIS A 388     -25.864 -24.318   8.969  1.00 21.21 LIG-0.24  NA
ATOM     24  CE1 HIS A 388     -25.967 -23.642   7.837  1.00 22.16 LIG 0.23  A 
ATOM     25 NE2  HIS A 388     -26.689 -22.560   8.061  1.00 21.69 LIG-0.25  NA
ATOM     26  CD2 HIS A 388     -27.071 -22.551   9.381  1.00 21.19 LIG 0.14  A 
ENDBRANCH 21 22
ENDBRANCH 1 21
BRANCH 1 27
ATOM     27  C   HIS A 388     -25.084 -25.637  12.667  1.00 15.45 LIG 0.24  C 
ATOM     28 O    HIS A 388     -24.200 -24.797  12.623  1.00 14.42 LIG-0.27  OA
ATOM     29  N   GLY A 389     -25.134 -26.570  13.626  1.00 14.00 LIG-0.35  N 
ATOM     30 H    GLY A 389     -25.756 -27.161  13.693  1.00 14.00 LIG 0.16  HD
BRANCH 29 31
ATOM     31  CA  GLY A 389     -24.101 -26.652  14.658  1.00 13.01 LIG 0.23  C 
BRANCH 31 32
ATOM     32  C   GLY A 389     -24.650 -27.074  16.004  1.00 11.92 LIG 0.24  C 
ATOM     33 O    GLY A 389     -25.878 -27.255  16.186  1.00 12.61 LIG-0.27  OA
ATOM     34  N   ALA A 390     -23.752 -27.267  16.952  1.00 10.53 LIG-0.35  N 
ATOM     35 H    ALA A 390     -22.905 -27.203  16.823  1.00 10.53 LIG 0.16  HD
BRANCH 34 36
ATOM     36  CA  ALA A 390     -24.121 -27.614  18.327  1.00 11.53 LIG 0.17  C 
ATOM     37  CB  ALA A 390     -22.914 -27.454  19.227  1.00 11.91 LIG 0.04  C 
BRANCH 36 38
ATOM     38  C   ALA A 390     -25.262 -26.703  18.823  1.00 13.11 LIG 0.24  C 
ATOM     39  N   GLU A 391     -26.271 -27.336  19.404  1.00 14.39 LIG-0.34  N 
ATOM     40 H    GLU A 391     -26.287 -28.186  19.533  1.00 14.39 LIG 0.16  HD
ATOM     41 O    ALA A 390     -25.261 -25.479  18.640  1.00 12.73 LIG-0.27  OA
BRANCH 39 42
ATOM     42  CA  GLU A 391     -27.444 -26.653  19.875  1.00 15.60 LIG 0.19  C 
BRANCH 42 43
ATOM     43  CB  GLU A 391     -28.688 -27.355  19.320  1.00 17.03 LIG 0.05  C 
BRANCH 43 44
ATOM     44  CG  GLU A 391     -29.964 -26.561  19.394  1.00 23.68 LIG 0.12  C 
BRANCH 44 45
ATOM     45  CD  GLU A 391     -31.159 -27.479  19.645  1.00 29.63 LIG 0.17  C 
ATOM     46 OE1  GLU A 391     -31.105 -28.254  20.647  1.00 31.73 LIG-0.65  OA
ATOM     47 OE2  GLU A 391     -32.103 -27.455  18.807  1.00 33.20 LIG-0.65  OA
ENDBRANCH 44 45
ENDBRANCH 43 44
ENDBRANCH 42 43
BRANCH 42 48
ATOM     48  C   GLU A 391     -27.424 -26.713  21.399  1.00 14.85 LIG 0.20  C 
ATOM     49 OXT  GLU A 391     -28.398 -26.336  22.035  1.00 14.73 LIG-0.65  OA
ATOM     50 O    GLU A 391     -26.426 -27.123  21.993  1.00 14.85 LIG-0.65  OA
ENDBRANCH 42 48
ENDBRANCH 39 42
ENDBRANCH 36 38
ENDBRANCH 34 36
ENDBRANCH 31 32
ENDBRANCH 29 31
ENDBRANCH 1 27
TORSDOF 20
ENDMDL
