MODEL 1
USER: ADFR SOLUTION from run 148
USER: SCORE 11.989017 LL:  -2.731 LR:  -9.720 RR:   0.000 FEB:  -5.543
USER: RMSD 5.157624
USER: SEED 147
USER: STATUS no improvement in best in 5 clusters for 5 generations
USER: GENES 16
USER: genes 0 Translation |==|  0.51649 0.51010 0.61449
USER: genes 1 Rotation |==|  0.32103 0.73635 0.24248 0.80950
USER: genes 2 Torsion [N]-CA--C-[N] |==|  0.27638
USER: genes 3 Torsion [C]-N--CA-[CB] |==|  0.55643
USER: genes 4 Torsion [N]-CA--CB-[CG2] |==|  0.44575
USER: genes 5 Torsion [CA]-CB--OG1-[HG1] |==|  0.06095
USER: genes 6 Torsion [N]-CA--C-[N] |==|  0.30556
USER: genes 7 Torsion [C]-N--CA-[CB] |==|  0.31400
USER: genes 8 Torsion [N]-CA--CB-[CG] |==|  0.79330
USER: genes 9 Torsion [CA]-CB--CG-[CD1] |==|  0.44185
USER: genes 10 Torsion [N]-CA--C-[O] |==|  0.15072
USER: genes 11 Torsion [O]-C--CA-[N] |==|  0.04711
USER: genes 12 Torsion [N]-C--CA-[N] |==|  0.19516
USER: genes 13 Torsion [C]-CA--CB-[CG] |==|  0.72966
USER: genes 14 Torsion [CA]-CB--CG-[SD] |==|  0.27620
USER: genes 15 Torsion [CB]-CG--SD-[CE] |==|  0.66958
ROOT
ATOM      1  C   PRO R   4       6.063   0.365 -12.834  1.00 60.54 LIG 0.24  C 
ATOM      2 O    PRO R   4       5.016  -0.238 -12.589  1.00 63.53 LIG-0.27  OA
ATOM      3  N   PRO R   5       7.274  -0.219 -12.807  1.00 48.92 LIG-0.34  N 
ATOM      4  CA  PRO R   5       7.420  -1.633 -12.436  1.00 52.68 LIG 0.18  C 
ATOM      5  CB  PRO R   5       8.933  -1.864 -12.531  1.00 55.54 LIG 0.04  C 
ATOM      6  CG  PRO R   5       9.416  -0.852 -13.500  1.00 46.13 LIG 0.02  C 
ATOM      7  CD  PRO R   5       8.539   0.355 -13.299  1.00 43.47 LIG 0.13  C 
ENDROOT
BRANCH 4 8
ATOM      8  C   PRO R   5       6.940  -1.948 -11.016  1.00 58.07 LIG 0.24  C 
ATOM      9 O    PRO R   5       7.664  -1.717 -10.044  1.00 51.36 LIG-0.27  OA
ATOM     10  N   THR R   6       5.725  -2.478 -10.913  1.00 69.24 LIG-0.34  N 
ATOM     11 H    THR R   6       5.199  -2.598 -11.582  1.00 69.24 LIG 0.16  HD
BRANCH 10 12
ATOM     12  CA  THR R   6       5.170  -2.910  -9.634  1.00 55.31 LIG 0.20  C 
BRANCH 12 13
ATOM     13  CB  THR R   6       4.014  -3.917  -9.826  1.00 60.29 LIG 0.15  C 
ATOM     14  CG2 THR R   6       3.769  -4.710  -8.551  1.00 62.01 LIG 0.04  C 
BRANCH 13 15
ATOM     15 OG1  THR R   6       2.815  -3.213 -10.175  1.00 91.48 LIG-0.39  OA
ATOM     16 HG1  THR R   6       3.015  -2.464 -10.498  1.00 91.48 LIG 0.21  HD
ENDBRANCH 13 15
ENDBRANCH 12 13
BRANCH 12 17
ATOM     17  C   THR R   6       6.262  -3.553  -8.792  1.00 56.48 LIG 0.24  C 
ATOM     18  N   LEU R   7       6.661  -2.869  -7.723  1.00 43.78 LIG-0.35  N 
ATOM     19 H    LEU R   7       6.329  -2.111  -7.487  1.00 43.78 LIG 0.16  HD
ATOM     20 O    THR R   6       6.736  -4.647  -9.109  1.00 41.48 LIG-0.27  OA
BRANCH 18 21
ATOM     21  CA  LEU R   7       7.717  -3.363  -6.849  1.00 53.52 LIG 0.16  C 
BRANCH 21 22
ATOM     22  CB  LEU R   7       8.951  -2.464  -6.943  1.00 41.32 LIG 0.04  C 
BRANCH 22 23
ATOM     23  CG  LEU R   7       9.770  -2.620  -8.228  1.00 48.65 LIG-0.02  C 
ATOM     24  CD1 LEU R   7      10.638  -1.394  -8.488  1.00 40.28 LIG 0.01  C 
ATOM     25  CD2 LEU R   7      10.624  -3.881  -8.177  1.00 37.72 LIG 0.01  C 
ENDBRANCH 22 23
ENDBRANCH 21 22
BRANCH 21 26
ATOM     26  C   LEU R   7       7.240  -3.472  -5.402  1.00 46.73 LIG 0.22  C 
ATOM     27 O    LEU R   7       6.228  -4.116  -5.120  1.00 57.50 LIG-0.29  OA
ENDBRANCH 21 26
ENDBRANCH 18 21
ENDBRANCH 12 17
ENDBRANCH 10 12
ENDBRANCH 4 8
BRANCH 1 28
ATOM     28  CA  PRO R   4       5.995   1.849 -13.196  1.00 54.23 LIG 0.18  C 
ATOM     29  N   PRO R   4       4.696   2.397 -12.797  1.00 66.40 LIG-0.34  N 
ATOM     30  CD  PRO R   4       4.793   3.097 -11.507  1.00 55.20 LIG 0.13  C 
ATOM     31  C   MET R   3       3.551   2.413 -13.501  1.00 65.13 LIG 0.26  C 
ATOM     32  CG  PRO R   4       6.180   3.651 -11.554  1.00 51.34 LIG 0.02  C 
ATOM     33  CB  PRO R   4       6.993   2.648 -12.335  1.00 43.90 LIG 0.04  C 
ATOM     34 O    MET R   3       2.494   2.847 -13.038  1.00 74.37 LIG-0.27  OA
BRANCH 31 35
ATOM     35  CA  MET R   3       3.593   1.875 -14.930  1.00 67.30 LIG 0.40  C 
ATOM     36  N   MET R   3       3.772   0.427 -14.986  1.00 55.69 LIG 0.61  N 
BRANCH 35 37
ATOM     37  CB  MET R   3       2.303   2.291 -15.647  1.00 55.44 LIG 0.06  C 
BRANCH 37 38
ATOM     38  CG  MET R   3       1.215   1.240 -15.681  1.00 49.90 LIG 0.08  C 
BRANCH 38 39
ATOM     39 SD   MET R   3      -0.002   1.576 -14.394  1.00 67.63 LIG-0.17  SA
ATOM     40  CE  MET R   3       0.130   0.088 -13.405  1.00 69.90 LIG 0.09  C 
ENDBRANCH 38 39
ENDBRANCH 37 38
ENDBRANCH 35 37
ENDBRANCH 31 35
ENDBRANCH 1 28
TORSDOF 14
ENDMDL
MODEL 2
USER: ADFR SOLUTION from run 25
USER: SCORE 11.401032 LL:  -2.245 LR:  -9.558 RR:   0.000 FEB:  -5.382
USER: RMSD 4.662675
USER: SEED 24
USER: STATUS no improvement in best in 9 clusters for 5 generations
USER: GENES 16
USER: genes 0 Translation |==|  0.49122 0.51241 0.58827
USER: genes 1 Rotation |==|  0.26892 0.73571 0.27568 0.80121
USER: genes 2 Torsion [N]-CA--C-[N] |==|  0.26087
USER: genes 3 Torsion [C]-N--CA-[CB] |==|  0.55823
USER: genes 4 Torsion [N]-CA--CB-[CG2] |==|  0.45069
USER: genes 5 Torsion [CA]-CB--OG1-[HG1] |==|  0.13962
USER: genes 6 Torsion [N]-CA--C-[N] |==|  0.35302
USER: genes 7 Torsion [C]-N--CA-[CB] |==|  0.86981
USER: genes 8 Torsion [N]-CA--CB-[CG] |==|  0.79918
USER: genes 9 Torsion [CA]-CB--CG-[CD1] |==|  0.62587
USER: genes 10 Torsion [N]-CA--C-[O] |==|  0.37856
USER: genes 11 Torsion [O]-C--CA-[N] |==|  0.06487
USER: genes 12 Torsion [N]-C--CA-[N] |==|  0.24068
USER: genes 13 Torsion [C]-CA--CB-[CG] |==|  0.14456
USER: genes 14 Torsion [CA]-CB--CG-[SD] |==|  0.66812
USER: genes 15 Torsion [CB]-CG--SD-[CE] |==|  0.97187
ROOT
ATOM      1  C   PRO R   4       5.608   0.412 -13.366  1.00 60.54 LIG 0.24  C 
ATOM      2 O    PRO R   4       4.733  -0.322 -12.903  1.00 63.53 LIG-0.27  OA
ATOM      3  N   PRO R   5       6.889   0.030 -13.511  1.00 48.92 LIG-0.34  N 
ATOM      4  CA  PRO R   5       7.332  -1.303 -13.080  1.00 52.68 LIG 0.18  C 
ATOM      5  CB  PRO R   5       8.827  -1.302 -13.422  1.00 55.54 LIG 0.04  C 
ATOM      6  CG  PRO R   5       8.967  -0.322 -14.525  1.00 46.13 LIG 0.02  C 
ATOM      7  CD  PRO R   5       7.943   0.746 -14.253  1.00 43.47 LIG 0.13  C 
ENDROOT
BRANCH 4 8
ATOM      8  C   PRO R   5       7.147  -1.557 -11.582  1.00 58.07 LIG 0.24  C 
ATOM      9 O    PRO R   5       8.018  -1.217 -10.777  1.00 51.36 LIG-0.27  OA
ATOM     10  N   THR R   6       6.016  -2.158 -11.224  1.00 69.24 LIG-0.34  N 
ATOM     11 H    THR R   6       5.386  -2.355 -11.775  1.00 69.24 LIG 0.16  HD
BRANCH 10 12
ATOM     12  CA  THR R   6       5.742  -2.541  -9.843  1.00 55.31 LIG 0.20  C 
BRANCH 12 13
ATOM     13  CB  THR R   6       4.662  -3.644  -9.762  1.00 60.29 LIG 0.15  C 
ATOM     14  CG2 THR R   6       4.693  -4.334  -8.407  1.00 62.01 LIG 0.04  C 
BRANCH 13 15
ATOM     15 OG1  THR R   6       3.366  -3.064  -9.961  1.00 91.48 LIG-0.39  OA
ATOM     16 HG1  THR R   6       3.375  -2.588 -10.653  1.00 91.48 LIG 0.21  HD
ENDBRANCH 13 15
ENDBRANCH 12 13
BRANCH 12 17
ATOM     17  C   THR R   6       7.019  -3.041  -9.185  1.00 56.48 LIG 0.24  C 
ATOM     18  N   LEU R   7       7.352  -2.464  -8.033  1.00 43.78 LIG-0.35  N 
ATOM     19 H    LEU R   7       6.884  -1.853  -7.649  1.00 43.78 LIG 0.16  HD
ATOM     20 O    THR R   6       7.692  -3.929  -9.715  1.00 41.48 LIG-0.27  OA
BRANCH 18 21
ATOM     21  CA  LEU R   7       8.565  -2.834  -7.316  1.00 53.52 LIG 0.16  C 
BRANCH 21 22
ATOM     22  CB  LEU R   7       8.690  -4.357  -7.232  1.00 41.32 LIG 0.04  C 
BRANCH 22 23
ATOM     23  CG  LEU R   7       7.710  -5.036  -6.270  1.00 48.65 LIG-0.02  C 
ATOM     24  CD1 LEU R   7       8.410  -6.075  -5.403  1.00 40.28 LIG 0.01  C 
ATOM     25  CD2 LEU R   7       6.999  -4.004  -5.403  1.00 37.72 LIG 0.01  C 
ENDBRANCH 22 23
ENDBRANCH 21 22
BRANCH 21 26
ATOM     26  C   LEU R   7       9.807  -2.229  -7.966  1.00 46.73 LIG 0.22  C 
ATOM     27 O    LEU R   7      10.690  -1.714  -7.279  1.00 57.50 LIG-0.29  OA
ENDBRANCH 21 26
ENDBRANCH 18 21
ENDBRANCH 12 17
ENDBRANCH 10 12
ENDBRANCH 4 8
BRANCH 1 28
ATOM     28  CA  PRO R   4       5.232   1.827 -13.805  1.00 54.23 LIG 0.18  C 
ATOM     29  N   PRO R   4       4.019   2.258 -13.104  1.00 66.40 LIG-0.34  N 
ATOM     30  CD  PRO R   4       4.352   3.104 -11.948  1.00 55.20 LIG 0.13  C 
ATOM     31  C   MET R   3       2.739   2.057 -13.462  1.00 65.13 LIG 0.26  C 
ATOM     32  CG  PRO R   4       5.580   3.812 -12.421  1.00 51.34 LIG 0.02  C 
ATOM     33  CB  PRO R   4       6.294   2.831 -13.319  1.00 43.90 LIG 0.04  C 
ATOM     34 O    MET R   3       1.790   2.411 -12.757  1.00 74.37 LIG-0.27  OA
BRANCH 31 35
ATOM     35  CA  MET R   3       2.479   1.371 -14.802  1.00 67.30 LIG 0.40  C 
ATOM     36  N   MET R   3       2.476  -0.086 -14.702  1.00 55.69 LIG 0.61  N 
BRANCH 35 37
ATOM     37  CB  MET R   3       1.145   1.879 -15.361  1.00 55.44 LIG 0.06  C 
BRANCH 37 38
ATOM     38  CG  MET R   3       1.005   3.384 -15.430  1.00 49.90 LIG 0.08  C 
BRANCH 38 39
ATOM     39 SD   MET R   3      -0.385   3.919 -14.415  1.00 67.63 LIG-0.17  SA
ATOM     40  CE  MET R   3      -1.150   2.346 -14.028  1.00 69.90 LIG 0.09  C 
ENDBRANCH 38 39
ENDBRANCH 37 38
ENDBRANCH 35 37
ENDBRANCH 31 35
ENDBRANCH 1 28
TORSDOF 14
ENDMDL
MODEL 3
USER: ADFR SOLUTION from run 18
USER: SCORE 11.720995 LL:  -2.821 LR:  -9.367 RR:   0.000 FEB:  -5.191
USER: RMSD 5.036074
USER: SEED 17
USER: STATUS no improvement in best in 19 clusters for 5 generations
USER: GENES 16
USER: genes 0 Translation |==|  0.52023 0.51376 0.61447
USER: genes 1 Rotation |==|  0.33372 0.74021 0.23685 0.80887
USER: genes 2 Torsion [N]-CA--C-[N] |==|  0.27873
USER: genes 3 Torsion [C]-N--CA-[CB] |==|  0.56326
USER: genes 4 Torsion [N]-CA--CB-[CG2] |==|  0.44267
USER: genes 5 Torsion [CA]-CB--OG1-[HG1] |==|  0.16752
USER: genes 6 Torsion [N]-CA--C-[N] |==|  0.29986
USER: genes 7 Torsion [C]-N--CA-[CB] |==|  0.30508
USER: genes 8 Torsion [N]-CA--CB-[CG] |==|  0.70362
USER: genes 9 Torsion [CA]-CB--CG-[CD1] |==|  0.30533
USER: genes 10 Torsion [N]-CA--C-[O] |==|  0.19931
USER: genes 11 Torsion [O]-C--CA-[N] |==|  0.05117
USER: genes 12 Torsion [N]-C--CA-[N] |==|  0.42805
USER: genes 13 Torsion [C]-CA--CB-[CG] |==|  0.93373
USER: genes 14 Torsion [CA]-CB--CG-[SD] |==|  0.39453
USER: genes 15 Torsion [CB]-CG--SD-[CE] |==|  0.64724
ROOT
ATOM      1  C   PRO R   4       6.130   0.440 -12.835  1.00 60.54 LIG 0.24  C 
ATOM      2 O    PRO R   4       5.052  -0.122 -12.631  1.00 63.53 LIG-0.27  OA
ATOM      3  N   PRO R   5       7.313  -0.200 -12.796  1.00 48.92 LIG-0.34  N 
ATOM      4  CA  PRO R   5       7.388  -1.628 -12.462  1.00 52.68 LIG 0.18  C 
ATOM      5  CB  PRO R   5       8.891  -1.924 -12.529  1.00 55.54 LIG 0.04  C 
ATOM      6  CG  PRO R   5       9.441  -0.909 -13.458  1.00 46.13 LIG 0.02  C 
ATOM      7  CD  PRO R   5       8.614   0.330 -13.243  1.00 43.47 LIG 0.13  C 
ENDROOT
BRANCH 4 8
ATOM      8  C   PRO R   5       6.860  -1.960 -11.063  1.00 58.07 LIG 0.24  C 
ATOM      9 O    PRO R   5       7.564  -1.774 -10.067  1.00 51.36 LIG-0.27  OA
ATOM     10  N   THR R   6       5.626  -2.454 -11.004  1.00 69.24 LIG-0.34  N 
ATOM     11 H    THR R   6       5.115  -2.542 -11.690  1.00 69.24 LIG 0.16  HD
BRANCH 10 12
ATOM     12  CA  THR R   6       5.025  -2.897  -9.751  1.00 55.31 LIG 0.20  C 
BRANCH 12 13
ATOM     13  CB  THR R   6       3.883  -3.909  -9.994  1.00 60.29 LIG 0.15  C 
ATOM     14  CG2 THR R   6       3.611  -4.730  -8.743  1.00 62.01 LIG 0.04  C 
BRANCH 13 15
ATOM     15 OG1  THR R   6       2.688  -3.209 -10.361  1.00 91.48 LIG-0.39  OA
ATOM     16 HG1  THR R   6       2.824  -2.773 -11.066  1.00 91.48 LIG 0.21  HD
ENDBRANCH 13 15
ENDBRANCH 12 13
BRANCH 12 17
ATOM     17  C   THR R   6       6.086  -3.539  -8.870  1.00 56.48 LIG 0.24  C 
ATOM     18  N   LEU R   7       6.469  -2.839  -7.805  1.00 43.78 LIG-0.35  N 
ATOM     19 H    LEU R   7       6.142  -2.072  -7.592  1.00 43.78 LIG 0.16  HD
ATOM     20 O    THR R   6       6.552  -4.645  -9.154  1.00 41.48 LIG-0.27  OA
BRANCH 18 21
ATOM     21  CA  LEU R   7       7.496  -3.331  -6.896  1.00 53.52 LIG 0.16  C 
BRANCH 21 22
ATOM     22  CB  LEU R   7       8.773  -2.499  -7.035  1.00 41.32 LIG 0.04  C 
BRANCH 22 23
ATOM     23  CG  LEU R   7       9.927  -3.200  -7.758  1.00 48.65 LIG-0.02  C 
ATOM     24  CD1 LEU R   7      10.184  -2.583  -9.127  1.00 40.28 LIG 0.01  C 
ATOM     25  CD2 LEU R   7      11.194  -3.173  -6.911  1.00 37.72 LIG 0.01  C 
ENDBRANCH 22 23
ENDBRANCH 21 22
BRANCH 21 26
ATOM     26  C   LEU R   7       7.009  -3.330  -5.449  1.00 46.73 LIG 0.22  C 
ATOM     27 O    LEU R   7       6.169  -4.147  -5.067  1.00 57.50 LIG-0.29  OA
ENDBRANCH 21 26
ENDBRANCH 18 21
ENDBRANCH 12 17
ENDBRANCH 10 12
ENDBRANCH 4 8
BRANCH 1 28
ATOM     28  CA  PRO R   4       6.137   1.934 -13.156  1.00 54.23 LIG 0.18  C 
ATOM     29  N   PRO R   4       4.867   2.536 -12.739  1.00 66.40 LIG-0.34  N 
ATOM     30  CD  PRO R   4       5.001   3.194 -11.431  1.00 55.20 LIG 0.13  C 
ATOM     31  C   MET R   3       3.724   2.629 -13.441  1.00 65.13 LIG 0.26  C 
ATOM     32  CG  PRO R   4       6.414   3.679 -11.466  1.00 51.34 LIG 0.02  C 
ATOM     33  CB  PRO R   4       7.175   2.658 -12.276  1.00 43.90 LIG 0.04  C 
ATOM     34 O    MET R   3       2.690   3.103 -12.963  1.00 74.37 LIG-0.27  OA
BRANCH 31 35
ATOM     35  CA  MET R   3       3.738   2.129 -14.884  1.00 67.30 LIG 0.40  C 
ATOM     36  N   MET R   3       2.420   1.708 -15.352  1.00 55.69 LIG 0.61  N 
BRANCH 35 37
ATOM     37  CB  MET R   3       4.305   3.237 -15.779  1.00 55.44 LIG 0.06  C 
BRANCH 37 38
ATOM     38  CG  MET R   3       4.176   4.641 -15.230  1.00 49.90 LIG 0.08  C 
BRANCH 38 39
ATOM     39 SD   MET R   3       5.650   5.596 -15.633  1.00 67.63 LIG-0.17  SA
ATOM     40  CE  MET R   3       6.117   6.202 -14.013  1.00 69.90 LIG 0.09  C 
ENDBRANCH 38 39
ENDBRANCH 37 38
ENDBRANCH 35 37
ENDBRANCH 31 35
ENDBRANCH 1 28
TORSDOF 14
ENDMDL
MODEL 4
USER: ADFR SOLUTION from run 177
USER: SCORE 9.903995 LL:  -1.496 LR:  -9.352 RR:   0.000 FEB:  -5.176
USER: RMSD 4.761534
USER: SEED 176
USER: STATUS no improvement in best in 24 clusters for 5 generations
USER: GENES 16
USER: genes 0 Translation |==|  0.39097 0.54092 0.53097
USER: genes 1 Rotation |==|  0.44737 0.48650 0.54364 0.99512
USER: genes 2 Torsion [N]-CA--C-[N] |==|  0.51530
USER: genes 3 Torsion [C]-N--CA-[CB] |==|  0.46111
USER: genes 4 Torsion [N]-CA--CB-[CG2] |==|  0.91492
USER: genes 5 Torsion [CA]-CB--OG1-[HG1] |==|  0.65650
USER: genes 6 Torsion [N]-CA--C-[N] |==|  0.44385
USER: genes 7 Torsion [C]-N--CA-[CB] |==|  0.87435
USER: genes 8 Torsion [N]-CA--CB-[CG] |==|  0.74117
USER: genes 9 Torsion [CA]-CB--CG-[CD1] |==|  0.31035
USER: genes 10 Torsion [N]-CA--C-[O] |==|  0.87312
USER: genes 11 Torsion [O]-C--CA-[N] |==|  0.33890
USER: genes 12 Torsion [N]-C--CA-[N] |==|  0.18881
USER: genes 13 Torsion [C]-CA--CB-[CG] |==|  0.17610
USER: genes 14 Torsion [CA]-CB--CG-[SD] |==|  0.68015
USER: genes 15 Torsion [CB]-CG--SD-[CE] |==|  0.94155
ROOT
ATOM      1  C   PRO R   4       3.803   0.990 -14.526  1.00 60.54 LIG 0.24  C 
ATOM      2 O    PRO R   4       4.484   0.253 -15.243  1.00 63.53 LIG-0.27  OA
ATOM      3  N   PRO R   5       4.265   1.542 -13.389  1.00 48.92 LIG-0.34  N 
ATOM      4  CA  PRO R   5       5.624   1.257 -12.910  1.00 52.68 LIG 0.18  C 
ATOM      5  CB  PRO R   5       5.715   2.071 -11.614  1.00 55.54 LIG 0.04  C 
ATOM      6  CG  PRO R   5       4.741   3.175 -11.785  1.00 46.13 LIG 0.02  C 
ATOM      7  CD  PRO R   5       3.612   2.600 -12.597  1.00 43.47 LIG 0.13  C 
ENDROOT
BRANCH 4 8
ATOM      8  C   PRO R   5       5.871  -0.223 -12.607  1.00 58.07 LIG 0.24  C 
ATOM      9 O    PRO R   5       5.007  -1.067 -12.858  1.00 51.36 LIG-0.27  OA
ATOM     10  N   THR R   6       7.048  -0.522 -12.063  1.00 69.24 LIG-0.34  N 
ATOM     11 H    THR R   6       7.671   0.056 -11.929  1.00 69.24 LIG 0.16  HD
BRANCH 10 12
ATOM     12  CA  THR R   6       7.388  -1.875 -11.640  1.00 55.31 LIG 0.20  C 
BRANCH 12 13
ATOM     13  CB  THR R   6       8.902  -2.025 -11.371  1.00 60.29 LIG 0.15  C 
ATOM     14  CG2 THR R   6       9.706  -1.092 -12.265  1.00 62.01 LIG 0.04  C 
BRANCH 13 15
ATOM     15 OG1  THR R   6       9.182  -1.712 -10.000  1.00 91.48 LIG-0.39  OA
ATOM     16 HG1  THR R   6       9.753  -1.098  -9.964  1.00 91.48 LIG 0.21  HD
ENDBRANCH 13 15
ENDBRANCH 12 13
BRANCH 12 17
ATOM     17  C   THR R   6       6.617  -2.228 -10.376  1.00 56.48 LIG 0.24  C 
ATOM     18  N   LEU R   7       6.492  -3.525 -10.106  1.00 43.78 LIG-0.35  N 
ATOM     19 H    LEU R   7       6.830  -4.151 -10.590  1.00 43.78 LIG 0.16  HD
ATOM     20 O    THR R   6       6.142  -1.341  -9.663  1.00 41.48 LIG-0.27  OA
BRANCH 18 21
ATOM     21  CA  LEU R   7       5.755  -3.994  -8.940  1.00 53.52 LIG 0.16  C 
BRANCH 21 22
ATOM     22  CB  LEU R   7       6.137  -3.178  -7.704  1.00 41.32 LIG 0.04  C 
BRANCH 22 23
ATOM     23  CG  LEU R   7       7.267  -3.773  -6.858  1.00 48.65 LIG-0.02  C 
ATOM     24  CD1 LEU R   7       8.527  -2.920  -6.930  1.00 40.28 LIG 0.01  C 
ATOM     25  CD2 LEU R   7       6.824  -3.954  -5.411  1.00 37.72 LIG 0.01  C 
ENDBRANCH 22 23
ENDBRANCH 21 22
BRANCH 21 26
ATOM     26  C   LEU R   7       4.247  -3.942  -9.173  1.00 46.73 LIG 0.22  C 
ATOM     27 O    LEU R   7       3.722  -2.947  -9.676  1.00 57.50 LIG-0.29  OA
ENDBRANCH 21 26
ENDBRANCH 18 21
ENDBRANCH 12 17
ENDBRANCH 10 12
ENDBRANCH 4 8
BRANCH 1 28
ATOM     28  CA  PRO R   4       2.367   1.305 -14.940  1.00 54.23 LIG 0.18  C 
ATOM     29  N   PRO R   4       1.443   0.892 -13.880  1.00 66.40 LIG-0.34  N 
ATOM     30  CD  PRO R   4       1.059   2.037 -13.040  1.00 55.20 LIG 0.13  C 
ATOM     31  C   MET R   3       0.877  -0.314 -13.696  1.00 65.13 LIG 0.26  C 
ATOM     32  CG  PRO R   4       1.070   3.163 -14.022  1.00 51.34 LIG 0.02  C 
ATOM     33  CB  PRO R   4       2.160   2.831 -15.011  1.00 43.90 LIG 0.04  C 
ATOM     34 O    MET R   3       0.161  -0.569 -12.726  1.00 74.37 LIG-0.27  OA
BRANCH 31 35
ATOM     35  CA  MET R   3       1.144  -1.387 -14.750  1.00 67.30 LIG 0.40  C 
ATOM     36  N   MET R   3       2.534  -1.835 -14.765  1.00 55.69 LIG 0.61  N 
BRANCH 35 37
ATOM     37  CB  MET R   3       0.197  -2.566 -14.498  1.00 55.44 LIG 0.06  C 
BRANCH 37 38
ATOM     38  CG  MET R   3      -1.277  -2.253 -14.646  1.00 49.90 LIG 0.08  C 
BRANCH 38 39
ATOM     39 SD   MET R   3      -2.105  -2.435 -13.056  1.00 67.63 LIG-0.17  SA
ATOM     40  CE  MET R   3      -0.951  -3.497 -12.190  1.00 69.90 LIG 0.09  C 
ENDBRANCH 38 39
ENDBRANCH 37 38
ENDBRANCH 35 37
ENDBRANCH 31 35
ENDBRANCH 1 28
TORSDOF 14
ENDMDL
MODEL 5
USER: ADFR SOLUTION from run 158
USER: SCORE 9.582131 LL:  -1.261 LR:  -9.109 RR:   0.000 FEB:  -4.933
USER: RMSD 4.699262
USER: SEED 157
USER: STATUS no improvement in best in 13 clusters for 5 generations
USER: GENES 16
USER: genes 0 Translation |==|  0.44078 0.53274 0.54531
USER: genes 1 Rotation |==|  0.41484 0.45864 0.46676 0.98983
USER: genes 2 Torsion [N]-CA--C-[N] |==|  0.52151
USER: genes 3 Torsion [C]-N--CA-[CB] |==|  0.17757
USER: genes 4 Torsion [N]-CA--CB-[CG2] |==|  0.70494
USER: genes 5 Torsion [CA]-CB--OG1-[HG1] |==|  0.24326
USER: genes 6 Torsion [N]-CA--C-[N] |==|  0.22069
USER: genes 7 Torsion [C]-N--CA-[CB] |==|  0.81585
USER: genes 8 Torsion [N]-CA--CB-[CG] |==|  0.81138
USER: genes 9 Torsion [CA]-CB--CG-[CD1] |==|  0.93576
USER: genes 10 Torsion [N]-CA--C-[O] |==|  0.46639
USER: genes 11 Torsion [O]-C--CA-[N] |==|  0.33859
USER: genes 12 Torsion [N]-C--CA-[N] |==|  0.14610
USER: genes 13 Torsion [C]-CA--CB-[CG] |==|  0.18600
USER: genes 14 Torsion [CA]-CB--CG-[SD] |==|  0.64847
USER: genes 15 Torsion [CB]-CG--SD-[CE] |==|  0.92526
ROOT
ATOM      1  C   PRO R   4       4.700   0.824 -14.236  1.00 60.54 LIG 0.24  C 
ATOM      2 O    PRO R   4       5.220  -0.163 -14.759  1.00 63.53 LIG-0.27  OA
ATOM      3  N   PRO R   5       5.147   1.371 -13.091  1.00 48.92 LIG-0.34  N 
ATOM      4  CA  PRO R   5       6.281   0.783 -12.366  1.00 52.68 LIG 0.18  C 
ATOM      5  CB  PRO R   5       6.434   1.705 -11.150  1.00 55.54 LIG 0.04  C 
ATOM      6  CG  PRO R   5       5.867   3.005 -11.580  1.00 46.13 LIG 0.02  C 
ATOM      7  CD  PRO R   5       4.739   2.667 -12.517  1.00 43.47 LIG 0.13  C 
ENDROOT
BRANCH 4 8
ATOM      8  C   PRO R   5       6.031  -0.652 -11.895  1.00 58.07 LIG 0.24  C 
ATOM      9 O    PRO R   5       5.016  -1.259 -12.247  1.00 51.36 LIG-0.27  OA
ATOM     10  N   THR R   6       6.958  -1.178 -11.098  1.00 69.24 LIG-0.34  N 
ATOM     11 H    THR R   6       7.688  -0.776 -10.888  1.00 69.24 LIG 0.16  HD
BRANCH 10 12
ATOM     12  CA  THR R   6       6.812  -2.501 -10.502  1.00 55.31 LIG 0.20  C 
BRANCH 12 13
ATOM     13  CB  THR R   6       6.778  -3.610 -11.578  1.00 60.29 LIG 0.15  C 
ATOM     14  CG2 THR R   6       5.369  -4.157 -11.748  1.00 62.01 LIG 0.04  C 
BRANCH 13 15
ATOM     15 OG1  THR R   6       7.226  -3.078 -12.832  1.00 91.48 LIG-0.39  OA
ATOM     16 HG1  THR R   6       8.062  -3.143 -12.881  1.00 91.48 LIG 0.21  HD
ENDBRANCH 13 15
ENDBRANCH 12 13
BRANCH 12 17
ATOM     17  C   THR R   6       7.966  -2.764  -9.546  1.00 56.48 LIG 0.24  C 
ATOM     18  N   LEU R   7       7.872  -2.204  -8.343  1.00 43.78 LIG-0.35  N 
ATOM     19 H    LEU R   7       7.203  -1.728  -8.085  1.00 43.78 LIG 0.16  HD
ATOM     20 O    THR R   6       8.924  -3.458  -9.895  1.00 41.48 LIG-0.27  OA
BRANCH 18 21
ATOM     21  CA  LEU R   7       8.922  -2.358  -7.345  1.00 53.52 LIG 0.16  C 
BRANCH 21 22
ATOM     22  CB  LEU R   7       9.018  -3.817  -6.893  1.00 41.32 LIG 0.04  C 
BRANCH 22 23
ATOM     23  CG  LEU R   7       7.816  -4.327  -6.092  1.00 48.65 LIG-0.02  C 
ATOM     24  CD1 LEU R   7       7.057  -3.180  -5.435  1.00 40.28 LIG 0.01  C 
ATOM     25  CD2 LEU R   7       6.885  -5.150  -6.974  1.00 37.72 LIG 0.01  C 
ENDBRANCH 22 23
ENDBRANCH 21 22
BRANCH 21 26
ATOM     26  C   LEU R   7      10.270  -1.870  -7.871  1.00 46.73 LIG 0.22  C 
ATOM     27 O    LEU R   7      11.225  -1.714  -7.108  1.00 57.50 LIG-0.29  OA
ENDBRANCH 21 26
ENDBRANCH 18 21
ENDBRANCH 12 17
ENDBRANCH 10 12
ENDBRANCH 4 8
BRANCH 1 28
ATOM     28  CA  PRO R   4       3.493   1.472 -14.913  1.00 54.23 LIG 0.18  C 
ATOM     29  N   PRO R   4       2.353   1.479 -13.992  1.00 66.40 LIG-0.34  N 
ATOM     30  CD  PRO R   4       2.216   2.786 -13.333  1.00 55.20 LIG 0.13  C 
ATOM     31  C   MET R   3       1.434   0.515 -13.803  1.00 65.13 LIG 0.26  C 
ATOM     32  CG  PRO R   4       2.697   3.724 -14.392  1.00 51.34 LIG 0.02  C 
ATOM     33  CB  PRO R   4       3.762   2.971 -15.150  1.00 43.90 LIG 0.04  C 
ATOM     34 O    MET R   3       0.548   0.603 -12.950  1.00 74.37 LIG-0.27  OA
BRANCH 31 35
ATOM     35  CA  MET R   3       1.510  -0.719 -14.700  1.00 67.30 LIG 0.40  C 
ATOM     36  N   MET R   3       2.834  -1.337 -14.704  1.00 55.69 LIG 0.61  N 
BRANCH 35 37
ATOM     37  CB  MET R   3       0.445  -1.722 -14.242  1.00 55.44 LIG 0.06  C 
BRANCH 37 38
ATOM     38  CG  MET R   3      -0.988  -1.284 -14.453  1.00 49.90 LIG 0.08  C 
BRANCH 38 39
ATOM     39 SD   MET R   3      -1.901  -1.402 -12.904  1.00 67.63 LIG-0.17  SA
ATOM     40  CE  MET R   3      -0.985  -2.694 -12.066  1.00 69.90 LIG 0.09  C 
ENDBRANCH 38 39
ENDBRANCH 37 38
ENDBRANCH 35 37
ENDBRANCH 31 35
ENDBRANCH 1 28
TORSDOF 14
ENDMDL
MODEL 6
USER: ADFR SOLUTION from run 170
USER: SCORE 11.214391 LL:  -2.702 LR:  -9.082 RR:   0.000 FEB:  -4.906
USER: RMSD 4.533472
USER: SEED 169
USER: STATUS no improvement in best in 23 clusters for 5 generations
USER: GENES 16
USER: genes 0 Translation |==|  0.51115 0.51504 0.61202
USER: genes 1 Rotation |==|  0.32614 0.74223 0.28202 0.83702
USER: genes 2 Torsion [N]-CA--C-[N] |==|  0.28169
USER: genes 3 Torsion [C]-N--CA-[CB] |==|  0.49473
USER: genes 4 Torsion [N]-CA--CB-[CG2] |==|  0.58986
USER: genes 5 Torsion [CA]-CB--OG1-[HG1] |==|  0.75268
USER: genes 6 Torsion [N]-CA--C-[N] |==|  0.47778
USER: genes 7 Torsion [C]-N--CA-[CB] |==|  0.32144
USER: genes 8 Torsion [N]-CA--CB-[CG] |==|  0.93793
USER: genes 9 Torsion [CA]-CB--CG-[CD1] |==|  0.31493
USER: genes 10 Torsion [N]-CA--C-[O] |==|  0.55877
USER: genes 11 Torsion [O]-C--CA-[N] |==|  0.04609
USER: genes 12 Torsion [N]-C--CA-[N] |==|  0.32343
USER: genes 13 Torsion [C]-CA--CB-[CG] |==|  0.08078
USER: genes 14 Torsion [CA]-CB--CG-[SD] |==|  0.57733
USER: genes 15 Torsion [CB]-CG--SD-[CE] |==|  0.19480
ROOT
ATOM      1  C   PRO R   4       5.967   0.466 -12.885  1.00 60.54 LIG 0.24  C 
ATOM      2 O    PRO R   4       5.016  -0.303 -12.726  1.00 63.53 LIG-0.27  OA
ATOM      3  N   PRO R   5       7.246   0.054 -12.937  1.00 48.92 LIG-0.34  N 
ATOM      4  CA  PRO R   5       7.589  -1.365 -12.766  1.00 52.68 LIG 0.18  C 
ATOM      5  CB  PRO R   5       9.117  -1.372 -12.891  1.00 55.54 LIG 0.04  C 
ATOM      6  CG  PRO R   5       9.441  -0.179 -13.710  1.00 46.13 LIG 0.02  C 
ATOM      7  CD  PRO R   5       8.413   0.857 -13.344  1.00 43.47 LIG 0.13  C 
ENDROOT
BRANCH 4 8
ATOM      8  C   PRO R   5       7.182  -1.934 -11.404  1.00 58.07 LIG 0.24  C 
ATOM      9 O    PRO R   5       7.867  -1.714 -10.402  1.00 51.36 LIG-0.27  OA
ATOM     10  N   THR R   6       6.072  -2.668 -11.384  1.00 69.24 LIG-0.34  N 
ATOM     11 H    THR R   6       5.567  -2.786 -12.070  1.00 69.24 LIG 0.16  HD
BRANCH 10 12
ATOM     12  CA  THR R   6       5.610  -3.346 -10.178  1.00 55.31 LIG 0.20  C 
BRANCH 12 13
ATOM     13  CB  THR R   6       4.275  -4.088 -10.418  1.00 60.29 LIG 0.15  C 
ATOM     14  CG2 THR R   6       3.426  -4.096  -9.156  1.00 62.01 LIG 0.04  C 
BRANCH 13 15
ATOM     15 OG1  THR R   6       3.546  -3.440 -11.468  1.00 91.48 LIG-0.39  OA
ATOM     16 HG1  THR R   6       3.059  -2.839 -11.141  1.00 91.48 LIG 0.21  HD
ENDBRANCH 13 15
ENDBRANCH 12 13
BRANCH 12 17
ATOM     17  C   THR R   6       6.661  -4.343  -9.714  1.00 56.48 LIG 0.24  C 
ATOM     18  N   LEU R   7       6.447  -4.917  -8.533  1.00 43.78 LIG-0.35  N 
ATOM     19 H    LEU R   7       5.756  -4.765  -8.043  1.00 43.78 LIG 0.16  HD
ATOM     20 O    THR R   6       7.649  -4.583 -10.412  1.00 41.48 LIG-0.27  OA
BRANCH 18 21
ATOM     21  CA  LEU R   7       7.392  -5.870  -7.964  1.00 53.52 LIG 0.16  C 
BRANCH 21 22
ATOM     22  CB  LEU R   7       7.997  -5.314  -6.673  1.00 41.32 LIG 0.04  C 
BRANCH 22 23
ATOM     23  CG  LEU R   7       7.945  -3.789  -6.537  1.00 48.65 LIG-0.02  C 
ATOM     24  CD1 LEU R   7       7.021  -3.362  -5.403  1.00 40.28 LIG 0.01  C 
ATOM     25  CD2 LEU R   7       9.342  -3.214  -6.336  1.00 37.72 LIG 0.01  C 
ENDBRANCH 22 23
ENDBRANCH 21 22
BRANCH 21 26
ATOM     26  C   LEU R   7       6.735  -7.224  -7.709  1.00 46.73 LIG 0.22  C 
ATOM     27 O    LEU R   7       7.222  -8.018  -6.903  1.00 57.50 LIG-0.29  OA
ENDBRANCH 21 26
ENDBRANCH 18 21
ENDBRANCH 12 17
ENDBRANCH 10 12
ENDBRANCH 4 8
BRANCH 1 28
ATOM     28  CA  PRO R   4       5.692   1.961 -13.036  1.00 54.23 LIG 0.18  C 
ATOM     29  N   PRO R   4       4.335   2.266 -12.574  1.00 66.40 LIG-0.34  N 
ATOM     30  CD  PRO R   4       4.352   2.786 -11.199  1.00 55.20 LIG 0.13  C 
ATOM     31  C   MET R   3       3.190   2.222 -13.278  1.00 65.13 LIG 0.26  C 
ATOM     32  CG  PRO R   4       5.648   3.527 -11.159  1.00 51.34 LIG 0.02  C 
ATOM     33  CB  PRO R   4       6.582   2.762 -12.066  1.00 43.90 LIG 0.04  C 
ATOM     34 O    MET R   3       2.089   2.438 -12.767  1.00 74.37 LIG-0.27  OA
BRANCH 31 35
ATOM     35  CA  MET R   3       3.289   1.899 -14.768  1.00 67.30 LIG 0.40  C 
ATOM     36  N   MET R   3       2.622   0.649 -15.123  1.00 55.69 LIG 0.61  N 
BRANCH 35 37
ATOM     37  CB  MET R   3       2.702   3.071 -15.562  1.00 55.44 LIG 0.06  C 
BRANCH 37 38
ATOM     38  CG  MET R   3       2.821   4.426 -14.898  1.00 49.90 LIG 0.08  C 
BRANCH 38 39
ATOM     39 SD   MET R   3       1.480   5.498 -15.446  1.00 67.63 LIG-0.17  SA
ATOM     40  CE  MET R   3       0.077   4.727 -14.641  1.00 69.90 LIG 0.09  C 
ENDBRANCH 38 39
ENDBRANCH 37 38
ENDBRANCH 35 37
ENDBRANCH 31 35
ENDBRANCH 1 28
TORSDOF 14
ENDMDL
MODEL 7
USER: ADFR SOLUTION from run 169
USER: SCORE 10.129716 LL:  -2.179 LR:  -9.041 RR:   0.000 FEB:  -4.865
USER: RMSD 4.489441
USER: SEED 168
USER: STATUS no improvement in best in 27 clusters for 5 generations
USER: GENES 16
USER: genes 0 Translation |==|  0.42824 0.53856 0.54337
USER: genes 1 Rotation |==|  0.43855 0.44976 0.48886 0.99353
USER: genes 2 Torsion [N]-CA--C-[N] |==|  0.53599
USER: genes 3 Torsion [C]-N--CA-[CB] |==|  0.48917
USER: genes 4 Torsion [N]-CA--CB-[CG2] |==|  0.86612
USER: genes 5 Torsion [CA]-CB--OG1-[HG1] |==|  0.03401
USER: genes 6 Torsion [N]-CA--C-[N] |==|  0.27704
USER: genes 7 Torsion [C]-N--CA-[CB] |==|  0.45438
USER: genes 8 Torsion [N]-CA--CB-[CG] |==|  0.31192
USER: genes 9 Torsion [CA]-CB--CG-[CD1] |==|  0.39230
USER: genes 10 Torsion [N]-CA--C-[O] |==|  0.12514
USER: genes 11 Torsion [O]-C--CA-[N] |==|  0.32605
USER: genes 12 Torsion [N]-C--CA-[N] |==|  0.21103
USER: genes 13 Torsion [C]-CA--CB-[CG] |==|  0.78030
USER: genes 14 Torsion [CA]-CB--CG-[SD] |==|  0.32742
USER: genes 15 Torsion [CB]-CG--SD-[CE] |==|  0.68022
ROOT
ATOM      1  C   PRO R   4       4.474   0.942 -14.275  1.00 60.54 LIG 0.24  C 
ATOM      2 O    PRO R   4       5.103   0.061 -14.864  1.00 63.53 LIG-0.27  OA
ATOM      3  N   PRO R   5       4.839   1.430 -13.075  1.00 48.92 LIG-0.34  N 
ATOM      4  CA  PRO R   5       6.013   0.897 -12.370  1.00 52.68 LIG 0.18  C 
ATOM      5  CB  PRO R   5       6.046   1.721 -11.077  1.00 55.54 LIG 0.04  C 
ATOM      6  CG  PRO R   5       5.357   2.990 -11.412  1.00 46.13 LIG 0.02  C 
ATOM      7  CD  PRO R   5       4.289   2.623 -12.407  1.00 43.47 LIG 0.13  C 
ENDROOT
BRANCH 4 8
ATOM      8  C   PRO R   5       5.901  -0.591 -12.029  1.00 58.07 LIG 0.24  C 
ATOM      9 O    PRO R   5       5.016  -1.286 -12.536  1.00 51.36 LIG-0.27  OA
ATOM     10  N   THR R   6       6.798  -1.064 -11.168  1.00 69.24 LIG-0.34  N 
ATOM     11 H    THR R   6       7.444  -0.596 -10.847  1.00 69.24 LIG 0.16  HD
BRANCH 10 12
ATOM     12  CA  THR R   6       6.761  -2.440 -10.683  1.00 55.31 LIG 0.20  C 
BRANCH 12 13
ATOM     13  CB  THR R   6       7.967  -2.755  -9.771  1.00 60.29 LIG 0.15  C 
ATOM     14  CG2 THR R   6       9.267  -2.293 -10.413  1.00 62.01 LIG 0.04  C 
BRANCH 13 15
ATOM     15 OG1  THR R   6       7.806  -2.089  -8.512  1.00 91.48 LIG-0.39  OA
ATOM     16 HG1  THR R   6       7.022  -1.797  -8.448  1.00 91.48 LIG 0.21  HD
ENDBRANCH 13 15
ENDBRANCH 12 13
BRANCH 12 17
ATOM     17  C   THR R   6       5.472  -2.678  -9.911  1.00 56.48 LIG 0.24  C 
ATOM     18  N   LEU R   7       4.496  -3.297 -10.572  1.00 43.78 LIG-0.35  N 
ATOM     19 H    LEU R   7       4.565  -3.572 -11.384  1.00 43.78 LIG 0.16  HD
ATOM     20 O    THR R   6       5.363  -2.304  -8.741  1.00 41.48 LIG-0.27  OA
BRANCH 18 21
ATOM     21  CA  LEU R   7       3.204  -3.562  -9.953  1.00 53.52 LIG 0.16  C 
BRANCH 21 22
ATOM     22  CB  LEU R   7       2.161  -3.898 -11.021  1.00 41.32 LIG 0.04  C 
BRANCH 22 23
ATOM     23  CG  LEU R   7       1.656  -5.344 -11.002  1.00 48.65 LIG-0.02  C 
ATOM     24  CD1 LEU R   7       0.162  -5.417 -11.293  1.00 40.28 LIG 0.01  C 
ATOM     25  CD2 LEU R   7       2.438  -6.205 -11.987  1.00 37.72 LIG 0.01  C 
ENDBRANCH 22 23
ENDBRANCH 21 22
BRANCH 21 26
ATOM     26  C   LEU R   7       3.297  -4.684  -8.922  1.00 46.73 LIG 0.22  C 
ATOM     27 O    LEU R   7       4.218  -4.713  -8.105  1.00 57.50 LIG-0.29  OA
ENDBRANCH 21 26
ENDBRANCH 18 21
ENDBRANCH 12 17
ENDBRANCH 10 12
ENDBRANCH 4 8
BRANCH 1 28
ATOM     28  CA  PRO R   4       3.221   1.522 -14.930  1.00 54.23 LIG 0.18  C 
ATOM     29  N   PRO R   4       2.050   1.240 -14.096  1.00 66.40 LIG-0.34  N 
ATOM     30  CD  PRO R   4       1.703   2.402 -13.265  1.00 55.20 LIG 0.13  C 
ATOM     31  C   MET R   3       1.266   0.147 -14.109  1.00 65.13 LIG 0.26  C 
ATOM     32  CG  PRO R   4       2.096   3.545 -14.143  1.00 51.34 LIG 0.02  C 
ATOM     33  CB  PRO R   4       3.290   3.062 -14.930  1.00 43.90 LIG 0.04  C 
ATOM     34 O    MET R   3       0.339  -0.012 -13.312  1.00 74.37 LIG-0.27  OA
BRANCH 31 35
ATOM     35  CA  MET R   3       1.555  -0.916 -15.167  1.00 67.30 LIG 0.40  C 
ATOM     36  N   MET R   3       2.727  -1.728 -14.852  1.00 55.69 LIG 0.61  N 
BRANCH 35 37
ATOM     37  CB  MET R   3       0.310  -1.798 -15.325  1.00 55.44 LIG 0.06  C 
BRANCH 37 38
ATOM     38  CG  MET R   3       0.127  -2.854 -14.257  1.00 49.90 LIG 0.08  C 
BRANCH 38 39
ATOM     39 SD   MET R   3      -1.405  -2.556 -13.356  1.00 67.63 LIG-0.17  SA
ATOM     40  CE  MET R   3      -0.771  -2.185 -11.721  1.00 69.90 LIG 0.09  C 
ENDBRANCH 38 39
ENDBRANCH 37 38
ENDBRANCH 35 37
ENDBRANCH 31 35
ENDBRANCH 1 28
TORSDOF 14
ENDMDL
MODEL 8
USER: ADFR SOLUTION from run 5
USER: SCORE 11.420553 LL:  -2.939 LR:  -8.909 RR:   0.000 FEB:  -4.733
USER: RMSD 5.179407
USER: SEED 743677
USER: STATUS no improvement in best in 10 clusters for 5 generations
USER: GENES 16
USER: genes 0 Translation |==|  0.51705 0.50963 0.61990
USER: genes 1 Rotation |==|  0.31978 0.73518 0.23927 0.80697
USER: genes 2 Torsion [N]-CA--C-[N] |==|  0.27374
USER: genes 3 Torsion [C]-N--CA-[CB] |==|  0.56178
USER: genes 4 Torsion [N]-CA--CB-[CG2] |==|  0.43096
USER: genes 5 Torsion [CA]-CB--OG1-[HG1] |==|  0.09314
USER: genes 6 Torsion [N]-CA--C-[N] |==|  0.32222
USER: genes 7 Torsion [C]-N--CA-[CB] |==|  0.83328
USER: genes 8 Torsion [N]-CA--CB-[CG] |==|  0.31474
USER: genes 9 Torsion [CA]-CB--CG-[CD1] |==|  0.31414
USER: genes 10 Torsion [N]-CA--C-[O] |==|  0.16602
USER: genes 11 Torsion [O]-C--CA-[N] |==|  0.03125
USER: genes 12 Torsion [N]-C--CA-[N] |==|  0.87432
USER: genes 13 Torsion [C]-CA--CB-[CG] |==|  0.61272
USER: genes 14 Torsion [CA]-CB--CG-[SD] |==|  0.42419
USER: genes 15 Torsion [CB]-CG--SD-[CE] |==|  0.06996
ROOT
ATOM      1  C   PRO R   4       6.073   0.356 -12.725  1.00 60.54 LIG 0.24  C 
ATOM      2 O    PRO R   4       5.021  -0.234 -12.471  1.00 63.53 LIG-0.27  OA
ATOM      3  N   PRO R   5       7.278  -0.239 -12.688  1.00 48.92 LIG-0.34  N 
ATOM      4  CA  PRO R   5       7.412  -1.649 -12.295  1.00 52.68 LIG 0.18  C 
ATOM      5  CB  PRO R   5       8.923  -1.895 -12.387  1.00 55.54 LIG 0.04  C 
ATOM      6  CG  PRO R   5       9.415  -0.902 -13.372  1.00 46.13 LIG 0.02  C 
ATOM      7  CD  PRO R   5       8.549   0.316 -13.189  1.00 43.47 LIG 0.13  C 
ENDROOT
BRANCH 4 8
ATOM      8  C   PRO R   5       6.929  -1.937 -10.871  1.00 58.07 LIG 0.24  C 
ATOM      9 O    PRO R   5       7.661  -1.715  -9.904  1.00 51.36 LIG-0.27  OA
ATOM     10  N   THR R   6       5.701  -2.437 -10.759  1.00 69.24 LIG-0.34  N 
ATOM     11 H    THR R   6       5.170  -2.550 -11.426  1.00 69.24 LIG 0.16  HD
BRANCH 10 12
ATOM     12  CA  THR R   6       5.141  -2.842  -9.475  1.00 55.31 LIG 0.20  C 
BRANCH 12 13
ATOM     13  CB  THR R   6       3.991  -3.859  -9.651  1.00 60.29 LIG 0.15  C 
ATOM     14  CG2 THR R   6       3.828  -4.714  -8.403  1.00 62.01 LIG 0.04  C 
BRANCH 13 15
ATOM     15 OG1  THR R   6       2.764  -3.161  -9.902  1.00 91.48 LIG-0.39  OA
ATOM     16 HG1  THR R   6       2.924  -2.464 -10.342  1.00 91.48 LIG 0.21  HD
ENDBRANCH 13 15
ENDBRANCH 12 13
BRANCH 12 17
ATOM     17  C   THR R   6       6.230  -3.460  -8.611  1.00 56.48 LIG 0.24  C 
ATOM     18  N   LEU R   7       6.531  -2.810  -7.490  1.00 43.78 LIG-0.35  N 
ATOM     19 H    LEU R   7       6.140  -2.089  -7.233  1.00 43.78 LIG 0.16  HD
ATOM     20 O    THR R   6       6.789  -4.504  -8.958  1.00 41.48 LIG-0.27  OA
BRANCH 18 21
ATOM     21  CA  LEU R   7       7.574  -3.285  -6.589  1.00 53.52 LIG 0.16  C 
BRANCH 21 22
ATOM     22  CB  LEU R   7       7.239  -4.688  -6.078  1.00 41.32 LIG 0.04  C 
BRANCH 22 23
ATOM     23  CG  LEU R   7       8.185  -5.794  -6.557  1.00 48.65 LIG-0.02  C 
ATOM     24  CD1 LEU R   7       8.994  -6.374  -5.403  1.00 40.28 LIG 0.01  C 
ATOM     25  CD2 LEU R   7       7.414  -6.893  -7.278  1.00 37.72 LIG 0.01  C 
ENDBRANCH 22 23
ENDBRANCH 21 22
BRANCH 21 26
ATOM     26  C   LEU R   7       8.944  -3.271  -7.262  1.00 46.73 LIG 0.22  C 
ATOM     27 O    LEU R   7       9.423  -2.220  -7.693  1.00 57.50 LIG-0.29  OA
ENDBRANCH 21 26
ENDBRANCH 18 21
ENDBRANCH 12 17
ENDBRANCH 10 12
ENDBRANCH 4 8
BRANCH 1 28
ATOM     28  CA  PRO R   4       6.018   1.834 -13.109  1.00 54.23 LIG 0.18  C 
ATOM     29  N   PRO R   4       4.679   2.367 -12.843  1.00 66.40 LIG-0.34  N 
ATOM     30  CD  PRO R   4       4.641   3.081 -11.559  1.00 55.20 LIG 0.13  C 
ATOM     31  C   MET R   3       3.607   2.357 -13.656  1.00 65.13 LIG 0.26  C 
ATOM     32  CG  PRO R   4       6.018   3.657 -11.479  1.00 51.34 LIG 0.02  C 
ATOM     33  CB  PRO R   4       6.917   2.658 -12.166  1.00 43.90 LIG 0.04  C 
ATOM     34 O    MET R   3       2.504   2.779 -13.301  1.00 74.37 LIG-0.27  OA
BRANCH 31 35
ATOM     35  CA  MET R   3       3.795   1.805 -15.067  1.00 67.30 LIG 0.40  C 
ATOM     36  N   MET R   3       5.006   2.302 -15.715  1.00 55.69 LIG 0.61  N 
BRANCH 35 37
ATOM     37  CB  MET R   3       3.808   0.273 -14.995  1.00 55.44 LIG 0.06  C 
BRANCH 37 38
ATOM     38  CG  MET R   3       4.828  -0.407 -15.881  1.00 49.90 LIG 0.08  C 
BRANCH 38 39
ATOM     39 SD   MET R   3       5.298  -1.995 -15.171  1.00 67.63 LIG-0.17  SA
ATOM     40  CE  MET R   3       3.843  -2.376 -14.196  1.00 69.90 LIG 0.09  C 
ENDBRANCH 38 39
ENDBRANCH 37 38
ENDBRANCH 35 37
ENDBRANCH 31 35
ENDBRANCH 1 28
TORSDOF 14
ENDMDL
MODEL 9
USER: ADFR SOLUTION from run 14
USER: SCORE 10.634606 LL:  -3.088 LR:  -8.756 RR:   0.000 FEB:  -4.580
USER: RMSD 3.099296
USER: SEED 507667
USER: STATUS no improvement in best in 7 clusters for 5 generations
USER: GENES 16
USER: genes 0 Translation |==|  0.39585 0.56515 0.57218
USER: genes 1 Rotation |==|  0.47823 0.51601 0.48771 0.99912
USER: genes 2 Torsion [N]-CA--C-[N] |==|  0.60298
USER: genes 3 Torsion [C]-N--CA-[CB] |==|  0.47222
USER: genes 4 Torsion [N]-CA--CB-[CG2] |==|  0.82679
USER: genes 5 Torsion [CA]-CB--OG1-[HG1] |==|  0.03245
USER: genes 6 Torsion [N]-CA--C-[N] |==|  0.27378
USER: genes 7 Torsion [C]-N--CA-[CB] |==|  0.47518
USER: genes 8 Torsion [N]-CA--CB-[CG] |==|  0.56144
USER: genes 9 Torsion [CA]-CB--CG-[CD1] |==|  0.25487
USER: genes 10 Torsion [N]-CA--C-[O] |==|  0.25431
USER: genes 11 Torsion [O]-C--CA-[N] |==|  0.93987
USER: genes 12 Torsion [N]-C--CA-[N] |==|  0.41930
USER: genes 13 Torsion [C]-CA--CB-[CG] |==|  0.95564
USER: genes 14 Torsion [CA]-CB--CG-[SD] |==|  0.27976
USER: genes 15 Torsion [CB]-CG--SD-[CE] |==|  0.30844
ROOT
ATOM      1  C   PRO R   4       3.891   1.480 -13.691  1.00 60.54 LIG 0.24  C 
ATOM      2 O    PRO R   4       4.311   0.710 -14.557  1.00 63.53 LIG-0.27  OA
ATOM      3  N   PRO R   5       4.570   1.762 -12.565  1.00 48.92 LIG-0.34  N 
ATOM      4  CA  PRO R   5       5.861   1.121 -12.282  1.00 52.68 LIG 0.18  C 
ATOM      5  CB  PRO R   5       6.257   1.718 -10.926  1.00 55.54 LIG 0.04  C 
ATOM      6  CG  PRO R   5       5.560   3.024 -10.863  1.00 46.13 LIG 0.02  C 
ATOM      7  CD  PRO R   5       4.259   2.827 -11.593  1.00 43.47 LIG 0.13  C 
ENDROOT
BRANCH 4 8
ATOM      8  C   PRO R   5       5.778  -0.404 -12.168  1.00 58.07 LIG 0.24  C 
ATOM      9 O    PRO R   5       5.017  -1.046 -12.897  1.00 51.36 LIG-0.27  OA
ATOM     10  N   THR R   6       6.557  -0.967 -11.249  1.00 69.24 LIG-0.34  N 
ATOM     11 H    THR R   6       7.122  -0.529 -10.771  1.00 69.24 LIG 0.16  HD
BRANCH 10 12
ATOM     12  CA  THR R   6       6.520  -2.398 -10.968  1.00 55.31 LIG 0.20  C 
BRANCH 12 13
ATOM     13  CB  THR R   6       7.684  -2.828 -10.047  1.00 60.29 LIG 0.15  C 
ATOM     14  CG2 THR R   6       9.027  -2.572 -10.716  1.00 62.01 LIG 0.04  C 
BRANCH 13 15
ATOM     15 OG1  THR R   6       7.625  -2.089  -8.820  1.00 91.48 LIG-0.39  OA
ATOM     16 HG1  THR R   6       6.890  -1.687  -8.770  1.00 91.48 LIG 0.21  HD
ENDBRANCH 13 15
ENDBRANCH 12 13
BRANCH 12 17
ATOM     17  C   THR R   6       5.198  -2.757 -10.307  1.00 56.48 LIG 0.24  C 
ATOM     18  N   LEU R   7       4.260  -3.262 -11.104  1.00 43.78 LIG-0.35  N 
ATOM     19 H    LEU R   7       4.370  -3.404 -11.946  1.00 43.78 LIG 0.16  HD
ATOM     20 O    THR R   6       5.031  -2.575  -9.099  1.00 41.48 LIG-0.27  OA
BRANCH 18 21
ATOM     21  CA  LEU R   7       2.941  -3.623 -10.599  1.00 53.52 LIG 0.16  C 
BRANCH 21 22
ATOM     22  CB  LEU R   7       2.002  -3.965 -11.758  1.00 41.32 LIG 0.04  C 
BRANCH 22 23
ATOM     23  CG  LEU R   7       0.509  -3.842 -11.439  1.00 48.65 LIG-0.02  C 
ATOM     24  CD1 LEU R   7      -0.022  -2.456 -11.781  1.00 40.28 LIG 0.01  C 
ATOM     25  CD2 LEU R   7      -0.291  -4.918 -12.165  1.00 37.72 LIG 0.01  C 
ENDBRANCH 22 23
ENDBRANCH 21 22
BRANCH 21 26
ATOM     26  C   LEU R   7       3.020  -4.785  -9.611  1.00 46.73 LIG 0.22  C 
ATOM     27 O    LEU R   7       3.141  -4.576  -8.403  1.00 57.50 LIG-0.29  OA
ENDBRANCH 21 26
ENDBRANCH 18 21
ENDBRANCH 12 17
ENDBRANCH 10 12
ENDBRANCH 4 8
BRANCH 1 28
ATOM     28  CA  PRO R   4       2.538   2.160 -13.898  1.00 54.23 LIG 0.18  C 
ATOM     29  N   PRO R   4       2.201   2.170 -15.324  1.00 66.40 LIG-0.34  N 
ATOM     30  CD  PRO R   4       1.282   1.071 -15.656  1.00 55.20 LIG 0.13  C 
ATOM     31  C   MET R   3       2.539   3.085 -16.250  1.00 65.13 LIG 0.26  C 
ATOM     32  CG  PRO R   4       0.477   0.946 -14.403  1.00 51.34 LIG 0.02  C 
ATOM     33  CB  PRO R   4       1.417   1.304 -13.278  1.00 43.90 LIG 0.04  C 
ATOM     34 O    MET R   3       2.253   2.957 -17.443  1.00 74.37 LIG-0.27  OA
BRANCH 31 35
ATOM     35  CA  MET R   3       3.299   4.322 -15.776  1.00 67.30 LIG 0.40  C 
ATOM     36  N   MET R   3       4.176   4.878 -16.803  1.00 55.69 LIG 0.61  N 
BRANCH 35 37
ATOM     37  CB  MET R   3       2.282   5.369 -15.305  1.00 55.44 LIG 0.06  C 
BRANCH 37 38
ATOM     38  CG  MET R   3       0.856   5.130 -15.750  1.00 49.90 LIG 0.08  C 
BRANCH 38 39
ATOM     39 SD   MET R   3      -0.095   4.403 -14.403  1.00 67.63 LIG-0.17  SA
ATOM     40  CE  MET R   3      -1.200   5.754 -13.998  1.00 69.90 LIG 0.09  C 
ENDBRANCH 38 39
ENDBRANCH 37 38
ENDBRANCH 35 37
ENDBRANCH 31 35
ENDBRANCH 1 28
TORSDOF 14
ENDMDL
MODEL 10
USER: ADFR SOLUTION from run 12
USER: SCORE 10.429748 LL:  -2.602 LR:  -8.742 RR:   0.000 FEB:  -4.566
USER: RMSD 3.074678
USER: SEED 743619
USER: STATUS no improvement in best in 5 clusters for 5 generations
USER: GENES 16
USER: genes 0 Translation |==|  0.39931 0.59137 0.57606
USER: genes 1 Rotation |==|  0.50749 0.53558 0.46933 0.99773
USER: genes 2 Torsion [N]-CA--C-[N] |==|  0.62007
USER: genes 3 Torsion [C]-N--CA-[CB] |==|  0.21654
USER: genes 4 Torsion [N]-CA--CB-[CG2] |==|  0.68660
USER: genes 5 Torsion [CA]-CB--OG1-[HG1] |==|  0.28310
USER: genes 6 Torsion [N]-CA--C-[N] |==|  0.44684
USER: genes 7 Torsion [C]-N--CA-[CB] |==|  0.20493
USER: genes 8 Torsion [N]-CA--CB-[CG] |==|  0.64033
USER: genes 9 Torsion [CA]-CB--CG-[CD1] |==|  0.75060
USER: genes 10 Torsion [N]-CA--C-[O] |==|  0.49917
USER: genes 11 Torsion [O]-C--CA-[N] |==|  0.95609
USER: genes 12 Torsion [N]-C--CA-[N] |==|  0.35051
USER: genes 13 Torsion [C]-CA--CB-[CG] |==|  0.04383
USER: genes 14 Torsion [CA]-CB--CG-[SD] |==|  0.38923
USER: genes 15 Torsion [CB]-CG--SD-[CE] |==|  0.61050
ROOT
ATOM      1  C   PRO R   4       3.954   2.011 -13.613  1.00 60.54 LIG 0.24  C 
ATOM      2 O    PRO R   4       4.248   1.320 -14.590  1.00 63.53 LIG-0.27  OA
ATOM      3  N   PRO R   5       4.728   2.105 -12.517  1.00 48.92 LIG-0.34  N 
ATOM      4  CA  PRO R   5       5.977   1.338 -12.408  1.00 52.68 LIG 0.18  C 
ATOM      5  CB  PRO R   5       6.512   1.738 -11.028  1.00 55.54 LIG 0.04  C 
ATOM      6  CG  PRO R   5       5.933   3.077 -10.764  1.00 46.13 LIG 0.02  C 
ATOM      7  CD  PRO R   5       4.574   3.067 -11.411  1.00 43.47 LIG 0.13  C 
ENDROOT
BRANCH 4 8
ATOM      8  C   PRO R   5       5.772  -0.178 -12.461  1.00 58.07 LIG 0.24  C 
ATOM      9 O    PRO R   5       4.993  -0.677 -13.278  1.00 51.36 LIG-0.27  OA
ATOM     10  N   THR R   6       6.470  -0.895 -11.584  1.00 69.24 LIG-0.34  N 
ATOM     11 H    THR R   6       7.048  -0.556 -11.045  1.00 69.24 LIG 0.16  HD
BRANCH 10 12
ATOM     12  CA  THR R   6       6.313  -2.340 -11.460  1.00 55.31 LIG 0.20  C 
BRANCH 12 13
ATOM     13  CB  THR R   6       7.052  -3.093 -12.588  1.00 60.29 LIG 0.15  C 
ATOM     14  CG2 THR R   6       6.065  -3.784 -13.516  1.00 62.01 LIG 0.04  C 
BRANCH 13 15
ATOM     15 OG1  THR R   6       7.839  -2.168 -13.349  1.00 91.48 LIG-0.39  OA
ATOM     16 HG1  THR R   6       8.645  -2.230 -13.120  1.00 91.48 LIG 0.21  HD
ENDBRANCH 13 15
ENDBRANCH 12 13
BRANCH 12 17
ATOM     17  C   THR R   6       6.849  -2.801 -10.113  1.00 56.48 LIG 0.24  C 
ATOM     18  N   LEU R   7       6.431  -3.991  -9.689  1.00 43.78 LIG-0.35  N 
ATOM     19 H    LEU R   7       5.900  -4.500 -10.135  1.00 43.78 LIG 0.16  HD
ATOM     20 O    THR R   6       7.624  -2.089  -9.469  1.00 41.48 LIG-0.27  OA
BRANCH 18 21
ATOM     21  CA  LEU R   7       6.851  -4.535  -8.404  1.00 53.52 LIG 0.16  C 
BRANCH 21 22
ATOM     22  CB  LEU R   7       6.141  -3.809  -7.260  1.00 41.32 LIG 0.04  C 
BRANCH 22 23
ATOM     23  CG  LEU R   7       7.062  -3.294  -6.149  1.00 48.65 LIG-0.02  C 
ATOM     24  CD1 LEU R   7       7.255  -4.339  -5.057  1.00 40.28 LIG 0.01  C 
ATOM     25  CD2 LEU R   7       8.406  -2.857  -6.717  1.00 37.72 LIG 0.01  C 
ENDBRANCH 22 23
ENDBRANCH 21 22
BRANCH 21 26
ATOM     26  C   LEU R   7       6.598  -6.039  -8.324  1.00 46.73 LIG 0.22  C 
ATOM     27 O    LEU R   7       6.896  -6.674  -7.311  1.00 57.50 LIG-0.29  OA
ENDBRANCH 21 26
ENDBRANCH 18 21
ENDBRANCH 12 17
ENDBRANCH 10 12
ENDBRANCH 4 8
BRANCH 1 28
ATOM     28  CA  PRO R   4       2.652   2.812 -13.637  1.00 54.23 LIG 0.18  C 
ATOM     29  N   PRO R   4       2.148   2.897 -15.011  1.00 66.40 LIG-0.34  N 
ATOM     30  CD  PRO R   4       1.101   1.893 -15.251  1.00 55.20 LIG 0.13  C 
ATOM     31  C   MET R   3       2.453   3.810 -15.950  1.00 65.13 LIG 0.26  C 
ATOM     32  CG  PRO R   4       0.444   1.798 -13.912  1.00 51.34 LIG 0.02  C 
ATOM     33  CB  PRO R   4       1.541   2.036 -12.903  1.00 43.90 LIG 0.04  C 
ATOM     34 O    MET R   3       2.015   3.746 -17.102  1.00 74.37 LIG-0.27  OA
BRANCH 31 35
ATOM     35  CA  MET R   3       3.372   4.960 -15.546  1.00 67.30 LIG 0.40  C 
ATOM     36  N   MET R   3       4.533   5.095 -16.422  1.00 55.69 LIG 0.61  N 
BRANCH 35 37
ATOM     37  CB  MET R   3       2.553   6.256 -15.527  1.00 55.44 LIG 0.06  C 
BRANCH 37 38
ATOM     38  CG  MET R   3       1.052   6.071 -15.523  1.00 49.90 LIG 0.08  C 
BRANCH 38 39
ATOM     39 SD   MET R   3       0.287   7.273 -14.419  1.00 67.63 LIG-0.17  SA
ATOM     40  CE  MET R   3      -0.985   6.271 -13.653  1.00 69.90 LIG 0.09  C 
ENDBRANCH 38 39
ENDBRANCH 37 38
ENDBRANCH 35 37
ENDBRANCH 31 35
ENDBRANCH 1 28
TORSDOF 14
ENDMDL
MODEL 11
USER: ADFR SOLUTION from run 78
USER: SCORE 11.596296 LL:  -3.073 LR:  -8.585 RR:   0.000 FEB:  -4.409
USER: RMSD 4.622011
USER: SEED 77
USER: STATUS no improvement in best in 15 clusters for 5 generations
USER: GENES 16
USER: genes 0 Translation |==|  0.51951 0.51341 0.60440
USER: genes 1 Rotation |==|  0.35813 0.78753 0.29491 0.82425
USER: genes 2 Torsion [N]-CA--C-[N] |==|  0.99322
USER: genes 3 Torsion [C]-N--CA-[CB] |==|  0.86111
USER: genes 4 Torsion [N]-CA--CB-[CG2] |==|  0.56463
USER: genes 5 Torsion [CA]-CB--OG1-[HG1] |==|  0.64902
USER: genes 6 Torsion [N]-CA--C-[N] |==|  0.36396
USER: genes 7 Torsion [C]-N--CA-[CB] |==|  0.82601
USER: genes 8 Torsion [N]-CA--CB-[CG] |==|  0.83686
USER: genes 9 Torsion [CA]-CB--CG-[CD1] |==|  0.93482
USER: genes 10 Torsion [N]-CA--C-[O] |==|  0.35177
USER: genes 11 Torsion [O]-C--CA-[N] |==|  0.01907
USER: genes 12 Torsion [N]-C--CA-[N] |==|  0.39516
USER: genes 13 Torsion [C]-CA--CB-[CG] |==|  0.24915
USER: genes 14 Torsion [CA]-CB--CG-[SD] |==|  0.64726
USER: genes 15 Torsion [CB]-CG--SD-[CE] |==|  0.35523
ROOT
ATOM      1  C   PRO R   4       6.117   0.432 -13.039  1.00 60.54 LIG 0.24  C 
ATOM      2 O    PRO R   4       5.101  -0.250 -12.899  1.00 63.53 LIG-0.27  OA
ATOM      3  N   PRO R   5       7.326  -0.092 -13.310  1.00 48.92 LIG-0.34  N 
ATOM      4  CA  PRO R   5       7.510  -1.546 -13.416  1.00 52.68 LIG 0.18  C 
ATOM      5  CB  PRO R   5       9.006  -1.687 -13.720  1.00 55.54 LIG 0.04  C 
ATOM      6  CG  PRO R   5       9.389  -0.408 -14.364  1.00 46.13 LIG 0.02  C 
ATOM      7  CD  PRO R   5       8.536   0.647 -13.713  1.00 43.47 LIG 0.13  C 
ENDROOT
BRANCH 4 8
ATOM      8  C   PRO R   5       7.172  -2.304 -12.129  1.00 58.07 LIG 0.24  C 
ATOM      9 O    PRO R   5       7.233  -3.535 -12.092  1.00 51.36 LIG-0.27  OA
ATOM     10  N   THR R   6       6.813  -1.558 -11.087  1.00 69.24 LIG-0.34  N 
ATOM     11 H    THR R   6       6.814  -0.698 -11.094  1.00 69.24 LIG 0.16  HD
BRANCH 10 12
ATOM     12  CA  THR R   6       6.380  -2.145  -9.824  1.00 55.31 LIG 0.20  C 
BRANCH 12 13
ATOM     13  CB  THR R   6       5.292  -3.221 -10.039  1.00 60.29 LIG 0.15  C 
ATOM     14  CG2 THR R   6       4.460  -3.409  -8.779  1.00 62.01 LIG 0.04  C 
BRANCH 13 15
ATOM     15 OG1  THR R   6       4.430  -2.826 -11.114  1.00 91.48 LIG-0.39  OA
ATOM     16 HG1  THR R   6       3.632  -2.841 -10.852  1.00 91.48 LIG 0.21  HD
ENDBRANCH 13 15
ENDBRANCH 12 13
BRANCH 12 17
ATOM     17  C   THR R   6       7.571  -2.770  -9.113  1.00 56.48 LIG 0.24  C 
ATOM     18  N   LEU R   7       7.725  -2.449  -7.830  1.00 43.78 LIG-0.35  N 
ATOM     19 H    LEU R   7       7.190  -1.933  -7.397  1.00 43.78 LIG 0.16  HD
ATOM     20 O    THR R   6       8.337  -3.524  -9.716  1.00 41.48 LIG-0.27  OA
BRANCH 18 21
ATOM     21  CA  LEU R   7       8.839  -2.961  -7.043  1.00 53.52 LIG 0.16  C 
BRANCH 21 22
ATOM     22  CB  LEU R   7       8.767  -4.486  -6.946  1.00 41.32 LIG 0.04  C 
BRANCH 22 23
ATOM     23  CG  LEU R   7       7.483  -5.035  -6.317  1.00 48.65 LIG-0.02  C 
ATOM     24  CD1 LEU R   7       6.815  -4.000  -5.419  1.00 40.28 LIG 0.01  C 
ATOM     25  CD2 LEU R   7       6.516  -5.518  -7.391  1.00 37.72 LIG 0.01  C 
ENDBRANCH 22 23
ENDBRANCH 21 22
BRANCH 21 26
ATOM     26  C   LEU R   7      10.182  -2.523  -7.624  1.00 46.73 LIG 0.22  C 
ATOM     27 O    LEU R   7      11.017  -1.953  -6.920  1.00 57.50 LIG-0.29  OA
ENDBRANCH 21 26
ENDBRANCH 18 21
ENDBRANCH 12 17
ENDBRANCH 10 12
ENDBRANCH 4 8
BRANCH 1 28
ATOM     28  CA  PRO R   4       6.012   1.951 -12.908  1.00 54.23 LIG 0.18  C 
ATOM     29  N   PRO R   4       4.666   2.319 -12.461  1.00 66.40 LIG-0.34  N 
ATOM     30  CD  PRO R   4       4.641   2.564 -11.012  1.00 55.20 LIG 0.13  C 
ATOM     31  C   MET R   3       3.575   2.543 -13.215  1.00 65.13 LIG 0.26  C 
ATOM     32  CG  PRO R   4       6.002   3.128 -10.765  1.00 51.34 LIG 0.02  C 
ATOM     33  CB  PRO R   4       6.911   2.446 -11.758  1.00 43.90 LIG 0.04  C 
ATOM     34 O    MET R   3       2.469   2.785 -12.724  1.00 74.37 LIG-0.27  OA
BRANCH 31 35
ATOM     35  CA  MET R   3       3.742   2.497 -14.732  1.00 67.30 LIG 0.40  C 
ATOM     36  N   MET R   3       2.601   1.891 -15.412  1.00 55.69 LIG 0.61  N 
BRANCH 35 37
ATOM     37  CB  MET R   3       3.981   3.924 -15.240  1.00 55.44 LIG 0.06  C 
BRANCH 37 38
ATOM     38  CG  MET R   3       5.430   4.357 -15.293  1.00 49.90 LIG 0.08  C 
BRANCH 38 39
ATOM     39 SD   MET R   3       5.641   5.911 -14.405  1.00 67.63 LIG-0.17  SA
ATOM     40  CE  MET R   3       6.988   5.492 -13.300  1.00 69.90 LIG 0.09  C 
ENDBRANCH 38 39
ENDBRANCH 37 38
ENDBRANCH 35 37
ENDBRANCH 31 35
ENDBRANCH 1 28
TORSDOF 14
ENDMDL
MODEL 12
USER: ADFR SOLUTION from run 3
USER: SCORE 10.975024 LL:  -2.580 LR:  -8.453 RR:   0.000 FEB:  -4.277
USER: RMSD 4.566639
USER: SEED 186259
USER: STATUS no improvement in best in 19 clusters for 5 generations
USER: GENES 16
USER: genes 0 Translation |==|  0.52511 0.51359 0.61386
USER: genes 1 Rotation |==|  0.26564 0.77808 0.29434 0.77468
USER: genes 2 Torsion [N]-CA--C-[N] |==|  0.54471
USER: genes 3 Torsion [C]-N--CA-[CB] |==|  0.84570
USER: genes 4 Torsion [N]-CA--CB-[CG2] |==|  0.57572
USER: genes 5 Torsion [CA]-CB--OG1-[HG1] |==|  0.00060
USER: genes 6 Torsion [N]-CA--C-[N] |==|  0.35015
USER: genes 7 Torsion [C]-N--CA-[CB] |==|  0.82252
USER: genes 8 Torsion [N]-CA--CB-[CG] |==|  0.84851
USER: genes 9 Torsion [CA]-CB--CG-[CD1] |==|  0.94593
USER: genes 10 Torsion [N]-CA--C-[O] |==|  0.65046
USER: genes 11 Torsion [O]-C--CA-[N] |==|  0.02343
USER: genes 12 Torsion [N]-C--CA-[N] |==|  0.21837
USER: genes 13 Torsion [C]-CA--CB-[CG] |==|  0.17759
USER: genes 14 Torsion [CA]-CB--CG-[SD] |==|  0.60799
USER: genes 15 Torsion [CB]-CG--SD-[CE] |==|  0.02962
ROOT
ATOM      1  C   PRO R   4       6.218   0.436 -12.847  1.00 60.54 LIG 0.24  C 
ATOM      2 O    PRO R   4       5.391  -0.263 -12.259  1.00 63.53 LIG-0.27  OA
ATOM      3  N   PRO R   5       7.414  -0.025 -13.256  1.00 48.92 LIG-0.34  N 
ATOM      4  CA  PRO R   5       7.823  -1.409 -12.981  1.00 52.68 LIG 0.18  C 
ATOM      5  CB  PRO R   5       9.221  -1.490 -13.606  1.00 55.54 LIG 0.04  C 
ATOM      6  CG  PRO R   5       9.228  -0.456 -14.668  1.00 46.13 LIG 0.02  C 
ATOM      7  CD  PRO R   5       8.361   0.662 -14.153  1.00 43.47 LIG 0.13  C 
ENDROOT
BRANCH 4 8
ATOM      8  C   PRO R   5       7.906  -1.740 -11.489  1.00 58.07 LIG 0.24  C 
ATOM      9 O    PRO R   5       7.376  -1.002 -10.653  1.00 51.36 LIG-0.27  OA
ATOM     10  N   THR R   6       8.576  -2.843 -11.169  1.00 69.24 LIG-0.34  N 
ATOM     11 H    THR R   6       8.907  -3.385 -11.750  1.00 69.24 LIG 0.16  HD
BRANCH 10 12
ATOM     12  CA  THR R   6       8.812  -3.237  -9.785  1.00 55.31 LIG 0.20  C 
BRANCH 12 13
ATOM     13  CB  THR R   6       9.515  -2.117  -8.986  1.00 60.29 LIG 0.15  C 
ATOM     14  CG2 THR R   6      10.333  -2.697  -7.843  1.00 62.01 LIG 0.04  C 
BRANCH 13 15
ATOM     15 OG1  THR R   6      10.384  -1.378  -9.855  1.00 91.48 LIG-0.39  OA
ATOM     16 HG1  THR R   6      10.341  -1.697 -10.630  1.00 91.48 LIG 0.21  HD
ENDBRANCH 13 15
ENDBRANCH 12 13
BRANCH 12 17
ATOM     17  C   THR R   6       7.489  -3.577  -9.115  1.00 56.48 LIG 0.24  C 
ATOM     18  N   LEU R   7       7.413  -4.773  -8.536  1.00 43.78 LIG-0.35  N 
ATOM     19 H    LEU R   7       8.062  -5.337  -8.511  1.00 43.78 LIG 0.16  HD
ATOM     20 O    THR R   6       6.555  -2.772  -9.127  1.00 41.48 LIG-0.27  OA
BRANCH 18 21
ATOM     21  CA  LEU R   7       6.193  -5.229  -7.882  1.00 53.52 LIG 0.16  C 
BRANCH 21 22
ATOM     22  CB  LEU R   7       5.868  -4.339  -6.680  1.00 41.32 LIG 0.04  C 
BRANCH 22 23
ATOM     23  CG  LEU R   7       6.997  -4.197  -5.655  1.00 48.65 LIG-0.02  C 
ATOM     24  CD1 LEU R   7       8.016  -5.322  -5.788  1.00 40.28 LIG 0.01  C 
ATOM     25  CD2 LEU R   7       7.676  -2.839  -5.780  1.00 37.72 LIG 0.01  C 
ENDBRANCH 22 23
ENDBRANCH 21 22
BRANCH 21 26
ATOM     26  C   LEU R   7       5.017  -5.267  -8.856  1.00 46.73 LIG 0.22  C 
ATOM     27 O    LEU R   7       3.969  -4.674  -8.599  1.00 57.50 LIG-0.29  OA
ENDBRANCH 21 26
ENDBRANCH 18 21
ENDBRANCH 12 17
ENDBRANCH 10 12
ENDBRANCH 4 8
BRANCH 1 28
ATOM     28  CA  PRO R   4       5.879   1.897 -13.139  1.00 54.23 LIG 0.18  C 
ATOM     29  N   PRO R   4       4.635   2.264 -12.456  1.00 66.40 LIG-0.34  N 
ATOM     30  CD  PRO R   4       4.914   2.966 -11.195  1.00 55.20 LIG 0.13  C 
ATOM     31  C   MET R   3       3.373   2.126 -12.901  1.00 65.13 LIG 0.26  C 
ATOM     32  CG  PRO R   4       6.172   3.704 -11.518  1.00 51.34 LIG 0.02  C 
ATOM     33  CB  PRO R   4       6.924   2.822 -12.485  1.00 43.90 LIG 0.04  C 
ATOM     34 O    MET R   3       2.393   2.411 -12.210  1.00 74.37 LIG-0.27  OA
BRANCH 31 35
ATOM     35  CA  MET R   3       3.179   1.602 -14.322  1.00 67.30 LIG 0.40  C 
ATOM     36  N   MET R   3       3.343   0.154 -14.421  1.00 55.69 LIG 0.61  N 
BRANCH 35 37
ATOM     37  CB  MET R   3       1.790   2.026 -14.813  1.00 55.44 LIG 0.06  C 
BRANCH 37 38
ATOM     38  CG  MET R   3       1.578   3.518 -14.943  1.00 49.90 LIG 0.08  C 
BRANCH 38 39
ATOM     39 SD   MET R   3      -0.086   3.952 -14.404  1.00 67.63 LIG-0.17  SA
ATOM     40  CE  MET R   3      -0.613   2.413 -13.653  1.00 69.90 LIG 0.09  C 
ENDBRANCH 38 39
ENDBRANCH 37 38
ENDBRANCH 35 37
ENDBRANCH 31 35
ENDBRANCH 1 28
TORSDOF 14
ENDMDL
MODEL 13
USER: ADFR SOLUTION from run 161
USER: SCORE 11.008362 LL:  -2.595 LR:  -8.432 RR:   0.000 FEB:  -4.256
USER: RMSD 4.574355
USER: SEED 160
USER: STATUS no improvement in best in 12 clusters for 5 generations
USER: GENES 16
USER: genes 0 Translation |==|  0.49701 0.51126 0.58529
USER: genes 1 Rotation |==|  0.21740 0.78416 0.30110 0.72323
USER: genes 2 Torsion [N]-CA--C-[N] |==|  0.49526
USER: genes 3 Torsion [C]-N--CA-[CB] |==|  0.84960
USER: genes 4 Torsion [N]-CA--CB-[CG2] |==|  0.49466
USER: genes 5 Torsion [CA]-CB--OG1-[HG1] |==|  0.59417
USER: genes 6 Torsion [N]-CA--C-[N] |==|  0.37049
USER: genes 7 Torsion [C]-N--CA-[CB] |==|  0.29197
USER: genes 8 Torsion [N]-CA--CB-[CG] |==|  0.84446
USER: genes 9 Torsion [CA]-CB--CG-[CD1] |==|  0.49439
USER: genes 10 Torsion [N]-CA--C-[O] |==|  0.20941
USER: genes 11 Torsion [O]-C--CA-[N] |==|  0.02226
USER: genes 12 Torsion [N]-C--CA-[N] |==|  0.18113
USER: genes 13 Torsion [C]-CA--CB-[CG] |==|  0.81912
USER: genes 14 Torsion [CA]-CB--CG-[SD] |==|  0.76161
USER: genes 15 Torsion [CB]-CG--SD-[CE] |==|  0.47239
ROOT
ATOM      1  C   PRO R   4       5.712   0.389 -13.426  1.00 60.54 LIG 0.24  C 
ATOM      2 O    PRO R   4       5.063  -0.199 -12.558  1.00 63.53 LIG-0.27  OA
ATOM      3  N   PRO R   5       6.812  -0.130 -14.002  1.00 48.92 LIG-0.34  N 
ATOM      4  CA  PRO R   5       7.332  -1.440 -13.589  1.00 52.68 LIG 0.18  C 
ATOM      5  CB  PRO R   5       8.565  -1.623 -14.482  1.00 55.54 LIG 0.04  C 
ATOM      6  CG  PRO R   5       8.297  -0.794 -15.681  1.00 46.13 LIG 0.02  C 
ATOM      7  CD  PRO R   5       7.512   0.392 -15.190  1.00 43.47 LIG 0.13  C 
ENDROOT
BRANCH 4 8
ATOM      8  C   PRO R   5       7.750  -1.499 -12.117  1.00 58.07 LIG 0.24  C 
ATOM      9 O    PRO R   5       7.671  -0.496 -11.403  1.00 51.36 LIG-0.27  OA
ATOM     10  N   THR R   6       8.196  -2.673 -11.680  1.00 69.24 LIG-0.34  N 
ATOM     11 H    THR R   6       8.209  -3.386 -12.161  1.00 69.24 LIG 0.16  HD
BRANCH 10 12
ATOM     12  CA  THR R   6       8.710  -2.856 -10.327  1.00 55.31 LIG 0.20  C 
BRANCH 12 13
ATOM     13  CB  THR R   6       9.834  -1.847 -10.004  1.00 60.29 LIG 0.15  C 
ATOM     14  CG2 THR R   6      10.325  -2.022  -8.575  1.00 62.01 LIG 0.04  C 
BRANCH 13 15
ATOM     15 OG1  THR R   6      10.933  -2.046 -10.902  1.00 91.48 LIG-0.39  OA
ATOM     16 HG1  THR R   6      11.654  -1.886 -10.503  1.00 91.48 LIG 0.21  HD
ENDBRANCH 13 15
ENDBRANCH 12 13
BRANCH 12 17
ATOM     17  C   THR R   6       7.580  -2.689  -9.322  1.00 56.48 LIG 0.24  C 
ATOM     18  N   LEU R   7       7.499  -3.616  -8.370  1.00 43.78 LIG-0.35  N 
ATOM     19 H    LEU R   7       8.047  -4.274  -8.292  1.00 43.78 LIG 0.16  HD
ATOM     20 O    THR R   6       6.796  -1.741  -9.411  1.00 41.48 LIG-0.27  OA
BRANCH 18 21
ATOM     21  CA  LEU R   7       6.447  -3.584  -7.361  1.00 53.52 LIG 0.16  C 
BRANCH 21 22
ATOM     22  CB  LEU R   7       5.393  -4.653  -7.657  1.00 41.32 LIG 0.04  C 
BRANCH 22 23
ATOM     23  CG  LEU R   7       4.757  -4.569  -9.048  1.00 48.65 LIG-0.02  C 
ATOM     24  CD1 LEU R   7       3.759  -5.697  -9.273  1.00 40.28 LIG 0.01  C 
ATOM     25  CD2 LEU R   7       4.093  -3.214  -9.260  1.00 37.72 LIG 0.01  C 
ENDBRANCH 22 23
ENDBRANCH 21 22
BRANCH 21 26
ATOM     26  C   LEU R   7       7.015  -3.763  -5.955  1.00 46.73 LIG 0.22  C 
ATOM     27 O    LEU R   7       7.607  -2.841  -5.393  1.00 57.50 LIG-0.29  OA
ENDBRANCH 21 26
ENDBRANCH 18 21
ENDBRANCH 12 17
ENDBRANCH 10 12
ENDBRANCH 4 8
BRANCH 1 28
ATOM     28  CA  PRO R   4       5.252   1.772 -13.884  1.00 54.23 LIG 0.18  C 
ATOM     29  N   PRO R   4       4.163   2.243 -13.024  1.00 66.40 LIG-0.34  N 
ATOM     30  CD  PRO R   4       4.665   3.160 -11.991  1.00 55.20 LIG 0.13  C 
ATOM     31  C   MET R   3       2.844   2.017 -13.159  1.00 65.13 LIG 0.26  C 
ATOM     32  CG  PRO R   4       5.793   3.840 -12.696  1.00 51.34 LIG 0.02  C 
ATOM     33  CB  PRO R   4       6.367   2.808 -13.636  1.00 43.90 LIG 0.04  C 
ATOM     34 O    MET R   3       2.016   2.411 -12.334  1.00 74.37 LIG-0.27  OA
BRANCH 31 35
ATOM     35  CA  MET R   3       2.382   1.248 -14.396  1.00 67.30 LIG 0.40  C 
ATOM     36  N   MET R   3       2.862  -0.131 -14.419  1.00 55.69 LIG 0.61  N 
BRANCH 35 37
ATOM     37  CB  MET R   3       0.850   1.291 -14.453  1.00 55.44 LIG 0.06  C 
BRANCH 37 38
ATOM     38  CG  MET R   3       0.141   0.575 -13.323  1.00 49.90 LIG 0.08  C 
BRANCH 38 39
ATOM     39 SD   MET R   3      -0.043  -1.172 -13.723  1.00 67.63 LIG-0.17  SA
ATOM     40  CE  MET R   3      -0.609  -1.823 -12.152  1.00 69.90 LIG 0.09  C 
ENDBRANCH 38 39
ENDBRANCH 37 38
ENDBRANCH 35 37
ENDBRANCH 31 35
ENDBRANCH 1 28
TORSDOF 14
ENDMDL
MODEL 14
USER: ADFR SOLUTION from run 28
USER: SCORE 10.948073 LL:  -3.271 LR:  -8.379 RR:   0.000 FEB:  -4.203
USER: RMSD 5.042907
USER: SEED 27
USER: STATUS no improvement in best in 9 clusters for 5 generations
USER: GENES 16
USER: genes 0 Translation |==|  0.50707 0.51165 0.62669
USER: genes 1 Rotation |==|  0.35815 0.66590 0.26615 0.88428
USER: genes 2 Torsion [N]-CA--C-[N] |==|  0.26274
USER: genes 3 Torsion [C]-N--CA-[CB] |==|  0.52222
USER: genes 4 Torsion [N]-CA--CB-[CG2] |==|  0.51747
USER: genes 5 Torsion [CA]-CB--OG1-[HG1] |==|  0.84809
USER: genes 6 Torsion [N]-CA--C-[N] |==|  0.29089
USER: genes 7 Torsion [C]-N--CA-[CB] |==|  0.16076
USER: genes 8 Torsion [N]-CA--CB-[CG] |==|  0.37004
USER: genes 9 Torsion [CA]-CB--CG-[CD1] |==|  0.36476
USER: genes 10 Torsion [N]-CA--C-[O] |==|  0.86470
USER: genes 11 Torsion [O]-C--CA-[N] |==|  0.86550
USER: genes 12 Torsion [N]-C--CA-[N] |==|  0.43352
USER: genes 13 Torsion [C]-CA--CB-[CG] |==|  0.29717
USER: genes 14 Torsion [CA]-CB--CG-[SD] |==|  0.69074
USER: genes 15 Torsion [CB]-CG--SD-[CE] |==|  0.43696
ROOT
ATOM      1  C   PRO R   4       5.893   0.397 -12.587  1.00 60.54 LIG 0.24  C 
ATOM      2 O    PRO R   4       5.016  -0.450 -12.769  1.00 63.53 LIG-0.27  OA
ATOM      3  N   PRO R   5       7.130   0.094 -12.155  1.00 48.92 LIG-0.34  N 
ATOM      4  CA  PRO R   5       7.498  -1.291 -11.830  1.00 52.68 LIG 0.18  C 
ATOM      5  CB  PRO R   5       8.960  -1.168 -11.384  1.00 55.54 LIG 0.04  C 
ATOM      6  CG  PRO R   5       9.467   0.051 -12.059  1.00 46.13 LIG 0.02  C 
ATOM      7  CD  PRO R   5       8.297   0.995 -12.125  1.00 43.47 LIG 0.13  C 
ENDROOT
BRANCH 4 8
ATOM      8  C   PRO R   5       6.664  -1.898 -10.699  1.00 58.07 LIG 0.24  C 
ATOM      9 O    PRO R   5       6.987  -1.726  -9.521  1.00 51.36 LIG-0.27  OA
ATOM     10  N   THR R   6       5.603  -2.609 -11.070  1.00 69.24 LIG-0.34  N 
ATOM     11 H    THR R   6       5.348  -2.693 -11.887  1.00 69.24 LIG 0.16  HD
BRANCH 10 12
ATOM     12  CA  THR R   6       4.767  -3.319 -10.108  1.00 55.31 LIG 0.20  C 
BRANCH 12 13
ATOM     13  CB  THR R   6       3.728  -4.220 -10.812  1.00 60.29 LIG 0.15  C 
ATOM     14  CG2 THR R   6       2.768  -4.831  -9.803  1.00 62.01 LIG 0.04  C 
BRANCH 13 15
ATOM     15 OG1  THR R   6       2.981  -3.445 -11.758  1.00 91.48 LIG-0.39  OA
ATOM     16 HG1  THR R   6       2.643  -2.781 -11.372  1.00 91.48 LIG 0.21  HD
ENDBRANCH 13 15
ENDBRANCH 12 13
BRANCH 12 17
ATOM     17  C   THR R   6       5.640  -4.173  -9.201  1.00 56.48 LIG 0.24  C 
ATOM     18  N   LEU R   7       5.829  -3.715  -7.965  1.00 43.78 LIG-0.35  N 
ATOM     19 H    LEU R   7       5.478  -2.990  -7.663  1.00 43.78 LIG 0.16  HD
ATOM     20 O    THR R   6       6.136  -5.223  -9.615  1.00 41.48 LIG-0.27  OA
BRANCH 18 21
ATOM     21  CA  LEU R   7       6.664  -4.426  -7.007  1.00 53.52 LIG 0.16  C 
BRANCH 21 22
ATOM     22  CB  LEU R   7       8.081  -4.597  -7.559  1.00 41.32 LIG 0.04  C 
BRANCH 22 23
ATOM     23  CG  LEU R   7       9.205  -4.244  -6.579  1.00 48.65 LIG-0.02  C 
ATOM     24  CD1 LEU R   7      10.264  -5.338  -6.528  1.00 40.28 LIG 0.01  C 
ATOM     25  CD2 LEU R   7       9.835  -2.903  -6.937  1.00 37.72 LIG 0.01  C 
ENDBRANCH 22 23
ENDBRANCH 21 22
BRANCH 21 26
ATOM     26  C   LEU R   7       6.696  -3.715  -5.656  1.00 46.73 LIG 0.22  C 
ATOM     27 O    LEU R   7       6.916  -2.504  -5.588  1.00 57.50 LIG-0.29  OA
ENDBRANCH 21 26
ENDBRANCH 18 21
ENDBRANCH 12 17
ENDBRANCH 10 12
ENDBRANCH 4 8
BRANCH 1 28
ATOM     28  CA  PRO R   4       5.576   1.865 -12.870  1.00 54.23 LIG 0.18  C 
ATOM     29  N   PRO R   4       4.939   1.990 -14.185  1.00 66.40 LIG-0.34  N 
ATOM     30  CD  PRO R   4       3.478   2.083 -14.055  1.00 55.20 LIG 0.13  C 
ATOM     31  C   MET R   3       5.533   2.130 -15.383  1.00 65.13 LIG 0.26  C 
ATOM     32  CG  PRO R   4       3.323   2.808 -12.758  1.00 51.34 LIG 0.02  C 
ATOM     33  CB  PRO R   4       4.485   2.365 -11.903  1.00 43.90 LIG 0.04  C 
ATOM     34 O    MET R   3       4.895   2.161 -16.438  1.00 74.37 LIG-0.27  OA
BRANCH 31 35
ATOM     35  CA  MET R   3       7.054   2.261 -15.407  1.00 67.30 LIG 0.40  C 
ATOM     36  N   MET R   3       7.639   1.856 -16.683  1.00 55.69 LIG 0.61  N 
BRANCH 35 37
ATOM     37  CB  MET R   3       7.425   3.711 -15.075  1.00 55.44 LIG 0.06  C 
BRANCH 37 38
ATOM     38  CG  MET R   3       8.015   3.928 -13.698  1.00 49.90 LIG 0.08  C 
BRANCH 38 39
ATOM     39 SD   MET R   3       6.859   4.855 -12.674  1.00 67.63 LIG-0.17  SA
ATOM     40  CE  MET R   3       7.411   4.394 -11.033  1.00 69.90 LIG 0.09  C 
ENDBRANCH 38 39
ENDBRANCH 37 38
ENDBRANCH 35 37
ENDBRANCH 31 35
ENDBRANCH 1 28
TORSDOF 14
ENDMDL
MODEL 15
USER: ADFR SOLUTION from run 96
USER: SCORE 10.708973 LL:  -2.801 LR:  -8.375 RR:   0.000 FEB:  -4.199
USER: RMSD 4.931294
USER: SEED 95
USER: STATUS no improvement in best in 9 clusters for 5 generations
USER: GENES 16
USER: genes 0 Translation |==|  0.51238 0.50462 0.61062
USER: genes 1 Rotation |==|  0.31718 0.70747 0.25542 0.83721
USER: genes 2 Torsion [N]-CA--C-[N] |==|  0.25589
USER: genes 3 Torsion [C]-N--CA-[CB] |==|  0.56367
USER: genes 4 Torsion [N]-CA--CB-[CG2] |==|  0.49566
USER: genes 5 Torsion [CA]-CB--OG1-[HG1] |==|  0.95766
USER: genes 6 Torsion [N]-CA--C-[N] |==|  0.29444
USER: genes 7 Torsion [C]-N--CA-[CB] |==|  0.29766
USER: genes 8 Torsion [N]-CA--CB-[CG] |==|  0.68858
USER: genes 9 Torsion [CA]-CB--CG-[CD1] |==|  0.21518
USER: genes 10 Torsion [N]-CA--C-[O] |==|  0.18279
USER: genes 11 Torsion [O]-C--CA-[N] |==|  0.86799
USER: genes 12 Torsion [N]-C--CA-[N] |==|  0.26859
USER: genes 13 Torsion [C]-CA--CB-[CG] |==|  0.50874
USER: genes 14 Torsion [CA]-CB--CG-[SD] |==|  0.75011
USER: genes 15 Torsion [CB]-CG--SD-[CE] |==|  0.38398
ROOT
ATOM      1  C   PRO R   4       5.989   0.254 -12.913  1.00 60.54 LIG 0.24  C 
ATOM      2 O    PRO R   4       5.016  -0.487 -12.763  1.00 63.53 LIG-0.27  OA
ATOM      3  N   PRO R   5       7.260  -0.158 -12.761  1.00 48.92 LIG-0.34  N 
ATOM      4  CA  PRO R   5       7.562  -1.539 -12.361  1.00 52.68 LIG 0.18  C 
ATOM      5  CB  PRO R   5       9.094  -1.560 -12.307  1.00 55.54 LIG 0.04  C 
ATOM      6  CG  PRO R   5       9.526  -0.489 -13.237  1.00 46.13 LIG 0.02  C 
ATOM      7  CD  PRO R   5       8.477   0.585 -13.136  1.00 43.47 LIG 0.13  C 
ENDROOT
BRANCH 4 8
ATOM      8  C   PRO R   5       6.993  -1.920 -10.991  1.00 58.07 LIG 0.24  C 
ATOM      9 O    PRO R   5       7.644  -1.714  -9.964  1.00 51.36 LIG-0.27  OA
ATOM     10  N   THR R   6       5.786  -2.477 -10.992  1.00 69.24 LIG-0.34  N 
ATOM     11 H    THR R   6       5.309  -2.580 -11.701  1.00 69.24 LIG 0.16  HD
BRANCH 10 12
ATOM     12  CA  THR R   6       5.155  -2.970  -9.773  1.00 55.31 LIG 0.20  C 
BRANCH 12 13
ATOM     13  CB  THR R   6       4.082  -4.038 -10.078  1.00 60.29 LIG 0.15  C 
ATOM     14  CG2 THR R   6       3.463  -4.568  -8.793  1.00 62.01 LIG 0.04  C 
BRANCH 13 15
ATOM     15 OG1  THR R   6       3.050  -3.465 -10.892  1.00 91.48 LIG-0.39  OA
ATOM     16 HG1  THR R   6       3.111  -2.628 -10.873  1.00 91.48 LIG 0.21  HD
ENDBRANCH 13 15
ENDBRANCH 12 13
BRANCH 12 17
ATOM     17  C   THR R   6       6.211  -3.568  -8.854  1.00 56.48 LIG 0.24  C 
ATOM     18  N   LEU R   7       6.538  -2.845  -7.786  1.00 43.78 LIG-0.35  N 
ATOM     19 H    LEU R   7       6.180  -2.088  -7.590  1.00 43.78 LIG 0.16  HD
ATOM     20 O    THR R   6       6.722  -4.660  -9.113  1.00 41.48 LIG-0.27  OA
BRANCH 18 21
ATOM     21  CA  LEU R   7       7.553  -3.294  -6.842  1.00 53.52 LIG 0.16  C 
BRANCH 21 22
ATOM     22  CB  LEU R   7       8.829  -2.464  -6.997  1.00 41.32 LIG 0.04  C 
BRANCH 22 23
ATOM     23  CG  LEU R   7      10.036  -3.227  -7.553  1.00 48.65 LIG-0.02  C 
ATOM     24  CD1 LEU R   7       9.926  -3.420  -9.060  1.00 40.28 LIG 0.01  C 
ATOM     25  CD2 LEU R   7      11.337  -2.520  -7.195  1.00 37.72 LIG 0.01  C 
ENDBRANCH 22 23
ENDBRANCH 21 22
BRANCH 21 26
ATOM     26  C   LEU R   7       7.046  -3.235  -5.403  1.00 46.73 LIG 0.22  C 
ATOM     27 O    LEU R   7       6.126  -3.965  -5.029  1.00 57.50 LIG-0.29  OA
ENDBRANCH 21 26
ENDBRANCH 18 21
ENDBRANCH 12 17
ENDBRANCH 10 12
ENDBRANCH 4 8
BRANCH 1 28
ATOM     28  CA  PRO R   4       5.754   1.715 -13.296  1.00 54.23 LIG 0.18  C 
ATOM     29  N   PRO R   4       4.799   1.789 -14.405  1.00 66.40 LIG-0.34  N 
ATOM     30  CD  PRO R   4       3.445   2.086 -13.915  1.00 55.20 LIG 0.13  C 
ATOM     31  C   MET R   3       5.053   1.728 -15.724  1.00 65.13 LIG 0.26  C 
ATOM     32  CG  PRO R   4       3.723   2.953 -12.730  1.00 51.34 LIG 0.02  C 
ATOM     33  CB  PRO R   4       5.024   2.450 -12.155  1.00 43.90 LIG 0.04  C 
ATOM     34 O    MET R   3       4.158   1.736 -16.572  1.00 74.37 LIG-0.27  OA
BRANCH 31 35
ATOM     35  CA  MET R   3       6.515   1.654 -16.159  1.00 67.30 LIG 0.40  C 
ATOM     36  N   MET R   3       6.962   0.288 -16.418  1.00 55.69 LIG 0.61  N 
BRANCH 35 37
ATOM     37  CB  MET R   3       6.700   2.531 -17.402  1.00 55.44 LIG 0.06  C 
BRANCH 37 38
ATOM     38  CG  MET R   3       8.087   2.510 -18.008  1.00 49.90 LIG 0.08  C 
BRANCH 38 39
ATOM     39 SD   MET R   3       9.101   3.802 -17.267  1.00 67.63 LIG-0.17  SA
ATOM     40  CE  MET R   3      10.654   2.936 -17.052  1.00 69.90 LIG 0.09  C 
ENDBRANCH 38 39
ENDBRANCH 37 38
ENDBRANCH 35 37
ENDBRANCH 31 35
ENDBRANCH 1 28
TORSDOF 14
ENDMDL
MODEL 16
USER: ADFR SOLUTION from run 32
USER: SCORE 10.694037 LL:  -2.952 LR:  -8.347 RR:   0.000 FEB:  -4.170
USER: RMSD 3.133004
USER: SEED 31
USER: STATUS no improvement in best in 13 clusters for 5 generations
USER: GENES 16
USER: genes 0 Translation |==|  0.42065 0.57467 0.57383
USER: genes 1 Rotation |==|  0.46999 0.49887 0.47058 0.99823
USER: genes 2 Torsion [N]-CA--C-[N] |==|  0.56110
USER: genes 3 Torsion [C]-N--CA-[CB] |==|  0.17686
USER: genes 4 Torsion [N]-CA--CB-[CG2] |==|  0.70515
USER: genes 5 Torsion [CA]-CB--OG1-[HG1] |==|  0.11338
USER: genes 6 Torsion [N]-CA--C-[N] |==|  0.18802
USER: genes 7 Torsion [C]-N--CA-[CB] |==|  0.80894
USER: genes 8 Torsion [N]-CA--CB-[CG] |==|  0.80486
USER: genes 9 Torsion [CA]-CB--CG-[CD1] |==|  0.89316
USER: genes 10 Torsion [N]-CA--C-[O] |==|  0.41184
USER: genes 11 Torsion [O]-C--CA-[N] |==|  0.01751
USER: genes 12 Torsion [N]-C--CA-[N] |==|  0.47799
USER: genes 13 Torsion [C]-CA--CB-[CG] |==|  0.35178
USER: genes 14 Torsion [CA]-CB--CG-[SD] |==|  0.01724
USER: genes 15 Torsion [CB]-CG--SD-[CE] |==|  0.53396
ROOT
ATOM      1  C   PRO R   4       4.338   1.673 -13.658  1.00 60.54 LIG 0.24  C 
ATOM      2 O    PRO R   4       4.765   0.845 -14.465  1.00 63.53 LIG-0.27  OA
ATOM      3  N   PRO R   5       4.954   1.955 -12.496  1.00 48.92 LIG-0.34  N 
ATOM      4  CA  PRO R   5       6.178   1.246 -12.099  1.00 52.68 LIG 0.18  C 
ATOM      5  CB  PRO R   5       6.517   1.869 -10.740  1.00 55.54 LIG 0.04  C 
ATOM      6  CG  PRO R   5       5.904   3.218 -10.772  1.00 46.13 LIG 0.02  C 
ATOM      7  CD  PRO R   5       4.647   3.075 -11.587  1.00 43.47 LIG 0.13  C 
ENDROOT
BRANCH 4 8
ATOM      8  C   PRO R   5       5.987  -0.265 -11.939  1.00 58.07 LIG 0.24  C 
ATOM      9 O    PRO R   5       5.049  -0.841 -12.498  1.00 51.36 LIG-0.27  OA
ATOM     10  N   THR R   6       6.875  -0.890 -11.172  1.00 69.24 LIG-0.34  N 
ATOM     11 H    THR R   6       7.556  -0.502 -10.818  1.00 69.24 LIG 0.16  HD
BRANCH 10 12
ATOM     12  CA  THR R   6       6.769  -2.311 -10.858  1.00 55.31 LIG 0.20  C 
BRANCH 12 13
ATOM     13  CB  THR R   6       6.897  -3.185 -12.126  1.00 60.29 LIG 0.15  C 
ATOM     14  CG2 THR R   6       5.546  -3.756 -12.529  1.00 62.01 LIG 0.04  C 
BRANCH 13 15
ATOM     15 OG1  THR R   6       7.412  -2.395 -13.206  1.00 91.48 LIG-0.39  OA
ATOM     16 HG1  THR R   6       8.019  -1.891 -12.919  1.00 91.48 LIG 0.21  HD
ENDBRANCH 13 15
ENDBRANCH 12 13
BRANCH 12 17
ATOM     17  C   THR R   6       7.856  -2.701  -9.867  1.00 56.48 LIG 0.24  C 
ATOM     18  N   LEU R   7       7.748  -2.188  -8.644  1.00 43.78 LIG-0.35  N 
ATOM     19 H    LEU R   7       7.104  -1.676  -8.393  1.00 43.78 LIG 0.16  HD
ATOM     20 O    THR R   6       8.777  -3.448 -10.208  1.00 41.48 LIG-0.27  OA
BRANCH 18 21
ATOM     21  CA  LEU R   7       8.738  -2.464  -7.611  1.00 53.52 LIG 0.16  C 
BRANCH 21 22
ATOM     22  CB  LEU R   7       8.665  -3.930  -7.180  1.00 41.32 LIG 0.04  C 
BRANCH 22 23
ATOM     23  CG  LEU R   7       7.412  -4.310  -6.384  1.00 48.65 LIG-0.02  C 
ATOM     24  CD1 LEU R   7       7.009  -3.202  -5.418  1.00 40.28 LIG 0.01  C 
ATOM     25  CD2 LEU R   7       6.259  -4.655  -7.318  1.00 37.72 LIG 0.01  C 
ENDBRANCH 22 23
ENDBRANCH 21 22
BRANCH 21 26
ATOM     26  C   LEU R   7      10.148  -2.111  -8.078  1.00 46.73 LIG 0.22  C 
ATOM     27 O    LEU R   7      10.996  -1.714  -7.277  1.00 57.50 LIG-0.29  OA
ENDBRANCH 21 26
ENDBRANCH 18 21
ENDBRANCH 12 17
ENDBRANCH 10 12
ENDBRANCH 4 8
BRANCH 1 28
ATOM     28  CA  PRO R   4       3.050   2.428 -13.985  1.00 54.23 LIG 0.18  C 
ATOM     29  N   PRO R   4       2.455   1.887 -15.210  1.00 66.40 LIG-0.34  N 
ATOM     30  CD  PRO R   4       1.379   0.935 -14.897  1.00 55.20 LIG 0.13  C 
ATOM     31  C   MET R   3       2.709   2.242 -16.482  1.00 65.13 LIG 0.26  C 
ATOM     32  CG  PRO R   4       0.814   1.503 -13.636  1.00 51.34 LIG 0.02  C 
ATOM     33  CB  PRO R   4       1.980   2.134 -12.915  1.00 43.90 LIG 0.04  C 
ATOM     34 O    MET R   3       2.193   1.670 -17.445  1.00 74.37 LIG-0.27  OA
BRANCH 31 35
ATOM     35  CA  MET R   3       3.671   3.406 -16.711  1.00 67.30 LIG 0.40  C 
ATOM     36  N   MET R   3       4.018   3.587 -18.119  1.00 55.69 LIG 0.61  N 
BRANCH 35 37
ATOM     37  CB  MET R   3       3.041   4.681 -16.139  1.00 55.44 LIG 0.06  C 
BRANCH 37 38
ATOM     38  CG  MET R   3       3.905   5.446 -15.160  1.00 49.90 LIG 0.08  C 
BRANCH 38 39
ATOM     39 SD   MET R   3       5.547   4.706 -15.082  1.00 67.63 LIG-0.17  SA
ATOM     40  CE  MET R   3       6.220   5.523 -13.636  1.00 69.90 LIG 0.09  C 
ENDBRANCH 38 39
ENDBRANCH 37 38
ENDBRANCH 35 37
ENDBRANCH 31 35
ENDBRANCH 1 28
TORSDOF 14
ENDMDL
MODEL 17
USER: ADFR SOLUTION from run 137
USER: SCORE 10.184661 LL:  -3.152 LR:  -8.312 RR:   0.000 FEB:  -4.136
USER: RMSD 3.489853
USER: SEED 136
USER: STATUS no improvement in best in 15 clusters for 5 generations
USER: GENES 16
USER: genes 0 Translation |==|  0.40544 0.57133 0.57163
USER: genes 1 Rotation |==|  0.48972 0.49382 0.48183 0.99953
USER: genes 2 Torsion [N]-CA--C-[N] |==|  0.59712
USER: genes 3 Torsion [C]-N--CA-[CB] |==|  0.46671
USER: genes 4 Torsion [N]-CA--CB-[CG2] |==|  0.79325
USER: genes 5 Torsion [CA]-CB--OG1-[HG1] |==|  0.09647
USER: genes 6 Torsion [N]-CA--C-[N] |==|  0.27429
USER: genes 7 Torsion [C]-N--CA-[CB] |==|  0.45145
USER: genes 8 Torsion [N]-CA--CB-[CG] |==|  0.54187
USER: genes 9 Torsion [CA]-CB--CG-[CD1] |==|  0.33218
USER: genes 10 Torsion [N]-CA--C-[O] |==|  0.21816
USER: genes 11 Torsion [O]-C--CA-[N] |==|  0.97147
USER: genes 12 Torsion [N]-C--CA-[N] |==|  0.85613
USER: genes 13 Torsion [C]-CA--CB-[CG] |==|  0.56191
USER: genes 14 Torsion [CA]-CB--CG-[SD] |==|  0.43203
USER: genes 15 Torsion [CB]-CG--SD-[CE] |==|  0.56603
ROOT
ATOM      1  C   PRO R   4       4.064   1.605 -13.703  1.00 60.54 LIG 0.24  C 
ATOM      2 O    PRO R   4       4.546   0.863 -14.560  1.00 63.53 LIG-0.27  OA
ATOM      3  N   PRO R   5       4.642   1.824 -12.508  1.00 48.92 LIG-0.34  N 
ATOM      4  CA  PRO R   5       5.890   1.142 -12.138  1.00 52.68 LIG 0.18  C 
ATOM      5  CB  PRO R   5       6.172   1.672 -10.727  1.00 55.54 LIG 0.04  C 
ATOM      6  CG  PRO R   5       5.497   2.990 -10.670  1.00 46.13 LIG 0.02  C 
ATOM      7  CD  PRO R   5       4.264   2.854 -11.523  1.00 43.47 LIG 0.13  C 
ENDROOT
BRANCH 4 8
ATOM      8  C   PRO R   5       5.768  -0.384 -12.100  1.00 58.07 LIG 0.24  C 
ATOM      9 O    PRO R   5       5.034  -0.974 -12.897  1.00 51.36 LIG-0.27  OA
ATOM     10  N   THR R   6       6.483  -1.006 -11.167  1.00 69.24 LIG-0.34  N 
ATOM     11 H    THR R   6       7.031  -0.604 -10.639  1.00 69.24 LIG 0.16  HD
BRANCH 10 12
ATOM     12  CA  THR R   6       6.400  -2.447 -10.955  1.00 55.31 LIG 0.20  C 
BRANCH 12 13
ATOM     13  CB  THR R   6       7.532  -2.953 -10.033  1.00 60.29 LIG 0.15  C 
ATOM     14  CG2 THR R   6       8.861  -2.982 -10.772  1.00 62.01 LIG 0.04  C 
BRANCH 13 15
ATOM     15 OG1  THR R   6       7.649  -2.089  -8.895  1.00 91.48 LIG-0.39  OA
ATOM     16 HG1  THR R   6       6.889  -1.809  -8.676  1.00 91.48 LIG 0.21  HD
ENDBRANCH 13 15
ENDBRANCH 12 13
BRANCH 12 17
ATOM     17  C   THR R   6       5.054  -2.798 -10.337  1.00 56.48 LIG 0.24  C 
ATOM     18  N   LEU R   7       4.120  -3.241 -11.175  1.00 43.78 LIG-0.35  N 
ATOM     19 H    LEU R   7       4.245  -3.349 -12.019  1.00 43.78 LIG 0.16  HD
ATOM     20 O    THR R   6       4.866  -2.665  -9.125  1.00 41.48 LIG-0.27  OA
BRANCH 18 21
ATOM     21  CA  LEU R   7       2.782  -3.587 -10.713  1.00 53.52 LIG 0.16  C 
BRANCH 21 22
ATOM     22  CB  LEU R   7       1.810  -3.644 -11.893  1.00 41.32 LIG 0.04  C 
BRANCH 22 23
ATOM     23  CG  LEU R   7       0.326  -3.639 -11.511  1.00 48.65 LIG-0.02  C 
ATOM     24  CD1 LEU R   7      -0.397  -2.435 -12.100  1.00 40.28 LIG 0.01  C 
ATOM     25  CD2 LEU R   7      -0.349  -4.936 -11.941  1.00 37.72 LIG 0.01  C 
ENDBRANCH 22 23
ENDBRANCH 21 22
BRANCH 21 26
ATOM     26  C   LEU R   7       2.779  -4.910  -9.950  1.00 46.73 LIG 0.22  C 
ATOM     27 O    LEU R   7       3.158  -4.962  -8.779  1.00 57.50 LIG-0.29  OA
ENDBRANCH 21 26
ENDBRANCH 18 21
ENDBRANCH 12 17
ENDBRANCH 10 12
ENDBRANCH 4 8
BRANCH 1 28
ATOM     28  CA  PRO R   4       2.749   2.324 -14.001  1.00 54.23 LIG 0.18  C 
ATOM     29  N   PRO R   4       2.407   2.166 -15.417  1.00 66.40 LIG-0.34  N 
ATOM     30  CD  PRO R   4       1.430   1.084 -15.606  1.00 55.20 LIG 0.13  C 
ATOM     31  C   MET R   3       2.790   2.934 -16.453  1.00 65.13 LIG 0.26  C 
ATOM     32  CG  PRO R   4       0.623   1.167 -14.351  1.00 51.34 LIG 0.02  C 
ATOM     33  CB  PRO R   4       1.585   1.617 -13.278  1.00 43.90 LIG 0.04  C 
ATOM     34 O    MET R   3       2.493   2.668 -17.620  1.00 74.37 LIG-0.27  OA
BRANCH 31 35
ATOM     35  CA  MET R   3       3.617   4.180 -16.141  1.00 67.30 LIG 0.40  C 
ATOM     36  N   MET R   3       3.004   5.028 -15.122  1.00 55.69 LIG 0.61  N 
BRANCH 35 37
ATOM     37  CB  MET R   3       5.020   3.739 -15.708  1.00 55.44 LIG 0.06  C 
BRANCH 37 38
ATOM     38  CG  MET R   3       5.787   4.746 -14.879  1.00 49.90 LIG 0.08  C 
BRANCH 38 39
ATOM     39 SD   MET R   3       7.022   3.902 -13.873  1.00 67.63 LIG-0.17  SA
ATOM     40  CE  MET R   3       7.249   5.086 -12.548  1.00 69.90 LIG 0.09  C 
ENDBRANCH 38 39
ENDBRANCH 37 38
ENDBRANCH 35 37
ENDBRANCH 31 35
ENDBRANCH 1 28
TORSDOF 14
ENDMDL
MODEL 18
USER: ADFR SOLUTION from run 143
USER: SCORE 10.510182 LL:  -2.457 LR:  -8.290 RR:   0.000 FEB:  -4.114
USER: RMSD 4.380171
USER: SEED 142
USER: STATUS no improvement in best in 9 clusters for 5 generations
USER: GENES 16
USER: genes 0 Translation |==|  0.51341 0.50637 0.61755
USER: genes 1 Rotation |==|  0.33047 0.71149 0.25505 0.84137
USER: genes 2 Torsion [N]-CA--C-[N] |==|  0.27986
USER: genes 3 Torsion [C]-N--CA-[CB] |==|  0.53334
USER: genes 4 Torsion [N]-CA--CB-[CG2] |==|  0.53201
USER: genes 5 Torsion [CA]-CB--OG1-[HG1] |==|  0.88825
USER: genes 6 Torsion [N]-CA--C-[N] |==|  0.44395
USER: genes 7 Torsion [C]-N--CA-[CB] |==|  0.88403
USER: genes 8 Torsion [N]-CA--CB-[CG] |==|  0.80683
USER: genes 9 Torsion [CA]-CB--CG-[CD1] |==|  0.27753
USER: genes 10 Torsion [N]-CA--C-[O] |==|  0.20744
USER: genes 11 Torsion [O]-C--CA-[N] |==|  0.04808
USER: genes 12 Torsion [N]-C--CA-[N] |==|  0.37936
USER: genes 13 Torsion [C]-CA--CB-[CG] |==|  0.78243
USER: genes 14 Torsion [CA]-CB--CG-[SD] |==|  0.32224
USER: genes 15 Torsion [CB]-CG--SD-[CE] |==|  0.04955
ROOT
ATOM      1  C   PRO R   4       6.007   0.290 -12.773  1.00 60.54 LIG 0.24  C 
ATOM      2 O    PRO R   4       5.017  -0.437 -12.681  1.00 63.53 LIG-0.27  OA
ATOM      3  N   PRO R   5       7.266  -0.157 -12.614  1.00 48.92 LIG-0.34  N 
ATOM      4  CA  PRO R   5       7.531  -1.562 -12.276  1.00 52.68 LIG 0.18  C 
ATOM      5  CB  PRO R   5       9.061  -1.618 -12.189  1.00 55.54 LIG 0.04  C 
ATOM      6  CG  PRO R   5       9.535  -0.512 -13.055  1.00 46.13 LIG 0.02  C 
ATOM      7  CD  PRO R   5       8.506   0.578 -12.924  1.00 43.47 LIG 0.13  C 
ENDROOT
BRANCH 4 8
ATOM      8  C   PRO R   5       6.923  -1.997 -10.939  1.00 58.07 LIG 0.24  C 
ATOM      9 O    PRO R   5       7.481  -1.714  -9.876  1.00 51.36 LIG-0.27  OA
ATOM     10  N   THR R   6       5.788  -2.686 -11.008  1.00 69.24 LIG-0.34  N 
ATOM     11 H    THR R   6       5.371  -2.846 -11.744  1.00 69.24 LIG 0.16  HD
BRANCH 10 12
ATOM     12  CA  THR R   6       5.141  -3.241  -9.824  1.00 55.31 LIG 0.20  C 
BRANCH 12 13
ATOM     13  CB  THR R   6       4.019  -4.234 -10.200  1.00 60.29 LIG 0.15  C 
ATOM     14  CG2 THR R   6       3.175  -4.584  -8.984  1.00 62.01 LIG 0.04  C 
BRANCH 13 15
ATOM     15 OG1  THR R   6       3.176  -3.651 -11.203  1.00 91.48 LIG-0.39  OA
ATOM     16 HG1  THR R   6       3.053  -2.840 -11.027  1.00 91.48 LIG 0.21  HD
ENDBRANCH 13 15
ENDBRANCH 12 13
BRANCH 12 17
ATOM     17  C   THR R   6       6.173  -3.951  -8.961  1.00 56.48 LIG 0.24  C 
ATOM     18  N   LEU R   7       5.843  -4.140  -7.685  1.00 43.78 LIG-0.35  N 
ATOM     19 H    LEU R   7       5.091  -3.900  -7.343  1.00 43.78 LIG 0.16  HD
ATOM     20 O    THR R   6       7.248  -4.317  -9.441  1.00 41.48 LIG-0.27  OA
BRANCH 18 21
ATOM     21  CA  LEU R   7       6.753  -4.786  -6.749  1.00 53.52 LIG 0.16  C 
BRANCH 21 22
ATOM     22  CB  LEU R   7       7.435  -5.986  -7.409  1.00 41.32 LIG 0.04  C 
BRANCH 22 23
ATOM     23  CG  LEU R   7       6.516  -7.178  -7.694  1.00 48.65 LIG-0.02  C 
ATOM     24  CD1 LEU R   7       6.076  -7.207  -9.152  1.00 40.28 LIG 0.01  C 
ATOM     25  CD2 LEU R   7       7.193  -8.488  -7.310  1.00 37.72 LIG 0.01  C 
ENDBRANCH 22 23
ENDBRANCH 21 22
BRANCH 21 26
ATOM     26  C   LEU R   7       7.794  -3.804  -6.213  1.00 46.73 LIG 0.22  C 
ATOM     27 O    LEU R   7       7.486  -2.955  -5.375  1.00 57.50 LIG-0.29  OA
ENDBRANCH 21 26
ENDBRANCH 18 21
ENDBRANCH 12 17
ENDBRANCH 10 12
ENDBRANCH 4 8
BRANCH 1 28
ATOM     28  CA  PRO R   4       5.811   1.772 -13.089  1.00 54.23 LIG 0.18  C 
ATOM     29  N   PRO R   4       4.420   2.154 -12.829  1.00 66.40 LIG-0.34  N 
ATOM     30  CD  PRO R   4       4.288   2.798 -11.513  1.00 55.20 LIG 0.13  C 
ATOM     31  C   MET R   3       3.369   2.078 -13.664  1.00 65.13 LIG 0.26  C 
ATOM     32  CG  PRO R   4       5.598   3.504 -11.376  1.00 51.34 LIG 0.02  C 
ATOM     33  CB  PRO R   4       6.605   2.635 -12.088  1.00 43.90 LIG 0.04  C 
ATOM     34 O    MET R   3       2.223   2.369 -13.315  1.00 74.37 LIG-0.27  OA
BRANCH 31 35
ATOM     35  CA  MET R   3       3.637   1.616 -15.095  1.00 67.30 LIG 0.40  C 
ATOM     36  N   MET R   3       2.646   0.658 -15.577  1.00 55.69 LIG 0.61  N 
BRANCH 35 37
ATOM     37  CB  MET R   3       3.688   2.849 -16.005  1.00 55.44 LIG 0.06  C 
BRANCH 37 38
ATOM     38  CG  MET R   3       2.342   3.428 -16.383  1.00 49.90 LIG 0.08  C 
BRANCH 38 39
ATOM     39 SD   MET R   3       2.179   5.093 -15.711  1.00 67.63 LIG-0.17  SA
ATOM     40  CE  MET R   3       3.891   5.489 -15.363  1.00 69.90 LIG 0.09  C 
ENDBRANCH 38 39
ENDBRANCH 37 38
ENDBRANCH 35 37
ENDBRANCH 31 35
ENDBRANCH 1 28
TORSDOF 14
ENDMDL
MODEL 19
USER: ADFR SOLUTION from run 56
USER: SCORE 10.405153 LL:  -3.479 LR:  -8.238 RR:   0.000 FEB:  -4.062
USER: RMSD 5.263935
USER: SEED 55
USER: STATUS no improvement in best in 25 clusters for 5 generations
USER: GENES 16
USER: genes 0 Translation |==|  0.51295 0.49640 0.63513
USER: genes 1 Rotation |==|  0.35282 0.66104 0.23190 0.86128
USER: genes 2 Torsion [N]-CA--C-[N] |==|  0.28667
USER: genes 3 Torsion [C]-N--CA-[CB] |==|  0.50002
USER: genes 4 Torsion [N]-CA--CB-[CG2] |==|  0.40480
USER: genes 5 Torsion [CA]-CB--OG1-[HG1] |==|  0.18448
USER: genes 6 Torsion [N]-CA--C-[N] |==|  0.92649
USER: genes 7 Torsion [C]-N--CA-[CB] |==|  0.86935
USER: genes 8 Torsion [N]-CA--CB-[CG] |==|  0.87162
USER: genes 9 Torsion [CA]-CB--CG-[CD1] |==|  0.40589
USER: genes 10 Torsion [N]-CA--C-[O] |==|  0.06064
USER: genes 11 Torsion [O]-C--CA-[N] |==|  0.96887
USER: genes 12 Torsion [N]-C--CA-[N] |==|  0.87003
USER: genes 13 Torsion [C]-CA--CB-[CG] |==|  0.62205
USER: genes 14 Torsion [CA]-CB--CG-[SD] |==|  0.47815
USER: genes 15 Torsion [CB]-CG--SD-[CE] |==|  0.98027
ROOT
ATOM      1  C   PRO R   4       5.999   0.088 -12.417  1.00 60.54 LIG 0.24  C 
ATOM      2 O    PRO R   4       5.016  -0.646 -12.534  1.00 63.53 LIG-0.27  OA
ATOM      3  N   PRO R   5       7.181  -0.334 -11.932  1.00 48.92 LIG-0.34  N 
ATOM      4  CA  PRO R   5       7.355  -1.718 -11.470  1.00 52.68 LIG 0.18  C 
ATOM      5  CB  PRO R   5       8.817  -1.750 -11.008  1.00 55.54 LIG 0.04  C 
ATOM      6  CG  PRO R   5       9.489  -0.682 -11.787  1.00 46.13 LIG 0.02  C 
ATOM      7  CD  PRO R   5       8.459   0.400 -11.966  1.00 43.47 LIG 0.13  C 
ENDROOT
BRANCH 4 8
ATOM      8  C   PRO R   5       6.438  -2.094 -10.302  1.00 58.07 LIG 0.24  C 
ATOM      9 O    PRO R   5       6.695  -1.715  -9.156  1.00 51.36 LIG-0.27  OA
ATOM     10  N   THR R   6       5.381  -2.844 -10.604  1.00 69.24 LIG-0.34  N 
ATOM     11 H    THR R   6       5.173  -3.072 -11.407  1.00 69.24 LIG 0.16  HD
BRANCH 10 12
ATOM     12  CA  THR R   6       4.470  -3.351  -9.585  1.00 55.31 LIG 0.20  C 
BRANCH 12 13
ATOM     13  CB  THR R   6       3.331  -4.191 -10.206  1.00 60.29 LIG 0.15  C 
ATOM     14  CG2 THR R   6       2.933  -5.332  -9.282  1.00 62.01 LIG 0.04  C 
BRANCH 13 15
ATOM     15 OG1  THR R   6       2.189  -3.356 -10.436  1.00 91.48 LIG-0.39  OA
ATOM     16 HG1  THR R   6       2.371  -2.789 -11.028  1.00 91.48 LIG 0.21  HD
ENDBRANCH 13 15
ENDBRANCH 12 13
BRANCH 12 17
ATOM     17  C   THR R   6       5.240  -4.207  -8.589  1.00 56.48 LIG 0.24  C 
ATOM     18  N   LEU R   7       6.346  -4.789  -9.045  1.00 43.78 LIG-0.35  N 
ATOM     19 H    LEU R   7       6.644  -4.693  -9.847  1.00 43.78 LIG 0.16  HD
ATOM     20 O    THR R   6       4.835  -4.340  -7.432  1.00 41.48 LIG-0.27  OA
BRANCH 18 21
ATOM     21  CA  LEU R   7       7.158  -5.654  -8.199  1.00 53.52 LIG 0.16  C 
BRANCH 21 22
ATOM     22  CB  LEU R   7       7.400  -4.995  -6.840  1.00 41.32 LIG 0.04  C 
BRANCH 22 23
ATOM     23  CG  LEU R   7       7.818  -3.523  -6.898  1.00 48.65 LIG-0.02  C 
ATOM     24  CD1 LEU R   7       7.266  -2.739  -5.714  1.00 40.28 LIG 0.01  C 
ATOM     25  CD2 LEU R   7       9.335  -3.392  -6.968  1.00 37.72 LIG 0.01  C 
ENDBRANCH 22 23
ENDBRANCH 21 22
BRANCH 21 26
ATOM     26  C   LEU R   7       6.516  -7.028  -8.024  1.00 46.73 LIG 0.22  C 
ATOM     27 O    LEU R   7       5.691  -7.446  -8.838  1.00 57.50 LIG-0.29  OA
ENDBRANCH 21 26
ENDBRANCH 18 21
ENDBRANCH 12 17
ENDBRANCH 10 12
ENDBRANCH 4 8
BRANCH 1 28
ATOM     28  CA  PRO R   4       5.886   1.551 -12.845  1.00 54.23 LIG 0.18  C 
ATOM     29  N   PRO R   4       4.639   1.754 -13.588  1.00 66.40 LIG-0.34  N 
ATOM     30  CD  PRO R   4       3.593   2.314 -12.719  1.00 55.20 LIG 0.13  C 
ATOM     31  C   MET R   3       4.424   1.595 -14.906  1.00 65.13 LIG 0.26  C 
ATOM     32  CG  PRO R   4       4.387   3.161 -11.779  1.00 51.34 LIG 0.02  C 
ATOM     33  CB  PRO R   4       5.708   2.451 -11.607  1.00 43.90 LIG 0.04  C 
ATOM     34 O    MET R   3       3.310   1.733 -15.417  1.00 74.37 LIG-0.27  OA
BRANCH 31 35
ATOM     35  CA  MET R   3       5.625   1.237 -15.780  1.00 67.30 LIG 0.40  C 
ATOM     36  N   MET R   3       6.794   2.068 -15.505  1.00 55.69 LIG 0.61  N 
BRANCH 35 37
ATOM     37  CB  MET R   3       5.953  -0.246 -15.575  1.00 55.44 LIG 0.06  C 
BRANCH 37 38
ATOM     38  CG  MET R   3       7.423  -0.567 -15.416  1.00 49.90 LIG 0.08  C 
BRANCH 38 39
ATOM     39 SD   MET R   3       7.629  -2.298 -14.958  1.00 67.63 LIG-0.17  SA
ATOM     40  CE  MET R   3       5.924  -2.785 -14.695  1.00 69.90 LIG 0.09  C 
ENDBRANCH 38 39
ENDBRANCH 37 38
ENDBRANCH 35 37
ENDBRANCH 31 35
ENDBRANCH 1 28
TORSDOF 14
ENDMDL
MODEL 20
USER: ADFR SOLUTION from run 129
USER: SCORE 11.501522 LL:  -3.389 LR:  -8.182 RR:   0.000 FEB:  -4.006
USER: RMSD 4.213170
USER: SEED 128
USER: STATUS no improvement in best in 10 clusters for 5 generations
USER: GENES 16
USER: genes 0 Translation |==|  0.44691 0.47196 0.56249
USER: genes 1 Rotation |==|  0.37775 0.45102 0.54418 0.98032
USER: genes 2 Torsion [N]-CA--C-[N] |==|  0.94941
USER: genes 3 Torsion [C]-N--CA-[CB] |==|  0.13889
USER: genes 4 Torsion [N]-CA--CB-[CG2] |==|  0.69874
USER: genes 5 Torsion [CA]-CB--OG1-[HG1] |==|  0.35904
USER: genes 6 Torsion [N]-CA--C-[N] |==|  0.11295
USER: genes 7 Torsion [C]-N--CA-[CB] |==|  0.48789
USER: genes 8 Torsion [N]-CA--CB-[CG] |==|  0.58344
USER: genes 9 Torsion [CA]-CB--CG-[CD1] |==|  0.35278
USER: genes 10 Torsion [N]-CA--C-[O] |==|  0.86347
USER: genes 11 Torsion [O]-C--CA-[N] |==|  0.82198
USER: genes 12 Torsion [N]-C--CA-[N] |==|  0.42280
USER: genes 13 Torsion [C]-CA--CB-[CG] |==|  0.38250
USER: genes 14 Torsion [CA]-CB--CG-[SD] |==|  0.73385
USER: genes 15 Torsion [CB]-CG--SD-[CE] |==|  0.77736
ROOT
ATOM      1  C   PRO R   4       4.810  -0.407 -13.888  1.00 60.54 LIG 0.24  C 
ATOM      2 O    PRO R   4       5.594  -1.282 -14.261  1.00 63.53 LIG-0.27  OA
ATOM      3  N   PRO R   5       5.081   0.443 -12.881  1.00 48.92 LIG-0.34  N 
ATOM      4  CA  PRO R   5       6.340   0.347 -12.130  1.00 52.68 LIG 0.18  C 
ATOM      5  CB  PRO R   5       6.220   1.478 -11.101  1.00 55.54 LIG 0.04  C 
ATOM      6  CG  PRO R   5       5.297   2.460 -11.717  1.00 46.13 LIG 0.02  C 
ATOM      7  CD  PRO R   5       4.314   1.649 -12.518  1.00 43.47 LIG 0.13  C 
ENDROOT
BRANCH 4 8
ATOM      8  C   PRO R   5       6.521  -0.990 -11.405  1.00 58.07 LIG 0.24  C 
ATOM      9 O    PRO R   5       7.639  -1.352 -11.028  1.00 51.36 LIG-0.27  OA
ATOM     10  N   THR R   6       5.419  -1.713 -11.225  1.00 69.24 LIG-0.34  N 
ATOM     11 H    THR R   6       4.632  -1.445 -11.445  1.00 69.24 LIG 0.16  HD
BRANCH 10 12
ATOM     12  CA  THR R   6       5.451  -3.045 -10.630  1.00 55.31 LIG 0.20  C 
BRANCH 12 13
ATOM     13  CB  THR R   6       6.253  -3.060  -9.310  1.00 60.29 LIG 0.15  C 
ATOM     14  CG2 THR R   6       7.578  -3.785  -9.488  1.00 62.01 LIG 0.04  C 
BRANCH 13 15
ATOM     15 OG1  THR R   6       6.510  -1.714  -8.887  1.00 91.48 LIG-0.39  OA
ATOM     16 HG1  THR R   6       6.280  -1.624  -8.085  1.00 91.48 LIG 0.21  HD
ENDBRANCH 13 15
ENDBRANCH 12 13
BRANCH 12 17
ATOM     17  C   THR R   6       4.031  -3.521 -10.361  1.00 56.48 LIG 0.24  C 
ATOM     18  N   LEU R   7       3.130  -3.247 -11.301  1.00 43.78 LIG-0.35  N 
ATOM     19 H    LEU R   7       3.313  -2.839 -12.036  1.00 43.78 LIG 0.16  HD
ATOM     20 O    THR R   6       3.758  -4.122  -9.319  1.00 41.48 LIG-0.27  OA
BRANCH 18 21
ATOM     21  CA  LEU R   7       1.732  -3.626 -11.152  1.00 53.52 LIG 0.16  C 
BRANCH 21 22
ATOM     22  CB  LEU R   7       0.907  -3.094 -12.326  1.00 41.32 LIG 0.04  C 
BRANCH 22 23
ATOM     23  CG  LEU R   7      -0.554  -2.771 -11.998  1.00 48.65 LIG-0.02  C 
ATOM     24  CD1 LEU R   7      -0.918  -1.351 -12.414  1.00 40.28 LIG 0.01  C 
ATOM     25  CD2 LEU R   7      -1.492  -3.778 -12.652  1.00 37.72 LIG 0.01  C 
ENDBRANCH 22 23
ENDBRANCH 21 22
BRANCH 21 26
ATOM     26  C   LEU R   7       1.573  -5.140 -11.028  1.00 46.73 LIG 0.22  C 
ATOM     27 O    LEU R   7       2.125  -5.898 -11.827  1.00 57.50 LIG-0.29  OA
ENDBRANCH 21 26
ENDBRANCH 18 21
ENDBRANCH 12 17
ENDBRANCH 10 12
ENDBRANCH 4 8
BRANCH 1 28
ATOM     28  CA  PRO R   4       3.465  -0.266 -14.598  1.00 54.23 LIG 0.18  C 
ATOM     29  N   PRO R   4       3.680   0.120 -15.996  1.00 66.40 LIG-0.34  N 
ATOM     30  CD  PRO R   4       3.607  -1.051 -16.882  1.00 55.20 LIG 0.13  C 
ATOM     31  C   MET R   3       3.813   1.358 -16.503  1.00 65.13 LIG 0.26  C 
ATOM     32  CG  PRO R   4       2.597  -1.907 -16.190  1.00 51.34 LIG 0.02  C 
ATOM     33  CB  PRO R   4       2.783  -1.643 -14.715  1.00 43.90 LIG 0.04  C 
ATOM     34 O    MET R   3       4.057   1.563 -17.695  1.00 74.37 LIG-0.27  OA
BRANCH 31 35
ATOM     35  CA  MET R   3       3.643   2.536 -15.546  1.00 67.30 LIG 0.40  C 
ATOM     36  N   MET R   3       4.395   3.717 -15.959  1.00 55.69 LIG 0.61  N 
BRANCH 35 37
ATOM     37  CB  MET R   3       2.148   2.858 -15.429  1.00 55.44 LIG 0.06  C 
BRANCH 37 38
ATOM     38  CG  MET R   3       1.660   3.160 -14.029  1.00 49.90 LIG 0.08  C 
BRANCH 38 39
ATOM     39 SD   MET R   3       0.969   1.671 -13.285  1.00 67.63 LIG-0.17  SA
ATOM     40  CE  MET R   3      -0.661   1.644 -14.028  1.00 69.90 LIG 0.09  C 
ENDBRANCH 38 39
ENDBRANCH 37 38
ENDBRANCH 35 37
ENDBRANCH 31 35
ENDBRANCH 1 28
TORSDOF 14
ENDMDL
MODEL 21
USER: ADFR SOLUTION from run 149
USER: SCORE 10.329225 LL:  -2.208 LR:  -8.160 RR:   0.000 FEB:  -3.984
USER: RMSD 4.528753
USER: SEED 148
USER: STATUS no improvement in best in 16 clusters for 5 generations
USER: GENES 16
USER: genes 0 Translation |==|  0.50076 0.50403 0.60530
USER: genes 1 Rotation |==|  0.39614 0.75811 0.24553 0.82839
USER: genes 2 Torsion [N]-CA--C-[N] |==|  0.63833
USER: genes 3 Torsion [C]-N--CA-[CB] |==|  0.85170
USER: genes 4 Torsion [N]-CA--CB-[CG2] |==|  0.59413
USER: genes 5 Torsion [CA]-CB--OG1-[HG1] |==|  0.65770
USER: genes 6 Torsion [N]-CA--C-[N] |==|  0.37728
USER: genes 7 Torsion [C]-N--CA-[CB] |==|  0.85121
USER: genes 8 Torsion [N]-CA--CB-[CG] |==|  0.50915
USER: genes 9 Torsion [CA]-CB--CG-[CD1] |==|  0.25596
USER: genes 10 Torsion [N]-CA--C-[O] |==|  0.11351
USER: genes 11 Torsion [O]-C--CA-[N] |==|  0.02498
USER: genes 12 Torsion [N]-C--CA-[N] |==|  0.89194
USER: genes 13 Torsion [C]-CA--CB-[CG] |==|  0.09847
USER: genes 14 Torsion [CA]-CB--CG-[SD] |==|  0.19708
USER: genes 15 Torsion [CB]-CG--SD-[CE] |==|  0.57801
ROOT
ATOM      1  C   PRO R   4       5.780   0.243 -13.021  1.00 60.54 LIG 0.24  C 
ATOM      2 O    PRO R   4       4.650  -0.247 -13.067  1.00 63.53 LIG-0.27  OA
ATOM      3  N   PRO R   5       6.903  -0.497 -13.013  1.00 48.92 LIG-0.34  N 
ATOM      4  CA  PRO R   5       6.841  -1.964 -13.021  1.00 52.68 LIG 0.18  C 
ATOM      5  CB  PRO R   5       8.317  -2.377 -13.002  1.00 55.54 LIG 0.04  C 
ATOM      6  CG  PRO R   5       9.043  -1.233 -13.603  1.00 46.13 LIG 0.02  C 
ATOM      7  CD  PRO R   5       8.282  -0.004 -13.186  1.00 43.47 LIG 0.13  C 
ENDROOT
BRANCH 4 8
ATOM      8  C   PRO R   5       6.126  -2.555 -11.803  1.00 58.07 LIG 0.24  C 
ATOM      9 O    PRO R   5       5.021  -2.128 -11.456  1.00 51.36 LIG-0.27  OA
ATOM     10  N   THR R   6       6.767  -3.528 -11.161  1.00 69.24 LIG-0.34  N 
ATOM     11 H    THR R   6       7.515  -3.860 -11.425  1.00 69.24 LIG 0.16  HD
BRANCH 10 12
ATOM     12  CA  THR R   6       6.249  -4.124  -9.934  1.00 55.31 LIG 0.20  C 
BRANCH 12 13
ATOM     13  CB  THR R   6       5.937  -3.050  -8.868  1.00 60.29 LIG 0.15  C 
ATOM     14  CG2 THR R   6       6.210  -3.581  -7.468  1.00 62.01 LIG 0.04  C 
BRANCH 13 15
ATOM     15 OG1  THR R   6       6.752  -1.893  -9.095  1.00 91.48 LIG-0.39  OA
ATOM     16 HG1  THR R   6       7.199  -1.726  -8.405  1.00 91.48 LIG 0.21  HD
ENDBRANCH 13 15
ENDBRANCH 12 13
BRANCH 12 17
ATOM     17  C   THR R   6       4.984  -4.911 -10.240  1.00 56.48 LIG 0.24  C 
ATOM     18  N   LEU R   7       4.884  -6.109  -9.670  1.00 43.78 LIG-0.35  N 
ATOM     19 H    LEU R   7       5.477  -6.440  -9.141  1.00 43.78 LIG 0.16  HD
ATOM     20 O    THR R   6       4.117  -4.442 -10.982  1.00 41.48 LIG-0.27  OA
BRANCH 18 21
ATOM     21  CA  LEU R   7       3.734  -6.973  -9.902  1.00 53.52 LIG 0.16  C 
BRANCH 21 22
ATOM     22  CB  LEU R   7       2.435  -6.224  -9.597  1.00 41.32 LIG 0.04  C 
BRANCH 22 23
ATOM     23  CG  LEU R   7       1.158  -7.060  -9.730  1.00 48.65 LIG-0.02  C 
ATOM     24  CD1 LEU R   7       0.768  -7.698  -8.403  1.00 40.28 LIG 0.01  C 
ATOM     25  CD2 LEU R   7       0.013  -6.217 -10.278  1.00 37.72 LIG 0.01  C 
ENDBRANCH 22 23
ENDBRANCH 21 22
BRANCH 21 26
ATOM     26  C   LEU R   7       3.719  -7.512 -11.331  1.00 46.73 LIG 0.22  C 
ATOM     27 O    LEU R   7       4.761  -7.885 -11.874  1.00 57.50 LIG-0.29  OA
ENDBRANCH 21 26
ENDBRANCH 18 21
ENDBRANCH 12 17
ENDBRANCH 10 12
ENDBRANCH 4 8
BRANCH 1 28
ATOM     28  CA  PRO R   4       5.926   1.763 -12.976  1.00 54.23 LIG 0.18  C 
ATOM     29  N   PRO R   4       4.612   2.382 -12.782  1.00 66.40 LIG-0.34  N 
ATOM     30  CD  PRO R   4       4.397   2.732 -11.370  1.00 55.20 LIG 0.13  C 
ATOM     31  C   MET R   3       3.713   2.730 -13.720  1.00 65.13 LIG 0.26  C 
ATOM     32  CG  PRO R   4       5.779   3.076 -10.918  1.00 51.34 LIG 0.02  C 
ATOM     33  CB  PRO R   4       6.701   2.182 -11.711  1.00 43.90 LIG 0.04  C 
ATOM     34 O    MET R   3       2.604   3.189 -13.436  1.00 74.37 LIG-0.27  OA
BRANCH 31 35
ATOM     35  CA  MET R   3       4.112   2.548 -15.183  1.00 67.30 LIG 0.40  C 
ATOM     36  N   MET R   3       5.508   2.893 -15.438  1.00 55.69 LIG 0.61  N 
BRANCH 35 37
ATOM     37  CB  MET R   3       3.828   1.097 -15.589  1.00 55.44 LIG 0.06  C 
BRANCH 37 38
ATOM     38  CG  MET R   3       2.599   0.478 -14.959  1.00 49.90 LIG 0.08  C 
BRANCH 38 39
ATOM     39 SD   MET R   3       1.112   1.217 -15.659  1.00 67.63 LIG-0.17  SA
ATOM     40  CE  MET R   3      -0.035   1.032 -14.295  1.00 69.90 LIG 0.09  C 
ENDBRANCH 38 39
ENDBRANCH 37 38
ENDBRANCH 35 37
ENDBRANCH 31 35
ENDBRANCH 1 28
TORSDOF 14
ENDMDL
MODEL 22
USER: ADFR SOLUTION from run 63
USER: SCORE 10.491197 LL:  -2.933 LR:  -8.139 RR:   0.000 FEB:  -3.963
USER: RMSD 2.788288
USER: SEED 62
USER: STATUS no improvement in best in 16 clusters for 5 generations
USER: GENES 16
USER: genes 0 Translation |==|  0.40368 0.57745 0.55775
USER: genes 1 Rotation |==|  0.45670 0.53412 0.49439 0.99692
USER: genes 2 Torsion [N]-CA--C-[N] |==|  0.50790
USER: genes 3 Torsion [C]-N--CA-[CB] |==|  0.49444
USER: genes 4 Torsion [N]-CA--CB-[CG2] |==|  0.84166
USER: genes 5 Torsion [CA]-CB--OG1-[HG1] |==|  0.59746
USER: genes 6 Torsion [N]-CA--C-[N] |==|  0.45889
USER: genes 7 Torsion [C]-N--CA-[CB] |==|  0.85025
USER: genes 8 Torsion [N]-CA--CB-[CG] |==|  0.64419
USER: genes 9 Torsion [CA]-CB--CG-[CD1] |==|  0.11237
USER: genes 10 Torsion [N]-CA--C-[O] |==|  0.06076
USER: genes 11 Torsion [O]-C--CA-[N] |==|  0.02042
USER: genes 12 Torsion [N]-C--CA-[N] |==|  0.41494
USER: genes 13 Torsion [C]-CA--CB-[CG] |==|  0.99512
USER: genes 14 Torsion [CA]-CB--CG-[SD] |==|  0.29586
USER: genes 15 Torsion [CB]-CG--SD-[CE] |==|  0.53751
ROOT
ATOM      1  C   PRO R   4       4.032   1.729 -13.984  1.00 60.54 LIG 0.24  C 
ATOM      2 O    PRO R   4       4.409   0.899 -14.813  1.00 63.53 LIG-0.27  OA
ATOM      3  N   PRO R   5       4.784   2.121 -12.939  1.00 48.92 LIG-0.34  N 
ATOM      4  CA  PRO R   5       6.112   1.536 -12.705  1.00 52.68 LIG 0.18  C 
ATOM      5  CB  PRO R   5       6.590   2.254 -11.437  1.00 55.54 LIG 0.04  C 
ATOM      6  CG  PRO R   5       5.861   3.545 -11.429  1.00 46.13 LIG 0.02  C 
ATOM      7  CD  PRO R   5       4.516   3.256 -12.038  1.00 43.47 LIG 0.13  C 
ENDROOT
BRANCH 4 8
ATOM      8  C   PRO R   5       6.081   0.025 -12.460  1.00 58.07 LIG 0.24  C 
ATOM      9 O    PRO R   5       5.018  -0.598 -12.516  1.00 51.36 LIG-0.27  OA
ATOM     10  N   THR R   6       7.250  -0.548 -12.183  1.00 69.24 LIG-0.34  N 
ATOM     11 H    THR R   6       8.000  -0.126 -12.188  1.00 69.24 LIG 0.16  HD
BRANCH 10 12
ATOM     12  CA  THR R   6       7.362  -1.962 -11.842  1.00 55.31 LIG 0.20  C 
BRANCH 12 13
ATOM     13  CB  THR R   6       8.833  -2.378 -11.616  1.00 60.29 LIG 0.15  C 
ATOM     14  CG2 THR R   6       9.678  -2.071 -12.843  1.00 62.01 LIG 0.04  C 
BRANCH 13 15
ATOM     15 OG1  THR R   6       9.367  -1.668 -10.491  1.00 91.48 LIG-0.39  OA
ATOM     16 HG1  THR R   6      10.177  -1.494 -10.629  1.00 91.48 LIG 0.21  HD
ENDBRANCH 13 15
ENDBRANCH 12 13
BRANCH 12 17
ATOM     17  C   THR R   6       6.559  -2.251 -10.582  1.00 56.48 LIG 0.24  C 
ATOM     18  N   LEU R   7       6.316  -3.534 -10.322  1.00 43.78 LIG-0.35  N 
ATOM     19 H    LEU R   7       6.597  -4.184 -10.809  1.00 43.78 LIG 0.16  HD
ATOM     20 O    THR R   6       6.165  -1.330  -9.864  1.00 41.48 LIG-0.27  OA
BRANCH 18 21
ATOM     21  CA  LEU R   7       5.537  -3.942  -9.160  1.00 53.52 LIG 0.16  C 
BRANCH 21 22
ATOM     22  CB  LEU R   7       6.125  -3.337  -7.884  1.00 41.32 LIG 0.04  C 
BRANCH 22 23
ATOM     23  CG  LEU R   7       6.404  -4.340  -6.760  1.00 48.65 LIG-0.02  C 
ATOM     24  CD1 LEU R   7       6.988  -5.639  -7.303  1.00 40.28 LIG 0.01  C 
ATOM     25  CD2 LEU R   7       7.326  -3.735  -5.709  1.00 37.72 LIG 0.01  C 
ENDBRANCH 22 23
ENDBRANCH 21 22
BRANCH 21 26
ATOM     26  C   LEU R   7       4.067  -3.557  -9.309  1.00 46.73 LIG 0.22  C 
ATOM     27 O    LEU R   7       3.580  -3.351 -10.422  1.00 57.50 LIG-0.29  OA
ENDBRANCH 21 26
ENDBRANCH 18 21
ENDBRANCH 12 17
ENDBRANCH 10 12
ENDBRANCH 4 8
BRANCH 1 28
ATOM     28  CA  PRO R   4       2.648   2.358 -14.141  1.00 54.23 LIG 0.18  C 
ATOM     29  N   PRO R   4       1.921   1.691 -15.225  1.00 66.40 LIG-0.34  N 
ATOM     30  CD  PRO R   4       0.994   0.681 -14.693  1.00 55.20 LIG 0.13  C 
ATOM     31  C   MET R   3       1.944   1.978 -16.538  1.00 65.13 LIG 0.26  C 
ATOM     32  CG  PRO R   4       0.582   1.288 -13.391  1.00 51.34 LIG 0.02  C 
ATOM     33  CB  PRO R   4       1.786   2.055 -12.900  1.00 43.90 LIG 0.04  C 
ATOM     34 O    MET R   3       1.337   1.304 -17.374  1.00 74.37 LIG-0.27  OA
BRANCH 31 35
ATOM     35  CA  MET R   3       2.753   3.195 -16.981  1.00 67.30 LIG 0.40  C 
ATOM     36  N   MET R   3       3.310   3.049 -18.324  1.00 55.69 LIG 0.61  N 
BRANCH 35 37
ATOM     37  CB  MET R   3       1.856   4.436 -16.898  1.00 55.44 LIG 0.06  C 
BRANCH 37 38
ATOM     38  CG  MET R   3       0.431   4.174 -16.459  1.00 49.90 LIG 0.08  C 
BRANCH 38 39
ATOM     39 SD   MET R   3       0.194   4.751 -14.768  1.00 67.63 LIG-0.17  SA
ATOM     40  CE  MET R   3      -1.370   3.978 -14.361  1.00 69.90 LIG 0.09  C 
ENDBRANCH 38 39
ENDBRANCH 37 38
ENDBRANCH 35 37
ENDBRANCH 31 35
ENDBRANCH 1 28
TORSDOF 14
ENDMDL
MODEL 23
USER: ADFR SOLUTION from run 187
USER: SCORE 10.691501 LL:  -3.603 LR:  -8.142 RR:   0.000 FEB:  -3.966
USER: RMSD 4.018978
USER: SEED 186
USER: STATUS no improvement in best in 16 clusters for 5 generations
USER: GENES 16
USER: genes 0 Translation |==|  0.35046 0.53684 0.55107
USER: genes 1 Rotation |==|  0.46821 0.56673 0.54826 0.99215
USER: genes 2 Torsion [N]-CA--C-[N] |==|  0.74963
USER: genes 3 Torsion [C]-N--CA-[CB] |==|  0.53140
USER: genes 4 Torsion [N]-CA--CB-[CG2] |==|  0.48668
USER: genes 5 Torsion [CA]-CB--OG1-[HG1] |==|  0.31711
USER: genes 6 Torsion [N]-CA--C-[N] |==|  0.79406
USER: genes 7 Torsion [C]-N--CA-[CB] |==|  0.47653
USER: genes 8 Torsion [N]-CA--CB-[CG] |==|  0.36321
USER: genes 9 Torsion [CA]-CB--CG-[CD1] |==|  0.30815
USER: genes 10 Torsion [N]-CA--C-[O] |==|  0.96398
USER: genes 11 Torsion [O]-C--CA-[N] |==|  0.88260
USER: genes 12 Torsion [N]-C--CA-[N] |==|  0.39969
USER: genes 13 Torsion [C]-CA--CB-[CG] |==|  0.04844
USER: genes 14 Torsion [CA]-CB--CG-[SD] |==|  0.54682
USER: genes 15 Torsion [CB]-CG--SD-[CE] |==|  0.97241
ROOT
ATOM      1  C   PRO R   4       3.074   0.907 -14.119  1.00 60.54 LIG 0.24  C 
ATOM      2 O    PRO R   4       3.472   0.208 -15.053  1.00 63.53 LIG-0.27  OA
ATOM      3  N   PRO R   5       3.888   1.395 -13.166  1.00 48.92 LIG-0.34  N 
ATOM      4  CA  PRO R   5       5.323   1.081 -13.166  1.00 52.68 LIG 0.18  C 
ATOM      5  CB  PRO R   5       5.843   1.823 -11.929  1.00 55.54 LIG 0.04  C 
ATOM      6  CG  PRO R   5       4.888   2.938 -11.721  1.00 46.13 LIG 0.02  C 
ATOM      7  CD  PRO R   5       3.547   2.411 -12.153  1.00 43.47 LIG 0.13  C 
ENDROOT
BRANCH 4 8
ATOM      8  C   PRO R   5       5.624  -0.415 -13.032  1.00 58.07 LIG 0.24  C 
ATOM      9 O    PRO R   5       5.717  -1.127 -14.035  1.00 51.36 LIG-0.27  OA
ATOM     10  N   THR R   6       5.766  -0.876 -11.793  1.00 69.24 LIG-0.34  N 
ATOM     11 H    THR R   6       5.748  -0.376 -11.093  1.00 69.24 LIG 0.16  HD
BRANCH 10 12
ATOM     12  CA  THR R   6       5.968  -2.292 -11.508  1.00 55.31 LIG 0.20  C 
BRANCH 12 13
ATOM     13  CB  THR R   6       5.823  -2.596 -10.000  1.00 60.29 LIG 0.15  C 
ATOM     14  CG2 THR R   6       5.919  -4.091  -9.737  1.00 62.01 LIG 0.04  C 
BRANCH 13 15
ATOM     15 OG1  THR R   6       6.860  -1.926  -9.272  1.00 91.48 LIG-0.39  OA
ATOM     16 HG1  THR R   6       6.520  -1.339  -8.777  1.00 91.48 LIG 0.21  HD
ENDBRANCH 13 15
ENDBRANCH 12 13
BRANCH 12 17
ATOM     17  C   THR R   6       4.957  -3.122 -12.287  1.00 56.48 LIG 0.24  C 
ATOM     18  N   LEU R   7       3.705  -3.097 -11.837  1.00 43.78 LIG-0.35  N 
ATOM     19 H    LEU R   7       3.448  -2.637 -11.157  1.00 43.78 LIG 0.16  HD
ATOM     20 O    THR R   6       5.308  -3.773 -13.273  1.00 41.48 LIG-0.27  OA
BRANCH 18 21
ATOM     21  CA  LEU R   7       2.648  -3.868 -12.478  1.00 53.52 LIG 0.16  C 
BRANCH 21 22
ATOM     22  CB  LEU R   7       1.370  -3.821 -11.638  1.00 41.32 LIG 0.04  C 
BRANCH 22 23
ATOM     23  CG  LEU R   7       0.098  -3.465 -12.414  1.00 48.65 LIG-0.02  C 
ATOM     24  CD1 LEU R   7      -0.845  -4.657 -12.517  1.00 40.28 LIG 0.01  C 
ATOM     25  CD2 LEU R   7      -0.609  -2.274 -11.778  1.00 37.72 LIG 0.01  C 
ENDBRANCH 22 23
ENDBRANCH 21 22
BRANCH 21 26
ATOM     26  C   LEU R   7       2.377  -3.374 -13.897  1.00 46.73 LIG 0.22  C 
ATOM     27 O    LEU R   7       2.836  -2.299 -14.287  1.00 57.50 LIG-0.29  OA
ENDBRANCH 21 26
ENDBRANCH 18 21
ENDBRANCH 12 17
ENDBRANCH 10 12
ENDBRANCH 4 8
BRANCH 1 28
ATOM     28  CA  PRO R   4       1.587   1.249 -14.031  1.00 54.23 LIG 0.18  C 
ATOM     29  N   PRO R   4       1.077   1.587 -15.363  1.00 66.40 LIG-0.34  N 
ATOM     30  CD  PRO R   4       0.396   0.435 -15.974  1.00 55.20 LIG 0.13  C 
ATOM     31  C   MET R   3       1.077   2.786 -15.971  1.00 65.13 LIG 0.26  C 
ATOM     32  CG  PRO R   4      -0.193  -0.249 -14.783  1.00 51.34 LIG 0.02  C 
ATOM     33  CB  PRO R   4       0.778  -0.007 -13.653  1.00 43.90 LIG 0.04  C 
ATOM     34 O    MET R   3       0.677   2.942 -17.127  1.00 74.37 LIG-0.27  OA
BRANCH 31 35
ATOM     35  CA  MET R   3       1.591   3.983 -15.173  1.00 67.30 LIG 0.40  C 
ATOM     36  N   MET R   3       2.326   4.940 -15.996  1.00 55.69 LIG 0.61  N 
BRANCH 35 37
ATOM     37  CB  MET R   3       0.400   4.659 -14.485  1.00 55.44 LIG 0.06  C 
BRANCH 37 38
ATOM     38  CG  MET R   3      -0.854   3.818 -14.390  1.00 49.90 LIG 0.08  C 
BRANCH 38 39
ATOM     39 SD   MET R   3      -2.273   4.869 -14.029  1.00 67.63 LIG-0.17  SA
ATOM     40  CE  MET R   3      -1.460   6.421 -13.653  1.00 69.90 LIG 0.09  C 
ENDBRANCH 38 39
ENDBRANCH 37 38
ENDBRANCH 35 37
ENDBRANCH 31 35
ENDBRANCH 1 28
TORSDOF 14
ENDMDL
MODEL 24
USER: ADFR SOLUTION from run 122
USER: SCORE 10.903949 LL:  -3.083 LR:  -8.051 RR:   0.000 FEB:  -3.875
USER: RMSD 4.366837
USER: SEED 121
USER: STATUS no improvement in best in 11 clusters for 5 generations
USER: GENES 16
USER: genes 0 Translation |==|  0.50582 0.50521 0.62074
USER: genes 1 Rotation |==|  0.34083 0.66175 0.27124 0.88232
USER: genes 2 Torsion [N]-CA--C-[N] |==|  0.44603
USER: genes 3 Torsion [C]-N--CA-[CB] |==|  0.86946
USER: genes 4 Torsion [N]-CA--CB-[CG2] |==|  0.59096
USER: genes 5 Torsion [CA]-CB--OG1-[HG1] |==|  0.34665
USER: genes 6 Torsion [N]-CA--C-[N] |==|  0.34804
USER: genes 7 Torsion [C]-N--CA-[CB] |==|  0.18421
USER: genes 8 Torsion [N]-CA--CB-[CG] |==|  0.58122
USER: genes 9 Torsion [CA]-CB--CG-[CD1] |==|  0.38810
USER: genes 10 Torsion [N]-CA--C-[O] |==|  0.98305
USER: genes 11 Torsion [O]-C--CA-[N] |==|  0.91593
USER: genes 12 Torsion [N]-C--CA-[N] |==|  0.40173
USER: genes 13 Torsion [C]-CA--CB-[CG] |==|  0.29154
USER: genes 14 Torsion [CA]-CB--CG-[SD] |==|  0.73334
USER: genes 15 Torsion [CB]-CG--SD-[CE] |==|  0.41802
ROOT
ATOM      1  C   PRO R   4       5.871   0.267 -12.708  1.00 60.54 LIG 0.24  C 
ATOM      2 O    PRO R   4       5.024  -0.622 -12.816  1.00 63.53 LIG-0.27  OA
ATOM      3  N   PRO R   5       7.130   0.038 -12.295  1.00 48.92 LIG-0.34  N 
ATOM      4  CA  PRO R   5       7.563  -1.311 -11.905  1.00 52.68 LIG 0.18  C 
ATOM      5  CB  PRO R   5       9.030  -1.107 -11.509  1.00 55.54 LIG 0.04  C 
ATOM      6  CG  PRO R   5       9.468   0.090 -12.266  1.00 46.13 LIG 0.02  C 
ATOM      7  CD  PRO R   5       8.260   0.983 -12.350  1.00 43.47 LIG 0.13  C 
ENDROOT
BRANCH 4 8
ATOM      8  C   PRO R   5       6.785  -1.885 -10.718  1.00 58.07 LIG 0.24  C 
ATOM      9 O    PRO R   5       6.163  -1.140  -9.956  1.00 51.36 LIG-0.27  OA
ATOM     10  N   THR R   6       6.833  -3.207 -10.568  1.00 69.24 LIG-0.34  N 
ATOM     11 H    THR R   6       7.227  -3.734 -11.122  1.00 69.24 LIG 0.16  HD
BRANCH 10 12
ATOM     12  CA  THR R   6       6.214  -3.885  -9.435  1.00 55.31 LIG 0.20  C 
BRANCH 12 13
ATOM     13  CB  THR R   6       6.562  -3.192  -8.098  1.00 60.29 LIG 0.15  C 
ATOM     14  CG2 THR R   6       6.652  -4.208  -6.969  1.00 62.01 LIG 0.04  C 
BRANCH 13 15
ATOM     15 OG1  THR R   6       7.819  -2.515  -8.219  1.00 91.48 LIG-0.39  OA
ATOM     16 HG1  THR R   6       7.723  -1.707  -8.012  1.00 91.48 LIG 0.21  HD
ENDBRANCH 13 15
ENDBRANCH 12 13
BRANCH 12 17
ATOM     17  C   THR R   6       4.703  -3.906  -9.612  1.00 56.48 LIG 0.24  C 
ATOM     18  N   LEU R   7       4.121  -5.102  -9.554  1.00 43.78 LIG-0.35  N 
ATOM     19 H    LEU R   7       4.546  -5.836  -9.411  1.00 43.78 LIG 0.16  HD
ATOM     20 O    THR R   6       4.079  -2.860  -9.801  1.00 41.48 LIG-0.27  OA
BRANCH 18 21
ATOM     21  CA  LEU R   7       2.684  -5.260  -9.733  1.00 53.52 LIG 0.16  C 
BRANCH 21 22
ATOM     22  CB  LEU R   7       2.282  -4.899 -11.165  1.00 41.32 LIG 0.04  C 
BRANCH 22 23
ATOM     23  CG  LEU R   7       0.861  -4.349 -11.320  1.00 48.65 LIG-0.02  C 
ATOM     24  CD1 LEU R   7       0.814  -3.196 -12.315  1.00 40.28 LIG 0.01  C 
ATOM     25  CD2 LEU R   7      -0.106  -5.453 -11.730  1.00 37.72 LIG 0.01  C 
ENDBRANCH 22 23
ENDBRANCH 21 22
BRANCH 21 26
ATOM     26  C   LEU R   7       2.231  -6.678  -9.390  1.00 46.73 LIG 0.22  C 
ATOM     27 O    LEU R   7       3.054  -7.555  -9.124  1.00 57.50 LIG-0.29  OA
ENDBRANCH 21 26
ENDBRANCH 18 21
ENDBRANCH 12 17
ENDBRANCH 10 12
ENDBRANCH 4 8
BRANCH 1 28
ATOM     28  CA  PRO R   4       5.486   1.702 -13.063  1.00 54.23 LIG 0.18  C 
ATOM     29  N   PRO R   4       4.459   1.697 -14.108  1.00 66.40 LIG-0.34  N 
ATOM     30  CD  PRO R   4       3.119   1.874 -13.530  1.00 55.20 LIG 0.13  C 
ATOM     31  C   MET R   3       4.633   1.661 -15.441  1.00 65.13 LIG 0.26  C 
ATOM     32  CG  PRO R   4       3.397   2.758 -12.358  1.00 51.34 LIG 0.02  C 
ATOM     33  CB  PRO R   4       4.771   2.368 -11.871  1.00 43.90 LIG 0.04  C 
ATOM     34 O    MET R   3       3.688   1.594 -16.231  1.00 74.37 LIG-0.27  OA
BRANCH 31 35
ATOM     35  CA  MET R   3       6.065   1.716 -15.969  1.00 67.30 LIG 0.40  C 
ATOM     36  N   MET R   3       6.260   0.906 -17.168  1.00 55.69 LIG 0.61  N 
BRANCH 35 37
ATOM     37  CB  MET R   3       6.431   3.180 -16.237  1.00 55.44 LIG 0.06  C 
BRANCH 37 38
ATOM     38  CG  MET R   3       7.358   3.811 -15.221  1.00 49.90 LIG 0.08  C 
BRANCH 38 39
ATOM     39 SD   MET R   3       6.398   4.719 -13.995  1.00 67.63 LIG-0.17  SA
ATOM     40  CE  MET R   3       7.459   4.576 -12.558  1.00 69.90 LIG 0.09  C 
ENDBRANCH 38 39
ENDBRANCH 37 38
ENDBRANCH 35 37
ENDBRANCH 31 35
ENDBRANCH 1 28
TORSDOF 14
ENDMDL
MODEL 25
USER: ADFR SOLUTION from run 43
USER: SCORE 9.325950 LL:  -2.214 LR:  -7.986 RR:   0.000 FEB:  -3.810
USER: RMSD 4.201808
USER: SEED 42
USER: STATUS no improvement in best in 19 clusters for 5 generations
USER: GENES 16
USER: genes 0 Translation |==|  0.41839 0.54146 0.53827
USER: genes 1 Rotation |==|  0.44307 0.45223 0.52817 0.99364
USER: genes 2 Torsion [N]-CA--C-[N] |==|  0.48657
USER: genes 3 Torsion [C]-N--CA-[CB] |==|  0.46749
USER: genes 4 Torsion [N]-CA--CB-[CG2] |==|  0.69126
USER: genes 5 Torsion [CA]-CB--OG1-[HG1] |==|  0.42737
USER: genes 6 Torsion [N]-CA--C-[N] |==|  0.45368
USER: genes 7 Torsion [C]-N--CA-[CB] |==|  0.37899
USER: genes 8 Torsion [N]-CA--CB-[CG] |==|  0.80724
USER: genes 9 Torsion [CA]-CB--CG-[CD1] |==|  0.56897
USER: genes 10 Torsion [N]-CA--C-[O] |==|  0.35309
USER: genes 11 Torsion [O]-C--CA-[N] |==|  0.32104
USER: genes 12 Torsion [N]-C--CA-[N] |==|  0.87193
USER: genes 13 Torsion [C]-CA--CB-[CG] |==|  0.31377
USER: genes 14 Torsion [CA]-CB--CG-[SD] |==|  0.71368
USER: genes 15 Torsion [CB]-CG--SD-[CE] |==|  0.27423
ROOT
ATOM      1  C   PRO R   4       4.297   1.001 -14.378  1.00 60.54 LIG 0.24  C 
ATOM      2 O    PRO R   4       5.038   0.228 -14.990  1.00 63.53 LIG-0.27  OA
ATOM      3  N   PRO R   5       4.616   1.539 -13.188  1.00 48.92 LIG-0.34  N 
ATOM      4  CA  PRO R   5       5.878   1.195 -12.518  1.00 52.68 LIG 0.18  C 
ATOM      5  CB  PRO R   5       5.820   2.014 -11.223  1.00 55.54 LIG 0.04  C 
ATOM      6  CG  PRO R   5       4.933   3.161 -11.533  1.00 46.13 LIG 0.02  C 
ATOM      7  CD  PRO R   5       3.907   2.632 -12.498  1.00 43.47 LIG 0.13  C 
ENDROOT
BRANCH 4 8
ATOM      8  C   PRO R   5       6.009  -0.292 -12.181  1.00 58.07 LIG 0.24  C 
ATOM      9 O    PRO R   5       5.069  -1.066 -12.383  1.00 51.36 LIG-0.27  OA
ATOM     10  N   THR R   6       7.173  -0.676 -11.665  1.00 69.24 LIG-0.34  N 
ATOM     11 H    THR R   6       7.846  -0.151 -11.565  1.00 69.24 LIG 0.16  HD
BRANCH 10 12
ATOM     12  CA  THR R   6       7.412  -2.043 -11.215  1.00 55.31 LIG 0.20  C 
BRANCH 12 13
ATOM     13  CB  THR R   6       8.910  -2.297 -10.933  1.00 60.29 LIG 0.15  C 
ATOM     14  CG2 THR R   6       9.499  -3.253 -11.958  1.00 62.01 LIG 0.04  C 
BRANCH 13 15
ATOM     15 OG1  THR R   6       9.626  -1.057 -10.985  1.00 91.48 LIG-0.39  OA
ATOM     16 HG1  THR R   6      10.315  -1.111 -10.507  1.00 91.48 LIG 0.21  HD
ENDBRANCH 13 15
ENDBRANCH 12 13
BRANCH 12 17
ATOM     17  C   THR R   6       6.610  -2.315  -9.950  1.00 56.48 LIG 0.24  C 
ATOM     18  N   LEU R   7       6.452  -3.594  -9.618  1.00 43.78 LIG-0.35  N 
ATOM     19 H    LEU R   7       6.784  -4.251 -10.063  1.00 43.78 LIG 0.16  HD
ATOM     20 O    THR R   6       6.141  -1.383  -9.292  1.00 41.48 LIG-0.27  OA
BRANCH 18 21
ATOM     21  CA  LEU R   7       5.683  -3.988  -8.444  1.00 53.52 LIG 0.16  C 
BRANCH 21 22
ATOM     22  CB  LEU R   7       4.774  -5.174  -8.776  1.00 41.32 LIG 0.04  C 
BRANCH 22 23
ATOM     23  CG  LEU R   7       3.610  -4.854  -9.719  1.00 48.65 LIG-0.02  C 
ATOM     24  CD1 LEU R   7       2.457  -5.831  -9.532  1.00 40.28 LIG 0.01  C 
ATOM     25  CD2 LEU R   7       3.135  -3.419  -9.527  1.00 37.72 LIG 0.01  C 
ENDBRANCH 22 23
ENDBRANCH 21 22
BRANCH 21 26
ATOM     26  C   LEU R   7       6.595  -4.324  -7.266  1.00 46.73 LIG 0.22  C 
ATOM     27 O    LEU R   7       6.429  -3.787  -6.169  1.00 57.50 LIG-0.29  OA
ENDBRANCH 21 26
ENDBRANCH 18 21
ENDBRANCH 12 17
ENDBRANCH 10 12
ENDBRANCH 4 8
BRANCH 1 28
ATOM     28  CA  PRO R   4       2.951   1.379 -14.995  1.00 54.23 LIG 0.18  C 
ATOM     29  N   PRO R   4       1.861   0.881 -14.151  1.00 66.40 LIG-0.34  N 
ATOM     30  CD  PRO R   4       1.342   1.945 -13.279  1.00 55.20 LIG 0.13  C 
ATOM     31  C   MET R   3       1.273  -0.328 -14.185  1.00 65.13 LIG 0.26  C 
ATOM     32  CG  PRO R   4       1.519   3.161 -14.128  1.00 51.34 LIG 0.02  C 
ATOM     33  CB  PRO R   4       2.760   2.908 -14.948  1.00 43.90 LIG 0.04  C 
ATOM     34 O    MET R   3       0.402  -0.663 -13.378  1.00 74.37 LIG-0.27  OA
BRANCH 31 35
ATOM     35  CA  MET R   3       1.713  -1.297 -15.279  1.00 67.30 LIG 0.40  C 
ATOM     36  N   MET R   3       1.791  -0.670 -16.596  1.00 55.69 LIG 0.61  N 
BRANCH 35 37
ATOM     37  CB  MET R   3       3.066  -1.899 -14.884  1.00 55.44 LIG 0.06  C 
BRANCH 37 38
ATOM     38  CG  MET R   3       3.049  -3.380 -14.572  1.00 49.90 LIG 0.08  C 
BRANCH 38 39
ATOM     39 SD   MET R   3       3.105  -3.633 -12.788  1.00 67.63 LIG-0.17  SA
ATOM     40  CE  MET R   3       1.372  -3.912 -12.430  1.00 69.90 LIG 0.09  C 
ENDBRANCH 38 39
ENDBRANCH 37 38
ENDBRANCH 35 37
ENDBRANCH 31 35
ENDBRANCH 1 28
TORSDOF 14
ENDMDL
MODEL 26
USER: ADFR SOLUTION from run 149
USER: SCORE 10.640436 LL:  -2.728 LR:  -7.952 RR:   0.000 FEB:  -3.775
USER: RMSD 4.526844
USER: SEED 148
USER: STATUS no improvement in best in 16 clusters for 5 generations
USER: GENES 16
USER: genes 0 Translation |==|  0.50076 0.50403 0.60530
USER: genes 1 Rotation |==|  0.39614 0.75811 0.24553 0.82839
USER: genes 2 Torsion [N]-CA--C-[N] |==|  0.63833
USER: genes 3 Torsion [C]-N--CA-[CB] |==|  0.85170
USER: genes 4 Torsion [N]-CA--CB-[CG2] |==|  0.59413
USER: genes 5 Torsion [CA]-CB--OG1-[HG1] |==|  0.65770
USER: genes 6 Torsion [N]-CA--C-[N] |==|  0.37728
USER: genes 7 Torsion [C]-N--CA-[CB] |==|  0.85121
USER: genes 8 Torsion [N]-CA--CB-[CG] |==|  0.50915
USER: genes 9 Torsion [CA]-CB--CG-[CD1] |==|  0.25596
USER: genes 10 Torsion [N]-CA--C-[O] |==|  0.09268
USER: genes 11 Torsion [O]-C--CA-[N] |==|  0.00547
USER: genes 12 Torsion [N]-C--CA-[N] |==|  0.37321
USER: genes 13 Torsion [C]-CA--CB-[CG] |==|  0.07027
USER: genes 14 Torsion [CA]-CB--CG-[SD] |==|  0.23024
USER: genes 15 Torsion [CB]-CG--SD-[CE] |==|  0.51926
ROOT
ATOM      1  C   PRO R   4       5.780   0.243 -13.021  1.00 60.54 LIG 0.24  C 
ATOM      2 O    PRO R   4       4.650  -0.247 -13.067  1.00 63.53 LIG-0.27  OA
ATOM      3  N   PRO R   5       6.903  -0.497 -13.013  1.00 48.92 LIG-0.34  N 
ATOM      4  CA  PRO R   5       6.841  -1.964 -13.021  1.00 52.68 LIG 0.18  C 
ATOM      5  CB  PRO R   5       8.317  -2.377 -13.002  1.00 55.54 LIG 0.04  C 
ATOM      6  CG  PRO R   5       9.043  -1.233 -13.603  1.00 46.13 LIG 0.02  C 
ATOM      7  CD  PRO R   5       8.282  -0.004 -13.186  1.00 43.47 LIG 0.13  C 
ENDROOT
BRANCH 4 8
ATOM      8  C   PRO R   5       6.126  -2.555 -11.803  1.00 58.07 LIG 0.24  C 
ATOM      9 O    PRO R   5       5.021  -2.128 -11.456  1.00 51.36 LIG-0.27  OA
ATOM     10  N   THR R   6       6.767  -3.528 -11.161  1.00 69.24 LIG-0.34  N 
ATOM     11 H    THR R   6       7.515  -3.860 -11.425  1.00 69.24 LIG 0.16  HD
BRANCH 10 12
ATOM     12  CA  THR R   6       6.249  -4.124  -9.934  1.00 55.31 LIG 0.20  C 
BRANCH 12 13
ATOM     13  CB  THR R   6       5.937  -3.050  -8.868  1.00 60.29 LIG 0.15  C 
ATOM     14  CG2 THR R   6       6.210  -3.581  -7.468  1.00 62.01 LIG 0.04  C 
BRANCH 13 15
ATOM     15 OG1  THR R   6       6.752  -1.893  -9.095  1.00 91.48 LIG-0.39  OA
ATOM     16 HG1  THR R   6       7.199  -1.726  -8.405  1.00 91.48 LIG 0.21  HD
ENDBRANCH 13 15
ENDBRANCH 12 13
BRANCH 12 17
ATOM     17  C   THR R   6       4.984  -4.911 -10.240  1.00 56.48 LIG 0.24  C 
ATOM     18  N   LEU R   7       4.884  -6.109  -9.670  1.00 43.78 LIG-0.35  N 
ATOM     19 H    LEU R   7       5.477  -6.440  -9.141  1.00 43.78 LIG 0.16  HD
ATOM     20 O    THR R   6       4.117  -4.442 -10.982  1.00 41.48 LIG-0.27  OA
BRANCH 18 21
ATOM     21  CA  LEU R   7       3.734  -6.973  -9.902  1.00 53.52 LIG 0.16  C 
BRANCH 21 22
ATOM     22  CB  LEU R   7       2.435  -6.224  -9.597  1.00 41.32 LIG 0.04  C 
BRANCH 22 23
ATOM     23  CG  LEU R   7       1.158  -7.060  -9.730  1.00 48.65 LIG-0.02  C 
ATOM     24  CD1 LEU R   7       0.768  -7.698  -8.403  1.00 40.28 LIG 0.01  C 
ATOM     25  CD2 LEU R   7       0.013  -6.217 -10.278  1.00 37.72 LIG 0.01  C 
ENDBRANCH 22 23
ENDBRANCH 21 22
BRANCH 21 26
ATOM     26  C   LEU R   7       3.719  -7.512 -11.331  1.00 46.73 LIG 0.22  C 
ATOM     27 O    LEU R   7       4.772  -7.755 -11.923  1.00 57.50 LIG-0.29  OA
ENDBRANCH 21 26
ENDBRANCH 18 21
ENDBRANCH 12 17
ENDBRANCH 10 12
ENDBRANCH 4 8
BRANCH 1 28
ATOM     28  CA  PRO R   4       5.926   1.763 -12.976  1.00 54.23 LIG 0.18  C 
ATOM     29  N   PRO R   4       4.600   2.388 -12.950  1.00 66.40 LIG-0.34  N 
ATOM     30  CD  PRO R   4       4.217   2.756 -11.579  1.00 55.20 LIG 0.13  C 
ATOM     31  C   MET R   3       3.824   2.728 -13.995  1.00 65.13 LIG 0.26  C 
ATOM     32  CG  PRO R   4       5.536   3.101 -10.967  1.00 51.34 LIG 0.02  C 
ATOM     33  CB  PRO R   4       6.543   2.195 -11.631  1.00 43.90 LIG 0.04  C 
ATOM     34 O    MET R   3       2.691   3.193 -13.854  1.00 74.37 LIG-0.27  OA
BRANCH 31 35
ATOM     35  CA  MET R   3       4.397   2.527 -15.396  1.00 67.30 LIG 0.40  C 
ATOM     36  N   MET R   3       3.451   1.894 -16.311  1.00 55.69 LIG 0.61  N 
BRANCH 35 37
ATOM     37  CB  MET R   3       4.850   3.888 -15.938  1.00 55.44 LIG 0.06  C 
BRANCH 37 38
ATOM     38  CG  MET R   3       5.204   4.917 -14.887  1.00 49.90 LIG 0.08  C 
BRANCH 38 39
ATOM     39 SD   MET R   3       6.897   4.661 -14.323  1.00 67.63 LIG-0.17  SA
ATOM     40  CE  MET R   3       6.987   5.835 -12.973  1.00 69.90 LIG 0.09  C 
ENDBRANCH 38 39
ENDBRANCH 37 38
ENDBRANCH 35 37
ENDBRANCH 31 35
ENDBRANCH 1 28
TORSDOF 14
ENDMDL
MODEL 27
USER: ADFR SOLUTION from run 170
USER: SCORE 9.321293 LL:  -1.486 LR:  -7.922 RR:   0.000 FEB:  -3.745
USER: RMSD 5.131081
USER: SEED 169
USER: STATUS no improvement in best in 23 clusters for 5 generations
USER: GENES 16
USER: genes 0 Translation |==|  0.44839 0.50747 0.54237
USER: genes 1 Rotation |==|  0.39222 0.49627 0.36762 0.96994
USER: genes 2 Torsion [N]-CA--C-[N] |==|  0.59583
USER: genes 3 Torsion [C]-N--CA-[CB] |==|  0.13335
USER: genes 4 Torsion [N]-CA--CB-[CG2] |==|  0.15655
USER: genes 5 Torsion [CA]-CB--OG1-[HG1] |==|  0.29552
USER: genes 6 Torsion [N]-CA--C-[N] |==|  0.12150
USER: genes 7 Torsion [C]-N--CA-[CB] |==|  0.36942
USER: genes 8 Torsion [N]-CA--CB-[CG] |==|  0.87845
USER: genes 9 Torsion [CA]-CB--CG-[CD1] |==|  0.47015
USER: genes 10 Torsion [N]-CA--C-[O] |==|  0.27171
USER: genes 11 Torsion [O]-C--CA-[N] |==|  0.32416
USER: genes 12 Torsion [N]-C--CA-[N] |==|  0.19563
USER: genes 13 Torsion [C]-CA--CB-[CG] |==|  0.62194
USER: genes 14 Torsion [CA]-CB--CG-[SD] |==|  0.33161
USER: genes 15 Torsion [CB]-CG--SD-[CE] |==|  0.73353
ROOT
ATOM      1  C   PRO R   4       4.837   0.312 -14.295  1.00 60.54 LIG 0.24  C 
ATOM      2 O    PRO R   4       4.852  -0.822 -14.776  1.00 63.53 LIG-0.27  OA
ATOM      3  N   PRO R   5       5.571   0.669 -13.226  1.00 48.92 LIG-0.34  N 
ATOM      4  CA  PRO R   5       6.421  -0.310 -12.534  1.00 52.68 LIG 0.18  C 
ATOM      5  CB  PRO R   5       7.050   0.512 -11.403  1.00 55.54 LIG 0.04  C 
ATOM      6  CG  PRO R   5       7.036   1.911 -11.892  1.00 46.13 LIG 0.02  C 
ATOM      7  CD  PRO R   5       5.790   2.038 -12.725  1.00 43.47 LIG 0.13  C 
ENDROOT
BRANCH 4 8
ATOM      8  C   PRO R   5       5.642  -1.488 -11.942  1.00 58.07 LIG 0.24  C 
ATOM      9 O    PRO R   5       4.641  -1.929 -12.513  1.00 51.36 LIG-0.27  OA
ATOM     10  N   THR R   6       6.106  -1.982 -10.797  1.00 69.24 LIG-0.34  N 
ATOM     11 H    THR R   6       6.829  -1.709 -10.419  1.00 69.24 LIG 0.16  HD
BRANCH 10 12
ATOM     12  CA  THR R   6       5.419  -3.045 -10.073  1.00 55.31 LIG 0.20  C 
BRANCH 12 13
ATOM     13  CB  THR R   6       5.027  -4.211 -11.008  1.00 60.29 LIG 0.15  C 
ATOM     14  CG2 THR R   6       6.248  -4.761 -11.729  1.00 62.01 LIG 0.04  C 
BRANCH 13 15
ATOM     15 OG1  THR R   6       4.424  -5.262 -10.242  1.00 91.48 LIG-0.39  OA
ATOM     16 HG1  THR R   6       3.597  -5.273 -10.385  1.00 91.48 LIG 0.21  HD
ENDBRANCH 13 15
ENDBRANCH 12 13
BRANCH 12 17
ATOM     17  C   THR R   6       6.315  -3.573  -8.962  1.00 56.48 LIG 0.24  C 
ATOM     18  N   LEU R   7       6.960  -2.658  -8.242  1.00 43.78 LIG-0.35  N 
ATOM     19 H    LEU R   7       6.883  -1.809  -8.364  1.00 43.78 LIG 0.16  HD
ATOM     20 O    THR R   6       6.423  -4.785  -8.765  1.00 41.48 LIG-0.27  OA
BRANCH 18 21
ATOM     21  CA  LEU R   7       7.868  -3.033  -7.166  1.00 53.52 LIG 0.16  C 
BRANCH 21 22
ATOM     22  CB  LEU R   7       9.179  -2.251  -7.278  1.00 41.32 LIG 0.04  C 
BRANCH 22 23
ATOM     23  CG  LEU R   7       9.753  -2.148  -8.694  1.00 48.65 LIG-0.02  C 
ATOM     24  CD1 LEU R   7      10.899  -1.146  -8.760  1.00 40.28 LIG 0.01  C 
ATOM     25  CD2 LEU R   7      10.206  -3.514  -9.197  1.00 37.72 LIG 0.01  C 
ENDBRANCH 22 23
ENDBRANCH 21 22
BRANCH 21 26
ATOM     26  C   LEU R   7       7.230  -2.819  -5.796  1.00 46.73 LIG 0.22  C 
ATOM     27 O    LEU R   7       6.710  -3.757  -5.190  1.00 57.50 LIG-0.29  OA
ENDBRANCH 21 26
ENDBRANCH 18 21
ENDBRANCH 12 17
ENDBRANCH 10 12
ENDBRANCH 4 8
BRANCH 1 28
ATOM     28  CA  PRO R   4       3.951   1.378 -14.939  1.00 54.23 LIG 0.18  C 
ATOM     29  N   PRO R   4       2.924   1.811 -13.987  1.00 66.40 LIG-0.34  N 
ATOM     30  CD  PRO R   4       3.315   3.065 -13.326  1.00 55.20 LIG 0.13  C 
ATOM     31  C   MET R   3       1.713   1.269 -13.771  1.00 65.13 LIG 0.26  C 
ATOM     32  CG  PRO R   4       4.088   3.759 -14.400  1.00 51.34 LIG 0.02  C 
ATOM     33  CB  PRO R   4       4.766   2.663 -15.186  1.00 43.90 LIG 0.04  C 
ATOM     34 O    MET R   3       0.951   1.680 -12.893  1.00 74.37 LIG-0.27  OA
BRANCH 31 35
ATOM     35  CA  MET R   3       1.289   0.107 -14.667  1.00 67.30 LIG 0.40  C 
ATOM     36  N   MET R   3       2.037  -1.118 -14.400  1.00 55.69 LIG 0.61  N 
BRANCH 35 37
ATOM     37  CB  MET R   3      -0.216  -0.125 -14.487  1.00 55.44 LIG 0.06  C 
BRANCH 37 38
ATOM     38  CG  MET R   3      -0.635  -1.573 -14.355  1.00 49.90 LIG 0.08  C 
BRANCH 38 39
ATOM     39 SD   MET R   3      -1.436  -1.838 -12.762  1.00 67.63 LIG-0.17  SA
ATOM     40  CE  MET R   3      -0.062  -2.447 -11.787  1.00 69.90 LIG 0.09  C 
ENDBRANCH 38 39
ENDBRANCH 37 38
ENDBRANCH 35 37
ENDBRANCH 31 35
ENDBRANCH 1 28
TORSDOF 14
ENDMDL
MODEL 28
USER: ADFR SOLUTION from run 63
USER: SCORE 10.229003 LL:  -2.873 LR:  -7.920 RR:   0.000 FEB:  -3.743
USER: RMSD 4.252984
USER: SEED 62
USER: STATUS no improvement in best in 16 clusters for 5 generations
USER: GENES 16
USER: genes 0 Translation |==|  0.53184 0.52034 0.62401
USER: genes 1 Rotation |==|  0.33428 0.74486 0.28858 0.84334
USER: genes 2 Torsion [N]-CA--C-[N] |==|  0.51184
USER: genes 3 Torsion [C]-N--CA-[CB] |==|  0.79414
USER: genes 4 Torsion [N]-CA--CB-[CG2] |==|  0.87264
USER: genes 5 Torsion [CA]-CB--OG1-[HG1] |==|  0.12785
USER: genes 6 Torsion [N]-CA--C-[N] |==|  0.14014
USER: genes 7 Torsion [C]-N--CA-[CB] |==|  0.49334
USER: genes 8 Torsion [N]-CA--CB-[CG] |==|  0.45728
USER: genes 9 Torsion [CA]-CB--CG-[CD1] |==|  0.34947
USER: genes 10 Torsion [N]-CA--C-[O] |==|  0.18839
USER: genes 11 Torsion [O]-C--CA-[N] |==|  0.04244
USER: genes 12 Torsion [N]-C--CA-[N] |==|  0.36821
USER: genes 13 Torsion [C]-CA--CB-[CG] |==|  0.10969
USER: genes 14 Torsion [CA]-CB--CG-[SD] |==|  0.22899
USER: genes 15 Torsion [CB]-CG--SD-[CE] |==|  0.56434
ROOT
ATOM      1  C   PRO R   4       6.339   0.573 -12.642  1.00 60.54 LIG 0.24  C 
ATOM      2 O    PRO R   4       5.394  -0.211 -12.530  1.00 63.53 LIG-0.27  OA
ATOM      3  N   PRO R   5       7.623   0.175 -12.701  1.00 48.92 LIG-0.34  N 
ATOM      4  CA  PRO R   5       7.978  -1.246 -12.594  1.00 52.68 LIG 0.18  C 
ATOM      5  CB  PRO R   5       9.507  -1.234 -12.703  1.00 55.54 LIG 0.04  C 
ATOM      6  CG  PRO R   5       9.827  -0.000 -13.461  1.00 46.13 LIG 0.02  C 
ATOM      7  CD  PRO R   5       8.786   1.008 -13.056  1.00 43.47 LIG 0.13  C 
ENDROOT
BRANCH 4 8
ATOM      8  C   PRO R   5       7.562  -1.885 -11.266  1.00 58.07 LIG 0.24  C 
ATOM      9 O    PRO R   5       6.922  -1.238 -10.433  1.00 51.36 LIG-0.27  OA
ATOM     10  N   THR R   6       7.936  -3.147 -11.079  1.00 69.24 LIG-0.34  N 
ATOM     11 H    THR R   6       8.342  -3.617 -11.675  1.00 69.24 LIG 0.16  HD
BRANCH 10 12
ATOM     12  CA  THR R   6       7.688  -3.856  -9.829  1.00 55.31 LIG 0.20  C 
BRANCH 12 13
ATOM     13  CB  THR R   6       8.636  -3.379  -8.706  1.00 60.29 LIG 0.15  C 
ATOM     14  CG2 THR R   6      10.068  -3.285  -9.209  1.00 62.01 LIG 0.04  C 
BRANCH 13 15
ATOM     15 OG1  THR R   6       8.219  -2.088  -8.240  1.00 91.48 LIG-0.39  OA
ATOM     16 HG1  THR R   6       7.388  -2.089  -8.121  1.00 91.48 LIG 0.21  HD
ENDBRANCH 13 15
ENDBRANCH 12 13
BRANCH 12 17
ATOM     17  C   THR R   6       6.246  -3.641  -9.394  1.00 56.48 LIG 0.24  C 
ATOM     18  N   LEU R   7       5.313  -3.874 -10.314  1.00 43.78 LIG-0.35  N 
ATOM     19 H    LEU R   7       5.484  -4.146 -11.112  1.00 43.78 LIG 0.16  HD
ATOM     20 O    THR R   6       5.985  -3.267  -8.248  1.00 41.48 LIG-0.27  OA
BRANCH 18 21
ATOM     21  CA  LEU R   7       3.897  -3.681 -10.032  1.00 53.52 LIG 0.16  C 
BRANCH 21 22
ATOM     22  CB  LEU R   7       3.061  -3.965 -11.282  1.00 41.32 LIG 0.04  C 
BRANCH 22 23
ATOM     23  CG  LEU R   7       1.562  -4.157 -11.029  1.00 48.65 LIG-0.02  C 
ATOM     24  CD1 LEU R   7       0.727  -3.220 -11.893  1.00 40.28 LIG 0.01  C 
ATOM     25  CD2 LEU R   7       1.155  -5.607 -11.261  1.00 37.72 LIG 0.01  C 
ENDBRANCH 22 23
ENDBRANCH 21 22
BRANCH 21 26
ATOM     26  C   LEU R   7       3.434  -4.553  -8.867  1.00 46.73 LIG 0.22  C 
ATOM     27 O    LEU R   7       3.837  -4.340  -7.723  1.00 57.50 LIG-0.29  OA
ENDBRANCH 21 26
ENDBRANCH 18 21
ENDBRANCH 12 17
ENDBRANCH 10 12
ENDBRANCH 4 8
BRANCH 1 28
ATOM     28  CA  PRO R   4       6.052   2.071 -12.725  1.00 54.23 LIG 0.18  C 
ATOM     29  N   PRO R   4       4.677   2.338 -12.292  1.00 66.40 LIG-0.34  N 
ATOM     30  CD  PRO R   4       4.643   2.785 -10.892  1.00 55.20 LIG 0.13  C 
ATOM     31  C   MET R   3       3.556   2.320 -13.035  1.00 65.13 LIG 0.26  C 
ATOM     32  CG  PRO R   4       5.929   3.536 -10.771  1.00 51.34 LIG 0.02  C 
ATOM     33  CB  PRO R   4       6.900   2.830 -11.685  1.00 43.90 LIG 0.04  C 
ATOM     34 O    MET R   3       2.437   2.497 -12.549  1.00 74.37 LIG-0.27  OA
BRANCH 31 35
ATOM     35  CA  MET R   3       3.707   2.075 -14.535  1.00 67.30 LIG 0.40  C 
ATOM     36  N   MET R   3       2.777   1.071 -15.043  1.00 55.69 LIG 0.61  N 
BRANCH 35 37
ATOM     37  CB  MET R   3       3.519   3.409 -15.268  1.00 55.44 LIG 0.06  C 
BRANCH 37 38
ATOM     38  CG  MET R   3       4.142   4.611 -14.592  1.00 49.90 LIG 0.08  C 
BRANCH 38 39
ATOM     39 SD   MET R   3       5.895   4.705 -14.997  1.00 67.63 LIG-0.17  SA
ATOM     40  CE  MET R   3       6.512   5.671 -13.620  1.00 69.90 LIG 0.09  C 
ENDBRANCH 38 39
ENDBRANCH 37 38
ENDBRANCH 35 37
ENDBRANCH 31 35
ENDBRANCH 1 28
TORSDOF 14
ENDMDL
MODEL 29
USER: ADFR SOLUTION from run 63
USER: SCORE 9.968343 LL:  -3.112 LR:  -7.910 RR:   0.000 FEB:  -3.733
USER: RMSD 2.314038
USER: SEED 62
USER: STATUS no improvement in best in 16 clusters for 5 generations
USER: GENES 16
USER: genes 0 Translation |==|  0.41433 0.57592 0.56483
USER: genes 1 Rotation |==|  0.46008 0.51780 0.48494 0.99786
USER: genes 2 Torsion [N]-CA--C-[N] |==|  0.53882
USER: genes 3 Torsion [C]-N--CA-[CB] |==|  0.44475
USER: genes 4 Torsion [N]-CA--CB-[CG2] |==|  0.80317
USER: genes 5 Torsion [CA]-CB--OG1-[HG1] |==|  0.48101
USER: genes 6 Torsion [N]-CA--C-[N] |==|  0.45555
USER: genes 7 Torsion [C]-N--CA-[CB] |==|  0.40653
USER: genes 8 Torsion [N]-CA--CB-[CG] |==|  0.84265
USER: genes 9 Torsion [CA]-CB--CG-[CD1] |==|  0.53718
USER: genes 10 Torsion [N]-CA--C-[O] |==|  0.47430
USER: genes 11 Torsion [O]-C--CA-[N] |==|  0.01870
USER: genes 12 Torsion [N]-C--CA-[N] |==|  0.47142
USER: genes 13 Torsion [C]-CA--CB-[CG] |==|  0.34489
USER: genes 14 Torsion [CA]-CB--CG-[SD] |==|  0.02948
USER: genes 15 Torsion [CB]-CG--SD-[CE] |==|  0.53548
ROOT
ATOM      1  C   PRO R   4       4.224   1.698 -13.840  1.00 60.54 LIG 0.24  C 
ATOM      2 O    PRO R   4       4.629   0.863 -14.651  1.00 63.53 LIG-0.27  OA
ATOM      3  N   PRO R   5       4.915   2.055 -12.743  1.00 48.92 LIG-0.34  N 
ATOM      4  CA  PRO R   5       6.203   1.424 -12.424  1.00 52.68 LIG 0.18  C 
ATOM      5  CB  PRO R   5       6.617   2.114 -11.119  1.00 55.54 LIG 0.04  C 
ATOM      6  CG  PRO R   5       5.931   3.428 -11.146  1.00 46.13 LIG 0.02  C 
ATOM      7  CD  PRO R   5       4.622   3.190 -11.849  1.00 43.47 LIG 0.13  C 
ENDROOT
BRANCH 4 8
ATOM      8  C   PRO R   5       6.107  -0.088 -12.200  1.00 58.07 LIG 0.24  C 
ATOM      9 O    PRO R   5       5.093  -0.707 -12.530  1.00 51.36 LIG-0.27  OA
ATOM     10  N   THR R   6       7.164  -0.664 -11.633  1.00 69.24 LIG-0.34  N 
ATOM     11 H    THR R   6       7.890  -0.245 -11.444  1.00 69.24 LIG 0.16  HD
BRANCH 10 12
ATOM     12  CA  THR R   6       7.181  -2.079 -11.278  1.00 55.31 LIG 0.20  C 
BRANCH 12 13
ATOM     13  CB  THR R   6       8.624  -2.606 -11.109  1.00 60.29 LIG 0.15  C 
ATOM     14  CG2 THR R   6       9.330  -2.694 -12.453  1.00 62.01 LIG 0.04  C 
BRANCH 13 15
ATOM     15 OG1  THR R   6       9.361  -1.726 -10.251  1.00 91.48 LIG-0.39  OA
ATOM     16 HG1  THR R   6      10.112  -2.061 -10.085  1.00 91.48 LIG 0.21  HD
ENDBRANCH 13 15
ENDBRANCH 12 13
BRANCH 12 17
ATOM     17  C   THR R   6       6.413  -2.293  -9.982  1.00 56.48 LIG 0.24  C 
ATOM     18  N   LEU R   7       6.061  -3.547  -9.707  1.00 43.78 LIG-0.35  N 
ATOM     19 H    LEU R   7       6.256  -4.220 -10.205  1.00 43.78 LIG 0.16  HD
ATOM     20 O    THR R   6       6.141  -1.339  -9.249  1.00 41.48 LIG-0.27  OA
BRANCH 18 21
ATOM     21  CA  LEU R   7       5.301  -3.881  -8.510  1.00 53.52 LIG 0.16  C 
BRANCH 21 22
ATOM     22  CB  LEU R   7       4.358  -5.054  -8.789  1.00 41.32 LIG 0.04  C 
BRANCH 22 23
ATOM     23  CG  LEU R   7       3.379  -4.837  -9.946  1.00 48.65 LIG-0.02  C 
ATOM     24  CD1 LEU R   7       2.277  -5.889  -9.949  1.00 40.28 LIG 0.01  C 
ATOM     25  CD2 LEU R   7       2.783  -3.435  -9.897  1.00 37.72 LIG 0.01  C 
ENDBRANCH 22 23
ENDBRANCH 21 22
BRANCH 21 26
ATOM     26  C   LEU R   7       6.221  -4.200  -7.334  1.00 46.73 LIG 0.22  C 
ATOM     27 O    LEU R   7       5.765  -4.339  -6.198  1.00 57.50 LIG-0.29  OA
ENDBRANCH 21 26
ENDBRANCH 18 21
ENDBRANCH 12 17
ENDBRANCH 10 12
ENDBRANCH 4 8
BRANCH 1 28
ATOM     28  CA  PRO R   4       2.875   2.374 -14.085  1.00 54.23 LIG 0.18  C 
ATOM     29  N   PRO R   4       2.209   1.751 -15.232  1.00 66.40 LIG-0.34  N 
ATOM     30  CD  PRO R   4       1.215   0.762 -14.791  1.00 55.20 LIG 0.13  C 
ATOM     31  C   MET R   3       2.337   2.062 -16.534  1.00 65.13 LIG 0.26  C 
ATOM     32  CG  PRO R   4       0.728   1.356 -13.510  1.00 51.34 LIG 0.02  C 
ATOM     33  CB  PRO R   4       1.915   2.075 -12.917  1.00 43.90 LIG 0.04  C 
ATOM     34 O    MET R   3       1.773   1.424 -17.426  1.00 74.37 LIG-0.27  OA
BRANCH 31 35
ATOM     35  CA  MET R   3       3.214   3.261 -16.891  1.00 67.30 LIG 0.40  C 
ATOM     36  N   MET R   3       3.477   3.366 -18.324  1.00 55.69 LIG 0.61  N 
BRANCH 35 37
ATOM     37  CB  MET R   3       2.537   4.534 -16.369  1.00 55.44 LIG 0.06  C 
BRANCH 37 38
ATOM     38  CG  MET R   3       3.382   5.382 -15.443  1.00 49.90 LIG 0.08  C 
BRANCH 38 39
ATOM     39 SD   MET R   3       5.086   4.797 -15.459  1.00 67.63 LIG-0.17  SA
ATOM     40  CE  MET R   3       5.759   5.669 -14.046  1.00 69.90 LIG 0.09  C 
ENDBRANCH 38 39
ENDBRANCH 37 38
ENDBRANCH 35 37
ENDBRANCH 31 35
ENDBRANCH 1 28
TORSDOF 14
ENDMDL
MODEL 30
USER: ADFR SOLUTION from run 72
USER: SCORE 10.163330 LL:  -2.475 LR:  -7.860 RR:   0.000 FEB:  -3.684
USER: RMSD 4.834729
USER: SEED 71
USER: STATUS no improvement in best in 16 clusters for 5 generations
USER: GENES 16
USER: genes 0 Translation |==|  0.46470 0.49996 0.56822
USER: genes 1 Rotation |==|  0.16587 0.82092 0.32961 0.57960
USER: genes 2 Torsion [N]-CA--C-[N] |==|  0.52438
USER: genes 3 Torsion [C]-N--CA-[CB] |==|  0.85556
USER: genes 4 Torsion [N]-CA--CB-[CG2] |==|  0.46352
USER: genes 5 Torsion [CA]-CB--OG1-[HG1] |==|  0.70843
USER: genes 6 Torsion [N]-CA--C-[N] |==|  0.40667
USER: genes 7 Torsion [C]-N--CA-[CB] |==|  0.25316
USER: genes 8 Torsion [N]-CA--CB-[CG] |==|  0.66148
USER: genes 9 Torsion [CA]-CB--CG-[CD1] |==|  0.27481
USER: genes 10 Torsion [N]-CA--C-[O] |==|  0.20928
USER: genes 11 Torsion [O]-C--CA-[N] |==|  0.93806
USER: genes 12 Torsion [N]-C--CA-[N] |==|  0.18491
USER: genes 13 Torsion [C]-CA--CB-[CG] |==|  0.63106
USER: genes 14 Torsion [CA]-CB--CG-[SD] |==|  0.28574
USER: genes 15 Torsion [CB]-CG--SD-[CE] |==|  0.67625
ROOT
ATOM      1  C   PRO R   4       5.131   0.160 -13.772  1.00 60.54 LIG 0.24  C 
ATOM      2 O    PRO R   4       5.011  -0.049 -12.563  1.00 63.53 LIG-0.27  OA
ATOM      3  N   PRO R   5       5.723  -0.706 -14.613  1.00 48.92 LIG-0.34  N 
ATOM      4  CA  PRO R   5       6.308  -1.959 -14.118  1.00 52.68 LIG 0.18  C 
ATOM      5  CB  PRO R   5       6.863  -2.612 -15.389  1.00 55.54 LIG 0.04  C 
ATOM      6  CG  PRO R   5       6.045  -2.058 -16.494  1.00 46.13 LIG 0.02  C 
ATOM      7  CD  PRO R   5       5.712  -0.648 -16.086  1.00 43.47 LIG 0.13  C 
ENDROOT
BRANCH 4 8
ATOM      8  C   PRO R   5       7.440  -1.751 -13.109  1.00 58.07 LIG 0.24  C 
ATOM      9 O    PRO R   5       7.684  -0.627 -12.663  1.00 51.36 LIG-0.27  OA
ATOM     10  N   THR R   6       8.125  -2.839 -12.764  1.00 69.24 LIG-0.34  N 
ATOM     11 H    THR R   6       7.930  -3.631 -13.037  1.00 69.24 LIG 0.16  HD
BRANCH 10 12
ATOM     12  CA  THR R   6       9.285  -2.780 -11.882  1.00 55.31 LIG 0.20  C 
BRANCH 12 13
ATOM     13  CB  THR R   6      10.319  -1.739 -12.368  1.00 60.29 LIG 0.15  C 
ATOM     14  CG2 THR R   6      11.352  -1.456 -11.288  1.00 62.01 LIG 0.04  C 
BRANCH 13 15
ATOM     15 OG1  THR R   6      10.987  -2.232 -13.536  1.00 91.48 LIG-0.39  OA
ATOM     16 HG1  THR R   6      11.762  -2.481 -13.331  1.00 91.48 LIG 0.21  HD
ENDBRANCH 13 15
ENDBRANCH 12 13
BRANCH 12 17
ATOM     17  C   THR R   6       8.840  -2.425 -10.471  1.00 56.48 LIG 0.24  C 
ATOM     18  N   LEU R   7       9.539  -2.970  -9.479  1.00 43.78 LIG-0.35  N 
ATOM     19 H    LEU R   7      10.218  -3.485  -9.596  1.00 43.78 LIG 0.16  HD
ATOM     20 O    THR R   6       7.879  -1.675 -10.287  1.00 41.48 LIG-0.27  OA
BRANCH 18 21
ATOM     21  CA  LEU R   7       9.199  -2.730  -8.082  1.00 53.52 LIG 0.16  C 
BRANCH 21 22
ATOM     22  CB  LEU R   7       8.227  -3.800  -7.579  1.00 41.32 LIG 0.04  C 
BRANCH 22 23
ATOM     23  CG  LEU R   7       6.896  -3.265  -7.043  1.00 48.65 LIG-0.02  C 
ATOM     24  CD1 LEU R   7       5.791  -3.376  -8.086  1.00 40.28 LIG 0.01  C 
ATOM     25  CD2 LEU R   7       6.498  -3.986  -5.761  1.00 37.72 LIG 0.01  C 
ENDBRANCH 22 23
ENDBRANCH 21 22
BRANCH 21 26
ATOM     26  C   LEU R   7      10.446  -2.680  -7.203  1.00 46.73 LIG 0.22  C 
ATOM     27 O    LEU R   7      11.184  -1.694  -7.212  1.00 57.50 LIG-0.29  OA
ENDBRANCH 21 26
ENDBRANCH 18 21
ENDBRANCH 12 17
ENDBRANCH 10 12
ENDBRANCH 4 8
BRANCH 1 28
ATOM     28  CA  PRO R   4       4.578   1.459 -14.357  1.00 54.23 LIG 0.18  C 
ATOM     29  N   PRO R   4       3.541   1.999 -13.473  1.00 66.40 LIG-0.34  N 
ATOM     30  CD  PRO R   4       4.085   3.056 -12.607  1.00 55.20 LIG 0.13  C 
ATOM     31  C   MET R   3       2.226   1.717 -13.467  1.00 65.13 LIG 0.26  C 
ATOM     32  CG  PRO R   4       5.123   3.677 -13.484  1.00 51.34 LIG 0.02  C 
ATOM     33  CB  PRO R   4       5.663   2.553 -14.334  1.00 43.90 LIG 0.04  C 
ATOM     34 O    MET R   3       1.451   2.185 -12.630  1.00 74.37 LIG-0.27  OA
BRANCH 31 35
ATOM     35  CA  MET R   3       1.700   0.783 -14.556  1.00 67.30 LIG 0.40  C 
ATOM     36  N   MET R   3       2.211  -0.580 -14.430  1.00 55.69 LIG 0.61  N 
BRANCH 35 37
ATOM     37  CB  MET R   3       0.168   0.795 -14.511  1.00 55.44 LIG 0.06  C 
BRANCH 37 38
ATOM     38  CG  MET R   3      -0.491  -0.567 -14.550  1.00 49.90 LIG 0.08  C 
BRANCH 38 39
ATOM     39 SD   MET R   3      -1.049  -1.027 -12.900  1.00 67.63 LIG-0.17  SA
ATOM     40  CE  MET R   3      -0.040  -2.474 -12.589  1.00 69.90 LIG 0.09  C 
ENDBRANCH 38 39
ENDBRANCH 37 38
ENDBRANCH 35 37
ENDBRANCH 31 35
ENDBRANCH 1 28
TORSDOF 14
ENDMDL
MODEL 31
USER: ADFR SOLUTION from run 197
USER: SCORE 9.347250 LL:  -2.664 LR:  -7.860 RR:   0.000 FEB:  -3.684
USER: RMSD 2.740255
USER: SEED 196
USER: STATUS no improvement in best in 9 clusters for 5 generations
USER: GENES 16
USER: genes 0 Translation |==|  0.40980 0.56219 0.56484
USER: genes 1 Rotation |==|  0.47573 0.48443 0.48044 0.99878
USER: genes 2 Torsion [N]-CA--C-[N] |==|  0.58724
USER: genes 3 Torsion [C]-N--CA-[CB] |==|  0.47778
USER: genes 4 Torsion [N]-CA--CB-[CG2] |==|  0.80937
USER: genes 5 Torsion [CA]-CB--OG1-[HG1] |==|  0.99952
USER: genes 6 Torsion [N]-CA--C-[N] |==|  0.28075
USER: genes 7 Torsion [C]-N--CA-[CB] |==|  0.42068
USER: genes 8 Torsion [N]-CA--CB-[CG] |==|  0.54359
USER: genes 9 Torsion [CA]-CB--CG-[CD1] |==|  0.31111
USER: genes 10 Torsion [N]-CA--C-[O] |==|  0.16966
USER: genes 11 Torsion [O]-C--CA-[N] |==|  0.02730
USER: genes 12 Torsion [N]-C--CA-[N] |==|  0.21494
USER: genes 13 Torsion [C]-CA--CB-[CG] |==|  0.62107
USER: genes 14 Torsion [CA]-CB--CG-[SD] |==|  0.38509
USER: genes 15 Torsion [CB]-CG--SD-[CE] |==|  0.57849
ROOT
ATOM      1  C   PRO R   4       4.142   1.420 -13.840  1.00 60.54 LIG 0.24  C 
ATOM      2 O    PRO R   4       4.650   0.628 -14.636  1.00 63.53 LIG-0.27  OA
ATOM      3  N   PRO R   5       4.679   1.704 -12.640  1.00 48.92 LIG-0.34  N 
ATOM      4  CA  PRO R   5       5.909   1.039 -12.187  1.00 52.68 LIG 0.18  C 
ATOM      5  CB  PRO R   5       6.144   1.648 -10.800  1.00 55.54 LIG 0.04  C 
ATOM      6  CG  PRO R   5       5.476   2.970 -10.842  1.00 46.13 LIG 0.02  C 
ATOM      7  CD  PRO R   5       4.274   2.791 -11.729  1.00 43.47 LIG 0.13  C 
ENDROOT
BRANCH 4 8
ATOM      8  C   PRO R   5       5.775  -0.481 -12.066  1.00 58.07 LIG 0.24  C 
ATOM      9 O    PRO R   5       5.016  -1.105 -12.813  1.00 51.36 LIG-0.27  OA
ATOM     10  N   THR R   6       6.510  -1.061 -11.121  1.00 69.24 LIG-0.34  N 
ATOM     11 H    THR R   6       7.074  -0.637 -10.630  1.00 69.24 LIG 0.16  HD
BRANCH 10 12
ATOM     12  CA  THR R   6       6.420  -2.488 -10.832  1.00 55.31 LIG 0.20  C 
BRANCH 12 13
ATOM     13  CB  THR R   6       7.513  -2.937  -9.836  1.00 60.29 LIG 0.15  C 
ATOM     14  CG2 THR R   6       8.892  -2.865 -10.475  1.00 62.01 LIG 0.04  C 
BRANCH 13 15
ATOM     15 OG1  THR R   6       7.490  -2.089  -8.680  1.00 91.48 LIG-0.39  OA
ATOM     16 HG1  THR R   6       6.888  -1.511  -8.770  1.00 91.48 LIG 0.21  HD
ENDBRANCH 13 15
ENDBRANCH 12 13
BRANCH 12 17
ATOM     17  C   THR R   6       5.051  -2.810 -10.252  1.00 56.48 LIG 0.24  C 
ATOM     18  N   LEU R   7       4.169  -3.348 -11.091  1.00 43.78 LIG-0.35  N 
ATOM     19 H    LEU R   7       4.339  -3.530 -11.915  1.00 43.78 LIG 0.16  HD
ATOM     20 O    THR R   6       4.798  -2.570  -9.069  1.00 41.48 LIG-0.27  OA
BRANCH 18 21
ATOM     21  CA  LEU R   7       2.815  -3.679 -10.667  1.00 53.52 LIG 0.16  C 
BRANCH 21 22
ATOM     22  CB  LEU R   7       1.850  -3.595 -11.852  1.00 41.32 LIG 0.04  C 
BRANCH 22 23
ATOM     23  CG  LEU R   7       0.366  -3.549 -11.477  1.00 48.65 LIG-0.02  C 
ATOM     24  CD1 LEU R   7      -0.251  -2.195 -11.806  1.00 40.28 LIG 0.01  C 
ATOM     25  CD2 LEU R   7      -0.403  -4.670 -12.165  1.00 37.72 LIG 0.01  C 
ENDBRANCH 22 23
ENDBRANCH 21 22
BRANCH 21 26
ATOM     26  C   LEU R   7       2.753  -5.061 -10.021  1.00 46.73 LIG 0.22  C 
ATOM     27 O    LEU R   7       3.398  -5.308  -9.001  1.00 57.50 LIG-0.29  OA
ENDBRANCH 21 26
ENDBRANCH 18 21
ENDBRANCH 12 17
ENDBRANCH 10 12
ENDBRANCH 4 8
BRANCH 1 28
ATOM     28  CA  PRO R   4       2.843   2.127 -14.225  1.00 54.23 LIG 0.18  C 
ATOM     29  N   PRO R   4       2.298   1.530 -15.447  1.00 66.40 LIG-0.34  N 
ATOM     30  CD  PRO R   4       1.241   0.557 -15.132  1.00 55.20 LIG 0.13  C 
ATOM     31  C   MET R   3       2.577   1.851 -16.723  1.00 65.13 LIG 0.26  C 
ATOM     32  CG  PRO R   4       0.625   1.149 -13.906  1.00 51.34 LIG 0.02  C 
ATOM     33  CB  PRO R   4       1.753   1.836 -13.176  1.00 43.90 LIG 0.04  C 
ATOM     34 O    MET R   3       2.104   1.233 -17.680  1.00 74.37 LIG-0.27  OA
BRANCH 31 35
ATOM     35  CA  MET R   3       3.512   3.034 -16.965  1.00 67.30 LIG 0.40  C 
ATOM     36  N   MET R   3       4.917   2.703 -16.744  1.00 55.69 LIG 0.61  N 
BRANCH 35 37
ATOM     37  CB  MET R   3       3.293   3.545 -18.395  1.00 55.44 LIG 0.06  C 
BRANCH 37 38
ATOM     38  CG  MET R   3       4.555   3.869 -19.165  1.00 49.90 LIG 0.08  C 
BRANCH 38 39
ATOM     39 SD   MET R   3       4.403   3.288 -20.864  1.00 67.63 LIG-0.17  SA
ATOM     40  CE  MET R   3       6.120   2.978 -21.272  1.00 69.90 LIG 0.09  C 
ENDBRANCH 38 39
ENDBRANCH 37 38
ENDBRANCH 35 37
ENDBRANCH 31 35
ENDBRANCH 1 28
TORSDOF 14
ENDMDL
MODEL 32
USER: ADFR SOLUTION from run 200
USER: SCORE 9.131658 LL:  -1.788 LR:  -7.858 RR:   0.000 FEB:  -3.681
USER: RMSD 4.206913
USER: SEED 199
USER: STATUS no improvement in best in 11 clusters for 5 generations
USER: GENES 16
USER: genes 0 Translation |==|  0.40668 0.54385 0.52671
USER: genes 1 Rotation |==|  0.44407 0.46934 0.53733 0.99451
USER: genes 2 Torsion [N]-CA--C-[N] |==|  0.46562
USER: genes 3 Torsion [C]-N--CA-[CB] |==|  0.50556
USER: genes 4 Torsion [N]-CA--CB-[CG2] |==|  0.79754
USER: genes 5 Torsion [CA]-CB--OG1-[HG1] |==|  0.25303
USER: genes 6 Torsion [N]-CA--C-[N] |==|  0.44329
USER: genes 7 Torsion [C]-N--CA-[CB] |==|  0.88168
USER: genes 8 Torsion [N]-CA--CB-[CG] |==|  0.72136
USER: genes 9 Torsion [CA]-CB--CG-[CD1] |==|  0.31051
USER: genes 10 Torsion [N]-CA--C-[O] |==|  0.69595
USER: genes 11 Torsion [O]-C--CA-[N] |==|  0.33028
USER: genes 12 Torsion [N]-C--CA-[N] |==|  0.88089
USER: genes 13 Torsion [C]-CA--CB-[CG] |==|  0.59400
USER: genes 14 Torsion [CA]-CB--CG-[SD] |==|  0.48022
USER: genes 15 Torsion [CB]-CG--SD-[CE] |==|  0.57461
ROOT
ATOM      1  C   PRO R   4       4.086   1.049 -14.612  1.00 60.54 LIG 0.24  C 
ATOM      2 O    PRO R   4       4.803   0.295 -15.274  1.00 63.53 LIG-0.27  OA
ATOM      3  N   PRO R   5       4.475   1.601 -13.449  1.00 48.92 LIG-0.34  N 
ATOM      4  CA  PRO R   5       5.791   1.296 -12.872  1.00 52.68 LIG 0.18  C 
ATOM      5  CB  PRO R   5       5.803   2.118 -11.577  1.00 55.54 LIG 0.04  C 
ATOM      6  CG  PRO R   5       4.864   3.238 -11.824  1.00 46.13 LIG 0.02  C 
ATOM      7  CD  PRO R   5       3.786   2.676 -12.712  1.00 43.47 LIG 0.13  C 
ENDROOT
BRANCH 4 8
ATOM      8  C   PRO R   5       5.989  -0.186 -12.542  1.00 58.07 LIG 0.24  C 
ATOM      9 O    PRO R   5       5.029  -0.961 -12.540  1.00 51.36 LIG-0.27  OA
ATOM     10  N   THR R   6       7.233  -0.563 -12.261  1.00 69.24 LIG-0.34  N 
ATOM     11 H    THR R   6       7.912  -0.037 -12.306  1.00 69.24 LIG 0.16  HD
BRANCH 10 12
ATOM     12  CA  THR R   6       7.558  -1.923 -11.844  1.00 55.31 LIG 0.20  C 
BRANCH 12 13
ATOM     13  CB  THR R   6       9.064  -2.078 -11.533  1.00 60.29 LIG 0.15  C 
ATOM     14  CG2 THR R   6       9.885  -2.071 -12.813  1.00 62.01 LIG 0.04  C 
BRANCH 13 15
ATOM     15 OG1  THR R   6       9.496  -0.999 -10.694  1.00 91.48 LIG-0.39  OA
ATOM     16 HG1  THR R   6       9.418  -1.221  -9.889  1.00 91.48 LIG 0.21  HD
ENDBRANCH 13 15
ENDBRANCH 12 13
BRANCH 12 17
ATOM     17  C   THR R   6       6.750  -2.288 -10.608  1.00 56.48 LIG 0.24  C 
ATOM     18  N   LEU R   7       6.611  -3.588 -10.359  1.00 43.78 LIG-0.35  N 
ATOM     19 H    LEU R   7       6.959  -4.209 -10.842  1.00 43.78 LIG 0.16  HD
ATOM     20 O    THR R   6       6.258  -1.409  -9.897  1.00 41.48 LIG-0.27  OA
BRANCH 18 21
ATOM     21  CA  LEU R   7       5.839  -4.070  -9.221  1.00 53.52 LIG 0.16  C 
BRANCH 21 22
ATOM     22  CB  LEU R   7       6.140  -3.230  -7.978  1.00 41.32 LIG 0.04  C 
BRANCH 22 23
ATOM     23  CG  LEU R   7       7.125  -3.864  -6.991  1.00 48.65 LIG-0.02  C 
ATOM     24  CD1 LEU R   7       8.443  -3.100  -6.950  1.00 40.28 LIG 0.01  C 
ATOM     25  CD2 LEU R   7       6.514  -3.955  -5.598  1.00 37.72 LIG 0.01  C 
ENDBRANCH 22 23
ENDBRANCH 21 22
BRANCH 21 26
ATOM     26  C   LEU R   7       4.341  -4.068  -9.520  1.00 46.73 LIG 0.22  C 
ATOM     27 O    LEU R   7       3.591  -3.259  -8.971  1.00 57.50 LIG-0.29  OA
ENDBRANCH 21 26
ENDBRANCH 18 21
ENDBRANCH 12 17
ENDBRANCH 10 12
ENDBRANCH 4 8
BRANCH 1 28
ATOM     28  CA  PRO R   4       2.689   1.387 -15.130  1.00 54.23 LIG 0.18  C 
ATOM     29  N   PRO R   4       1.680   0.931 -14.170  1.00 66.40 LIG-0.34  N 
ATOM     30  CD  PRO R   4       1.227   2.039 -13.316  1.00 55.20 LIG 0.13  C 
ATOM     31  C   MET R   3       1.102  -0.280 -14.087  1.00 65.13 LIG 0.26  C 
ATOM     32  CG  PRO R   4       1.320   3.207 -14.243  1.00 51.34 LIG 0.02  C 
ATOM     33  CB  PRO R   4       2.489   2.914 -15.152  1.00 43.90 LIG 0.04  C 
ATOM     34 O    MET R   3       0.307  -0.575 -13.191  1.00 74.37 LIG-0.27  OA
BRANCH 31 35
ATOM     35  CA  MET R   3       1.456  -1.307 -15.161  1.00 67.30 LIG 0.40  C 
ATOM     36  N   MET R   3       1.488  -0.736 -16.504  1.00 55.69 LIG 0.61  N 
BRANCH 35 37
ATOM     37  CB  MET R   3       2.808  -1.938 -14.806  1.00 55.44 LIG 0.06  C 
BRANCH 37 38
ATOM     38  CG  MET R   3       3.676  -2.312 -15.988  1.00 49.90 LIG 0.08  C 
BRANCH 38 39
ATOM     39 SD   MET R   3       5.300  -2.842 -15.414  1.00 67.63 LIG-0.17  SA
ATOM     40  CE  MET R   3       6.313  -2.438 -16.835  1.00 69.90 LIG 0.09  C 
ENDBRANCH 38 39
ENDBRANCH 37 38
ENDBRANCH 35 37
ENDBRANCH 31 35
ENDBRANCH 1 28
TORSDOF 14
ENDMDL
MODEL 33
USER: ADFR SOLUTION from run 139
USER: SCORE 9.475484 LL:  -2.742 LR:  -7.850 RR:   0.000 FEB:  -3.674
USER: RMSD 4.612809
USER: SEED 138
USER: STATUS no improvement in best in 14 clusters for 5 generations
USER: GENES 16
USER: genes 0 Translation |==|  0.44301 0.53418 0.53668
USER: genes 1 Rotation |==|  0.41501 0.47358 0.45915 0.99032
USER: genes 2 Torsion [N]-CA--C-[N] |==|  0.49519
USER: genes 3 Torsion [C]-N--CA-[CB] |==|  0.81096
USER: genes 4 Torsion [N]-CA--CB-[CG2] |==|  0.59639
USER: genes 5 Torsion [CA]-CB--OG1-[HG1] |==|  0.62723
USER: genes 6 Torsion [N]-CA--C-[N] |==|  0.74035
USER: genes 7 Torsion [C]-N--CA-[CB] |==|  0.47775
USER: genes 8 Torsion [N]-CA--CB-[CG] |==|  0.87631
USER: genes 9 Torsion [CA]-CB--CG-[CD1] |==|  0.25703
USER: genes 10 Torsion [N]-CA--C-[O] |==|  0.93462
USER: genes 11 Torsion [O]-C--CA-[N] |==|  0.33379
USER: genes 12 Torsion [N]-C--CA-[N] |==|  0.17925
USER: genes 13 Torsion [C]-CA--CB-[CG] |==|  0.75033
USER: genes 14 Torsion [CA]-CB--CG-[SD] |==|  0.34204
USER: genes 15 Torsion [CB]-CG--SD-[CE] |==|  0.07248
ROOT
ATOM      1  C   PRO R   4       4.740   0.853 -14.410  1.00 60.54 LIG 0.24  C 
ATOM      2 O    PRO R   4       5.191  -0.149 -14.967  1.00 63.53 LIG-0.27  OA
ATOM      3  N   PRO R   5       5.269   1.373 -13.288  1.00 48.92 LIG-0.34  N 
ATOM      4  CA  PRO R   5       6.416   0.734 -12.628  1.00 52.68 LIG 0.18  C 
ATOM      5  CB  PRO R   5       6.670   1.638 -11.417  1.00 55.54 LIG 0.04  C 
ATOM      6  CG  PRO R   5       6.133   2.963 -11.807  1.00 46.13 LIG 0.02  C 
ATOM      7  CD  PRO R   5       4.944   2.678 -12.685  1.00 43.47 LIG 0.13  C 
ENDROOT
BRANCH 4 8
ATOM      8  C   PRO R   5       6.134  -0.695 -12.154  1.00 58.07 LIG 0.24  C 
ATOM      9 O    PRO R   5       5.016  -1.195 -12.303  1.00 51.36 LIG-0.27  OA
ATOM     10  N   THR R   6       7.151  -1.334 -11.582  1.00 69.24 LIG-0.34  N 
ATOM     11 H    THR R   6       7.943  -1.006 -11.517  1.00 69.24 LIG 0.16  HD
BRANCH 10 12
ATOM     12  CA  THR R   6       7.006  -2.665 -11.004  1.00 55.31 LIG 0.20  C 
BRANCH 12 13
ATOM     13  CB  THR R   6       6.112  -2.645  -9.743  1.00 60.29 LIG 0.15  C 
ATOM     14  CG2 THR R   6       6.595  -3.662  -8.720  1.00 62.01 LIG 0.04  C 
BRANCH 13 15
ATOM     15 OG1  THR R   6       6.141  -1.339  -9.153  1.00 91.48 LIG-0.39  OA
ATOM     16 HG1  THR R   6       6.248  -1.409  -8.323  1.00 91.48 LIG 0.21  HD
ENDBRANCH 13 15
ENDBRANCH 12 13
BRANCH 12 17
ATOM     17  C   THR R   6       6.402  -3.609 -12.033  1.00 56.48 LIG 0.24  C 
ATOM     18  N   LEU R   7       5.079  -3.744 -12.002  1.00 43.78 LIG-0.35  N 
ATOM     19 H    LEU R   7       4.566  -3.324 -11.454  1.00 43.78 LIG 0.16  HD
ATOM     20 O    THR R   6       7.123  -4.206 -12.836  1.00 41.48 LIG-0.27  OA
BRANCH 18 21
ATOM     21  CA  LEU R   7       4.380  -4.637 -12.917  1.00 53.52 LIG 0.16  C 
BRANCH 21 22
ATOM     22  CB  LEU R   7       2.903  -4.746 -12.532  1.00 41.32 LIG 0.04  C 
BRANCH 22 23
ATOM     23  CG  LEU R   7       2.636  -4.927 -11.035  1.00 48.65 LIG-0.02  C 
ATOM     24  CD1 LEU R   7       2.414  -3.588 -10.342  1.00 40.28 LIG 0.01  C 
ATOM     25  CD2 LEU R   7       1.449  -5.855 -10.804  1.00 37.72 LIG 0.01  C 
ENDBRANCH 22 23
ENDBRANCH 21 22
BRANCH 21 26
ATOM     26  C   LEU R   7       4.525  -4.177 -14.366  1.00 46.73 LIG 0.22  C 
ATOM     27 O    LEU R   7       4.770  -2.999 -14.631  1.00 57.50 LIG-0.29  OA
ENDBRANCH 21 26
ENDBRANCH 18 21
ENDBRANCH 12 17
ENDBRANCH 10 12
ENDBRANCH 4 8
BRANCH 1 28
ATOM     28  CA  PRO R   4       3.526   1.554 -15.018  1.00 54.23 LIG 0.18  C 
ATOM     29  N   PRO R   4       2.423   1.562 -14.052  1.00 66.40 LIG-0.34  N 
ATOM     30  CD  PRO R   4       2.350   2.851 -13.347  1.00 55.20 LIG 0.13  C 
ATOM     31  C   MET R   3       1.486   0.618 -13.855  1.00 65.13 LIG 0.26  C 
ATOM     32  CG  PRO R   4       2.813   3.809 -14.396  1.00 51.34 LIG 0.02  C 
ATOM     33  CB  PRO R   4       3.827   3.052 -15.219  1.00 43.90 LIG 0.04  C 
ATOM     34 O    MET R   3       0.638   0.701 -12.964  1.00 74.37 LIG-0.27  OA
BRANCH 31 35
ATOM     35  CA  MET R   3       1.493  -0.589 -14.792  1.00 67.30 LIG 0.40  C 
ATOM     36  N   MET R   3       2.699  -1.402 -14.662  1.00 55.69 LIG 0.61  N 
BRANCH 35 37
ATOM     37  CB  MET R   3       0.240  -1.428 -14.515  1.00 55.44 LIG 0.06  C 
BRANCH 37 38
ATOM     38  CG  MET R   3       0.401  -2.502 -13.461  1.00 49.90 LIG 0.08  C 
BRANCH 38 39
ATOM     39 SD   MET R   3      -0.814  -2.266 -12.152  1.00 67.63 LIG-0.17  SA
ATOM     40  CE  MET R   3      -2.109  -1.403 -13.041  1.00 69.90 LIG 0.09  C 
ENDBRANCH 38 39
ENDBRANCH 37 38
ENDBRANCH 35 37
ENDBRANCH 31 35
ENDBRANCH 1 28
TORSDOF 14
ENDMDL
MODEL 34
USER: ADFR SOLUTION from run 43
USER: SCORE 9.615115 LL:  -2.564 LR:  -7.822 RR:   0.000 FEB:  -3.646
USER: RMSD 4.471066
USER: SEED 42
USER: STATUS no improvement in best in 19 clusters for 5 generations
USER: GENES 16
USER: genes 0 Translation |==|  0.43330 0.53023 0.54413
USER: genes 1 Rotation |==|  0.43552 0.45286 0.47501 0.99295
USER: genes 2 Torsion [N]-CA--C-[N] |==|  0.54173
USER: genes 3 Torsion [C]-N--CA-[CB] |==|  0.51667
USER: genes 4 Torsion [N]-CA--CB-[CG2] |==|  0.83247
USER: genes 5 Torsion [CA]-CB--OG1-[HG1] |==|  0.03703
USER: genes 6 Torsion [N]-CA--C-[N] |==|  0.28506
USER: genes 7 Torsion [C]-N--CA-[CB] |==|  0.36871
USER: genes 8 Torsion [N]-CA--CB-[CG] |==|  0.51154
USER: genes 9 Torsion [CA]-CB--CG-[CD1] |==|  0.35973
USER: genes 10 Torsion [N]-CA--C-[O] |==|  0.27127
USER: genes 11 Torsion [O]-C--CA-[N] |==|  0.32921
USER: genes 12 Torsion [N]-C--CA-[N] |==|  0.90053
USER: genes 13 Torsion [C]-CA--CB-[CG] |==|  0.60413
USER: genes 14 Torsion [CA]-CB--CG-[SD] |==|  0.50301
USER: genes 15 Torsion [CB]-CG--SD-[CE] |==|  0.66480
ROOT
ATOM      1  C   PRO R   4       4.565   0.773 -14.259  1.00 60.54 LIG 0.24  C 
ATOM      2 O    PRO R   4       5.139  -0.146 -14.847  1.00 63.53 LIG-0.27  OA
ATOM      3  N   PRO R   5       4.964   1.247 -13.065  1.00 48.92 LIG-0.34  N 
ATOM      4  CA  PRO R   5       6.109   0.652 -12.363  1.00 52.68 LIG 0.18  C 
ATOM      5  CB  PRO R   5       6.197   1.481 -11.075  1.00 55.54 LIG 0.04  C 
ATOM      6  CG  PRO R   5       5.580   2.785 -11.415  1.00 46.13 LIG 0.02  C 
ATOM      7  CD  PRO R   5       4.487   2.474 -12.401  1.00 43.47 LIG 0.13  C 
ENDROOT
BRANCH 4 8
ATOM      8  C   PRO R   5       5.915  -0.825 -12.012  1.00 58.07 LIG 0.24  C 
ATOM      9 O    PRO R   5       5.012  -1.481 -12.538  1.00 51.36 LIG-0.27  OA
ATOM     10  N   THR R   6       6.761  -1.332 -11.119  1.00 69.24 LIG-0.34  N 
ATOM     11 H    THR R   6       7.420  -0.893 -10.784  1.00 69.24 LIG 0.16  HD
BRANCH 10 12
ATOM     12  CA  THR R   6       6.642  -2.699 -10.624  1.00 55.31 LIG 0.20  C 
BRANCH 12 13
ATOM     13  CB  THR R   6       7.655  -2.985  -9.492  1.00 60.29 LIG 0.15  C 
ATOM     14  CG2 THR R   6       9.082  -2.802  -9.983  1.00 62.01 LIG 0.04  C 
BRANCH 13 15
ATOM     15 OG1  THR R   6       7.419  -2.089  -8.398  1.00 91.48 LIG-0.39  OA
ATOM     16 HG1  THR R   6       6.676  -1.712  -8.500  1.00 91.48 LIG 0.21  HD
ENDBRANCH 13 15
ENDBRANCH 12 13
BRANCH 12 17
ATOM     17  C   THR R   6       5.231  -2.937 -10.106  1.00 56.48 LIG 0.24  C 
ATOM     18  N   LEU R   7       4.421  -3.630 -10.904  1.00 43.78 LIG-0.35  N 
ATOM     19 H    LEU R   7       4.658  -3.951 -11.666  1.00 43.78 LIG 0.16  HD
ATOM     20 O    THR R   6       4.883  -2.497  -9.008  1.00 41.48 LIG-0.27  OA
BRANCH 18 21
ATOM     21  CA  LEU R   7       3.038  -3.904 -10.536  1.00 53.52 LIG 0.16  C 
BRANCH 21 22
ATOM     22  CB  LEU R   7       2.104  -3.593 -11.708  1.00 41.32 LIG 0.04  C 
BRANCH 22 23
ATOM     23  CG  LEU R   7       0.611  -3.749 -11.404  1.00 48.65 LIG-0.02  C 
ATOM     24  CD1 LEU R   7      -0.176  -2.514 -11.825  1.00 40.28 LIG 0.01  C 
ATOM     25  CD2 LEU R   7       0.049  -4.998 -12.074  1.00 37.72 LIG 0.01  C 
ENDBRANCH 22 23
ENDBRANCH 21 22
BRANCH 21 26
ATOM     26  C   LEU R   7       2.858  -5.348 -10.074  1.00 46.73 LIG 0.22  C 
ATOM     27 O    LEU R   7       2.851  -5.629  -8.875  1.00 57.50 LIG-0.29  OA
ENDBRANCH 21 26
ENDBRANCH 18 21
ENDBRANCH 12 17
ENDBRANCH 10 12
ENDBRANCH 4 8
BRANCH 1 28
ATOM     28  CA  PRO R   4       3.344   1.420 -14.912  1.00 54.23 LIG 0.18  C 
ATOM     29  N   PRO R   4       2.169   1.235 -14.056  1.00 66.40 LIG-0.34  N 
ATOM     30  CD  PRO R   4       1.911   2.435 -13.248  1.00 55.20 LIG 0.13  C 
ATOM     31  C   MET R   3       1.315   0.196 -14.035  1.00 65.13 LIG 0.26  C 
ATOM     32  CG  PRO R   4       2.366   3.530 -14.157  1.00 51.34 LIG 0.02  C 
ATOM     33  CB  PRO R   4       3.514   2.952 -14.948  1.00 43.90 LIG 0.04  C 
ATOM     34 O    MET R   3       0.390   0.116 -13.223  1.00 74.37 LIG-0.27  OA
BRANCH 31 35
ATOM     35  CA  MET R   3       1.518  -0.907 -15.072  1.00 67.30 LIG 0.40  C 
ATOM     36  N   MET R   3       1.974  -0.396 -16.362  1.00 55.69 LIG 0.61  N 
BRANCH 35 37
ATOM     37  CB  MET R   3       2.513  -1.929 -14.510  1.00 55.44 LIG 0.06  C 
BRANCH 37 38
ATOM     38  CG  MET R   3       3.477  -2.514 -15.518  1.00 49.90 LIG 0.08  C 
BRANCH 38 39
ATOM     39 SD   MET R   3       4.554  -3.714 -14.714  1.00 67.63 LIG-0.17  SA
ATOM     40  CE  MET R   3       6.164  -2.995 -15.031  1.00 69.90 LIG 0.09  C 
ENDBRANCH 38 39
ENDBRANCH 37 38
ENDBRANCH 35 37
ENDBRANCH 31 35
ENDBRANCH 1 28
TORSDOF 14
ENDMDL
MODEL 35
USER: ADFR SOLUTION from run 175
USER: SCORE 9.133772 LL:  -3.039 LR:  -7.799 RR:   0.000 FEB:  -3.623
USER: RMSD 2.522729
USER: SEED 174
USER: STATUS no improvement in best in 17 clusters for 5 generations
USER: GENES 16
USER: genes 0 Translation |==|  0.39139 0.59857 0.56923
USER: genes 1 Rotation |==|  0.54558 0.53518 0.48390 0.99641
USER: genes 2 Torsion [N]-CA--C-[N] |==|  0.52237
USER: genes 3 Torsion [C]-N--CA-[CB] |==|  0.41193
USER: genes 4 Torsion [N]-CA--CB-[CG2] |==|  0.72768
USER: genes 5 Torsion [CA]-CB--OG1-[HG1] |==|  0.26844
USER: genes 6 Torsion [N]-CA--C-[N] |==|  0.10472
USER: genes 7 Torsion [C]-N--CA-[CB] |==|  0.83405
USER: genes 8 Torsion [N]-CA--CB-[CG] |==|  0.71993
USER: genes 9 Torsion [CA]-CB--CG-[CD1] |==|  0.16967
USER: genes 10 Torsion [N]-CA--C-[O] |==|  0.05596
USER: genes 11 Torsion [O]-C--CA-[N] |==|  0.97824
USER: genes 12 Torsion [N]-C--CA-[N] |==|  0.37211
USER: genes 13 Torsion [C]-CA--CB-[CG] |==|  0.02026
USER: genes 14 Torsion [CA]-CB--CG-[SD] |==|  0.41177
USER: genes 15 Torsion [CB]-CG--SD-[CE] |==|  0.56824
ROOT
ATOM      1  C   PRO R   4       3.811   2.157 -13.751  1.00 60.54 LIG 0.24  C 
ATOM      2 O    PRO R   4       4.145   1.640 -14.819  1.00 63.53 LIG-0.27  OA
ATOM      3  N   PRO R   5       4.571   2.114 -12.642  1.00 48.92 LIG-0.34  N 
ATOM      4  CA  PRO R   5       5.854   1.398 -12.635  1.00 52.68 LIG 0.18  C 
ATOM      5  CB  PRO R   5       6.359   1.602 -11.202  1.00 55.54 LIG 0.04  C 
ATOM      6  CG  PRO R   5       5.716   2.856 -10.743  1.00 46.13 LIG 0.02  C 
ATOM      7  CD  PRO R   5       4.364   2.885 -11.403  1.00 43.47 LIG 0.13  C 
ENDROOT
BRANCH 4 8
ATOM      8  C   PRO R   5       5.723  -0.099 -12.926  1.00 58.07 LIG 0.24  C 
ATOM      9 O    PRO R   5       4.641  -0.577 -13.278  1.00 51.36 LIG-0.27  OA
ATOM     10  N   THR R   6       6.826  -0.826 -12.769  1.00 69.24 LIG-0.34  N 
ATOM     11 H    THR R   6       7.592  -0.491 -12.568  1.00 69.24 LIG 0.16  HD
BRANCH 10 12
ATOM     12  CA  THR R   6       6.831  -2.277 -12.924  1.00 55.31 LIG 0.20  C 
BRANCH 12 13
ATOM     13  CB  THR R   6       8.185  -2.787 -13.466  1.00 60.29 LIG 0.15  C 
ATOM     14  CG2 THR R   6       8.117  -3.012 -14.969  1.00 62.01 LIG 0.04  C 
BRANCH 13 15
ATOM     15 OG1  THR R   6       9.210  -1.825 -13.184  1.00 91.48 LIG-0.39  OA
ATOM     16 HG1  THR R   6       9.614  -2.044 -12.482  1.00 91.48 LIG 0.21  HD
ENDBRANCH 13 15
ENDBRANCH 12 13
BRANCH 12 17
ATOM     17  C   THR R   6       6.545  -2.938 -11.584  1.00 56.48 LIG 0.24  C 
ATOM     18  N   LEU R   7       5.652  -2.330 -10.807  1.00 43.78 LIG-0.35  N 
ATOM     19 H    LEU R   7       5.233  -1.612 -11.028  1.00 43.78 LIG 0.16  HD
ATOM     20 O    THR R   6       7.126  -3.977 -11.261  1.00 41.48 LIG-0.27  OA
BRANCH 18 21
ATOM     21  CA  LEU R   7       5.309  -2.848  -9.489  1.00 53.52 LIG 0.16  C 
BRANCH 21 22
ATOM     22  CB  LEU R   7       4.744  -4.266  -9.604  1.00 41.32 LIG 0.04  C 
BRANCH 22 23
ATOM     23  CG  LEU R   7       3.218  -4.364  -9.521  1.00 48.65 LIG-0.02  C 
ATOM     24  CD1 LEU R   7       2.547  -3.589 -10.649  1.00 40.28 LIG 0.01  C 
ATOM     25  CD2 LEU R   7       2.766  -5.820  -9.528  1.00 37.72 LIG 0.01  C 
ENDBRANCH 22 23
ENDBRANCH 21 22
BRANCH 21 26
ATOM     26  C   LEU R   7       6.511  -2.824  -8.548  1.00 46.73 LIG 0.22  C 
ATOM     27 O    LEU R   7       7.475  -2.092  -8.776  1.00 57.50 LIG-0.29  OA
ENDBRANCH 21 26
ENDBRANCH 18 21
ENDBRANCH 12 17
ENDBRANCH 10 12
ENDBRANCH 4 8
BRANCH 1 28
ATOM     28  CA  PRO R   4       2.473   2.891 -13.671  1.00 54.23 LIG 0.18  C 
ATOM     29  N   PRO R   4       1.885   2.998 -15.009  1.00 66.40 LIG-0.34  N 
ATOM     30  CD  PRO R   4       0.875   1.951 -15.225  1.00 55.20 LIG 0.13  C 
ATOM     31  C   MET R   3       2.089   3.956 -15.930  1.00 65.13 LIG 0.26  C 
ATOM     32  CG  PRO R   4       0.305   1.777 -13.855  1.00 51.34 LIG 0.02  C 
ATOM     33  CB  PRO R   4       1.447   2.036 -12.903  1.00 43.90 LIG 0.04  C 
ATOM     34 O    MET R   3       1.587   3.910 -17.056  1.00 74.37 LIG-0.27  OA
BRANCH 31 35
ATOM     35  CA  MET R   3       2.974   5.137 -15.537  1.00 67.30 LIG 0.40  C 
ATOM     36  N   MET R   3       3.960   5.474 -16.560  1.00 55.69 LIG 0.61  N 
BRANCH 35 37
ATOM     37  CB  MET R   3       2.075   6.341 -15.232  1.00 55.44 LIG 0.06  C 
BRANCH 37 38
ATOM     38  CG  MET R   3       0.590   6.051 -15.215  1.00 49.90 LIG 0.08  C 
BRANCH 38 39
ATOM     39 SD   MET R   3      -0.234   7.129 -14.029  1.00 67.63 LIG-0.17  SA
ATOM     40  CE  MET R   3      -1.691   6.160 -13.643  1.00 69.90 LIG 0.09  C 
ENDBRANCH 38 39
ENDBRANCH 37 38
ENDBRANCH 35 37
ENDBRANCH 31 35
ENDBRANCH 1 28
TORSDOF 14
ENDMDL
MODEL 36
USER: ADFR SOLUTION from run 186
USER: SCORE 9.970142 LL:  -3.214 LR:  -7.781 RR:   0.000 FEB:  -3.605
USER: RMSD 5.092150
USER: SEED 185
USER: STATUS no improvement in best in 7 clusters for 5 generations
USER: GENES 16
USER: genes 0 Translation |==|  0.50393 0.49265 0.60702
USER: genes 1 Rotation |==|  0.46176 0.75624 0.21053 0.81477
USER: genes 2 Torsion [N]-CA--C-[N] |==|  0.49775
USER: genes 3 Torsion [C]-N--CA-[CB] |==|  0.54814
USER: genes 4 Torsion [N]-CA--CB-[CG2] |==|  0.52174
USER: genes 5 Torsion [CA]-CB--OG1-[HG1] |==|  0.62200
USER: genes 6 Torsion [N]-CA--C-[N] |==|  0.89922
USER: genes 7 Torsion [C]-N--CA-[CB] |==|  0.30868
USER: genes 8 Torsion [N]-CA--CB-[CG] |==|  0.51330
USER: genes 9 Torsion [CA]-CB--CG-[CD1] |==|  0.75657
USER: genes 10 Torsion [N]-CA--C-[O] |==|  0.99928
USER: genes 11 Torsion [O]-C--CA-[N] |==|  0.01387
USER: genes 12 Torsion [N]-C--CA-[N] |==|  0.35931
USER: genes 13 Torsion [C]-CA--CB-[CG] |==|  0.17663
USER: genes 14 Torsion [CA]-CB--CG-[SD] |==|  0.72084
USER: genes 15 Torsion [CB]-CG--SD-[CE] |==|  0.40890
ROOT
ATOM      1  C   PRO R   4       5.837   0.012 -12.986  1.00 60.54 LIG 0.24  C 
ATOM      2 O    PRO R   4       4.641  -0.167 -13.225  1.00 63.53 LIG-0.27  OA
ATOM      3  N   PRO R   5       6.731  -0.989 -12.911  1.00 48.92 LIG-0.34  N 
ATOM      4  CA  PRO R   5       6.313  -2.388 -13.076  1.00 52.68 LIG 0.18  C 
ATOM      5  CB  PRO R   5       7.624  -3.166 -12.912  1.00 55.54 LIG 0.04  C 
ATOM      6  CG  PRO R   5       8.689  -2.209 -13.296  1.00 46.13 LIG 0.02  C 
ATOM      7  CD  PRO R   5       8.199  -0.856 -12.856  1.00 43.47 LIG 0.13  C 
ENDROOT
BRANCH 4 8
ATOM      8  C   PRO R   5       5.302  -2.855 -12.025  1.00 58.07 LIG 0.24  C 
ATOM      9 O    PRO R   5       4.928  -2.089 -11.133  1.00 51.36 LIG-0.27  OA
ATOM     10  N   THR R   6       4.877  -4.110 -12.137  1.00 69.24 LIG-0.34  N 
ATOM     11 H    THR R   6       5.099  -4.632 -12.783  1.00 69.24 LIG 0.16  HD
BRANCH 10 12
ATOM     12  CA  THR R   6       3.982  -4.719 -11.159  1.00 55.31 LIG 0.20  C 
BRANCH 12 13
ATOM     13  CB  THR R   6       3.982  -6.260 -11.269  1.00 60.29 LIG 0.15  C 
ATOM     14  CG2 THR R   6       2.907  -6.867 -10.379  1.00 62.01 LIG 0.04  C 
BRANCH 13 15
ATOM     15 OG1  THR R   6       3.736  -6.646 -12.627  1.00 91.48 LIG-0.39  OA
ATOM     16 HG1  THR R   6       3.183  -7.277 -12.643  1.00 91.48 LIG 0.21  HD
ENDBRANCH 13 15
ENDBRANCH 12 13
BRANCH 12 17
ATOM     17  C   THR R   6       4.406  -4.315  -9.755  1.00 56.48 LIG 0.24  C 
ATOM     18  N   LEU R   7       5.715  -4.206  -9.544  1.00 43.78 LIG-0.35  N 
ATOM     19 H    LEU R   7       6.312  -4.335 -10.151  1.00 43.78 LIG 0.16  HD
ATOM     20 O    THR R   6       3.562  -4.111  -8.879  1.00 41.48 LIG-0.27  OA
BRANCH 18 21
ATOM     21  CA  LEU R   7       6.252  -3.852  -8.236  1.00 53.52 LIG 0.16  C 
BRANCH 21 22
ATOM     22  CB  LEU R   7       6.983  -5.045  -7.619  1.00 41.32 LIG 0.04  C 
BRANCH 22 23
ATOM     23  CG  LEU R   7       7.491  -4.825  -6.191  1.00 48.65 LIG-0.02  C 
ATOM     24  CD1 LEU R   7       8.883  -4.204  -6.184  1.00 40.28 LIG 0.01  C 
ATOM     25  CD2 LEU R   7       6.516  -3.968  -5.394  1.00 37.72 LIG 0.01  C 
ENDBRANCH 22 23
ENDBRANCH 21 22
BRANCH 21 26
ATOM     26  C   LEU R   7       7.178  -2.640  -8.321  1.00 46.73 LIG 0.22  C 
ATOM     27 O    LEU R   7       7.397  -2.090  -9.402  1.00 57.50 LIG-0.29  OA
ENDBRANCH 21 26
ENDBRANCH 18 21
ENDBRANCH 12 17
ENDBRANCH 10 12
ENDBRANCH 4 8
BRANCH 1 28
ATOM     28  CA  PRO R   4       6.342   1.438 -12.768  1.00 54.23 LIG 0.18  C 
ATOM     29  N   PRO R   4       5.212   2.371 -12.777  1.00 66.40 LIG-0.34  N 
ATOM     30  CD  PRO R   4       4.796   2.706 -11.407  1.00 55.20 LIG 0.13  C 
ATOM     31  C   MET R   3       4.650   2.982 -13.834  1.00 65.13 LIG 0.26  C 
ATOM     32  CG  PRO R   4       6.091   2.656 -10.663  1.00 51.34 LIG 0.02  C 
ATOM     33  CB  PRO R   4       6.909   1.585 -11.343  1.00 43.90 LIG 0.04  C 
ATOM     34 O    MET R   3       3.654   3.703 -13.730  1.00 74.37 LIG-0.27  OA
BRANCH 31 35
ATOM     35  CA  MET R   3       5.293   2.763 -15.202  1.00 67.30 LIG 0.40  C 
ATOM     36  N   MET R   3       4.332   2.354 -16.223  1.00 55.69 LIG 0.61  N 
BRANCH 35 37
ATOM     37  CB  MET R   3       6.010   4.053 -15.617  1.00 55.44 LIG 0.06  C 
BRANCH 37 38
ATOM     38  CG  MET R   3       7.161   4.468 -14.727  1.00 49.90 LIG 0.08  C 
BRANCH 38 39
ATOM     39 SD   MET R   3       6.629   5.769 -13.600  1.00 67.63 LIG-0.17  SA
ATOM     40  CE  MET R   3       7.627   5.401 -12.158  1.00 69.90 LIG 0.09  C 
ENDBRANCH 38 39
ENDBRANCH 37 38
ENDBRANCH 35 37
ENDBRANCH 31 35
ENDBRANCH 1 28
TORSDOF 14
ENDMDL
MODEL 37
USER: ADFR SOLUTION from run 62
USER: SCORE 9.888987 LL:  -3.102 LR:  -7.783 RR:   0.000 FEB:  -3.607
USER: RMSD 3.113731
USER: SEED 61
USER: STATUS no improvement in best in 19 clusters for 5 generations
USER: GENES 16
USER: genes 0 Translation |==|  0.41719 0.58662 0.57388
USER: genes 1 Rotation |==|  0.47792 0.53200 0.47021 0.99760
USER: genes 2 Torsion [N]-CA--C-[N] |==|  0.52631
USER: genes 3 Torsion [C]-N--CA-[CB] |==|  0.76665
USER: genes 4 Torsion [N]-CA--CB-[CG2] |==|  0.68063
USER: genes 5 Torsion [CA]-CB--OG1-[HG1] |==|  0.61552
USER: genes 6 Torsion [N]-CA--C-[N] |==|  0.71815
USER: genes 7 Torsion [C]-N--CA-[CB] |==|  0.47780
USER: genes 8 Torsion [N]-CA--CB-[CG] |==|  0.92120
USER: genes 9 Torsion [CA]-CB--CG-[CD1] |==|  0.26211
USER: genes 10 Torsion [N]-CA--C-[O] |==|  0.84172
USER: genes 11 Torsion [O]-C--CA-[N] |==|  0.96531
USER: genes 12 Torsion [N]-C--CA-[N] |==|  0.42787
USER: genes 13 Torsion [C]-CA--CB-[CG] |==|  0.98673
USER: genes 14 Torsion [CA]-CB--CG-[SD] |==|  0.49512
USER: genes 15 Torsion [CB]-CG--SD-[CE] |==|  0.57401
ROOT
ATOM      1  C   PRO R   4       4.275   1.915 -13.657  1.00 60.54 LIG 0.24  C 
ATOM      2 O    PRO R   4       4.585   1.117 -14.544  1.00 63.53 LIG-0.27  OA
ATOM      3  N   PRO R   5       5.040   2.147 -12.575  1.00 48.92 LIG-0.34  N 
ATOM      4  CA  PRO R   5       6.296   1.413 -12.368  1.00 52.68 LIG 0.18  C 
ATOM      5  CB  PRO R   5       6.817   1.980 -11.042  1.00 55.54 LIG 0.04  C 
ATOM      6  CG  PRO R   5       6.221   3.333 -10.942  1.00 46.13 LIG 0.02  C 
ATOM      7  CD  PRO R   5       4.867   3.231 -11.591  1.00 43.47 LIG 0.13  C 
ENDROOT
BRANCH 4 8
ATOM      8  C   PRO R   5       6.110  -0.101 -12.243  1.00 58.07 LIG 0.24  C 
ATOM      9 O    PRO R   5       5.016  -0.620 -12.483  1.00 51.36 LIG-0.27  OA
ATOM     10  N   THR R   6       7.179  -0.794 -11.862  1.00 69.24 LIG-0.34  N 
ATOM     11 H    THR R   6       7.955  -0.444 -11.739  1.00 69.24 LIG 0.16  HD
BRANCH 10 12
ATOM     12  CA  THR R   6       7.128  -2.231 -11.616  1.00 55.31 LIG 0.20  C 
BRANCH 12 13
ATOM     13  CB  THR R   6       6.634  -2.547 -10.187  1.00 60.29 LIG 0.15  C 
ATOM     14  CG2 THR R   6       7.729  -3.216  -9.370  1.00 62.01 LIG 0.04  C 
BRANCH 13 15
ATOM     15 OG1  THR R   6       6.239  -1.333  -9.534  1.00 91.48 LIG-0.39  OA
ATOM     16 HG1  THR R   6       6.508  -1.343  -8.739  1.00 91.48 LIG 0.21  HD
ENDBRANCH 13 15
ENDBRANCH 12 13
BRANCH 12 17
ATOM     17  C   THR R   6       6.201  -2.892 -12.626  1.00 56.48 LIG 0.24  C 
ATOM     18  N   LEU R   7       4.983  -3.203 -12.190  1.00 43.78 LIG-0.35  N 
ATOM     19 H    LEU R   7       4.701  -3.038 -11.394  1.00 43.78 LIG 0.16  HD
ATOM     20 O    THR R   6       6.585  -3.120 -13.775  1.00 41.48 LIG-0.27  OA
BRANCH 18 21
ATOM     21  CA  LEU R   7       4.009  -3.862 -13.050  1.00 53.52 LIG 0.16  C 
BRANCH 21 22
ATOM     22  CB  LEU R   7       2.777  -4.274 -12.242  1.00 41.32 LIG 0.04  C 
BRANCH 22 23
ATOM     23  CG  LEU R   7       3.040  -4.565 -10.761  1.00 48.65 LIG-0.02  C 
ATOM     24  CD1 LEU R   7       2.781  -3.336  -9.898  1.00 40.28 LIG 0.01  C 
ATOM     25  CD2 LEU R   7       2.203  -5.744 -10.282  1.00 37.72 LIG 0.01  C 
ENDBRANCH 22 23
ENDBRANCH 21 22
BRANCH 21 26
ATOM     26  C   LEU R   7       3.607  -2.973 -14.225  1.00 46.73 LIG 0.22  C 
ATOM     27 O    LEU R   7       3.136  -1.851 -14.033  1.00 57.50 LIG-0.29  OA
ENDBRANCH 21 26
ENDBRANCH 18 21
ENDBRANCH 12 17
ENDBRANCH 10 12
ENDBRANCH 4 8
BRANCH 1 28
ATOM     28  CA  PRO R   4       2.965   2.691 -13.784  1.00 54.23 LIG 0.18  C 
ATOM     29  N   PRO R   4       2.430   2.542 -15.140  1.00 66.40 LIG-0.34  N 
ATOM     30  CD  PRO R   4       1.389   1.505 -15.185  1.00 55.20 LIG 0.13  C 
ATOM     31  C   MET R   3       2.705   3.287 -16.226  1.00 65.13 LIG 0.26  C 
ATOM     32  CG  PRO R   4       0.763   1.631 -13.834  1.00 51.34 LIG 0.02  C 
ATOM     33  CB  PRO R   4       1.879   2.042 -12.905  1.00 43.90 LIG 0.04  C 
ATOM     34 O    MET R   3       2.242   3.029 -17.340  1.00 74.37 LIG-0.27  OA
BRANCH 31 35
ATOM     35  CA  MET R   3       3.620   4.495 -16.041  1.00 67.30 LIG 0.40  C 
ATOM     36  N   MET R   3       4.330   4.862 -17.264  1.00 55.69 LIG 0.61  N 
BRANCH 35 37
ATOM     37  CB  MET R   3       2.780   5.670 -15.527  1.00 55.44 LIG 0.06  C 
BRANCH 37 38
ATOM     38  CG  MET R   3       1.292   5.411 -15.438  1.00 49.90 LIG 0.08  C 
BRANCH 38 39
ATOM     39 SD   MET R   3       0.454   6.861 -14.773  1.00 67.63 LIG-0.17  SA
ATOM     40  CE  MET R   3      -0.991   6.108 -14.028  1.00 69.90 LIG 0.09  C 
ENDBRANCH 38 39
ENDBRANCH 37 38
ENDBRANCH 35 37
ENDBRANCH 31 35
ENDBRANCH 1 28
TORSDOF 14
ENDMDL
MODEL 38
USER: ADFR SOLUTION from run 181
USER: SCORE 9.956852 LL:  -3.077 LR:  -7.754 RR:   0.000 FEB:  -3.578
USER: RMSD 3.103277
USER: SEED 180
USER: STATUS no improvement in best in 12 clusters for 5 generations
USER: GENES 16
USER: genes 0 Translation |==|  0.40657 0.57860 0.56487
USER: genes 1 Rotation |==|  0.47219 0.51631 0.49826 0.99896
USER: genes 2 Torsion [N]-CA--C-[N] |==|  0.52302
USER: genes 3 Torsion [C]-N--CA-[CB] |==|  0.46668
USER: genes 4 Torsion [N]-CA--CB-[CG2] |==|  0.83127
USER: genes 5 Torsion [CA]-CB--OG1-[HG1] |==|  0.42582
USER: genes 6 Torsion [N]-CA--C-[N] |==|  0.45196
USER: genes 7 Torsion [C]-N--CA-[CB] |==|  0.85960
USER: genes 8 Torsion [N]-CA--CB-[CG] |==|  0.67880
USER: genes 9 Torsion [CA]-CB--CG-[CD1] |==|  0.18187
USER: genes 10 Torsion [N]-CA--C-[O] |==|  0.02219
USER: genes 11 Torsion [O]-C--CA-[N] |==|  0.95765
USER: genes 12 Torsion [N]-C--CA-[N] |==|  0.85721
USER: genes 13 Torsion [C]-CA--CB-[CG] |==|  0.60982
USER: genes 14 Torsion [CA]-CB--CG-[SD] |==|  0.48443
USER: genes 15 Torsion [CB]-CG--SD-[CE] |==|  0.98959
ROOT
ATOM      1  C   PRO R   4       4.084   1.753 -13.839  1.00 60.54 LIG 0.24  C 
ATOM      2 O    PRO R   4       4.534   0.982 -14.689  1.00 63.53 LIG-0.27  OA
ATOM      3  N   PRO R   5       4.754   2.089 -12.722  1.00 48.92 LIG-0.34  N 
ATOM      4  CA  PRO R   5       6.072   1.510 -12.430  1.00 52.68 LIG 0.18  C 
ATOM      5  CB  PRO R   5       6.447   2.154 -11.090  1.00 55.54 LIG 0.04  C 
ATOM      6  CG  PRO R   5       5.694   3.430 -11.053  1.00 46.13 LIG 0.02  C 
ATOM      7  CD  PRO R   5       4.400   3.161 -11.774  1.00 43.47 LIG 0.13  C 
ENDROOT
BRANCH 4 8
ATOM      8  C   PRO R   5       6.055  -0.014 -12.282  1.00 58.07 LIG 0.24  C 
ATOM      9 O    PRO R   5       5.037  -0.658 -12.549  1.00 51.36 LIG-0.27  OA
ATOM     10  N   THR R   6       7.181  -0.574 -11.850  1.00 69.24 LIG-0.34  N 
ATOM     11 H    THR R   6       7.907  -0.135 -11.706  1.00 69.24 LIG 0.16  HD
BRANCH 10 12
ATOM     12  CA  THR R   6       7.285  -2.003 -11.578  1.00 55.31 LIG 0.20  C 
BRANCH 12 13
ATOM     13  CB  THR R   6       8.754  -2.440 -11.380  1.00 60.29 LIG 0.15  C 
ATOM     14  CG2 THR R   6       9.575  -2.164 -12.630  1.00 62.01 LIG 0.04  C 
BRANCH 13 15
ATOM     15 OG1  THR R   6       9.325  -1.723 -10.278  1.00 91.48 LIG-0.39  OA
ATOM     16 HG1  THR R   6       9.944  -2.178  -9.939  1.00 91.48 LIG 0.21  HD
ENDBRANCH 13 15
ENDBRANCH 12 13
BRANCH 12 17
ATOM     17  C   THR R   6       6.486  -2.348 -10.329  1.00 56.48 LIG 0.24  C 
ATOM     18  N   LEU R   7       6.191  -3.634 -10.156  1.00 43.78 LIG-0.35  N 
ATOM     19 H    LEU R   7       6.437  -4.259 -10.693  1.00 43.78 LIG 0.16  HD
ATOM     20 O    THR R   6       6.141  -1.464  -9.542  1.00 41.48 LIG-0.27  OA
BRANCH 18 21
ATOM     21  CA  LEU R   7       5.409  -4.091  -9.015  1.00 53.52 LIG 0.16  C 
BRANCH 21 22
ATOM     22  CB  LEU R   7       5.992  -3.535  -7.713  1.00 41.32 LIG 0.04  C 
BRANCH 22 23
ATOM     23  CG  LEU R   7       6.546  -4.589  -6.749  1.00 48.65 LIG-0.02  C 
ATOM     24  CD1 LEU R   7       7.758  -5.300  -7.338  1.00 40.28 LIG 0.01  C 
ATOM     25  CD2 LEU R   7       6.891  -3.964  -5.403  1.00 37.72 LIG 0.01  C 
ENDBRANCH 22 23
ENDBRANCH 21 22
BRANCH 21 26
ATOM     26  C   LEU R   7       3.938  -3.704  -9.153  1.00 46.73 LIG 0.22  C 
ATOM     27 O    LEU R   7       3.512  -3.214 -10.200  1.00 57.50 LIG-0.29  OA
ENDBRANCH 21 26
ENDBRANCH 18 21
ENDBRANCH 12 17
ENDBRANCH 10 12
ENDBRANCH 4 8
BRANCH 1 28
ATOM     28  CA  PRO R   4       2.703   2.369 -14.056  1.00 54.23 LIG 0.18  C 
ATOM     29  N   PRO R   4       2.296   2.195 -15.453  1.00 66.40 LIG-0.34  N 
ATOM     30  CD  PRO R   4       1.395   1.042 -15.599  1.00 55.20 LIG 0.13  C 
ATOM     31  C   MET R   3       2.560   2.997 -16.499  1.00 65.13 LIG 0.26  C 
ATOM     32  CG  PRO R   4       0.657   1.053 -14.301  1.00 51.34 LIG 0.02  C 
ATOM     33  CB  PRO R   4       1.640   1.569 -13.278  1.00 43.90 LIG 0.04  C 
ATOM     34 O    MET R   3       2.219   2.717 -17.651  1.00 74.37 LIG-0.27  OA
BRANCH 31 35
ATOM     35  CA  MET R   3       3.304   4.301 -16.220  1.00 67.30 LIG 0.40  C 
ATOM     36  N   MET R   3       2.690   5.088 -15.153  1.00 55.69 LIG 0.61  N 
BRANCH 35 37
ATOM     37  CB  MET R   3       4.761   3.969 -15.880  1.00 55.44 LIG 0.06  C 
BRANCH 37 38
ATOM     38  CG  MET R   3       5.370   4.795 -14.768  1.00 49.90 LIG 0.08  C 
BRANCH 38 39
ATOM     39 SD   MET R   3       7.018   4.180 -14.377  1.00 67.63 LIG-0.17  SA
ATOM     40  CE  MET R   3       7.115   2.755 -15.459  1.00 69.90 LIG 0.09  C 
ENDBRANCH 38 39
ENDBRANCH 37 38
ENDBRANCH 35 37
ENDBRANCH 31 35
ENDBRANCH 1 28
TORSDOF 14
ENDMDL
MODEL 39
USER: ADFR SOLUTION from run 122
USER: SCORE 10.815506 LL:  -3.778 LR:  -7.745 RR:   0.000 FEB:  -3.569
USER: RMSD 3.911862
USER: SEED 121
USER: STATUS no improvement in best in 11 clusters for 5 generations
USER: GENES 16
USER: genes 0 Translation |==|  0.45329 0.51152 0.55440
USER: genes 1 Rotation |==|  0.41313 0.43525 0.56615 0.98362
USER: genes 2 Torsion [N]-CA--C-[N] |==|  0.96280
USER: genes 3 Torsion [C]-N--CA-[CB] |==|  0.22747
USER: genes 4 Torsion [N]-CA--CB-[CG2] |==|  0.48419
USER: genes 5 Torsion [CA]-CB--OG1-[HG1] |==|  0.38849
USER: genes 6 Torsion [N]-CA--C-[N] |==|  0.82252
USER: genes 7 Torsion [C]-N--CA-[CB] |==|  0.36123
USER: genes 8 Torsion [N]-CA--CB-[CG] |==|  0.77619
USER: genes 9 Torsion [CA]-CB--CG-[CD1] |==|  0.60160
USER: genes 10 Torsion [N]-CA--C-[O] |==|  0.30034
USER: genes 11 Torsion [O]-C--CA-[N] |==|  0.82957
USER: genes 12 Torsion [N]-C--CA-[N] |==|  0.37506
USER: genes 13 Torsion [C]-CA--CB-[CG] |==|  0.18423
USER: genes 14 Torsion [CA]-CB--CG-[SD] |==|  0.18641
USER: genes 15 Torsion [CB]-CG--SD-[CE] |==|  0.57158
ROOT
ATOM      1  C   PRO R   4       4.925   0.394 -14.051  1.00 60.54 LIG 0.24  C 
ATOM      2 O    PRO R   4       5.810  -0.329 -14.513  1.00 63.53 LIG-0.27  OA
ATOM      3  N   PRO R   5       5.079   1.123 -12.931  1.00 48.92 LIG-0.34  N 
ATOM      4  CA  PRO R   5       6.328   1.064 -12.159  1.00 52.68 LIG 0.18  C 
ATOM      5  CB  PRO R   5       6.062   2.023 -10.993  1.00 55.54 LIG 0.04  C 
ATOM      6  CG  PRO R   5       5.044   2.973 -11.501  1.00 46.13 LIG 0.02  C 
ATOM      7  CD  PRO R   5       4.174   2.175 -12.435  1.00 43.47 LIG 0.13  C 
ENDROOT
BRANCH 4 8
ATOM      8  C   PRO R   5       6.647  -0.331 -11.615  1.00 58.07 LIG 0.24  C 
ATOM      9 O    PRO R   5       7.769  -0.589 -11.171  1.00 51.36 LIG-0.27  OA
ATOM     10  N   THR R   6       5.658  -1.220 -11.662  1.00 69.24 LIG-0.34  N 
ATOM     11 H    THR R   6       4.862  -1.032 -11.927  1.00 69.24 LIG 0.16  HD
BRANCH 10 12
ATOM     12  CA  THR R   6       5.841  -2.610 -11.261  1.00 55.31 LIG 0.20  C 
BRANCH 12 13
ATOM     13  CB  THR R   6       5.742  -2.779  -9.728  1.00 60.29 LIG 0.15  C 
ATOM     14  CG2 THR R   6       5.796  -4.249  -9.340  1.00 62.01 LIG 0.04  C 
BRANCH 13 15
ATOM     15 OG1  THR R   6       6.829  -2.089  -9.097  1.00 91.48 LIG-0.39  OA
ATOM     16 HG1  THR R   6       6.551  -1.706  -8.403  1.00 91.48 LIG 0.21  HD
ENDBRANCH 13 15
ENDBRANCH 12 13
BRANCH 12 17
ATOM     17  C   THR R   6       4.789  -3.481 -11.931  1.00 56.48 LIG 0.24  C 
ATOM     18  N   LEU R   7       3.524  -3.240 -11.593  1.00 43.78 LIG-0.35  N 
ATOM     19 H    LEU R   7       3.283  -2.624 -11.043  1.00 43.78 LIG 0.16  HD
ATOM     20 O    THR R   6       5.118  -4.356 -12.735  1.00 41.48 LIG-0.27  OA
BRANCH 18 21
ATOM     21  CA  LEU R   7       2.424  -4.020 -12.145  1.00 53.52 LIG 0.16  C 
BRANCH 21 22
ATOM     22  CB  LEU R   7       1.508  -4.516 -11.024  1.00 41.32 LIG 0.04  C 
BRANCH 22 23
ATOM     23  CG  LEU R   7       2.005  -5.762 -10.284  1.00 48.65 LIG-0.02  C 
ATOM     24  CD1 LEU R   7       0.851  -6.681  -9.903  1.00 40.28 LIG 0.01  C 
ATOM     25  CD2 LEU R   7       3.037  -6.512 -11.117  1.00 37.72 LIG 0.01  C 
ENDBRANCH 22 23
ENDBRANCH 21 22
BRANCH 21 26
ATOM     26  C   LEU R   7       1.629  -3.218 -13.173  1.00 46.73 LIG 0.22  C 
ATOM     27 O    LEU R   7       1.707  -3.482 -14.374  1.00 57.50 LIG-0.29  OA
ENDBRANCH 21 26
ENDBRANCH 18 21
ENDBRANCH 12 17
ENDBRANCH 10 12
ENDBRANCH 4 8
BRANCH 1 28
ATOM     28  CA  PRO R   4       3.585   0.482 -14.781  1.00 54.23 LIG 0.18  C 
ATOM     29  N   PRO R   4       3.789   1.016 -16.130  1.00 66.40 LIG-0.34  N 
ATOM     30  CD  PRO R   4       3.837  -0.067 -17.123  1.00 55.20 LIG 0.13  C 
ATOM     31  C   MET R   3       3.817   2.304 -16.516  1.00 65.13 LIG 0.26  C 
ATOM     32  CG  PRO R   4       2.898  -1.071 -16.540  1.00 51.34 LIG 0.02  C 
ATOM     33  CB  PRO R   4       3.033  -0.933 -15.043  1.00 43.90 LIG 0.04  C 
ATOM     34 O    MET R   3       4.062   2.642 -17.676  1.00 74.37 LIG-0.27  OA
BRANCH 31 35
ATOM     35  CA  MET R   3       3.523   3.365 -15.458  1.00 67.30 LIG 0.40  C 
ATOM     36  N   MET R   3       4.458   4.487 -15.503  1.00 55.69 LIG 0.61  N 
BRANCH 35 37
ATOM     37  CB  MET R   3       2.081   3.853 -15.642  1.00 55.44 LIG 0.06  C 
BRANCH 37 38
ATOM     38  CG  MET R   3       1.010   2.822 -15.360  1.00 49.90 LIG 0.08  C 
BRANCH 38 39
ATOM     39 SD   MET R   3       1.001   2.409 -13.606  1.00 67.63 LIG-0.17  SA
ATOM     40  CE  MET R   3       0.314   0.755 -13.649  1.00 69.90 LIG 0.09  C 
ENDBRANCH 38 39
ENDBRANCH 37 38
ENDBRANCH 35 37
ENDBRANCH 31 35
ENDBRANCH 1 28
TORSDOF 14
ENDMDL
