MODEL 1
USER: ADFR SOLUTION from run 168
USER: SCORE 18.853535 LL:  -4.210 LR: -17.700 RR:   0.000 FEB: -10.839
USER: RMSD 2.009505
USER: SEED 167
USER: STATUS no improvement in best in 2 clusters for 5 generations
USER: GENES 25
USER: genes 0 Translation |==|  0.46468 0.60344 0.44448
USER: genes 1 Rotation |==|  0.51324 0.49533 0.41393 0.99234
USER: genes 2 Torsion [CB]-CA--N-[C] |==|  0.44820
USER: genes 3 Torsion [N]-C--CA-[N] |==|  0.97576
USER: genes 4 Torsion [C]-CA--N-[C] |==|  0.82688
USER: genes 5 Torsion [N]-C--CA-[N] |==|  0.24017
USER: genes 6 Torsion [C]-CA--CB-[CG] |==|  0.85756
USER: genes 7 Torsion [CA]-CB--CG-[CD] |==|  0.79230
USER: genes 8 Torsion [CB]-CG--CD-[NE] |==|  0.86790
USER: genes 9 Torsion [CG]-CD--NE-[HE] |==|  0.33194
USER: genes 10 Torsion [N]-CA--CB-[CG] |==|  0.96569
USER: genes 11 Torsion [CA]-CB--CG-[CD2] |==|  0.76920
USER: genes 12 Torsion [N]-CA--C-[N] |==|  0.43269
USER: genes 13 Torsion [C]-N--CA-[C] |==|  0.60736
USER: genes 14 Torsion [N]-CA--CB-[CG] |==|  0.12789
USER: genes 15 Torsion [CA]-CB--CG-[CD] |==|  0.70989
USER: genes 16 Torsion [CB]-CG--CD-[OE1] |==|  0.74194
USER: genes 17 Torsion [N]-CA--C-[N] |==|  0.31885
USER: genes 18 Torsion [C]-N--CA-[CB] |==|  0.42222
USER: genes 19 Torsion [N]-CA--CB-[CG1] |==|  0.90087
USER: genes 20 Torsion [N]-CA--C-[N] |==|  0.34145
USER: genes 21 Torsion [C]-N--CA-[C] |==|  0.64670
USER: genes 22 Torsion [N]-CA--C-[O] |==|  0.42267
USER: genes 23 Torsion [N]-CA--CB-[OG1] |==|  0.75588
USER: genes 24 Torsion [CA]-CB--OG1-[HG1] |==|  0.93558
ROOT
ATOM      1  CA  PHE C1005       0.438 -33.417   5.321  1.00 26.32 LIG 0.18  C 
ENDROOT
BRANCH 1 2
ATOM      2  N   PHE C1005      -0.420 -33.567   4.156  1.00 26.54 LIG-0.35  N 
ATOM      3  C   ARG C1004      -0.067 -34.341   3.127  1.00 27.34 LIG 0.24  C 
ATOM      4 O    ARG C1004       0.911 -35.087   3.150  1.00 26.08 LIG-0.27  OA
ATOM      5 H    PHE C1005      -1.155 -33.121   4.193  1.00 26.54 LIG 0.16  HD
BRANCH 3 6
ATOM      6  CA  ARG C1004      -0.962 -34.272   1.879  1.00 28.49 LIG 0.18  C 
BRANCH 6 7
ATOM      7  N   ARG C1004      -2.189 -33.508   2.090  1.00 30.45 LIG-0.35  N 
ATOM      8  C   GLY C1003      -3.084 -33.916   2.989  1.00 32.03 LIG 0.25  C 
ATOM      9 O    GLY C1003      -2.896 -34.899   3.705  1.00 33.62 LIG-0.27  OA
ATOM     10 H    ARG C1004      -2.271 -32.806   1.600  1.00 30.45 LIG 0.16  HD
BRANCH 8 11
ATOM     11  CA  GLY C1003      -4.357 -33.104   3.111  1.00 33.10 LIG 0.47  C 
ATOM     12  N   GLY C1003      -5.400 -33.539   2.145  1.00 33.92 LIG 0.61  N 
ENDBRANCH 8 11
ENDBRANCH 6 7
BRANCH 6 13
ATOM     13  CB  ARG C1004      -0.175 -33.743   0.676  1.00 28.45 LIG 0.04  C 
BRANCH 13 14
ATOM     14  CG  ARG C1004       0.566 -32.452   0.939  1.00 27.92 LIG 0.02  C 
BRANCH 14 15
ATOM     15  CD  ARG C1004      -0.388 -31.259   0.982  1.00 26.34 LIG 0.14  C 
BRANCH 15 16
ATOM     16  NE  ARG C1004      -1.301 -31.281  -0.152  1.00 24.25 LIG-0.23  N 
ATOM     17 HE   ARG C1004      -2.143 -31.329   0.016  1.00 24.25 LIG 0.18  HD
ATOM     18  CZ  ARG C1004      -0.931 -31.233  -1.427  1.00 25.16 LIG 0.67  C 
ATOM     19  NH2 ARG C1004      -1.854 -31.247  -2.370  1.00 24.86 LIG-0.23  N 
ATOM     20  NH1 ARG C1004       0.351 -31.193  -1.761  1.00 22.12 LIG-0.23  N 
ATOM     21 1HH2 ARG C1004      -2.686 -31.286  -2.157  1.00 24.86 LIG 0.17  HD
ATOM     22 2HH2 ARG C1004      -1.623 -31.216  -3.198  1.00 24.86 LIG 0.17  HD
ATOM     23 1HH1 ARG C1004       0.955 -31.198  -1.150  1.00 22.12 LIG 0.17  HD
ATOM     24 2HH1 ARG C1004       0.578 -31.162  -2.590  1.00 22.12 LIG 0.17  HD
ENDBRANCH 15 16
ENDBRANCH 14 15
ENDBRANCH 13 14
ENDBRANCH 6 13
ENDBRANCH 3 6
ENDBRANCH 1 2
BRANCH 1 25
ATOM     25  CB  PHE C1005       0.045 -32.170   6.104  1.00 25.48 LIG 0.07  C 
BRANCH 25 26
ATOM     26  CG  PHE C1005      -0.888 -31.275   5.350  1.00 23.55 LIG-0.06  A 
ATOM     27  CD1 PHE C1005      -2.276 -31.357   5.554  1.00 22.30 LIG 0.01  A 
ATOM     28  CE1 PHE C1005      -3.154 -30.529   4.838  1.00 23.64 LIG 0.00  A 
ATOM     29  CZ  PHE C1005      -2.621 -29.625   3.883  1.00 21.73 LIG 0.00  A 
ATOM     30  CE2 PHE C1005      -1.248 -29.538   3.687  1.00 19.92 LIG 0.00  A 
ATOM     31  CD2 PHE C1005      -0.375 -30.364   4.421  1.00 21.20 LIG 0.01  A 
ENDBRANCH 25 26
ENDBRANCH 1 25
BRANCH 1 32
ATOM     32  C   PHE C1005       0.369 -34.617   6.233  1.00 27.26 LIG 0.24  C 
ATOM     33 O    PHE C1005      -0.619 -35.341   6.215  1.00 28.13 LIG-0.27  OA
ATOM     34  N   GLN C1006       1.432 -34.804   7.008  1.00 28.15 LIG-0.35  N 
ATOM     35 H    GLN C1006       2.159 -34.352   6.921  1.00 28.15 LIG 0.16  HD
BRANCH 34 36
ATOM     36  CA  GLN C1006       1.487 -35.789   8.087  1.00 29.76 LIG 0.18  C 
BRANCH 36 37
ATOM     37  CB  GLN C1006       2.158 -37.075   7.613  1.00 29.94 LIG 0.04  C 
BRANCH 37 38
ATOM     38  CG  GLN C1006       3.441 -36.876   6.828  1.00 33.02 LIG 0.10  C 
BRANCH 38 39
ATOM     39  CD  GLN C1006       3.254 -37.092   5.337  1.00 35.46 LIG 0.21  C 
ATOM     40 OE1  GLN C1006       3.461 -38.195   4.830  1.00 38.48 LIG-0.27  OA
ATOM     41  NE2 GLN C1006       2.870 -36.033   4.626  1.00 37.01 LIG-0.37  N 
ATOM     42 22HE GLN C1006       2.757 -36.103   3.776  1.00 37.01 LIG 0.16  HD
ATOM     43 21HE GLN C1006       2.735 -35.279   5.017  1.00 37.01 LIG 0.16  HD
ENDBRANCH 38 39
ENDBRANCH 37 38
ENDBRANCH 36 37
BRANCH 36 44
ATOM     44  C   GLN C1006       2.249 -35.200   9.278  1.00 30.09 LIG 0.24  C 
ATOM     45  N   VAL C1007       1.524 -35.018  10.386  1.00 30.97 LIG-0.35  N 
ATOM     46 H    VAL C1007       0.675 -35.154  10.412  1.00 30.97 LIG 0.16  HD
ATOM     47 O    GLN C1006       3.447 -34.905   9.172  1.00 30.15 LIG-0.27  OA
BRANCH 45 48
ATOM     48  CA  VAL C1007       2.076 -34.571  11.676  1.00 32.05 LIG 0.18  C 
BRANCH 48 49
ATOM     49  CB  VAL C1007       0.998 -33.806  12.507  1.00 32.12 LIG 0.01  C 
ATOM     50  CG1 VAL C1007       0.074 -32.972  11.623  1.00 30.72 LIG 0.01  C 
ATOM     51  CG2 VAL C1007       1.631 -32.943  13.593  1.00 30.85 LIG 0.01  C 
ENDBRANCH 48 49
BRANCH 48 52
ATOM     52  C   VAL C1007       2.393 -35.907  12.404  1.00 33.20 LIG 0.24  C 
ATOM     53 O    VAL C1007       1.480 -36.706  12.579  1.00 34.91 LIG-0.27  OA
ATOM     54  N   THR C1008       3.624 -36.184  12.841  1.00 34.53 LIG-0.34  N 
ATOM     55 H    THR C1008       3.803 -36.949  13.192  1.00 34.53 LIG 0.16  HD
BRANCH 54 56
ATOM     56  CA  THR C1008       4.803 -35.322  12.814  1.00 33.96 LIG 0.19  C 
BRANCH 56 57
ATOM     57  C   THR C1008       5.941 -36.086  12.140  1.00 33.93 LIG 0.22  C 
ATOM     58 O    THR C1008       6.843 -35.496  11.538  1.00 34.05 LIG-0.29  OA
ENDBRANCH 56 57
BRANCH 56 59
ATOM     59  CB  THR C1008       5.266 -34.922  14.265  1.00 34.51 LIG 0.14  C 
ATOM     60  CG2 THR C1008       6.766 -34.634  14.338  1.00 33.41 LIG 0.04  C 
BRANCH 59 61
ATOM     61 OG1  THR C1008       4.579 -33.745  14.680  1.00 32.91 LIG-0.39  OA
ATOM     62 HG1  THR C1008       4.318 -33.320  14.004  1.00 32.91 LIG 0.21  HD
ENDBRANCH 59 61
ENDBRANCH 56 59
ENDBRANCH 54 56
ENDBRANCH 48 52
ENDBRANCH 45 48
ENDBRANCH 36 44
ENDBRANCH 34 36
ENDBRANCH 1 32
TORSDOF 23
ENDMDL
MODEL 2
USER: ADFR SOLUTION from run 118
USER: SCORE 19.701640 LL:  -4.117 LR: -16.686 RR:   0.000 FEB:  -9.825
USER: RMSD 2.843196
USER: SEED 117
USER: STATUS searching
USER: GENES 25
USER: genes 0 Translation |==|  0.46015 0.59139 0.43875
USER: genes 1 Rotation |==|  0.53041 0.50562 0.41265 0.99134
USER: genes 2 Torsion [CB]-CA--N-[C] |==|  0.49880
USER: genes 3 Torsion [N]-C--CA-[N] |==|  0.92803
USER: genes 4 Torsion [C]-CA--N-[C] |==|  0.83879
USER: genes 5 Torsion [N]-C--CA-[N] |==|  0.19898
USER: genes 6 Torsion [C]-CA--CB-[CG] |==|  0.88151
USER: genes 7 Torsion [CA]-CB--CG-[CD] |==|  0.75546
USER: genes 8 Torsion [CB]-CG--CD-[NE] |==|  0.90104
USER: genes 9 Torsion [CG]-CD--NE-[HE] |==|  0.29537
USER: genes 10 Torsion [N]-CA--CB-[CG] |==|  0.95904
USER: genes 11 Torsion [CA]-CB--CG-[CD2] |==|  0.78460
USER: genes 12 Torsion [N]-CA--C-[N] |==|  0.38627
USER: genes 13 Torsion [C]-N--CA-[C] |==|  0.62965
USER: genes 14 Torsion [N]-CA--CB-[CG] |==|  0.12654
USER: genes 15 Torsion [CA]-CB--CG-[CD] |==|  0.76131
USER: genes 16 Torsion [CB]-CG--CD-[OE1] |==|  0.77467
USER: genes 17 Torsion [N]-CA--C-[N] |==|  0.41436
USER: genes 18 Torsion [C]-N--CA-[CB] |==|  0.87736
USER: genes 19 Torsion [N]-CA--CB-[CG1] |==|  0.68022
USER: genes 20 Torsion [N]-CA--C-[N] |==|  0.37222
USER: genes 21 Torsion [C]-N--CA-[C] |==|  0.62306
USER: genes 22 Torsion [N]-CA--C-[O] |==|  0.04470
USER: genes 23 Torsion [N]-CA--CB-[OG1] |==|  0.09047
USER: genes 24 Torsion [CA]-CB--OG1-[HG1] |==|  0.89411
ROOT
ATOM      1  CA  PHE C1005       0.350 -33.634   5.162  1.00 26.32 LIG 0.18  C 
ENDROOT
BRANCH 1 2
ATOM      2  N   PHE C1005      -0.542 -33.694   4.014  1.00 26.54 LIG-0.35  N 
ATOM      3  C   ARG C1004      -0.418 -34.644   3.085  1.00 27.34 LIG 0.24  C 
ATOM      4 O    ARG C1004       0.340 -35.606   3.204  1.00 26.08 LIG-0.27  OA
ATOM      5 H    PHE C1005      -1.139 -33.075   3.993  1.00 26.54 LIG 0.16  HD
BRANCH 3 6
ATOM      6  CA  ARG C1004      -1.292 -34.494   1.830  1.00 28.49 LIG 0.18  C 
BRANCH 6 7
ATOM      7  N   ARG C1004      -2.512 -33.727   2.063  1.00 30.45 LIG-0.35  N 
ATOM      8  C   GLY C1003      -3.387 -34.128   2.986  1.00 32.03 LIG 0.25  C 
ATOM      9 O    GLY C1003      -3.183 -35.107   3.704  1.00 33.62 LIG-0.27  OA
ATOM     10 H    ARG C1004      -2.605 -33.028   1.571  1.00 30.45 LIG 0.16  HD
BRANCH 8 11
ATOM     11  CA  GLY C1003      -4.655 -33.313   3.133  1.00 33.10 LIG 0.47  C 
ATOM     12  N   GLY C1003      -5.583 -33.501   1.986  1.00 33.92 LIG 0.61  N 
ENDBRANCH 8 11
ENDBRANCH 6 7
BRANCH 6 13
ATOM     13  CB  ARG C1004      -0.479 -33.908   0.671  1.00 28.45 LIG 0.04  C 
BRANCH 13 14
ATOM     14  CG  ARG C1004       0.432 -32.769   1.065  1.00 27.92 LIG 0.02  C 
BRANCH 14 15
ATOM     15  CD  ARG C1004      -0.292 -31.425   0.992  1.00 26.34 LIG 0.14  C 
BRANCH 15 16
ATOM     16  NE  ARG C1004      -1.234 -31.399  -0.117  1.00 24.25 LIG-0.23  N 
ATOM     17 HE   ARG C1004      -2.072 -31.450   0.071  1.00 24.25 LIG 0.18  HD
ATOM     18  CZ  ARG C1004      -0.896 -31.303  -1.399  1.00 25.16 LIG 0.67  C 
ATOM     19  NH2 ARG C1004      -1.843 -31.276  -2.318  1.00 24.86 LIG-0.23  N 
ATOM     20  NH1 ARG C1004       0.377 -31.254  -1.764  1.00 22.12 LIG-0.23  N 
ATOM     21 1HH2 ARG C1004      -2.669 -31.321  -2.084  1.00 24.86 LIG 0.17  HD
ATOM     22 2HH2 ARG C1004      -1.633 -31.215  -3.149  1.00 24.86 LIG 0.17  HD
ATOM     23 1HH1 ARG C1004       0.997 -31.285  -1.169  1.00 22.12 LIG 0.17  HD
ATOM     24 2HH1 ARG C1004       0.583 -31.192  -2.597  1.00 22.12 LIG 0.17  HD
ENDBRANCH 15 16
ENDBRANCH 14 15
ENDBRANCH 13 14
ENDBRANCH 6 13
ENDBRANCH 3 6
ENDBRANCH 1 2
BRANCH 1 25
ATOM     25  CB  PHE C1005      -0.014 -32.448   6.047  1.00 25.48 LIG 0.07  C 
BRANCH 25 26
ATOM     26  CG  PHE C1005      -0.919 -31.467   5.369  1.00 23.55 LIG-0.06  A 
ATOM     27  CD1 PHE C1005      -2.296 -31.454   5.650  1.00 22.30 LIG 0.01  A 
ATOM     28  CE1 PHE C1005      -3.149 -30.545   5.004  1.00 23.64 LIG 0.00  A 
ATOM     29  CZ  PHE C1005      -2.603 -29.656   4.042  1.00 21.73 LIG 0.00  A 
ATOM     30  CE2 PHE C1005      -1.241 -29.663   3.770  1.00 19.92 LIG 0.00  A 
ATOM     31  CD2 PHE C1005      -0.392 -30.570   4.434  1.00 21.20 LIG 0.01  A 
ENDBRANCH 25 26
ENDBRANCH 1 25
BRANCH 1 32
ATOM     32  C   PHE C1005       0.301 -34.899   5.983  1.00 27.26 LIG 0.24  C 
ATOM     33 O    PHE C1005      -0.773 -35.452   6.188  1.00 28.13 LIG-0.27  OA
ATOM     34  N   GLN C1006       1.475 -35.332   6.430  1.00 28.15 LIG-0.35  N 
ATOM     35 H    GLN C1006       2.224 -34.993   6.178  1.00 28.15 LIG 0.16  HD
BRANCH 34 36
ATOM     36  CA  GLN C1006       1.625 -36.423   7.392  1.00 29.76 LIG 0.18  C 
BRANCH 36 37
ATOM     37  CB  GLN C1006       2.103 -37.696   6.697  1.00 29.94 LIG 0.04  C 
BRANCH 37 38
ATOM     38  CG  GLN C1006       3.245 -37.499   5.718  1.00 33.02 LIG 0.10  C 
BRANCH 38 39
ATOM     39  CD  GLN C1006       2.766 -37.110   4.331  1.00 35.46 LIG 0.21  C 
ATOM     40 OE1  GLN C1006       2.359 -37.964   3.543  1.00 38.48 LIG-0.27  OA
ATOM     41  NE2 GLN C1006       2.822 -35.815   4.024  1.00 37.01 LIG-0.37  N 
ATOM     42 22HE GLN C1006       2.568 -35.545   3.248  1.00 37.01 LIG 0.16  HD
ATOM     43 21HE GLN C1006       3.112 -35.248   4.602  1.00 37.01 LIG 0.16  HD
ENDBRANCH 38 39
ENDBRANCH 37 38
ENDBRANCH 36 37
BRANCH 36 44
ATOM     44  C   GLN C1006       2.616 -36.009   8.483  1.00 30.09 LIG 0.24  C 
ATOM     45  N   VAL C1007       2.395 -36.544   9.688  1.00 30.97 LIG-0.35  N 
ATOM     46 H    VAL C1007       1.706 -37.030   9.860  1.00 30.97 LIG 0.16  HD
ATOM     47 O    GLN C1006       3.530 -35.213   8.231  1.00 30.15 LIG-0.27  OA
BRANCH 45 48
ATOM     48  CA  VAL C1007       3.283 -36.372  10.849  1.00 32.05 LIG 0.18  C 
BRANCH 48 49
ATOM     49  CB  VAL C1007       4.779 -36.546  10.437  1.00 32.12 LIG 0.01  C 
ATOM     50  CG1 VAL C1007       5.421 -37.763  11.098  1.00 30.72 LIG 0.01  C 
ATOM     51  CG2 VAL C1007       5.592 -35.287  10.717  1.00 30.85 LIG 0.01  C 
ENDBRANCH 48 49
BRANCH 48 52
ATOM     52  C   VAL C1007       3.057 -34.886  11.246  1.00 33.20 LIG 0.24  C 
ATOM     53 O    VAL C1007       3.071 -34.038  10.360  1.00 34.91 LIG-0.27  OA
ATOM     54  N   THR C1008       2.864 -34.529  12.518  1.00 34.53 LIG-0.34  N 
ATOM     55 H    THR C1008       2.683 -33.713  12.722  1.00 34.53 LIG 0.16  HD
BRANCH 54 56
ATOM     56  CA  THR C1008       2.916 -35.375  13.707  1.00 33.96 LIG 0.19  C 
BRANCH 56 57
ATOM     57  C   THR C1008       1.724 -35.026  14.598  1.00 33.93 LIG 0.22  C 
ATOM     58 O    THR C1008       0.762 -34.387  14.163  1.00 34.05 LIG-0.29  OA
ENDBRANCH 56 57
BRANCH 56 59
ATOM     59  CB  THR C1008       4.236 -35.141  14.533  1.00 34.51 LIG 0.14  C 
ATOM     60  CG2 THR C1008       5.390 -36.017  14.045  1.00 33.41 LIG 0.04  C 
BRANCH 59 61
ATOM     61 OG1  THR C1008       4.643 -33.782  14.412  1.00 32.91 LIG-0.39  OA
ATOM     62 HG1  THR C1008       4.498 -33.515  13.628  1.00 32.91 LIG 0.21  HD
ENDBRANCH 59 61
ENDBRANCH 56 59
ENDBRANCH 54 56
ENDBRANCH 48 52
ENDBRANCH 45 48
ENDBRANCH 36 44
ENDBRANCH 34 36
ENDBRANCH 1 32
TORSDOF 23
ENDMDL
MODEL 3
USER: ADFR SOLUTION from run 143
USER: SCORE 18.351840 LL:  -4.201 LR: -16.329 RR:   0.000 FEB:  -9.468
USER: RMSD 3.357359
USER: SEED 142
USER: STATUS searching
USER: GENES 25
USER: genes 0 Translation |==|  0.47527 0.60781 0.46527
USER: genes 1 Rotation |==|  0.36456 0.49742 0.34781 0.95661
USER: genes 2 Torsion [CB]-CA--N-[C] |==|  0.28100
USER: genes 3 Torsion [N]-C--CA-[N] |==|  0.95104
USER: genes 4 Torsion [C]-CA--N-[C] |==|  0.83021
USER: genes 5 Torsion [N]-C--CA-[N] |==|  0.67595
USER: genes 6 Torsion [C]-CA--CB-[CG] |==|  0.06847
USER: genes 7 Torsion [CA]-CB--CG-[CD] |==|  0.59322
USER: genes 8 Torsion [CB]-CG--CD-[NE] |==|  0.83959
USER: genes 9 Torsion [CG]-CD--NE-[HE] |==|  0.24025
USER: genes 10 Torsion [N]-CA--CB-[CG] |==|  0.04685
USER: genes 11 Torsion [CA]-CB--CG-[CD2] |==|  0.67611
USER: genes 12 Torsion [N]-CA--C-[N] |==|  0.37680
USER: genes 13 Torsion [C]-N--CA-[C] |==|  0.49444
USER: genes 14 Torsion [N]-CA--CB-[CG] |==|  0.61084
USER: genes 15 Torsion [CA]-CB--CG-[CD] |==|  0.03778
USER: genes 16 Torsion [CB]-CG--CD-[OE1] |==|  0.19736
USER: genes 17 Torsion [N]-CA--C-[N] |==|  0.49285
USER: genes 18 Torsion [C]-N--CA-[CB] |==|  0.88095
USER: genes 19 Torsion [N]-CA--CB-[CG1] |==|  0.78015
USER: genes 20 Torsion [N]-CA--C-[N] |==|  0.36902
USER: genes 21 Torsion [C]-N--CA-[C] |==|  0.74905
USER: genes 22 Torsion [N]-CA--C-[O] |==|  0.82437
USER: genes 23 Torsion [N]-CA--CB-[OG1] |==|  0.05984
USER: genes 24 Torsion [CA]-CB--OG1-[HG1] |==|  0.24997
ROOT
ATOM      1  CA  PHE C1005       0.645 -33.338   5.898  1.00 26.32 LIG 0.18  C 
ENDROOT
BRANCH 1 2
ATOM      2  N   PHE C1005      -0.433 -33.810   5.042  1.00 26.54 LIG-0.35  N 
ATOM      3  C   ARG C1004      -0.191 -34.305   3.826  1.00 27.34 LIG 0.24  C 
ATOM      4 O    ARG C1004       0.943 -34.538   3.409  1.00 26.08 LIG-0.27  OA
ATOM      5 H    PHE C1005      -1.219 -33.739   5.385  1.00 26.54 LIG 0.16  HD
BRANCH 3 6
ATOM      6  CA  ARG C1004      -1.417 -34.593   2.946  1.00 28.49 LIG 0.18  C 
BRANCH 6 7
ATOM      7  N   ARG C1004      -2.666 -34.668   3.701  1.00 30.45 LIG-0.35  N 
ATOM      8  C   GLY C1003      -2.819 -35.592   4.649  1.00 32.03 LIG 0.25  C 
ATOM      9 O    GLY C1003      -1.917 -36.370   4.961  1.00 33.62 LIG-0.27  OA
ATOM     10 H    ARG C1004      -3.260 -34.086   3.483  1.00 30.45 LIG 0.16  HD
BRANCH 8 11
ATOM     11  CA  GLY C1003      -4.160 -35.644   5.350  1.00 33.10 LIG 0.47  C 
ATOM     12  N   GLY C1003      -4.051 -35.337   6.802  1.00 33.92 LIG 0.61  N 
ENDBRANCH 8 11
ENDBRANCH 6 7
BRANCH 6 13
ATOM     13  CB  ARG C1004      -1.517 -33.577   1.805  1.00 28.45 LIG 0.04  C 
BRANCH 13 14
ATOM     14  CG  ARG C1004      -0.199 -32.943   1.423  1.00 27.92 LIG 0.02  C 
BRANCH 14 15
ATOM     15  CD  ARG C1004      -0.387 -31.495   0.969  1.00 26.34 LIG 0.14  C 
BRANCH 15 16
ATOM     16  NE  ARG C1004      -1.307 -31.417  -0.156  1.00 24.25 LIG-0.23  N 
ATOM     17 HE   ARG C1004      -2.147 -31.366   0.020  1.00 24.25 LIG 0.18  HD
ATOM     18  CZ  ARG C1004      -0.945 -31.418  -1.435  1.00 25.16 LIG 0.67  C 
ATOM     19  NH2 ARG C1004      -1.873 -31.329  -2.369  1.00 24.86 LIG-0.23  N 
ATOM     20  NH1 ARG C1004       0.329 -31.527  -1.780  1.00 22.12 LIG-0.23  N 
ATOM     21 1HH2 ARG C1004      -2.702 -31.271  -2.148  1.00 24.86 LIG 0.17  HD
ATOM     22 2HH2 ARG C1004      -1.648 -31.329  -3.199  1.00 24.86 LIG 0.17  HD
ATOM     23 1HH1 ARG C1004       0.934 -31.599  -1.174  1.00 22.12 LIG 0.17  HD
ATOM     24 2HH1 ARG C1004       0.550 -31.526  -2.611  1.00 22.12 LIG 0.17  HD
ENDBRANCH 15 16
ENDBRANCH 14 15
ENDBRANCH 13 14
ENDBRANCH 6 13
ENDBRANCH 3 6
ENDBRANCH 1 2
BRANCH 1 25
ATOM     25  CB  PHE C1005       0.723 -31.817   5.853  1.00 25.48 LIG 0.07  C 
BRANCH 25 26
ATOM     26  CG  PHE C1005      -0.516 -31.183   5.303  1.00 23.55 LIG-0.06  A 
ATOM     27  CD1 PHE C1005      -1.748 -31.336   5.960  1.00 22.30 LIG 0.01  A 
ATOM     28  CE1 PHE C1005      -2.914 -30.753   5.438  1.00 23.64 LIG 0.00  A 
ATOM     29  CZ  PHE C1005      -2.835 -30.030   4.219  1.00 21.73 LIG 0.00  A 
ATOM     30  CE2 PHE C1005      -1.615 -29.872   3.574  1.00 19.92 LIG 0.00  A 
ATOM     31  CD2 PHE C1005      -0.449 -30.448   4.114  1.00 21.20 LIG 0.01  A 
ENDBRANCH 25 26
ENDBRANCH 1 25
BRANCH 1 32
ATOM     32  C   PHE C1005       0.467 -33.784   7.329  1.00 27.26 LIG 0.24  C 
ATOM     33 O    PHE C1005      -0.635 -33.708   7.859  1.00 28.13 LIG-0.27  OA
ATOM     34  N   GLN C1006       1.563 -34.248   7.920  1.00 28.15 LIG-0.35  N 
ATOM     35 H    GLN C1006       2.295 -34.399   7.493  1.00 28.15 LIG 0.16  HD
BRANCH 34 36
ATOM     36  CA  GLN C1006       1.649 -34.552   9.347  1.00 29.76 LIG 0.18  C 
BRANCH 36 37
ATOM     37  CB  GLN C1006       0.568 -35.551   9.755  1.00 29.94 LIG 0.04  C 
BRANCH 37 38
ATOM     38  CG  GLN C1006      -0.084 -35.274  11.096  1.00 33.02 LIG 0.10  C 
BRANCH 38 39
ATOM     39  CD  GLN C1006       0.226 -33.884  11.622  1.00 35.46 LIG 0.21  C 
ATOM     40 OE1  GLN C1006      -0.264 -32.886  11.094  1.00 38.48 LIG-0.27  OA
ATOM     41  NE2 GLN C1006       1.054 -33.814  12.664  1.00 37.01 LIG-0.37  N 
ATOM     42 22HE GLN C1006       1.266 -33.049  12.994  1.00 37.01 LIG 0.16  HD
ATOM     43 21HE GLN C1006       1.376 -34.534  13.006  1.00 37.01 LIG 0.16  HD
ENDBRANCH 38 39
ENDBRANCH 37 38
ENDBRANCH 36 37
BRANCH 36 44
ATOM     44  C   GLN C1006       3.037 -35.111   9.667  1.00 30.09 LIG 0.24  C 
ATOM     45  N   VAL C1007       3.262 -35.380  10.958  1.00 30.97 LIG-0.35  N 
ATOM     46 H    VAL C1007       2.695 -35.188  11.576  1.00 30.97 LIG 0.16  HD
ATOM     47 O    GLN C1006       3.874 -35.266   8.768  1.00 30.15 LIG-0.27  OA
BRANCH 45 48
ATOM     48  CA  VAL C1007       4.481 -36.024  11.473  1.00 32.05 LIG 0.18  C 
BRANCH 48 49
ATOM     49  CB  VAL C1007       4.908 -37.218  10.561  1.00 32.12 LIG 0.01  C 
ATOM     50  CG1 VAL C1007       4.080 -38.472  10.829  1.00 30.72 LIG 0.01  C 
ATOM     51  CG2 VAL C1007       6.398 -37.516  10.684  1.00 30.85 LIG 0.01  C 
ENDBRANCH 48 49
BRANCH 48 52
ATOM     52  C   VAL C1007       5.551 -34.904  11.341  1.00 33.20 LIG 0.24  C 
ATOM     53 O    VAL C1007       5.627 -34.293  10.281  1.00 34.91 LIG-0.27  OA
ATOM     54  N   THR C1008       6.380 -34.615  12.347  1.00 34.53 LIG-0.34  N 
ATOM     55 H    THR C1008       6.931 -33.956  12.286  1.00 34.53 LIG 0.16  HD
BRANCH 54 56
ATOM     56  CA  THR C1008       6.506 -35.296  13.632  1.00 33.96 LIG 0.19  C 
BRANCH 56 57
ATOM     57  C   THR C1008       5.557 -34.628  14.626  1.00 33.93 LIG 0.22  C 
ATOM     58 O    THR C1008       5.698 -33.447  14.955  1.00 34.05 LIG-0.29  OA
ENDBRANCH 56 57
BRANCH 56 59
ATOM     59  CB  THR C1008       7.970 -35.197  14.204  1.00 34.51 LIG 0.14  C 
ATOM     60  CG2 THR C1008       8.793 -36.454  13.916  1.00 33.41 LIG 0.04  C 
BRANCH 59 61
ATOM     61 OG1  THR C1008       8.644 -34.093  13.610  1.00 32.91 LIG-0.39  OA
ATOM     62 HG1  THR C1008       8.517 -33.404  14.074  1.00 32.91 LIG 0.21  HD
ENDBRANCH 59 61
ENDBRANCH 56 59
ENDBRANCH 54 56
ENDBRANCH 48 52
ENDBRANCH 45 48
ENDBRANCH 36 44
ENDBRANCH 34 36
ENDBRANCH 1 32
TORSDOF 23
ENDMDL
MODEL 4
USER: ADFR SOLUTION from run 82
USER: SCORE 18.472925 LL:  -3.856 LR: -16.167 RR:   0.000 FEB:  -9.306
USER: RMSD 2.644182
USER: SEED 81
USER: STATUS searching
USER: GENES 25
USER: genes 0 Translation |==|  0.46230 0.60337 0.44084
USER: genes 1 Rotation |==|  0.49111 0.49268 0.37185 0.98316
USER: genes 2 Torsion [CB]-CA--N-[C] |==|  0.46725
USER: genes 3 Torsion [N]-C--CA-[N] |==|  0.90026
USER: genes 4 Torsion [C]-CA--N-[C] |==|  0.83355
USER: genes 5 Torsion [N]-C--CA-[N] |==|  0.89813
USER: genes 6 Torsion [C]-CA--CB-[CG] |==|  0.89723
USER: genes 7 Torsion [CA]-CB--CG-[CD] |==|  0.70340
USER: genes 8 Torsion [CB]-CG--CD-[NE] |==|  0.94090
USER: genes 9 Torsion [CG]-CD--NE-[HE] |==|  0.28114
USER: genes 10 Torsion [N]-CA--CB-[CG] |==|  0.99772
USER: genes 11 Torsion [CA]-CB--CG-[CD2] |==|  0.75087
USER: genes 12 Torsion [N]-CA--C-[N] |==|  0.43417
USER: genes 13 Torsion [C]-N--CA-[C] |==|  0.60031
USER: genes 14 Torsion [N]-CA--CB-[CG] |==|  0.63768
USER: genes 15 Torsion [CA]-CB--CG-[CD] |==|  0.98096
USER: genes 16 Torsion [CB]-CG--CD-[OE1] |==|  0.75072
USER: genes 17 Torsion [N]-CA--C-[N] |==|  0.48169
USER: genes 18 Torsion [C]-N--CA-[CB] |==|  0.87775
USER: genes 19 Torsion [N]-CA--CB-[CG1] |==|  0.90253
USER: genes 20 Torsion [N]-CA--C-[N] |==|  0.40460
USER: genes 21 Torsion [C]-N--CA-[C] |==|  0.66937
USER: genes 22 Torsion [N]-CA--C-[O] |==|  0.03953
USER: genes 23 Torsion [N]-CA--CB-[OG1] |==|  0.80650
USER: genes 24 Torsion [CA]-CB--OG1-[HG1] |==|  0.13326
ROOT
ATOM      1  CA  PHE C1005       0.392 -33.418   5.220  1.00 26.32 LIG 0.18  C 
ENDROOT
BRANCH 1 2
ATOM      2  N   PHE C1005      -0.498 -33.517   4.073  1.00 26.54 LIG-0.35  N 
ATOM      3  C   ARG C1004      -0.383 -34.507   3.186  1.00 27.34 LIG 0.24  C 
ATOM      4 O    ARG C1004       0.363 -35.472   3.347  1.00 26.08 LIG-0.27  OA
ATOM      5 H    PHE C1005      -1.088 -32.892   4.024  1.00 26.54 LIG 0.16  HD
BRANCH 3 6
ATOM      6  CA  ARG C1004      -1.252 -34.400   1.923  1.00 28.49 LIG 0.18  C 
BRANCH 6 7
ATOM      7  N   ARG C1004      -2.567 -33.814   2.174  1.00 30.45 LIG-0.35  N 
ATOM      8  C   GLY C1003      -3.407 -34.399   3.027  1.00 32.03 LIG 0.25  C 
ATOM      9 O    GLY C1003      -3.100 -35.404   3.668  1.00 33.62 LIG-0.27  OA
ATOM     10 H    ARG C1004      -2.734 -33.092   1.738  1.00 30.45 LIG 0.16  HD
BRANCH 8 11
ATOM     11  CA  GLY C1003      -4.772 -33.764   3.193  1.00 33.10 LIG 0.47  C 
ATOM     12  N   GLY C1003      -4.715 -32.279   3.132  1.00 33.92 LIG 0.61  N 
ENDBRANCH 8 11
ENDBRANCH 6 7
BRANCH 6 13
ATOM     13  CB  ARG C1004      -0.509 -33.648   0.815  1.00 28.45 LIG 0.04  C 
BRANCH 13 14
ATOM     14  CG  ARG C1004       0.347 -32.504   1.308  1.00 27.92 LIG 0.02  C 
BRANCH 14 15
ATOM     15  CD  ARG C1004      -0.280 -31.152   0.971  1.00 26.34 LIG 0.14  C 
BRANCH 15 16
ATOM     16  NE  ARG C1004      -1.226 -31.276  -0.128  1.00 24.25 LIG-0.23  N 
ATOM     17 HE   ARG C1004      -2.064 -31.297   0.069  1.00 24.25 LIG 0.18  HD
ATOM     18  CZ  ARG C1004      -0.894 -31.358  -1.412  1.00 25.16 LIG 0.67  C 
ATOM     19  NH2 ARG C1004      -1.845 -31.455  -2.322  1.00 24.86 LIG-0.23  N 
ATOM     20  NH1 ARG C1004       0.377 -31.365  -1.785  1.00 22.12 LIG-0.23  N 
ATOM     21 1HH2 ARG C1004      -2.671 -31.463  -2.081  1.00 24.86 LIG 0.17  HD
ATOM     22 2HH2 ARG C1004      -1.639 -31.509  -3.154  1.00 24.86 LIG 0.17  HD
ATOM     23 1HH1 ARG C1004       1.000 -31.316  -1.194  1.00 22.12 LIG 0.17  HD
ATOM     24 2HH1 ARG C1004       0.580 -31.419  -2.619  1.00 22.12 LIG 0.17  HD
ENDBRANCH 15 16
ENDBRANCH 14 15
ENDBRANCH 13 14
ENDBRANCH 6 13
ENDBRANCH 3 6
ENDBRANCH 1 2
BRANCH 1 25
ATOM     25  CB  PHE C1005       0.232 -32.060   5.892  1.00 25.48 LIG 0.07  C 
BRANCH 25 26
ATOM     26  CG  PHE C1005      -0.765 -31.180   5.205  1.00 23.55 LIG-0.06  A 
ATOM     27  CD1 PHE C1005      -2.121 -31.219   5.568  1.00 22.30 LIG 0.01  A 
ATOM     28  CE1 PHE C1005      -3.060 -30.405   4.915  1.00 23.64 LIG 0.00  A 
ATOM     29  CZ  PHE C1005      -2.623 -29.560   3.862  1.00 21.73 LIG 0.00  A 
ATOM     30  CE2 PHE C1005      -1.280 -29.516   3.508  1.00 19.92 LIG 0.00  A 
ATOM     31  CD2 PHE C1005      -0.344 -30.326   4.179  1.00 21.20 LIG 0.01  A 
ENDBRANCH 25 26
ENDBRANCH 1 25
BRANCH 1 32
ATOM     32  C   PHE C1005       0.133 -34.506   6.233  1.00 27.26 LIG 0.24  C 
ATOM     33 O    PHE C1005      -0.963 -35.054   6.273  1.00 28.13 LIG-0.27  OA
ATOM     34  N   GLN C1006       1.157 -34.799   7.027  1.00 28.15 LIG-0.35  N 
ATOM     35 H    GLN C1006       1.947 -34.484   6.904  1.00 28.15 LIG 0.16  HD
BRANCH 34 36
ATOM     36  CA  GLN C1006       1.057 -35.682   8.188  1.00 29.76 LIG 0.18  C 
BRANCH 36 37
ATOM     37  CB  GLN C1006       1.440 -37.112   7.816  1.00 29.94 LIG 0.04  C 
BRANCH 37 38
ATOM     38  CG  GLN C1006       0.453 -38.175   8.260  1.00 33.02 LIG 0.10  C 
BRANCH 38 39
ATOM     39  CD  GLN C1006      -0.653 -37.616   9.138  1.00 35.46 LIG 0.21  C 
ATOM     40 OE1  GLN C1006      -0.521 -37.568  10.361  1.00 38.48 LIG-0.27  OA
ATOM     41  NE2 GLN C1006      -1.754 -37.199   8.515  1.00 37.01 LIG-0.37  N 
ATOM     42 22HE GLN C1006      -2.411 -36.881   8.970  1.00 37.01 LIG 0.16  HD
ATOM     43 21HE GLN C1006      -1.808 -37.249   7.659  1.00 37.01 LIG 0.16  HD
ENDBRANCH 38 39
ENDBRANCH 37 38
ENDBRANCH 36 37
BRANCH 36 44
ATOM     44  C   GLN C1006       1.966 -35.162   9.305  1.00 30.09 LIG 0.24  C 
ATOM     45  N   VAL C1007       1.862 -35.804  10.473  1.00 30.97 LIG-0.35  N 
ATOM     46 H    VAL C1007       1.277 -36.420  10.612  1.00 30.97 LIG 0.16  HD
ATOM     47 O    GLN C1006       2.714 -34.195   9.106  1.00 30.15 LIG-0.27  OA
BRANCH 45 48
ATOM     48  CA  VAL C1007       2.715 -35.544  11.643  1.00 32.05 LIG 0.18  C 
BRANCH 48 49
ATOM     49  CB  VAL C1007       4.212 -35.407  11.221  1.00 32.12 LIG 0.01  C 
ATOM     50  CG1 VAL C1007       4.573 -36.336  10.064  1.00 30.72 LIG 0.01  C 
ATOM     51  CG2 VAL C1007       5.153 -35.623  12.401  1.00 30.85 LIG 0.01  C 
ENDBRANCH 48 49
BRANCH 48 52
ATOM     52  C   VAL C1007       2.220 -34.156  12.137  1.00 33.20 LIG 0.24  C 
ATOM     53 O    VAL C1007       1.857 -33.336  11.302  1.00 34.91 LIG-0.27  OA
ATOM     54  N   THR C1008       2.197 -33.850  13.437  1.00 34.53 LIG-0.34  N 
ATOM     55 H    THR C1008       1.868 -33.102  13.705  1.00 34.53 LIG 0.16  HD
BRANCH 54 56
ATOM     56  CA  THR C1008       2.681 -34.651  14.558  1.00 33.96 LIG 0.19  C 
BRANCH 56 57
ATOM     57  C   THR C1008       1.500 -34.949  15.481  1.00 33.93 LIG 0.22  C 
ATOM     58 O    THR C1008       0.336 -34.766  15.115  1.00 34.05 LIG-0.29  OA
ENDBRANCH 56 57
BRANCH 56 59
ATOM     59  CB  THR C1008       3.779 -33.888  15.389  1.00 34.51 LIG 0.14  C 
ATOM     60  CG2 THR C1008       4.130 -34.610  16.691  1.00 33.41 LIG 0.04  C 
BRANCH 59 61
ATOM     61 OG1  THR C1008       4.972 -33.779  14.620  1.00 32.91 LIG-0.39  OA
ATOM     62 HG1  THR C1008       4.785 -33.504  13.849  1.00 32.91 LIG 0.21  HD
ENDBRANCH 59 61
ENDBRANCH 56 59
ENDBRANCH 54 56
ENDBRANCH 48 52
ENDBRANCH 45 48
ENDBRANCH 36 44
ENDBRANCH 34 36
ENDBRANCH 1 32
TORSDOF 23
ENDMDL
MODEL 5
USER: ADFR SOLUTION from run 75
USER: SCORE 18.442556 LL:  -4.227 LR: -15.968 RR:   0.000 FEB:  -9.107
USER: RMSD 2.582230
USER: SEED 74
USER: STATUS searching
USER: GENES 25
USER: genes 0 Translation |==|  0.46199 0.60143 0.44127
USER: genes 1 Rotation |==|  0.49052 0.50202 0.38079 0.98548
USER: genes 2 Torsion [CB]-CA--N-[C] |==|  0.48338
USER: genes 3 Torsion [N]-C--CA-[N] |==|  0.93066
USER: genes 4 Torsion [C]-CA--N-[C] |==|  0.83831
USER: genes 5 Torsion [N]-C--CA-[N] |==|  0.21170
USER: genes 6 Torsion [C]-CA--CB-[CG] |==|  0.88294
USER: genes 7 Torsion [CA]-CB--CG-[CD] |==|  0.77180
USER: genes 8 Torsion [CB]-CG--CD-[NE] |==|  0.88523
USER: genes 9 Torsion [CG]-CD--NE-[HE] |==|  0.29017
USER: genes 10 Torsion [N]-CA--CB-[CG] |==|  0.98687
USER: genes 11 Torsion [CA]-CB--CG-[CD2] |==|  0.76032
USER: genes 12 Torsion [N]-CA--C-[N] |==|  0.47104
USER: genes 13 Torsion [C]-N--CA-[C] |==|  0.67213
USER: genes 14 Torsion [N]-CA--CB-[CG] |==|  0.37707
USER: genes 15 Torsion [CA]-CB--CG-[CD] |==|  0.78605
USER: genes 16 Torsion [CB]-CG--CD-[OE1] |==|  0.89844
USER: genes 17 Torsion [N]-CA--C-[N] |==|  0.44558
USER: genes 18 Torsion [C]-N--CA-[CB] |==|  0.21252
USER: genes 19 Torsion [N]-CA--CB-[CG1] |==|  0.61121
USER: genes 20 Torsion [N]-CA--C-[N] |==|  0.45081
USER: genes 21 Torsion [C]-N--CA-[C] |==|  0.78251
USER: genes 22 Torsion [N]-CA--C-[O] |==|  0.07360
USER: genes 23 Torsion [N]-CA--CB-[OG1] |==|  0.66762
USER: genes 24 Torsion [CA]-CB--OG1-[HG1] |==|  0.69937
ROOT
ATOM      1  CA  PHE C1005       0.386 -33.453   5.232  1.00 26.32 LIG 0.18  C 
ENDROOT
BRANCH 1 2
ATOM      2  N   PHE C1005      -0.543 -33.577   4.118  1.00 26.54 LIG-0.35  N 
ATOM      3  C   ARG C1004      -0.497 -34.619   3.286  1.00 27.34 LIG 0.24  C 
ATOM      4 O    ARG C1004       0.214 -35.605   3.481  1.00 26.08 LIG-0.27  OA
ATOM      5 H    PHE C1005      -1.108 -32.931   4.051  1.00 26.54 LIG 0.16  HD
BRANCH 3 6
ATOM      6  CA  ARG C1004      -1.399 -34.545   2.044  1.00 28.49 LIG 0.18  C 
BRANCH 6 7
ATOM      7  N   ARG C1004      -2.559 -33.676   2.224  1.00 30.45 LIG-0.35  N 
ATOM      8  C   GLY C1003      -3.429 -33.917   3.205  1.00 32.03 LIG 0.25  C 
ATOM      9 O    GLY C1003      -3.268 -34.827   4.018  1.00 33.62 LIG-0.27  OA
ATOM     10 H    ARG C1004      -2.621 -33.028   1.663  1.00 30.45 LIG 0.16  HD
BRANCH 8 11
ATOM     11  CA  GLY C1003      -4.636 -33.007   3.294  1.00 33.10 LIG 0.47  C 
ATOM     12  N   GLY C1003      -5.659 -33.323   2.262  1.00 33.92 LIG 0.61  N 
ENDBRANCH 8 11
ENDBRANCH 6 7
BRANCH 6 13
ATOM     13  CB  ARG C1004      -0.589 -34.144   0.808  1.00 28.45 LIG 0.04  C 
BRANCH 13 14
ATOM     14  CG  ARG C1004       0.415 -33.042   1.055  1.00 27.92 LIG 0.02  C 
BRANCH 14 15
ATOM     15  CD  ARG C1004      -0.244 -31.664   1.005  1.00 26.34 LIG 0.14  C 
BRANCH 15 16
ATOM     16  NE  ARG C1004      -1.206 -31.586  -0.085  1.00 24.25 LIG-0.23  N 
ATOM     17 HE   ARG C1004      -2.041 -31.623   0.117  1.00 24.25 LIG 0.18  HD
ATOM     18  CZ  ARG C1004      -0.889 -31.462  -1.370  1.00 25.16 LIG 0.67  C 
ATOM     19  NH2 ARG C1004      -1.852 -31.388  -2.270  1.00 24.86 LIG-0.23  N 
ATOM     20  NH1 ARG C1004       0.377 -31.432  -1.758  1.00 22.12 LIG-0.23  N 
ATOM     21 1HH2 ARG C1004      -2.675 -31.420  -2.022  1.00 24.86 LIG 0.17  HD
ATOM     22 2HH2 ARG C1004      -1.657 -31.308  -3.103  1.00 24.86 LIG 0.17  HD
ATOM     23 1HH1 ARG C1004       1.007 -31.494  -1.176  1.00 22.12 LIG 0.17  HD
ATOM     24 2HH1 ARG C1004       0.569 -31.352  -2.592  1.00 22.12 LIG 0.17  HD
ENDBRANCH 15 16
ENDBRANCH 14 15
ENDBRANCH 13 14
ENDBRANCH 6 13
ENDBRANCH 3 6
ENDBRANCH 1 2
BRANCH 1 25
ATOM     25  CB  PHE C1005       0.202 -32.106   5.920  1.00 25.48 LIG 0.07  C 
BRANCH 25 26
ATOM     26  CG  PHE C1005      -0.784 -31.222   5.223  1.00 23.55 LIG-0.06  A 
ATOM     27  CD1 PHE C1005      -2.136 -31.222   5.603  1.00 22.30 LIG 0.01  A 
ATOM     28  CE1 PHE C1005      -3.065 -30.404   4.941  1.00 23.64 LIG 0.00  A 
ATOM     29  CZ  PHE C1005      -2.623 -29.595   3.862  1.00 21.73 LIG 0.00  A 
ATOM     30  CE2 PHE C1005      -1.284 -29.589   3.492  1.00 19.92 LIG 0.00  A 
ATOM     31  CD2 PHE C1005      -0.358 -30.402   4.172  1.00 21.20 LIG 0.01  A 
ENDBRANCH 25 26
ENDBRANCH 1 25
BRANCH 1 32
ATOM     32  C   PHE C1005       0.204 -34.556   6.246  1.00 27.26 LIG 0.24  C 
ATOM     33 O    PHE C1005      -0.764 -35.304   6.167  1.00 28.13 LIG-0.27  OA
ATOM     34  N   GLN C1006       1.151 -34.636   7.175  1.00 28.15 LIG-0.35  N 
ATOM     35 H    GLN C1006       1.877 -34.177   7.141  1.00 28.15 LIG 0.16  HD
BRANCH 34 36
ATOM     36  CA  GLN C1006       1.066 -35.505   8.347  1.00 29.76 LIG 0.18  C 
BRANCH 36 37
ATOM     37  CB  GLN C1006       2.221 -36.504   8.366  1.00 29.94 LIG 0.04  C 
BRANCH 37 38
ATOM     38  CG  GLN C1006       2.891 -36.680   9.715  1.00 33.02 LIG 0.10  C 
BRANCH 38 39
ATOM     39  CD  GLN C1006       3.826 -35.533  10.059  1.00 35.46 LIG 0.21  C 
ATOM     40 OE1  GLN C1006       4.501 -34.989   9.185  1.00 38.48 LIG-0.27  OA
ATOM     41  NE2 GLN C1006       3.875 -35.169  11.339  1.00 37.01 LIG-0.37  N 
ATOM     42 22HE GLN C1006       4.394 -34.529  11.585  1.00 37.01 LIG 0.16  HD
ATOM     43 21HE GLN C1006       3.387 -35.574  11.920  1.00 37.01 LIG 0.16  HD
ENDBRANCH 38 39
ENDBRANCH 37 38
ENDBRANCH 36 37
BRANCH 36 44
ATOM     44  C   GLN C1006       1.081 -34.651   9.617  1.00 30.09 LIG 0.24  C 
ATOM     45  N   VAL C1007       0.609 -35.251  10.715  1.00 30.97 LIG-0.35  N 
ATOM     46 H    VAL C1007       0.255 -36.035  10.698  1.00 30.97 LIG 0.16  HD
ATOM     47 O    GLN C1006       1.489 -33.482   9.583  1.00 30.15 LIG-0.27  OA
BRANCH 45 48
ATOM     48  CA  VAL C1007       0.633 -34.658  12.062  1.00 32.05 LIG 0.18  C 
BRANCH 48 49
ATOM     49  CB  VAL C1007      -0.483 -33.576  12.214  1.00 32.12 LIG 0.01  C 
ATOM     50  CG1 VAL C1007      -0.002 -32.358  12.999  1.00 30.72 LIG 0.01  C 
ATOM     51  CG2 VAL C1007      -1.749 -34.154  12.835  1.00 30.85 LIG 0.01  C 
ENDBRANCH 48 49
BRANCH 48 52
ATOM     52  C   VAL C1007       0.273 -35.859  12.980  1.00 33.20 LIG 0.24  C 
ATOM     53 O    VAL C1007      -0.261 -36.840  12.475  1.00 34.91 LIG-0.27  OA
ATOM     54  N   THR C1008       0.526 -35.830  14.291  1.00 34.53 LIG-0.34  N 
ATOM     55 H    THR C1008       0.377 -36.521  14.782  1.00 34.53 LIG 0.16  HD
BRANCH 54 56
ATOM     56  CA  THR C1008       1.058 -34.723  15.080  1.00 33.96 LIG 0.19  C 
BRANCH 56 57
ATOM     57  C   THR C1008       2.567 -34.651  14.854  1.00 33.93 LIG 0.22  C 
ATOM     58 O    THR C1008       3.081 -35.069  13.813  1.00 34.05 LIG-0.29  OA
ENDBRANCH 56 57
BRANCH 56 59
ATOM     59  CB  THR C1008       0.797 -34.925  16.620  1.00 34.51 LIG 0.14  C 
ATOM     60  CG2 THR C1008       2.094 -34.959  17.430  1.00 33.41 LIG 0.04  C 
BRANCH 59 61
ATOM     61 OG1  THR C1008       0.004 -33.853  17.118  1.00 32.91 LIG-0.39  OA
ATOM     62 HG1  THR C1008       0.478 -33.353  17.599  1.00 32.91 LIG 0.21  HD
ENDBRANCH 59 61
ENDBRANCH 56 59
ENDBRANCH 54 56
ENDBRANCH 48 52
ENDBRANCH 45 48
ENDBRANCH 36 44
ENDBRANCH 34 36
ENDBRANCH 1 32
TORSDOF 23
ENDMDL
MODEL 6
USER: ADFR SOLUTION from run 132
USER: SCORE 17.420547 LL:  -4.334 LR: -15.824 RR:   0.000 FEB:  -8.963
USER: RMSD 2.082972
USER: SEED 131
USER: STATUS no improvement in best in 3 clusters for 5 generations
USER: GENES 25
USER: genes 0 Translation |==|  0.46039 0.62545 0.48638
USER: genes 1 Rotation |==|  0.50082 0.33242 0.60596 0.95901
USER: genes 2 Torsion [CB]-CA--N-[C] |==|  0.86108
USER: genes 3 Torsion [N]-C--CA-[N] |==|  0.46611
USER: genes 4 Torsion [C]-CA--N-[C] |==|  0.80412
USER: genes 5 Torsion [N]-C--CA-[N] |==|  0.46681
USER: genes 6 Torsion [C]-CA--CB-[CG] |==|  0.85175
USER: genes 7 Torsion [CA]-CB--CG-[CD] |==|  0.46209
USER: genes 8 Torsion [CB]-CG--CD-[NE] |==|  0.39365
USER: genes 9 Torsion [CG]-CD--NE-[HE] |==|  0.12199
USER: genes 10 Torsion [N]-CA--CB-[CG] |==|  0.85823
USER: genes 11 Torsion [CA]-CB--CG-[CD2] |==|  0.36694
USER: genes 12 Torsion [N]-CA--C-[N] |==|  0.12452
USER: genes 13 Torsion [C]-N--CA-[C] |==|  0.79706
USER: genes 14 Torsion [N]-CA--CB-[CG] |==|  0.41659
USER: genes 15 Torsion [CA]-CB--CG-[CD] |==|  0.72187
USER: genes 16 Torsion [CB]-CG--CD-[OE1] |==|  0.77773
USER: genes 17 Torsion [N]-CA--C-[N] |==|  0.41813
USER: genes 18 Torsion [C]-N--CA-[CB] |==|  0.29408
USER: genes 19 Torsion [N]-CA--CB-[CG1] |==|  0.38643
USER: genes 20 Torsion [N]-CA--C-[N] |==|  0.33896
USER: genes 21 Torsion [C]-N--CA-[C] |==|  0.61415
USER: genes 22 Torsion [N]-CA--C-[O] |==|  0.38241
USER: genes 23 Torsion [N]-CA--CB-[OG1] |==|  0.75960
USER: genes 24 Torsion [CA]-CB--OG1-[HG1] |==|  0.92601
ROOT
ATOM      1  CA  PHE C1005       0.355 -33.021   6.484  1.00 26.32 LIG 0.18  C 
ENDROOT
BRANCH 1 2
ATOM      2  N   PHE C1005       0.719 -33.606   5.202  1.00 26.54 LIG-0.35  N 
ATOM      3  C   ARG C1004      -0.086 -34.467   4.576  1.00 27.34 LIG 0.24  C 
ATOM      4 O    ARG C1004      -1.233 -34.709   4.949  1.00 26.08 LIG-0.27  OA
ATOM      5 H    PHE C1005       1.481 -33.349   4.896  1.00 26.54 LIG 0.16  HD
BRANCH 3 6
ATOM      6  CA  ARG C1004       0.487 -35.158   3.329  1.00 28.49 LIG 0.18  C 
BRANCH 6 7
ATOM      7  N   ARG C1004      -0.325 -36.280   2.865  1.00 30.45 LIG-0.35  N 
ATOM      8  C   GLY C1003      -0.376 -37.407   3.575  1.00 32.03 LIG 0.25  C 
ATOM      9 O    GLY C1003       0.202 -37.530   4.655  1.00 33.62 LIG-0.27  OA
ATOM     10 H    ARG C1004      -0.744 -36.147   2.127  1.00 30.45 LIG 0.16  HD
BRANCH 8 11
ATOM     11  CA  GLY C1003      -1.194 -38.545   3.003  1.00 33.10 LIG 0.47  C 
ATOM     12  N   GLY C1003      -0.955 -39.828   3.717  1.00 33.92 LIG 0.61  N 
ENDBRANCH 8 11
ENDBRANCH 6 7
BRANCH 6 13
ATOM     13  CB  ARG C1004       0.726 -34.142   2.208  1.00 28.45 LIG 0.04  C 
BRANCH 13 14
ATOM     14  CG  ARG C1004      -0.483 -33.302   1.864  1.00 27.92 LIG 0.02  C 
BRANCH 14 15
ATOM     15  CD  ARG C1004      -0.101 -32.103   0.996  1.00 26.34 LIG 0.14  C 
BRANCH 15 16
ATOM     16  NE  ARG C1004      -1.117 -31.848  -0.015  1.00 24.25 LIG-0.23  N 
ATOM     17 HE   ARG C1004      -1.940 -31.880   0.231  1.00 24.25 LIG 0.18  HD
ATOM     18  CZ  ARG C1004      -0.866 -31.570  -1.290  1.00 25.16 LIG 0.67  C 
ATOM     19  NH2 ARG C1004      -1.873 -31.344  -2.113  1.00 24.86 LIG-0.23  N 
ATOM     20  NH1 ARG C1004       0.377 -31.537  -1.747  1.00 22.12 LIG-0.23  N 
ATOM     21 1HH2 ARG C1004      -2.682 -31.377  -1.822  1.00 24.86 LIG 0.17  HD
ATOM     22 2HH2 ARG C1004      -1.720 -31.163  -2.939  1.00 24.86 LIG 0.17  HD
ATOM     23 1HH1 ARG C1004       1.035 -31.697  -1.216  1.00 22.12 LIG 0.17  HD
ATOM     24 2HH1 ARG C1004       0.527 -31.355  -2.574  1.00 22.12 LIG 0.17  HD
ENDBRANCH 15 16
ENDBRANCH 14 15
ENDBRANCH 13 14
ENDBRANCH 6 13
ENDBRANCH 3 6
ENDBRANCH 1 2
BRANCH 1 25
ATOM     25  CB  PHE C1005      -1.056 -32.447   6.416  1.00 25.48 LIG 0.07  C 
BRANCH 25 26
ATOM     26  CG  PHE C1005      -1.262 -31.536   5.248  1.00 23.55 LIG-0.06  A 
ATOM     27  CD1 PHE C1005      -0.342 -30.511   4.970  1.00 22.30 LIG 0.01  A 
ATOM     28  CE1 PHE C1005      -0.541 -29.646   3.882  1.00 23.64 LIG 0.00  A 
ATOM     29  CZ  PHE C1005      -1.702 -29.805   3.082  1.00 21.73 LIG 0.00  A 
ATOM     30  CE2 PHE C1005      -2.608 -30.823   3.352  1.00 19.92 LIG 0.00  A 
ATOM     31  CD2 PHE C1005      -2.391 -31.694   4.436  1.00 21.20 LIG 0.01  A 
ENDBRANCH 25 26
ENDBRANCH 1 25
BRANCH 1 32
ATOM     32  C   PHE C1005       0.428 -34.027   7.606  1.00 27.26 LIG 0.24  C 
ATOM     33 O    PHE C1005      -0.481 -34.093   8.427  1.00 28.13 LIG-0.27  OA
ATOM     34  N   GLN C1006       1.511 -34.796   7.611  1.00 28.15 LIG-0.35  N 
ATOM     35 H    GLN C1006       2.076 -34.810   6.962  1.00 28.15 LIG 0.16  HD
BRANCH 34 36
ATOM     36  CA  GLN C1006       1.863 -35.697   8.707  1.00 29.76 LIG 0.18  C 
BRANCH 36 37
ATOM     37  CB  GLN C1006       2.932 -36.693   8.268  1.00 29.94 LIG 0.04  C 
BRANCH 37 38
ATOM     38  CG  GLN C1006       3.861 -37.162   9.372  1.00 33.02 LIG 0.10  C 
BRANCH 38 39
ATOM     39  CD  GLN C1006       5.197 -36.442   9.358  1.00 35.46 LIG 0.21  C 
ATOM     40 OE1  GLN C1006       6.084 -36.775   8.572  1.00 38.48 LIG-0.27  OA
ATOM     41  NE2 GLN C1006       5.350 -35.454  10.239  1.00 37.01 LIG-0.37  N 
ATOM     42 22HE GLN C1006       6.091 -35.020  10.275  1.00 37.01 LIG 0.16  HD
ATOM     43 21HE GLN C1006       4.706 -35.251  10.772  1.00 37.01 LIG 0.16  HD
ENDBRANCH 38 39
ENDBRANCH 37 38
ENDBRANCH 36 37
BRANCH 36 44
ATOM     44  C   GLN C1006       2.358 -34.878   9.901  1.00 30.09 LIG 0.24  C 
ATOM     45  N   VAL C1007       2.135 -35.424  11.101  1.00 30.97 LIG-0.35  N 
ATOM     46 H    VAL C1007       1.683 -36.149  11.203  1.00 30.97 LIG 0.16  HD
ATOM     47 O    GLN C1006       2.902 -33.779   9.727  1.00 30.15 LIG-0.27  OA
BRANCH 45 48
ATOM     48  CA  VAL C1007       2.623 -34.866  12.372  1.00 32.05 LIG 0.18  C 
BRANCH 48 49
ATOM     49  CB  VAL C1007       1.458 -34.204  13.174  1.00 32.12 LIG 0.01  C 
ATOM     50  CG1 VAL C1007       1.543 -34.506  14.669  1.00 30.72 LIG 0.01  C 
ATOM     51  CG2 VAL C1007       0.095 -34.599  12.619  1.00 30.85 LIG 0.01  C 
ENDBRANCH 48 49
BRANCH 48 52
ATOM     52  C   VAL C1007       3.095 -36.126  13.150  1.00 33.20 LIG 0.24  C 
ATOM     53 O    VAL C1007       2.279 -37.014  13.371  1.00 34.91 LIG-0.27  OA
ATOM     54  N   THR C1008       4.353 -36.244  13.583  1.00 34.53 LIG-0.34  N 
ATOM     55 H    THR C1008       4.620 -36.968  13.962  1.00 34.53 LIG 0.16  HD
BRANCH 54 56
ATOM     56  CA  THR C1008       5.427 -35.258  13.505  1.00 33.96 LIG 0.19  C 
BRANCH 56 57
ATOM     57  C   THR C1008       6.718 -35.981  13.126  1.00 33.93 LIG 0.22  C 
ATOM     58 O    THR C1008       7.502 -35.505  12.299  1.00 34.05 LIG-0.29  OA
ENDBRANCH 56 57
BRANCH 56 59
ATOM     59  CB  THR C1008       5.653 -34.531  14.883  1.00 34.51 LIG 0.14  C 
ATOM     60  CG2 THR C1008       7.084 -34.013  15.041  1.00 33.41 LIG 0.04  C 
BRANCH 59 61
ATOM     61 OG1  THR C1008       4.775 -33.415  14.987  1.00 32.91 LIG-0.39  OA
ATOM     62 HG1  THR C1008       4.584 -33.136  14.218  1.00 32.91 LIG 0.21  HD
ENDBRANCH 59 61
ENDBRANCH 56 59
ENDBRANCH 54 56
ENDBRANCH 48 52
ENDBRANCH 45 48
ENDBRANCH 36 44
ENDBRANCH 34 36
ENDBRANCH 1 32
TORSDOF 23
ENDMDL
MODEL 7
USER: ADFR SOLUTION from run 171
USER: SCORE 17.798078 LL:  -3.920 LR: -15.797 RR:   0.000 FEB:  -8.936
USER: RMSD 2.916005
USER: SEED 170
USER: STATUS no improvement in best in 2 clusters for 5 generations
USER: GENES 25
USER: genes 0 Translation |==|  0.46176 0.59908 0.43697
USER: genes 1 Rotation |==|  0.50234 0.49942 0.38152 0.98575
USER: genes 2 Torsion [CB]-CA--N-[C] |==|  0.48889
USER: genes 3 Torsion [N]-C--CA-[N] |==|  0.91831
USER: genes 4 Torsion [C]-CA--N-[C] |==|  0.83792
USER: genes 5 Torsion [N]-C--CA-[N] |==|  0.62757
USER: genes 6 Torsion [C]-CA--CB-[CG] |==|  0.87399
USER: genes 7 Torsion [CA]-CB--CG-[CD] |==|  0.76429
USER: genes 8 Torsion [CB]-CG--CD-[NE] |==|  0.89256
USER: genes 9 Torsion [CG]-CD--NE-[HE] |==|  0.31032
USER: genes 10 Torsion [N]-CA--CB-[CG] |==|  0.98702
USER: genes 11 Torsion [CA]-CB--CG-[CD2] |==|  0.76642
USER: genes 12 Torsion [N]-CA--C-[N] |==|  0.45175
USER: genes 13 Torsion [C]-N--CA-[C] |==|  0.58403
USER: genes 14 Torsion [N]-CA--CB-[CG] |==|  0.21803
USER: genes 15 Torsion [CA]-CB--CG-[CD] |==|  0.80684
USER: genes 16 Torsion [CB]-CG--CD-[OE1] |==|  0.42460
USER: genes 17 Torsion [N]-CA--C-[N] |==|  0.56205
USER: genes 18 Torsion [C]-N--CA-[CB] |==|  0.51407
USER: genes 19 Torsion [N]-CA--CB-[CG1] |==|  0.11974
USER: genes 20 Torsion [N]-CA--C-[N] |==|  0.52123
USER: genes 21 Torsion [C]-N--CA-[C] |==|  0.66390
USER: genes 22 Torsion [N]-CA--C-[O] |==|  0.34614
USER: genes 23 Torsion [N]-CA--CB-[OG1] |==|  0.22389
USER: genes 24 Torsion [CA]-CB--OG1-[HG1] |==|  0.39383
ROOT
ATOM      1  CA  PHE C1005       0.381 -33.495   5.113  1.00 26.32 LIG 0.18  C 
ENDROOT
BRANCH 1 2
ATOM      2  N   PHE C1005      -0.523 -33.573   3.975  1.00 26.54 LIG-0.35  N 
ATOM      3  C   ARG C1004      -0.481 -34.598   3.122  1.00 27.34 LIG 0.24  C 
ATOM      4 O    ARG C1004       0.201 -35.604   3.311  1.00 26.08 LIG-0.27  OA
ATOM      5 H    PHE C1005      -1.071 -32.913   3.909  1.00 26.54 LIG 0.16  HD
BRANCH 3 6
ATOM      6  CA  ARG C1004      -1.352 -34.476   1.861  1.00 28.49 LIG 0.18  C 
BRANCH 6 7
ATOM      7  N   ARG C1004      -2.551 -33.666   2.062  1.00 30.45 LIG-0.35  N 
ATOM      8  C   GLY C1003      -3.438 -34.007   2.997  1.00 32.03 LIG 0.25  C 
ATOM      9 O    GLY C1003      -3.263 -34.964   3.751  1.00 33.62 LIG-0.27  OA
ATOM     10 H    ARG C1004      -2.622 -32.984   1.544  1.00 30.45 LIG 0.16  HD
BRANCH 8 11
ATOM     11  CA  GLY C1003      -4.682 -33.152   3.110  1.00 33.10 LIG 0.47  C 
ATOM     12  N   GLY C1003      -5.000 -32.799   4.519  1.00 33.92 LIG 0.61  N 
ENDBRANCH 8 11
ENDBRANCH 6 7
BRANCH 6 13
ATOM     13  CB  ARG C1004      -0.525 -33.962   0.678  1.00 28.45 LIG 0.04  C 
BRANCH 13 14
ATOM     14  CG  ARG C1004       0.370 -32.791   1.010  1.00 27.92 LIG 0.02  C 
BRANCH 14 15
ATOM     15  CD  ARG C1004      -0.384 -31.465   0.911  1.00 26.34 LIG 0.14  C 
BRANCH 15 16
ATOM     16  NE  ARG C1004      -1.304 -31.472  -0.217  1.00 24.25 LIG-0.23  N 
ATOM     17 HE   ARG C1004      -2.146 -31.471  -0.044  1.00 24.25 LIG 0.18  HD
ATOM     18  CZ  ARG C1004      -0.938 -31.480  -1.495  1.00 25.16 LIG 0.67  C 
ATOM     19  NH2 ARG C1004      -1.866 -31.472  -2.434  1.00 24.86 LIG-0.23  N 
ATOM     20  NH1 ARG C1004       0.342 -31.516  -1.835  1.00 22.12 LIG-0.23  N 
ATOM     21 1HH2 ARG C1004      -2.698 -31.462  -2.216  1.00 24.86 LIG 0.17  HD
ATOM     22 2HH2 ARG C1004      -1.639 -31.478  -3.263  1.00 24.86 LIG 0.17  HD
ATOM     23 1HH1 ARG C1004       0.949 -31.535  -1.226  1.00 22.12 LIG 0.17  HD
ATOM     24 2HH1 ARG C1004       0.566 -31.521  -2.666  1.00 22.12 LIG 0.17  HD
ENDBRANCH 15 16
ENDBRANCH 14 15
ENDBRANCH 13 14
ENDBRANCH 6 13
ENDBRANCH 3 6
ENDBRANCH 1 2
BRANCH 1 25
ATOM     25  CB  PHE C1005       0.178 -32.179   5.854  1.00 25.48 LIG 0.07  C 
BRANCH 25 26
ATOM     26  CG  PHE C1005      -0.797 -31.269   5.176  1.00 23.55 LIG-0.06  A 
ATOM     27  CD1 PHE C1005      -2.148 -31.258   5.559  1.00 22.30 LIG 0.01  A 
ATOM     28  CE1 PHE C1005      -3.067 -30.415   4.915  1.00 23.64 LIG 0.00  A 
ATOM     29  CZ  PHE C1005      -2.616 -29.593   3.850  1.00 21.73 LIG 0.00  A 
ATOM     30  CE2 PHE C1005      -1.278 -29.598   3.476  1.00 19.92 LIG 0.00  A 
ATOM     31  CD2 PHE C1005      -0.362 -30.437   4.139  1.00 21.20 LIG 0.01  A 
ENDBRANCH 25 26
ENDBRANCH 1 25
BRANCH 1 32
ATOM     32  C   PHE C1005       0.182 -34.642   6.073  1.00 27.26 LIG 0.24  C 
ATOM     33 O    PHE C1005      -0.845 -35.309   6.022  1.00 28.13 LIG-0.27  OA
ATOM     34  N   GLN C1006       1.179 -34.848   6.927  1.00 28.15 LIG-0.35  N 
ATOM     35 H    GLN C1006       1.936 -34.443   6.867  1.00 28.15 LIG 0.16  HD
BRANCH 34 36
ATOM     36  CA  GLN C1006       1.106 -35.779   8.052  1.00 29.76 LIG 0.18  C 
BRANCH 36 37
ATOM     37  CB  GLN C1006       1.536 -37.180   7.626  1.00 29.94 LIG 0.04  C 
BRANCH 37 38
ATOM     38  CG  GLN C1006       3.035 -37.383   7.518  1.00 33.02 LIG 0.10  C 
BRANCH 38 39
ATOM     39  CD  GLN C1006       3.646 -36.626   6.352  1.00 35.46 LIG 0.21  C 
ATOM     40 OE1  GLN C1006       4.822 -36.262   6.384  1.00 38.48 LIG-0.27  OA
ATOM     41  NE2 GLN C1006       2.843 -36.376   5.319  1.00 37.01 LIG-0.37  N 
ATOM     42 22HE GLN C1006       3.140 -35.944   4.637  1.00 37.01 LIG 0.16  HD
ATOM     43 21HE GLN C1006       2.027 -36.647   5.334  1.00 37.01 LIG 0.16  HD
ENDBRANCH 38 39
ENDBRANCH 37 38
ENDBRANCH 36 37
BRANCH 36 44
ATOM     44  C   GLN C1006       1.994 -35.274   9.191  1.00 30.09 LIG 0.24  C 
ATOM     45  N   VAL C1007       2.392 -36.206  10.063  1.00 30.97 LIG-0.35  N 
ATOM     46 H    VAL C1007       2.113 -37.019  10.030  1.00 30.97 LIG 0.16  HD
ATOM     47 O    GLN C1006       2.283 -34.072   9.276  1.00 30.15 LIG-0.27  OA
BRANCH 45 48
ATOM     48  CA  VAL C1007       3.335 -35.964  11.166  1.00 32.05 LIG 0.18  C 
BRANCH 48 49
ATOM     49  CB  VAL C1007       3.677 -37.294  11.909  1.00 32.12 LIG 0.01  C 
ATOM     50  CG1 VAL C1007       3.921 -38.449  10.941  1.00 30.72 LIG 0.01  C 
ATOM     51  CG2 VAL C1007       2.605 -37.662  12.930  1.00 30.85 LIG 0.01  C 
ENDBRANCH 48 49
BRANCH 48 52
ATOM     52  C   VAL C1007       4.615 -35.475  10.431  1.00 33.20 LIG 0.24  C 
ATOM     53 O    VAL C1007       4.551 -35.269   9.225  1.00 34.91 LIG-0.27  OA
ATOM     54  N   THR C1008       5.764 -35.292  11.087  1.00 34.53 LIG-0.34  N 
ATOM     55 H    THR C1008       6.452 -34.967  10.684  1.00 34.53 LIG 0.16  HD
BRANCH 54 56
ATOM     56  CA  THR C1008       6.056 -35.580  12.488  1.00 33.96 LIG 0.19  C 
BRANCH 56 57
ATOM     57  C   THR C1008       6.491 -34.281  13.166  1.00 33.93 LIG 0.22  C 
ATOM     58 O    THR C1008       5.918 -33.859  14.174  1.00 34.05 LIG-0.29  OA
ENDBRANCH 56 57
BRANCH 56 59
ATOM     59  CB  THR C1008       7.219 -36.630  12.639  1.00 34.51 LIG 0.14  C 
ATOM     60  CG2 THR C1008       7.139 -37.741  11.591  1.00 33.41 LIG 0.04  C 
BRANCH 59 61
ATOM     61 OG1  THR C1008       8.476 -35.979  12.484  1.00 32.91 LIG-0.39  OA
ATOM     62 HG1  THR C1008       9.030 -36.308  13.023  1.00 32.91 LIG 0.21  HD
ENDBRANCH 59 61
ENDBRANCH 56 59
ENDBRANCH 54 56
ENDBRANCH 48 52
ENDBRANCH 45 48
ENDBRANCH 36 44
ENDBRANCH 34 36
ENDBRANCH 1 32
TORSDOF 23
ENDMDL
MODEL 8
USER: ADFR SOLUTION from run 43
USER: SCORE 18.672047 LL:  -4.428 LR: -15.779 RR:   0.000 FEB:  -8.918
USER: RMSD 3.149544
USER: SEED 42
USER: STATUS no improvement in best in 3 clusters for 5 generations
USER: GENES 25
USER: genes 0 Translation |==|  0.46218 0.59366 0.43376
USER: genes 1 Rotation |==|  0.52568 0.50095 0.40351 0.98993
USER: genes 2 Torsion [CB]-CA--N-[C] |==|  0.48333
USER: genes 3 Torsion [N]-C--CA-[N] |==|  0.91063
USER: genes 4 Torsion [C]-CA--N-[C] |==|  0.81940
USER: genes 5 Torsion [N]-C--CA-[N] |==|  0.87530
USER: genes 6 Torsion [C]-CA--CB-[CG] |==|  0.89130
USER: genes 7 Torsion [CA]-CB--CG-[CD] |==|  0.71113
USER: genes 8 Torsion [CB]-CG--CD-[NE] |==|  0.93882
USER: genes 9 Torsion [CG]-CD--NE-[HE] |==|  0.30257
USER: genes 10 Torsion [N]-CA--CB-[CG] |==|  0.96937
USER: genes 11 Torsion [CA]-CB--CG-[CD2] |==|  0.77984
USER: genes 12 Torsion [N]-CA--C-[N] |==|  0.37945
USER: genes 13 Torsion [C]-N--CA-[C] |==|  0.62155
USER: genes 14 Torsion [N]-CA--CB-[CG] |==|  0.66149
USER: genes 15 Torsion [CA]-CB--CG-[CD] |==|  0.84144
USER: genes 16 Torsion [CB]-CG--CD-[OE1] |==|  0.21672
USER: genes 17 Torsion [N]-CA--C-[N] |==|  0.44277
USER: genes 18 Torsion [C]-N--CA-[CB] |==|  0.80556
USER: genes 19 Torsion [N]-CA--CB-[CG1] |==|  0.86189
USER: genes 20 Torsion [N]-CA--C-[N] |==|  0.17287
USER: genes 21 Torsion [C]-N--CA-[C] |==|  0.68835
USER: genes 22 Torsion [N]-CA--C-[O] |==|  0.04437
USER: genes 23 Torsion [N]-CA--CB-[OG1] |==|  0.07481
USER: genes 24 Torsion [CA]-CB--OG1-[HG1] |==|  0.86899
ROOT
ATOM      1  CA  PHE C1005       0.390 -33.593   5.024  1.00 26.32 LIG 0.18  C 
ENDROOT
BRANCH 1 2
ATOM      2  N   PHE C1005      -0.490 -33.645   3.865  1.00 26.54 LIG-0.35  N 
ATOM      3  C   ARG C1004      -0.321 -34.554   2.904  1.00 27.34 LIG 0.24  C 
ATOM      4 O    ARG C1004       0.473 -35.490   2.994  1.00 26.08 LIG-0.27  OA
ATOM      5 H    PHE C1005      -1.111 -33.049   3.862  1.00 26.54 LIG 0.16  HD
BRANCH 3 6
ATOM      6  CA  ARG C1004      -1.189 -34.391   1.646  1.00 28.49 LIG 0.18  C 
BRANCH 6 7
ATOM      7  N   ARG C1004      -2.502 -33.813   1.921  1.00 30.45 LIG-0.35  N 
ATOM      8  C   GLY C1003      -3.383 -34.480   2.666  1.00 32.03 LIG 0.25  C 
ATOM      9 O    GLY C1003      -3.116 -35.561   3.189  1.00 33.62 LIG-0.27  OA
ATOM     10 H    ARG C1004      -2.641 -33.040   1.572  1.00 30.45 LIG 0.16  HD
BRANCH 8 11
ATOM     11  CA  GLY C1003      -4.742 -33.842   2.862  1.00 33.10 LIG 0.47  C 
ATOM     12  N   GLY C1003      -4.646 -32.392   3.180  1.00 33.92 LIG 0.61  N 
ENDBRANCH 8 11
ENDBRANCH 6 7
BRANCH 6 13
ATOM     13  CB  ARG C1004      -0.443 -33.594   0.571  1.00 28.45 LIG 0.04  C 
BRANCH 13 14
ATOM     14  CG  ARG C1004       0.375 -32.443   1.109  1.00 27.92 LIG 0.02  C 
BRANCH 14 15
ATOM     15  CD  ARG C1004      -0.311 -31.102   0.853  1.00 26.34 LIG 0.14  C 
BRANCH 15 16
ATOM     16  NE  ARG C1004      -1.260 -31.204  -0.247  1.00 24.25 LIG-0.23  N 
ATOM     17 HE   ARG C1004      -2.097 -31.170  -0.054  1.00 24.25 LIG 0.18  HD
ATOM     18  CZ  ARG C1004      -0.928 -31.345  -1.526  1.00 25.16 LIG 0.67  C 
ATOM     19  NH2 ARG C1004      -1.880 -31.414  -2.437  1.00 24.86 LIG-0.23  N 
ATOM     20  NH1 ARG C1004       0.341 -31.438  -1.892  1.00 22.12 LIG-0.23  N 
ATOM     21 1HH2 ARG C1004      -2.706 -31.366  -2.201  1.00 24.86 LIG 0.17  HD
ATOM     22 2HH2 ARG C1004      -1.675 -31.505  -3.267  1.00 24.86 LIG 0.17  HD
ATOM     23 1HH1 ARG C1004       0.964 -31.407  -1.300  1.00 22.12 LIG 0.17  HD
ATOM     24 2HH1 ARG C1004       0.544 -31.529  -2.723  1.00 22.12 LIG 0.17  HD
ENDBRANCH 15 16
ENDBRANCH 14 15
ENDBRANCH 13 14
ENDBRANCH 6 13
ENDBRANCH 3 6
ENDBRANCH 1 2
BRANCH 1 25
ATOM     25  CB  PHE C1005       0.060 -32.374   5.878  1.00 25.48 LIG 0.07  C 
BRANCH 25 26
ATOM     26  CG  PHE C1005      -0.871 -31.418   5.200  1.00 23.55 LIG-0.06  A 
ATOM     27  CD1 PHE C1005      -2.241 -31.418   5.506  1.00 22.30 LIG 0.01  A 
ATOM     28  CE1 PHE C1005      -3.118 -30.531   4.861  1.00 23.64 LIG 0.00  A 
ATOM     29  CZ  PHE C1005      -2.603 -29.653   3.872  1.00 21.73 LIG 0.00  A 
ATOM     30  CE2 PHE C1005      -1.246 -29.648   3.575  1.00 19.92 LIG 0.00  A 
ATOM     31  CD2 PHE C1005      -0.373 -30.532   4.238  1.00 21.20 LIG 0.01  A 
ENDBRANCH 25 26
ENDBRANCH 1 25
BRANCH 1 32
ATOM     32  C   PHE C1005       0.282 -34.836   5.872  1.00 27.26 LIG 0.24  C 
ATOM     33 O    PHE C1005      -0.819 -35.319   6.112  1.00 28.13 LIG-0.27  OA
ATOM     34  N   GLN C1006       1.438 -35.333   6.301  1.00 28.15 LIG-0.35  N 
ATOM     35 H    GLN C1006       2.200 -35.046   6.025  1.00 28.15 LIG 0.16  HD
BRANCH 34 36
ATOM     36  CA  GLN C1006       1.543 -36.413   7.281  1.00 29.76 LIG 0.18  C 
BRANCH 36 37
ATOM     37  CB  GLN C1006       1.855 -37.740   6.594  1.00 29.94 LIG 0.04  C 
BRANCH 37 38
ATOM     38  CG  GLN C1006       0.842 -38.841   6.841  1.00 33.02 LIG 0.10  C 
BRANCH 38 39
ATOM     39  CD  GLN C1006       0.651 -39.140   8.317  1.00 35.46 LIG 0.21  C 
ATOM     40 OE1  GLN C1006      -0.037 -38.403   9.025  1.00 38.48 LIG-0.27  OA
ATOM     41  NE2 GLN C1006       1.270 -40.220   8.791  1.00 37.01 LIG-0.37  N 
ATOM     42 22HE GLN C1006       1.197 -40.428   9.622  1.00 37.01 LIG 0.16  HD
ATOM     43 21HE GLN C1006       1.742 -40.710   8.265  1.00 37.01 LIG 0.16  HD
ENDBRANCH 38 39
ENDBRANCH 37 38
ENDBRANCH 36 37
BRANCH 36 44
ATOM     44  C   GLN C1006       2.634 -36.073   8.300  1.00 30.09 LIG 0.24  C 
ATOM     45  N   VAL C1007       2.554 -36.727   9.463  1.00 30.97 LIG-0.35  N 
ATOM     46 H    VAL C1007       1.899 -37.249   9.656  1.00 30.97 LIG 0.16  HD
ATOM     47 O    GLN C1006       3.499 -35.227   8.034  1.00 30.15 LIG-0.27  OA
BRANCH 45 48
ATOM     48  CA  VAL C1007       3.556 -36.637  10.537  1.00 32.05 LIG 0.18  C 
BRANCH 48 49
ATOM     49  CB  VAL C1007       4.885 -37.343  10.121  1.00 32.12 LIG 0.01  C 
ATOM     50  CG1 VAL C1007       4.645 -38.748   9.573  1.00 30.72 LIG 0.01  C 
ATOM     51  CG2 VAL C1007       5.891 -37.372  11.265  1.00 30.85 LIG 0.01  C 
ENDBRANCH 48 49
BRANCH 48 52
ATOM     52  C   VAL C1007       3.826 -35.110  10.638  1.00 33.20 LIG 0.24  C 
ATOM     53 O    VAL C1007       4.960 -34.703  10.410  1.00 34.91 LIG-0.27  OA
ATOM     54  N   THR C1008       2.858 -34.254  10.975  1.00 34.53 LIG-0.34  N 
ATOM     55 H    THR C1008       3.002 -33.406  10.972  1.00 34.53 LIG 0.16  HD
BRANCH 54 56
ATOM     56  CA  THR C1008       1.488 -34.560  11.376  1.00 33.96 LIG 0.19  C 
BRANCH 56 57
ATOM     57  C   THR C1008       0.544 -34.062  10.283  1.00 33.93 LIG 0.22  C 
ATOM     58 O    THR C1008       0.959 -33.777   9.156  1.00 34.05 LIG-0.29  OA
ENDBRANCH 56 57
BRANCH 56 59
ATOM     59  CB  THR C1008       1.102 -33.846  12.726  1.00 34.51 LIG 0.14  C 
ATOM     60  CG2 THR C1008       1.358 -34.731  13.946  1.00 33.41 LIG 0.04  C 
BRANCH 59 61
ATOM     61 OG1  THR C1008       1.877 -32.661  12.880  1.00 32.91 LIG-0.39  OA
ATOM     62 HG1  THR C1008       2.684 -32.831  12.719  1.00 32.91 LIG 0.21  HD
ENDBRANCH 59 61
ENDBRANCH 56 59
ENDBRANCH 54 56
ENDBRANCH 48 52
ENDBRANCH 45 48
ENDBRANCH 36 44
ENDBRANCH 34 36
ENDBRANCH 1 32
TORSDOF 23
ENDMDL
