MODEL 1
USER: ADFR SOLUTION from run 126
USER: SCORE 18.164524 LL:  -5.621 LR: -15.355 RR:   0.000 FEB:  -8.195
USER: RMSD 3.538021
USER: SEED 125
USER: STATUS no improvement in best in 7 clusters for 5 generations
USER: GENES 26
USER: genes 0 Translation |==|  0.41133 0.62465 0.54908
USER: genes 1 Rotation |==|  0.53312 0.43296 0.47936 0.99395
USER: genes 2 Torsion [N]-C--CA-[N] |==|  0.10192
USER: genes 3 Torsion [C]-CA--N-[C] |==|  0.63504
USER: genes 4 Torsion [N]-C--CA-[N] |==|  0.88390
USER: genes 5 Torsion [C]-CA--N-[C] |==|  0.62222
USER: genes 6 Torsion [N]-C--CA-[N] |==|  0.41991
USER: genes 7 Torsion [C]-CA--N-[H2] |==|  0.40352
USER: genes 8 Torsion [C]-CA--CB-[CG] |==|  0.35485
USER: genes 9 Torsion [CA]-CB--CG-[ND1] |==|  0.84152
USER: genes 10 Torsion [C]-CA--CB-[CG] |==|  0.24618
USER: genes 11 Torsion [CA]-CB--CG-[CD2] |==|  0.77934
USER: genes 12 Torsion [C]-CA--CB-[CG] |==|  0.52461
USER: genes 13 Torsion [CA]-CB--CG-[CD2] |==|  0.80414
USER: genes 14 Torsion [C]-N--CA-[C] |==|  0.74308
USER: genes 15 Torsion [N]-CA--C-[N] |==|  0.27461
USER: genes 16 Torsion [C]-N--CA-[CB] |==|  0.38874
USER: genes 17 Torsion [N]-CA--CB-[CG] |==|  0.02197
USER: genes 18 Torsion [CA]-CB--CG-[ND1] |==|  0.80706
USER: genes 19 Torsion [N]-CA--C-[N] |==|  0.04525
USER: genes 20 Torsion [C]-N--CA-[C] |==|  0.18234
USER: genes 21 Torsion [N]-CA--C-[O] |==|  0.03329
USER: genes 22 Torsion [N]-CA--CB-[CG] |==|  0.61099
USER: genes 23 Torsion [CA]-CB--CG-[ND1] |==|  0.50435
USER: genes 24 Torsion [N]-CA--CB-[CG] |==|  0.63486
USER: genes 25 Torsion [CA]-CB--CG-[CD2] |==|  0.83900
ROOT
ATOM      1  C   HIS X   1       0.834   3.009  20.453  1.00 40.87 LIG 0.24  C 
ATOM      2 O    HIS X   1      -0.382   3.089  20.259  1.00 40.80 LIG-0.27  OA
ATOM      3  N   HIS X   2       1.648   2.210  19.793  1.00 30.16 LIG-0.35  N 
ATOM      4 H    HIS X   2       2.491   2.155  19.955  1.00 30.16 LIG 0.16  HD
ENDROOT
BRANCH 1 5
ATOM      5  CA  HIS X   1       1.548   3.850  21.491  1.00 48.06 LIG 0.18  C 
BRANCH 5 6
ATOM      6  N   HIS X   1       2.865   4.242  20.983  1.00 54.11 LIG-0.35  N 
ATOM      7 H    HIS X   1       2.849   4.567  20.186  1.00 54.11 LIG 0.16  HD
ATOM      8  C   HIS X   0       3.967   4.106  21.690  1.00 58.54 LIG 0.24  C 
ATOM      9 O    HIS X   0       4.043   3.439  22.723  1.00 63.37 LIG-0.27  OA
BRANCH 8 10
ATOM     10  CA  HIS X   0       5.163   4.850  21.118  1.00 62.53 LIG 0.18  C 
BRANCH 10 11
ATOM     11  N   HIS X   0       5.251   4.729  19.658  1.00 60.73 LIG-0.35  N 
ATOM     12  C   HIS X  -1       6.407   4.484  19.062  1.00 60.09 LIG 0.25  C 
ATOM     13 O    HIS X  -1       7.350   3.915  19.615  1.00 62.79 LIG-0.27  OA
ATOM     14 H    HIS X   0       4.504   4.829  19.244  1.00 60.73 LIG 0.16  HD
BRANCH 12 15
ATOM     15  CA  HIS X  -1       6.483   4.928  17.606  1.00 59.53 LIG 0.28  C 
BRANCH 15 16
ATOM     16  N   HIS X  -1       7.902   5.267  17.249  1.00 57.14 LIG-0.07  N 
ATOM     17 H3   HIS X  -1       8.032   6.142  17.348  1.00 57.14 LIG 0.28  HD
ATOM     18 H2   HIS X  -1       8.059   5.038  16.403  1.00 57.14 LIG 0.28  HD
ATOM     19 H1   HIS X  -1       8.458   4.823  17.785  1.00 57.14 LIG 0.28  HD
ENDBRANCH 15 16
BRANCH 15 20
ATOM     20  CB  HIS X  -1       5.936   3.849  16.670  1.00 57.27 LIG 0.10  C 
BRANCH 20 21
ATOM     21  CG  HIS X  -1       4.894   4.345  15.721  1.00 54.13 LIG 0.06  A 
ATOM     22 ND1  HIS X  -1       3.734   4.959  16.145  1.00 52.72 LIG-0.24  NA
ATOM     23  CE1 HIS X  -1       2.997   5.272  15.093  1.00 54.35 LIG 0.23  A 
ATOM     24 NE2  HIS X  -1       3.635   4.883  14.002  1.00 53.65 LIG-0.25  NA
ATOM     25  CD2 HIS X  -1       4.827   4.301  14.369  1.00 55.23 LIG 0.14  A 
ENDBRANCH 20 21
ENDBRANCH 15 20
ENDBRANCH 12 15
ENDBRANCH 10 11
BRANCH 10 26
ATOM     26  CB  HIS X   0       5.129   6.327  21.567  1.00 64.99 LIG 0.10  C 
BRANCH 26 27
ATOM     27  CG  HIS X   0       5.819   6.588  22.875  1.00 69.41 LIG 0.06  A 
ATOM     28 ND1  HIS X   0       7.085   7.135  22.955  1.00 72.01 LIG-0.24  NA
ATOM     29  CE1 HIS X   0       7.432   7.257  24.225  1.00 72.69 LIG 0.23  A 
ATOM     30 NE2  HIS X   0       6.436   6.815  24.973  1.00 72.94 LIG-0.25  NA
ATOM     31  CD2 HIS X   0       5.414   6.395  24.153  1.00 71.12 LIG 0.14  A 
ENDBRANCH 26 27
ENDBRANCH 10 26
ENDBRANCH 8 10
ENDBRANCH 5 6
BRANCH 5 32
ATOM     32  CB  HIS X   1       0.719   5.088  21.827  1.00 48.25 LIG 0.10  C 
BRANCH 32 33
ATOM     33  CG  HIS X   1       1.441   6.080  22.685  1.00 50.36 LIG 0.06  A 
ATOM     34  CD2 HIS X   1       1.807   6.027  23.989  1.00 51.47 LIG 0.14  A 
ATOM     35 NE2  HIS X   1       2.455   7.204  24.276  1.00 50.72 LIG-0.25  NA
ATOM     36  CE1 HIS X   1       2.486   7.952  23.186  1.00 48.50 LIG 0.23  A 
ATOM     37 ND1  HIS X   1       1.879   7.300  22.212  1.00 47.89 LIG-0.24  NA
ENDBRANCH 32 33
ENDBRANCH 5 32
ENDBRANCH 1 5
BRANCH 3 38
ATOM     38  CA  HIS X   2       1.190   1.321  18.701  1.00 26.25 LIG 0.18  C 
BRANCH 38 39
ATOM     39  C   HIS X   2       0.819  -0.075  19.190  1.00 23.72 LIG 0.24  C 
ATOM     40  N   HIS X   3      -0.480  -0.257  19.366  1.00 22.33 LIG-0.35  N 
ATOM     41 H    HIS X   3      -1.070   0.355  19.236  1.00 22.33 LIG 0.16  HD
ATOM     42 O    HIS X   2       1.669  -0.949  19.414  1.00 19.88 LIG-0.27  OA
BRANCH 40 43
ATOM     43  CA  HIS X   3      -1.035  -1.547  19.808  1.00 22.38 LIG 0.18  C 
BRANCH 43 44
ATOM     44  CB  HIS X   3      -2.198  -1.399  20.839  1.00 22.51 LIG 0.10  C 
BRANCH 44 45
ATOM     45  CG  HIS X   3      -2.682   0.005  21.070  1.00 18.10 LIG 0.06  A 
ATOM     46  CD2 HIS X   3      -3.870   0.601  20.805  1.00 18.75 LIG 0.14  A 
ATOM     47 NE2  HIS X   3      -3.788   1.895  21.267  1.00 20.06 LIG-0.25  NA
ATOM     48  CE1 HIS X   3      -2.599   2.080  21.809  1.00 21.69 LIG 0.23  A 
ATOM     49 ND1  HIS X   3      -1.920   0.948  21.715  1.00 17.48 LIG-0.24  NA
ENDBRANCH 44 45
ENDBRANCH 43 44
BRANCH 43 50
ATOM     50  C   HIS X   3      -1.416  -2.423  18.615  1.00 21.59 LIG 0.24  C 
ATOM     51 O    HIS X   3      -2.109  -3.426  18.739  1.00 25.47 LIG-0.27  OA
ATOM     52  N   HIS X   4      -0.896  -2.055  17.463  1.00 25.63 LIG-0.35  N 
ATOM     53 H    HIS X   4      -0.383  -1.372  17.359  1.00 25.63 LIG 0.16  HD
BRANCH 52 54
ATOM     54  CA  HIS X   4      -1.166  -2.811  16.237  1.00 23.96 LIG 0.17  C 
BRANCH 54 55
ATOM     55  C   HIS X   4      -2.657  -2.680  15.909  1.00 31.35 LIG 0.22  C 
ATOM     56 O    HIS X   4      -3.370  -1.859  16.488  1.00 37.06 LIG-0.29  OA
ENDBRANCH 54 55
BRANCH 54 57
ATOM     57  CB  HIS X   4      -0.751  -4.281  16.369  1.00 23.83 LIG 0.09  C 
BRANCH 57 58
ATOM     58  CG  HIS X   4      -0.104  -4.848  15.133  1.00 22.57 LIG 0.06  A 
ATOM     59 ND1  HIS X   4       0.314  -6.162  15.035  1.00 22.63 LIG-0.24  NA
ATOM     60  CE1 HIS X   4       0.836  -6.367  13.837  1.00 19.94 LIG 0.23  A 
ATOM     61 NE2  HIS X   4       0.789  -5.234  13.162  1.00 20.25 LIG-0.25  NA
ATOM     62  CD2 HIS X   4       0.193  -4.273  13.945  1.00 21.52 LIG 0.14  A 
ENDBRANCH 57 58
ENDBRANCH 54 57
ENDBRANCH 52 54
ENDBRANCH 43 50
ENDBRANCH 40 43
ENDBRANCH 38 39
BRANCH 38 63
ATOM     63  CB  HIS X   2       2.256   1.209  17.604  1.00 28.74 LIG 0.10  C 
BRANCH 63 64
ATOM     64  CG  HIS X   2       1.724   1.414  16.225  1.00 28.63 LIG 0.06  A 
ATOM     65 ND1  HIS X   2       2.217   2.382  15.384  1.00 31.27 LIG-0.24  NA
ATOM     66  CE1 HIS X   2       1.579   2.328  14.229  1.00 28.11 LIG 0.23  A 
ATOM     67 NE2  HIS X   2       0.680   1.365  14.294  1.00 29.87 LIG-0.25  NA
ATOM     68  CD2 HIS X   2       0.755   0.770  15.532  1.00 31.84 LIG 0.14  A 
ENDBRANCH 63 64
ENDBRANCH 38 63
ENDBRANCH 3 38
TORSDOF 24
ENDMDL
MODEL 2
USER: ADFR SOLUTION from run 200
USER: SCORE 18.459234 LL:  -5.887 LR: -14.915 RR:   0.000 FEB:  -7.756
USER: RMSD 2.995006
USER: SEED 199
USER: STATUS no improvement in best in 4 clusters for 5 generations
USER: GENES 26
USER: genes 0 Translation |==|  0.41050 0.61651 0.55976
USER: genes 1 Rotation |==|  0.56164 0.47648 0.53526 0.99437
USER: genes 2 Torsion [N]-C--CA-[N] |==|  0.05761
USER: genes 3 Torsion [C]-CA--N-[C] |==|  0.66111
USER: genes 4 Torsion [N]-C--CA-[N] |==|  0.85935
USER: genes 5 Torsion [C]-CA--N-[C] |==|  0.58743
USER: genes 6 Torsion [N]-C--CA-[N] |==|  0.44871
USER: genes 7 Torsion [C]-CA--N-[H2] |==|  0.71354
USER: genes 8 Torsion [C]-CA--CB-[CG] |==|  0.37203
USER: genes 9 Torsion [CA]-CB--CG-[ND1] |==|  0.85679
USER: genes 10 Torsion [C]-CA--CB-[CG] |==|  0.27114
USER: genes 11 Torsion [CA]-CB--CG-[CD2] |==|  0.70523
USER: genes 12 Torsion [C]-CA--CB-[CG] |==|  0.52996
USER: genes 13 Torsion [CA]-CB--CG-[CD2] |==|  0.77351
USER: genes 14 Torsion [C]-N--CA-[C] |==|  0.77695
USER: genes 15 Torsion [N]-CA--C-[N] |==|  0.32238
USER: genes 16 Torsion [C]-N--CA-[CB] |==|  0.49808
USER: genes 17 Torsion [N]-CA--CB-[CG] |==|  0.25748
USER: genes 18 Torsion [CA]-CB--CG-[ND1] |==|  0.76846
USER: genes 19 Torsion [N]-CA--C-[N] |==|  0.89154
USER: genes 20 Torsion [C]-N--CA-[C] |==|  0.73387
USER: genes 21 Torsion [N]-CA--C-[O] |==|  0.67666
USER: genes 22 Torsion [N]-CA--CB-[CG] |==|  0.55688
USER: genes 23 Torsion [CA]-CB--CG-[ND1] |==|  0.34540
USER: genes 24 Torsion [N]-CA--CB-[CG] |==|  0.62293
USER: genes 25 Torsion [CA]-CB--CG-[CD2] |==|  0.85871
ROOT
ATOM      1  C   HIS X   1       0.818   2.814  20.646  1.00 40.87 LIG 0.24  C 
ATOM      2 O    HIS X   1      -0.398   2.598  20.633  1.00 40.80 LIG-0.27  OA
ATOM      3  N   HIS X   2       1.681   2.293  19.796  1.00 30.16 LIG-0.35  N 
ATOM      4 H    HIS X   2       2.527   2.441  19.831  1.00 30.16 LIG 0.16  HD
ENDROOT
BRANCH 1 5
ATOM      5  CA  HIS X   1       1.469   3.733  21.658  1.00 48.06 LIG 0.18  C 
BRANCH 5 6
ATOM      6  N   HIS X   1       2.765   4.186  21.146  1.00 54.11 LIG-0.35  N 
ATOM      7 H    HIS X   1       2.718   4.596  20.391  1.00 54.11 LIG 0.16  HD
ATOM      8  C   HIS X   0       3.894   3.978  21.790  1.00 58.54 LIG 0.24  C 
ATOM      9 O    HIS X   0       4.010   3.202  22.741  1.00 63.37 LIG-0.27  OA
BRANCH 8 10
ATOM     10  CA  HIS X   0       5.066   4.787  21.259  1.00 62.53 LIG 0.18  C 
BRANCH 10 11
ATOM     11  N   HIS X   0       5.220   4.659  19.805  1.00 60.73 LIG-0.35  N 
ATOM     12  C   HIS X  -1       6.413   4.725  19.237  1.00 60.09 LIG 0.25  C 
ATOM     13 O    HIS X  -1       7.462   4.448  19.823  1.00 62.79 LIG-0.27  OA
ATOM     14 H    HIS X   0       4.485   4.541  19.376  1.00 60.73 LIG 0.16  HD
BRANCH 12 15
ATOM     15  CA  HIS X  -1       6.402   5.136  17.770  1.00 59.53 LIG 0.28  C 
BRANCH 15 16
ATOM     16  N   HIS X  -1       7.768   5.610  17.362  1.00 57.14 LIG-0.07  N 
ATOM     17 H3   HIS X  -1       8.368   5.338  17.961  1.00 57.14 LIG 0.28  HD
ATOM     18 H2   HIS X  -1       7.774   6.499  17.320  1.00 57.14 LIG 0.28  HD
ATOM     19 H1   HIS X  -1       7.973   5.273  16.563  1.00 57.14 LIG 0.28  HD
ENDBRANCH 15 16
BRANCH 15 20
ATOM     20  CB  HIS X  -1       5.943   3.984  16.875  1.00 57.27 LIG 0.10  C 
BRANCH 20 21
ATOM     21  CG  HIS X  -1       4.932   4.382  15.849  1.00 54.13 LIG 0.06  A 
ATOM     22 ND1  HIS X  -1       3.781   5.071  16.167  1.00 52.72 LIG-0.24  NA
ATOM     23  CE1 HIS X  -1       3.072   5.268  15.068  1.00 54.35 LIG 0.23  A 
ATOM     24 NE2  HIS X  -1       3.720   4.730  14.049  1.00 53.65 LIG-0.25  NA
ATOM     25  CD2 HIS X  -1       4.889   4.170  14.512  1.00 55.23 LIG 0.14  A 
ENDBRANCH 20 21
ENDBRANCH 15 20
ENDBRANCH 12 15
ENDBRANCH 10 11
BRANCH 10 26
ATOM     26  CB  HIS X   0       4.927   6.263  21.690  1.00 64.99 LIG 0.10  C 
BRANCH 26 27
ATOM     27  CG  HIS X   0       5.724   6.626  22.910  1.00 69.41 LIG 0.06  A 
ATOM     28 ND1  HIS X   0       7.094   6.794  22.884  1.00 72.01 LIG-0.24  NA
ATOM     29  CE1 HIS X   0       7.521   7.115  24.093  1.00 72.69 LIG 0.23  A 
ATOM     30 NE2  HIS X   0       6.478   7.167  24.902  1.00 72.94 LIG-0.25  NA
ATOM     31  CD2 HIS X   0       5.341   6.869  24.187  1.00 71.12 LIG 0.14  A 
ENDBRANCH 26 27
ENDBRANCH 10 26
ENDBRANCH 8 10
ENDBRANCH 5 6
BRANCH 5 32
ATOM     32  CB  HIS X   1       0.564   4.929  21.942  1.00 48.25 LIG 0.10  C 
BRANCH 32 33
ATOM     33  CG  HIS X   1       1.231   6.013  22.731  1.00 50.36 LIG 0.06  A 
ATOM     34  CD2 HIS X   1       1.446   6.139  24.064  1.00 51.47 LIG 0.14  A 
ATOM     35 NE2  HIS X   1       2.112   7.325  24.256  1.00 50.72 LIG-0.25  NA
ATOM     36  CE1 HIS X   1       2.300   7.906  23.083  1.00 48.50 LIG 0.23  A 
ATOM     37 ND1  HIS X   1       1.776   7.137  22.146  1.00 47.89 LIG-0.24  NA
ENDBRANCH 32 33
ENDBRANCH 5 32
ENDBRANCH 1 5
BRANCH 3 38
ATOM     38  CA  HIS X   2       1.277   1.396  18.689  1.00 26.25 LIG 0.18  C 
BRANCH 38 39
ATOM     39  C   HIS X   2       1.045  -0.041  19.146  1.00 23.72 LIG 0.24  C 
ATOM     40  N   HIS X   3      -0.202  -0.457  19.005  1.00 22.33 LIG-0.35  N 
ATOM     41 H    HIS X   3      -0.839   0.034  18.700  1.00 22.33 LIG 0.16  HD
ATOM     42 O    HIS X   2       1.951  -0.741  19.621  1.00 19.88 LIG-0.27  OA
BRANCH 40 43
ATOM     43  CA  HIS X   3      -0.615  -1.824  19.364  1.00 22.38 LIG 0.18  C 
BRANCH 43 44
ATOM     44  CB  HIS X   3      -2.135  -2.092  19.131  1.00 22.51 LIG 0.10  C 
BRANCH 44 45
ATOM     45  CG  HIS X   3      -2.490  -2.675  17.792  1.00 18.10 LIG 0.06  A 
ATOM     46  CD2 HIS X   3      -2.778  -3.945  17.412  1.00 18.75 LIG 0.14  A 
ATOM     47 NE2  HIS X   3      -3.079  -3.909  16.070  1.00 20.06 LIG-0.25  NA
ATOM     48  CE1 HIS X   3      -2.995  -2.662  15.647  1.00 21.69 LIG 0.23  A 
ATOM     49 ND1  HIS X   3      -2.656  -1.897  16.672  1.00 17.48 LIG-0.24  NA
ENDBRANCH 44 45
ENDBRANCH 43 44
BRANCH 43 50
ATOM     50  C   HIS X   3       0.275  -2.866  18.689  1.00 21.59 LIG 0.24  C 
ATOM     51 O    HIS X   3       0.677  -3.861  19.282  1.00 25.47 LIG-0.27  OA
ATOM     52  N   HIS X   4       0.624  -2.585  17.451  1.00 25.63 LIG-0.35  N 
ATOM     53 H    HIS X   4       0.378  -1.879  17.027  1.00 25.63 LIG 0.16  HD
BRANCH 52 54
ATOM     54  CA  HIS X   4       1.487  -3.491  16.686  1.00 23.96 LIG 0.17  C 
BRANCH 54 55
ATOM     55  C   HIS X   4       2.932  -2.997  16.807  1.00 31.35 LIG 0.22  C 
ATOM     56 O    HIS X   4       3.561  -2.610  15.820  1.00 37.06 LIG-0.29  OA
ENDBRANCH 54 55
BRANCH 54 57
ATOM     57  CB  HIS X   4       1.053  -3.589  15.218  1.00 23.83 LIG 0.09  C 
BRANCH 57 58
ATOM     58  CG  HIS X   4       1.554  -4.821  14.513  1.00 22.57 LIG 0.06  A 
ATOM     59 ND1  HIS X   4       0.717  -5.719  13.875  1.00 22.63 LIG-0.24  NA
ATOM     60  CE1 HIS X   4       1.441  -6.691  13.346  1.00 19.94 LIG 0.23  A 
ATOM     61 NE2  HIS X   4       2.710  -6.468  13.630  1.00 20.25 LIG-0.25  NA
ATOM     62  CD2 HIS X   4       2.808  -5.298  14.346  1.00 21.52 LIG 0.14  A 
ENDBRANCH 57 58
ENDBRANCH 54 57
ENDBRANCH 52 54
ENDBRANCH 43 50
ENDBRANCH 40 43
ENDBRANCH 38 39
BRANCH 38 63
ATOM     63  CB  HIS X   2       2.319   1.412  17.565  1.00 28.74 LIG 0.10  C 
BRANCH 63 64
ATOM     64  CG  HIS X   2       1.728   1.503  16.198  1.00 28.63 LIG 0.06  A 
ATOM     65 ND1  HIS X   2       2.158   2.423  15.271  1.00 31.27 LIG-0.24  NA
ATOM     66  CE1 HIS X   2       1.477   2.268  14.151  1.00 28.11 LIG 0.23  A 
ATOM     67 NE2  HIS X   2       0.613   1.286  14.318  1.00 29.87 LIG-0.25  NA
ATOM     68  CD2 HIS X   2       0.755   0.782  15.591  1.00 31.84 LIG 0.14  A 
ENDBRANCH 63 64
ENDBRANCH 38 63
ENDBRANCH 3 38
TORSDOF 24
ENDMDL
MODEL 3
USER: ADFR SOLUTION from run 93
USER: SCORE 18.308333 LL:  -5.721 LR: -14.666 RR:   0.000 FEB:  -7.506
USER: RMSD 3.191802
USER: SEED 92
USER: STATUS searching
USER: GENES 26
USER: genes 0 Translation |==|  0.41132 0.62807 0.55578
USER: genes 1 Rotation |==|  0.52617 0.51143 0.49230 0.99912
USER: genes 2 Torsion [N]-C--CA-[N] |==|  0.04406
USER: genes 3 Torsion [C]-CA--N-[C] |==|  0.68373
USER: genes 4 Torsion [N]-C--CA-[N] |==|  0.92183
USER: genes 5 Torsion [C]-CA--N-[C] |==|  0.65601
USER: genes 6 Torsion [N]-C--CA-[N] |==|  0.31260
USER: genes 7 Torsion [C]-CA--N-[H2] |==|  0.75050
USER: genes 8 Torsion [C]-CA--CB-[CG] |==|  0.27762
USER: genes 9 Torsion [CA]-CB--CG-[ND1] |==|  0.09035
USER: genes 10 Torsion [C]-CA--CB-[CG] |==|  0.54224
USER: genes 11 Torsion [CA]-CB--CG-[CD2] |==|  0.70436
USER: genes 12 Torsion [C]-CA--CB-[CG] |==|  0.48743
USER: genes 13 Torsion [CA]-CB--CG-[CD2] |==|  0.01659
USER: genes 14 Torsion [C]-N--CA-[C] |==|  0.76527
USER: genes 15 Torsion [N]-CA--C-[N] |==|  0.32988
USER: genes 16 Torsion [C]-N--CA-[CB] |==|  0.39853
USER: genes 17 Torsion [N]-CA--CB-[CG] |==|  0.99012
USER: genes 18 Torsion [CA]-CB--CG-[ND1] |==|  0.81359
USER: genes 19 Torsion [N]-CA--C-[N] |==|  0.82333
USER: genes 20 Torsion [C]-N--CA-[C] |==|  0.56804
USER: genes 21 Torsion [N]-CA--C-[O] |==|  0.97593
USER: genes 22 Torsion [N]-CA--CB-[CG] |==|  0.50130
USER: genes 23 Torsion [CA]-CB--CG-[ND1] |==|  0.54833
USER: genes 24 Torsion [N]-CA--CB-[CG] |==|  0.41461
USER: genes 25 Torsion [CA]-CB--CG-[CD2] |==|  0.71429
ROOT
ATOM      1  C   HIS X   1       0.834   3.092  20.574  1.00 40.87 LIG 0.24  C 
ATOM      2 O    HIS X   1      -0.386   3.086  20.762  1.00 40.80 LIG-0.27  OA
ATOM      3  N   HIS X   2       1.462   2.325  19.705  1.00 30.16 LIG-0.35  N 
ATOM      4 H    HIS X   2       2.316   2.330  19.600  1.00 30.16 LIG 0.16  HD
ENDROOT
BRANCH 1 5
ATOM      5  CA  HIS X   1       1.768   4.010  21.332  1.00 48.06 LIG 0.18  C 
BRANCH 5 6
ATOM      6  N   HIS X   1       3.060   4.074  20.643  1.00 54.11 LIG-0.35  N 
ATOM      7 H    HIS X   1       3.025   4.447  19.869  1.00 54.11 LIG 0.16  HD
ATOM      8  C   HIS X   0       4.169   3.598  21.169  1.00 58.54 LIG 0.24  C 
ATOM      9 O    HIS X   0       4.200   2.863  22.158  1.00 63.37 LIG-0.27  OA
BRANCH 8 10
ATOM     10  CA  HIS X   0       5.433   4.036  20.447  1.00 62.53 LIG 0.18  C 
BRANCH 10 11
ATOM     11  N   HIS X   0       5.197   4.309  19.025  1.00 60.73 LIG-0.35  N 
ATOM     12  C   HIS X  -1       5.891   3.686  18.086  1.00 60.09 LIG 0.25  C 
ATOM     13 O    HIS X  -1       6.414   2.582  18.247  1.00 62.79 LIG-0.27  OA
ATOM     14 H    HIS X   0       4.586   4.893  18.868  1.00 60.73 LIG 0.16  HD
BRANCH 12 15
ATOM     15  CA  HIS X  -1       5.968   4.420  16.753  1.00 59.53 LIG 0.28  C 
BRANCH 15 16
ATOM     16  N   HIS X  -1       7.379   4.872  16.500  1.00 57.14 LIG-0.07  N 
ATOM     17 H3   HIS X  -1       7.946   4.304  16.885  1.00 57.14 LIG 0.28  HD
ATOM     18 H2   HIS X  -1       7.496   5.685  16.842  1.00 57.14 LIG 0.28  HD
ATOM     19 H1   HIS X  -1       7.531   4.894  15.623  1.00 57.14 LIG 0.28  HD
ENDBRANCH 15 16
BRANCH 15 20
ATOM     20  CB  HIS X  -1       5.472   3.540  15.606  1.00 57.27 LIG 0.10  C 
BRANCH 20 21
ATOM     21  CG  HIS X  -1       4.068   3.832  15.184  1.00 54.13 LIG 0.06  A 
ATOM     22 ND1  HIS X  -1       3.523   5.097  15.241  1.00 52.72 LIG-0.24  NA
ATOM     23  CE1 HIS X  -1       2.268   5.051  14.826  1.00 54.35 LIG 0.23  A 
ATOM     24 NE2  HIS X  -1       1.980   3.802  14.502  1.00 53.65 LIG-0.25  NA
ATOM     25  CD2 HIS X  -1       3.091   3.019  14.715  1.00 55.23 LIG 0.14  A 
ENDBRANCH 20 21
ENDBRANCH 15 20
ENDBRANCH 12 15
ENDBRANCH 10 11
BRANCH 10 26
ATOM     26  CB  HIS X   0       6.057   5.251  21.166  1.00 64.99 LIG 0.10  C 
BRANCH 26 27
ATOM     27  CG  HIS X   0       7.087   5.983  20.355  1.00 69.41 LIG 0.06  A 
ATOM     28 ND1  HIS X   0       6.756   6.808  19.298  1.00 72.01 LIG-0.24  NA
ATOM     29  CE1 HIS X   0       7.858   7.322  18.779  1.00 72.69 LIG 0.23  A 
ATOM     30 NE2  HIS X   0       8.892   6.864  19.462  1.00 72.94 LIG-0.25  NA
ATOM     31  CD2 HIS X   0       8.437   6.028  20.456  1.00 71.12 LIG 0.14  A 
ENDBRANCH 26 27
ENDBRANCH 10 26
ENDBRANCH 8 10
ENDBRANCH 5 6
BRANCH 5 32
ATOM     32  CB  HIS X   1       1.159   5.406  21.444  1.00 48.25 LIG 0.10  C 
BRANCH 32 33
ATOM     33  CG  HIS X   1       1.971   6.352  22.274  1.00 50.36 LIG 0.06  A 
ATOM     34  CD2 HIS X   1       3.192   6.210  22.846  1.00 51.47 LIG 0.14  A 
ATOM     35 NE2  HIS X   1       3.476   7.390  23.491  1.00 50.72 LIG-0.25  NA
ATOM     36  CE1 HIS X   1       2.466   8.226  23.320  1.00 48.50 LIG 0.23  A 
ATOM     37 ND1  HIS X   1       1.543   7.625  22.591  1.00 47.89 LIG-0.24  NA
ENDBRANCH 32 33
ENDBRANCH 5 32
ENDBRANCH 1 5
BRANCH 3 38
ATOM     38  CA  HIS X   2       0.757   1.372  18.817  1.00 26.25 LIG 0.18  C 
BRANCH 38 39
ATOM     39  C   HIS X   2       0.482   0.030  19.487  1.00 23.72 LIG 0.24  C 
ATOM     40  N   HIS X   3      -0.802  -0.270  19.587  1.00 22.33 LIG-0.35  N 
ATOM     41 H    HIS X   3      -1.436   0.245  19.317  1.00 22.33 LIG 0.16  HD
ATOM     42 O    HIS X   2       1.390  -0.700  19.912  1.00 19.88 LIG-0.27  OA
BRANCH 40 43
ATOM     43  CA  HIS X   3      -1.265  -1.535  20.179  1.00 22.38 LIG 0.18  C 
BRANCH 43 44
ATOM     44  CB  HIS X   3      -2.579  -1.386  21.009  1.00 22.51 LIG 0.10  C 
BRANCH 44 45
ATOM     45  CG  HIS X   3      -3.105   0.016  21.138  1.00 18.10 LIG 0.06  A 
ATOM     46  CD2 HIS X   3      -4.260   0.586  20.713  1.00 18.75 LIG 0.14  A 
ATOM     47 NE2  HIS X   3      -4.251   1.893  21.144  1.00 20.06 LIG-0.25  NA
ATOM     48  CE1 HIS X   3      -3.139   2.111  21.821  1.00 21.69 LIG 0.23  A 
ATOM     49 ND1  HIS X   3      -2.440   0.989  21.844  1.00 17.48 LIG-0.24  NA
ENDBRANCH 44 45
ENDBRANCH 43 44
BRANCH 43 50
ATOM     50  C   HIS X   3      -1.358  -2.638  19.126  1.00 21.59 LIG 0.24  C 
ATOM     51 O    HIS X   3      -0.625  -3.620  19.145  1.00 25.47 LIG-0.27  OA
ATOM     52  N   HIS X   4      -2.238  -2.425  18.170  1.00 25.63 LIG-0.35  N 
ATOM     53 H    HIS X   4      -2.741  -1.729  18.121  1.00 25.63 LIG 0.16  HD
BRANCH 52 54
ATOM     54  CA  HIS X   4      -2.425  -3.393  17.086  1.00 23.96 LIG 0.17  C 
BRANCH 54 55
ATOM     55  C   HIS X   4      -2.994  -2.654  15.871  1.00 31.35 LIG 0.22  C 
ATOM     56 O    HIS X   4      -3.368  -1.482  15.953  1.00 37.06 LIG-0.29  OA
ENDBRANCH 54 55
BRANCH 54 57
ATOM     57  CB  HIS X   4      -3.334  -4.554  17.508  1.00 23.83 LIG 0.09  C 
BRANCH 57 58
ATOM     58  CG  HIS X   4      -3.550  -5.585  16.431  1.00 22.57 LIG 0.06  A 
ATOM     59 ND1  HIS X   4      -4.581  -6.505  16.463  1.00 22.63 LIG-0.24  NA
ATOM     60  CE1 HIS X   4      -4.517  -7.271  15.386  1.00 19.94 LIG 0.23  A 
ATOM     61 NE2  HIS X   4      -3.476  -6.895  14.668  1.00 20.25 LIG-0.25  NA
ATOM     62  CD2 HIS X   4      -2.864  -5.834  15.292  1.00 21.52 LIG 0.14  A 
ENDBRANCH 57 58
ENDBRANCH 54 57
ENDBRANCH 52 54
ENDBRANCH 43 50
ENDBRANCH 40 43
ENDBRANCH 38 39
BRANCH 38 63
ATOM     63  CB  HIS X   2       1.549   1.143  17.524  1.00 28.74 LIG 0.10  C 
BRANCH 63 64
ATOM     64  CG  HIS X   2       1.367  -0.219  16.942  1.00 28.63 LIG 0.06  A 
ATOM     65 ND1  HIS X   2       0.246  -0.570  16.228  1.00 31.27 LIG-0.24  NA
ATOM     66  CE1 HIS X   2       0.359  -1.821  15.820  1.00 28.11 LIG 0.23  A 
ATOM     67 NE2  HIS X   2       1.510  -2.299  16.252  1.00 29.87 LIG-0.25  NA
ATOM     68  CD2 HIS X   2       2.166  -1.313  16.951  1.00 31.84 LIG 0.14  A 
ENDBRANCH 63 64
ENDBRANCH 38 63
ENDBRANCH 3 38
TORSDOF 24
ENDMDL
MODEL 4
USER: ADFR SOLUTION from run 101
USER: SCORE 17.423132 LL:  -5.456 LR: -14.315 RR:   0.000 FEB:  -7.156
USER: RMSD 3.818892
USER: SEED 100
USER: STATUS searching
USER: GENES 26
USER: genes 0 Translation |==|  0.39461 0.61855 0.56820
USER: genes 1 Rotation |==|  0.52277 0.45264 0.49606 0.99721
USER: genes 2 Torsion [N]-C--CA-[N] |==|  0.07703
USER: genes 3 Torsion [C]-CA--N-[C] |==|  0.64586
USER: genes 4 Torsion [N]-C--CA-[N] |==|  0.90936
USER: genes 5 Torsion [C]-CA--N-[C] |==|  0.60000
USER: genes 6 Torsion [N]-C--CA-[N] |==|  0.38787
USER: genes 7 Torsion [C]-CA--N-[H2] |==|  0.70859
USER: genes 8 Torsion [C]-CA--CB-[CG] |==|  0.36509
USER: genes 9 Torsion [CA]-CB--CG-[ND1] |==|  0.89930
USER: genes 10 Torsion [C]-CA--CB-[CG] |==|  0.94038
USER: genes 11 Torsion [CA]-CB--CG-[CD2] |==|  0.78489
USER: genes 12 Torsion [C]-CA--CB-[CG] |==|  0.25129
USER: genes 13 Torsion [CA]-CB--CG-[CD2] |==|  0.73661
USER: genes 14 Torsion [C]-N--CA-[C] |==|  0.76273
USER: genes 15 Torsion [N]-CA--C-[N] |==|  0.30041
USER: genes 16 Torsion [C]-N--CA-[CB] |==|  0.39132
USER: genes 17 Torsion [N]-CA--CB-[CG] |==|  0.00188
USER: genes 18 Torsion [CA]-CB--CG-[ND1] |==|  0.80666
USER: genes 19 Torsion [N]-CA--C-[N] |==|  0.86026
USER: genes 20 Torsion [C]-N--CA-[C] |==|  0.51905
USER: genes 21 Torsion [N]-CA--C-[O] |==|  0.51833
USER: genes 22 Torsion [N]-CA--CB-[CG] |==|  0.53024
USER: genes 23 Torsion [CA]-CB--CG-[ND1] |==|  0.55985
USER: genes 24 Torsion [N]-CA--CB-[CG] |==|  0.63681
USER: genes 25 Torsion [CA]-CB--CG-[CD2] |==|  0.80624
ROOT
ATOM      1  C   HIS X   1       0.496   2.863  20.798  1.00 40.87 LIG 0.24  C 
ATOM      2 O    HIS X   1      -0.734   2.854  20.696  1.00 40.80 LIG-0.27  OA
ATOM      3  N   HIS X   2       1.310   2.085  20.112  1.00 30.16 LIG-0.35  N 
ATOM      4 H    HIS X   2       2.165   2.093  20.210  1.00 30.16 LIG 0.16  HD
ENDROOT
BRANCH 1 5
ATOM      5  CA  HIS X   1       1.226   3.799  21.738  1.00 48.06 LIG 0.18  C 
BRANCH 5 6
ATOM      6  N   HIS X   1       2.563   4.080  21.208  1.00 54.11 LIG-0.35  N 
ATOM      7 H    HIS X   1       2.565   4.356  20.393  1.00 54.11 LIG 0.16  HD
ATOM      8  C   HIS X   0       3.658   3.920  21.923  1.00 58.54 LIG 0.24  C 
ATOM      9 O    HIS X   0       3.695   3.314  22.995  1.00 63.37 LIG-0.27  OA
BRANCH 8 10
ATOM     10  CA  HIS X   0       4.895   4.555  21.309  1.00 62.53 LIG 0.18  C 
BRANCH 10 11
ATOM     11  N   HIS X   0       4.866   4.529  19.842  1.00 60.73 LIG-0.35  N 
ATOM     12  C   HIS X  -1       5.973   4.346  19.141  1.00 60.09 LIG 0.25  C 
ATOM     13 O    HIS X  -1       6.966   3.761  19.578  1.00 62.79 LIG-0.27  OA
ATOM     14 H    HIS X   0       4.087   4.641  19.496  1.00 60.73 LIG 0.16  HD
BRANCH 12 15
ATOM     15  CA  HIS X  -1       5.926   4.883  17.716  1.00 59.53 LIG 0.28  C 
BRANCH 15 16
ATOM     16  N   HIS X  -1       7.237   5.529  17.369  1.00 57.14 LIG-0.07  N 
ATOM     17 H3   HIS X  -1       7.853   5.289  17.965  1.00 57.14 LIG 0.28  HD
ATOM     18 H2   HIS X  -1       7.144   6.415  17.381  1.00 57.14 LIG 0.28  HD
ATOM     19 H1   HIS X  -1       7.491   5.268  16.557  1.00 57.14 LIG 0.28  HD
ENDBRANCH 15 16
BRANCH 15 20
ATOM     20  CB  HIS X  -1       5.592   3.774  16.717  1.00 57.27 LIG 0.10  C 
BRANCH 20 21
ATOM     21  CG  HIS X  -1       4.507   4.135  15.754  1.00 54.13 LIG 0.06  A 
ATOM     22 ND1  HIS X  -1       3.422   4.907  16.111  1.00 52.72 LIG-0.24  NA
ATOM     23  CE1 HIS X  -1       2.623   5.045  15.067  1.00 54.35 LIG 0.23  A 
ATOM     24 NE2  HIS X  -1       3.149   4.390  14.046  1.00 53.65 LIG-0.25  NA
ATOM     25  CD2 HIS X  -1       4.331   3.813  14.450  1.00 55.23 LIG 0.14  A 
ENDBRANCH 20 21
ENDBRANCH 15 20
ENDBRANCH 12 15
ENDBRANCH 10 11
BRANCH 10 26
ATOM     26  CB  HIS X   0       5.076   5.989  21.851  1.00 64.99 LIG 0.10  C 
BRANCH 26 27
ATOM     27  CG  HIS X   0       3.820   6.602  22.401  1.00 69.41 LIG 0.06  A 
ATOM     28 ND1  HIS X   0       3.577   6.718  23.755  1.00 72.01 LIG-0.24  NA
ATOM     29  CE1 HIS X   0       2.404   7.300  23.943  1.00 72.69 LIG 0.23  A 
ATOM     30 NE2  HIS X   0       1.880   7.571  22.761  1.00 72.94 LIG-0.25  NA
ATOM     31  CD2 HIS X   0       2.747   7.149  21.780  1.00 71.12 LIG 0.14  A 
ENDBRANCH 26 27
ENDBRANCH 10 26
ENDBRANCH 8 10
ENDBRANCH 5 6
BRANCH 5 32
ATOM     32  CB  HIS X   1       0.440   5.097  21.906  1.00 48.25 LIG 0.10  C 
BRANCH 32 33
ATOM     33  CG  HIS X   1      -0.534   5.067  23.043  1.00 50.36 LIG 0.06  A 
ATOM     34  CD2 HIS X   1      -1.857   4.774  23.073  1.00 51.47 LIG 0.14  A 
ATOM     35 NE2  HIS X   1      -2.268   4.889  24.379  1.00 50.72 LIG-0.25  NA
ATOM     36  CE1 HIS X   1      -1.233   5.239  25.124  1.00 48.50 LIG 0.23  A 
ATOM     37 ND1  HIS X   1      -0.174   5.355  24.344  1.00 47.89 LIG-0.24  NA
ENDBRANCH 32 33
ENDBRANCH 5 32
ENDBRANCH 1 5
BRANCH 3 38
ATOM     38  CA  HIS X   2       0.833   1.116  19.100  1.00 26.25 LIG 0.18  C 
BRANCH 38 39
ATOM     39  C   HIS X   2       0.431  -0.225  19.708  1.00 23.72 LIG 0.24  C 
ATOM     40  N   HIS X   3      -0.873  -0.443  19.718  1.00 22.33 LIG-0.35  N 
ATOM     41 H    HIS X   3      -1.454   0.121  19.427  1.00 22.33 LIG 0.16  HD
ATOM     42 O    HIS X   2       1.263  -1.024  20.162  1.00 19.88 LIG-0.27  OA
BRANCH 40 43
ATOM     43  CA  HIS X   3      -1.452  -1.692  20.239  1.00 22.38 LIG 0.18  C 
BRANCH 43 44
ATOM     44  CB  HIS X   3      -2.771  -1.473  21.046  1.00 22.51 LIG 0.10  C 
BRANCH 44 45
ATOM     45  CG  HIS X   3      -3.237  -0.048  21.147  1.00 18.10 LIG 0.06  A 
ATOM     46  CD2 HIS X   3      -4.339   0.574  20.658  1.00 18.75 LIG 0.14  A 
ATOM     47 NE2  HIS X   3      -4.293   1.880  21.089  1.00 20.06 LIG-0.25  NA
ATOM     48  CE1 HIS X   3      -3.212   2.048  21.828  1.00 21.69 LIG 0.23  A 
ATOM     49 ND1  HIS X   3      -2.568   0.894  21.889  1.00 17.48 LIG-0.24  NA
ENDBRANCH 44 45
ENDBRANCH 43 44
BRANCH 43 50
ATOM     50  C   HIS X   3      -1.608  -2.733  19.131  1.00 21.59 LIG 0.24  C 
ATOM     51 O    HIS X   3      -1.147  -3.865  19.233  1.00 25.47 LIG-0.27  OA
ATOM     52  N   HIS X   4      -2.216  -2.307  18.044  1.00 25.63 LIG-0.35  N 
ATOM     53 H    HIS X   4      -2.519  -1.508  17.941  1.00 25.63 LIG 0.16  HD
BRANCH 52 54
ATOM     54  CA  HIS X   4      -2.423  -3.195  16.897  1.00 23.96 LIG 0.17  C 
BRANCH 54 55
ATOM     55  C   HIS X   4      -2.993  -2.366  15.742  1.00 31.35 LIG 0.22  C 
ATOM     56 O    HIS X   4      -3.370  -2.900  14.697  1.00 37.06 LIG-0.29  OA
ENDBRANCH 54 55
BRANCH 54 57
ATOM     57  CB  HIS X   4      -3.342  -4.372  17.245  1.00 23.83 LIG 0.09  C 
BRANCH 57 58
ATOM     58  CG  HIS X   4      -3.382  -5.449  16.193  1.00 22.57 LIG 0.06  A 
ATOM     59 ND1  HIS X   4      -4.422  -6.353  16.077  1.00 22.63 LIG-0.24  NA
ATOM     60  CE1 HIS X   4      -4.182  -7.169  15.063  1.00 19.94 LIG 0.23  A 
ATOM     61 NE2  HIS X   4      -3.022  -6.839  14.529  1.00 20.25 LIG-0.25  NA
ATOM     62  CD2 HIS X   4      -2.509  -5.759  15.208  1.00 21.52 LIG 0.14  A 
ENDBRANCH 57 58
ENDBRANCH 54 57
ENDBRANCH 52 54
ENDBRANCH 43 50
ENDBRANCH 40 43
ENDBRANCH 38 39
BRANCH 38 63
ATOM     63  CB  HIS X   2       1.896   0.887  18.019  1.00 28.74 LIG 0.10  C 
BRANCH 63 64
ATOM     64  CG  HIS X   2       1.371   0.999  16.627  1.00 28.63 LIG 0.06  A 
ATOM     65 ND1  HIS X   2       1.724   2.032  15.790  1.00 31.27 LIG-0.24  NA
ATOM     66  CE1 HIS X   2       1.130   1.872  14.622  1.00 28.11 LIG 0.23  A 
ATOM     67 NE2  HIS X   2       0.396   0.778  14.672  1.00 29.87 LIG-0.25  NA
ATOM     68  CD2 HIS X   2       0.535   0.206  15.915  1.00 31.84 LIG 0.14  A 
ENDBRANCH 63 64
ENDBRANCH 38 63
ENDBRANCH 3 38
TORSDOF 24
ENDMDL
MODEL 5
USER: ADFR SOLUTION from run 148
USER: SCORE 17.967334 LL:  -6.028 LR: -14.203 RR:   0.000 FEB:  -7.044
USER: RMSD 3.631341
USER: SEED 147
USER: STATUS no improvement in best in 31 clusters for 5 generations
USER: GENES 26
USER: genes 0 Translation |==|  0.40466 0.61781 0.55300
USER: genes 1 Rotation |==|  0.53650 0.45256 0.50437 0.99638
USER: genes 2 Torsion [N]-C--CA-[N] |==|  0.08599
USER: genes 3 Torsion [C]-CA--N-[C] |==|  0.65973
USER: genes 4 Torsion [N]-C--CA-[N] |==|  0.86326
USER: genes 5 Torsion [C]-CA--N-[C] |==|  0.61835
USER: genes 6 Torsion [N]-C--CA-[N] |==|  0.43385
USER: genes 7 Torsion [C]-CA--N-[H2] |==|  0.75505
USER: genes 8 Torsion [C]-CA--CB-[CG] |==|  0.35889
USER: genes 9 Torsion [CA]-CB--CG-[ND1] |==|  0.84816
USER: genes 10 Torsion [C]-CA--CB-[CG] |==|  0.27515
USER: genes 11 Torsion [CA]-CB--CG-[CD2] |==|  0.70653
USER: genes 12 Torsion [C]-CA--CB-[CG] |==|  0.52119
USER: genes 13 Torsion [CA]-CB--CG-[CD2] |==|  0.78280
USER: genes 14 Torsion [C]-N--CA-[C] |==|  0.76362
USER: genes 15 Torsion [N]-CA--C-[N] |==|  0.16137
USER: genes 16 Torsion [C]-N--CA-[CB] |==|  0.52222
USER: genes 17 Torsion [N]-CA--CB-[CG] |==|  0.03874
USER: genes 18 Torsion [CA]-CB--CG-[ND1] |==|  0.76127
USER: genes 19 Torsion [N]-CA--C-[N] |==|  0.82962
USER: genes 20 Torsion [C]-N--CA-[C] |==|  0.60748
USER: genes 21 Torsion [N]-CA--C-[O] |==|  0.82210
USER: genes 22 Torsion [N]-CA--CB-[CG] |==|  0.99265
USER: genes 23 Torsion [CA]-CB--CG-[ND1] |==|  0.16442
USER: genes 24 Torsion [N]-CA--CB-[CG] |==|  0.65158
USER: genes 25 Torsion [CA]-CB--CG-[CD2] |==|  0.82457
ROOT
ATOM      1  C   HIS X   1       0.699   2.845  20.524  1.00 40.87 LIG 0.24  C 
ATOM      2 O    HIS X   1      -0.530   2.795  20.418  1.00 40.80 LIG-0.27  OA
ATOM      3  N   HIS X   2       1.544   2.136  19.802  1.00 30.16 LIG-0.35  N 
ATOM      4 H    HIS X   2       2.397   2.171  19.903  1.00 30.16 LIG 0.16  HD
ENDROOT
BRANCH 1 5
ATOM      5  CA  HIS X   1       1.392   3.758  21.514  1.00 48.06 LIG 0.18  C 
BRANCH 5 6
ATOM      6  N   HIS X   1       2.686   4.179  20.969  1.00 54.11 LIG-0.35  N 
ATOM      7 H    HIS X   1       2.632   4.578  20.209  1.00 54.11 LIG 0.16  HD
ATOM      8  C   HIS X   0       3.824   3.961  21.596  1.00 58.54 LIG 0.24  C 
ATOM      9 O    HIS X   0       3.944   3.199  22.557  1.00 63.37 LIG-0.27  OA
BRANCH 8 10
ATOM     10  CA  HIS X   0       5.000   4.739  21.029  1.00 62.53 LIG 0.18  C 
BRANCH 10 11
ATOM     11  N   HIS X   0       5.103   4.611  19.571  1.00 60.73 LIG-0.35  N 
ATOM     12  C   HIS X  -1       6.275   4.427  18.984  1.00 60.09 LIG 0.25  C 
ATOM     13 O    HIS X  -1       7.246   3.916  19.547  1.00 62.79 LIG-0.27  OA
ATOM     14 H    HIS X   0       4.355   4.665  19.152  1.00 60.73 LIG 0.16  HD
BRANCH 12 15
ATOM     15  CA  HIS X  -1       6.336   4.861  17.524  1.00 59.53 LIG 0.28  C 
BRANCH 15 16
ATOM     16  N   HIS X  -1       7.757   5.160  17.139  1.00 57.14 LIG-0.07  N 
ATOM     17 H3   HIS X  -1       8.306   4.633  17.601  1.00 57.14 LIG 0.28  HD
ATOM     18 H2   HIS X  -1       7.941   6.012  17.321  1.00 57.14 LIG 0.28  HD
ATOM     19 H1   HIS X  -1       7.866   5.012  16.268  1.00 57.14 LIG 0.28  HD
ENDBRANCH 15 16
BRANCH 15 20
ATOM     20  CB  HIS X  -1       5.742   3.794  16.604  1.00 57.27 LIG 0.10  C 
BRANCH 20 21
ATOM     21  CG  HIS X  -1       4.720   4.321  15.649  1.00 54.13 LIG 0.06  A 
ATOM     22 ND1  HIS X  -1       3.613   5.031  16.062  1.00 52.72 LIG-0.24  NA
ATOM     23  CE1 HIS X  -1       2.881   5.351  15.008  1.00 54.35 LIG 0.23  A 
ATOM     24 NE2  HIS X  -1       3.473   4.872  13.926  1.00 53.65 LIG-0.25  NA
ATOM     25  CD2 HIS X  -1       4.627   4.225  14.301  1.00 55.23 LIG 0.14  A 
ENDBRANCH 20 21
ENDBRANCH 15 20
ENDBRANCH 12 15
ENDBRANCH 10 11
BRANCH 10 26
ATOM     26  CB  HIS X   0       4.915   6.217  21.467  1.00 64.99 LIG 0.10  C 
BRANCH 26 27
ATOM     27  CG  HIS X   0       5.786   6.562  22.641  1.00 69.41 LIG 0.06  A 
ATOM     28 ND1  HIS X   0       7.154   6.711  22.536  1.00 72.01 LIG-0.24  NA
ATOM     29  CE1 HIS X   0       7.655   7.021  23.720  1.00 72.69 LIG 0.23  A 
ATOM     30 NE2  HIS X   0       6.661   7.082  24.589  1.00 72.94 LIG-0.25  NA
ATOM     31  CD2 HIS X   0       5.481   6.804  23.939  1.00 71.12 LIG 0.14  A 
ENDBRANCH 26 27
ENDBRANCH 10 26
ENDBRANCH 8 10
ENDBRANCH 5 6
BRANCH 5 32
ATOM     32  CB  HIS X   1       0.519   4.977  21.807  1.00 48.25 LIG 0.10  C 
BRANCH 32 33
ATOM     33  CG  HIS X   1       1.202   6.020  22.635  1.00 50.36 LIG 0.06  A 
ATOM     34  CD2 HIS X   1       1.444   6.080  23.968  1.00 51.47 LIG 0.14  A 
ATOM     35 NE2  HIS X   1       2.115   7.255  24.205  1.00 50.72 LIG-0.25  NA
ATOM     36  CE1 HIS X   1       2.280   7.893  23.059  1.00 48.50 LIG 0.23  A 
ATOM     37 ND1  HIS X   1       1.738   7.172  22.095  1.00 47.89 LIG-0.24  NA
ENDBRANCH 32 33
ENDBRANCH 5 32
ENDBRANCH 1 5
BRANCH 3 38
ATOM     38  CA  HIS X   2       1.106   1.202  18.740  1.00 26.25 LIG 0.18  C 
BRANCH 38 39
ATOM     39  C   HIS X   2       0.747  -0.180  19.277  1.00 23.72 LIG 0.24  C 
ATOM     40  N   HIS X   3      -0.208  -0.172  20.192  1.00 22.33 LIG-0.35  N 
ATOM     41 H    HIS X   3      -0.588   0.544  20.479  1.00 22.33 LIG 0.16  HD
ATOM     42 O    HIS X   2       1.319  -1.211  18.893  1.00 19.88 LIG-0.27  OA
BRANCH 40 43
ATOM     43  CA  HIS X   3      -0.710  -1.411  20.808  1.00 22.38 LIG 0.18  C 
BRANCH 43 44
ATOM     44  CB  HIS X   3      -1.965  -1.188  21.710  1.00 22.51 LIG 0.10  C 
BRANCH 44 45
ATOM     45  CG  HIS X   3      -2.645   0.142  21.553  1.00 18.10 LIG 0.06  A 
ATOM     46  CD2 HIS X   3      -3.734   0.516  20.836  1.00 18.75 LIG 0.14  A 
ATOM     47 NE2  HIS X   3      -3.950   1.851  21.091  1.00 20.06 LIG-0.25  NA
ATOM     48  CE1 HIS X   3      -3.037   2.276  21.944  1.00 21.69 LIG 0.23  A 
ATOM     49 ND1  HIS X   3      -2.248   1.258  22.249  1.00 17.48 LIG-0.24  NA
ENDBRANCH 44 45
ENDBRANCH 43 44
BRANCH 43 50
ATOM     50  C   HIS X   3      -0.926  -2.502  19.761  1.00 21.59 LIG 0.24  C 
ATOM     51 O    HIS X   3      -0.278  -3.543  19.762  1.00 25.47 LIG-0.27  OA
ATOM     52  N   HIS X   4      -1.810  -2.214  18.828  1.00 25.63 LIG-0.35  N 
ATOM     53 H    HIS X   4      -2.253  -1.478  18.792  1.00 25.63 LIG 0.16  HD
BRANCH 52 54
ATOM     54  CA  HIS X   4      -2.109  -3.164  17.753  1.00 23.96 LIG 0.17  C 
BRANCH 54 55
ATOM     55  C   HIS X   4      -2.301  -2.375  16.453  1.00 31.35 LIG 0.22  C 
ATOM     56 O    HIS X   4      -3.226  -1.572  16.323  1.00 37.06 LIG-0.29  OA
ENDBRANCH 54 55
BRANCH 54 57
ATOM     57  CB  HIS X   4      -3.341  -4.019  18.072  1.00 23.83 LIG 0.09  C 
BRANCH 57 58
ATOM     58  CG  HIS X   4      -3.936  -3.752  19.429  1.00 22.57 LIG 0.06  A 
ATOM     59 ND1  HIS X   4      -4.405  -2.511  19.817  1.00 22.63 LIG-0.24  NA
ATOM     60  CE1 HIS X   4      -4.872  -2.585  21.052  1.00 19.94 LIG 0.23  A 
ATOM     61 NE2  HIS X   4      -4.708  -3.821  21.486  1.00 20.25 LIG-0.25  NA
ATOM     62  CD2 HIS X   4      -4.139  -4.573  20.485  1.00 21.52 LIG 0.14  A 
ENDBRANCH 57 58
ENDBRANCH 54 57
ENDBRANCH 52 54
ENDBRANCH 43 50
ENDBRANCH 40 43
ENDBRANCH 38 39
BRANCH 38 63
ATOM     63  CB  HIS X   2       2.182   1.064  17.656  1.00 28.74 LIG 0.10  C 
BRANCH 63 64
ATOM     64  CG  HIS X   2       1.687   1.351  16.278  1.00 28.63 LIG 0.06  A 
ATOM     65 ND1  HIS X   2       2.184   2.385  15.520  1.00 31.27 LIG-0.24  NA
ATOM     66  CE1 HIS X   2       1.583   2.396  14.345  1.00 28.11 LIG 0.23  A 
ATOM     67 NE2  HIS X   2       0.704   1.413  14.315  1.00 29.87 LIG-0.25  NA
ATOM     68  CD2 HIS X   2       0.755   0.736  15.512  1.00 31.84 LIG 0.14  A 
ENDBRANCH 63 64
ENDBRANCH 38 63
ENDBRANCH 3 38
TORSDOF 24
ENDMDL
MODEL 6
USER: ADFR SOLUTION from run 195
USER: SCORE 17.529714 LL:  -5.590 LR: -13.906 RR:   0.000 FEB:  -6.747
USER: RMSD 2.881741
USER: SEED 194
USER: STATUS no improvement in best in 7 clusters for 5 generations
USER: GENES 26
USER: genes 0 Translation |==|  0.42355 0.62918 0.56672
USER: genes 1 Rotation |==|  0.49634 0.50600 0.49951 0.99995
USER: genes 2 Torsion [N]-C--CA-[N] |==|  0.05324
USER: genes 3 Torsion [C]-CA--N-[C] |==|  0.67951
USER: genes 4 Torsion [N]-C--CA-[N] |==|  0.91977
USER: genes 5 Torsion [C]-CA--N-[C] |==|  0.64612
USER: genes 6 Torsion [N]-C--CA-[N] |==|  0.35582
USER: genes 7 Torsion [C]-CA--N-[H2] |==|  0.81209
USER: genes 8 Torsion [C]-CA--CB-[CG] |==|  0.30677
USER: genes 9 Torsion [CA]-CB--CG-[ND1] |==|  0.96898
USER: genes 10 Torsion [C]-CA--CB-[CG] |==|  0.53880
USER: genes 11 Torsion [CA]-CB--CG-[CD2] |==|  0.71600
USER: genes 12 Torsion [C]-CA--CB-[CG] |==|  0.42233
USER: genes 13 Torsion [CA]-CB--CG-[CD2] |==|  0.89529
USER: genes 14 Torsion [C]-N--CA-[C] |==|  0.79635
USER: genes 15 Torsion [N]-CA--C-[N] |==|  0.36499
USER: genes 16 Torsion [C]-N--CA-[CB] |==|  0.42282
USER: genes 17 Torsion [N]-CA--CB-[CG] |==|  0.87863
USER: genes 18 Torsion [CA]-CB--CG-[ND1] |==|  0.90824
USER: genes 19 Torsion [N]-CA--C-[N] |==|  0.97778
USER: genes 20 Torsion [C]-N--CA-[C] |==|  0.70153
USER: genes 21 Torsion [N]-CA--C-[O] |==|  0.56893
USER: genes 22 Torsion [N]-CA--CB-[CG] |==|  0.91352
USER: genes 23 Torsion [CA]-CB--CG-[ND1] |==|  0.62192
USER: genes 24 Torsion [N]-CA--CB-[CG] |==|  0.64646
USER: genes 25 Torsion [CA]-CB--CG-[CD2] |==|  0.24824
ROOT
ATOM      1  C   HIS X   1       1.082   3.118  20.771  1.00 40.87 LIG 0.24  C 
ATOM      2 O    HIS X   1      -0.142   3.096  20.935  1.00 40.80 LIG-0.27  OA
ATOM      3  N   HIS X   2       1.752   2.274  20.012  1.00 30.16 LIG-0.35  N 
ATOM      4 H    HIS X   2       2.607   2.294  19.924  1.00 30.16 LIG 0.16  HD
ENDROOT
BRANCH 1 5
ATOM      5  CA  HIS X   1       1.971   4.150  21.433  1.00 48.06 LIG 0.18  C 
BRANCH 5 6
ATOM      6  N   HIS X   1       3.247   4.227  20.717  1.00 54.11 LIG-0.35  N 
ATOM      7 H    HIS X   1       3.178   4.512  19.908  1.00 54.11 LIG 0.16  HD
ATOM      8  C   HIS X   0       4.393   3.889  21.271  1.00 58.54 LIG 0.24  C 
ATOM      9 O    HIS X   0       4.487   3.269  22.332  1.00 63.37 LIG-0.27  OA
BRANCH 8 10
ATOM     10  CA  HIS X   0       5.615   4.333  20.484  1.00 62.53 LIG 0.18  C 
BRANCH 10 11
ATOM     11  N   HIS X   0       5.350   4.418  19.043  1.00 60.73 LIG-0.35  N 
ATOM     12  C   HIS X  -1       6.126   3.799  18.168  1.00 60.09 LIG 0.25  C 
ATOM     13 O    HIS X  -1       6.796   2.800  18.440  1.00 62.79 LIG-0.27  OA
ATOM     14 H    HIS X   0       4.665   4.893  18.831  1.00 60.73 LIG 0.16  HD
BRANCH 12 15
ATOM     15  CA  HIS X  -1       6.109   4.390  16.763  1.00 59.53 LIG 0.28  C 
BRANCH 15 16
ATOM     16  N   HIS X  -1       7.514   4.654  16.303  1.00 57.14 LIG-0.07  N 
ATOM     17 H3   HIS X  -1       8.002   3.916  16.400  1.00 57.14 LIG 0.28  HD
ATOM     18 H2   HIS X  -1       7.868   5.309  16.790  1.00 57.14 LIG 0.28  HD
ATOM     19 H1   HIS X  -1       7.505   4.893  15.445  1.00 57.14 LIG 0.28  HD
ENDBRANCH 15 16
BRANCH 15 20
ATOM     20  CB  HIS X  -1       5.385   3.466  15.783  1.00 57.27 LIG 0.10  C 
BRANCH 20 21
ATOM     21  CG  HIS X  -1       4.074   4.000  15.305  1.00 54.13 LIG 0.06  A 
ATOM     22 ND1  HIS X  -1       3.465   5.098  15.876  1.00 52.72 LIG-0.24  NA
ATOM     23  CE1 HIS X  -1       2.316   5.327  15.263  1.00 54.35 LIG 0.23  A 
ATOM     24 NE2  HIS X  -1       2.157   4.418  14.317  1.00 53.65 LIG-0.25  NA
ATOM     25  CD2 HIS X  -1       3.245   3.576  14.321  1.00 55.23 LIG 0.14  A 
ENDBRANCH 20 21
ENDBRANCH 15 20
ENDBRANCH 12 15
ENDBRANCH 10 11
BRANCH 10 26
ATOM     26  CB  HIS X   0       6.148   5.669  21.045  1.00 64.99 LIG 0.10  C 
BRANCH 26 27
ATOM     27  CG  HIS X   0       7.136   6.362  20.151  1.00 69.41 LIG 0.06  A 
ATOM     28 ND1  HIS X   0       6.754   7.094  19.044  1.00 72.01 LIG-0.24  NA
ATOM     29  CE1 HIS X   0       7.828   7.593  18.455  1.00 72.69 LIG 0.23  A 
ATOM     30 NE2  HIS X   0       8.892   7.215  19.142  1.00 72.94 LIG-0.25  NA
ATOM     31  CD2 HIS X   0       8.487   6.448  20.210  1.00 71.12 LIG 0.14  A 
ENDBRANCH 26 27
ENDBRANCH 10 26
ENDBRANCH 8 10
ENDBRANCH 5 6
BRANCH 5 32
ATOM     32  CB  HIS X   1       1.283   5.513  21.438  1.00 48.25 LIG 0.10  C 
BRANCH 32 33
ATOM     33  CG  HIS X   1       1.705   6.395  22.572  1.00 50.36 LIG 0.06  A 
ATOM     34  CD2 HIS X   1       1.994   6.105  23.865  1.00 51.47 LIG 0.14  A 
ATOM     35 NE2  HIS X   1       2.337   7.286  24.478  1.00 50.72 LIG-0.25  NA
ATOM     36  CE1 HIS X   1       2.262   8.265  23.593  1.00 48.50 LIG 0.23  A 
ATOM     37 ND1  HIS X   1       1.882   7.757  22.435  1.00 47.89 LIG-0.24  NA
ENDBRANCH 32 33
ENDBRANCH 5 32
ENDBRANCH 1 5
BRANCH 3 38
ATOM     38  CA  HIS X   2       1.096   1.202  19.230  1.00 26.25 LIG 0.18  C 
BRANCH 38 39
ATOM     39  C   HIS X   2       0.600   0.052  20.102  1.00 23.72 LIG 0.24  C 
ATOM     40  N   HIS X   3      -0.648  -0.311  19.857  1.00 22.33 LIG-0.35  N 
ATOM     41 H    HIS X   3      -1.151   0.071  19.273  1.00 22.33 LIG 0.16  HD
ATOM     42 O    HIS X   2       1.308  -0.477  20.971  1.00 19.88 LIG-0.27  OA
BRANCH 40 43
ATOM     43  CA  HIS X   3      -1.295  -1.420  20.577  1.00 22.38 LIG 0.18  C 
BRANCH 43 44
ATOM     44  CB  HIS X   3      -2.846  -1.270  20.679  1.00 22.51 LIG 0.10  C 
BRANCH 44 45
ATOM     45  CG  HIS X   3      -3.339   0.104  21.035  1.00 18.10 LIG 0.06  A 
ATOM     46  CD2 HIS X   3      -4.492   0.751  20.733  1.00 18.75 LIG 0.14  A 
ATOM     47 NE2  HIS X   3      -4.446   1.977  21.357  1.00 20.06 LIG-0.25  NA
ATOM     48  CE1 HIS X   3      -3.313   2.072  22.028  1.00 21.69 LIG 0.23  A 
ATOM     49 ND1  HIS X   3      -2.637   0.947  21.861  1.00 17.48 LIG-0.24  NA
ENDBRANCH 44 45
ENDBRANCH 43 44
BRANCH 43 50
ATOM     50  C   HIS X   3      -0.873  -2.772  20.004  1.00 21.59 LIG 0.24  C 
ATOM     51 O    HIS X   3      -1.131  -3.828  20.571  1.00 25.47 LIG-0.27  OA
ATOM     52  N   HIS X   4      -0.162  -2.713  18.898  1.00 25.63 LIG-0.35  N 
ATOM     53 H    HIS X   4       0.056  -1.982  18.501  1.00 25.63 LIG 0.16  HD
BRANCH 52 54
ATOM     54  CA  HIS X   4       0.322  -3.933  18.245  1.00 23.96 LIG 0.17  C 
BRANCH 54 55
ATOM     55  C   HIS X   4       1.834  -4.034  18.470  1.00 31.35 LIG 0.22  C 
ATOM     56 O    HIS X   4       2.555  -4.666  17.697  1.00 37.06 LIG-0.29  OA
ENDBRANCH 54 55
BRANCH 54 57
ATOM     57  CB  HIS X   4      -0.021  -3.956  16.750  1.00 23.83 LIG 0.09  C 
BRANCH 57 58
ATOM     58  CG  HIS X   4      -1.300  -3.238  16.405  1.00 22.57 LIG 0.06  A 
ATOM     59 ND1  HIS X   4      -2.241  -3.751  15.532  1.00 22.63 LIG-0.24  NA
ATOM     60  CE1 HIS X   4      -3.253  -2.904  15.432  1.00 19.94 LIG 0.23  A 
ATOM     61 NE2  HIS X   4      -2.996  -1.857  16.192  1.00 20.25 LIG-0.25  NA
ATOM     62  CD2 HIS X   4      -1.788  -2.048  16.822  1.00 21.52 LIG 0.14  A 
ENDBRANCH 57 58
ENDBRANCH 54 57
ENDBRANCH 52 54
ENDBRANCH 43 50
ENDBRANCH 40 43
ENDBRANCH 38 39
BRANCH 38 63
ATOM     63  CB  HIS X   2       2.041   0.654  18.154  1.00 28.74 LIG 0.10  C 
BRANCH 63 64
ATOM     64  CG  HIS X   2       1.453   0.651  16.782  1.00 28.63 LIG 0.06  A 
ATOM     65 ND1  HIS X   2       0.743  -0.419  16.290  1.00 31.27 LIG-0.24  NA
ATOM     66  CE1 HIS X   2       0.327  -0.144  15.067  1.00 28.11 LIG 0.23  A 
ATOM     67 NE2  HIS X   2       0.750   1.063  14.743  1.00 29.87 LIG-0.25  NA
ATOM     68  CD2 HIS X   2       1.451   1.587  15.804  1.00 31.84 LIG 0.14  A 
ENDBRANCH 63 64
ENDBRANCH 38 63
ENDBRANCH 3 38
TORSDOF 24
ENDMDL
MODEL 7
USER: ADFR SOLUTION from run 154
USER: SCORE 17.816497 LL:  -6.306 LR: -13.804 RR:   0.000 FEB:  -6.645
USER: RMSD 3.411005
USER: SEED 153
USER: STATUS no improvement in best in 6 clusters for 5 generations
USER: GENES 26
USER: genes 0 Translation |==|  0.39448 0.61995 0.55868
USER: genes 1 Rotation |==|  0.55963 0.48990 0.57687 0.99034
USER: genes 2 Torsion [N]-C--CA-[N] |==|  0.03132
USER: genes 3 Torsion [C]-CA--N-[C] |==|  0.67277
USER: genes 4 Torsion [N]-C--CA-[N] |==|  0.84573
USER: genes 5 Torsion [C]-CA--N-[C] |==|  0.57793
USER: genes 6 Torsion [N]-C--CA-[N] |==|  0.46931
USER: genes 7 Torsion [C]-CA--N-[H2] |==|  0.02104
USER: genes 8 Torsion [C]-CA--CB-[CG] |==|  0.38815
USER: genes 9 Torsion [CA]-CB--CG-[ND1] |==|  0.83934
USER: genes 10 Torsion [C]-CA--CB-[CG] |==|  0.06562
USER: genes 11 Torsion [CA]-CB--CG-[CD2] |==|  0.19224
USER: genes 12 Torsion [C]-CA--CB-[CG] |==|  0.24115
USER: genes 13 Torsion [CA]-CB--CG-[CD2] |==|  0.71945
USER: genes 14 Torsion [C]-N--CA-[C] |==|  0.79799
USER: genes 15 Torsion [N]-CA--C-[N] |==|  0.33415
USER: genes 16 Torsion [C]-N--CA-[CB] |==|  0.46111
USER: genes 17 Torsion [N]-CA--CB-[CG] |==|  0.24516
USER: genes 18 Torsion [CA]-CB--CG-[ND1] |==|  0.81650
USER: genes 19 Torsion [N]-CA--C-[N] |==|  0.92245
USER: genes 20 Torsion [C]-N--CA-[C] |==|  0.66668
USER: genes 21 Torsion [N]-CA--C-[O] |==|  0.46551
USER: genes 22 Torsion [N]-CA--CB-[CG] |==|  0.77898
USER: genes 23 Torsion [CA]-CB--CG-[ND1] |==|  0.44185
USER: genes 24 Torsion [N]-CA--CB-[CG] |==|  0.62488
USER: genes 25 Torsion [CA]-CB--CG-[CD2] |==|  0.85926
ROOT
ATOM      1  C   HIS X   1       0.493   2.897  20.626  1.00 40.87 LIG 0.24  C 
ATOM      2 O    HIS X   1      -0.667   2.476  20.657  1.00 40.80 LIG-0.27  OA
ATOM      3  N   HIS X   2       1.407   2.514  19.757  1.00 30.16 LIG-0.35  N 
ATOM      4 H    HIS X   2       2.216   2.805  19.762  1.00 30.16 LIG 0.16  HD
ENDROOT
BRANCH 1 5
ATOM      5  CA  HIS X   1       1.007   3.933  21.603  1.00 48.06 LIG 0.18  C 
BRANCH 5 6
ATOM      6  N   HIS X   1       2.309   4.430  21.150  1.00 54.11 LIG-0.35  N 
ATOM      7 H    HIS X   1       2.286   4.826  20.388  1.00 54.11 LIG 0.16  HD
ATOM      8  C   HIS X   0       3.411   4.277  21.856  1.00 58.54 LIG 0.24  C 
ATOM      9 O    HIS X   0       3.507   3.521  22.825  1.00 63.37 LIG-0.27  OA
BRANCH 8 10
ATOM     10  CA  HIS X   0       4.576   5.124  21.372  1.00 62.53 LIG 0.18  C 
BRANCH 10 11
ATOM     11  N   HIS X   0       4.884   4.893  19.956  1.00 60.73 LIG-0.35  N 
ATOM     12  C   HIS X  -1       6.110   5.065  19.487  1.00 60.09 LIG 0.25  C 
ATOM     13 O    HIS X  -1       7.123   4.977  20.184  1.00 62.79 LIG-0.27  OA
ATOM     14 H    HIS X   0       4.214   4.644  19.479  1.00 60.73 LIG 0.16  HD
BRANCH 12 15
ATOM     15  CA  HIS X  -1       6.190   5.344  17.991  1.00 59.53 LIG 0.28  C 
BRANCH 15 16
ATOM     16  N   HIS X  -1       7.580   5.784  17.628  1.00 57.14 LIG-0.07  N 
ATOM     17 H3   HIS X  -1       7.884   5.283  16.958  1.00 57.14 LIG 0.28  HD
ATOM     18 H2   HIS X  -1       8.115   5.691  18.334  1.00 57.14 LIG 0.28  HD
ATOM     19 H1   HIS X  -1       7.565   6.638  17.377  1.00 57.14 LIG 0.28  HD
ENDBRANCH 15 16
BRANCH 15 20
ATOM     20  CB  HIS X  -1       5.784   4.116  17.176  1.00 57.27 LIG 0.10  C 
BRANCH 20 21
ATOM     21  CG  HIS X  -1       4.951   4.435  15.978  1.00 54.13 LIG 0.06  A 
ATOM     22 ND1  HIS X  -1       3.749   5.104  16.064  1.00 52.72 LIG-0.24  NA
ATOM     23  CE1 HIS X  -1       3.229   5.228  14.855  1.00 54.35 LIG 0.23  A 
ATOM     24 NE2  HIS X  -1       4.050   4.662  13.986  1.00 53.65 LIG-0.25  NA
ATOM     25  CD2 HIS X  -1       5.136   4.160  14.664  1.00 55.23 LIG 0.14  A 
ENDBRANCH 20 21
ENDBRANCH 15 20
ENDBRANCH 12 15
ENDBRANCH 10 11
BRANCH 10 26
ATOM     26  CB  HIS X   0       4.301   6.616  21.660  1.00 64.99 LIG 0.10  C 
BRANCH 26 27
ATOM     27  CG  HIS X   0       3.325   6.856  22.776  1.00 69.41 LIG 0.06  A 
ATOM     28 ND1  HIS X   0       2.054   7.350  22.563  1.00 72.01 LIG-0.24  NA
ATOM     29  CE1 HIS X   0       1.420   7.451  23.719  1.00 72.69 LIG 0.23  A 
ATOM     30 NE2  HIS X   0       2.233   7.036  24.675  1.00 72.94 LIG-0.25  NA
ATOM     31  CD2 HIS X   0       3.429   6.655  24.112  1.00 71.12 LIG 0.14  A 
ENDBRANCH 26 27
ENDBRANCH 10 26
ENDBRANCH 8 10
ENDBRANCH 5 6
BRANCH 5 32
ATOM     32  CB  HIS X   1       0.012   5.086  21.720  1.00 48.25 LIG 0.10  C 
BRANCH 32 33
ATOM     33  CG  HIS X   1      -1.060   4.855  22.739  1.00 50.36 LIG 0.06  A 
ATOM     34  CD2 HIS X   1      -2.350   4.465  22.600  1.00 51.47 LIG 0.14  A 
ATOM     35 NE2  HIS X   1      -2.892   4.398  23.861  1.00 50.72 LIG-0.25  NA
ATOM     36  CE1 HIS X   1      -1.966   4.734  24.743  1.00 48.50 LIG 0.23  A 
ATOM     37 ND1  HIS X   1      -0.851   5.016  24.094  1.00 47.89 LIG-0.24  NA
ENDBRANCH 32 33
ENDBRANCH 5 32
ENDBRANCH 1 5
BRANCH 3 38
ATOM     38  CA  HIS X   2       1.130   1.539  18.677  1.00 26.25 LIG 0.18  C 
BRANCH 38 39
ATOM     39  C   HIS X   2       0.980   0.111  19.193  1.00 23.72 LIG 0.24  C 
ATOM     40  N   HIS X   3      -0.195  -0.436  18.931  1.00 22.33 LIG-0.35  N 
ATOM     41 H    HIS X   3      -0.832  -0.027  18.522  1.00 22.33 LIG 0.16  HD
ATOM     42 O    HIS X   2       1.882  -0.469  19.815  1.00 19.88 LIG-0.27  OA
BRANCH 40 43
ATOM     43  CA  HIS X   3      -0.519  -1.817  19.324  1.00 22.38 LIG 0.18  C 
BRANCH 43 44
ATOM     44  CB  HIS X   3      -2.043  -2.144  19.236  1.00 22.51 LIG 0.10  C 
BRANCH 44 45
ATOM     45  CG  HIS X   3      -2.520  -2.645  17.901  1.00 18.10 LIG 0.06  A 
ATOM     46  CD2 HIS X   3      -3.080  -3.822  17.530  1.00 18.75 LIG 0.14  A 
ATOM     47 NE2  HIS X   3      -3.368  -3.731  16.188  1.00 20.06 LIG-0.25  NA
ATOM     48  CE1 HIS X   3      -3.012  -2.536  15.756  1.00 21.69 LIG 0.23  A 
ATOM     49 ND1  HIS X   3      -2.511  -1.857  16.775  1.00 17.48 LIG-0.24  NA
ENDBRANCH 44 45
ENDBRANCH 43 44
BRANCH 43 50
ATOM     50  C   HIS X   3       0.343  -2.825  18.565  1.00 21.59 LIG 0.24  C 
ATOM     51 O    HIS X   3       0.671  -3.899  19.055  1.00 25.47 LIG-0.27  OA
ATOM     52  N   HIS X   4       0.753  -2.428  17.379  1.00 25.63 LIG-0.35  N 
ATOM     53 H    HIS X   4       0.559  -1.666  17.029  1.00 25.63 LIG 0.16  HD
BRANCH 52 54
ATOM     54  CA  HIS X   4       1.597  -3.288  16.545  1.00 23.96 LIG 0.17  C 
BRANCH 54 55
ATOM     55  C   HIS X   4       2.917  -2.557  16.278  1.00 31.35 LIG 0.22  C 
ATOM     56 O    HIS X   4       3.887  -3.144  15.796  1.00 37.06 LIG-0.29  OA
ENDBRANCH 54 55
BRANCH 54 57
ATOM     57  CB  HIS X   4       0.900  -3.675  15.234  1.00 23.83 LIG 0.09  C 
BRANCH 57 58
ATOM     58  CG  HIS X   4      -0.100  -4.792  15.380  1.00 22.57 LIG 0.06  A 
ATOM     59 ND1  HIS X   4      -1.118  -5.017  14.471  1.00 22.63 LIG-0.24  NA
ATOM     60  CE1 HIS X   4      -1.827  -6.064  14.859  1.00 19.94 LIG 0.23  A 
ATOM     61 NE2  HIS X   4      -1.320  -6.515  15.991  1.00 20.25 LIG-0.25  NA
ATOM     62  CD2 HIS X   4      -0.231  -5.746  16.330  1.00 21.52 LIG 0.14  A 
ENDBRANCH 57 58
ENDBRANCH 54 57
ENDBRANCH 52 54
ENDBRANCH 43 50
ENDBRANCH 40 43
ENDBRANCH 38 39
BRANCH 38 63
ATOM     63  CB  HIS X   2       2.229   1.581  17.608  1.00 28.74 LIG 0.10  C 
BRANCH 63 64
ATOM     64  CG  HIS X   2       1.707   1.581  16.210  1.00 28.63 LIG 0.06  A 
ATOM     65 ND1  HIS X   2       2.128   2.490  15.268  1.00 31.27 LIG-0.24  NA
ATOM     66  CE1 HIS X   2       1.519   2.248  14.122  1.00 28.11 LIG 0.23  A 
ATOM     67 NE2  HIS X   2       0.709   1.220  14.287  1.00 29.87 LIG-0.25  NA
ATOM     68  CD2 HIS X   2       0.814   0.777  15.585  1.00 31.84 LIG 0.14  A 
ENDBRANCH 63 64
ENDBRANCH 38 63
ENDBRANCH 3 38
TORSDOF 24
ENDMDL
MODEL 8
USER: ADFR SOLUTION from run 37
USER: SCORE 17.408283 LL:  -6.358 LR: -13.753 RR:   0.000 FEB:  -6.594
USER: RMSD 3.993026
USER: SEED 36
USER: STATUS no improvement in best in 22 clusters for 5 generations
USER: GENES 26
USER: genes 0 Translation |==|  0.39544 0.61739 0.55213
USER: genes 1 Rotation |==|  0.53985 0.43892 0.49902 0.99465
USER: genes 2 Torsion [N]-C--CA-[N] |==|  0.07216
USER: genes 3 Torsion [C]-CA--N-[C] |==|  0.63994
USER: genes 4 Torsion [N]-C--CA-[N] |==|  0.91384
USER: genes 5 Torsion [C]-CA--N-[C] |==|  0.57268
USER: genes 6 Torsion [N]-C--CA-[N] |==|  0.40046
USER: genes 7 Torsion [C]-CA--N-[H2] |==|  0.98873
USER: genes 8 Torsion [C]-CA--CB-[CG] |==|  0.38146
USER: genes 9 Torsion [CA]-CB--CG-[ND1] |==|  0.89984
USER: genes 10 Torsion [C]-CA--CB-[CG] |==|  0.93691
USER: genes 11 Torsion [CA]-CB--CG-[CD2] |==|  0.77817
USER: genes 12 Torsion [C]-CA--CB-[CG] |==|  0.23689
USER: genes 13 Torsion [CA]-CB--CG-[CD2] |==|  0.15152
USER: genes 14 Torsion [C]-N--CA-[C] |==|  0.75919
USER: genes 15 Torsion [N]-CA--C-[N] |==|  0.27116
USER: genes 16 Torsion [C]-N--CA-[CB] |==|  0.40173
USER: genes 17 Torsion [N]-CA--CB-[CG] |==|  0.98722
USER: genes 18 Torsion [CA]-CB--CG-[ND1] |==|  0.79355
USER: genes 19 Torsion [N]-CA--C-[N] |==|  0.96739
USER: genes 20 Torsion [C]-N--CA-[C] |==|  0.15569
USER: genes 21 Torsion [N]-CA--C-[O] |==|  0.52976
USER: genes 22 Torsion [N]-CA--CB-[CG] |==|  0.91655
USER: genes 23 Torsion [CA]-CB--CG-[ND1] |==|  0.30913
USER: genes 24 Torsion [N]-CA--CB-[CG] |==|  0.64910
USER: genes 25 Torsion [CA]-CB--CG-[CD2] |==|  0.82100
ROOT
ATOM      1  C   HIS X   1       0.513   2.835  20.508  1.00 40.87 LIG 0.24  C 
ATOM      2 O    HIS X   1      -0.710   2.816  20.336  1.00 40.80 LIG-0.27  OA
ATOM      3  N   HIS X   2       1.378   2.117  19.820  1.00 30.16 LIG-0.35  N 
ATOM      4 H    HIS X   2       2.225   2.130  19.967  1.00 30.16 LIG 0.16  HD
ENDROOT
BRANCH 1 5
ATOM      5  CA  HIS X   1       1.173   3.715  21.549  1.00 48.06 LIG 0.18  C 
BRANCH 5 6
ATOM      6  N   HIS X   1       2.546   4.015  21.136  1.00 54.11 LIG-0.35  N 
ATOM      7 H    HIS X   1       2.613   4.307  20.329  1.00 54.11 LIG 0.16  HD
ATOM      8  C   HIS X   0       3.580   3.850  21.936  1.00 58.54 LIG 0.24  C 
ATOM      9 O    HIS X   0       3.534   3.224  22.997  1.00 63.37 LIG-0.27  OA
BRANCH 8 10
ATOM     10  CA  HIS X   0       4.857   4.505  21.438  1.00 62.53 LIG 0.18  C 
BRANCH 10 11
ATOM     11  N   HIS X   0       4.932   4.540  19.972  1.00 60.73 LIG-0.35  N 
ATOM     12  C   HIS X  -1       6.099   4.576  19.349  1.00 60.09 LIG 0.25  C 
ATOM     13 O    HIS X  -1       7.145   4.145  19.839  1.00 62.79 LIG-0.27  OA
ATOM     14 H    HIS X   0       4.170   4.536  19.574  1.00 60.73 LIG 0.16  HD
BRANCH 12 15
ATOM     15  CA  HIS X  -1       6.057   5.160  17.942  1.00 59.53 LIG 0.28  C 
BRANCH 15 16
ATOM     16  N   HIS X  -1       7.312   5.940  17.675  1.00 57.14 LIG-0.07  N 
ATOM     17 H3   HIS X  -1       7.769   5.552  17.018  1.00 57.14 LIG 0.28  HD
ATOM     18 H2   HIS X  -1       7.812   5.959  18.412  1.00 57.14 LIG 0.28  HD
ATOM     19 H1   HIS X  -1       7.101   6.772  17.438  1.00 57.14 LIG 0.28  HD
ENDBRANCH 15 16
BRANCH 15 20
ATOM     20  CB  HIS X  -1       5.871   4.064  16.893  1.00 57.27 LIG 0.10  C 
BRANCH 20 21
ATOM     21  CG  HIS X  -1       4.896   4.417  15.817  1.00 54.13 LIG 0.06  A 
ATOM     22 ND1  HIS X  -1       3.758   5.157  16.058  1.00 52.72 LIG-0.24  NA
ATOM     23  CE1 HIS X  -1       3.080   5.296  14.931  1.00 54.35 LIG 0.23  A 
ATOM     24 NE2  HIS X  -1       3.736   4.671  13.968  1.00 53.65 LIG-0.25  NA
ATOM     25  CD2 HIS X  -1       4.878   4.114  14.496  1.00 55.23 LIG 0.14  A 
ENDBRANCH 20 21
ENDBRANCH 15 20
ENDBRANCH 12 15
ENDBRANCH 10 11
BRANCH 10 26
ATOM     26  CB  HIS X   0       5.002   5.915  22.050  1.00 64.99 LIG 0.10  C 
BRANCH 26 27
ATOM     27  CG  HIS X   0       3.707   6.521  22.508  1.00 69.41 LIG 0.06  A 
ATOM     28 ND1  HIS X   0       3.321   6.544  23.834  1.00 72.01 LIG-0.24  NA
ATOM     29  CE1 HIS X   0       2.147   7.144  23.940  1.00 72.69 LIG 0.23  A 
ATOM     30 NE2  HIS X   0       1.760   7.517  22.733  1.00 72.94 LIG-0.25  NA
ATOM     31  CD2 HIS X   0       2.719   7.143  21.820  1.00 71.12 LIG 0.14  A 
ENDBRANCH 26 27
ENDBRANCH 10 26
ENDBRANCH 8 10
ENDBRANCH 5 6
BRANCH 5 32
ATOM     32  CB  HIS X   1       0.379   5.008  21.726  1.00 48.25 LIG 0.10  C 
BRANCH 32 33
ATOM     33  CG  HIS X   1      -0.756   4.888  22.695  1.00 50.36 LIG 0.06  A 
ATOM     34  CD2 HIS X   1      -0.783   4.474  23.986  1.00 51.47 LIG 0.14  A 
ATOM     35 NE2  HIS X   1      -2.086   4.569  24.414  1.00 50.72 LIG-0.25  NA
ATOM     36  CE1 HIS X   1      -2.830   5.026  23.421  1.00 48.50 LIG 0.23  A 
ATOM     37 ND1  HIS X   1      -2.054   5.226  22.372  1.00 47.89 LIG-0.24  NA
ENDBRANCH 32 33
ENDBRANCH 5 32
ENDBRANCH 1 5
BRANCH 3 38
ATOM     38  CA  HIS X   2       0.975   1.211  18.721  1.00 26.25 LIG 0.18  C 
BRANCH 38 39
ATOM     39  C   HIS X   2       0.593  -0.182  19.211  1.00 23.72 LIG 0.24  C 
ATOM     40  N   HIS X   3      -0.709  -0.364  19.357  1.00 22.33 LIG-0.35  N 
ATOM     41 H    HIS X   3      -1.297   0.246  19.209  1.00 22.33 LIG 0.16  HD
ATOM     42 O    HIS X   2       1.438  -1.054  19.462  1.00 19.88 LIG-0.27  OA
BRANCH 40 43
ATOM     43  CA  HIS X   3      -1.274  -1.651  19.795  1.00 22.38 LIG 0.18  C 
BRANCH 43 44
ATOM     44  CB  HIS X   3      -2.533  -1.498  20.705  1.00 22.51 LIG 0.10  C 
BRANCH 44 45
ATOM     45  CG  HIS X   3      -2.895  -0.086  21.072  1.00 18.10 LIG 0.06  A 
ATOM     46  CD2 HIS X   3      -3.932   0.703  20.695  1.00 18.75 LIG 0.14  A 
ATOM     47 NE2  HIS X   3      -3.803   1.894  21.372  1.00 20.06 LIG-0.25  NA
ATOM     48  CE1 HIS X   3      -2.736   1.832  22.146  1.00 21.69 LIG 0.23  A 
ATOM     49 ND1  HIS X   3      -2.181   0.641  21.993  1.00 17.48 LIG-0.24  NA
ENDBRANCH 44 45
ENDBRANCH 43 44
BRANCH 43 50
ATOM     50  C   HIS X   3      -1.518  -2.581  18.607  1.00 21.59 LIG 0.24  C 
ATOM     51 O    HIS X   3      -1.729  -3.780  18.751  1.00 25.47 LIG-0.27  OA
ATOM     52  N   HIS X   4      -1.423  -2.012  17.423  1.00 25.63 LIG-0.35  N 
ATOM     53 H    HIS X   4      -1.246  -1.179  17.299  1.00 25.63 LIG 0.16  HD
BRANCH 52 54
ATOM     54  CA  HIS X   4      -1.621  -2.787  16.195  1.00 23.96 LIG 0.17  C 
BRANCH 54 55
ATOM     55  C   HIS X   4      -2.999  -3.454  16.262  1.00 31.35 LIG 0.22  C 
ATOM     56 O    HIS X   4      -3.332  -4.316  15.447  1.00 37.06 LIG-0.29  OA
ENDBRANCH 54 55
BRANCH 54 57
ATOM     57  CB  HIS X   4      -0.510  -3.823  15.988  1.00 23.83 LIG 0.09  C 
BRANCH 57 58
ATOM     58  CG  HIS X   4       0.821  -3.417  16.565  1.00 22.57 LIG 0.06  A 
ATOM     59 ND1  HIS X   4       1.393  -4.043  17.657  1.00 22.63 LIG-0.24  NA
ATOM     60  CE1 HIS X   4       2.557  -3.475  17.927  1.00 19.94 LIG 0.23  A 
ATOM     61 NE2  HIS X   4       2.752  -2.495  17.065  1.00 20.25 LIG-0.25  NA
ATOM     62  CD2 HIS X   4       1.688  -2.447  16.195  1.00 21.52 LIG 0.14  A 
ENDBRANCH 57 58
ENDBRANCH 54 57
ENDBRANCH 52 54
ENDBRANCH 43 50
ENDBRANCH 40 43
ENDBRANCH 38 39
BRANCH 38 63
ATOM     63  CB  HIS X   2       2.089   1.094  17.673  1.00 28.74 LIG 0.10  C 
BRANCH 63 64
ATOM     64  CG  HIS X   2       1.640   1.397  16.282  1.00 28.63 LIG 0.06  A 
ATOM     65 ND1  HIS X   2       2.136   2.459  15.565  1.00 31.27 LIG-0.24  NA
ATOM     66  CE1 HIS X   2       1.580   2.478  14.368  1.00 28.11 LIG 0.23  A 
ATOM     67 NE2  HIS X   2       0.732   1.472  14.284  1.00 29.87 LIG-0.25  NA
ATOM     68  CD2 HIS X   2       0.756   0.772  15.469  1.00 31.84 LIG 0.14  A 
ENDBRANCH 63 64
ENDBRANCH 38 63
ENDBRANCH 3 38
TORSDOF 24
ENDMDL
MODEL 9
USER: ADFR SOLUTION from run 140
USER: SCORE 17.779340 LL:  -5.957 LR: -13.707 RR:   0.000 FEB:  -6.548
USER: RMSD 2.915889
USER: SEED 139
USER: STATUS no improvement in best in 5 clusters for 5 generations
USER: GENES 26
USER: genes 0 Translation |==|  0.40940 0.61543 0.55589
USER: genes 1 Rotation |==|  0.54911 0.46396 0.52039 0.99586
USER: genes 2 Torsion [N]-C--CA-[N] |==|  0.07048
USER: genes 3 Torsion [C]-CA--N-[C] |==|  0.65673
USER: genes 4 Torsion [N]-C--CA-[N] |==|  0.85895
USER: genes 5 Torsion [C]-CA--N-[C] |==|  0.58416
USER: genes 6 Torsion [N]-C--CA-[N] |==|  0.47083
USER: genes 7 Torsion [C]-CA--N-[H2] |==|  0.75338
USER: genes 8 Torsion [C]-CA--CB-[CG] |==|  0.37231
USER: genes 9 Torsion [CA]-CB--CG-[ND1] |==|  0.82803
USER: genes 10 Torsion [C]-CA--CB-[CG] |==|  0.27982
USER: genes 11 Torsion [CA]-CB--CG-[CD2] |==|  0.69498
USER: genes 12 Torsion [C]-CA--CB-[CG] |==|  0.53048
USER: genes 13 Torsion [CA]-CB--CG-[CD2] |==|  0.77777
USER: genes 14 Torsion [C]-N--CA-[C] |==|  0.76708
USER: genes 15 Torsion [N]-CA--C-[N] |==|  0.32309
USER: genes 16 Torsion [C]-N--CA-[CB] |==|  0.50673
USER: genes 17 Torsion [N]-CA--CB-[CG] |==|  0.24205
USER: genes 18 Torsion [CA]-CB--CG-[ND1] |==|  0.75549
USER: genes 19 Torsion [N]-CA--C-[N] |==|  0.32988
USER: genes 20 Torsion [C]-N--CA-[C] |==|  0.60696
USER: genes 21 Torsion [N]-CA--C-[O] |==|  0.39566
USER: genes 22 Torsion [N]-CA--CB-[CG] |==|  0.80813
USER: genes 23 Torsion [CA]-CB--CG-[ND1] |==|  0.35657
USER: genes 24 Torsion [N]-CA--CB-[CG] |==|  0.63503
USER: genes 25 Torsion [CA]-CB--CG-[CD2] |==|  0.84606
ROOT
ATOM      1  C   HIS X   1       0.795   2.788  20.576  1.00 40.87 LIG 0.24  C 
ATOM      2 O    HIS X   1      -0.430   2.653  20.516  1.00 40.80 LIG-0.27  OA
ATOM      3  N   HIS X   2       1.657   2.173  19.790  1.00 30.16 LIG-0.35  N 
ATOM      4 H    HIS X   2       2.509   2.266  19.859  1.00 30.16 LIG 0.16  HD
ENDROOT
BRANCH 1 5
ATOM      5  CA  HIS X   1       1.463   3.706  21.578  1.00 48.06 LIG 0.18  C 
BRANCH 5 6
ATOM      6  N   HIS X   1       2.763   4.137  21.057  1.00 54.11 LIG-0.35  N 
ATOM      7 H    HIS X   1       2.722   4.522  20.289  1.00 54.11 LIG 0.16  HD
ATOM      8  C   HIS X   0       3.889   3.946  21.714  1.00 58.54 LIG 0.24  C 
ATOM      9 O    HIS X   0       3.997   3.202  22.690  1.00 63.37 LIG-0.27  OA
BRANCH 8 10
ATOM     10  CA  HIS X   0       5.067   4.732  21.162  1.00 62.53 LIG 0.18  C 
BRANCH 10 11
ATOM     11  N   HIS X   0       5.228   4.552  19.714  1.00 60.73 LIG-0.35  N 
ATOM     12  C   HIS X  -1       6.423   4.618  19.148  1.00 60.09 LIG 0.25  C 
ATOM     13 O    HIS X  -1       7.474   4.381  19.747  1.00 62.79 LIG-0.27  OA
ATOM     14 H    HIS X   0       4.497   4.406  19.286  1.00 60.73 LIG 0.16  HD
BRANCH 12 15
ATOM     15  CA  HIS X  -1       6.411   4.974  17.666  1.00 59.53 LIG 0.28  C 
BRANCH 15 16
ATOM     16  N   HIS X  -1       7.809   5.268  17.200  1.00 57.14 LIG-0.07  N 
ATOM     17 H3   HIS X  -1       8.387   4.780  17.669  1.00 57.14 LIG 0.28  HD
ATOM     18 H2   HIS X  -1       7.986   6.132  17.320  1.00 57.14 LIG 0.28  HD
ATOM     19 H1   HIS X  -1       7.882   5.066  16.336  1.00 57.14 LIG 0.28  HD
ENDBRANCH 15 16
BRANCH 15 20
ATOM     20  CB  HIS X  -1       5.791   3.852  16.832  1.00 57.27 LIG 0.10  C 
BRANCH 20 21
ATOM     21  CG  HIS X  -1       4.801   4.329  15.819  1.00 54.13 LIG 0.06  A 
ATOM     22 ND1  HIS X  -1       3.640   4.986  16.166  1.00 52.72 LIG-0.24  NA
ATOM     23  CE1 HIS X  -1       2.955   5.269  15.071  1.00 54.35 LIG 0.23  A 
ATOM     24 NE2  HIS X  -1       3.629   4.819  14.026  1.00 53.65 LIG-0.25  NA
ATOM     25  CD2 HIS X  -1       4.790   4.228  14.468  1.00 55.23 LIG 0.14  A 
ENDBRANCH 20 21
ENDBRANCH 15 20
ENDBRANCH 12 15
ENDBRANCH 10 11
BRANCH 10 26
ATOM     26  CB  HIS X   0       4.930   6.223  21.540  1.00 64.99 LIG 0.10  C 
BRANCH 26 27
ATOM     27  CG  HIS X   0       5.778   6.642  22.706  1.00 69.41 LIG 0.06  A 
ATOM     28 ND1  HIS X   0       7.152   6.751  22.629  1.00 72.01 LIG-0.24  NA
ATOM     29  CE1 HIS X   0       7.629   7.143  23.798  1.00 72.69 LIG 0.23  A 
ATOM     30 NE2  HIS X   0       6.614   7.299  24.629  1.00 72.94 LIG-0.25  NA
ATOM     31  CD2 HIS X   0       5.445   6.996  23.971  1.00 71.12 LIG 0.14  A 
ENDBRANCH 26 27
ENDBRANCH 10 26
ENDBRANCH 8 10
ENDBRANCH 5 6
BRANCH 5 32
ATOM     32  CB  HIS X   1       0.576   4.918  21.855  1.00 48.25 LIG 0.10  C 
BRANCH 32 33
ATOM     33  CG  HIS X   1       1.262   6.001  22.628  1.00 50.36 LIG 0.06  A 
ATOM     34  CD2 HIS X   1       1.511   6.125  23.955  1.00 51.47 LIG 0.14  A 
ATOM     35 NE2  HIS X   1       2.182   7.312  24.132  1.00 50.72 LIG-0.25  NA
ATOM     36  CE1 HIS X   1       2.339   7.894  22.955  1.00 48.50 LIG 0.23  A 
ATOM     37 ND1  HIS X   1       1.792   7.126  22.030  1.00 47.89 LIG-0.24  NA
ENDBRANCH 32 33
ENDBRANCH 5 32
ENDBRANCH 1 5
BRANCH 3 38
ATOM     38  CA  HIS X   2       1.241   1.256  18.705  1.00 26.25 LIG 0.18  C 
BRANCH 38 39
ATOM     39  C   HIS X   2       0.975  -0.163  19.198  1.00 23.72 LIG 0.24  C 
ATOM     40  N   HIS X   3      -0.279  -0.558  19.054  1.00 22.33 LIG-0.35  N 
ATOM     41 H    HIS X   3      -0.902  -0.062  18.728  1.00 22.33 LIG 0.16  HD
ATOM     42 O    HIS X   2       1.861  -0.869  19.703  1.00 19.88 LIG-0.27  OA
BRANCH 40 43
ATOM     43  CA  HIS X   3      -0.724  -1.905  19.445  1.00 22.38 LIG 0.18  C 
BRANCH 43 44
ATOM     44  CB  HIS X   3      -2.229  -2.176  19.131  1.00 22.51 LIG 0.10  C 
BRANCH 44 45
ATOM     45  CG  HIS X   3      -2.517  -2.693  17.750  1.00 18.10 LIG 0.06  A 
ATOM     46  CD2 HIS X   3      -2.692  -3.954  17.280  1.00 18.75 LIG 0.14  A 
ATOM     47 NE2  HIS X   3      -2.979  -3.851  15.938  1.00 20.06 LIG-0.25  NA
ATOM     48  CE1 HIS X   3      -2.995  -2.575  15.601  1.00 21.69 LIG 0.23  A 
ATOM     49 ND1  HIS X   3      -2.735  -1.857  16.681  1.00 17.48 LIG-0.24  NA
ENDBRANCH 44 45
ENDBRANCH 43 44
BRANCH 43 50
ATOM     50  C   HIS X   3       0.198  -2.981  18.872  1.00 21.59 LIG 0.24  C 
ATOM     51 O    HIS X   3       0.311  -3.166  17.666  1.00 25.47 LIG-0.27  OA
ATOM     52  N   HIS X   4       0.809  -3.728  19.768  1.00 25.63 LIG-0.35  N 
ATOM     53 H    HIS X   4       0.720  -3.634  20.618  1.00 25.63 LIG 0.16  HD
BRANCH 52 54
ATOM     54  CA  HIS X   4       1.714  -4.807  19.361  1.00 23.96 LIG 0.17  C 
BRANCH 54 55
ATOM     55  C   HIS X   4       1.510  -5.991  20.311  1.00 31.35 LIG 0.22  C 
ATOM     56 O    HIS X   4       1.551  -7.153  19.902  1.00 37.06 LIG-0.29  OA
ENDBRANCH 54 55
BRANCH 54 57
ATOM     57  CB  HIS X   4       3.178  -4.349  19.345  1.00 23.83 LIG 0.09  C 
BRANCH 57 58
ATOM     58  CG  HIS X   4       3.498  -3.360  18.257  1.00 22.57 LIG 0.06  A 
ATOM     59 ND1  HIS X   4       4.134  -2.155  18.495  1.00 22.63 LIG-0.24  NA
ATOM     60  CE1 HIS X   4       4.284  -1.506  17.352  1.00 19.94 LIG 0.23  A 
ATOM     61 NE2  HIS X   4       3.755  -2.234  16.387  1.00 20.25 LIG-0.25  NA
ATOM     62  CD2 HIS X   4       3.270  -3.403  16.924  1.00 21.52 LIG 0.14  A 
ENDBRANCH 57 58
ENDBRANCH 54 57
ENDBRANCH 52 54
ENDBRANCH 43 50
ENDBRANCH 40 43
ENDBRANCH 38 39
BRANCH 38 63
ATOM     63  CB  HIS X   2       2.292   1.218  17.589  1.00 28.74 LIG 0.10  C 
BRANCH 63 64
ATOM     64  CG  HIS X   2       1.722   1.388  16.220  1.00 28.63 LIG 0.06  A 
ATOM     65 ND1  HIS X   2       2.169   2.357  15.354  1.00 31.27 LIG-0.24  NA
ATOM     66  CE1 HIS X   2       1.505   2.269  14.216  1.00 28.11 LIG 0.23  A 
ATOM     67 NE2  HIS X   2       0.634   1.283  14.315  1.00 29.87 LIG-0.25  NA
ATOM     68  CD2 HIS X   2       0.755   0.708  15.560  1.00 31.84 LIG 0.14  A 
ENDBRANCH 63 64
ENDBRANCH 38 63
ENDBRANCH 3 38
TORSDOF 24
ENDMDL
MODEL 10
USER: ADFR SOLUTION from run 182
USER: SCORE 18.119458 LL:  -6.609 LR: -13.610 RR:   0.000 FEB:  -6.450
USER: RMSD 2.623798
USER: SEED 181
USER: STATUS no improvement in best in 8 clusters for 5 generations
USER: GENES 26
USER: genes 0 Translation |==|  0.41079 0.62641 0.55631
USER: genes 1 Rotation |==|  0.51961 0.50000 0.48263 0.99931
USER: genes 2 Torsion [N]-C--CA-[N] |==|  0.05090
USER: genes 3 Torsion [C]-CA--N-[C] |==|  0.68028
USER: genes 4 Torsion [N]-C--CA-[N] |==|  0.92317
USER: genes 5 Torsion [C]-CA--N-[C] |==|  0.62921
USER: genes 6 Torsion [N]-C--CA-[N] |==|  0.34183
USER: genes 7 Torsion [C]-CA--N-[H2] |==|  0.75661
USER: genes 8 Torsion [C]-CA--CB-[CG] |==|  0.29648
USER: genes 9 Torsion [CA]-CB--CG-[ND1] |==|  0.00736
USER: genes 10 Torsion [C]-CA--CB-[CG] |==|  0.57315
USER: genes 11 Torsion [CA]-CB--CG-[CD2] |==|  0.69907
USER: genes 12 Torsion [C]-CA--CB-[CG] |==|  0.48827
USER: genes 13 Torsion [CA]-CB--CG-[CD2] |==|  0.01179
USER: genes 14 Torsion [C]-N--CA-[C] |==|  0.73699
USER: genes 15 Torsion [N]-CA--C-[N] |==|  0.40400
USER: genes 16 Torsion [C]-N--CA-[CB] |==|  0.47467
USER: genes 17 Torsion [N]-CA--CB-[CG] |==|  0.21036
USER: genes 18 Torsion [CA]-CB--CG-[ND1] |==|  0.78286
USER: genes 19 Torsion [N]-CA--C-[N] |==|  0.94365
USER: genes 20 Torsion [C]-N--CA-[C] |==|  0.51169
USER: genes 21 Torsion [N]-CA--C-[O] |==|  0.29730
USER: genes 22 Torsion [N]-CA--CB-[CG] |==|  0.25373
USER: genes 23 Torsion [CA]-CB--CG-[ND1] |==|  0.31942
USER: genes 24 Torsion [N]-CA--CB-[CG] |==|  0.14608
USER: genes 25 Torsion [CA]-CB--CG-[CD2] |==|  0.03529
ROOT
ATOM      1  C   HIS X   1       0.823   3.052  20.584  1.00 40.87 LIG 0.24  C 
ATOM      2 O    HIS X   1      -0.403   3.100  20.718  1.00 40.80 LIG-0.27  OA
ATOM      3  N   HIS X   2       1.456   2.236  19.764  1.00 30.16 LIG-0.35  N 
ATOM      4 H    HIS X   2       2.313   2.204  19.697  1.00 30.16 LIG 0.16  HD
ENDROOT
BRANCH 1 5
ATOM      5  CA  HIS X   1       1.761   3.954  21.357  1.00 48.06 LIG 0.18  C 
BRANCH 5 6
ATOM      6  N   HIS X   1       3.065   3.992  20.690  1.00 54.11 LIG-0.35  N 
ATOM      7 H    HIS X   1       3.047   4.350  19.908  1.00 54.11 LIG 0.16  HD
ATOM      8  C   HIS X   0       4.161   3.518  21.247  1.00 58.54 LIG 0.24  C 
ATOM      9 O    HIS X   0       4.168   2.803  22.251  1.00 63.37 LIG-0.27  OA
BRANCH 8 10
ATOM     10  CA  HIS X   0       5.441   3.930  20.539  1.00 62.53 LIG 0.18  C 
BRANCH 10 11
ATOM     11  N   HIS X   0       5.231   4.187  19.109  1.00 60.73 LIG-0.35  N 
ATOM     12  C   HIS X  -1       6.052   3.690  18.199  1.00 60.09 LIG 0.25  C 
ATOM     13 O    HIS X  -1       6.729   2.675  18.374  1.00 62.79 LIG-0.27  OA
ATOM     14 H    HIS X   0       4.547   4.675  18.929  1.00 60.73 LIG 0.16  HD
BRANCH 12 15
ATOM     15  CA  HIS X  -1       6.079   4.449  16.877  1.00 59.53 LIG 0.28  C 
BRANCH 15 16
ATOM     16  N   HIS X  -1       7.481   4.893  16.571  1.00 57.14 LIG-0.07  N 
ATOM     17 H3   HIS X  -1       8.058   4.297  16.893  1.00 57.14 LIG 0.28  HD
ATOM     18 H2   HIS X  -1       7.631   5.685  16.949  1.00 57.14 LIG 0.28  HD
ATOM     19 H1   HIS X  -1       7.585   4.961  15.689  1.00 57.14 LIG 0.28  HD
ENDBRANCH 15 16
BRANCH 15 20
ATOM     20  CB  HIS X  -1       5.524   3.594  15.737  1.00 57.27 LIG 0.10  C 
BRANCH 20 21
ATOM     21  CG  HIS X  -1       4.166   4.011  15.275  1.00 54.13 LIG 0.06  A 
ATOM     22 ND1  HIS X  -1       3.506   5.105  15.795  1.00 52.72 LIG-0.24  NA
ATOM     23  CE1 HIS X  -1       2.325   5.220  15.213  1.00 54.35 LIG 0.23  A 
ATOM     24 NE2  HIS X  -1       2.193   4.240  14.335  1.00 53.65 LIG-0.25  NA
ATOM     25  CD2 HIS X  -1       3.333   3.471  14.353  1.00 55.23 LIG 0.14  A 
ENDBRANCH 20 21
ENDBRANCH 15 20
ENDBRANCH 12 15
ENDBRANCH 10 11
BRANCH 10 26
ATOM     26  CB  HIS X   0       6.070   5.147  21.251  1.00 64.99 LIG 0.10  C 
BRANCH 26 27
ATOM     27  CG  HIS X   0       6.921   6.008  20.363  1.00 69.41 LIG 0.06  A 
ATOM     28 ND1  HIS X   0       6.388   6.837  19.395  1.00 72.01 LIG-0.24  NA
ATOM     29  CE1 HIS X   0       7.366   7.476  18.776  1.00 72.69 LIG 0.23  A 
ATOM     30 NE2  HIS X   0       8.514   7.096  19.310  1.00 72.94 LIG-0.25  NA
ATOM     31  CD2 HIS X   0       8.263   6.182  20.307  1.00 71.12 LIG 0.14  A 
ENDBRANCH 26 27
ENDBRANCH 10 26
ENDBRANCH 8 10
ENDBRANCH 5 6
BRANCH 5 32
ATOM     32  CB  HIS X   1       1.176   5.361  21.457  1.00 48.25 LIG 0.10  C 
BRANCH 32 33
ATOM     33  CG  HIS X   1       1.995   6.295  22.294  1.00 50.36 LIG 0.06  A 
ATOM     34  CD2 HIS X   1       3.191   6.122  22.907  1.00 51.47 LIG 0.14  A 
ATOM     35 NE2  HIS X   1       3.497   7.304  23.538  1.00 50.72 LIG-0.25  NA
ATOM     36  CE1 HIS X   1       2.523   8.171  23.319  1.00 48.50 LIG 0.23  A 
ATOM     37 ND1  HIS X   1       1.602   7.588  22.572  1.00 47.89 LIG-0.24  NA
ENDBRANCH 32 33
ENDBRANCH 5 32
ENDBRANCH 1 5
BRANCH 3 38
ATOM     38  CA  HIS X   2       0.751   1.287  18.872  1.00 26.25 LIG 0.18  C 
BRANCH 38 39
ATOM     39  C   HIS X   2       0.612  -0.105  19.479  1.00 23.72 LIG 0.24  C 
ATOM     40  N   HIS X   3      -0.511  -0.725  19.157  1.00 22.33 LIG-0.35  N 
ATOM     41 H    HIS X   3      -1.124  -0.377  18.663  1.00 22.33 LIG 0.16  HD
ATOM     42 O    HIS X   2       1.476  -0.596  20.221  1.00 19.88 LIG-0.27  OA
BRANCH 40 43
ATOM     43  CA  HIS X   3      -0.813  -2.088  19.623  1.00 22.38 LIG 0.18  C 
BRANCH 43 44
ATOM     44  CB  HIS X   3      -2.276  -2.537  19.316  1.00 22.51 LIG 0.10  C 
BRANCH 44 45
ATOM     45  CG  HIS X   3      -2.551  -2.910  17.887  1.00 18.10 LIG 0.06  A 
ATOM     46  CD2 HIS X   3      -2.735  -4.114  17.291  1.00 18.75 LIG 0.14  A 
ATOM     47 NE2  HIS X   3      -3.000  -3.874  15.962  1.00 20.06 LIG-0.25  NA
ATOM     48  CE1 HIS X   3      -2.995  -2.571  15.755  1.00 21.69 LIG 0.23  A 
ATOM     49 ND1  HIS X   3      -2.742  -1.968  16.904  1.00 17.48 LIG-0.24  NA
ENDBRANCH 44 45
ENDBRANCH 43 44
BRANCH 43 50
ATOM     50  C   HIS X   3       0.226  -3.089  19.120  1.00 21.59 LIG 0.24  C 
ATOM     51 O    HIS X   3       0.431  -4.155  19.688  1.00 25.47 LIG-0.27  OA
ATOM     52  N   HIS X   4       0.920  -2.694  18.073  1.00 25.63 LIG-0.35  N 
ATOM     53 H    HIS X   4       0.813  -1.937  17.678  1.00 25.63 LIG 0.16  HD
BRANCH 52 54
ATOM     54  CA  HIS X   4       1.959  -3.548  17.491  1.00 23.96 LIG 0.17  C 
BRANCH 54 55
ATOM     55  C   HIS X   4       2.648  -2.769  16.365  1.00 31.35 LIG 0.22  C 
ATOM     56 O    HIS X   4       3.788  -2.322  16.501  1.00 37.06 LIG-0.29  OA
ENDBRANCH 54 55
BRANCH 54 57
ATOM     57  CB  HIS X   4       1.388  -4.876  16.981  1.00 23.83 LIG 0.09  C 
BRANCH 57 58
ATOM     58  CG  HIS X   4       0.966  -4.846  15.535  1.00 22.57 LIG 0.06  A 
ATOM     59 ND1  HIS X   4       1.579  -5.604  14.554  1.00 22.63 LIG-0.24  NA
ATOM     60  CE1 HIS X   4       0.991  -5.372  13.392  1.00 19.94 LIG 0.23  A 
ATOM     61 NE2  HIS X   4       0.034  -4.483  13.578  1.00 20.25 LIG-0.25  NA
ATOM     62  CD2 HIS X   4      -0.011  -4.149  14.911  1.00 21.52 LIG 0.14  A 
ENDBRANCH 57 58
ENDBRANCH 54 57
ENDBRANCH 52 54
ENDBRANCH 43 50
ENDBRANCH 40 43
ENDBRANCH 38 39
BRANCH 38 63
ATOM     63  CB  HIS X   2       1.460   1.183  17.516  1.00 28.74 LIG 0.10  C 
BRANCH 63 64
ATOM     64  CG  HIS X   2       2.917   0.877  17.621  1.00 28.63 LIG 0.06  A 
ATOM     65 ND1  HIS X   2       3.774   1.013  16.556  1.00 31.27 LIG-0.24  NA
ATOM     66  CE1 HIS X   2       4.998   0.694  16.934  1.00 28.11 LIG 0.23  A 
ATOM     67 NE2  HIS X   2       4.966   0.346  18.205  1.00 29.87 LIG-0.25  NA
ATOM     68  CD2 HIS X   2       3.673   0.460  18.664  1.00 31.84 LIG 0.14  A 
ENDBRANCH 63 64
ENDBRANCH 38 63
ENDBRANCH 3 38
TORSDOF 24
ENDMDL
MODEL 11
USER: ADFR SOLUTION from run 132
USER: SCORE 16.332079 LL:  -5.399 LR: -13.471 RR:   0.000 FEB:  -6.311
USER: RMSD 4.007258
USER: SEED 131
USER: STATUS no improvement in best in 5 clusters for 5 generations
USER: GENES 26
USER: genes 0 Translation |==|  0.38431 0.64365 0.56760
USER: genes 1 Rotation |==|  0.38002 0.40929 0.35996 0.95581
USER: genes 2 Torsion [N]-C--CA-[N] |==|  0.16619
USER: genes 3 Torsion [C]-CA--N-[C] |==|  0.73083
USER: genes 4 Torsion [N]-C--CA-[N] |==|  0.95747
USER: genes 5 Torsion [C]-CA--N-[C] |==|  0.65698
USER: genes 6 Torsion [N]-C--CA-[N] |==|  0.23135
USER: genes 7 Torsion [C]-CA--N-[H2] |==|  0.85440
USER: genes 8 Torsion [C]-CA--CB-[CG] |==|  0.21428
USER: genes 9 Torsion [CA]-CB--CG-[ND1] |==|  0.13377
USER: genes 10 Torsion [C]-CA--CB-[CG] |==|  0.64116
USER: genes 11 Torsion [CA]-CB--CG-[CD2] |==|  0.63936
USER: genes 12 Torsion [C]-CA--CB-[CG] |==|  0.47483
USER: genes 13 Torsion [CA]-CB--CG-[CD2] |==|  0.63153
USER: genes 14 Torsion [C]-N--CA-[C] |==|  0.75772
USER: genes 15 Torsion [N]-CA--C-[N] |==|  0.35042
USER: genes 16 Torsion [C]-N--CA-[CB] |==|  0.37391
USER: genes 17 Torsion [N]-CA--CB-[CG] |==|  0.78646
USER: genes 18 Torsion [CA]-CB--CG-[ND1] |==|  0.57145
USER: genes 19 Torsion [N]-CA--C-[N] |==|  0.03436
USER: genes 20 Torsion [C]-N--CA-[C] |==|  0.85597
USER: genes 21 Torsion [N]-CA--C-[O] |==|  0.63577
USER: genes 22 Torsion [N]-CA--CB-[CG] |==|  0.75291
USER: genes 23 Torsion [CA]-CB--CG-[ND1] |==|  0.15272
USER: genes 24 Torsion [N]-CA--CB-[CG] |==|  0.72675
USER: genes 25 Torsion [CA]-CB--CG-[CD2] |==|  0.15403
ROOT
ATOM      1  C   HIS X   1       0.287   3.465  20.787  1.00 40.87 LIG 0.24  C 
ATOM      2 O    HIS X   1      -0.709   4.038  20.335  1.00 40.80 LIG-0.27  OA
ATOM      3  N   HIS X   2       0.474   2.161  20.769  1.00 30.16 LIG-0.35  N 
ATOM      4 H    HIS X   2       1.168   1.778  21.105  1.00 30.16 LIG 0.16  HD
ENDROOT
BRANCH 1 5
ATOM      5  CA  HIS X   1       1.439   4.218  21.420  1.00 48.06 LIG 0.18  C 
BRANCH 5 6
ATOM      6  N   HIS X   1       2.669   3.951  20.670  1.00 54.11 LIG-0.35  N 
ATOM      7 H    HIS X   1       2.767   4.444  19.972  1.00 54.11 LIG 0.16  HD
ATOM      8  C   HIS X   0       3.541   3.035  21.040  1.00 58.54 LIG 0.24  C 
ATOM      9 O    HIS X   0       3.312   2.172  21.889  1.00 63.37 LIG-0.27  OA
BRANCH 8 10
ATOM     10  CA  HIS X   0       4.877   3.129  20.322  1.00 62.53 LIG 0.18  C 
BRANCH 10 11
ATOM     11  N   HIS X   0       4.809   3.976  19.125  1.00 60.73 LIG-0.35  N 
ATOM     12  C   HIS X  -1       5.157   3.508  17.937  1.00 60.09 LIG 0.25  C 
ATOM     13 O    HIS X  -1       5.121   2.312  17.640  1.00 62.79 LIG-0.27  OA
ATOM     14 H    HIS X   0       4.532   4.777  19.268  1.00 60.73 LIG 0.16  HD
BRANCH 12 15
ATOM     15  CA  HIS X  -1       5.578   4.570  16.928  1.00 59.53 LIG 0.28  C 
BRANCH 15 16
ATOM     16  N   HIS X  -1       7.021   4.930  17.136  1.00 57.14 LIG-0.07  N 
ATOM     17 H3   HIS X  -1       7.534   4.235  16.922  1.00 57.14 LIG 0.28  HD
ATOM     18 H2   HIS X  -1       7.154   5.143  17.990  1.00 57.14 LIG 0.28  HD
ATOM     19 H1   HIS X  -1       7.232   5.624  16.620  1.00 57.14 LIG 0.28  HD
ENDBRANCH 15 16
BRANCH 15 20
ATOM     20  CB  HIS X  -1       5.344   4.093  15.494  1.00 57.27 LIG 0.10  C 
BRANCH 20 21
ATOM     21  CG  HIS X  -1       3.914   4.156  15.063  1.00 54.13 LIG 0.06  A 
ATOM     22 ND1  HIS X  -1       3.127   5.271  15.255  1.00 52.72 LIG-0.24  NA
ATOM     23  CE1 HIS X  -1       1.911   5.033  14.794  1.00 54.35 LIG 0.23  A 
ATOM     24 NE2  HIS X  -1       1.880   3.802  14.310  1.00 53.65 LIG-0.25  NA
ATOM     25  CD2 HIS X  -1       3.123   3.233  14.465  1.00 55.23 LIG 0.14  A 
ENDBRANCH 20 21
ENDBRANCH 15 20
ENDBRANCH 12 15
ENDBRANCH 10 11
BRANCH 10 26
ATOM     26  CB  HIS X   0       5.969   3.610  21.301  1.00 64.99 LIG 0.10  C 
BRANCH 26 27
ATOM     27  CG  HIS X   0       6.781   4.769  20.796  1.00 69.41 LIG 0.06  A 
ATOM     28 ND1  HIS X   0       6.206   5.924  20.303  1.00 72.01 LIG-0.24  NA
ATOM     29  CE1 HIS X   0       7.157   6.768  19.941  1.00 72.69 LIG 0.23  A 
ATOM     30 NE2  HIS X   0       8.328   6.206  20.185  1.00 72.94 LIG-0.25  NA
ATOM     31  CD2 HIS X   0       8.121   4.957  20.724  1.00 71.12 LIG 0.14  A 
ENDBRANCH 26 27
ENDBRANCH 10 26
ENDBRANCH 8 10
ENDBRANCH 5 6
BRANCH 5 32
ATOM     32  CB  HIS X   1       1.143   5.716  21.437  1.00 48.25 LIG 0.10  C 
BRANCH 32 33
ATOM     33  CG  HIS X   1       2.127   6.513  22.236  1.00 50.36 LIG 0.06  A 
ATOM     34  CD2 HIS X   1       1.940   7.477  23.171  1.00 51.47 LIG 0.14  A 
ATOM     35 NE2  HIS X   1       3.185   7.873  23.598  1.00 50.72 LIG-0.25  NA
ATOM     36  CE1 HIS X   1       4.102   7.177  22.948  1.00 48.50 LIG 0.23  A 
ATOM     37 ND1  HIS X   1       3.492   6.350  22.119  1.00 47.89 LIG-0.24  NA
ENDBRANCH 32 33
ENDBRANCH 5 32
ENDBRANCH 1 5
BRANCH 3 38
ATOM     38  CA  HIS X   2      -0.494   1.218  20.164  1.00 26.25 LIG 0.18  C 
BRANCH 38 39
ATOM     39  C   HIS X   2      -1.583   0.782  21.139  1.00 23.72 LIG 0.24  C 
ATOM     40  N   HIS X   3      -2.814   0.972  20.694  1.00 22.33 LIG-0.35  N 
ATOM     41 H    HIS X   3      -2.997   1.326  19.931  1.00 22.33 LIG 0.16  HD
ATOM     42 O    HIS X   2      -1.325   0.306  22.255  1.00 19.88 LIG-0.27  OA
BRANCH 40 43
ATOM     43  CA  HIS X   3      -3.998   0.588  21.480  1.00 22.38 LIG 0.18  C 
BRANCH 43 44
ATOM     44  CB  HIS X   3      -5.106   1.687  21.506  1.00 22.51 LIG 0.10  C 
BRANCH 44 45
ATOM     45  CG  HIS X   3      -4.843   2.849  22.421  1.00 18.10 LIG 0.06  A 
ATOM     46  CD2 HIS X   3      -3.686   3.425  22.833  1.00 18.75 LIG 0.14  A 
ATOM     47 NE2  HIS X   3      -4.025   4.492  23.633  1.00 20.06 LIG-0.25  NA
ATOM     48  CE1 HIS X   3      -5.341   4.576  23.697  1.00 21.69 LIG 0.23  A 
ATOM     49 ND1  HIS X   3      -5.855   3.605  22.960  1.00 17.48 LIG-0.24  NA
ENDBRANCH 44 45
ENDBRANCH 43 44
BRANCH 43 50
ATOM     50  C   HIS X   3      -4.532  -0.776  21.045  1.00 21.59 LIG 0.24  C 
ATOM     51 O    HIS X   3      -5.605  -1.212  21.447  1.00 25.47 LIG-0.27  OA
ATOM     52  N   HIS X   4      -3.730  -1.466  20.262  1.00 25.63 LIG-0.35  N 
ATOM     53 H    HIS X   4      -2.961  -1.191  19.993  1.00 25.63 LIG 0.16  HD
BRANCH 52 54
ATOM     54  CA  HIS X   4      -4.109  -2.797  19.778  1.00 23.96 LIG 0.17  C 
BRANCH 54 55
ATOM     55  C   HIS X   4      -4.522  -3.649  20.983  1.00 31.35 LIG 0.22  C 
ATOM     56 O    HIS X   4      -4.071  -4.783  21.149  1.00 37.06 LIG-0.29  OA
ENDBRANCH 54 55
BRANCH 54 57
ATOM     57  CB  HIS X   4      -2.975  -3.462  18.988  1.00 23.83 LIG 0.09  C 
BRANCH 57 58
ATOM     58  CG  HIS X   4      -2.990  -3.147  17.515  1.00 22.57 LIG 0.06  A 
ATOM     59 ND1  HIS X   4      -2.986  -1.857  17.019  1.00 22.63 LIG-0.24  NA
ATOM     60  CE1 HIS X   4      -2.995  -1.897  15.697  1.00 19.94 LIG 0.23  A 
ATOM     61 NE2  HIS X   4      -3.022  -3.161  15.318  1.00 20.25 LIG-0.25  NA
ATOM     62  CD2 HIS X   4      -3.005  -3.962  16.436  1.00 21.52 LIG 0.14  A 
ENDBRANCH 57 58
ENDBRANCH 54 57
ENDBRANCH 52 54
ENDBRANCH 43 50
ENDBRANCH 40 43
ENDBRANCH 38 39
BRANCH 38 63
ATOM     63  CB  HIS X   2       0.221  -0.021  19.612  1.00 28.74 LIG 0.10  C 
BRANCH 63 64
ATOM     64  CG  HIS X   2       0.472   0.036  18.142  1.00 28.63 LIG 0.06  A 
ATOM     65 ND1  HIS X   2       0.020  -0.936  17.281  1.00 31.27 LIG-0.24  NA
ATOM     66  CE1 HIS X   2       0.367  -0.625  16.046  1.00 28.11 LIG 0.23  A 
ATOM     67 NE2  HIS X   2       1.038   0.510  16.074  1.00 29.87 LIG-0.25  NA
ATOM     68  CD2 HIS X   2       1.111   0.951  17.375  1.00 31.84 LIG 0.14  A 
ENDBRANCH 63 64
ENDBRANCH 38 63
ENDBRANCH 3 38
TORSDOF 24
ENDMDL
MODEL 12
USER: ADFR SOLUTION from run 87
USER: SCORE 17.216235 LL:  -5.795 LR: -13.425 RR:   0.000 FEB:  -6.266
USER: RMSD 3.686986
USER: SEED 86
USER: STATUS no improvement in best in 7 clusters for 5 generations
USER: GENES 26
USER: genes 0 Translation |==|  0.41844 0.61985 0.54228
USER: genes 1 Rotation |==|  0.52160 0.50480 0.49893 0.99951
USER: genes 2 Torsion [N]-C--CA-[N] |==|  0.05899
USER: genes 3 Torsion [C]-CA--N-[C] |==|  0.70215
USER: genes 4 Torsion [N]-C--CA-[N] |==|  0.88178
USER: genes 5 Torsion [C]-CA--N-[C] |==|  0.71311
USER: genes 6 Torsion [N]-C--CA-[N] |==|  0.19657
USER: genes 7 Torsion [C]-CA--N-[H2] |==|  0.10076
USER: genes 8 Torsion [C]-CA--CB-[CG] |==|  0.59897
USER: genes 9 Torsion [CA]-CB--CG-[ND1] |==|  0.81326
USER: genes 10 Torsion [C]-CA--CB-[CG] |==|  0.52828
USER: genes 11 Torsion [CA]-CB--CG-[CD2] |==|  0.72975
USER: genes 12 Torsion [C]-CA--CB-[CG] |==|  0.46001
USER: genes 13 Torsion [CA]-CB--CG-[CD2] |==|  0.90382
USER: genes 14 Torsion [C]-N--CA-[C] |==|  0.76146
USER: genes 15 Torsion [N]-CA--C-[N] |==|  0.29711
USER: genes 16 Torsion [C]-N--CA-[CB] |==|  0.40559
USER: genes 17 Torsion [N]-CA--CB-[CG] |==|  0.03954
USER: genes 18 Torsion [CA]-CB--CG-[ND1] |==|  0.31525
USER: genes 19 Torsion [N]-CA--C-[N] |==|  0.83365
USER: genes 20 Torsion [C]-N--CA-[C] |==|  0.58460
USER: genes 21 Torsion [N]-CA--C-[O] |==|  0.93932
USER: genes 22 Torsion [N]-CA--CB-[CG] |==|  0.97680
USER: genes 23 Torsion [CA]-CB--CG-[ND1] |==|  0.19229
USER: genes 24 Torsion [N]-CA--CB-[CG] |==|  0.85004
USER: genes 25 Torsion [CA]-CB--CG-[CD2] |==|  0.12799
ROOT
ATOM      1  C   HIS X   1       0.978   2.895  20.331  1.00 40.87 LIG 0.24  C 
ATOM      2 O    HIS X   1      -0.246   2.860  20.486  1.00 40.80 LIG-0.27  OA
ATOM      3  N   HIS X   2       1.650   2.128  19.494  1.00 30.16 LIG-0.35  N 
ATOM      4 H    HIS X   2       2.505   2.154  19.413  1.00 30.16 LIG 0.16  HD
ENDROOT
BRANCH 1 5
ATOM      5  CA  HIS X   1       1.868   3.850  21.098  1.00 48.06 LIG 0.18  C 
BRANCH 5 6
ATOM      6  N   HIS X   1       3.128   4.033  20.374  1.00 54.11 LIG-0.35  N 
ATOM      7 H    HIS X   1       3.056   4.510  19.661  1.00 54.11 LIG 0.16  HD
ATOM      8  C   HIS X   0       4.265   3.511  20.786  1.00 58.54 LIG 0.24  C 
ATOM      9 O    HIS X   0       4.347   2.647  21.661  1.00 63.37 LIG-0.27  OA
BRANCH 8 10
ATOM     10  CA  HIS X   0       5.492   4.069  20.083  1.00 62.53 LIG 0.18  C 
BRANCH 10 11
ATOM     11  N   HIS X   0       5.288   4.217  18.637  1.00 60.73 LIG-0.35  N 
ATOM     12  C   HIS X  -1       5.812   3.352  17.783  1.00 60.09 LIG 0.25  C 
ATOM     13 O    HIS X  -1       6.091   2.188  18.077  1.00 62.79 LIG-0.27  OA
ATOM     14 H    HIS X   0       4.812   4.895  18.409  1.00 60.73 LIG 0.16  HD
BRANCH 12 15
ATOM     15  CA  HIS X  -1       6.015   3.890  16.371  1.00 59.53 LIG 0.28  C 
BRANCH 15 16
ATOM     16  N   HIS X  -1       7.133   4.893  16.362  1.00 57.14 LIG-0.07  N 
ATOM     17 H3   HIS X  -1       7.478   4.946  15.544  1.00 57.14 LIG 0.28  HD
ATOM     18 H2   HIS X  -1       7.766   4.638  16.934  1.00 57.14 LIG 0.28  HD
ATOM     19 H1   HIS X  -1       6.818   5.690  16.604  1.00 57.14 LIG 0.28  HD
ENDBRANCH 15 16
BRANCH 15 20
ATOM     20  CB  HIS X  -1       6.301   2.757  15.384  1.00 57.27 LIG 0.10  C 
BRANCH 20 21
ATOM     21  CG  HIS X  -1       7.272   3.124  14.309  1.00 54.13 LIG 0.06  A 
ATOM     22 ND1  HIS X  -1       6.985   4.052  13.332  1.00 52.72 LIG-0.24  NA
ATOM     23  CE1 HIS X  -1       8.017   4.157  12.512  1.00 54.35 LIG 0.23  A 
ATOM     24 NE2  HIS X  -1       8.963   3.329  12.921  1.00 53.65 LIG-0.25  NA
ATOM     25  CD2 HIS X  -1       8.522   2.672  14.046  1.00 55.23 LIG 0.14  A 
ENDBRANCH 20 21
ENDBRANCH 15 20
ENDBRANCH 12 15
ENDBRANCH 10 11
BRANCH 10 26
ATOM     26  CB  HIS X   0       5.915   5.402  20.738  1.00 64.99 LIG 0.10  C 
BRANCH 26 27
ATOM     27  CG  HIS X   0       6.964   6.157  19.974  1.00 69.41 LIG 0.06  A 
ATOM     28 ND1  HIS X   0       6.661   6.993  18.918  1.00 72.01 LIG-0.24  NA
ATOM     29  CE1 HIS X   0       7.775   7.526  18.445  1.00 72.69 LIG 0.23  A 
ATOM     30 NE2  HIS X   0       8.789   7.071  19.159  1.00 72.94 LIG-0.25  NA
ATOM     31  CD2 HIS X   0       8.309   6.216  20.125  1.00 71.12 LIG 0.14  A 
ENDBRANCH 26 27
ENDBRANCH 10 26
ENDBRANCH 8 10
ENDBRANCH 5 6
BRANCH 5 32
ATOM     32  CB  HIS X   1       1.163   5.193  21.282  1.00 48.25 LIG 0.10  C 
BRANCH 32 33
ATOM     33  CG  HIS X   1       1.808   6.075  22.305  1.00 50.36 LIG 0.06  A 
ATOM     34  CD2 HIS X   1       2.438   5.775  23.468  1.00 51.47 LIG 0.14  A 
ATOM     35 NE2  HIS X   1       2.854   6.962  24.021  1.00 50.72 LIG-0.25  NA
ATOM     36  CE1 HIS X   1       2.493   7.955  23.225  1.00 48.50 LIG 0.23  A 
ATOM     37 ND1  HIS X   1       1.858   7.449  22.184  1.00 47.89 LIG-0.24  NA
ENDBRANCH 32 33
ENDBRANCH 5 32
ENDBRANCH 1 5
BRANCH 3 38
ATOM     38  CA  HIS X   2       0.994   1.143  18.605  1.00 26.25 LIG 0.18  C 
BRANCH 38 39
ATOM     39  C   HIS X   2       0.765  -0.205  19.282  1.00 23.72 LIG 0.24  C 
ATOM     40  N   HIS X   3      -0.499  -0.445  19.591  1.00 22.33 LIG-0.35  N 
ATOM     41 H    HIS X   3      -1.141   0.109  19.444  1.00 22.33 LIG 0.16  HD
ATOM     42 O    HIS X   2       1.691  -0.991  19.530  1.00 19.88 LIG-0.27  OA
BRANCH 40 43
ATOM     43  CA  HIS X   3      -0.923  -1.704  20.224  1.00 22.38 LIG 0.18  C 
BRANCH 43 44
ATOM     44  CB  HIS X   3      -2.111  -1.526  21.221  1.00 22.51 LIG 0.10  C 
BRANCH 44 45
ATOM     45  CG  HIS X   3      -2.839  -0.215  21.131  1.00 18.10 LIG 0.06  A 
ATOM     46  CD2 HIS X   3      -2.425   1.060  21.340  1.00 18.75 LIG 0.14  A 
ATOM     47 NE2  HIS X   3      -3.494   1.884  21.071  1.00 20.06 LIG-0.25  NA
ATOM     48  CE1 HIS X   3      -4.519   1.143  20.695  1.00 21.69 LIG 0.23  A 
ATOM     49 ND1  HIS X   3      -4.143  -0.125  20.709  1.00 17.48 LIG-0.24  NA
ENDBRANCH 44 45
ENDBRANCH 43 44
BRANCH 43 50
ATOM     50  C   HIS X   3      -1.190  -2.787  19.180  1.00 21.59 LIG 0.24  C 
ATOM     51 O    HIS X   3      -0.535  -3.822  19.134  1.00 25.47 LIG-0.27  OA
ATOM     52  N   HIS X   4      -2.128  -2.498  18.303  1.00 25.63 LIG-0.35  N 
ATOM     53 H    HIS X   4      -2.578  -1.765  18.299  1.00 25.63 LIG 0.16  HD
BRANCH 52 54
ATOM     54  CA  HIS X   4      -2.480  -3.439  17.236  1.00 23.96 LIG 0.17  C 
BRANCH 54 55
ATOM     55  C   HIS X   4      -2.952  -2.636  16.020  1.00 31.35 LIG 0.22  C 
ATOM     56 O    HIS X   4      -3.369  -1.482  16.138  1.00 37.06 LIG-0.29  OA
ENDBRANCH 54 55
BRANCH 54 57
ATOM     57  CB  HIS X   4      -3.549  -4.442  17.690  1.00 23.83 LIG 0.09  C 
BRANCH 57 58
ATOM     58  CG  HIS X   4      -3.859  -4.381  19.162  1.00 22.57 LIG 0.06  A 
ATOM     59 ND1  HIS X   4      -4.511  -3.315  19.753  1.00 22.63 LIG-0.24  NA
ATOM     60  CE1 HIS X   4      -4.646  -3.547  21.048  1.00 19.94 LIG 0.23  A 
ATOM     61 NE2  HIS X   4      -4.093  -4.713  21.322  1.00 20.25 LIG-0.25  NA
ATOM     62  CD2 HIS X   4      -3.607  -5.261  20.158  1.00 21.52 LIG 0.14  A 
ENDBRANCH 57 58
ENDBRANCH 54 57
ENDBRANCH 52 54
ENDBRANCH 43 50
ENDBRANCH 40 43
ENDBRANCH 38 39
BRANCH 38 63
ATOM     63  CB  HIS X   2       1.809   0.936  17.323  1.00 28.74 LIG 0.10  C 
BRANCH 63 64
ATOM     64  CG  HIS X   2       2.110   2.202  16.591  1.00 28.63 LIG 0.06  A 
ATOM     65 ND1  HIS X   2       1.928   2.327  15.234  1.00 31.27 LIG-0.24  NA
ATOM     66  CE1 HIS X   2       2.254   3.550  14.859  1.00 28.11 LIG 0.23  A 
ATOM     67 NE2  HIS X   2       2.651   4.222  15.921  1.00 29.87 LIG-0.25  NA
ATOM     68  CD2 HIS X   2       2.563   3.403  17.023  1.00 31.84 LIG 0.14  A 
ENDBRANCH 63 64
ENDBRANCH 38 63
ENDBRANCH 3 38
TORSDOF 24
ENDMDL
MODEL 13
USER: ADFR SOLUTION from run 108
USER: SCORE 17.806525 LL:  -5.930 LR: -13.432 RR:   0.000 FEB:  -6.273
USER: RMSD 3.174107
USER: SEED 107
USER: STATUS no improvement in best in 7 clusters for 5 generations
USER: GENES 26
USER: genes 0 Translation |==|  0.43706 0.61076 0.52651
USER: genes 1 Rotation |==|  0.55957 0.52829 0.53060 0.99469
USER: genes 2 Torsion [N]-C--CA-[N] |==|  0.02405
USER: genes 3 Torsion [C]-CA--N-[C] |==|  0.66461
USER: genes 4 Torsion [N]-C--CA-[N] |==|  0.92987
USER: genes 5 Torsion [C]-CA--N-[C] |==|  0.76667
USER: genes 6 Torsion [N]-C--CA-[N] |==|  0.13696
USER: genes 7 Torsion [C]-CA--N-[H2] |==|  0.77043
USER: genes 8 Torsion [C]-CA--CB-[CG] |==|  0.58603
USER: genes 9 Torsion [CA]-CB--CG-[ND1] |==|  0.82814
USER: genes 10 Torsion [C]-CA--CB-[CG] |==|  0.54842
USER: genes 11 Torsion [CA]-CB--CG-[CD2] |==|  0.70367
USER: genes 12 Torsion [C]-CA--CB-[CG] |==|  0.48360
USER: genes 13 Torsion [CA]-CB--CG-[CD2] |==|  0.95208
USER: genes 14 Torsion [C]-N--CA-[C] |==|  0.78604
USER: genes 15 Torsion [N]-CA--C-[N] |==|  0.32872
USER: genes 16 Torsion [C]-N--CA-[CB] |==|  0.50661
USER: genes 17 Torsion [N]-CA--CB-[CG] |==|  0.24514
USER: genes 18 Torsion [CA]-CB--CG-[ND1] |==|  0.79774
USER: genes 19 Torsion [N]-CA--C-[N] |==|  0.90173
USER: genes 20 Torsion [C]-N--CA-[C] |==|  0.74354
USER: genes 21 Torsion [N]-CA--C-[O] |==|  0.83689
USER: genes 22 Torsion [N]-CA--CB-[CG] |==|  0.64361
USER: genes 23 Torsion [CA]-CB--CG-[ND1] |==|  0.17852
USER: genes 24 Torsion [N]-CA--CB-[CG] |==|  0.82251
USER: genes 25 Torsion [CA]-CB--CG-[CD2] |==|  0.64842
ROOT
ATOM      1  C   HIS X   1       1.356   2.676  20.047  1.00 40.87 LIG 0.24  C 
ATOM      2 O    HIS X   1       0.165   2.454  20.289  1.00 40.80 LIG-0.27  OA
ATOM      3  N   HIS X   2       2.030   2.140  19.049  1.00 30.16 LIG-0.35  N 
ATOM      4 H    HIS X   2       2.864   2.293  18.907  1.00 30.16 LIG 0.16  HD
ENDROOT
BRANCH 1 5
ATOM      5  CA  HIS X   1       2.193   3.620  20.884  1.00 48.06 LIG 0.18  C 
BRANCH 5 6
ATOM      6  N   HIS X   1       3.485   3.840  20.229  1.00 54.11 LIG-0.35  N 
ATOM      7 H    HIS X   1       3.424   4.175  19.440  1.00 54.11 LIG 0.16  HD
ATOM      8  C   HIS X   0       4.632   3.548  20.807  1.00 58.54 LIG 0.24  C 
ATOM      9 O    HIS X   0       4.733   2.863  21.827  1.00 63.37 LIG-0.27  OA
BRANCH 8 10
ATOM     10  CA  HIS X   0       5.845   4.133  20.104  1.00 62.53 LIG 0.18  C 
BRANCH 10 11
ATOM     11  N   HIS X   0       5.599   4.379  18.678  1.00 60.73 LIG-0.35  N 
ATOM     12  C   HIS X  -1       5.735   3.412  17.785  1.00 60.09 LIG 0.25  C 
ATOM     13 O    HIS X  -1       5.624   2.214  18.057  1.00 62.79 LIG-0.27  OA
ATOM     14 H    HIS X   0       5.365   5.184  18.488  1.00 60.73 LIG 0.16  HD
BRANCH 12 15
ATOM     15  CA  HIS X  -1       6.005   3.886  16.362  1.00 59.53 LIG 0.28  C 
BRANCH 15 16
ATOM     16  N   HIS X  -1       7.120   4.893  16.362  1.00 57.14 LIG-0.07  N 
ATOM     17 H3   HIS X  -1       7.732   4.658  16.964  1.00 57.14 LIG 0.28  HD
ATOM     18 H2   HIS X  -1       6.795   5.696  16.568  1.00 57.14 LIG 0.28  HD
ATOM     19 H1   HIS X  -1       7.494   4.922  15.555  1.00 57.14 LIG 0.28  HD
ENDBRANCH 15 16
BRANCH 15 20
ATOM     20  CB  HIS X  -1       6.340   2.712  15.442  1.00 57.27 LIG 0.10  C 
BRANCH 20 21
ATOM     21  CG  HIS X  -1       7.278   3.063  14.332  1.00 54.13 LIG 0.06  A 
ATOM     22 ND1  HIS X  -1       6.969   3.994  13.364  1.00 52.72 LIG-0.24  NA
ATOM     23  CE1 HIS X  -1       7.972   4.083  12.507  1.00 54.35 LIG 0.23  A 
ATOM     24 NE2  HIS X  -1       8.920   3.242  12.884  1.00 53.65 LIG-0.25  NA
ATOM     25  CD2 HIS X  -1       8.510   2.593  14.025  1.00 55.23 LIG 0.14  A 
ENDBRANCH 20 21
ENDBRANCH 15 20
ENDBRANCH 12 15
ENDBRANCH 10 11
BRANCH 10 26
ATOM     26  CB  HIS X   0       6.311   5.413  20.831  1.00 64.99 LIG 0.10  C 
BRANCH 26 27
ATOM     27  CG  HIS X   0       7.216   6.289  20.015  1.00 69.41 LIG 0.06  A 
ATOM     28 ND1  HIS X   0       6.757   7.072  18.974  1.00 72.01 LIG-0.24  NA
ATOM     29  CE1 HIS X   0       7.769   7.739  18.445  1.00 72.69 LIG 0.23  A 
ATOM     30 NE2  HIS X   0       8.867   7.422  19.108  1.00 72.94 LIG-0.25  NA
ATOM     31  CD2 HIS X   0       8.549   6.520  20.098  1.00 71.12 LIG 0.14  A 
ENDBRANCH 26 27
ENDBRANCH 10 26
ENDBRANCH 8 10
ENDBRANCH 5 6
BRANCH 5 32
ATOM     32  CB  HIS X   1       1.461   4.947  21.072  1.00 48.25 LIG 0.10  C 
BRANCH 32 33
ATOM     33  CG  HIS X   1       2.156   5.890  22.005  1.00 50.36 LIG 0.06  A 
ATOM     34  CD2 HIS X   1       3.125   5.674  22.928  1.00 51.47 LIG 0.14  A 
ATOM     35 NE2  HIS X   1       3.413   6.889  23.504  1.00 50.72 LIG-0.25  NA
ATOM     36  CE1 HIS X   1       2.649   7.816  22.952  1.00 48.50 LIG 0.23  A 
ATOM     37 ND1  HIS X   1       1.880   7.241  22.046  1.00 47.89 LIG-0.24  NA
ENDBRANCH 32 33
ENDBRANCH 5 32
ENDBRANCH 1 5
BRANCH 3 38
ATOM     38  CA  HIS X   2       1.415   1.216  18.069  1.00 26.25 LIG 0.18  C 
BRANCH 38 39
ATOM     39  C   HIS X   2       1.223  -0.192  18.622  1.00 23.72 LIG 0.24  C 
ATOM     40  N   HIS X   3      -0.040  -0.585  18.669  1.00 22.33 LIG-0.35  N 
ATOM     41 H    HIS X   3      -0.703  -0.093  18.429  1.00 22.33 LIG 0.16  HD
ATOM     42 O    HIS X   2       2.172  -0.892  19.005  1.00 19.88 LIG-0.27  OA
BRANCH 40 43
ATOM     43  CA  HIS X   3      -0.424  -1.923  19.146  1.00 22.38 LIG 0.18  C 
BRANCH 43 44
ATOM     44  CB  HIS X   3      -1.959  -2.194  19.061  1.00 22.51 LIG 0.10  C 
BRANCH 44 45
ATOM     45  CG  HIS X   3      -2.444  -2.759  17.756  1.00 18.10 LIG 0.06  A 
ATOM     46  CD2 HIS X   3      -2.940  -3.980  17.434  1.00 18.75 LIG 0.14  A 
ATOM     47 NE2  HIS X   3      -3.274  -3.943  16.099  1.00 20.06 LIG-0.25  NA
ATOM     48  CE1 HIS X   3      -3.006  -2.741  15.625  1.00 21.69 LIG 0.23  A 
ATOM     49 ND1  HIS X   3      -2.519  -2.005  16.610  1.00 17.48 LIG-0.24  NA
ENDBRANCH 44 45
ENDBRANCH 43 44
BRANCH 43 50
ATOM     50  C   HIS X   3       0.403  -3.013  18.464  1.00 21.59 LIG 0.24  C 
ATOM     51 O    HIS X   3       0.796  -4.005  19.067  1.00 25.47 LIG-0.27  OA
ATOM     52  N   HIS X   4       0.710  -2.776  17.206  1.00 25.63 LIG-0.35  N 
ATOM     53 H    HIS X   4       0.470  -2.072  16.773  1.00 25.63 LIG 0.16  HD
BRANCH 52 54
ATOM     54  CA  HIS X   4       1.509  -3.729  16.432  1.00 23.96 LIG 0.17  C 
BRANCH 54 55
ATOM     55  C   HIS X   4       2.984  -3.333  16.553  1.00 31.35 LIG 0.22  C 
ATOM     56 O    HIS X   4       3.379  -2.222  16.195  1.00 37.06 LIG-0.29  OA
ENDBRANCH 54 55
BRANCH 54 57
ATOM     57  CB  HIS X   4       1.067  -3.786  14.964  1.00 23.83 LIG 0.09  C 
BRANCH 57 58
ATOM     58  CG  HIS X   4       0.789  -5.178  14.462  1.00 22.57 LIG 0.06  A 
ATOM     59 ND1  HIS X   4      -0.230  -5.971  14.959  1.00 22.63 LIG-0.24  NA
ATOM     60  CE1 HIS X   4      -0.232  -7.131  14.324  1.00 19.94 LIG 0.23  A 
ATOM     61 NE2  HIS X   4       0.755  -7.127  13.447  1.00 20.25 LIG-0.25  NA
ATOM     62  CD2 HIS X   4       1.398  -5.914  13.505  1.00 21.52 LIG 0.14  A 
ENDBRANCH 57 58
ENDBRANCH 54 57
ENDBRANCH 52 54
ENDBRANCH 43 50
ENDBRANCH 40 43
ENDBRANCH 38 39
BRANCH 38 63
ATOM     63  CB  HIS X   2       2.249   1.149  16.784  1.00 28.74 LIG 0.10  C 
BRANCH 63 64
ATOM     64  CG  HIS X   2       2.320   2.444  16.045  1.00 28.63 LIG 0.06  A 
ATOM     65 ND1  HIS X   2       2.739   3.609  16.643  1.00 31.27 LIG-0.24  NA
ATOM     66  CE1 HIS X   2       2.720   4.588  15.758  1.00 28.11 LIG 0.23  A 
ATOM     67 NE2  HIS X   2       2.293   4.104  14.608  1.00 29.87 LIG-0.25  NA
ATOM     68  CD2 HIS X   2       2.044   2.759  14.758  1.00 31.84 LIG 0.14  A 
ENDBRANCH 63 64
ENDBRANCH 38 63
ENDBRANCH 3 38
TORSDOF 24
ENDMDL
MODEL 14
USER: ADFR SOLUTION from run 148
USER: SCORE 18.049187 LL:  -6.591 LR: -13.394 RR:   0.000 FEB:  -6.235
USER: RMSD 3.751888
USER: SEED 147
USER: STATUS no improvement in best in 31 clusters for 5 generations
USER: GENES 26
USER: genes 0 Translation |==|  0.41635 0.59900 0.53552
USER: genes 1 Rotation |==|  0.49626 0.54164 0.50605 0.99821
USER: genes 2 Torsion [N]-C--CA-[N] |==|  0.08316
USER: genes 3 Torsion [C]-CA--N-[C] |==|  0.71656
USER: genes 4 Torsion [N]-C--CA-[N] |==|  0.88083
USER: genes 5 Torsion [C]-CA--N-[C] |==|  0.63976
USER: genes 6 Torsion [N]-C--CA-[N] |==|  0.55878
USER: genes 7 Torsion [C]-CA--N-[H2] |==|  0.93735
USER: genes 8 Torsion [C]-CA--CB-[CG] |==|  0.81955
USER: genes 9 Torsion [CA]-CB--CG-[ND1] |==|  0.73735
USER: genes 10 Torsion [C]-CA--CB-[CG] |==|  0.44007
USER: genes 11 Torsion [CA]-CB--CG-[CD2] |==|  0.93727
USER: genes 12 Torsion [C]-CA--CB-[CG] |==|  0.47057
USER: genes 13 Torsion [CA]-CB--CG-[CD2] |==|  0.95995
USER: genes 14 Torsion [C]-N--CA-[C] |==|  0.82398
USER: genes 15 Torsion [N]-CA--C-[N] |==|  0.35000
USER: genes 16 Torsion [C]-N--CA-[CB] |==|  0.24226
USER: genes 17 Torsion [N]-CA--CB-[CG] |==|  0.11866
USER: genes 18 Torsion [CA]-CB--CG-[ND1] |==|  0.68019
USER: genes 19 Torsion [N]-CA--C-[N] |==|  0.28350
USER: genes 20 Torsion [C]-N--CA-[C] |==|  0.60486
USER: genes 21 Torsion [N]-CA--C-[O] |==|  0.46755
USER: genes 22 Torsion [N]-CA--CB-[CG] |==|  0.00323
USER: genes 23 Torsion [CA]-CB--CG-[ND1] |==|  0.79640
USER: genes 24 Torsion [N]-CA--CB-[CG] |==|  0.06549
USER: genes 25 Torsion [CA]-CB--CG-[CD2] |==|  0.68615
ROOT
ATOM      1  C   HIS X   1       0.936   2.394  20.209  1.00 40.87 LIG 0.24  C 
ATOM      2 O    HIS X   1      -0.251   2.341  20.546  1.00 40.80 LIG-0.27  OA
ATOM      3  N   HIS X   2       1.512   1.565  19.361  1.00 30.16 LIG-0.35  N 
ATOM      4 H    HIS X   2       2.345   1.607  19.152  1.00 30.16 LIG 0.16  HD
ENDROOT
BRANCH 1 5
ATOM      5  CA  HIS X   1       1.885   3.448  20.740  1.00 48.06 LIG 0.18  C 
BRANCH 5 6
ATOM      6  N   HIS X   1       2.905   3.741  19.730  1.00 54.11 LIG-0.35  N 
ATOM      7 H    HIS X   1       2.632   4.252  19.095  1.00 54.11 LIG 0.16  HD
ATOM      8  C   HIS X   0       4.129   3.259  19.798  1.00 58.54 LIG 0.24  C 
ATOM      9 O    HIS X   0       4.469   2.352  20.561  1.00 63.37 LIG-0.27  OA
BRANCH 8 10
ATOM     10  CA  HIS X   0       5.108   3.922  18.844  1.00 62.53 LIG 0.18  C 
BRANCH 10 11
ATOM     11  N   HIS X   0       4.532   4.133  17.511  1.00 60.73 LIG-0.35  N 
ATOM     12  C   HIS X  -1       5.175   3.745  16.421  1.00 60.09 LIG 0.25  C 
ATOM     13 O    HIS X  -1       6.007   2.835  16.409  1.00 62.79 LIG-0.27  OA
ATOM     14 H    HIS X   0       3.764   4.520  17.508  1.00 60.73 LIG 0.16  HD
BRANCH 12 15
ATOM     15  CA  HIS X  -1       4.783   4.486  15.148  1.00 59.53 LIG 0.28  C 
BRANCH 15 16
ATOM     16  N   HIS X  -1       5.151   3.665  13.945  1.00 57.14 LIG-0.07  N 
ATOM     17 H3   HIS X  -1       4.437   3.217  13.662  1.00 57.14 LIG 0.28  HD
ATOM     18 H2   HIS X  -1       5.794   3.089  14.164  1.00 57.14 LIG 0.28  HD
ATOM     19 H1   HIS X  -1       5.441   4.202  13.296  1.00 57.14 LIG 0.28  HD
ENDBRANCH 15 16
BRANCH 15 20
ATOM     20  CB  HIS X  -1       3.291   4.817  15.137  1.00 57.27 LIG 0.10  C 
BRANCH 20 21
ATOM     21  CG  HIS X  -1       2.406   3.614  15.093  1.00 54.13 LIG 0.06  A 
ATOM     22 ND1  HIS X  -1       1.906   3.101  13.915  1.00 52.72 LIG-0.24  NA
ATOM     23  CE1 HIS X  -1       1.144   2.054  14.183  1.00 54.35 LIG 0.23  A 
ATOM     24 NE2  HIS X  -1       1.130   1.870  15.492  1.00 53.65 LIG-0.25  NA
ATOM     25  CD2 HIS X  -1       1.914   2.833  16.085  1.00 55.23 LIG 0.14  A 
ENDBRANCH 20 21
ENDBRANCH 15 20
ENDBRANCH 12 15
ENDBRANCH 10 11
BRANCH 10 26
ATOM     26  CB  HIS X   0       5.630   5.241  19.455  1.00 64.99 LIG 0.10  C 
BRANCH 26 27
ATOM     27  CG  HIS X   0       6.935   5.711  18.879  1.00 69.41 LIG 0.06  A 
ATOM     28 ND1  HIS X   0       7.351   7.026  18.950  1.00 72.01 LIG-0.24  NA
ATOM     29  CE1 HIS X   0       8.533   7.145  18.371  1.00 72.69 LIG 0.23  A 
ATOM     30 NE2  HIS X   0       8.903   5.955  17.931  1.00 72.94 LIG-0.25  NA
ATOM     31  CD2 HIS X   0       7.923   5.040  18.240  1.00 71.12 LIG 0.14  A 
ENDBRANCH 26 27
ENDBRANCH 10 26
ENDBRANCH 8 10
ENDBRANCH 5 6
BRANCH 5 32
ATOM     32  CB  HIS X   1       1.114   4.718  21.097  1.00 48.25 LIG 0.10  C 
BRANCH 32 33
ATOM     33  CG  HIS X   1       1.926   5.719  21.859  1.00 50.36 LIG 0.06  A 
ATOM     34  CD2 HIS X   1       3.115   5.598  22.499  1.00 51.47 LIG 0.14  A 
ATOM     35 NE2  HIS X   1       3.417   6.829  23.029  1.00 50.72 LIG-0.25  NA
ATOM     36  CE1 HIS X   1       2.448   7.675  22.724  1.00 48.50 LIG 0.23  A 
ATOM     37 ND1  HIS X   1       1.535   7.032  22.021  1.00 47.89 LIG-0.24  NA
ENDBRANCH 32 33
ENDBRANCH 5 32
ENDBRANCH 1 5
BRANCH 3 38
ATOM     38  CA  HIS X   2       0.778   0.476  18.679  1.00 26.25 LIG 0.18  C 
BRANCH 38 39
ATOM     39  C   HIS X   2       0.230  -0.567  19.648  1.00 23.72 LIG 0.24  C 
ATOM     40  N   HIS X   3      -1.068  -0.789  19.525  1.00 22.33 LIG-0.35  N 
ATOM     41 H    HIS X   3      -1.572  -0.376  18.963  1.00 22.33 LIG 0.16  HD
ATOM     42 O    HIS X   2       0.946  -1.138  20.484  1.00 19.88 LIG-0.27  OA
BRANCH 40 43
ATOM     43  CA  HIS X   3      -1.773  -1.780  20.353  1.00 22.38 LIG 0.18  C 
BRANCH 43 44
ATOM     44  CB  HIS X   3      -2.276  -1.204  21.714  1.00 22.51 LIG 0.10  C 
BRANCH 44 45
ATOM     45  CG  HIS X   3      -2.899   0.162  21.646  1.00 18.10 LIG 0.06  A 
ATOM     46  CD2 HIS X   3      -4.061   0.595  21.097  1.00 18.75 LIG 0.14  A 
ATOM     47 NE2  HIS X   3      -4.162   1.940  21.367  1.00 20.06 LIG-0.25  NA
ATOM     48  CE1 HIS X   3      -3.109   2.316  22.068  1.00 21.69 LIG 0.23  A 
ATOM     49 ND1  HIS X   3      -2.340   1.257  22.262  1.00 17.48 LIG-0.24  NA
ENDBRANCH 44 45
ENDBRANCH 43 44
BRANCH 43 50
ATOM     50  C   HIS X   3      -2.883  -2.472  19.563  1.00 21.59 LIG 0.24  C 
ATOM     51 O    HIS X   3      -3.981  -1.955  19.394  1.00 25.47 LIG-0.27  OA
ATOM     52  N   HIS X   4      -2.592  -3.683  19.135  1.00 25.63 LIG-0.35  N 
ATOM     53 H    HIS X   4      -1.839  -4.076  19.268  1.00 25.63 LIG 0.16  HD
BRANCH 52 54
ATOM     54  CA  HIS X   4      -3.567  -4.469  18.374  1.00 23.96 LIG 0.17  C 
BRANCH 54 55
ATOM     55  C   HIS X   4      -3.446  -5.934  18.804  1.00 31.35 LIG 0.22  C 
ATOM     56 O    HIS X   4      -4.292  -6.769  18.476  1.00 37.06 LIG-0.29  OA
ENDBRANCH 54 55
BRANCH 54 57
ATOM     57  CB  HIS X   4      -3.370  -4.314  16.861  1.00 23.83 LIG 0.09  C 
BRANCH 57 58
ATOM     58  CG  HIS X   4      -2.216  -3.424  16.482  1.00 22.57 LIG 0.06  A 
ATOM     59 ND1  HIS X   4      -2.249  -2.048  16.615  1.00 22.63 LIG-0.24  NA
ATOM     60  CE1 HIS X   4      -1.096  -1.541  16.210  1.00 19.94 LIG 0.23  A 
ATOM     61 NE2  HIS X   4      -0.326  -2.532  15.803  1.00 20.25 LIG-0.25  NA
ATOM     62  CD2 HIS X   4      -0.997  -3.720  15.976  1.00 21.52 LIG 0.14  A 
ENDBRANCH 57 58
ENDBRANCH 54 57
ENDBRANCH 52 54
ENDBRANCH 43 50
ENDBRANCH 40 43
ENDBRANCH 38 39
BRANCH 38 63
ATOM     63  CB  HIS X   2       1.669  -0.215  17.639  1.00 28.74 LIG 0.10  C 
BRANCH 63 64
ATOM     64  CG  HIS X   2       3.130  -0.067  17.905  1.00 28.63 LIG 0.06  A 
ATOM     65 ND1  HIS X   2       3.744  -0.664  18.980  1.00 31.27 LIG-0.24  NA
ATOM     66  CE1 HIS X   2       5.034  -0.382  18.961  1.00 28.11 LIG 0.23  A 
ATOM     67 NE2  HIS X   2       5.278   0.387  17.917  1.00 29.87 LIG-0.25  NA
ATOM     68  CD2 HIS X   2       4.103   0.593  17.233  1.00 31.84 LIG 0.14  A 
ENDBRANCH 63 64
ENDBRANCH 38 63
ENDBRANCH 3 38
TORSDOF 24
ENDMDL
MODEL 15
USER: ADFR SOLUTION from run 148
USER: SCORE 17.853808 LL:  -5.605 LR: -13.379 RR:   0.000 FEB:  -6.219
USER: RMSD 3.917934
USER: SEED 147
USER: STATUS no improvement in best in 31 clusters for 5 generations
USER: GENES 26
USER: genes 0 Translation |==|  0.40713 0.61992 0.55496
USER: genes 1 Rotation |==|  0.56161 0.47494 0.52189 0.99507
USER: genes 2 Torsion [N]-C--CA-[N] |==|  0.06456
USER: genes 3 Torsion [C]-CA--N-[C] |==|  0.66740
USER: genes 4 Torsion [N]-C--CA-[N] |==|  0.85890
USER: genes 5 Torsion [C]-CA--N-[C] |==|  0.63201
USER: genes 6 Torsion [N]-C--CA-[N] |==|  0.41297
USER: genes 7 Torsion [C]-CA--N-[H2] |==|  0.05081
USER: genes 8 Torsion [C]-CA--CB-[CG] |==|  0.35214
USER: genes 9 Torsion [CA]-CB--CG-[ND1] |==|  0.83797
USER: genes 10 Torsion [C]-CA--CB-[CG] |==|  0.25060
USER: genes 11 Torsion [CA]-CB--CG-[CD2] |==|  0.75429
USER: genes 12 Torsion [C]-CA--CB-[CG] |==|  0.52857
USER: genes 13 Torsion [CA]-CB--CG-[CD2] |==|  0.77089
USER: genes 14 Torsion [C]-N--CA-[C] |==|  0.79332
USER: genes 15 Torsion [N]-CA--C-[N] |==|  0.28181
USER: genes 16 Torsion [C]-N--CA-[CB] |==|  0.86111
USER: genes 17 Torsion [N]-CA--CB-[CG] |==|  0.76981
USER: genes 18 Torsion [CA]-CB--CG-[ND1] |==|  0.95508
USER: genes 19 Torsion [N]-CA--C-[N] |==|  0.35200
USER: genes 20 Torsion [C]-N--CA-[C] |==|  0.65347
USER: genes 21 Torsion [N]-CA--C-[O] |==|  0.99091
USER: genes 22 Torsion [N]-CA--CB-[CG] |==|  0.99698
USER: genes 23 Torsion [CA]-CB--CG-[ND1] |==|  0.31031
USER: genes 24 Torsion [N]-CA--CB-[CG] |==|  0.63086
USER: genes 25 Torsion [CA]-CB--CG-[CD2] |==|  0.84739
ROOT
ATOM      1  C   HIS X   1       0.749   2.896  20.559  1.00 40.87 LIG 0.24  C 
ATOM      2 O    HIS X   1      -0.476   2.746  20.547  1.00 40.80 LIG-0.27  OA
ATOM      3  N   HIS X   2       1.582   2.331  19.707  1.00 30.16 LIG-0.35  N 
ATOM      4 H    HIS X   2       2.435   2.434  19.743  1.00 30.16 LIG 0.16  HD
ENDROOT
BRANCH 1 5
ATOM      5  CA  HIS X   1       1.450   3.776  21.573  1.00 48.06 LIG 0.18  C 
BRANCH 5 6
ATOM      6  N   HIS X   1       2.742   4.209  21.036  1.00 54.11 LIG-0.35  N 
ATOM      7 H    HIS X   1       2.684   4.663  20.309  1.00 54.11 LIG 0.16  HD
ATOM      8  C   HIS X   0       3.886   3.922  21.623  1.00 58.54 LIG 0.24  C 
ATOM      9 O    HIS X   0       4.007   3.089  22.524  1.00 63.37 LIG-0.27  OA
BRANCH 8 10
ATOM     10  CA  HIS X   0       5.068   4.715  21.092  1.00 62.53 LIG 0.18  C 
BRANCH 10 11
ATOM     11  N   HIS X   0       5.165   4.662  19.629  1.00 60.73 LIG-0.35  N 
ATOM     12  C   HIS X  -1       6.315   4.400  19.030  1.00 60.09 LIG 0.25  C 
ATOM     13 O    HIS X  -1       7.230   3.766  19.560  1.00 62.79 LIG-0.27  OA
ATOM     14 H    HIS X   0       4.427   4.813  19.215  1.00 60.73 LIG 0.16  HD
BRANCH 12 15
ATOM     15  CA  HIS X  -1       6.423   4.910  17.598  1.00 59.53 LIG 0.28  C 
BRANCH 15 16
ATOM     16  N   HIS X  -1       7.849   5.266  17.289  1.00 57.14 LIG-0.07  N 
ATOM     17 H3   HIS X  -1       8.055   4.984  16.470  1.00 57.14 LIG 0.28  HD
ATOM     18 H2   HIS X  -1       8.388   4.876  17.880  1.00 57.14 LIG 0.28  HD
ATOM     19 H1   HIS X  -1       7.951   6.150  17.332  1.00 57.14 LIG 0.28  HD
ENDBRANCH 15 16
BRANCH 15 20
ATOM     20  CB  HIS X  -1       5.898   3.877  16.601  1.00 57.27 LIG 0.10  C 
BRANCH 20 21
ATOM     21  CG  HIS X  -1       4.860   4.410  15.669  1.00 54.13 LIG 0.06  A 
ATOM     22 ND1  HIS X  -1       3.677   4.964  16.110  1.00 52.72 LIG-0.24  NA
ATOM     23  CE1 HIS X  -1       2.950   5.330  15.069  1.00 54.35 LIG 0.23  A 
ATOM     24 NE2  HIS X  -1       3.617   5.032  13.966  1.00 53.65 LIG-0.25  NA
ATOM     25  CD2 HIS X  -1       4.817   4.456  14.315  1.00 55.23 LIG 0.14  A 
ENDBRANCH 20 21
ENDBRANCH 15 20
ENDBRANCH 12 15
ENDBRANCH 10 11
BRANCH 10 26
ATOM     26  CB  HIS X   0       5.002   6.170  21.607  1.00 64.99 LIG 0.10  C 
BRANCH 26 27
ATOM     27  CG  HIS X   0       5.713   6.394  22.911  1.00 69.41 LIG 0.06  A 
ATOM     28 ND1  HIS X   0       7.030   6.804  22.981  1.00 72.01 LIG-0.24  NA
ATOM     29  CE1 HIS X   0       7.385   6.925  24.249  1.00 72.69 LIG 0.23  A 
ATOM     30 NE2  HIS X   0       6.346   6.615  25.004  1.00 72.94 LIG-0.25  NA
ATOM     31  CD2 HIS X   0       5.287   6.282  24.192  1.00 71.12 LIG 0.14  A 
ENDBRANCH 26 27
ENDBRANCH 10 26
ENDBRANCH 8 10
ENDBRANCH 5 6
BRANCH 5 32
ATOM     32  CB  HIS X   1       0.582   4.987  21.908  1.00 48.25 LIG 0.10  C 
BRANCH 32 33
ATOM     33  CG  HIS X   1       1.293   6.032  22.712  1.00 50.36 LIG 0.06  A 
ATOM     34  CD2 HIS X   1       1.522   6.123  24.045  1.00 51.47 LIG 0.14  A 
ATOM     35 NE2  HIS X   1       2.232   7.282  24.254  1.00 50.72 LIG-0.25  NA
ATOM     36  CE1 HIS X   1       2.431   7.878  23.091  1.00 48.50 LIG 0.23  A 
ATOM     37 ND1  HIS X   1       1.873   7.147  22.144  1.00 47.89 LIG-0.24  NA
ENDBRANCH 32 33
ENDBRANCH 5 32
ENDBRANCH 1 5
BRANCH 3 38
ATOM     38  CA  HIS X   2       1.130   1.461  18.599  1.00 26.25 LIG 0.18  C 
BRANCH 38 39
ATOM     39  C   HIS X   2       0.686   0.081  19.074  1.00 23.72 LIG 0.24  C 
ATOM     40  N   HIS X   3      -0.626  -0.067  19.150  1.00 22.33 LIG-0.35  N 
ATOM     41 H    HIS X   3      -1.189   0.558  18.968  1.00 22.33 LIG 0.16  HD
ATOM     42 O    HIS X   2       1.494  -0.811  19.373  1.00 19.88 LIG-0.27  OA
BRANCH 40 43
ATOM     43  CA  HIS X   3      -1.247  -1.337  19.561  1.00 22.38 LIG 0.18  C 
BRANCH 43 44
ATOM     44  CB  HIS X   3      -0.697  -2.574  18.785  1.00 22.51 LIG 0.10  C 
BRANCH 44 45
ATOM     45  CG  HIS X   3      -1.321  -2.822  17.440  1.00 18.10 LIG 0.06  A 
ATOM     46  CD2 HIS X   3      -0.962  -3.639  16.419  1.00 18.75 LIG 0.14  A 
ATOM     47 NE2  HIS X   3      -1.918  -3.508  15.438  1.00 20.06 LIG-0.25  NA
ATOM     48  CE1 HIS X   3      -2.837  -2.654  15.849  1.00 21.69 LIG 0.23  A 
ATOM     49 ND1  HIS X   3      -2.506  -2.239  17.060  1.00 17.48 LIG-0.24  NA
ENDBRANCH 44 45
ENDBRANCH 43 44
BRANCH 43 50
ATOM     50  C   HIS X   3      -1.183  -1.519  21.077  1.00 21.59 LIG 0.24  C 
ATOM     51 O    HIS X   3      -0.124  -1.487  21.692  1.00 25.47 LIG-0.27  OA
ATOM     52  N   HIS X   4      -2.337  -1.771  21.658  1.00 25.63 LIG-0.35  N 
ATOM     53 H    HIS X   4      -3.088  -1.827  21.242  1.00 25.63 LIG 0.16  HD
BRANCH 52 54
ATOM     54  CA  HIS X   4      -2.423  -1.980  23.107  1.00 23.96 LIG 0.17  C 
BRANCH 54 55
ATOM     55  C   HIS X   4      -3.094  -3.335  23.359  1.00 31.35 LIG 0.22  C 
ATOM     56 O    HIS X   4      -3.515  -4.023  22.428  1.00 37.06 LIG-0.29  OA
ENDBRANCH 54 55
BRANCH 54 57
ATOM     57  CB  HIS X   4      -3.182  -0.844  23.804  1.00 23.83 LIG 0.09  C 
BRANCH 57 58
ATOM     58  CG  HIS X   4      -3.648   0.243  22.872  1.00 22.57 LIG 0.06  A 
ATOM     59 ND1  HIS X   4      -4.982   0.471  22.585  1.00 22.63 LIG-0.24  NA
ATOM     60  CE1 HIS X   4      -5.081   1.488  21.745  1.00 19.94 LIG 0.23  A 
ATOM     61 NE2  HIS X   4      -3.865   1.916  21.463  1.00 20.25 LIG-0.25  NA
ATOM     62  CD2 HIS X   4      -2.953   1.163  22.165  1.00 21.52 LIG 0.14  A 
ENDBRANCH 57 58
ENDBRANCH 54 57
ENDBRANCH 52 54
ENDBRANCH 43 50
ENDBRANCH 40 43
ENDBRANCH 38 39
BRANCH 38 63
ATOM     63  CB  HIS X   2       2.230   1.306  17.542  1.00 28.74 LIG 0.10  C 
BRANCH 63 64
ATOM     64  CG  HIS X   2       1.750   1.497  16.142  1.00 28.63 LIG 0.06  A 
ATOM     65 ND1  HIS X   2       2.333   2.396  15.281  1.00 31.27 LIG-0.24  NA
ATOM     66  CE1 HIS X   2       1.722   2.344  14.112  1.00 28.11 LIG 0.23  A 
ATOM     67 NE2  HIS X   2       0.756   1.450  14.184  1.00 29.87 LIG-0.25  NA
ATOM     68  CD2 HIS X   2       0.756   0.897  15.444  1.00 31.84 LIG 0.14  A 
ENDBRANCH 63 64
ENDBRANCH 38 63
ENDBRANCH 3 38
TORSDOF 24
ENDMDL
