MODEL 1
USER: ADFR SOLUTION from run 170
USER: SCORE 6.797718 LL:  -0.731 LR:  -6.785 RR:   0.000 FEB:  -4.996
USER: RMSD 3.523685
USER: SEED 169
USER: STATUS no improvement in best in 12 clusters for 5 generations
USER: GENES 8
USER: genes 0 Translation |==|  0.26101 0.57472 0.52734
USER: genes 1 Rotation |==|  0.83920 0.68239 0.41766 0.80805
USER: genes 2 Torsion [C]-N--CA-[C] |==|  0.30186
USER: genes 3 Torsion [N]-CA--C-[N] |==|  0.66514
USER: genes 4 Torsion [C]-N--CA-[C] |==|  0.84245
USER: genes 5 Torsion [N]-CA--C-[O] |==|  0.12955
USER: genes 6 Torsion [N]-C--CA-[N] |==|  0.67526
USER: genes 7 Torsion [C]-CA--N-[H2] |==|  0.84859
ROOT
ATOM      1  C   GLY G   1      21.733 -15.852  18.558  1.00 43.90 LIG 0.24  C 
ATOM      2 O    GLY G   1      22.250 -14.733  18.533  1.00 43.93 LIG-0.27  OA
ATOM      3  N   GLY G   2      22.072 -16.850  17.738  1.00 44.62 LIG-0.35  N 
ATOM      4 H    GLY G   2      21.618 -17.576  17.658  1.00 44.62 LIG 0.16  HD
ENDROOT
BRANCH 3 5
ATOM      5  CA  GLY G   2      23.253 -16.793  16.897  1.00 45.53 LIG 0.23  C 
BRANCH 5 6
ATOM      6  C   GLY G   2      24.359 -17.714  17.339  1.00 46.02 LIG 0.23  C 
ATOM      7 O    GLY G   2      24.172 -18.928  17.379  1.00 47.02 LIG-0.27  OA
ATOM      8  N   GLY G   3      25.519 -17.131  17.639  1.00 46.62 LIG-0.35  N 
ATOM      9 H    GLY G   3      25.662 -16.287  17.556  1.00 46.62 LIG 0.16  HD
BRANCH 8 10
ATOM     10  CA  GLY G   3      26.666 -17.879  18.143  1.00 46.72 LIG 0.21  C 
BRANCH 10 11
ATOM     11  C   GLY G   3      26.396 -18.675  19.408  1.00 46.79 LIG 0.21  C 
ATOM     12 O    GLY G   3      25.392 -19.375  19.509  1.00 46.39 LIG-0.29  OA
ENDBRANCH 10 11
ENDBRANCH 8 10
ENDBRANCH 5 6
ENDBRANCH 3 5
BRANCH 1 13
ATOM     13  CA  GLY G   1      20.658 -16.173  19.564  1.00 43.33 LIG 0.33  C 
BRANCH 13 14
ATOM     14  N   GLY G   1      19.481 -15.315  19.303  1.00 42.49 LIG-0.07  N 
ATOM     15 H2   GLY G   1      19.731 -14.461  19.298  1.00 42.49 LIG 0.27  HD
ATOM     16 H3   GLY G   1      19.129 -15.525  18.514  1.00 42.49 LIG 0.27  HD
ATOM     17 H1   GLY G   1      18.873 -15.441  19.942  1.00 42.49 LIG 0.27  HD
ENDBRANCH 13 14
ENDBRANCH 1 13
TORSDOF 6
ENDMDL
MODEL 2
USER: ADFR SOLUTION from run 12
USER: SCORE 7.177645 LL:  -0.753 LR:  -6.764 RR:   0.000 FEB:  -4.974
USER: RMSD 5.767920
USER: SEED 578789
USER: STATUS no improvement in best in 21 clusters for 5 generations
USER: GENES 8
USER: genes 0 Translation |==|  0.41737 0.44930 0.25894
USER: genes 1 Rotation |==|  0.58961 0.22722 0.68484 0.86524
USER: genes 2 Torsion [C]-N--CA-[C] |==|  0.16484
USER: genes 3 Torsion [N]-CA--C-[N] |==|  0.51247
USER: genes 4 Torsion [C]-N--CA-[C] |==|  0.40635
USER: genes 5 Torsion [N]-CA--C-[O] |==|  0.86840
USER: genes 6 Torsion [N]-C--CA-[N] |==|  0.94516
USER: genes 7 Torsion [C]-CA--N-[H2] |==|  0.89288
ROOT
ATOM      1  C   GLY G   1      24.431 -17.451  14.733  1.00 43.90 LIG 0.24  C 
ATOM      2 O    GLY G   1      24.880 -16.335  15.003  1.00 43.93 LIG-0.27  OA
ATOM      3  N   GLY G   2      23.985 -18.319  15.644  1.00 44.62 LIG-0.35  N 
ATOM      4 H    GLY G   2      23.809 -19.143  15.472  1.00 44.62 LIG 0.16  HD
ENDROOT
BRANCH 3 5
ATOM      5  CA  GLY G   2      23.757 -17.939  17.027  1.00 45.53 LIG 0.23  C 
BRANCH 5 6
ATOM      6  C   GLY G   2      22.752 -16.831  17.195  1.00 46.02 LIG 0.23  C 
ATOM      7 O    GLY G   2      22.129 -16.410  16.222  1.00 47.02 LIG-0.27  OA
ATOM      8  N   GLY G   3      22.578 -16.384  18.439  1.00 46.62 LIG-0.35  N 
ATOM      9 H    GLY G   3      22.976 -16.721  19.124  1.00 46.62 LIG 0.16  HD
BRANCH 8 10
ATOM     10  CA  GLY G   3      21.688 -15.273  18.757  1.00 46.72 LIG 0.21  C 
BRANCH 10 11
ATOM     11  C   GLY G   3      20.991 -15.385  20.102  1.00 46.79 LIG 0.21  C 
ATOM     12 O    GLY G   3      20.442 -16.430  20.441  1.00 46.39 LIG-0.29  OA
ENDBRANCH 10 11
ENDBRANCH 8 10
ENDBRANCH 5 6
ENDBRANCH 3 5
BRANCH 1 13
ATOM     13  CA  GLY G   1      24.344 -17.912  13.300  1.00 43.33 LIG 0.33  C 
BRANCH 13 14
ATOM     14  N   GLY G   1      24.225 -19.387  13.273  1.00 42.49 LIG-0.07  N 
ATOM     15 H2   GLY G   1      24.744 -19.738  13.905  1.00 42.49 LIG 0.27  HD
ATOM     16 H3   GLY G   1      23.379 -19.620  13.421  1.00 42.49 LIG 0.27  HD
ATOM     17 H1   GLY G   1      24.481 -19.691  12.477  1.00 42.49 LIG 0.27  HD
ENDBRANCH 13 14
ENDBRANCH 1 13
TORSDOF 6
ENDMDL
MODEL 3
USER: ADFR SOLUTION from run 104
USER: SCORE 6.886857 LL:  -0.742 LR:  -6.686 RR:   0.000 FEB:  -4.896
USER: RMSD 3.540181
USER: SEED 103
USER: STATUS no improvement in best in 27 clusters for 5 generations
USER: GENES 8
USER: genes 0 Translation |==|  0.41687 0.43686 0.24368
USER: genes 1 Rotation |==|  0.61672 0.22100 0.72234 0.83030
USER: genes 2 Torsion [C]-N--CA-[C] |==|  0.76102
USER: genes 3 Torsion [N]-CA--C-[N] |==|  0.19078
USER: genes 4 Torsion [C]-N--CA-[C] |==|  0.57468
USER: genes 5 Torsion [N]-CA--C-[O] |==|  0.15688
USER: genes 6 Torsion [N]-C--CA-[N] |==|  0.02228
USER: genes 7 Torsion [C]-CA--N-[H2] |==|  0.98647
ROOT
ATOM      1  C   GLY G   1      24.422 -17.610  14.516  1.00 43.90 LIG 0.24  C 
ATOM      2 O    GLY G   1      24.597 -16.435  14.848  1.00 43.93 LIG-0.27  OA
ATOM      3  N   GLY G   2      24.105 -18.588  15.366  1.00 44.62 LIG-0.35  N 
ATOM      4 H    GLY G   2      24.125 -19.423  15.162  1.00 44.62 LIG 0.16  HD
ENDROOT
BRANCH 3 5
ATOM      5  CA  GLY G   2      23.694 -18.322  16.733  1.00 45.53 LIG 0.23  C 
BRANCH 5 6
ATOM      6  C   GLY G   2      24.842 -18.186  17.698  1.00 46.02 LIG 0.23  C 
ATOM      7 O    GLY G   2      25.044 -19.055  18.543  1.00 47.02 LIG-0.27  OA
ATOM      8  N   GLY G   3      25.608 -17.106  17.545  1.00 46.62 LIG-0.35  N 
ATOM      9 H    GLY G   3      25.496 -16.530  16.916  1.00 46.62 LIG 0.16  HD
BRANCH 8 10
ATOM     10  CA  GLY G   3      26.719 -16.799  18.439  1.00 46.72 LIG 0.21  C 
BRANCH 10 11
ATOM     11  C   GLY G   3      27.057 -15.322  18.545  1.00 46.79 LIG 0.21  C 
ATOM     12 O    GLY G   3      26.206 -14.505  18.885  1.00 46.39 LIG-0.29  OA
ENDBRANCH 10 11
ENDBRANCH 8 10
ENDBRANCH 5 6
ENDBRANCH 3 5
BRANCH 1 13
ATOM     13  CA  GLY G   1      24.547 -18.020  13.070  1.00 43.33 LIG 0.33  C 
BRANCH 13 14
ATOM     14  N   GLY G   1      24.088 -19.420  12.924  1.00 42.49 LIG-0.07  N 
ATOM     15 H2   GLY G   1      23.900 -19.756  13.727  1.00 42.49 LIG 0.27  HD
ATOM     16 H3   GLY G   1      23.360 -19.442  12.415  1.00 42.49 LIG 0.27  HD
ATOM     17 H1   GLY G   1      24.731 -19.905  12.544  1.00 42.49 LIG 0.27  HD
ENDBRANCH 13 14
ENDBRANCH 1 13
TORSDOF 6
ENDMDL
MODEL 4
USER: ADFR SOLUTION from run 12
USER: SCORE 6.936754 LL:  -0.810 LR:  -6.550 RR:   0.000 FEB:  -4.761
USER: RMSD 3.445478
USER: SEED 578789
USER: STATUS no improvement in best in 21 clusters for 5 generations
USER: GENES 8
USER: genes 0 Translation |==|  0.39495 0.45646 0.24492
USER: genes 1 Rotation |==|  0.74223 0.48928 0.91387 0.64113
USER: genes 2 Torsion [C]-N--CA-[C] |==|  0.31031
USER: genes 3 Torsion [N]-CA--C-[N] |==|  0.31676
USER: genes 4 Torsion [C]-N--CA-[C] |==|  0.84016
USER: genes 5 Torsion [N]-CA--C-[O] |==|  0.41172
USER: genes 6 Torsion [N]-C--CA-[N] |==|  0.25673
USER: genes 7 Torsion [C]-CA--N-[H2] |==|  0.77891
ROOT
ATOM      1  C   GLY G   1      24.044 -17.360  14.533  1.00 43.90 LIG 0.24  C 
ATOM      2 O    GLY G   1      22.855 -17.068  14.685  1.00 43.93 LIG-0.27  OA
ATOM      3  N   GLY G   2      24.980 -17.191  15.469  1.00 44.62 LIG-0.35  N 
ATOM      4 H    GLY G   2      25.824 -17.258  15.317  1.00 44.62 LIG 0.16  HD
ENDROOT
BRANCH 3 5
ATOM      5  CA  GLY G   2      24.648 -16.875  16.847  1.00 45.53 LIG 0.23  C 
BRANCH 5 6
ATOM      6  C   GLY G   2      24.956 -17.984  17.816  1.00 46.02 LIG 0.23  C 
ATOM      7 O    GLY G   2      24.356 -19.055  17.739  1.00 47.02 LIG-0.27  OA
ATOM      8  N   GLY G   3      25.914 -17.732  18.708  1.00 46.62 LIG-0.35  N 
ATOM      9 H    GLY G   3      26.368 -17.001  18.722  1.00 46.62 LIG 0.16  HD
BRANCH 8 10
ATOM     10  CA  GLY G   3      26.283 -18.680  19.753  1.00 46.72 LIG 0.21  C 
BRANCH 10 11
ATOM     11  C   GLY G   3      25.142 -19.088  20.670  1.00 46.79 LIG 0.21  C 
ATOM     12 O    GLY G   3      25.106 -20.209  21.168  1.00 46.39 LIG-0.29  OA
ENDBRANCH 10 11
ENDBRANCH 8 10
ENDBRANCH 5 6
ENDBRANCH 3 5
BRANCH 1 13
ATOM     13  CA  GLY G   1      24.522 -17.961  13.236  1.00 43.33 LIG 0.33  C 
BRANCH 13 14
ATOM     14  N   GLY G   1      24.356 -19.431  13.294  1.00 42.49 LIG-0.07  N 
ATOM     15 H2   GLY G   1      25.026 -19.786  13.759  1.00 42.49 LIG 0.27  HD
ATOM     16 H3   GLY G   1      23.583 -19.627  13.688  1.00 42.49 LIG 0.27  HD
ATOM     17 H1   GLY G   1      24.360 -19.763  12.468  1.00 42.49 LIG 0.27  HD
ENDBRANCH 13 14
ENDBRANCH 1 13
TORSDOF 6
ENDMDL
MODEL 5
USER: ADFR SOLUTION from run 50
USER: SCORE 7.246044 LL:  -0.928 LR:  -6.339 RR:   0.000 FEB:  -4.549
USER: RMSD 5.404619
USER: SEED 49
USER: STATUS no improvement in best in 32 clusters for 5 generations
USER: GENES 8
USER: genes 0 Translation |==|  0.44918 0.40168 0.50092
USER: genes 1 Rotation |==|  0.39389 0.74369 0.91155 0.59989
USER: genes 2 Torsion [C]-N--CA-[C] |==|  0.75169
USER: genes 3 Torsion [N]-CA--C-[N] |==|  0.98751
USER: genes 4 Torsion [C]-N--CA-[C] |==|  0.50758
USER: genes 5 Torsion [N]-CA--C-[O] |==|  0.05502
USER: genes 6 Torsion [N]-C--CA-[N] |==|  0.90393
USER: genes 7 Torsion [C]-CA--N-[H2] |==|  0.88416
ROOT
ATOM      1  C   GLY G   1      24.979 -18.059  18.181  1.00 43.90 LIG 0.24  C 
ATOM      2 O    GLY G   1      24.350 -18.981  17.656  1.00 43.93 LIG-0.27  OA
ATOM      3  N   GLY G   2      24.591 -16.782  18.159  1.00 44.62 LIG-0.35  N 
ATOM      4 H    GLY G   2      25.095 -16.126  18.396  1.00 44.62 LIG 0.16  HD
ENDROOT
BRANCH 3 5
ATOM      5  CA  GLY G   2      23.263 -16.384  17.727  1.00 45.53 LIG 0.23  C 
BRANCH 5 6
ATOM      6  C   GLY G   2      23.160 -16.115  16.249  1.00 46.02 LIG 0.23  C 
ATOM      7 O    GLY G   2      22.076 -15.825  15.749  1.00 47.02 LIG-0.27  OA
ATOM      8  N   GLY G   3      24.301 -16.184  15.563  1.00 46.62 LIG-0.35  N 
ATOM      9 H    GLY G   3      25.066 -16.333  15.927  1.00 46.62 LIG 0.16  HD
BRANCH 8 10
ATOM     10  CA  GLY G   3      24.357 -16.012  14.115  1.00 46.72 LIG 0.21  C 
BRANCH 10 11
ATOM     11  C   GLY G   3      25.739 -16.191  13.510  1.00 46.79 LIG 0.21  C 
ATOM     12 O    GLY G   3      26.618 -16.796  14.117  1.00 46.39 LIG-0.29  OA
ENDBRANCH 10 11
ENDBRANCH 8 10
ENDBRANCH 5 6
ENDBRANCH 3 5
BRANCH 1 13
ATOM     13  CA  GLY G   1      26.266 -18.335  18.917  1.00 43.33 LIG 0.33  C 
BRANCH 13 14
ATOM     14  N   GLY G   1      27.185 -17.190  18.729  1.00 42.49 LIG-0.07  N 
ATOM     15 H2   GLY G   1      27.147 -16.915  17.884  1.00 42.49 LIG 0.27  HD
ATOM     16 H3   GLY G   1      26.945 -16.525  19.268  1.00 42.49 LIG 0.27  HD
ATOM     17 H1   GLY G   1      28.017 -17.442  18.922  1.00 42.49 LIG 0.27  HD
ENDBRANCH 13 14
ENDBRANCH 1 13
TORSDOF 6
ENDMDL
MODEL 6
USER: ADFR SOLUTION from run 93
USER: SCORE 7.056316 LL:  -0.915 LR:  -6.331 RR:   0.000 FEB:  -4.541
USER: RMSD 3.468642
USER: SEED 92
USER: STATUS no improvement in best in 13 clusters for 5 generations
USER: GENES 8
USER: genes 0 Translation |==|  0.34420 0.56320 0.56960
USER: genes 1 Rotation |==|  0.86970 0.64839 0.27724 0.70416
USER: genes 2 Torsion [C]-N--CA-[C] |==|  0.19384
USER: genes 3 Torsion [N]-CA--C-[N] |==|  0.63721
USER: genes 4 Torsion [C]-N--CA-[C] |==|  0.80523
USER: genes 5 Torsion [N]-CA--C-[O] |==|  0.44097
USER: genes 6 Torsion [N]-C--CA-[N] |==|  0.35687
USER: genes 7 Torsion [C]-CA--N-[H2] |==|  0.13570
ROOT
ATOM      1  C   GLY G   1      23.168 -15.999  19.160  1.00 43.90 LIG 0.24  C 
ATOM      2 O    GLY G   1      24.158 -15.305  18.915  1.00 43.93 LIG-0.27  OA
ATOM      3  N   GLY G   2      22.583 -16.805  18.272  1.00 44.62 LIG-0.35  N 
ATOM      4 H    GLY G   2      21.816 -17.175  18.396  1.00 44.62 LIG 0.16  HD
ENDROOT
BRANCH 3 5
ATOM      5  CA  GLY G   2      23.201 -17.132  16.999  1.00 45.53 LIG 0.23  C 
BRANCH 5 6
ATOM      6  C   GLY G   2      24.413 -18.016  17.121  1.00 46.02 LIG 0.23  C 
ATOM      7 O    GLY G   2      24.356 -19.055  17.776  1.00 47.02 LIG-0.27  OA
ATOM      8  N   GLY G   3      25.498 -17.613  16.461  1.00 46.62 LIG-0.35  N 
ATOM      9 H    GLY G   3      25.516 -16.914  15.958  1.00 46.62 LIG 0.16  HD
BRANCH 8 10
ATOM     10  CA  GLY G   3      26.769 -18.325  16.530  1.00 46.72 LIG 0.21  C 
BRANCH 10 11
ATOM     11  C   GLY G   3      27.479 -18.225  17.869  1.00 46.79 LIG 0.21  C 
ATOM     12 O    GLY G   3      28.321 -19.055  18.198  1.00 46.39 LIG-0.29  OA
ENDBRANCH 10 11
ENDBRANCH 8 10
ENDBRANCH 5 6
ENDBRANCH 3 5
BRANCH 1 13
ATOM     13  CA  GLY G   1      22.548 -15.986  20.534  1.00 43.33 LIG 0.33  C 
BRANCH 13 14
ATOM     14  N   GLY G   1      23.606 -16.220  21.543  1.00 42.49 LIG-0.07  N 
ATOM     15 H2   GLY G   1      24.295 -15.680  21.382  1.00 42.49 LIG 0.27  HD
ATOM     16 H3   GLY G   1      23.283 -16.055  22.355  1.00 42.49 LIG 0.27  HD
ATOM     17 H1   GLY G   1      23.877 -17.067  21.498  1.00 42.49 LIG 0.27  HD
ENDBRANCH 13 14
ENDBRANCH 1 13
TORSDOF 6
ENDMDL
MODEL 7
USER: ADFR SOLUTION from run 157
USER: SCORE 7.124870 LL:  -1.027 LR:  -6.322 RR:   0.000 FEB:  -4.532
USER: RMSD 5.078508
USER: SEED 156
USER: STATUS no improvement in best in 13 clusters for 5 generations
USER: GENES 8
USER: genes 0 Translation |==|  0.26237 0.54875 0.57037
USER: genes 1 Rotation |==|  0.52785 0.65333 0.49022 0.97499
USER: genes 2 Torsion [C]-N--CA-[C] |==|  0.84031
USER: genes 3 Torsion [N]-CA--C-[N] |==|  0.33808
USER: genes 4 Torsion [C]-N--CA-[C] |==|  0.25616
USER: genes 5 Torsion [N]-CA--C-[O] |==|  0.00518
USER: genes 6 Torsion [N]-C--CA-[N] |==|  0.45754
USER: genes 7 Torsion [C]-CA--N-[H2] |==|  0.55555
ROOT
ATOM      1  C   GLY G   1      21.757 -16.183  19.171  1.00 43.90 LIG 0.24  C 
ATOM      2 O    GLY G   1      21.796 -15.705  18.034  1.00 43.93 LIG-0.27  OA
ATOM      3  N   GLY G   2      22.814 -16.698  19.802  1.00 44.62 LIG-0.35  N 
ATOM      4 H    GLY G   2      22.760 -17.157  20.527  1.00 44.62 LIG 0.16  HD
ENDROOT
BRANCH 3 5
ATOM      5  CA  GLY G   2      24.169 -16.523  19.311  1.00 45.53 LIG 0.23  C 
BRANCH 5 6
ATOM      6  C   GLY G   2      24.378 -17.031  17.909  1.00 46.02 LIG 0.23  C 
ATOM      7 O    GLY G   2      24.125 -18.201  17.632  1.00 47.02 LIG-0.27  OA
ATOM      8  N   GLY G   3      24.810 -16.135  17.022  1.00 46.62 LIG-0.35  N 
ATOM      9 H    GLY G   3      24.932 -15.303  17.208  1.00 46.62 LIG 0.16  HD
BRANCH 8 10
ATOM     10  CA  GLY G   3      25.121 -16.484  15.640  1.00 46.72 LIG 0.21  C 
BRANCH 10 11
ATOM     11  C   GLY G   3      23.965 -16.314  14.669  1.00 46.79 LIG 0.21  C 
ATOM     12 O    GLY G   3      22.882 -15.878  15.051  1.00 46.39 LIG-0.29  OA
ENDBRANCH 10 11
ENDBRANCH 8 10
ENDBRANCH 5 6
ENDBRANCH 3 5
BRANCH 1 13
ATOM     13  CA  GLY G   1      20.464 -16.202  19.946  1.00 43.33 LIG 0.33  C 
BRANCH 13 14
ATOM     14  N   GLY G   1      19.497 -15.291  19.293  1.00 42.49 LIG-0.07  N 
ATOM     15 H2   GLY G   1      18.860 -15.069  19.873  1.00 42.49 LIG 0.27  HD
ATOM     16 H3   GLY G   1      19.918 -14.556  19.020  1.00 42.49 LIG 0.27  HD
ATOM     17 H1   GLY G   1      19.130 -15.699  18.592  1.00 42.49 LIG 0.27  HD
ENDBRANCH 13 14
ENDBRANCH 1 13
TORSDOF 6
ENDMDL
MODEL 8
USER: ADFR SOLUTION from run 89
USER: SCORE 6.846783 LL:  -0.842 LR:  -6.198 RR:   0.000 FEB:  -4.408
USER: RMSD 5.174082
USER: SEED 88
USER: STATUS no improvement in best in 28 clusters for 5 generations
USER: GENES 8
USER: genes 0 Translation |==|  0.26523 0.57834 0.58092
USER: genes 1 Rotation |==|  0.87382 0.62550 0.42387 0.79785
USER: genes 2 Torsion [C]-N--CA-[C] |==|  0.71727
USER: genes 3 Torsion [N]-CA--C-[N] |==|  0.48465
USER: genes 4 Torsion [C]-N--CA-[C] |==|  0.54661
USER: genes 5 Torsion [N]-CA--C-[O] |==|  0.92551
USER: genes 6 Torsion [N]-C--CA-[N] |==|  0.76524
USER: genes 7 Torsion [C]-CA--N-[H2] |==|  0.69156
ROOT
ATOM      1  C   GLY G   1      21.806 -15.806  19.321  1.00 43.90 LIG 0.24  C 
ATOM      2 O    GLY G   1      22.520 -14.815  19.489  1.00 43.93 LIG-0.27  OA
ATOM      3  N   GLY G   2      22.087 -16.794  18.468  1.00 44.62 LIG-0.35  N 
ATOM      4 H    GLY G   2      21.525 -17.407  18.247  1.00 44.62 LIG 0.16  HD
ENDROOT
BRANCH 3 5
ATOM      5  CA  GLY G   2      23.385 -16.919  17.830  1.00 45.53 LIG 0.23  C 
BRANCH 5 6
ATOM      6  C   GLY G   2      23.411 -16.440  16.404  1.00 46.02 LIG 0.23  C 
ATOM      7 O    GLY G   2      22.374 -16.062  15.861  1.00 47.02 LIG-0.27  OA
ATOM      8  N   GLY G   3      24.605 -16.429  15.813  1.00 46.62 LIG-0.35  N 
ATOM      9 H    GLY G   3      25.336 -16.641  16.216  1.00 46.62 LIG 0.16  HD
BRANCH 8 10
ATOM     10  CA  GLY G   3      24.787 -16.051  14.416  1.00 46.72 LIG 0.21  C 
BRANCH 10 11
ATOM     11  C   GLY G   3      26.116 -16.473  13.814  1.00 46.79 LIG 0.21  C 
ATOM     12 O    GLY G   3      27.108 -16.622  14.522  1.00 46.39 LIG-0.29  OA
ENDBRANCH 10 11
ENDBRANCH 8 10
ENDBRANCH 5 6
ENDBRANCH 3 5
BRANCH 1 13
ATOM     13  CA  GLY G   1      20.533 -15.971  20.112  1.00 43.33 LIG 0.33  C 
BRANCH 13 14
ATOM     14  N   GLY G   1      19.395 -15.478  19.303  1.00 42.49 LIG-0.07  N 
ATOM     15 H2   GLY G   1      19.074 -14.733  19.668  1.00 42.49 LIG 0.27  HD
ATOM     16 H3   GLY G   1      19.672 -15.307  18.475  1.00 42.49 LIG 0.27  HD
ATOM     17 H1   GLY G   1      18.756 -16.097  19.281  1.00 42.49 LIG 0.27  HD
ENDBRANCH 13 14
ENDBRANCH 1 13
TORSDOF 6
ENDMDL
MODEL 9
USER: ADFR SOLUTION from run 109
USER: SCORE 6.490191 LL:  -0.880 LR:  -6.196 RR:   0.000 FEB:  -4.406
USER: RMSD 2.985449
USER: SEED 108
USER: STATUS no improvement in best in 14 clusters for 5 generations
USER: GENES 8
USER: genes 0 Translation |==|  0.42806 0.44211 0.26304
USER: genes 1 Rotation |==|  0.56533 0.22069 0.64430 0.88327
USER: genes 2 Torsion [C]-N--CA-[C] |==|  0.73889
USER: genes 3 Torsion [N]-CA--C-[N] |==|  0.20093
USER: genes 4 Torsion [C]-N--CA-[C] |==|  0.34748
USER: genes 5 Torsion [N]-CA--C-[O] |==|  0.88765
USER: genes 6 Torsion [N]-C--CA-[N] |==|  0.91018
USER: genes 7 Torsion [C]-CA--N-[H2] |==|  0.86259
ROOT
ATOM      1  C   GLY G   1      24.615 -17.543  14.791  1.00 43.90 LIG 0.24  C 
ATOM      2 O    GLY G   1      25.283 -16.544  15.069  1.00 43.93 LIG-0.27  OA
ATOM      3  N   GLY G   2      24.015 -18.317  15.698  1.00 44.62 LIG-0.35  N 
ATOM      4 H    GLY G   2      23.674 -19.086  15.518  1.00 44.62 LIG 0.16  HD
ENDROOT
BRANCH 3 5
ATOM      5  CA  GLY G   2      23.884 -17.920  17.089  1.00 45.53 LIG 0.23  C 
BRANCH 5 6
ATOM      6  C   GLY G   2      24.987 -18.437  17.974  1.00 46.02 LIG 0.23  C 
ATOM      7 O    GLY G   2      24.768 -19.357  18.759  1.00 47.02 LIG-0.27  OA
ATOM      8  N   GLY G   3      26.178 -17.859  17.820  1.00 46.62 LIG-0.35  N 
ATOM      9 H    GLY G   3      26.339 -17.253  17.230  1.00 46.62 LIG 0.16  HD
BRANCH 8 10
ATOM     10  CA  GLY G   3      27.330 -18.203  18.646  1.00 46.72 LIG 0.21  C 
BRANCH 10 11
ATOM     11  C   GLY G   3      28.564 -18.625  17.867  1.00 46.79 LIG 0.21  C 
ATOM     12 O    GLY G   3      28.467 -19.345  16.878  1.00 46.39 LIG-0.29  OA
ENDBRANCH 10 11
ENDBRANCH 8 10
ENDBRANCH 5 6
ENDBRANCH 3 5
BRANCH 1 13
ATOM     13  CA  GLY G   1      24.420 -17.954  13.354  1.00 43.33 LIG 0.33  C 
BRANCH 13 14
ATOM     14  N   GLY G   1      24.307 -19.428  13.284  1.00 42.49 LIG-0.07  N 
ATOM     15 H2   GLY G   1      24.977 -19.799  13.739  1.00 42.49 LIG 0.27  HD
ATOM     16 H3   GLY G   1      23.532 -19.684  13.638  1.00 42.49 LIG 0.27  HD
ATOM     17 H1   GLY G   1      24.346 -19.690  12.434  1.00 42.49 LIG 0.27  HD
ENDBRANCH 13 14
ENDBRANCH 1 13
TORSDOF 6
ENDMDL
MODEL 10
USER: ADFR SOLUTION from run 106
USER: SCORE 6.742975 LL:  -0.825 LR:  -6.099 RR:   0.000 FEB:  -4.310
USER: RMSD 4.791807
USER: SEED 105
USER: STATUS no improvement in best in 26 clusters for 5 generations
USER: GENES 8
USER: genes 0 Translation |==|  0.36803 0.54305 0.56530
USER: genes 1 Rotation |==|  0.52866 0.73418 0.40064 0.92949
USER: genes 2 Torsion [C]-N--CA-[C] |==|  0.80471
USER: genes 3 Torsion [N]-CA--C-[N] |==|  0.39391
USER: genes 4 Torsion [C]-N--CA-[C] |==|  0.32324
USER: genes 5 Torsion [N]-CA--C-[O] |==|  0.98916
USER: genes 6 Torsion [N]-C--CA-[N] |==|  0.04103
USER: genes 7 Torsion [C]-CA--N-[H2] |==|  0.19238
ROOT
ATOM      1  C   GLY G   1      23.580 -16.256  19.099  1.00 43.90 LIG 0.24  C 
ATOM      2 O    GLY G   1      23.319 -15.847  17.965  1.00 43.93 LIG-0.27  OA
ATOM      3  N   GLY G   2      24.592 -17.078  19.382  1.00 44.62 LIG-0.35  N 
ATOM      4 H    GLY G   2      24.687 -17.475  20.140  1.00 44.62 LIG 0.16  HD
ENDROOT
BRANCH 3 5
ATOM      5  CA  GLY G   2      25.639 -17.377  18.421  1.00 45.53 LIG 0.23  C 
BRANCH 5 6
ATOM      6  C   GLY G   2      25.179 -18.229  17.269  1.00 46.02 LIG 0.23  C 
ATOM      7 O    GLY G   2      24.356 -19.123  17.452  1.00 47.02 LIG-0.27  OA
ATOM      8  N   GLY G   3      25.694 -17.926  16.077  1.00 46.62 LIG-0.35  N 
ATOM      9 H    GLY G   3      26.228 -17.264  15.945  1.00 46.62 LIG 0.16  HD
BRANCH 8 10
ATOM     10  CA  GLY G   3      25.398 -18.697  14.875  1.00 46.72 LIG 0.21  C 
BRANCH 10 11
ATOM     11  C   GLY G   3      24.661 -17.925  13.793  1.00 46.79 LIG 0.21  C 
ATOM     12 O    GLY G   3      24.295 -16.770  13.985  1.00 46.39 LIG-0.29  OA
ENDBRANCH 10 11
ENDBRANCH 8 10
ENDBRANCH 5 6
ENDBRANCH 3 5
BRANCH 1 13
ATOM     13  CA  GLY G   1      22.743 -15.823  20.276  1.00 43.33 LIG 0.33  C 
BRANCH 13 14
ATOM     14  N   GLY G   1      23.469 -16.142  21.526  1.00 42.49 LIG-0.07  N 
ATOM     15 H2   GLY G   1      24.179 -15.611  21.600  1.00 42.49 LIG 0.27  HD
ATOM     16 H3   GLY G   1      22.930 -16.015  22.223  1.00 42.49 LIG 0.27  HD
ATOM     17 H1   GLY G   1      23.735 -16.991  21.508  1.00 42.49 LIG 0.27  HD
ENDBRANCH 13 14
ENDBRANCH 1 13
TORSDOF 6
ENDMDL
MODEL 11
USER: ADFR SOLUTION from run 197
USER: SCORE 6.681270 LL:  -0.828 LR:  -6.045 RR:   0.000 FEB:  -4.255
USER: RMSD 3.124844
USER: SEED 196
USER: STATUS no improvement in best in 22 clusters for 5 generations
USER: GENES 8
USER: genes 0 Translation |==|  0.35232 0.54329 0.35981
USER: genes 1 Rotation |==|  0.91262 0.42939 0.67896 0.70673
USER: genes 2 Torsion [C]-N--CA-[C] |==|  0.15615
USER: genes 3 Torsion [N]-CA--C-[N] |==|  0.65256
USER: genes 4 Torsion [C]-N--CA-[C] |==|  0.20759
USER: genes 5 Torsion [N]-CA--C-[O] |==|  0.62624
USER: genes 6 Torsion [N]-C--CA-[N] |==|  0.79566
USER: genes 7 Torsion [C]-CA--N-[H2] |==|  0.53840
ROOT
ATOM      1  C   GLY G   1      23.308 -16.253  16.170  1.00 43.90 LIG 0.24  C 
ATOM      2 O    GLY G   1      23.152 -15.695  17.259  1.00 43.93 LIG-0.27  OA
ATOM      3  N   GLY G   2      24.413 -16.917  15.823  1.00 44.62 LIG-0.35  N 
ATOM      4 H    GLY G   2      24.579 -17.179  15.021  1.00 44.62 LIG 0.16  HD
ENDROOT
BRANCH 3 5
ATOM      5  CA  GLY G   2      25.445 -17.258  16.785  1.00 45.53 LIG 0.23  C 
BRANCH 5 6
ATOM      6  C   GLY G   2      24.943 -18.056  17.958  1.00 46.02 LIG 0.23  C 
ATOM      7 O    GLY G   2      24.356 -19.121  17.775  1.00 47.02 LIG-0.27  OA
ATOM      8  N   GLY G   3      25.205 -17.550  19.163  1.00 46.62 LIG-0.35  N 
ATOM      9 H    GLY G   3      25.665 -16.834  19.288  1.00 46.62 LIG 0.16  HD
BRANCH 8 10
ATOM     10  CA  GLY G   3      24.731 -18.171  20.395  1.00 46.72 LIG 0.21  C 
BRANCH 10 11
ATOM     11  C   GLY G   3      25.481 -19.430  20.798  1.00 46.79 LIG 0.21  C 
ATOM     12 O    GLY G   3      24.875 -20.432  21.166  1.00 46.39 LIG-0.29  OA
ENDBRANCH 10 11
ENDBRANCH 8 10
ENDBRANCH 5 6
ENDBRANCH 3 5
BRANCH 1 13
ATOM     13  CA  GLY G   1      22.212 -16.227  15.135  1.00 43.33 LIG 0.33  C 
BRANCH 13 14
ATOM     14  N   GLY G   1      22.602 -15.306  14.043  1.00 42.49 LIG-0.07  N 
ATOM     15 H2   GLY G   1      21.892 -15.130  13.537  1.00 42.49 LIG 0.27  HD
ATOM     16 H3   GLY G   1      22.915 -14.550  14.390  1.00 42.49 LIG 0.27  HD
ATOM     17 H1   GLY G   1      23.234 -15.687  13.545  1.00 42.49 LIG 0.27  HD
ENDBRANCH 13 14
ENDBRANCH 1 13
TORSDOF 6
ENDMDL
MODEL 12
USER: ADFR SOLUTION from run 153
USER: SCORE 6.821872 LL:  -0.854 LR:  -6.032 RR:   0.000 FEB:  -4.242
USER: RMSD 4.174690
USER: SEED 152
USER: STATUS no improvement in best in 23 clusters for 5 generations
USER: GENES 8
USER: genes 0 Translation |==|  0.41358 0.46687 0.23893
USER: genes 1 Rotation |==|  0.48134 0.16395 0.76108 0.76184
USER: genes 2 Torsion [C]-N--CA-[C] |==|  0.75331
USER: genes 3 Torsion [N]-CA--C-[N] |==|  0.95325
USER: genes 4 Torsion [C]-N--CA-[C] |==|  0.47218
USER: genes 5 Torsion [N]-CA--C-[O] |==|  0.94042
USER: genes 6 Torsion [N]-C--CA-[N] |==|  0.02864
USER: genes 7 Torsion [C]-CA--N-[H2] |==|  0.79266
ROOT
ATOM      1  C   GLY G   1      24.365 -17.227  14.448  1.00 43.90 LIG 0.24  C 
ATOM      2 O    GLY G   1      24.574 -16.016  14.546  1.00 43.93 LIG-0.27  OA
ATOM      3  N   GLY G   2      23.453 -17.889  15.163  1.00 44.62 LIG-0.35  N 
ATOM      4 H    GLY G   2      23.407 -18.747  15.200  1.00 44.62 LIG 0.16  HD
ENDROOT
BRANCH 3 5
ATOM      5  CA  GLY G   2      22.445 -17.205  15.954  1.00 45.53 LIG 0.23  C 
BRANCH 5 6
ATOM      6  C   GLY G   2      22.883 -16.893  17.359  1.00 46.02 LIG 0.23  C 
ATOM      7 O    GLY G   2      22.254 -16.083  18.037  1.00 47.02 LIG-0.27  OA
ATOM      8  N   GLY G   3      23.947 -17.564  17.801  1.00 46.62 LIG-0.35  N 
ATOM      9 H    GLY G   3      24.350 -18.170  17.343  1.00 46.62 LIG 0.16  HD
BRANCH 8 10
ATOM     10  CA  GLY G   3      24.532 -17.329  19.117  1.00 46.72 LIG 0.21  C 
BRANCH 10 11
ATOM     11  C   GLY G   3      25.581 -18.346  19.534  1.00 46.79 LIG 0.21  C 
ATOM     12 O    GLY G   3      25.618 -19.459  19.018  1.00 46.39 LIG-0.29  OA
ENDBRANCH 10 11
ENDBRANCH 8 10
ENDBRANCH 5 6
ENDBRANCH 3 5
BRANCH 1 13
ATOM     13  CA  GLY G   1      25.150 -18.059  13.466  1.00 43.33 LIG 0.33  C 
BRANCH 13 14
ATOM     14  N   GLY G   1      24.530 -19.399  13.364  1.00 42.49 LIG-0.07  N 
ATOM     15 H2   GLY G   1      24.723 -19.872  14.093  1.00 42.49 LIG 0.27  HD
ATOM     16 H3   GLY G   1      23.647 -19.313  13.292  1.00 42.49 LIG 0.27  HD
ATOM     17 H1   GLY G   1      24.846 -19.820  12.646  1.00 42.49 LIG 0.27  HD
ENDBRANCH 13 14
ENDBRANCH 1 13
TORSDOF 6
ENDMDL
MODEL 13
USER: ADFR SOLUTION from run 41
USER: SCORE 6.731282 LL:  -0.803 LR:  -5.975 RR:   0.000 FEB:  -4.185
USER: RMSD 3.288437
USER: SEED 40
USER: STATUS no improvement in best in 30 clusters for 5 generations
USER: GENES 8
USER: genes 0 Translation |==|  0.31814 0.49633 0.35286
USER: genes 1 Rotation |==|  0.88217 0.27920 0.66403 0.66819
USER: genes 2 Torsion [C]-N--CA-[C] |==|  0.81067
USER: genes 3 Torsion [N]-CA--C-[N] |==|  0.95555
USER: genes 4 Torsion [C]-N--CA-[C] |==|  0.54960
USER: genes 5 Torsion [N]-CA--C-[O] |==|  0.32033
USER: genes 6 Torsion [N]-C--CA-[N] |==|  0.84882
USER: genes 7 Torsion [C]-CA--N-[H2] |==|  0.85527
ROOT
ATOM      1  C   GLY G   1      22.719 -16.852  16.071  1.00 43.90 LIG 0.24  C 
ATOM      2 O    GLY G   1      22.467 -16.547  17.239  1.00 43.93 LIG-0.27  OA
ATOM      3  N   GLY G   2      23.491 -17.881  15.717  1.00 44.62 LIG-0.35  N 
ATOM      4 H    GLY G   2      23.782 -18.007  14.918  1.00 44.62 LIG 0.16  HD
ENDROOT
BRANCH 3 5
ATOM      5  CA  GLY G   2      23.913 -18.894  16.668  1.00 45.53 LIG 0.23  C 
BRANCH 5 6
ATOM      6  C   GLY G   2      24.875 -18.388  17.709  1.00 46.02 LIG 0.23  C 
ATOM      7 O    GLY G   2      25.102 -19.055  18.716  1.00 47.02 LIG-0.27  OA
ATOM      8  N   GLY G   3      25.461 -17.221  17.443  1.00 46.62 LIG-0.35  N 
ATOM      9 H    GLY G   3      25.342 -16.785  16.711  1.00 46.62 LIG 0.16  HD
BRANCH 8 10
ATOM     10  CA  GLY G   3      26.369 -16.567  18.380  1.00 46.72 LIG 0.21  C 
BRANCH 10 11
ATOM     11  C   GLY G   3      26.599 -15.090  18.111  1.00 46.79 LIG 0.21  C 
ATOM     12 O    GLY G   3      26.234 -14.240  18.918  1.00 46.39 LIG-0.29  OA
ENDBRANCH 10 11
ENDBRANCH 8 10
ENDBRANCH 5 6
ENDBRANCH 3 5
BRANCH 1 13
ATOM     13  CA  GLY G   1      22.135 -16.055  14.932  1.00 43.33 LIG 0.33  C 
BRANCH 13 14
ATOM     14  N   GLY G   1      23.231 -15.609  14.043  1.00 42.49 LIG-0.07  N 
ATOM     15 H2   GLY G   1      23.857 -15.200  14.526  1.00 42.49 LIG 0.27  HD
ATOM     16 H3   GLY G   1      23.586 -16.315  13.634  1.00 42.49 LIG 0.27  HD
ATOM     17 H1   GLY G   1      22.909 -15.044  13.435  1.00 42.49 LIG 0.27  HD
ENDBRANCH 13 14
ENDBRANCH 1 13
TORSDOF 6
ENDMDL
MODEL 14
USER: ADFR SOLUTION from run 195
USER: SCORE 6.790574 LL:  -0.992 LR:  -5.955 RR:   0.000 FEB:  -4.165
USER: RMSD 2.555024
USER: SEED 194
USER: STATUS no improvement in best in 16 clusters for 5 generations
USER: GENES 8
USER: genes 0 Translation |==|  0.35037 0.53215 0.39067
USER: genes 1 Rotation |==|  0.51378 0.34978 0.43751 0.97259
USER: genes 2 Torsion [C]-N--CA-[C] |==|  0.82778
USER: genes 3 Torsion [N]-CA--C-[N] |==|  0.36216
USER: genes 4 Torsion [C]-N--CA-[C] |==|  0.20295
USER: genes 5 Torsion [N]-CA--C-[O] |==|  0.87416
USER: genes 6 Torsion [N]-C--CA-[N] |==|  0.51268
USER: genes 7 Torsion [C]-CA--N-[H2] |==|  0.82698
ROOT
ATOM      1  C   GLY G   1      23.275 -16.395  16.610  1.00 43.90 LIG 0.24  C 
ATOM      2 O    GLY G   1      24.450 -16.234  16.271  1.00 43.93 LIG-0.27  OA
ATOM      3  N   GLY G   2      22.898 -16.855  17.805  1.00 44.62 LIG-0.35  N 
ATOM      4 H    GLY G   2      22.095 -17.103  17.989  1.00 44.62 LIG 0.16  HD
ENDROOT
BRANCH 3 5
ATOM      5  CA  GLY G   2      23.827 -16.981  18.914  1.00 45.53 LIG 0.23  C 
BRANCH 5 6
ATOM      6  C   GLY G   2      24.960 -17.937  18.653  1.00 46.02 LIG 0.23  C 
ATOM      7 O    GLY G   2      24.731 -19.055  18.195  1.00 47.02 LIG-0.27  OA
ATOM      8  N   GLY G   3      26.183 -17.479  18.918  1.00 46.62 LIG-0.35  N 
ATOM      9 H    GLY G   3      26.342 -16.677  19.185  1.00 46.62 LIG 0.16  HD
BRANCH 8 10
ATOM     10  CA  GLY G   3      27.378 -18.305  18.778  1.00 46.72 LIG 0.21  C 
BRANCH 10 11
ATOM     11  C   GLY G   3      27.793 -18.579  17.343  1.00 46.79 LIG 0.21  C 
ATOM     12 O    GLY G   3      26.964 -18.909  16.500  1.00 46.39 LIG-0.29  OA
ENDBRANCH 10 11
ENDBRANCH 8 10
ENDBRANCH 5 6
ENDBRANCH 3 5
BRANCH 1 13
ATOM     13  CA  GLY G   1      22.154 -16.055  15.661  1.00 43.33 LIG 0.33  C 
BRANCH 13 14
ATOM     14  N   GLY G   1      22.729 -15.667  14.353  1.00 42.49 LIG-0.07  N 
ATOM     15 H2   GLY G   1      23.231 -14.939  14.454  1.00 42.49 LIG 0.27  HD
ATOM     16 H3   GLY G   1      23.231 -16.332  14.041  1.00 42.49 LIG 0.27  HD
ATOM     17 H1   GLY G   1      22.072 -15.496  13.778  1.00 42.49 LIG 0.27  HD
ENDBRANCH 13 14
ENDBRANCH 1 13
TORSDOF 6
ENDMDL
MODEL 15
USER: ADFR SOLUTION from run 122
USER: SCORE 6.380683 LL:  -0.827 LR:  -5.921 RR:   0.000 FEB:  -4.131
USER: RMSD 3.450133
USER: SEED 121
USER: STATUS no improvement in best in 25 clusters for 5 generations
USER: GENES 8
USER: genes 0 Translation |==|  0.39211 0.37113 0.42105
USER: genes 1 Rotation |==|  0.07492 0.42875 0.34033 0.69681
USER: genes 2 Torsion [C]-N--CA-[C] |==|  0.52222
USER: genes 3 Torsion [N]-CA--C-[N] |==|  0.43562
USER: genes 4 Torsion [C]-N--CA-[C] |==|  0.44300
USER: genes 5 Torsion [N]-CA--C-[O] |==|  0.75771
USER: genes 6 Torsion [N]-C--CA-[N] |==|  0.50497
USER: genes 7 Torsion [C]-CA--N-[H2] |==|  0.26222
ROOT
ATOM      1  C   GLY G   1      23.995 -18.448  17.043  1.00 43.90 LIG 0.24  C 
ATOM      2 O    GLY G   1      24.294 -19.417  17.745  1.00 43.93 LIG-0.27  OA
ATOM      3  N   GLY G   2      24.689 -17.309  17.006  1.00 44.62 LIG-0.35  N 
ATOM      4 H    GLY G   2      24.404 -16.589  16.632  1.00 44.62 LIG 0.16  HD
ENDROOT
BRANCH 3 5
ATOM      5  CA  GLY G   2      26.006 -17.186  17.605  1.00 45.53 LIG 0.23  C 
BRANCH 5 6
ATOM      6  C   GLY G   2      26.536 -15.777  17.623  1.00 46.02 LIG 0.23  C 
ATOM      7 O    GLY G   2      26.094 -14.941  16.838  1.00 47.02 LIG-0.27  OA
ATOM      8  N   GLY G   3      27.465 -15.515  18.542  1.00 46.62 LIG-0.35  N 
ATOM      9 H    GLY G   3      27.731 -16.089  19.126  1.00 46.62 LIG 0.16  HD
BRANCH 8 10
ATOM     10  CA  GLY G   3      28.122 -14.216  18.646  1.00 46.72 LIG 0.21  C 
BRANCH 10 11
ATOM     11  C   GLY G   3      28.759 -13.935  19.997  1.00 46.79 LIG 0.21  C 
ATOM     12 O    GLY G   3      28.106 -13.436  20.908  1.00 46.39 LIG-0.29  OA
ENDBRANCH 10 11
ENDBRANCH 8 10
ENDBRANCH 5 6
ENDBRANCH 3 5
BRANCH 1 13
ATOM     13  CA  GLY G   1      22.788 -18.504  16.141  1.00 43.33 LIG 0.33  C 
BRANCH 13 14
ATOM     14  N   GLY G   1      22.106 -19.805  16.328  1.00 42.49 LIG-0.07  N 
ATOM     15 H2   GLY G   1      21.456 -19.715  16.929  1.00 42.49 LIG 0.27  HD
ATOM     16 H3   GLY G   1      21.760 -20.072  15.553  1.00 42.49 LIG 0.27  HD
ATOM     17 H1   GLY G   1      22.693 -20.410  16.614  1.00 42.49 LIG 0.27  HD
ENDBRANCH 13 14
ENDBRANCH 1 13
TORSDOF 6
ENDMDL
MODEL 16
USER: ADFR SOLUTION from run 87
USER: SCORE 6.030419 LL:  -0.732 LR:  -5.908 RR:   0.000 FEB:  -4.118
USER: RMSD 3.781107
USER: SEED 86
USER: STATUS no improvement in best in 29 clusters for 5 generations
USER: GENES 8
USER: genes 0 Translation |==|  0.36346 0.56879 0.54428
USER: genes 1 Rotation |==|  0.50160 0.75222 0.54229 0.92964
USER: genes 2 Torsion [C]-N--CA-[C] |==|  0.34241
USER: genes 3 Torsion [N]-CA--C-[N] |==|  0.25006
USER: genes 4 Torsion [C]-N--CA-[C] |==|  0.18991
USER: genes 5 Torsion [N]-CA--C-[O] |==|  0.82511
USER: genes 6 Torsion [N]-C--CA-[N] |==|  0.03699
USER: genes 7 Torsion [C]-CA--N-[H2] |==|  0.79090
ROOT
ATOM      1  C   GLY G   1      23.501 -15.928  18.799  1.00 43.90 LIG 0.24  C 
ATOM      2 O    GLY G   1      22.956 -15.535  17.765  1.00 43.93 LIG-0.27  OA
ATOM      3  N   GLY G   2      24.814 -16.131  18.921  1.00 44.62 LIG-0.35  N 
ATOM      4 H    GLY G   2      25.174 -16.539  19.588  1.00 44.62 LIG 0.16  HD
ENDROOT
BRANCH 3 5
ATOM      5  CA  GLY G   2      25.764 -15.675  17.922  1.00 45.53 LIG 0.23  C 
BRANCH 5 6
ATOM      6  C   GLY G   2      26.832 -14.767  18.470  1.00 46.02 LIG 0.23  C 
ATOM      7 O    GLY G   2      26.644 -13.553  18.520  1.00 47.02 LIG-0.27  OA
ATOM      8  N   GLY G   3      27.940 -15.366  18.906  1.00 46.62 LIG-0.35  N 
ATOM      9 H    GLY G   3      28.044 -16.220  18.920  1.00 46.62 LIG 0.16  HD
BRANCH 8 10
ATOM     10  CA  GLY G   3      29.091 -14.621  19.406  1.00 46.72 LIG 0.21  C 
BRANCH 10 11
ATOM     11  C   GLY G   3      28.855 -13.900  20.723  1.00 46.79 LIG 0.21  C 
ATOM     12 O    GLY G   3      28.018 -13.006  20.809  1.00 46.39 LIG-0.29  OA
ENDBRANCH 10 11
ENDBRANCH 8 10
ENDBRANCH 5 6
ENDBRANCH 3 5
BRANCH 1 13
ATOM     13  CA  GLY G   1      22.682 -16.199  20.036  1.00 43.33 LIG 0.33  C 
BRANCH 13 14
ATOM     14  N   GLY G   1      23.591 -16.326  21.198  1.00 42.49 LIG-0.07  N 
ATOM     15 H2   GLY G   1      24.001 -17.115  21.168  1.00 42.49 LIG 0.27  HD
ATOM     16 H3   GLY G   1      24.198 -15.675  21.173  1.00 42.49 LIG 0.27  HD
ATOM     17 H1   GLY G   1      23.121 -16.264  21.951  1.00 42.49 LIG 0.27  HD
ENDBRANCH 13 14
ENDBRANCH 1 13
TORSDOF 6
ENDMDL
MODEL 17
USER: ADFR SOLUTION from run 87
USER: SCORE 6.604558 LL:  -0.762 LR:  -5.865 RR:   0.000 FEB:  -4.076
USER: RMSD 3.508988
USER: SEED 86
USER: STATUS no improvement in best in 29 clusters for 5 generations
USER: GENES 8
USER: genes 0 Translation |==|  0.42780 0.45684 0.19207
USER: genes 1 Rotation |==|  0.43781 0.37068 0.08549 0.73999
USER: genes 2 Torsion [C]-N--CA-[C] |==|  0.20834
USER: genes 3 Torsion [N]-CA--C-[N] |==|  0.02571
USER: genes 4 Torsion [C]-N--CA-[C] |==|  0.84986
USER: genes 5 Torsion [N]-CA--C-[O] |==|  0.19333
USER: genes 6 Torsion [N]-C--CA-[N] |==|  0.79186
USER: genes 7 Torsion [C]-CA--N-[H2] |==|  0.77834
ROOT
ATOM      1  C   GLY G   1      24.611 -17.355  13.780  1.00 43.90 LIG 0.24  C 
ATOM      2 O    GLY G   1      24.616 -18.534  13.418  1.00 43.93 LIG-0.27  OA
ATOM      3  N   GLY G   2      23.988 -16.913  14.875  1.00 44.62 LIG-0.35  N 
ATOM      4 H    GLY G   2      23.863 -16.079  15.048  1.00 44.62 LIG 0.16  HD
ENDROOT
BRANCH 3 5
ATOM      5  CA  GLY G   2      23.461 -17.815  15.883  1.00 45.53 LIG 0.23  C 
BRANCH 5 6
ATOM      6  C   GLY G   2      24.518 -18.430  16.760  1.00 46.02 LIG 0.23  C 
ATOM      7 O    GLY G   2      24.229 -19.355  17.517  1.00 47.02 LIG-0.27  OA
ATOM      8  N   GLY G   3      25.747 -17.933  16.630  1.00 46.62 LIG-0.35  N 
ATOM      9 H    GLY G   3      25.955 -17.324  16.058  1.00 46.62 LIG 0.16  HD
BRANCH 8 10
ATOM     10  CA  GLY G   3      26.866 -18.379  17.453  1.00 46.72 LIG 0.21  C 
BRANCH 10 11
ATOM     11  C   GLY G   3      26.621 -18.300  18.951  1.00 46.79 LIG 0.21  C 
ATOM     12 O    GLY G   3      25.823 -19.055  19.498  1.00 46.39 LIG-0.29  OA
ENDBRANCH 10 11
ENDBRANCH 8 10
ENDBRANCH 5 6
ENDBRANCH 3 5
BRANCH 1 13
ATOM     13  CA  GLY G   1      25.347 -16.309  12.982  1.00 43.33 LIG 0.33  C 
BRANCH 13 14
ATOM     14  N   GLY G   1      24.364 -15.490  12.238  1.00 42.49 LIG-0.07  N 
ATOM     15 H2   GLY G   1      24.104 -15.927  11.508  1.00 42.49 LIG 0.27  HD
ATOM     16 H3   GLY G   1      23.657 -15.331  12.755  1.00 42.49 LIG 0.27  HD
ATOM     17 H1   GLY G   1      24.738 -14.717  12.003  1.00 42.49 LIG 0.27  HD
ENDBRANCH 13 14
ENDBRANCH 1 13
TORSDOF 6
ENDMDL
MODEL 18
USER: ADFR SOLUTION from run 186
USER: SCORE 6.522667 LL:  -0.858 LR:  -5.811 RR:   0.000 FEB:  -4.021
USER: RMSD 2.431891
USER: SEED 185
USER: STATUS no improvement in best in 14 clusters for 5 generations
USER: GENES 8
USER: genes 0 Translation |==|  0.43939 0.39422 0.39791
USER: genes 1 Rotation |==|  0.12281 0.45260 0.20159 0.62818
USER: genes 2 Torsion [C]-N--CA-[C] |==|  0.25749
USER: genes 3 Torsion [N]-CA--C-[N] |==|  0.42844
USER: genes 4 Torsion [C]-N--CA-[C] |==|  0.67270
USER: genes 5 Torsion [N]-CA--C-[O] |==|  0.35817
USER: genes 6 Torsion [N]-C--CA-[N] |==|  0.30248
USER: genes 7 Torsion [C]-CA--N-[H2] |==|  0.68640
ROOT
ATOM      1  C   GLY G   1      24.810 -18.154  16.713  1.00 43.90 LIG 0.24  C 
ATOM      2 O    GLY G   1      24.356 -19.057  17.420  1.00 43.93 LIG-0.27  OA
ATOM      3  N   GLY G   2      25.781 -17.322  17.096  1.00 44.62 LIG-0.35  N 
ATOM      4 H    GLY G   2      25.997 -16.609  16.666  1.00 44.62 LIG 0.16  HD
ENDROOT
BRANCH 3 5
ATOM      5  CA  GLY G   2      26.571 -17.554  18.293  1.00 45.53 LIG 0.23  C 
BRANCH 5 6
ATOM      6  C   GLY G   2      27.844 -18.317  18.043  1.00 46.02 LIG 0.23  C 
ATOM      7 O    GLY G   2      27.939 -19.055  17.064  1.00 47.02 LIG-0.27  OA
ATOM      8  N   GLY G   3      28.829 -18.112  18.917  1.00 46.62 LIG-0.35  N 
ATOM      9 H    GLY G   3      28.776 -17.552  19.568  1.00 46.62 LIG 0.16  HD
BRANCH 8 10
ATOM     10  CA  GLY G   3      30.100 -18.824  18.849  1.00 46.72 LIG 0.21  C 
BRANCH 10 11
ATOM     11  C   GLY G   3      30.405 -19.692  20.058  1.00 46.79 LIG 0.21  C 
ATOM     12 O    GLY G   3      30.731 -20.868  19.921  1.00 46.39 LIG-0.29  OA
ENDBRANCH 10 11
ENDBRANCH 8 10
ENDBRANCH 5 6
ENDBRANCH 3 5
BRANCH 1 13
ATOM     13  CA  GLY G   1      24.283 -17.939  15.317  1.00 43.33 LIG 0.33  C 
BRANCH 13 14
ATOM     14  N   GLY G   1      24.731 -19.055  14.455  1.00 42.49 LIG-0.07  N 
ATOM     15 H2   GLY G   1      25.305 -18.749  13.847  1.00 42.49 LIG 0.27  HD
ATOM     16 H3   GLY G   1      25.130 -19.674  14.954  1.00 42.49 LIG 0.27  HD
ATOM     17 H1   GLY G   1      24.027 -19.414  14.043  1.00 42.49 LIG 0.27  HD
ENDBRANCH 13 14
ENDBRANCH 1 13
TORSDOF 6
ENDMDL
MODEL 19
USER: ADFR SOLUTION from run 156
USER: SCORE 5.918984 LL:  -0.664 LR:  -5.736 RR:   0.000 FEB:  -3.946
USER: RMSD 3.002867
USER: SEED 155
USER: STATUS no improvement in best in 25 clusters for 5 generations
USER: GENES 8
USER: genes 0 Translation |==|  0.48286 0.40522 0.51392
USER: genes 1 Rotation |==|  0.20627 0.73491 0.40263 0.81474
USER: genes 2 Torsion [C]-N--CA-[C] |==|  0.59450
USER: genes 3 Torsion [N]-CA--C-[N] |==|  0.05434
USER: genes 4 Torsion [C]-N--CA-[C] |==|  0.88668
USER: genes 5 Torsion [N]-CA--C-[O] |==|  0.71060
USER: genes 6 Torsion [N]-C--CA-[N] |==|  0.06430
USER: genes 7 Torsion [C]-CA--N-[H2] |==|  0.85298
ROOT
ATOM      1  C   GLY G   1      25.560 -18.013  18.366  1.00 43.90 LIG 0.24  C 
ATOM      2 O    GLY G   1      25.003 -19.009  17.897  1.00 43.93 LIG-0.27  OA
ATOM      3  N   GLY G   2      26.883 -17.834  18.380  1.00 44.62 LIG-0.35  N 
ATOM      4 H    GLY G   2      27.275 -17.215  18.831  1.00 44.62 LIG 0.16  HD
ENDROOT
BRANCH 3 5
ATOM      5  CA  GLY G   2      27.786 -18.680  17.622  1.00 45.53 LIG 0.23  C 
BRANCH 5 6
ATOM      6  C   GLY G   2      29.113 -18.910  18.295  1.00 46.02 LIG 0.23  C 
ATOM      7 O    GLY G   2      30.088 -19.262  17.635  1.00 47.02 LIG-0.27  OA
ATOM      8  N   GLY G   3      29.148 -18.680  19.608  1.00 46.62 LIG-0.35  N 
ATOM      9 H    GLY G   3      28.477 -18.381  20.056  1.00 46.62 LIG 0.16  HD
BRANCH 8 10
ATOM     10  CA  GLY G   3      30.340 -18.917  20.414  1.00 46.72 LIG 0.21  C 
BRANCH 10 11
ATOM     11  C   GLY G   3      31.096 -20.189  20.068  1.00 46.79 LIG 0.21  C 
ATOM     12 O    GLY G   3      31.020 -21.181  20.786  1.00 46.39 LIG-0.29  OA
ENDBRANCH 10 11
ENDBRANCH 8 10
ENDBRANCH 5 6
ENDBRANCH 3 5
BRANCH 1 13
ATOM     13  CA  GLY G   1      24.745 -16.894  18.962  1.00 43.33 LIG 0.33  C 
BRANCH 13 14
ATOM     14  N   GLY G   1      25.537 -15.644  18.918  1.00 42.49 LIG-0.07  N 
ATOM     15 H2   GLY G   1      26.330 -15.782  19.297  1.00 42.49 LIG 0.27  HD
ATOM     16 H3   GLY G   1      25.651 -15.395  18.072  1.00 42.49 LIG 0.27  HD
ATOM     17 H1   GLY G   1      25.105 -15.003  19.360  1.00 42.49 LIG 0.27  HD
ENDBRANCH 13 14
ENDBRANCH 1 13
TORSDOF 6
ENDMDL
MODEL 20
USER: ADFR SOLUTION from run 111
USER: SCORE 5.647496 LL:  -0.634 LR:  -5.732 RR:   0.000 FEB:  -3.942
USER: RMSD 3.468740
USER: SEED 110
USER: STATUS no improvement in best in 21 clusters for 5 generations
USER: GENES 8
USER: genes 0 Translation |==|  0.52859 0.40729 0.51715
USER: genes 1 Rotation |==|  0.18111 0.70551 0.33677 0.78184
USER: genes 2 Torsion [C]-N--CA-[C] |==|  0.58430
USER: genes 3 Torsion [N]-CA--C-[N] |==|  0.96782
USER: genes 4 Torsion [C]-N--CA-[C] |==|  0.53514
USER: genes 5 Torsion [N]-CA--C-[O] |==|  0.22291
USER: genes 6 Torsion [N]-C--CA-[N] |==|  0.99005
USER: genes 7 Torsion [C]-CA--N-[H2] |==|  0.60292
ROOT
ATOM      1  C   GLY G   1      26.349 -17.987  18.412  1.00 43.90 LIG 0.24  C 
ATOM      2 O    GLY G   1      25.768 -19.045  18.157  1.00 43.93 LIG-0.27  OA
ATOM      3  N   GLY G   2      27.669 -17.881  18.582  1.00 44.62 LIG-0.35  N 
ATOM      4 H    GLY G   2      28.054 -17.180  18.899  1.00 44.62 LIG 0.16  HD
ENDROOT
BRANCH 3 5
ATOM      5  CA  GLY G   2      28.582 -18.957  18.239  1.00 45.53 LIG 0.23  C 
BRANCH 5 6
ATOM      6  C   GLY G   2      29.820 -18.999  19.094  1.00 46.02 LIG 0.23  C 
ATOM      7 O    GLY G   2      30.580 -19.963  19.033  1.00 47.02 LIG-0.27  OA
ATOM      8  N   GLY G   3      30.032 -17.933  19.866  1.00 46.62 LIG-0.35  N 
ATOM      9 H    GLY G   3      29.527 -17.237  19.864  1.00 46.62 LIG 0.16  HD
BRANCH 8 10
ATOM     10  CA  GLY G   3      31.152 -17.849  20.797  1.00 46.72 LIG 0.21  C 
BRANCH 10 11
ATOM     11  C   GLY G   3      31.061 -16.707  21.795  1.00 46.79 LIG 0.21  C 
ATOM     12 O    GLY G   3      30.363 -16.805  22.800  1.00 46.39 LIG-0.29  OA
ENDBRANCH 10 11
ENDBRANCH 8 10
ENDBRANCH 5 6
ENDBRANCH 3 5
BRANCH 1 13
ATOM     13  CA  GLY G   1      25.572 -16.702  18.539  1.00 43.33 LIG 0.33  C 
BRANCH 13 14
ATOM     14  N   GLY G   1      26.499 -15.612  18.918  1.00 42.49 LIG-0.07  N 
ATOM     15 H2   GLY G   1      26.092 -15.058  19.483  1.00 42.49 LIG 0.27  HD
ATOM     16 H3   GLY G   1      27.220 -15.958  19.309  1.00 42.49 LIG 0.27  HD
ATOM     17 H1   GLY G   1      26.744 -15.163  18.189  1.00 42.49 LIG 0.27  HD
ENDBRANCH 13 14
ENDBRANCH 1 13
TORSDOF 6
ENDMDL
MODEL 21
USER: ADFR SOLUTION from run 37
USER: SCORE 6.201084 LL:  -0.807 LR:  -5.706 RR:   0.000 FEB:  -3.916
USER: RMSD 3.376405
USER: SEED 36
USER: STATUS no improvement in best in 20 clusters for 5 generations
USER: GENES 8
USER: genes 0 Translation |==|  0.34559 0.57001 0.38038
USER: genes 1 Rotation |==|  0.86510 0.49245 0.78206 0.69259
USER: genes 2 Torsion [C]-N--CA-[C] |==|  0.65548
USER: genes 3 Torsion [N]-CA--C-[N] |==|  0.47787
USER: genes 4 Torsion [C]-N--CA-[C] |==|  0.53356
USER: genes 5 Torsion [N]-CA--C-[O] |==|  0.90423
USER: genes 6 Torsion [N]-C--CA-[N] |==|  0.81608
USER: genes 7 Torsion [C]-CA--N-[H2] |==|  0.64507
ROOT
ATOM      1  C   GLY G   1      23.192 -15.912  16.463  1.00 43.90 LIG 0.24  C 
ATOM      2 O    GLY G   1      22.505 -15.336  17.310  1.00 43.93 LIG-0.27  OA
ATOM      3  N   GLY G   2      24.503 -16.132  16.589  1.00 44.62 LIG-0.35  N 
ATOM      4 H    GLY G   2      25.005 -16.400  15.944  1.00 44.62 LIG 0.16  HD
ENDROOT
BRANCH 3 5
ATOM      5  CA  GLY G   2      25.204 -15.932  17.844  1.00 45.53 LIG 0.23  C 
BRANCH 5 6
ATOM      6  C   GLY G   2      26.367 -14.980  17.746  1.00 46.02 LIG 0.23  C 
ATOM      7 O    GLY G   2      26.719 -14.546  16.651  1.00 47.02 LIG-0.27  OA
ATOM      8  N   GLY G   3      26.939 -14.637  18.900  1.00 46.62 LIG-0.35  N 
ATOM      9 H    GLY G   3      26.653 -14.900  19.668  1.00 46.62 LIG 0.16  HD
BRANCH 8 10
ATOM     10  CA  GLY G   3      28.114 -13.775  18.968  1.00 46.72 LIG 0.21  C 
BRANCH 10 11
ATOM     11  C   GLY G   3      28.788 -13.730  20.329  1.00 46.79 LIG 0.21  C 
ATOM     12 O    GLY G   3      28.127 -13.805  21.361  1.00 46.39 LIG-0.29  OA
ENDBRANCH 10 11
ENDBRANCH 8 10
ENDBRANCH 5 6
ENDBRANCH 3 5
BRANCH 1 13
ATOM     13  CA  GLY G   1      22.564 -16.433  15.196  1.00 43.33 LIG 0.33  C 
BRANCH 13 14
ATOM     14  N   GLY G   1      23.106 -15.680  14.043  1.00 42.49 LIG-0.07  N 
ATOM     15 H2   GLY G   1      22.435 -15.363  13.553  1.00 42.49 LIG 0.27  HD
ATOM     16 H3   GLY G   1      23.603 -15.004  14.338  1.00 42.49 LIG 0.27  HD
ATOM     17 H1   GLY G   1      23.607 -16.221  13.544  1.00 42.49 LIG 0.27  HD
ENDBRANCH 13 14
ENDBRANCH 1 13
TORSDOF 6
ENDMDL
MODEL 22
USER: ADFR SOLUTION from run 79
USER: SCORE 6.788815 LL:  -1.164 LR:  -5.679 RR:   0.000 FEB:  -3.889
USER: RMSD 3.501481
USER: SEED 78
USER: STATUS no improvement in best in 15 clusters for 5 generations
USER: GENES 8
USER: genes 0 Translation |==|  0.40737 0.54280 0.27703
USER: genes 1 Rotation |==|  0.80821 0.61194 0.81400 0.70947
USER: genes 2 Torsion [C]-N--CA-[C] |==|  0.20742
USER: genes 3 Torsion [N]-CA--C-[N] |==|  0.07357
USER: genes 4 Torsion [C]-N--CA-[C] |==|  0.32599
USER: genes 5 Torsion [N]-CA--C-[O] |==|  0.10050
USER: genes 6 Torsion [N]-C--CA-[N] |==|  0.23910
USER: genes 7 Torsion [C]-CA--N-[H2] |==|  0.64663
ROOT
ATOM      1  C   GLY G   1      24.258 -16.259  14.991  1.00 43.90 LIG 0.24  C 
ATOM      2 O    GLY G   1      23.330 -15.682  15.562  1.00 43.93 LIG-0.27  OA
ATOM      3  N   GLY G   2      25.544 -15.938  15.144  1.00 44.62 LIG-0.35  N 
ATOM      4 H    GLY G   2      26.174 -16.241  14.642  1.00 44.62 LIG 0.16  HD
ENDROOT
BRANCH 3 5
ATOM      5  CA  GLY G   2      25.998 -15.036  16.187  1.00 45.53 LIG 0.23  C 
BRANCH 5 6
ATOM      6  C   GLY G   2      26.005 -15.651  17.561  1.00 46.02 LIG 0.23  C 
ATOM      7 O    GLY G   2      25.857 -14.942  18.555  1.00 47.02 LIG-0.27  OA
ATOM      8  N   GLY G   3      26.146 -16.975  17.607  1.00 46.62 LIG-0.35  N 
ATOM      9 H    GLY G   3      26.192 -17.473  16.907  1.00 46.62 LIG 0.16  HD
BRANCH 8 10
ATOM     10  CA  GLY G   3      26.235 -17.712  18.864  1.00 46.72 LIG 0.21  C 
BRANCH 10 11
ATOM     11  C   GLY G   3      25.108 -18.705  19.096  1.00 46.79 LIG 0.21  C 
ATOM     12 O    GLY G   3      24.628 -19.341  18.163  1.00 46.39 LIG-0.29  OA
ENDBRANCH 10 11
ENDBRANCH 8 10
ENDBRANCH 5 6
ENDBRANCH 3 5
BRANCH 1 13
ATOM     13  CA  GLY G   1      23.982 -17.414  14.062  1.00 43.33 LIG 0.33  C 
BRANCH 13 14
ATOM     14  N   GLY G   1      24.081 -18.680  14.823  1.00 42.49 LIG-0.07  N 
ATOM     15 H2   GLY G   1      24.641 -19.233  14.408  1.00 42.49 LIG 0.27  HD
ATOM     16 H3   GLY G   1      24.383 -18.511  15.642  1.00 42.49 LIG 0.27  HD
ATOM     17 H1   GLY G   1      23.276 -19.059  14.876  1.00 42.49 LIG 0.27  HD
ENDBRANCH 13 14
ENDBRANCH 1 13
TORSDOF 6
ENDMDL
MODEL 23
USER: ADFR SOLUTION from run 101
USER: SCORE 5.986781 LL:  -0.820 LR:  -5.665 RR:   0.000 FEB:  -3.876
USER: RMSD 4.634030
USER: SEED 100
USER: STATUS no improvement in best in 17 clusters for 5 generations
USER: GENES 8
USER: genes 0 Translation |==|  0.25193 0.61208 0.69907
USER: genes 1 Rotation |==|  0.04474 0.67489 0.41864 0.57435
USER: genes 2 Torsion [C]-N--CA-[C] |==|  0.41369
USER: genes 3 Torsion [N]-CA--C-[N] |==|  0.37942
USER: genes 4 Torsion [C]-N--CA-[C] |==|  0.68383
USER: genes 5 Torsion [N]-CA--C-[O] |==|  0.10508
USER: genes 6 Torsion [N]-C--CA-[N] |==|  0.25758
USER: genes 7 Torsion [C]-CA--N-[H2] |==|  0.81531
ROOT
ATOM      1  C   GLY G   1      21.577 -15.376  21.005  1.00 43.90 LIG 0.24  C 
ATOM      2 O    GLY G   1      21.467 -16.265  21.852  1.00 43.93 LIG-0.27  OA
ATOM      3  N   GLY G   2      22.616 -15.259  20.176  1.00 44.62 LIG-0.35  N 
ATOM      4 H    GLY G   2      22.762 -14.565  19.689  1.00 44.62 LIG 0.16  HD
ENDROOT
BRANCH 3 5
ATOM      5  CA  GLY G   2      23.606 -16.310  20.022  1.00 45.53 LIG 0.23  C 
BRANCH 5 6
ATOM      6  C   GLY G   2      24.213 -16.376  18.646  1.00 46.02 LIG 0.23  C 
ATOM      7 O    GLY G   2      23.504 -16.244  17.651  1.00 47.02 LIG-0.27  OA
ATOM      8  N   GLY G   3      25.534 -16.552  18.600  1.00 46.62 LIG-0.35  N 
ATOM      9 H    GLY G   3      26.033 -16.588  19.300  1.00 46.62 LIG 0.16  HD
BRANCH 8 10
ATOM     10  CA  GLY G   3      26.262 -16.700  17.344  1.00 46.72 LIG 0.21  C 
BRANCH 10 11
ATOM     11  C   GLY G   3      26.891 -18.067  17.135  1.00 46.79 LIG 0.21  C 
ATOM     12 O    GLY G   3      26.312 -19.088  17.495  1.00 46.39 LIG-0.29  OA
ENDBRANCH 10 11
ENDBRANCH 8 10
ENDBRANCH 5 6
ENDBRANCH 3 5
BRANCH 1 13
ATOM     13  CA  GLY G   1      20.495 -14.339  20.843  1.00 43.33 LIG 0.33  C 
BRANCH 13 14
ATOM     14  N   GLY G   1      19.466 -14.857  19.912  1.00 42.49 LIG-0.07  N 
ATOM     15 H2   GLY G   1      19.816 -14.938  19.098  1.00 42.49 LIG 0.27  HD
ATOM     16 H3   GLY G   1      19.183 -15.651  20.194  1.00 42.49 LIG 0.27  HD
ATOM     17 H1   GLY G   1      18.779 -14.291  19.884  1.00 42.49 LIG 0.27  HD
ENDBRANCH 13 14
ENDBRANCH 1 13
TORSDOF 6
ENDMDL
MODEL 24
USER: ADFR SOLUTION from run 128
USER: SCORE 6.550991 LL:  -0.913 LR:  -5.665 RR:   0.000 FEB:  -3.876
USER: RMSD 5.775227
USER: SEED 127
USER: STATUS no improvement in best in 24 clusters for 5 generations
USER: GENES 8
USER: genes 0 Translation |==|  0.50527 0.56280 0.41892
USER: genes 1 Rotation |==|  0.65954 0.85331 0.18457 0.51484
USER: genes 2 Torsion [C]-N--CA-[C] |==|  0.74049
USER: genes 3 Torsion [N]-CA--C-[N] |==|  0.01694
USER: genes 4 Torsion [C]-N--CA-[C] |==|  0.34059
USER: genes 5 Torsion [N]-CA--C-[O] |==|  0.86559
USER: genes 6 Torsion [N]-C--CA-[N] |==|  0.63986
USER: genes 7 Torsion [C]-CA--N-[H2] |==|  0.80026
ROOT
ATOM      1  C   GLY G   1      25.947 -16.004  17.013  1.00 43.90 LIG 0.24  C 
ATOM      2 O    GLY G   1      25.918 -14.853  16.572  1.00 43.93 LIG-0.27  OA
ATOM      3  N   GLY G   2      24.947 -16.879  16.884  1.00 44.62 LIG-0.35  N 
ATOM      4 H    GLY G   2      24.908 -17.625  17.311  1.00 44.62 LIG 0.16  HD
ENDROOT
BRANCH 3 5
ATOM      5  CA  GLY G   2      23.822 -16.643  15.997  1.00 45.53 LIG 0.23  C 
BRANCH 5 6
ATOM      6  C   GLY G   2      22.642 -15.995  16.672  1.00 46.02 LIG 0.23  C 
ATOM      7 O    GLY G   2      21.579 -15.868  16.068  1.00 47.02 LIG-0.27  OA
ATOM      8  N   GLY G   3      22.829 -15.614  17.935  1.00 46.62 LIG-0.35  N 
ATOM      9 H    GLY G   3      23.558 -15.755  18.371  1.00 46.62 LIG 0.16  HD
BRANCH 8 10
ATOM     10  CA  GLY G   3      21.805 -14.916  18.704  1.00 46.72 LIG 0.21  C 
BRANCH 10 11
ATOM     11  C   GLY G   3      21.399 -15.609  19.994  1.00 46.79 LIG 0.21  C 
ATOM     12 O    GLY G   3      21.125 -16.805  20.005  1.00 46.39 LIG-0.29  OA
ENDBRANCH 10 11
ENDBRANCH 8 10
ENDBRANCH 5 6
ENDBRANCH 3 5
BRANCH 1 13
ATOM     13  CA  GLY G   1      27.167 -16.513  17.739  1.00 43.33 LIG 0.33  C 
BRANCH 13 14
ATOM     14  N   GLY G   1      27.537 -15.545  18.796  1.00 42.49 LIG-0.07  N 
ATOM     15 H2   GLY G   1      27.879 -14.814  18.422  1.00 42.49 LIG 0.27  HD
ATOM     16 H3   GLY G   1      26.814 -15.327  19.266  1.00 42.49 LIG 0.27  HD
ATOM     17 H1   GLY G   1      28.142 -15.912  19.336  1.00 42.49 LIG 0.27  HD
ENDBRANCH 13 14
ENDBRANCH 1 13
TORSDOF 6
ENDMDL
MODEL 25
USER: ADFR SOLUTION from run 3
USER: SCORE 6.387134 LL:  -0.912 LR:  -5.643 RR:   0.000 FEB:  -3.853
USER: RMSD 4.281266
USER: SEED 15928
USER: STATUS no improvement in best in 24 clusters for 5 generations
USER: GENES 8
USER: genes 0 Translation |==|  0.29802 0.59288 0.62813
USER: genes 1 Rotation |==|  0.84679 0.56773 0.46357 0.85188
USER: genes 2 Torsion [C]-N--CA-[C] |==|  0.81138
USER: genes 3 Torsion [N]-CA--C-[N] |==|  0.37592
USER: genes 4 Torsion [C]-N--CA-[C] |==|  0.34297
USER: genes 5 Torsion [N]-CA--C-[O] |==|  0.05459
USER: genes 6 Torsion [N]-C--CA-[N] |==|  0.73741
USER: genes 7 Torsion [C]-CA--N-[H2] |==|  0.81528
ROOT
ATOM      1  C   GLY G   1      22.372 -15.621  19.994  1.00 43.90 LIG 0.24  C 
ATOM      2 O    GLY G   1      23.057 -14.606  20.145  1.00 43.93 LIG-0.27  OA
ATOM      3  N   GLY G   2      22.835 -16.767  19.493  1.00 44.62 LIG-0.35  N 
ATOM      4 H    GLY G   2      22.331 -17.423  19.255  1.00 44.62 LIG 0.16  HD
ENDROOT
BRANCH 3 5
ATOM      5  CA  GLY G   2      24.254 -17.012  19.303  1.00 45.53 LIG 0.23  C 
BRANCH 5 6
ATOM      6  C   GLY G   2      24.880 -16.158  18.233  1.00 46.02 LIG 0.23  C 
ATOM      7 O    GLY G   2      24.297 -15.980  17.165  1.00 47.02 LIG-0.27  OA
ATOM      8  N   GLY G   3      26.055 -15.607  18.539  1.00 46.62 LIG-0.35  N 
ATOM      9 H    GLY G   3      26.432 -15.690  19.308  1.00 46.62 LIG 0.16  HD
BRANCH 8 10
ATOM     10  CA  GLY G   3      26.818 -14.807  17.587  1.00 46.72 LIG 0.21  C 
BRANCH 10 11
ATOM     11  C   GLY G   3      27.151 -13.403  18.065  1.00 46.79 LIG 0.21  C 
ATOM     12 O    GLY G   3      27.119 -13.122  19.259  1.00 46.39 LIG-0.29  OA
ENDBRANCH 10 11
ENDBRANCH 8 10
ENDBRANCH 5 6
ENDBRANCH 3 5
BRANCH 1 13
ATOM     13  CA  GLY G   1      20.919 -15.627  20.396  1.00 43.33 LIG 0.33  C 
BRANCH 13 14
ATOM     14  N   GLY G   1      20.106 -15.106  19.273  1.00 42.49 LIG-0.07  N 
ATOM     15 H2   GLY G   1      20.294 -14.246  19.144  1.00 42.49 LIG 0.27  HD
ATOM     16 H3   GLY G   1      20.292 -15.565  18.534  1.00 42.49 LIG 0.27  HD
ATOM     17 H1   GLY G   1      19.241 -15.194  19.467  1.00 42.49 LIG 0.27  HD
ENDBRANCH 13 14
ENDBRANCH 1 13
TORSDOF 6
ENDMDL
MODEL 26
USER: ADFR SOLUTION from run 158
USER: SCORE 6.532545 LL:  -0.977 LR:  -5.598 RR:   0.000 FEB:  -3.808
USER: RMSD 3.367762
USER: SEED 157
USER: STATUS no improvement in best in 16 clusters for 5 generations
USER: GENES 8
USER: genes 0 Translation |==|  0.42067 0.47901 0.23606
USER: genes 1 Rotation |==|  0.77250 0.52630 0.39603 0.90527
USER: genes 2 Torsion [C]-N--CA-[C] |==|  0.20562
USER: genes 3 Torsion [N]-CA--C-[N] |==|  0.00675
USER: genes 4 Torsion [C]-N--CA-[C] |==|  0.63231
USER: genes 5 Torsion [N]-CA--C-[O] |==|  0.06697
USER: genes 6 Torsion [N]-C--CA-[N] |==|  0.59193
USER: genes 7 Torsion [C]-CA--N-[H2] |==|  0.37049
ROOT
ATOM      1  C   GLY G   1      24.488 -17.073  14.407  1.00 43.90 LIG 0.24  C 
ATOM      2 O    GLY G   1      25.399 -16.289  14.130  1.00 43.93 LIG-0.27  OA
ATOM      3  N   GLY G   2      24.617 -18.401  14.404  1.00 44.62 LIG-0.35  N 
ATOM      4 H    GLY G   2      23.952 -18.945  14.455  1.00 44.62 LIG 0.16  HD
ENDROOT
BRANCH 3 5
ATOM      5  CA  GLY G   2      25.911 -19.052  14.313  1.00 45.53 LIG 0.23  C 
BRANCH 5 6
ATOM      6  C   GLY G   2      26.719 -18.980  15.581  1.00 46.02 LIG 0.23  C 
ATOM      7 O    GLY G   2      27.862 -19.430  15.611  1.00 47.02 LIG-0.27  OA
ATOM      8  N   GLY G   3      26.128 -18.383  16.616  1.00 46.62 LIG-0.35  N 
ATOM      9 H    GLY G   3      25.349 -18.020  16.573  1.00 46.62 LIG 0.16  HD
BRANCH 8 10
ATOM     10  CA  GLY G   3      26.754 -18.290  17.930  1.00 46.72 LIG 0.21  C 
BRANCH 10 11
ATOM     11  C   GLY G   3      25.852 -18.680  19.089  1.00 46.79 LIG 0.21  C 
ATOM     12 O    GLY G   3      24.896 -19.430  18.918  1.00 46.39 LIG-0.29  OA
ENDBRANCH 10 11
ENDBRANCH 8 10
ENDBRANCH 5 6
ENDBRANCH 3 5
BRANCH 1 13
ATOM     13  CA  GLY G   1      23.126 -16.552  14.793  1.00 43.33 LIG 0.33  C 
BRANCH 13 14
ATOM     14  N   GLY G   1      22.856 -15.305  14.043  1.00 42.49 LIG-0.07  N 
ATOM     15 H2   GLY G   1      22.036 -15.337  13.699  1.00 42.49 LIG 0.27  HD
ATOM     16 H3   GLY G   1      22.920 -14.608  14.592  1.00 42.49 LIG 0.27  HD
ATOM     17 H1   GLY G   1      23.449 -15.219  13.385  1.00 42.49 LIG 0.27  HD
ENDBRANCH 13 14
ENDBRANCH 1 13
TORSDOF 6
ENDMDL
MODEL 27
USER: ADFR SOLUTION from run 35
USER: SCORE 6.263516 LL:  -0.863 LR:  -5.599 RR:   0.000 FEB:  -3.810
USER: RMSD 3.445858
USER: SEED 34
USER: STATUS no improvement in best in 23 clusters for 5 generations
USER: GENES 8
USER: genes 0 Translation |==|  0.40525 0.35428 0.39561
USER: genes 1 Rotation |==|  0.99160 0.47845 0.58865 0.50126
USER: genes 2 Torsion [C]-N--CA-[C] |==|  0.81779
USER: genes 3 Torsion [N]-CA--C-[N] |==|  0.86808
USER: genes 4 Torsion [C]-N--CA-[C] |==|  0.49477
USER: genes 5 Torsion [N]-CA--C-[O] |==|  0.32782
USER: genes 6 Torsion [N]-C--CA-[N] |==|  0.32808
USER: genes 7 Torsion [C]-CA--N-[H2] |==|  0.31967
ROOT
ATOM      1  C   GLY G   1      24.222 -18.663  16.680  1.00 43.90 LIG 0.24  C 
ATOM      2 O    GLY G   1      24.508 -19.072  17.808  1.00 43.93 LIG-0.27  OA
ATOM      3  N   GLY G   2      25.123 -18.353  15.747  1.00 44.62 LIG-0.35  N 
ATOM      4 H    GLY G   2      24.933 -17.936  15.019  1.00 44.62 LIG 0.16  HD
ENDROOT
BRANCH 3 5
ATOM      5  CA  GLY G   2      26.527 -18.700  15.881  1.00 45.53 LIG 0.23  C 
BRANCH 5 6
ATOM      6  C   GLY G   2      27.222 -17.992  17.013  1.00 46.02 LIG 0.23  C 
ATOM      7 O    GLY G   2      27.951 -18.619  17.779  1.00 47.02 LIG-0.27  OA
ATOM      8  N   GLY G   3      27.017 -16.678  17.092  1.00 46.62 LIG-0.35  N 
ATOM      9 H    GLY G   3      26.551 -16.234  16.521  1.00 46.62 LIG 0.16  HD
BRANCH 8 10
ATOM     10  CA  GLY G   3      27.569 -15.861  18.168  1.00 46.72 LIG 0.21  C 
BRANCH 10 11
ATOM     11  C   GLY G   3      27.260 -14.377  18.058  1.00 46.79 LIG 0.21  C 
ATOM     12 O    GLY G   3      26.606 -13.805  18.925  1.00 46.39 LIG-0.29  OA
ENDBRANCH 10 11
ENDBRANCH 8 10
ENDBRANCH 5 6
ENDBRANCH 3 5
BRANCH 1 13
ATOM     13  CA  GLY G   1      22.780 -18.497  16.273  1.00 43.33 LIG 0.33  C 
BRANCH 13 14
ATOM     14  N   GLY G   1      22.106 -19.813  16.334  1.00 42.49 LIG-0.07  N 
ATOM     15 H2   GLY G   1      21.477 -19.796  16.963  1.00 42.49 LIG 0.27  HD
ATOM     16 H3   GLY G   1      21.733 -19.992  15.547  1.00 42.49 LIG 0.27  HD
ATOM     17 H1   GLY G   1      22.703 -20.444  16.529  1.00 42.49 LIG 0.27  HD
ENDBRANCH 13 14
ENDBRANCH 1 13
TORSDOF 6
ENDMDL
MODEL 28
USER: ADFR SOLUTION from run 47
USER: SCORE 6.325014 LL:  -0.755 LR:  -5.592 RR:   0.000 FEB:  -3.802
USER: RMSD 3.067055
USER: SEED 46
USER: STATUS no improvement in best in 31 clusters for 5 generations
USER: GENES 8
USER: genes 0 Translation |==|  0.55749 0.64718 0.47556
USER: genes 1 Rotation |==|  0.62149 0.59237 0.07405 0.71278
USER: genes 2 Torsion [C]-N--CA-[C] |==|  0.20556
USER: genes 3 Torsion [N]-CA--C-[N] |==|  0.02356
USER: genes 4 Torsion [C]-N--CA-[C] |==|  0.55353
USER: genes 5 Torsion [N]-CA--C-[O] |==|  0.49190
USER: genes 6 Torsion [N]-C--CA-[N] |==|  0.12323
USER: genes 7 Torsion [C]-CA--N-[H2] |==|  0.46062
ROOT
ATOM      1  C   GLY G   1      26.848 -14.928  17.820  1.00 43.90 LIG 0.24  C 
ATOM      2 O    GLY G   1      27.032 -15.086  16.611  1.00 43.93 LIG-0.27  OA
ATOM      3  N   GLY G   2      25.983 -15.643  18.543  1.00 44.62 LIG-0.35  N 
ATOM      4 H    GLY G   2      25.750 -15.439  19.346  1.00 44.62 LIG 0.16  HD
ENDROOT
BRANCH 3 5
ATOM      5  CA  GLY G   2      25.350 -16.844  18.028  1.00 45.53 LIG 0.23  C 
BRANCH 5 6
ATOM      6  C   GLY G   2      26.270 -18.033  17.958  1.00 46.02 LIG 0.23  C 
ATOM      7 O    GLY G   2      25.914 -19.055  17.375  1.00 47.02 LIG-0.27  OA
ATOM      8  N   GLY G   3      27.464 -17.882  18.531  1.00 46.62 LIG-0.35  N 
ATOM      9 H    GLY G   3      27.729 -17.146  18.889  1.00 46.62 LIG 0.16  HD
BRANCH 8 10
ATOM     10  CA  GLY G   3      28.442 -18.962  18.603  1.00 46.72 LIG 0.21  C 
BRANCH 10 11
ATOM     11  C   GLY G   3      29.519 -18.770  19.657  1.00 46.79 LIG 0.21  C 
ATOM     12 O    GLY G   3      30.369 -19.634  19.852  1.00 46.39 LIG-0.29  OA
ENDBRANCH 10 11
ENDBRANCH 8 10
ENDBRANCH 5 6
ENDBRANCH 3 5
BRANCH 1 13
ATOM     13  CA  GLY G   1      27.629 -13.888  18.581  1.00 43.33 LIG 0.33  C 
BRANCH 13 14
ATOM     14  N   GLY G   1      28.108 -14.478  19.852  1.00 42.49 LIG-0.07  N 
ATOM     15 H2   GLY G   1      28.731 -13.951  20.207  1.00 42.49 LIG 0.27  HD
ATOM     16 H3   GLY G   1      27.426 -14.554  20.419  1.00 42.49 LIG 0.27  HD
ATOM     17 H1   GLY G   1      28.454 -15.282  19.694  1.00 42.49 LIG 0.27  HD
ENDBRANCH 13 14
ENDBRANCH 1 13
TORSDOF 6
ENDMDL
MODEL 29
USER: ADFR SOLUTION from run 11
USER: SCORE 6.452280 LL:  -0.928 LR:  -5.576 RR:   0.000 FEB:  -3.786
USER: RMSD 3.538264
USER: SEED 453394
USER: STATUS no improvement in best in 28 clusters for 5 generations
USER: GENES 8
USER: genes 0 Translation |==|  0.35389 0.53326 0.55280
USER: genes 1 Rotation |==|  0.54791 0.76273 0.34175 0.89196
USER: genes 2 Torsion [C]-N--CA-[C] |==|  0.20435
USER: genes 3 Torsion [N]-CA--C-[N] |==|  0.07436
USER: genes 4 Torsion [C]-N--CA-[C] |==|  0.37778
USER: genes 5 Torsion [N]-CA--C-[O] |==|  0.96174
USER: genes 6 Torsion [N]-C--CA-[N] |==|  0.02112
USER: genes 7 Torsion [C]-CA--N-[H2] |==|  0.89829
ROOT
ATOM      1  C   GLY G   1      23.336 -16.381  18.920  1.00 43.90 LIG 0.24  C 
ATOM      2 O    GLY G   1      23.005 -15.908  17.830  1.00 43.93 LIG-0.27  OA
ATOM      3  N   GLY G   2      24.135 -17.440  19.064  1.00 44.62 LIG-0.35  N 
ATOM      4 H    GLY G   2      24.249 -17.854  19.809  1.00 44.62 LIG 0.16  HD
ENDROOT
BRANCH 3 5
ATOM      5  CA  GLY G   2      24.894 -17.992  17.956  1.00 45.53 LIG 0.23  C 
BRANCH 5 6
ATOM      6  C   GLY G   2      26.073 -17.149  17.547  1.00 46.02 LIG 0.23  C 
ATOM      7 O    GLY G   2      26.476 -17.174  16.386  1.00 47.02 LIG-0.27  OA
ATOM      8  N   GLY G   3      26.601 -16.383  18.501  1.00 46.62 LIG-0.35  N 
ATOM      9 H    GLY G   3      26.281 -16.328  19.298  1.00 46.62 LIG 0.16  HD
BRANCH 8 10
ATOM     10  CA  GLY G   3      27.785 -15.559  18.280  1.00 46.72 LIG 0.21  C 
BRANCH 10 11
ATOM     11  C   GLY G   3      27.691 -14.153  18.848  1.00 46.79 LIG 0.21  C 
ATOM     12 O    GLY G   3      26.613 -13.692  19.212  1.00 46.39 LIG-0.29  OA
ENDBRANCH 10 11
ENDBRANCH 8 10
ENDBRANCH 5 6
ENDBRANCH 3 5
BRANCH 1 13
ATOM     13  CA  GLY G   1      22.847 -15.757  20.203  1.00 43.33 LIG 0.33  C 
BRANCH 13 14
ATOM     14  N   GLY G   1      23.544 -16.390  21.344  1.00 42.49 LIG-0.07  N 
ATOM     15 H2   GLY G   1      23.662 -17.256  21.176  1.00 42.49 LIG 0.27  HD
ATOM     16 H3   GLY G   1      24.334 -16.000  21.463  1.00 42.49 LIG 0.27  HD
ATOM     17 H1   GLY G   1      23.053 -16.296  22.081  1.00 42.49 LIG 0.27  HD
ENDBRANCH 13 14
ENDBRANCH 1 13
TORSDOF 6
ENDMDL
MODEL 30
USER: ADFR SOLUTION from run 90
USER: SCORE 5.755298 LL:  -0.793 LR:  -5.529 RR:   0.000 FEB:  -3.739
USER: RMSD 4.212173
USER: SEED 89
USER: STATUS no improvement in best in 16 clusters for 5 generations
USER: GENES 8
USER: genes 0 Translation |==|  0.29948 0.57173 0.44435
USER: genes 1 Rotation |==|  0.69594 0.67650 0.22710 0.82555
USER: genes 2 Torsion [C]-N--CA-[C] |==|  0.24366
USER: genes 3 Torsion [N]-CA--C-[N] |==|  0.68442
USER: genes 4 Torsion [C]-N--CA-[C] |==|  0.33650
USER: genes 5 Torsion [N]-CA--C-[O] |==|  0.20990
USER: genes 6 Torsion [N]-C--CA-[N] |==|  0.84276
USER: genes 7 Torsion [C]-CA--N-[H2] |==|  0.62381
ROOT
ATOM      1  C   GLY G   1      22.397 -15.890  17.375  1.00 43.90 LIG 0.24  C 
ATOM      2 O    GLY G   1      22.841 -15.306  16.384  1.00 43.93 LIG-0.27  OA
ATOM      3  N   GLY G   2      22.139 -17.199  17.418  1.00 44.62 LIG-0.35  N 
ATOM      4 H    GLY G   2      21.699 -17.578  18.053  1.00 44.62 LIG 0.16  HD
ENDROOT
BRANCH 3 5
ATOM      5  CA  GLY G   2      22.587 -18.110  16.380  1.00 45.53 LIG 0.23  C 
BRANCH 5 6
ATOM      6  C   GLY G   2      23.971 -18.658  16.608  1.00 46.02 LIG 0.23  C 
ATOM      7 O    GLY G   2      24.183 -19.430  17.541  1.00 47.02 LIG-0.27  OA
ATOM      8  N   GLY G   3      24.900 -18.278  15.731  1.00 46.62 LIG-0.35  N 
ATOM      9 H    GLY G   3      24.734 -17.783  15.048  1.00 46.62 LIG 0.16  HD
BRANCH 8 10
ATOM     10  CA  GLY G   3      26.300 -18.672  15.851  1.00 46.72 LIG 0.21  C 
BRANCH 10 11
ATOM     11  C   GLY G   3      26.845 -19.443  14.661  1.00 46.79 LIG 0.21  C 
ATOM     12 O    GLY G   3      27.120 -18.869  13.612  1.00 46.39 LIG-0.29  OA
ENDBRANCH 10 11
ENDBRANCH 8 10
ENDBRANCH 5 6
ENDBRANCH 3 5
BRANCH 1 13
ATOM     13  CA  GLY G   1      22.123 -15.131  18.648  1.00 43.33 LIG 0.33  C 
BRANCH 13 14
ATOM     14  N   GLY G   1      20.709 -15.336  19.038  1.00 42.49 LIG-0.07  N 
ATOM     15 H2   GLY G   1      20.352 -14.558  19.280  1.00 42.49 LIG 0.27  HD
ATOM     16 H3   GLY G   1      20.257 -15.668  18.347  1.00 42.49 LIG 0.27  HD
ATOM     17 H1   GLY G   1      20.669 -15.906  19.720  1.00 42.49 LIG 0.27  HD
ENDBRANCH 13 14
ENDBRANCH 1 13
TORSDOF 6
ENDMDL
MODEL 31
USER: ADFR SOLUTION from run 74
USER: SCORE 5.679412 LL:  -0.701 LR:  -5.514 RR:   0.000 FEB:  -3.724
USER: RMSD 2.290708
USER: SEED 73
USER: STATUS no improvement in best in 22 clusters for 5 generations
USER: GENES 8
USER: genes 0 Translation |==|  0.32802 0.46484 0.32237
USER: genes 1 Rotation |==|  0.10434 0.67628 0.30789 0.65961
USER: genes 2 Torsion [C]-N--CA-[C] |==|  0.75556
USER: genes 3 Torsion [N]-CA--C-[N] |==|  0.70991
USER: genes 4 Torsion [C]-N--CA-[C] |==|  0.43654
USER: genes 5 Torsion [N]-CA--C-[O] |==|  0.81768
USER: genes 6 Torsion [N]-C--CA-[N] |==|  0.06382
USER: genes 7 Torsion [C]-CA--N-[H2] |==|  0.47659
ROOT
ATOM      1  C   GLY G   1      22.889 -17.253  15.637  1.00 43.90 LIG 0.24  C 
ATOM      2 O    GLY G   1      22.300 -18.237  16.090  1.00 43.93 LIG-0.27  OA
ATOM      3  N   GLY G   2      24.216 -17.164  15.524  1.00 44.62 LIG-0.35  N 
ATOM      4 H    GLY G   2      24.631 -16.432  15.345  1.00 44.62 LIG 0.16  HD
ENDROOT
BRANCH 3 5
ATOM      5  CA  GLY G   2      25.087 -18.313  15.695  1.00 45.53 LIG 0.23  C 
BRANCH 5 6
ATOM      6  C   GLY G   2      25.509 -18.548  17.121  1.00 46.02 LIG 0.23  C 
ATOM      7 O    GLY G   2      24.728 -19.060  17.920  1.00 47.02 LIG-0.27  OA
ATOM      8  N   GLY G   3      26.759 -18.199  17.424  1.00 46.62 LIG-0.35  N 
ATOM      9 H    GLY G   3      27.319 -17.893  16.848  1.00 46.62 LIG 0.16  HD
BRANCH 8 10
ATOM     10  CA  GLY G   3      27.297 -18.305  18.776  1.00 46.72 LIG 0.21  C 
BRANCH 10 11
ATOM     11  C   GLY G   3      28.812 -18.396  18.848  1.00 46.79 LIG 0.21  C 
ATOM     12 O    GLY G   3      29.407 -19.368  18.391  1.00 46.39 LIG-0.29  OA
ENDBRANCH 10 11
ENDBRANCH 8 10
ENDBRANCH 5 6
ENDBRANCH 3 5
BRANCH 1 13
ATOM     13  CA  GLY G   1      22.113 -16.055  15.153  1.00 43.33 LIG 0.33  C 
BRANCH 13 14
ATOM     14  N   GLY G   1      22.939 -15.305  14.180  1.00 42.49 LIG-0.07  N 
ATOM     15 H2   GLY G   1      22.446 -14.670  13.800  1.00 42.49 LIG 0.27  HD
ATOM     16 H3   GLY G   1      23.629 -14.934  14.601  1.00 42.49 LIG 0.27  HD
ATOM     17 H1   GLY G   1      23.238 -15.862  13.553  1.00 42.49 LIG 0.27  HD
ENDBRANCH 13 14
ENDBRANCH 1 13
TORSDOF 6
ENDMDL
MODEL 32
USER: ADFR SOLUTION from run 87
USER: SCORE 6.131595 LL:  -1.035 LR:  -5.435 RR:   0.000 FEB:  -3.645
USER: RMSD 3.996605
USER: SEED 86
USER: STATUS no improvement in best in 29 clusters for 5 generations
USER: GENES 8
USER: genes 0 Translation |==|  0.30648 0.49867 0.35344
USER: genes 1 Rotation |==|  0.18116 0.49039 0.19392 0.73358
USER: genes 2 Torsion [C]-N--CA-[C] |==|  0.12778
USER: genes 3 Torsion [N]-CA--C-[N] |==|  0.12557
USER: genes 4 Torsion [C]-N--CA-[C] |==|  0.45579
USER: genes 5 Torsion [N]-CA--C-[O] |==|  0.97472
USER: genes 6 Torsion [N]-C--CA-[N] |==|  0.14955
USER: genes 7 Torsion [C]-CA--N-[H2] |==|  0.88512
ROOT
ATOM      1  C   GLY G   1      22.518 -16.822  16.080  1.00 43.90 LIG 0.24  C 
ATOM      2 O    GLY G   1      22.189 -17.999  16.246  1.00 43.93 LIG-0.27  OA
ATOM      3  N   GLY G   2      23.318 -16.146  16.906  1.00 44.62 LIG-0.35  N 
ATOM      4 H    GLY G   2      23.431 -15.294  16.870  1.00 44.62 LIG 0.16  HD
ENDROOT
BRANCH 3 5
ATOM      5  CA  GLY G   2      24.080 -16.802  17.954  1.00 45.53 LIG 0.23  C 
BRANCH 5 6
ATOM      6  C   GLY G   2      24.793 -18.047  17.499  1.00 46.02 LIG 0.23  C 
ATOM      7 O    GLY G   2      24.731 -19.074  18.171  1.00 47.02 LIG-0.27  OA
ATOM      8  N   GLY G   3      25.443 -17.956  16.339  1.00 46.62 LIG-0.35  N 
ATOM      9 H    GLY G   3      25.437 -17.252  15.845  1.00 46.62 LIG 0.16  HD
BRANCH 8 10
ATOM     10  CA  GLY G   3      26.233 -19.055  15.794  1.00 46.72 LIG 0.21  C 
BRANCH 10 11
ATOM     11  C   GLY G   3      26.579 -18.916  14.321  1.00 46.79 LIG 0.21  C 
ATOM     12 O    GLY G   3      26.071 -18.033  13.636  1.00 46.39 LIG-0.29  OA
ENDBRANCH 10 11
ENDBRANCH 8 10
ENDBRANCH 5 6
ENDBRANCH 3 5
BRANCH 1 13
ATOM     13  CA  GLY G   1      22.025 -16.055  14.879  1.00 43.33 LIG 0.33  C 
BRANCH 13 14
ATOM     14  N   GLY G   1      23.188 -15.490  14.157  1.00 42.49 LIG-0.07  N 
ATOM     15 H2   GLY G   1      23.776 -15.172  14.744  1.00 42.49 LIG 0.27  HD
ATOM     16 H3   GLY G   1      23.571 -16.126  13.668  1.00 42.49 LIG 0.27  HD
ATOM     17 H1   GLY G   1      22.915 -14.830  13.625  1.00 42.49 LIG 0.27  HD
ENDBRANCH 13 14
ENDBRANCH 1 13
TORSDOF 6
ENDMDL
MODEL 33
USER: ADFR SOLUTION from run 122
USER: SCORE 5.678700 LL:  -0.674 LR:  -5.418 RR:   0.000 FEB:  -3.628
USER: RMSD 3.516291
USER: SEED 121
USER: STATUS no improvement in best in 25 clusters for 5 generations
USER: GENES 8
USER: genes 0 Translation |==|  0.59666 0.59061 0.45271
USER: genes 1 Rotation |==|  0.52404 0.67162 0.17542 0.83855
USER: genes 2 Torsion [C]-N--CA-[C] |==|  0.32994
USER: genes 3 Torsion [N]-CA--C-[N] |==|  0.06584
USER: genes 4 Torsion [C]-N--CA-[C] |==|  0.85109
USER: genes 5 Torsion [N]-CA--C-[O] |==|  0.37366
USER: genes 6 Torsion [N]-C--CA-[N] |==|  0.00594
USER: genes 7 Torsion [C]-CA--N-[H2] |==|  0.42185
ROOT
ATOM      1  C   GLY G   1      27.523 -15.650  17.494  1.00 43.90 LIG 0.24  C 
ATOM      2 O    GLY G   1      27.425 -15.696  16.266  1.00 43.93 LIG-0.27  OA
ATOM      3  N   GLY G   2      27.618 -16.726  18.278  1.00 44.62 LIG-0.35  N 
ATOM      4 H    GLY G   2      27.541 -16.701  19.134  1.00 44.62 LIG 0.16  HD
ENDROOT
BRANCH 3 5
ATOM      5  CA  GLY G   2      27.863 -18.053  17.743  1.00 45.53 LIG 0.23  C 
BRANCH 5 6
ATOM      6  C   GLY G   2      29.140 -18.681  18.234  1.00 46.02 LIG 0.23  C 
ATOM      7 O    GLY G   2      29.703 -19.541  17.560  1.00 47.02 LIG-0.27  OA
ATOM      8  N   GLY G   3      29.606 -18.223  19.395  1.00 46.62 LIG-0.35  N 
ATOM      9 H    GLY G   3      29.237 -17.582  19.835  1.00 46.62 LIG 0.16  HD
BRANCH 8 10
ATOM     10  CA  GLY G   3      30.796 -18.773  20.035  1.00 46.72 LIG 0.21  C 
BRANCH 10 11
ATOM     11  C   GLY G   3      30.767 -20.278  20.238  1.00 46.79 LIG 0.21  C 
ATOM     12 O    GLY G   3      31.743 -20.969  19.959  1.00 46.39 LIG-0.29  OA
ENDBRANCH 10 11
ENDBRANCH 8 10
ENDBRANCH 5 6
ENDBRANCH 3 5
BRANCH 1 13
ATOM     13  CA  GLY G   1      27.557 -14.321  18.206  1.00 43.33 LIG 0.33  C 
BRANCH 13 14
ATOM     14  N   GLY G   1      27.744 -14.556  19.656  1.00 42.49 LIG-0.07  N 
ATOM     15 H2   GLY G   1      28.159 -13.857  20.018  1.00 42.49 LIG 0.27  HD
ATOM     16 H3   GLY G   1      26.951 -14.664  20.044  1.00 42.49 LIG 0.27  HD
ATOM     17 H1   GLY G   1      28.236 -15.288  19.778  1.00 42.49 LIG 0.27  HD
ENDBRANCH 13 14
ENDBRANCH 1 13
TORSDOF 6
ENDMDL
MODEL 34
USER: ADFR SOLUTION from run 162
USER: SCORE 6.069616 LL:  -0.846 LR:  -5.337 RR:   0.000 FEB:  -3.547
USER: RMSD 3.252415
USER: SEED 161
USER: STATUS no improvement in best in 24 clusters for 5 generations
USER: GENES 8
USER: genes 0 Translation |==|  0.44566 0.45429 0.23500
USER: genes 1 Rotation |==|  0.72316 0.55459 0.37529 0.92622
USER: genes 2 Torsion [C]-N--CA-[C] |==|  0.21667
USER: genes 3 Torsion [N]-CA--C-[N] |==|  0.49147
USER: genes 4 Torsion [C]-N--CA-[C] |==|  0.40218
USER: genes 5 Torsion [N]-CA--C-[O] |==|  0.62652
USER: genes 6 Torsion [N]-C--CA-[N] |==|  0.58334
USER: genes 7 Torsion [C]-CA--N-[H2] |==|  0.72929
ROOT
ATOM      1  C   GLY G   1      24.919 -17.388  14.392  1.00 43.90 LIG 0.24  C 
ATOM      2 O    GLY G   1      25.739 -16.665  13.821  1.00 43.93 LIG-0.27  OA
ATOM      3  N   GLY G   2      25.096 -18.692  14.609  1.00 44.62 LIG-0.35  N 
ATOM      4 H    GLY G   2      24.471 -19.221  14.874  1.00 44.62 LIG 0.16  HD
ENDROOT
BRANCH 3 5
ATOM      5  CA  GLY G   2      26.380 -19.342  14.415  1.00 45.53 LIG 0.23  C 
BRANCH 5 6
ATOM      6  C   GLY G   2      27.357 -19.105  15.535  1.00 46.02 LIG 0.23  C 
ATOM      7 O    GLY G   2      27.045 -18.391  16.486  1.00 47.02 LIG-0.27  OA
ATOM      8  N   GLY G   3      28.528 -19.734  15.431  1.00 46.62 LIG-0.35  N 
ATOM      9 H    GLY G   3      28.720 -20.276  14.792  1.00 46.62 LIG 0.16  HD
BRANCH 8 10
ATOM     10  CA  GLY G   3      29.602 -19.557  16.402  1.00 46.72 LIG 0.21  C 
BRANCH 10 11
ATOM     11  C   GLY G   3      30.426 -20.806  16.668  1.00 46.79 LIG 0.21  C 
ATOM     12 O    GLY G   3      30.712 -21.139  17.815  1.00 46.39 LIG-0.29  OA
ENDBRANCH 10 11
ENDBRANCH 8 10
ENDBRANCH 5 6
ENDBRANCH 3 5
BRANCH 1 13
ATOM     13  CA  GLY G   1      23.624 -16.812  14.907  1.00 43.33 LIG 0.33  C 
BRANCH 13 14
ATOM     14  N   GLY G   1      23.221 -15.680  14.043  1.00 42.49 LIG-0.07  N 
ATOM     15 H2   GLY G   1      23.478 -14.915  14.418  1.00 42.49 LIG 0.27  HD
ATOM     16 H3   GLY G   1      23.606 -15.764  13.245  1.00 42.49 LIG 0.27  HD
ATOM     17 H1   GLY G   1      22.336 -15.680  13.947  1.00 42.49 LIG 0.27  HD
ENDBRANCH 13 14
ENDBRANCH 1 13
TORSDOF 6
ENDMDL
MODEL 35
USER: ADFR SOLUTION from run 139
USER: SCORE 5.871176 LL:  -0.742 LR:  -5.333 RR:   0.000 FEB:  -3.543
USER: RMSD 5.098915
USER: SEED 138
USER: STATUS no improvement in best in 28 clusters for 5 generations
USER: GENES 8
USER: genes 0 Translation |==|  0.46705 0.40588 0.47684
USER: genes 1 Rotation |==|  0.15318 0.75590 0.42528 0.74217
USER: genes 2 Torsion [C]-N--CA-[C] |==|  0.19215
USER: genes 3 Torsion [N]-CA--C-[N] |==|  0.49788
USER: genes 4 Torsion [C]-N--CA-[C] |==|  0.42452
USER: genes 5 Torsion [N]-CA--C-[O] |==|  0.75722
USER: genes 6 Torsion [N]-C--CA-[N] |==|  0.93193
USER: genes 7 Torsion [C]-CA--N-[H2] |==|  0.88497
ROOT
ATOM      1  C   GLY G   1      25.288 -18.005  17.838  1.00 43.90 LIG 0.24  C 
ATOM      2 O    GLY G   1      24.711 -19.094  17.793  1.00 43.93 LIG-0.27  OA
ATOM      3  N   GLY G   2      26.543 -17.807  17.432  1.00 44.62 LIG-0.35  N 
ATOM      4 H    GLY G   2      26.990 -17.090  17.595  1.00 44.62 LIG 0.16  HD
ENDROOT
BRANCH 3 5
ATOM      5  CA  GLY G   2      27.275 -18.802  16.667  1.00 45.53 LIG 0.23  C 
BRANCH 5 6
ATOM      6  C   GLY G   2      26.756 -18.995  15.267  1.00 46.02 LIG 0.23  C 
ATOM      7 O    GLY G   2      25.805 -18.329  14.864  1.00 47.02 LIG-0.27  OA
ATOM      8  N   GLY G   3      27.407 -19.887  14.522  1.00 46.62 LIG-0.35  N 
ATOM      9 H    GLY G   3      28.107 -20.310  14.790  1.00 46.62 LIG 0.16  HD
BRANCH 8 10
ATOM     10  CA  GLY G   3      26.989 -20.233  13.168  1.00 46.72 LIG 0.21  C 
BRANCH 10 11
ATOM     11  C   GLY G   3      28.110 -20.715  12.262  1.00 46.79 LIG 0.21  C 
ATOM     12 O    GLY G   3      28.782 -19.917  11.615  1.00 46.39 LIG-0.29  OA
ENDBRANCH 10 11
ENDBRANCH 8 10
ENDBRANCH 5 6
ENDBRANCH 3 5
BRANCH 1 13
ATOM     13  CA  GLY G   1      24.574 -16.785  18.363  1.00 43.33 LIG 0.33  C 
BRANCH 13 14
ATOM     14  N   GLY G   1      25.577 -15.811  18.848  1.00 42.49 LIG-0.07  N 
ATOM     15 H2   GLY G   1      26.219 -16.241  19.290  1.00 42.49 LIG 0.27  HD
ATOM     16 H3   GLY G   1      25.931 -15.379  18.156  1.00 42.49 LIG 0.27  HD
ATOM     17 H1   GLY G   1      25.184 -15.226  19.393  1.00 42.49 LIG 0.27  HD
ENDBRANCH 13 14
ENDBRANCH 1 13
TORSDOF 6
ENDMDL
MODEL 36
USER: ADFR SOLUTION from run 69
USER: SCORE 5.616208 LL:  -0.748 LR:  -5.321 RR:   0.000 FEB:  -3.531
USER: RMSD 3.466279
USER: SEED 68
USER: STATUS no improvement in best in 21 clusters for 5 generations
USER: GENES 8
USER: genes 0 Translation |==|  0.33740 0.58941 0.57221
USER: genes 1 Rotation |==|  0.48823 0.79130 0.50285 0.90620
USER: genes 2 Torsion [C]-N--CA-[C] |==|  0.37219
USER: genes 3 Torsion [N]-CA--C-[N] |==|  0.36497
USER: genes 4 Torsion [C]-N--CA-[C] |==|  0.34707
USER: genes 5 Torsion [N]-CA--C-[O] |==|  0.05902
USER: genes 6 Torsion [N]-C--CA-[N] |==|  0.99097
USER: genes 7 Torsion [C]-CA--N-[H2] |==|  0.81053
ROOT
ATOM      1  C   GLY G   1      23.051 -15.665  19.197  1.00 43.90 LIG 0.24  C 
ATOM      2 O    GLY G   1      22.363 -15.350  18.223  1.00 43.93 LIG-0.27  OA
ATOM      3  N   GLY G   2      24.342 -15.996  19.124  1.00 44.62 LIG-0.35  N 
ATOM      4 H    GLY G   2      24.781 -16.352  19.772  1.00 44.62 LIG 0.16  HD
ENDROOT
BRANCH 3 5
ATOM      5  CA  GLY G   2      25.129 -15.781  17.923  1.00 45.53 LIG 0.23  C 
BRANCH 5 6
ATOM      6  C   GLY G   2      26.475 -15.159  18.181  1.00 46.02 LIG 0.23  C 
ATOM      7 O    GLY G   2      26.571 -14.180  18.918  1.00 47.02 LIG-0.27  OA
ATOM      8  N   GLY G   3      27.514 -15.753  17.595  1.00 46.62 LIG-0.35  N 
ATOM      9 H    GLY G   3      27.448 -16.471  17.125  1.00 46.62 LIG 0.16  HD
BRANCH 8 10
ATOM     10  CA  GLY G   3      28.874 -15.234  17.696  1.00 46.72 LIG 0.21  C 
BRANCH 10 11
ATOM     11  C   GLY G   3      29.894 -16.230  18.222  1.00 46.79 LIG 0.21  C 
ATOM     12 O    GLY G   3      29.681 -17.438  18.163  1.00 46.39 LIG-0.29  OA
ENDBRANCH 10 11
ENDBRANCH 8 10
ENDBRANCH 5 6
ENDBRANCH 3 5
BRANCH 1 13
ATOM     13  CA  GLY G   1      22.453 -15.681  20.581  1.00 43.33 LIG 0.33  C 
BRANCH 13 14
ATOM     14  N   GLY G   1      23.474 -16.154  21.542  1.00 42.49 LIG-0.07  N 
ATOM     15 H2   GLY G   1      23.647 -17.014  21.392  1.00 42.49 LIG 0.27  HD
ATOM     16 H3   GLY G   1      24.219 -15.679  21.442  1.00 42.49 LIG 0.27  HD
ATOM     17 H1   GLY G   1      23.169 -16.055  22.373  1.00 42.49 LIG 0.27  HD
ENDBRANCH 13 14
ENDBRANCH 1 13
TORSDOF 6
ENDMDL
MODEL 37
USER: ADFR SOLUTION from run 178
USER: SCORE 6.173144 LL:  -0.998 LR:  -5.290 RR:   0.000 FEB:  -3.501
USER: RMSD 2.669347
USER: SEED 177
USER: STATUS searching
USER: GENES 8
USER: genes 0 Translation |==|  0.37824 0.39202 0.42105
USER: genes 1 Rotation |==|  0.13158 0.33480 0.34795 0.75270
USER: genes 2 Torsion [C]-N--CA-[C] |==|  0.18567
USER: genes 3 Torsion [N]-CA--C-[N] |==|  0.56592
USER: genes 4 Torsion [C]-N--CA-[C] |==|  0.75422
USER: genes 5 Torsion [N]-CA--C-[O] |==|  0.10217
USER: genes 6 Torsion [N]-C--CA-[N] |==|  0.60026
USER: genes 7 Torsion [C]-CA--N-[H2] |==|  0.21065
ROOT
ATOM      1  C   GLY G   1      23.756 -18.182  17.043  1.00 43.90 LIG 0.24  C 
ATOM      2 O    GLY G   1      24.357 -19.055  17.674  1.00 43.93 LIG-0.27  OA
ATOM      3  N   GLY G   2      23.885 -16.873  17.271  1.00 44.62 LIG-0.35  N 
ATOM      4 H    GLY G   2      23.364 -16.277  16.934  1.00 44.62 LIG 0.16  HD
ENDROOT
BRANCH 3 5
ATOM      5  CA  GLY G   2      24.932 -16.335  18.121  1.00 45.53 LIG 0.23  C 
BRANCH 5 6
ATOM      6  C   GLY G   2      26.318 -16.511  17.562  1.00 46.02 LIG 0.23  C 
ATOM      7 O    GLY G   2      26.486 -16.623  16.349  1.00 47.02 LIG-0.27  OA
ATOM      8  N   GLY G   3      27.311 -16.504  18.451  1.00 46.62 LIG-0.35  N 
ATOM      9 H    GLY G   3      27.193 -16.369  19.293  1.00 46.62 LIG 0.16  HD
BRANCH 8 10
ATOM     10  CA  GLY G   3      28.703 -16.726  18.076  1.00 46.72 LIG 0.21  C 
BRANCH 10 11
ATOM     11  C   GLY G   3      29.133 -18.183  18.072  1.00 46.79 LIG 0.21  C 
ATOM     12 O    GLY G   3      28.363 -19.065  17.703  1.00 46.39 LIG-0.29  OA
ENDBRANCH 10 11
ENDBRANCH 8 10
ENDBRANCH 5 6
ENDBRANCH 3 5
BRANCH 1 13
ATOM     13  CA  GLY G   1      22.815 -18.558  15.927  1.00 43.33 LIG 0.33  C 
BRANCH 13 14
ATOM     14  N   GLY G   1      22.106 -19.805  16.293  1.00 42.49 LIG-0.07  N 
ATOM     15 H2   GLY G   1      21.476 -19.622  16.894  1.00 42.49 LIG 0.27  HD
ATOM     16 H3   GLY G   1      21.731 -20.157  15.567  1.00 42.49 LIG 0.27  HD
ATOM     17 H1   GLY G   1      22.685 -20.386  16.639  1.00 42.49 LIG 0.27  HD
ENDBRANCH 13 14
ENDBRANCH 1 13
TORSDOF 6
ENDMDL
MODEL 38
USER: ADFR SOLUTION from run 110
USER: SCORE 5.227610 LL:  -0.817 LR:  -5.288 RR:   0.000 FEB:  -3.498
USER: RMSD 3.500239
USER: SEED 109
USER: STATUS no improvement in best in 23 clusters for 5 generations
USER: GENES 8
USER: genes 0 Translation |==|  0.44697 0.40650 0.54045
USER: genes 1 Rotation |==|  0.19435 0.70302 0.42415 0.83107
USER: genes 2 Torsion [C]-N--CA-[C] |==|  0.39921
USER: genes 3 Torsion [N]-CA--C-[N] |==|  0.13977
USER: genes 4 Torsion [C]-N--CA-[C] |==|  0.29375
USER: genes 5 Torsion [N]-CA--C-[O] |==|  0.09272
USER: genes 6 Torsion [N]-C--CA-[N] |==|  0.79253
USER: genes 7 Torsion [C]-CA--N-[H2] |==|  0.63171
ROOT
ATOM      1  C   GLY G   1      24.941 -17.997  18.744  1.00 43.90 LIG 0.24  C 
ATOM      2 O    GLY G   1      24.579 -19.056  18.227  1.00 43.93 LIG-0.27  OA
ATOM      3  N   GLY G   2      26.214 -17.605  18.831  1.00 44.62 LIG-0.35  N 
ATOM      4 H    GLY G   2      26.477 -16.943  19.315  1.00 44.62 LIG 0.16  HD
ENDROOT
BRANCH 3 5
ATOM      5  CA  GLY G   2      27.280 -18.271  18.106  1.00 45.53 LIG 0.23  C 
BRANCH 5 6
ATOM      6  C   GLY G   2      28.351 -17.338  17.607  1.00 46.02 LIG 0.23  C 
ATOM      7 O    GLY G   2      28.690 -17.363  16.426  1.00 47.02 LIG-0.27  OA
ATOM      8  N   GLY G   3      28.858 -16.497  18.508  1.00 46.62 LIG-0.35  N 
ATOM      9 H    GLY G   3      28.578 -16.445  19.320  1.00 46.62 LIG 0.16  HD
BRANCH 8 10
ATOM     10  CA  GLY G   3      29.946 -15.575  18.197  1.00 46.72 LIG 0.21  C 
BRANCH 10 11
ATOM     11  C   GLY G   3      29.522 -14.123  18.050  1.00 46.79 LIG 0.21  C 
ATOM     12 O    GLY G   3      28.604 -13.665  18.724  1.00 46.39 LIG-0.29  OA
ENDBRANCH 10 11
ENDBRANCH 8 10
ENDBRANCH 5 6
ENDBRANCH 3 5
BRANCH 1 13
ATOM     13  CA  GLY G   1      23.925 -17.043  19.319  1.00 43.33 LIG 0.33  C 
BRANCH 13 14
ATOM     14  N   GLY G   1      23.977 -17.114  20.796  1.00 42.49 LIG-0.07  N 
ATOM     15 H2   GLY G   1      23.151 -17.187  21.119  1.00 42.49 LIG 0.27  HD
ATOM     16 H3   GLY G   1      24.456 -17.822  21.043  1.00 42.49 LIG 0.27  HD
ATOM     17 H1   GLY G   1      24.356 -16.374  21.116  1.00 42.49 LIG 0.27  HD
ENDBRANCH 13 14
ENDBRANCH 1 13
TORSDOF 6
ENDMDL
MODEL 39
USER: ADFR SOLUTION from run 86
USER: SCORE 5.684792 LL:  -0.752 LR:  -5.260 RR:   0.000 FEB:  -3.470
USER: RMSD 3.494261
USER: SEED 85
USER: STATUS no improvement in best in 15 clusters for 5 generations
USER: GENES 8
USER: genes 0 Translation |==|  0.46856 0.40876 0.47423
USER: genes 1 Rotation |==|  0.15168 0.76515 0.43757 0.73339
USER: genes 2 Torsion [C]-N--CA-[C] |==|  0.63463
USER: genes 3 Torsion [N]-CA--C-[N] |==|  0.48084
USER: genes 4 Torsion [C]-N--CA-[C] |==|  0.33066
USER: genes 5 Torsion [N]-CA--C-[O] |==|  0.76251
USER: genes 6 Torsion [N]-C--CA-[N] |==|  0.91641
USER: genes 7 Torsion [C]-CA--N-[H2] |==|  0.89586
ROOT
ATOM      1  C   GLY G   1      25.314 -17.968  17.801  1.00 43.90 LIG 0.24  C 
ATOM      2 O    GLY G   1      24.730 -19.055  17.793  1.00 43.93 LIG-0.27  OA
ATOM      3  N   GLY G   2      26.538 -17.774  17.307  1.00 44.62 LIG-0.35  N 
ATOM      4 H    GLY G   2      26.998 -17.060  17.440  1.00 44.62 LIG 0.16  HD
ENDROOT
BRANCH 3 5
ATOM      5  CA  GLY G   2      27.210 -18.768  16.490  1.00 45.53 LIG 0.23  C 
BRANCH 5 6
ATOM      6  C   GLY G   2      28.623 -19.055  16.919  1.00 46.02 LIG 0.23  C 
ATOM      7 O    GLY G   2      29.140 -18.397  17.820  1.00 47.02 LIG-0.27  OA
ATOM      8  N   GLY G   3      29.232 -20.061  16.291  1.00 46.62 LIG-0.35  N 
ATOM      9 H    GLY G   3      28.847 -20.554  15.701  1.00 46.62 LIG 0.16  HD
BRANCH 8 10
ATOM     10  CA  GLY G   3      30.622 -20.421  16.549  1.00 46.72 LIG 0.21  C 
BRANCH 10 11
ATOM     11  C   GLY G   3      30.822 -21.831  17.079  1.00 46.79 LIG 0.21  C 
ATOM     12 O    GLY G   3      30.733 -22.070  18.279  1.00 46.39 LIG-0.29  OA
ENDBRANCH 10 11
ENDBRANCH 8 10
ENDBRANCH 5 6
ENDBRANCH 3 5
BRANCH 1 13
ATOM     13  CA  GLY G   1      24.644 -16.748  18.379  1.00 43.33 LIG 0.33  C 
BRANCH 13 14
ATOM     14  N   GLY G   1      25.680 -15.838  18.918  1.00 42.49 LIG-0.07  N 
ATOM     15 H2   GLY G   1      26.329 -16.318  19.293  1.00 42.49 LIG 0.27  HD
ATOM     16 H3   GLY G   1      26.018 -15.348  18.257  1.00 42.49 LIG 0.27  HD
ATOM     17 H1   GLY G   1      25.317 -15.303  19.529  1.00 42.49 LIG 0.27  HD
ENDBRANCH 13 14
ENDBRANCH 1 13
TORSDOF 6
ENDMDL
MODEL 40
USER: ADFR SOLUTION from run 24
USER: SCORE 5.992425 LL:  -0.928 LR:  -5.203 RR:   0.000 FEB:  -3.413
USER: RMSD 3.508569
USER: SEED 23
USER: STATUS no improvement in best in 20 clusters for 5 generations
USER: GENES 8
USER: genes 0 Translation |==|  0.38345 0.55906 0.36300
USER: genes 1 Rotation |==|  0.45266 0.16254 0.51803 0.86545
USER: genes 2 Torsion [C]-N--CA-[C] |==|  0.81957
USER: genes 3 Torsion [N]-CA--C-[N] |==|  0.98255
USER: genes 4 Torsion [C]-N--CA-[C] |==|  0.59258
USER: genes 5 Torsion [N]-CA--C-[O] |==|  0.89631
USER: genes 6 Torsion [N]-C--CA-[N] |==|  0.18279
USER: genes 7 Torsion [C]-CA--N-[H2] |==|  0.41715
ROOT
ATOM      1  C   GLY G   1      23.846 -16.052  16.216  1.00 43.90 LIG 0.24  C 
ATOM      2 O    GLY G   1      24.876 -15.648  16.760  1.00 43.93 LIG-0.27  OA
ATOM      3  N   GLY G   2      22.684 -16.226  16.850  1.00 44.62 LIG-0.35  N 
ATOM      4 H    GLY G   2      22.012 -16.639  16.509  1.00 44.62 LIG 0.16  HD
ENDROOT
BRANCH 3 5
ATOM      5  CA  GLY G   2      22.453 -15.723  18.193  1.00 45.53 LIG 0.23  C 
BRANCH 5 6
ATOM      6  C   GLY G   2      23.318 -16.370  19.241  1.00 46.02 LIG 0.23  C 
ATOM      7 O    GLY G   2      23.282 -15.971  20.403  1.00 47.02 LIG-0.27  OA
ATOM      8  N   GLY G   3      24.070 -17.390  18.829  1.00 46.62 LIG-0.35  N 
ATOM      9 H    GLY G   3      24.050 -17.701  18.027  1.00 46.62 LIG 0.16  HD
BRANCH 8 10
ATOM     10  CA  GLY G   3      25.008 -18.079  19.709  1.00 46.72 LIG 0.21  C 
BRANCH 10 11
ATOM     11  C   GLY G   3      26.261 -18.592  19.021  1.00 46.79 LIG 0.21  C 
ATOM     12 O    GLY G   3      26.211 -19.053  17.884  1.00 46.39 LIG-0.29  OA
ENDBRANCH 10 11
ENDBRANCH 8 10
ENDBRANCH 5 6
ENDBRANCH 3 5
BRANCH 1 13
ATOM     13  CA  GLY G   1      23.836 -16.371  14.742  1.00 43.33 LIG 0.33  C 
BRANCH 13 14
ATOM     14  N   GLY G   1      22.956 -15.407  14.045  1.00 42.49 LIG-0.07  N 
ATOM     15 H2   GLY G   1      23.249 -15.285  13.214  1.00 42.49 LIG 0.27  HD
ATOM     16 H3   GLY G   1      22.125 -15.725  14.023  1.00 42.49 LIG 0.27  HD
ATOM     17 H1   GLY G   1      22.964 -14.630  14.479  1.00 42.49 LIG 0.27  HD
ENDBRANCH 13 14
ENDBRANCH 1 13
TORSDOF 6
ENDMDL
MODEL 41
USER: ADFR SOLUTION from run 70
USER: SCORE 5.920689 LL:  -0.882 LR:  -5.180 RR:   0.000 FEB:  -3.390
USER: RMSD 2.575473
USER: SEED 69
USER: STATUS no improvement in best in 23 clusters for 5 generations
USER: GENES 8
USER: genes 0 Translation |==|  0.38752 0.52108 0.54138
USER: genes 1 Rotation |==|  0.21299 0.70341 0.57113 0.84813
USER: genes 2 Torsion [C]-N--CA-[C] |==|  0.80000
USER: genes 3 Torsion [N]-CA--C-[N] |==|  0.88509
USER: genes 4 Torsion [C]-N--CA-[C] |==|  0.25538
USER: genes 5 Torsion [N]-CA--C-[O] |==|  0.98462
USER: genes 6 Torsion [N]-C--CA-[N] |==|  0.80532
USER: genes 7 Torsion [C]-CA--N-[H2] |==|  0.16913
ROOT
ATOM      1  C   GLY G   1      23.916 -16.536  18.758  1.00 43.90 LIG 0.24  C 
ATOM      2 O    GLY G   1      23.723 -17.480  17.987  1.00 43.93 LIG-0.27  OA
ATOM      3  N   GLY G   2      24.951 -15.699  18.669  1.00 44.62 LIG-0.35  N 
ATOM      4 H    GLY G   2      25.163 -15.135  19.284  1.00 44.62 LIG 0.16  HD
ENDROOT
BRANCH 3 5
ATOM      5  CA  GLY G   2      25.822 -15.665  17.508  1.00 45.53 LIG 0.23  C 
BRANCH 5 6
ATOM      6  C   GLY G   2      26.732 -16.859  17.397  1.00 46.02 LIG 0.23  C 
ATOM      7 O    GLY G   2      26.949 -17.370  16.300  1.00 47.02 LIG-0.27  OA
ATOM      8  N   GLY G   3      27.286 -17.279  18.534  1.00 46.62 LIG-0.35  N 
ATOM      9 H    GLY G   3      27.174 -16.884  19.290  1.00 46.62 LIG 0.16  HD
BRANCH 8 10
ATOM     10  CA  GLY G   3      28.139 -18.460  18.603  1.00 46.72 LIG 0.21  C 
BRANCH 10 11
ATOM     11  C   GLY G   3      29.623 -18.180  18.430  1.00 46.79 LIG 0.21  C 
ATOM     12 O    GLY G   3      30.021 -17.053  18.149  1.00 46.39 LIG-0.29  OA
ENDBRANCH 10 11
ENDBRANCH 8 10
ENDBRANCH 5 6
ENDBRANCH 3 5
BRANCH 1 13
ATOM     13  CA  GLY G   1      22.947 -16.257  19.879  1.00 43.33 LIG 0.33  C 
BRANCH 13 14
ATOM     14  N   GLY G   1      23.599 -16.573  21.170  1.00 42.49 LIG-0.07  N 
ATOM     15 H2   GLY G   1      24.317 -16.058  21.273  1.00 42.49 LIG 0.27  HD
ATOM     16 H3   GLY G   1      23.028 -16.423  21.835  1.00 42.49 LIG 0.27  HD
ATOM     17 H1   GLY G   1      23.845 -17.428  21.177  1.00 42.49 LIG 0.27  HD
ENDBRANCH 13 14
ENDBRANCH 1 13
TORSDOF 6
ENDMDL
MODEL 42
USER: ADFR SOLUTION from run 136
USER: SCORE 5.854147 LL:  -0.825 LR:  -5.133 RR:   0.000 FEB:  -3.343
USER: RMSD 3.486080
USER: SEED 135
USER: STATUS no improvement in best in 24 clusters for 5 generations
USER: GENES 8
USER: genes 0 Translation |==|  0.34948 0.51425 0.34467
USER: genes 1 Rotation |==|  0.79412 0.71981 0.63143 0.81289
USER: genes 2 Torsion [C]-N--CA-[C] |==|  0.24999
USER: genes 3 Torsion [N]-CA--C-[N] |==|  0.50488
USER: genes 4 Torsion [C]-N--CA-[C] |==|  0.85882
USER: genes 5 Torsion [N]-CA--C-[O] |==|  0.89382
USER: genes 6 Torsion [N]-C--CA-[N] |==|  0.00511
USER: genes 7 Torsion [C]-CA--N-[H2] |==|  0.82546
ROOT
ATOM      1  C   GLY G   1      23.259 -16.623  15.955  1.00 43.90 LIG 0.24  C 
ATOM      2 O    GLY G   1      22.844 -15.493  16.221  1.00 43.93 LIG-0.27  OA
ATOM      3  N   GLY G   2      24.438 -16.870  15.380  1.00 44.62 LIG-0.35  N 
ATOM      4 H    GLY G   2      24.664 -17.638  15.065  1.00 44.62 LIG 0.16  HD
ENDROOT
BRANCH 3 5
ATOM      5  CA  GLY G   2      25.457 -15.846  15.233  1.00 45.53 LIG 0.23  C 
BRANCH 5 6
ATOM      6  C   GLY G   2      26.408 -15.764  16.397  1.00 46.02 LIG 0.23  C 
ATOM      7 O    GLY G   2      26.317 -16.563  17.327  1.00 47.02 LIG-0.27  OA
ATOM      8  N   GLY G   3      27.340 -14.813  16.324  1.00 46.62 LIG-0.35  N 
ATOM      9 H    GLY G   3      27.434 -14.293  15.645  1.00 46.62 LIG 0.16  HD
BRANCH 8 10
ATOM     10  CA  GLY G   3      28.294 -14.565  17.399  1.00 46.72 LIG 0.21  C 
BRANCH 10 11
ATOM     11  C   GLY G   3      27.670 -14.401  18.774  1.00 46.79 LIG 0.21  C 
ATOM     12 O    GLY G   3      26.606 -13.805  18.915  1.00 46.39 LIG-0.29  OA
ENDBRANCH 10 11
ENDBRANCH 8 10
ENDBRANCH 5 6
ENDBRANCH 3 5
BRANCH 1 13
ATOM     13  CA  GLY G   1      22.432 -17.838  16.289  1.00 43.33 LIG 0.33  C 
BRANCH 13 14
ATOM     14  N   GLY G   1      23.189 -19.055  15.918  1.00 42.49 LIG-0.07  N 
ATOM     15 H2   GLY G   1      23.327 -19.062  15.039  1.00 42.49 LIG 0.27  HD
ATOM     16 H3   GLY G   1      23.971 -19.059  16.341  1.00 42.49 LIG 0.27  HD
ATOM     17 H1   GLY G   1      22.723 -19.777  16.150  1.00 42.49 LIG 0.27  HD
ENDBRANCH 13 14
ENDBRANCH 1 13
TORSDOF 6
ENDMDL
MODEL 43
USER: ADFR SOLUTION from run 164
USER: SCORE 5.888020 LL:  -0.853 LR:  -5.129 RR:   0.000 FEB:  -3.340
USER: RMSD 2.073536
USER: SEED 163
USER: STATUS no improvement in best in 23 clusters for 5 generations
USER: GENES 8
USER: genes 0 Translation |==|  0.39231 0.43327 0.34980
USER: genes 1 Rotation |==|  0.83234 0.56045 0.54420 0.86598
USER: genes 2 Torsion [C]-N--CA-[C] |==|  0.20556
USER: genes 3 Torsion [N]-CA--C-[N] |==|  0.53623
USER: genes 4 Torsion [C]-N--CA-[C] |==|  0.36890
USER: genes 5 Torsion [N]-CA--C-[O] |==|  0.84745
USER: genes 6 Torsion [N]-C--CA-[N] |==|  0.06263
USER: genes 7 Torsion [C]-CA--N-[H2] |==|  0.70742
ROOT
ATOM      1  C   GLY G   1      23.998 -17.656  16.028  1.00 43.90 LIG 0.24  C 
ATOM      2 O    GLY G   1      24.394 -16.514  16.273  1.00 43.93 LIG-0.27  OA
ATOM      3  N   GLY G   2      24.803 -18.677  15.728  1.00 44.62 LIG-0.35  N 
ATOM      4 H    GLY G   2      24.523 -19.430  15.419  1.00 44.62 LIG 0.16  HD
ENDROOT
BRANCH 3 5
ATOM      5  CA  GLY G   2      26.243 -18.605  15.900  1.00 45.53 LIG 0.23  C 
BRANCH 5 6
ATOM      6  C   GLY G   2      26.688 -18.680  17.336  1.00 46.02 LIG 0.23  C 
ATOM      7 O    GLY G   2      25.904 -19.055  18.206  1.00 47.02 LIG-0.27  OA
ATOM      8  N   GLY G   3      27.957 -18.350  17.572  1.00 46.62 LIG-0.35  N 
ATOM      9 H    GLY G   3      28.517 -18.142  16.952  1.00 46.62 LIG 0.16  HD
BRANCH 8 10
ATOM     10  CA  GLY G   3      28.522 -18.311  18.917  1.00 46.72 LIG 0.21  C 
BRANCH 10 11
ATOM     11  C   GLY G   3      29.864 -19.008  19.061  1.00 46.79 LIG 0.21  C 
ATOM     12 O    GLY G   3      30.003 -20.180  18.723  1.00 46.39 LIG-0.29  OA
ENDBRANCH 10 11
ENDBRANCH 8 10
ENDBRANCH 5 6
ENDBRANCH 3 5
BRANCH 1 13
ATOM     13  CA  GLY G   1      22.526 -17.977  16.068  1.00 43.33 LIG 0.33  C 
BRANCH 13 14
ATOM     14  N   GLY G   1      22.356 -19.430  16.297  1.00 42.49 LIG-0.07  N 
ATOM     15 H2   GLY G   1      22.107 -19.823  15.539  1.00 42.49 LIG 0.27  HD
ATOM     16 H3   GLY G   1      23.126 -19.779  16.573  1.00 42.49 LIG 0.27  HD
ATOM     17 H1   GLY G   1      21.731 -19.562  16.918  1.00 42.49 LIG 0.27  HD
ENDBRANCH 13 14
ENDBRANCH 1 13
TORSDOF 6
ENDMDL
MODEL 44
USER: ADFR SOLUTION from run 15
USER: SCORE 6.059845 LL:  -0.965 LR:  -5.099 RR:   0.000 FEB:  -3.309
USER: RMSD 3.380116
USER: SEED 633594
USER: STATUS no improvement in best in 24 clusters for 5 generations
USER: GENES 8
USER: genes 0 Translation |==|  0.35333 0.45642 0.30410
USER: genes 1 Rotation |==|  0.80192 0.70816 0.48511 0.83954
USER: genes 2 Torsion [C]-N--CA-[C] |==|  0.22223
USER: genes 3 Torsion [N]-CA--C-[N] |==|  0.00917
USER: genes 4 Torsion [C]-N--CA-[C] |==|  0.50450
USER: genes 5 Torsion [N]-CA--C-[O] |==|  0.03747
USER: genes 6 Torsion [N]-C--CA-[N] |==|  0.02260
USER: genes 7 Torsion [C]-CA--N-[H2] |==|  0.11678
ROOT
ATOM      1  C   GLY G   1      23.326 -17.361  15.376  1.00 43.90 LIG 0.24  C 
ATOM      2 O    GLY G   1      23.478 -16.138  15.326  1.00 43.93 LIG-0.27  OA
ATOM      3  N   GLY G   2      24.067 -18.235  14.693  1.00 44.62 LIG-0.35  N 
ATOM      4 H    GLY G   2      23.871 -19.069  14.616  1.00 44.62 LIG 0.16  HD
ENDROOT
BRANCH 3 5
ATOM      5  CA  GLY G   2      25.288 -17.846  14.009  1.00 45.53 LIG 0.23  C 
BRANCH 5 6
ATOM      6  C   GLY G   2      26.483 -17.729  14.918  1.00 46.02 LIG 0.23  C 
ATOM      7 O    GLY G   2      27.556 -17.323  14.477  1.00 47.02 LIG-0.27  OA
ATOM      8  N   GLY G   3      26.280 -18.059  16.193  1.00 46.62 LIG-0.35  N 
ATOM      9 H    GLY G   3      25.513 -18.290  16.508  1.00 46.62 LIG 0.16  HD
BRANCH 8 10
ATOM     10  CA  GLY G   3      27.352 -18.060  17.183  1.00 46.72 LIG 0.21  C 
BRANCH 10 11
ATOM     11  C   GLY G   3      26.928 -18.502  18.574  1.00 46.79 LIG 0.21  C 
ATOM     12 O    GLY G   3      25.847 -19.055  18.756  1.00 46.39 LIG-0.29  OA
ENDBRANCH 10 11
ENDBRANCH 8 10
ENDBRANCH 5 6
ENDBRANCH 3 5
BRANCH 1 13
ATOM     13  CA  GLY G   1      22.261 -17.960  16.259  1.00 43.33 LIG 0.33  C 
BRANCH 13 14
ATOM     14  N   GLY G   1      22.434 -19.430  16.293  1.00 42.49 LIG-0.07  N 
ATOM     15 H2   GLY G   1      23.299 -19.626  16.363  1.00 42.49 LIG 0.27  HD
ATOM     16 H3   GLY G   1      21.997 -19.765  16.992  1.00 42.49 LIG 0.27  HD
ATOM     17 H1   GLY G   1      22.110 -19.785  15.543  1.00 42.49 LIG 0.27  HD
ENDBRANCH 13 14
ENDBRANCH 1 13
TORSDOF 6
ENDMDL
MODEL 45
USER: ADFR SOLUTION from run 29
USER: SCORE 6.048169 LL:  -1.032 LR:  -5.101 RR:   0.000 FEB:  -3.311
USER: RMSD 3.579036
USER: SEED 28
USER: STATUS no improvement in best in 23 clusters for 5 generations
USER: GENES 8
USER: genes 0 Translation |==|  0.31654 0.53574 0.39641
USER: genes 1 Rotation |==|  0.56849 0.79235 0.44453 0.89593
USER: genes 2 Torsion [C]-N--CA-[C] |==|  0.28879
USER: genes 3 Torsion [N]-CA--C-[N] |==|  0.00726
USER: genes 4 Torsion [C]-N--CA-[C] |==|  0.44973
USER: genes 5 Torsion [N]-CA--C-[O] |==|  0.96478
USER: genes 6 Torsion [N]-C--CA-[N] |==|  0.38586
USER: genes 7 Torsion [C]-CA--N-[H2] |==|  0.37314
ROOT
ATOM      1  C   GLY G   1      22.691 -16.349  16.692  1.00 43.90 LIG 0.24  C 
ATOM      2 O    GLY G   1      22.169 -15.683  15.795  1.00 43.93 LIG-0.27  OA
ATOM      3  N   GLY G   2      23.767 -17.120  16.520  1.00 44.62 LIG-0.35  N 
ATOM      4 H    GLY G   2      24.043 -17.690  17.102  1.00 44.62 LIG 0.16  HD
ENDROOT
BRANCH 3 5
ATOM      5  CA  GLY G   2      24.578 -17.059  15.317  1.00 45.53 LIG 0.23  C 
BRANCH 5 6
ATOM      6  C   GLY G   2      25.881 -16.328  15.498  1.00 46.02 LIG 0.23  C 
ATOM      7 O    GLY G   2      26.624 -16.142  14.537  1.00 47.02 LIG-0.27  OA
ATOM      8  N   GLY G   3      26.137 -15.889  16.730  1.00 46.62 LIG-0.35  N 
ATOM      9 H    GLY G   3      25.589 -15.973  17.388  1.00 46.62 LIG 0.16  HD
BRANCH 8 10
ATOM     10  CA  GLY G   3      27.385 -15.218  17.081  1.00 46.72 LIG 0.21  C 
BRANCH 10 11
ATOM     11  C   GLY G   3      27.333 -14.421  18.373  1.00 46.79 LIG 0.21  C 
ATOM     12 O    GLY G   3      26.261 -14.176  18.918  1.00 46.39 LIG-0.29  OA
ENDBRANCH 10 11
ENDBRANCH 8 10
ENDBRANCH 5 6
ENDBRANCH 3 5
BRANCH 1 13
ATOM     13  CA  GLY G   1      22.129 -16.319  18.091  1.00 43.33 LIG 0.33  C 
BRANCH 13 14
ATOM     14  N   GLY G   1      21.738 -14.930  18.423  1.00 42.49 LIG-0.07  N 
ATOM     15 H2   GLY G   1      20.933 -14.931  18.801  1.00 42.49 LIG 0.27  HD
ATOM     16 H3   GLY G   1      22.331 -14.582  18.988  1.00 42.49 LIG 0.27  HD
ATOM     17 H1   GLY G   1      21.715 -14.442  17.679  1.00 42.49 LIG 0.27  HD
ENDBRANCH 13 14
ENDBRANCH 1 13
TORSDOF 6
ENDMDL
MODEL 46
USER: ADFR SOLUTION from run 31
USER: SCORE 5.877451 LL:  -0.909 LR:  -5.078 RR:   0.000 FEB:  -3.288
USER: RMSD 3.538700
USER: SEED 30
USER: STATUS no improvement in best in 22 clusters for 5 generations
USER: GENES 8
USER: genes 0 Translation |==|  0.43846 0.40859 0.29748
USER: genes 1 Rotation |==|  0.26140 0.26301 0.29327 0.80687
USER: genes 2 Torsion [C]-N--CA-[C] |==|  0.25439
USER: genes 3 Torsion [N]-CA--C-[N] |==|  0.47730
USER: genes 4 Torsion [C]-N--CA-[C] |==|  0.79610
USER: genes 5 Torsion [N]-CA--C-[O] |==|  0.18785
USER: genes 6 Torsion [N]-C--CA-[N] |==|  0.58795
USER: genes 7 Torsion [C]-CA--N-[H2] |==|  0.20428
ROOT
ATOM      1  C   GLY G   1      24.795 -17.970  15.282  1.00 43.90 LIG 0.24  C 
ATOM      2 O    GLY G   1      25.473 -18.861  15.798  1.00 43.93 LIG-0.27  OA
ATOM      3  N   GLY G   2      24.314 -16.917  15.946  1.00 44.62 LIG-0.35  N 
ATOM      4 H    GLY G   2      23.727 -16.377  15.624  1.00 44.62 LIG 0.16  HD
ENDROOT
BRANCH 3 5
ATOM      5  CA  GLY G   2      24.750 -16.586  17.291  1.00 45.53 LIG 0.23  C 
BRANCH 5 6
ATOM      6  C   GLY G   2      25.914 -15.633  17.336  1.00 46.02 LIG 0.23  C 
ATOM      7 O    GLY G   2      26.484 -15.306  16.298  1.00 47.02 LIG-0.27  OA
ATOM      8  N   GLY G   3      26.241 -15.168  18.542  1.00 46.62 LIG-0.35  N 
ATOM      9 H    GLY G   3      25.803 -15.357  19.258  1.00 46.62 LIG 0.16  HD
BRANCH 8 10
ATOM     10  CA  GLY G   3      27.383 -14.287  18.760  1.00 46.72 LIG 0.21  C 
BRANCH 10 11
ATOM     11  C   GLY G   3      28.736 -14.971  18.666  1.00 46.79 LIG 0.21  C 
ATOM     12 O    GLY G   3      29.147 -15.408  17.594  1.00 46.39 LIG-0.29  OA
ENDBRANCH 10 11
ENDBRANCH 8 10
ENDBRANCH 5 6
ENDBRANCH 3 5
BRANCH 1 13
ATOM     13  CA  GLY G   1      24.468 -18.017  13.811  1.00 43.33 LIG 0.33  C 
BRANCH 13 14
ATOM     14  N   GLY G   1      24.347 -19.430  13.388  1.00 42.49 LIG-0.07  N 
ATOM     15 H2   GLY G   1      23.585 -19.769  13.699  1.00 42.49 LIG 0.27  HD
ATOM     16 H3   GLY G   1      24.351 -19.475  12.499  1.00 42.49 LIG 0.27  HD
ATOM     17 H1   GLY G   1      25.032 -19.897  13.711  1.00 42.49 LIG 0.27  HD
ENDBRANCH 13 14
ENDBRANCH 1 13
TORSDOF 6
ENDMDL
MODEL 47
USER: ADFR SOLUTION from run 25
USER: SCORE 5.623204 LL:  -0.959 LR:  -5.073 RR:   0.000 FEB:  -3.283
USER: RMSD 3.655108
USER: SEED 24
USER: STATUS no improvement in best in 27 clusters for 5 generations
USER: GENES 8
USER: genes 0 Translation |==|  0.30198 0.51374 0.38780
USER: genes 1 Rotation |==|  0.62960 0.79040 0.34813 0.85470
USER: genes 2 Torsion [C]-N--CA-[C] |==|  0.28740
USER: genes 3 Torsion [N]-CA--C-[N] |==|  0.31856
USER: genes 4 Torsion [C]-N--CA-[C] |==|  0.19079
USER: genes 5 Torsion [N]-CA--C-[O] |==|  0.00259
USER: genes 6 Torsion [N]-C--CA-[N] |==|  0.46573
USER: genes 7 Torsion [C]-CA--N-[H2] |==|  0.01008
ROOT
ATOM      1  C   GLY G   1      22.440 -16.630  16.569  1.00 43.90 LIG 0.24  C 
ATOM      2 O    GLY G   1      22.177 -15.784  15.711  1.00 43.93 LIG-0.27  OA
ATOM      3  N   GLY G   2      23.023 -17.802  16.308  1.00 44.62 LIG-0.35  N 
ATOM      4 H    GLY G   2      23.074 -18.446  16.877  1.00 44.62 LIG 0.16  HD
ENDROOT
BRANCH 3 5
ATOM      5  CA  GLY G   2      23.628 -18.096  15.022  1.00 45.53 LIG 0.23  C 
BRANCH 5 6
ATOM      6  C   GLY G   2      25.132 -18.028  15.029  1.00 46.02 LIG 0.23  C 
ATOM      7 O    GLY G   2      25.701 -16.962  15.255  1.00 47.02 LIG-0.27  OA
ATOM      8  N   GLY G   3      25.769 -19.178  14.809  1.00 46.62 LIG-0.35  N 
ATOM      9 H    GLY G   3      25.367 -19.932  14.706  1.00 46.62 LIG 0.16  HD
BRANCH 8 10
ATOM     10  CA  GLY G   3      27.223 -19.266  14.721  1.00 46.72 LIG 0.21  C 
BRANCH 10 11
ATOM     11  C   GLY G   3      27.952 -19.017  16.031  1.00 46.79 LIG 0.21  C 
ATOM     12 O    GLY G   3      27.329 -18.781  17.062  1.00 46.39 LIG-0.29  OA
ENDBRANCH 10 11
ENDBRANCH 8 10
ENDBRANCH 5 6
ENDBRANCH 3 5
BRANCH 1 13
ATOM     13  CA  GLY G   1      22.118 -16.371  18.019  1.00 43.33 LIG 0.33  C 
BRANCH 13 14
ATOM     14  N   GLY G   1      21.762 -14.944  18.187  1.00 42.49 LIG-0.07  N 
ATOM     15 H2   GLY G   1      21.760 -14.543  17.393  1.00 42.49 LIG 0.27  HD
ATOM     16 H3   GLY G   1      20.954 -14.881  18.554  1.00 42.49 LIG 0.27  HD
ATOM     17 H1   GLY G   1      22.360 -14.549  18.716  1.00 42.49 LIG 0.27  HD
ENDBRANCH 13 14
ENDBRANCH 1 13
TORSDOF 6
ENDMDL
MODEL 48
USER: ADFR SOLUTION from run 17
USER: SCORE 5.474428 LL:  -0.867 LR:  -5.020 RR:   0.000 FEB:  -3.230
USER: RMSD 2.235472
USER: SEED 16
USER: STATUS no improvement in best in 21 clusters for 5 generations
USER: GENES 8
USER: genes 0 Translation |==|  0.39110 0.41214 0.40502
USER: genes 1 Rotation |==|  0.24448 0.35844 0.17791 0.74684
USER: genes 2 Torsion [C]-N--CA-[C] |==|  0.12393
USER: genes 3 Torsion [N]-CA--C-[N] |==|  0.14058
USER: genes 4 Torsion [C]-N--CA-[C] |==|  0.60401
USER: genes 5 Torsion [N]-CA--C-[O] |==|  0.33509
USER: genes 6 Torsion [N]-C--CA-[N] |==|  0.46116
USER: genes 7 Torsion [C]-CA--N-[H2] |==|  0.89667
ROOT
ATOM      1  C   GLY G   1      23.977 -17.925  16.814  1.00 43.90 LIG 0.24  C 
ATOM      2 O    GLY G   1      23.968 -19.122  17.113  1.00 43.93 LIG-0.27  OA
ATOM      3  N   GLY G   2      24.082 -16.934  17.702  1.00 44.62 LIG-0.35  N 
ATOM      4 H    GLY G   2      23.945 -16.107  17.512  1.00 44.62 LIG 0.16  HD
ENDROOT
BRANCH 3 5
ATOM      5  CA  GLY G   2      24.444 -17.172  19.088  1.00 45.53 LIG 0.23  C 
BRANCH 5 6
ATOM      6  C   GLY G   2      25.592 -18.130  19.262  1.00 46.02 LIG 0.23  C 
ATOM      7 O    GLY G   2      25.481 -19.097  20.012  1.00 47.02 LIG-0.27  OA
ATOM      8  N   GLY G   3      26.682 -17.870  18.540  1.00 46.62 LIG-0.35  N 
ATOM      9 H    GLY G   3      26.735 -17.224  17.975  1.00 46.62 LIG 0.16  HD
BRANCH 8 10
ATOM     10  CA  GLY G   3      27.900 -18.667  18.644  1.00 46.72 LIG 0.21  C 
BRANCH 10 11
ATOM     11  C   GLY G   3      29.189 -17.869  18.542  1.00 46.79 LIG 0.21  C 
ATOM     12 O    GLY G   3      30.006 -17.874  19.458  1.00 46.39 LIG-0.29  OA
ENDBRANCH 10 11
ENDBRANCH 8 10
ENDBRANCH 5 6
ENDBRANCH 3 5
BRANCH 1 13
ATOM     13  CA  GLY G   1      23.881 -17.499  15.372  1.00 43.33 LIG 0.33  C 
BRANCH 13 14
ATOM     14  N   GLY G   1      24.110 -18.676  14.504  1.00 42.49 LIG-0.07  N 
ATOM     15 H2   GLY G   1      24.734 -19.196  14.868  1.00 42.49 LIG 0.27  HD
ATOM     16 H3   GLY G   1      23.353 -19.136  14.421  1.00 42.49 LIG 0.27  HD
ATOM     17 H1   GLY G   1      24.382 -18.405  13.701  1.00 42.49 LIG 0.27  HD
ENDBRANCH 13 14
ENDBRANCH 1 13
TORSDOF 6
ENDMDL
MODEL 49
USER: ADFR SOLUTION from run 182
USER: SCORE 5.563690 LL:  -0.741 LR:  -5.003 RR:   0.000 FEB:  -3.213
USER: RMSD 1.927190
USER: SEED 181
USER: STATUS no improvement in best in 30 clusters for 5 generations
USER: GENES 8
USER: genes 0 Translation |==|  0.35565 0.54767 0.47824
USER: genes 1 Rotation |==|  0.56159 0.42565 0.38895 0.97786
USER: genes 2 Torsion [C]-N--CA-[C] |==|  0.84068
USER: genes 3 Torsion [N]-CA--C-[N] |==|  0.35413
USER: genes 4 Torsion [C]-N--CA-[C] |==|  0.56973
USER: genes 5 Torsion [N]-CA--C-[O] |==|  0.28889
USER: genes 6 Torsion [N]-C--CA-[N] |==|  0.11384
USER: genes 7 Torsion [C]-CA--N-[H2] |==|  0.64905
ROOT
ATOM      1  C   GLY G   1      23.366 -16.197  17.858  1.00 43.90 LIG 0.24  C 
ATOM      2 O    GLY G   1      24.427 -16.034  17.251  1.00 43.93 LIG-0.27  OA
ATOM      3  N   GLY G   2      23.239 -16.951  18.952  1.00 44.62 LIG-0.35  N 
ATOM      4 H    GLY G   2      22.481 -17.180  19.288  1.00 44.62 LIG 0.16  HD
ENDROOT
BRANCH 3 5
ATOM      5  CA  GLY G   2      24.389 -17.458  19.680  1.00 45.53 LIG 0.23  C 
BRANCH 5 6
ATOM      6  C   GLY G   2      25.320 -18.292  18.841  1.00 46.02 LIG 0.23  C 
ATOM      7 O    GLY G   2      24.879 -19.221  18.168  1.00 47.02 LIG-0.27  OA
ATOM      8  N   GLY G   3      26.603 -17.934  18.864  1.00 46.62 LIG-0.35  N 
ATOM      9 H    GLY G   3      26.898 -17.249  19.293  1.00 46.62 LIG 0.16  HD
BRANCH 8 10
ATOM     10  CA  GLY G   3      27.639 -18.680  18.156  1.00 46.72 LIG 0.21  C 
BRANCH 10 11
ATOM     11  C   GLY G   3      29.035 -18.531  18.736  1.00 46.79 LIG 0.21  C 
ATOM     12 O    GLY G   3      29.539 -19.430  19.402  1.00 46.39 LIG-0.29  OA
ENDBRANCH 10 11
ENDBRANCH 8 10
ENDBRANCH 5 6
ENDBRANCH 3 5
BRANCH 1 13
ATOM     13  CA  GLY G   1      22.106 -15.517  17.387  1.00 43.33 LIG 0.33  C 
BRANCH 13 14
ATOM     14  N   GLY G   1      21.366 -15.005  18.562  1.00 42.49 LIG-0.07  N 
ATOM     15 H2   GLY G   1      20.530 -15.310  18.543  1.00 42.49 LIG 0.27  HD
ATOM     16 H3   GLY G   1      21.765 -15.281  19.308  1.00 42.49 LIG 0.27  HD
ATOM     17 H1   GLY G   1      21.356 -14.115  18.543  1.00 42.49 LIG 0.27  HD
ENDBRANCH 13 14
ENDBRANCH 1 13
TORSDOF 6
ENDMDL
MODEL 50
USER: ADFR SOLUTION from run 178
USER: SCORE 5.537805 LL:  -0.795 LR:  -4.982 RR:   0.000 FEB:  -3.192
USER: RMSD 3.019263
USER: SEED 177
USER: STATUS searching
USER: GENES 8
USER: genes 0 Translation |==|  0.49643 0.39445 0.20206
USER: genes 1 Rotation |==|  0.67174 0.44835 0.52096 0.96626
USER: genes 2 Torsion [C]-N--CA-[C] |==|  0.28333
USER: genes 3 Torsion [N]-CA--C-[N] |==|  0.54704
USER: genes 4 Torsion [C]-N--CA-[C] |==|  0.38760
USER: genes 5 Torsion [N]-CA--C-[O] |==|  0.93277
USER: genes 6 Torsion [N]-C--CA-[N] |==|  0.86628
USER: genes 7 Torsion [C]-CA--N-[H2] |==|  0.91276
ROOT
ATOM      1  C   GLY G   1      25.794 -18.151  13.922  1.00 43.90 LIG 0.24  C 
ATOM      2 O    GLY G   1      26.572 -17.247  13.606  1.00 43.93 LIG-0.27  OA
ATOM      3  N   GLY G   2      26.135 -19.201  14.672  1.00 44.62 LIG-0.35  N 
ATOM      4 H    GLY G   2      25.638 -19.897  14.772  1.00 44.62 LIG 0.16  HD
ENDROOT
BRANCH 3 5
ATOM      5  CA  GLY G   2      27.392 -19.261  15.395  1.00 45.53 LIG 0.23  C 
BRANCH 5 6
ATOM      6  C   GLY G   2      27.261 -18.973  16.867  1.00 46.02 LIG 0.23  C 
ATOM      7 O    GLY G   2      26.164 -19.051  17.416  1.00 47.02 LIG-0.27  OA
ATOM      8  N   GLY G   3      28.392 -18.670  17.505  1.00 46.62 LIG-0.35  N 
ATOM      9 H    GLY G   3      29.165 -18.671  17.127  1.00 46.62 LIG 0.16  HD
BRANCH 8 10
ATOM     10  CA  GLY G   3      28.422 -18.304  18.917  1.00 46.72 LIG 0.21  C 
BRANCH 10 11
ATOM     11  C   GLY G   3      29.585 -18.893  19.698  1.00 46.79 LIG 0.21  C 
ATOM     12 O    GLY G   3      30.142 -19.919  19.319  1.00 46.39 LIG-0.29  OA
ENDBRANCH 10 11
ENDBRANCH 8 10
ENDBRANCH 5 6
ENDBRANCH 3 5
BRANCH 1 13
ATOM     13  CA  GLY G   1      24.356 -18.110  13.474  1.00 43.33 LIG 0.33  C 
BRANCH 13 14
ATOM     14  N   GLY G   1      23.986 -19.431  12.918  1.00 42.49 LIG-0.07  N 
ATOM     15 H2   GLY G   1      24.700 -19.806  12.543  1.00 42.49 LIG 0.27  HD
ATOM     16 H3   GLY G   1      23.686 -19.955  13.572  1.00 42.49 LIG 0.27  HD
ATOM     17 H1   GLY G   1      23.349 -19.328  12.305  1.00 42.49 LIG 0.27  HD
ENDBRANCH 13 14
ENDBRANCH 1 13
TORSDOF 6
ENDMDL
MODEL 51
USER: ADFR SOLUTION from run 47
USER: SCORE 5.974309 LL:  -1.076 LR:  -4.964 RR:   0.000 FEB:  -3.174
USER: RMSD 4.855437
USER: SEED 46
USER: STATUS no improvement in best in 31 clusters for 5 generations
USER: GENES 8
USER: genes 0 Translation |==|  0.50955 0.36339 0.21287
USER: genes 1 Rotation |==|  0.51658 0.72670 0.89758 0.70065
USER: genes 2 Torsion [C]-N--CA-[C] |==|  0.23656
USER: genes 3 Torsion [N]-CA--C-[N] |==|  0.06030
USER: genes 4 Torsion [C]-N--CA-[C] |==|  0.39208
USER: genes 5 Torsion [N]-CA--C-[O] |==|  0.96958
USER: genes 6 Torsion [N]-C--CA-[N] |==|  0.50738
USER: genes 7 Torsion [C]-CA--N-[H2] |==|  0.44321
ROOT
ATOM      1  C   GLY G   1      26.021 -18.547  14.076  1.00 43.90 LIG 0.24  C 
ATOM      2 O    GLY G   1      24.930 -18.840  13.581  1.00 43.93 LIG-0.27  OA
ATOM      3  N   GLY G   2      26.411 -17.297  14.337  1.00 44.62 LIG-0.35  N 
ATOM      4 H    GLY G   2      27.218 -17.083  14.545  1.00 44.62 LIG 0.16  HD
ENDROOT
BRANCH 3 5
ATOM      5  CA  GLY G   2      25.493 -16.174  14.290  1.00 45.53 LIG 0.23  C 
BRANCH 5 6
ATOM      6  C   GLY G   2      24.728 -15.961  15.569  1.00 46.02 LIG 0.23  C 
ATOM      7 O    GLY G   2      23.655 -15.361  15.554  1.00 47.02 LIG-0.27  OA
ATOM      8  N   GLY G   3      25.272 -16.481  16.668  1.00 46.62 LIG-0.35  N 
ATOM      9 H    GLY G   3      25.995 -16.948  16.665  1.00 46.62 LIG 0.16  HD
BRANCH 8 10
ATOM     10  CA  GLY G   3      24.686 -16.306  17.993  1.00 46.72 LIG 0.21  C 
BRANCH 10 11
ATOM     11  C   GLY G   3      24.763 -17.533  18.886  1.00 46.79 LIG 0.21  C 
ATOM     12 O    GLY G   3      25.098 -18.622  18.430  1.00 46.39 LIG-0.29  OA
ENDBRANCH 10 11
ENDBRANCH 8 10
ENDBRANCH 5 6
ENDBRANCH 3 5
BRANCH 1 13
ATOM     13  CA  GLY G   1      27.007 -19.626  14.443  1.00 43.33 LIG 0.33  C 
BRANCH 13 14
ATOM     14  N   GLY G   1      26.458 -20.940  14.036  1.00 42.49 LIG-0.07  N 
ATOM     15 H2   GLY G   1      27.121 -21.530  13.969  1.00 42.49 LIG 0.27  HD
ATOM     16 H3   GLY G   1      25.873 -21.218  14.645  1.00 42.49 LIG 0.27  HD
ATOM     17 H1   GLY G   1      26.051 -20.861  13.248  1.00 42.49 LIG 0.27  HD
ENDBRANCH 13 14
ENDBRANCH 1 13
TORSDOF 6
ENDMDL
MODEL 52
USER: ADFR SOLUTION from run 39
USER: SCORE 5.667552 LL:  -0.967 LR:  -4.904 RR:   0.000 FEB:  -3.114
USER: RMSD 2.589011
USER: SEED 38
USER: STATUS no improvement in best in 22 clusters for 5 generations
USER: GENES 8
USER: genes 0 Translation |==|  0.42836 0.47207 0.27778
USER: genes 1 Rotation |==|  0.77956 0.48185 0.43944 0.90970
USER: genes 2 Torsion [C]-N--CA-[C] |==|  0.17653
USER: genes 3 Torsion [N]-CA--C-[N] |==|  0.66111
USER: genes 4 Torsion [C]-N--CA-[C] |==|  0.72587
USER: genes 5 Torsion [N]-CA--C-[O] |==|  0.84857
USER: genes 6 Torsion [N]-C--CA-[N] |==|  0.61793
USER: genes 7 Torsion [C]-CA--N-[H2] |==|  0.09741
ROOT
ATOM      1  C   GLY G   1      24.620 -17.161  15.001  1.00 43.90 LIG 0.24  C 
ATOM      2 O    GLY G   1      25.537 -16.338  14.939  1.00 43.93 LIG-0.27  OA
ATOM      3  N   GLY G   2      24.805 -18.482  15.057  1.00 44.62 LIG-0.35  N 
ATOM      4 H    GLY G   2      24.172 -19.056  14.955  1.00 44.62 LIG 0.16  HD
ENDROOT
BRANCH 3 5
ATOM      5  CA  GLY G   2      26.109 -19.071  15.296  1.00 45.53 LIG 0.23  C 
BRANCH 5 6
ATOM      6  C   GLY G   2      26.689 -18.737  16.644  1.00 46.02 LIG 0.23  C 
ATOM      7 O    GLY G   2      26.088 -19.049  17.670  1.00 47.02 LIG-0.27  OA
ATOM      8  N   GLY G   3      27.875 -18.128  16.635  1.00 46.62 LIG-0.35  N 
ATOM      9 H    GLY G   3      28.317 -17.962  15.916  1.00 46.62 LIG 0.16  HD
BRANCH 8 10
ATOM     10  CA  GLY G   3      28.538 -17.682  17.855  1.00 46.72 LIG 0.21  C 
BRANCH 10 11
ATOM     11  C   GLY G   3      28.363 -16.206  18.168  1.00 46.79 LIG 0.21  C 
ATOM     12 O    GLY G   3      28.660 -15.349  17.341  1.00 46.39 LIG-0.29  OA
ENDBRANCH 10 11
ENDBRANCH 8 10
ENDBRANCH 5 6
ENDBRANCH 3 5
BRANCH 1 13
ATOM     13  CA  GLY G   1      23.184 -16.703  15.034  1.00 43.33 LIG 0.33  C 
BRANCH 13 14
ATOM     14  N   GLY G   1      23.001 -15.618  14.044  1.00 42.49 LIG-0.07  N 
ATOM     15 H2   GLY G   1      23.515 -15.774  13.334  1.00 42.49 LIG 0.27  HD
ATOM     16 H3   GLY G   1      22.149 -15.587  13.791  1.00 42.49 LIG 0.27  HD
ATOM     17 H1   GLY G   1      23.231 -14.839  14.410  1.00 42.49 LIG 0.27  HD
ENDBRANCH 13 14
ENDBRANCH 1 13
TORSDOF 6
ENDMDL
MODEL 53
USER: ADFR SOLUTION from run 92
USER: SCORE 5.649631 LL:  -0.898 LR:  -4.886 RR:   0.000 FEB:  -3.096
USER: RMSD 2.870279
USER: SEED 91
USER: STATUS no improvement in best in 12 clusters for 5 generations
USER: GENES 8
USER: genes 0 Translation |==|  0.33538 0.51440 0.35877
USER: genes 1 Rotation |==|  0.21706 0.42809 0.27566 0.83829
USER: genes 2 Torsion [C]-N--CA-[C] |==|  0.24454
USER: genes 3 Torsion [N]-CA--C-[N] |==|  0.43897
USER: genes 4 Torsion [C]-N--CA-[C] |==|  0.78420
USER: genes 5 Torsion [N]-CA--C-[O] |==|  0.37684
USER: genes 6 Torsion [N]-C--CA-[N] |==|  0.22327
USER: genes 7 Torsion [C]-CA--N-[H2] |==|  0.24302
ROOT
ATOM      1  C   GLY G   1      23.016 -16.621  16.155  1.00 43.90 LIG 0.24  C 
ATOM      2 O    GLY G   1      23.391 -17.795  16.105  1.00 43.93 LIG-0.27  OA
ATOM      3  N   GLY G   2      23.370 -15.764  17.115  1.00 44.62 LIG-0.35  N 
ATOM      4 H    GLY G   2      22.999 -14.997  17.230  1.00 44.62 LIG 0.16  HD
ENDROOT
BRANCH 3 5
ATOM      5  CA  GLY G   2      24.429 -16.059  18.064  1.00 45.53 LIG 0.23  C 
BRANCH 5 6
ATOM      6  C   GLY G   2      25.799 -15.652  17.591  1.00 46.02 LIG 0.23  C 
ATOM      7 O    GLY G   2      26.013 -15.481  16.393  1.00 47.02 LIG-0.27  OA
ATOM      8  N   GLY G   3      26.714 -15.470  18.543  1.00 46.62 LIG-0.35  N 
ATOM      9 H    GLY G   3      26.544 -15.537  19.384  1.00 46.62 LIG 0.16  HD
BRANCH 8 10
ATOM     10  CA  GLY G   3      28.103 -15.137  18.243  1.00 46.72 LIG 0.21  C 
BRANCH 10 11
ATOM     11  C   GLY G   3      28.950 -16.311  17.783  1.00 46.79 LIG 0.21  C 
ATOM     12 O    GLY G   3      29.712 -16.199  16.827  1.00 46.39 LIG-0.29  OA
ENDBRANCH 10 11
ENDBRANCH 8 10
ENDBRANCH 5 6
ENDBRANCH 3 5
BRANCH 1 13
ATOM     13  CA  GLY G   1      22.113 -16.063  15.085  1.00 43.33 LIG 0.33  C 
BRANCH 13 14
ATOM     14  N   GLY G   1      22.930 -15.305  14.111  1.00 42.49 LIG-0.07  N 
ATOM     15 H2   GLY G   1      23.231 -15.858  13.482  1.00 42.49 LIG 0.27  HD
ATOM     16 H3   GLY G   1      22.432 -14.671  13.736  1.00 42.49 LIG 0.27  HD
ATOM     17 H1   GLY G   1      23.621 -14.930  14.530  1.00 42.49 LIG 0.27  HD
ENDBRANCH 13 14
ENDBRANCH 1 13
TORSDOF 6
ENDMDL
MODEL 54
USER: ADFR SOLUTION from run 155
USER: SCORE 5.851351 LL:  -0.993 LR:  -4.868 RR:   0.000 FEB:  -3.078
USER: RMSD 3.510123
USER: SEED 154
USER: STATUS no improvement in best in 20 clusters for 5 generations
USER: GENES 8
USER: genes 0 Translation |==|  0.41652 0.41958 0.46351
USER: genes 1 Rotation |==|  0.13745 0.77960 0.66519 0.61444
USER: genes 2 Torsion [C]-N--CA-[C] |==|  0.77165
USER: genes 3 Torsion [N]-CA--C-[N] |==|  0.96793
USER: genes 4 Torsion [C]-N--CA-[C] |==|  0.60242
USER: genes 5 Torsion [N]-CA--C-[O] |==|  0.02081
USER: genes 6 Torsion [N]-C--CA-[N] |==|  0.84354
USER: genes 7 Torsion [C]-CA--N-[H2] |==|  0.77836
ROOT
ATOM      1  C   GLY G   1      24.416 -17.830  17.648  1.00 43.90 LIG 0.24  C 
ATOM      2 O    GLY G   1      24.379 -19.055  17.793  1.00 43.93 LIG-0.27  OA
ATOM      3  N   GLY G   2      24.590 -17.222  16.473  1.00 44.62 LIG-0.35  N 
ATOM      4 H    GLY G   2      24.759 -16.383  16.390  1.00 44.62 LIG 0.16  HD
ENDROOT
BRANCH 3 5
ATOM      5  CA  GLY G   2      24.509 -17.938  15.212  1.00 45.53 LIG 0.23  C 
BRANCH 5 6
ATOM      6  C   GLY G   2      25.777 -18.658  14.839  1.00 46.02 LIG 0.23  C 
ATOM      7 O    GLY G   2      25.784 -19.448  13.896  1.00 47.02 LIG-0.27  OA
ATOM      8  N   GLY G   3      26.854 -18.358  15.564  1.00 46.62 LIG-0.35  N 
ATOM      9 H    GLY G   3      26.856 -17.764  16.187  1.00 46.62 LIG 0.16  HD
BRANCH 8 10
ATOM     10  CA  GLY G   3      28.141 -19.017  15.368  1.00 46.72 LIG 0.21  C 
BRANCH 10 11
ATOM     11  C   GLY G   3      28.924 -19.268  16.646  1.00 46.79 LIG 0.21  C 
ATOM     12 O    GLY G   3      28.420 -19.054  17.745  1.00 46.39 LIG-0.29  OA
ENDBRANCH 10 11
ENDBRANCH 8 10
ENDBRANCH 5 6
ENDBRANCH 3 5
BRANCH 1 13
ATOM     13  CA  GLY G   1      24.245 -16.916  18.835  1.00 43.33 LIG 0.33  C 
BRANCH 13 14
ATOM     14  N   GLY G   1      25.414 -16.011  18.918  1.00 42.49 LIG-0.07  N 
ATOM     15 H2   GLY G   1      26.097 -16.441  19.292  1.00 42.49 LIG 0.27  HD
ATOM     16 H3   GLY G   1      25.642 -15.745  18.100  1.00 42.49 LIG 0.27  HD
ATOM     17 H1   GLY G   1      25.205 -15.301  19.413  1.00 42.49 LIG 0.27  HD
ENDBRANCH 13 14
ENDBRANCH 1 13
TORSDOF 6
ENDMDL
MODEL 55
USER: ADFR SOLUTION from run 67
USER: SCORE 5.809872 LL:  -1.036 LR:  -4.836 RR:   0.000 FEB:  -3.046
USER: RMSD 4.740789
USER: SEED 66
USER: STATUS no improvement in best in 25 clusters for 5 generations
USER: GENES 8
USER: genes 0 Translation |==|  0.46358 0.39863 0.53991
USER: genes 1 Rotation |==|  0.21915 0.73916 0.45870 0.83499
USER: genes 2 Torsion [C]-N--CA-[C] |==|  0.18812
USER: genes 3 Torsion [N]-CA--C-[N] |==|  0.04667
USER: genes 4 Torsion [C]-N--CA-[C] |==|  0.32753
USER: genes 5 Torsion [N]-CA--C-[O] |==|  0.00044
USER: genes 6 Torsion [N]-C--CA-[N] |==|  0.12844
USER: genes 7 Torsion [C]-CA--N-[H2] |==|  0.21173
ROOT
ATOM      1  C   GLY G   1      25.228 -18.097  18.737  1.00 43.90 LIG 0.24  C 
ATOM      2 O    GLY G   1      24.741 -19.055  18.131  1.00 43.93 LIG-0.27  OA
ATOM      3  N   GLY G   2      26.515 -17.752  18.676  1.00 44.62 LIG-0.35  N 
ATOM      4 H    GLY G   2      26.881 -17.179  19.204  1.00 44.62 LIG 0.16  HD
ENDROOT
BRANCH 3 5
ATOM      5  CA  GLY G   2      27.424 -18.321  17.697  1.00 45.53 LIG 0.23  C 
BRANCH 5 6
ATOM      6  C   GLY G   2      27.125 -17.912  16.280  1.00 46.02 LIG 0.23  C 
ATOM      7 O    GLY G   2      27.581 -18.561  15.341  1.00 47.02 LIG-0.27  OA
ATOM      8  N   GLY G   3      26.333 -16.850  16.134  1.00 46.62 LIG-0.35  N 
ATOM      9 H    GLY G   3      25.972 -16.432  16.794  1.00 46.62 LIG 0.16  HD
BRANCH 8 10
ATOM     10  CA  GLY G   3      26.002 -16.291  14.828  1.00 46.72 LIG 0.21  C 
BRANCH 10 11
ATOM     11  C   GLY G   3      24.524 -16.330  14.479  1.00 46.79 LIG 0.21  C 
ATOM     12 O    GLY G   3      23.705 -16.800  15.263  1.00 46.39 LIG-0.29  OA
ENDBRANCH 10 11
ENDBRANCH 8 10
ENDBRANCH 5 6
ENDBRANCH 3 5
BRANCH 1 13
ATOM     13  CA  GLY G   1      24.359 -17.221  19.603  1.00 43.33 LIG 0.33  C 
BRANCH 13 14
ATOM     14  N   GLY G   1      24.653 -15.802  19.301  1.00 42.49 LIG-0.07  N 
ATOM     15 H2   GLY G   1      24.270 -15.577  18.530  1.00 42.49 LIG 0.27  HD
ATOM     16 H3   GLY G   1      24.332 -15.288  19.952  1.00 42.49 LIG 0.27  HD
ATOM     17 H1   GLY G   1      25.533 -15.687  19.240  1.00 42.49 LIG 0.27  HD
ENDBRANCH 13 14
ENDBRANCH 1 13
TORSDOF 6
ENDMDL
MODEL 56
USER: ADFR SOLUTION from run 198
USER: SCORE 5.707610 LL:  -0.950 LR:  -4.835 RR:   0.000 FEB:  -3.045
USER: RMSD 3.896689
USER: SEED 197
USER: STATUS no improvement in best in 23 clusters for 5 generations
USER: GENES 8
USER: genes 0 Translation |==|  0.35106 0.50078 0.38916
USER: genes 1 Rotation |==|  0.63972 0.48749 0.79048 0.88203
USER: genes 2 Torsion [C]-N--CA-[C] |==|  0.71704
USER: genes 3 Torsion [N]-CA--C-[N] |==|  0.99196
USER: genes 4 Torsion [C]-N--CA-[C] |==|  0.64819
USER: genes 5 Torsion [N]-CA--C-[O] |==|  0.01219
USER: genes 6 Torsion [N]-C--CA-[N] |==|  0.80405
USER: genes 7 Torsion [C]-CA--N-[H2] |==|  0.92650
ROOT
ATOM      1  C   GLY G   1      23.287 -16.795  16.588  1.00 43.90 LIG 0.24  C 
ATOM      2 O    GLY G   1      22.905 -15.692  16.189  1.00 43.93 LIG-0.27  OA
ATOM      3  N   GLY G   2      24.123 -16.970  17.613  1.00 44.62 LIG-0.35  N 
ATOM      4 H    GLY G   2      24.500 -17.721  17.799  1.00 44.62 LIG 0.16  HD
ENDROOT
BRANCH 3 5
ATOM      5  CA  GLY G   2      24.476 -15.890  18.517  1.00 45.53 LIG 0.23  C 
BRANCH 5 6
ATOM      6  C   GLY G   2      25.830 -15.290  18.248  1.00 46.02 LIG 0.23  C 
ATOM      7 O    GLY G   2      26.235 -14.349  18.929  1.00 47.02 LIG-0.27  OA
ATOM      8  N   GLY G   3      26.538 -15.860  17.273  1.00 46.62 LIG-0.35  N 
ATOM      9 H    GLY G   3      26.273 -16.553  16.837  1.00 46.62 LIG 0.16  HD
BRANCH 8 10
ATOM     10  CA  GLY G   3      27.839 -15.355  16.850  1.00 46.72 LIG 0.21  C 
BRANCH 10 11
ATOM     11  C   GLY G   3      27.958 -15.080  15.360  1.00 46.79 LIG 0.21  C 
ATOM     12 O    GLY G   3      26.987 -15.204  14.619  1.00 46.39 LIG-0.29  OA
ENDBRANCH 10 11
ENDBRANCH 8 10
ENDBRANCH 5 6
ENDBRANCH 3 5
BRANCH 1 13
ATOM     13  CA  GLY G   1      22.799 -18.057  15.924  1.00 43.33 LIG 0.33  C 
BRANCH 13 14
ATOM     14  N   GLY G   1      23.920 -18.675  15.180  1.00 42.49 LIG-0.07  N 
ATOM     15 H2   GLY G   1      24.504 -18.045  14.947  1.00 42.49 LIG 0.27  HD
ATOM     16 H3   GLY G   1      24.323 -19.277  15.696  1.00 42.49 LIG 0.27  HD
ATOM     17 H1   GLY G   1      23.607 -19.074  14.448  1.00 42.49 LIG 0.27  HD
ENDBRANCH 13 14
ENDBRANCH 1 13
TORSDOF 6
ENDMDL
