MODEL 1
USER: ADFR SOLUTION from run 37
USER: SCORE 18.924798 LL:  -3.282 LR: -16.758 RR:   0.000 FEB:  -8.704
USER: RMSD 5.140322
USER: SEED 36
USER: STATUS no improvement in best in 8 clusters for 5 generations
USER: GENES 29
USER: genes 0 Translation |==|  0.46424 0.45872 0.46123
USER: genes 1 Rotation |==|  0.48372 0.40122 0.52307 0.98933
USER: genes 2 Torsion [N]-CA--C-[N] |==|  0.46053
USER: genes 3 Torsion [C]-N--CA-[CB] |==|  0.22202
USER: genes 4 Torsion [N]-CA--CB-[CG] |==|  0.14956
USER: genes 5 Torsion [CA]-CB--CG-[CD] |==|  0.38491
USER: genes 6 Torsion [CB]-CG--CD-[CE] |==|  0.87913
USER: genes 7 Torsion [CG]-CD--CE-[NZ] |==|  0.70535
USER: genes 8 Torsion [CD]-CE--NZ-[HZ3] |==|  0.88121
USER: genes 9 Torsion [N]-CA--C-[N] |==|  0.89862
USER: genes 10 Torsion [C]-N--CA-[C] |==|  0.22755
USER: genes 11 Torsion [N]-CA--C-[N] |==|  0.55900
USER: genes 12 Torsion [C]-N--CA-[CB] |==|  0.77426
USER: genes 13 Torsion [N]-CA--CB-[CG] |==|  0.51397
USER: genes 14 Torsion [CA]-CB--CG-[CD] |==|  0.13888
USER: genes 15 Torsion [CB]-CG--CD-[OE2] |==|  0.12846
USER: genes 16 Torsion [N]-CA--C-[O] |==|  0.29135
USER: genes 17 Torsion [C]-CA--CB-[OG] |==|  0.53642
USER: genes 18 Torsion [CA]-CB--OG-[HG] |==|  0.82266
USER: genes 19 Torsion [C]-CA--N-[C] |==|  0.80307
USER: genes 20 Torsion [N]-C--CA-[N] |==|  0.40270
USER: genes 21 Torsion [C]-CA--N-[C] |==|  0.70714
USER: genes 22 Torsion [N]-C--CA-[N] |==|  0.41492
USER: genes 23 Torsion [C]-CA--CB-[CG] |==|  0.53373
USER: genes 24 Torsion [CA]-CB--CG-[CD1] |==|  0.85550
USER: genes 25 Torsion [C]-CA--CB-[CG] |==|  0.38627
USER: genes 26 Torsion [CA]-CB--CG-[CD] |==|  0.00056
USER: genes 27 Torsion [CB]-CG--CD-[NE] |==|  0.28952
USER: genes 28 Torsion [CG]-CD--NE-[HE] |==|  0.06196
ROOT
ATOM      1  CA  SER D 109     -12.521  -4.214  13.260  1.00 42.91 LIG 0.20  C 
ENDROOT
BRANCH 1 2
ATOM      2  C   SER D 109     -13.661  -4.860  12.496  1.00 45.81 LIG 0.24  C 
ATOM      3 O    SER D 109     -14.589  -4.177  12.067  1.00 48.15 LIG-0.27  OA
ATOM      4  N   LYS D 110     -13.611  -6.178  12.338  1.00 56.31 LIG-0.35  N 
ATOM      5 H    LYS D 110     -13.049  -6.701  12.726  1.00 56.31 LIG 0.16  HD
BRANCH 4 6
ATOM      6  CA  LYS D 110     -14.569  -6.836  11.445  1.00 51.35 LIG 0.18  C 
BRANCH 6 7
ATOM      7  CB  LYS D 110     -14.108  -6.679   9.991  1.00 62.96 LIG 0.04  C 
BRANCH 7 8
ATOM      8  CG  LYS D 110     -12.680  -7.163   9.786  1.00 63.09 LIG 0.00  C 
BRANCH 8 9
ATOM      9  CD  LYS D 110     -12.502  -7.951   8.494  1.00 65.88 LIG 0.03  C 
BRANCH 9 10
ATOM     10  CE  LYS D 110     -13.664  -8.930   8.304  1.00 57.43 LIG 0.23  C 
BRANCH 10 11
ATOM     11  NZ  LYS D 110     -13.265 -10.338   8.565  1.00 66.24 LIG-0.08  N 
ATOM     12 HZ3  LYS D 110     -12.470 -10.495   8.196  1.00 66.24 LIG 0.27  HD
ATOM     13 HZ1  LYS D 110     -13.216 -10.475   9.443  1.00 66.24 LIG 0.27  HD
ATOM     14 HZ2  LYS D 110     -13.868 -10.889   8.212  1.00 66.24 LIG 0.27  HD
ENDBRANCH 10 11
ENDBRANCH 9 10
ENDBRANCH 8 9
ENDBRANCH 7 8
ENDBRANCH 6 7
BRANCH 6 15
ATOM     15  C   LYS D 110     -15.066  -8.278  11.731  1.00 56.31 LIG 0.24  C 
ATOM     16  N   GLY D 111     -14.233  -9.186  12.246  1.00 59.27 LIG-0.35  N 
ATOM     17 H    GLY D 111     -14.462 -10.009  12.346  1.00 59.27 LIG 0.16  HD
ATOM     18 O    LYS D 110     -16.241  -8.559  11.502  1.00 65.56 LIG-0.27  OA
BRANCH 16 19
ATOM     19  CA  GLY D 111     -12.880  -8.927  12.695  1.00 50.66 LIG 0.23  C 
BRANCH 19 20
ATOM     20  C   GLY D 111     -12.915  -8.350  14.104  1.00 62.91 LIG 0.23  C 
ATOM     21  N   GLU D 112     -11.859  -7.653  14.536  1.00 61.49 LIG-0.35  N 
ATOM     22 H    GLU D 112     -11.853  -7.252  15.297  1.00 61.49 LIG 0.16  HD
ATOM     23 O    GLY D 111     -13.903  -8.572  14.824  1.00 69.91 LIG-0.27  OA
BRANCH 21 24
ATOM     24  CA  GLU D 112     -10.604  -7.486  13.791  1.00 68.08 LIG 0.16  C 
BRANCH 24 25
ATOM     25  CB  GLU D 112      -9.699  -8.708  13.962  1.00 70.52 LIG 0.04  C 
BRANCH 25 26
ATOM     26  CG  GLU D 112      -8.336  -8.553  13.318  1.00 75.61 LIG 0.12  C 
BRANCH 26 27
ATOM     27  CD  GLU D 112      -7.655  -7.258  13.705  1.00 80.23 LIG 0.17  C 
ATOM     28 OE2  GLU D 112      -7.650  -6.923  14.911  1.00 75.53 LIG-0.65  OA
ATOM     29 OE1  GLU D 112      -7.120  -6.583  12.802  1.00 82.12 LIG-0.65  OA
ENDBRANCH 26 27
ENDBRANCH 25 26
ENDBRANCH 24 25
BRANCH 24 30
ATOM     30  C   GLU D 112     -10.726  -7.116  12.316  1.00 62.49 LIG 0.22  C 
ATOM     31 O    GLU D 112     -10.489  -5.966  11.937  1.00 75.48 LIG-0.29  OA
ENDBRANCH 24 30
ENDBRANCH 21 24
ENDBRANCH 19 20
ENDBRANCH 16 19
ENDBRANCH 6 15
ENDBRANCH 4 6
ENDBRANCH 1 2
BRANCH 1 32
ATOM     32  CB  SER D 109     -12.600  -4.594  14.733  1.00 41.32 LIG 0.20  C 
BRANCH 32 33
ATOM     33 OG   SER D 109     -11.741  -3.777  15.511  1.00 47.11 LIG-0.40  OA
ATOM     34 HG   SER D 109     -10.944  -3.913  15.284  1.00 47.11 LIG 0.21  HD
ENDBRANCH 32 33
ENDBRANCH 1 32
BRANCH 1 35
ATOM     35  N   SER D 109     -12.515  -2.753  13.077  1.00 33.49 LIG-0.34  N 
ATOM     36 H    SER D 109     -12.744  -2.299  13.770  1.00 33.49 LIG 0.16  HD
ATOM     37  C   ARG D 108     -12.171  -2.221  11.905  1.00 29.49 LIG 0.24  C 
ATOM     38 O    ARG D 108     -11.716  -2.885  10.970  1.00 22.63 LIG-0.27  OA
BRANCH 37 39
ATOM     39  CA  ARG D 108     -12.337  -0.723  11.763  1.00 38.27 LIG 0.18  C 
BRANCH 39 40
ATOM     40  N   ARG D 108     -11.284  -0.132  10.927  1.00 22.07 LIG-0.35  N 
ATOM     41 H    ARG D 108     -11.361  -0.275  10.083  1.00 22.07 LIG 0.16  HD
ATOM     42  C   PHE D 107     -10.314   0.560  11.495  1.00 20.48 LIG 0.26  C 
ATOM     43 O    PHE D 107     -10.299   0.784  12.694  1.00 25.48 LIG-0.27  OA
BRANCH 42 44
ATOM     44  CA  PHE D 107      -9.208   1.113  10.605  1.00 18.28 LIG 0.40  C 
ATOM     45  N   PHE D 107      -8.716   2.342  11.193  1.00 19.80 LIG 0.61  N 
BRANCH 44 46
ATOM     46  CB  PHE D 107      -8.071   0.125  10.448  1.00 13.52 LIG 0.09  C 
BRANCH 46 47
ATOM     47  CG  PHE D 107      -6.841   0.718   9.829  1.00 17.60 LIG-0.06  A 
ATOM     48  CD1 PHE D 107      -6.913   1.421   8.627  1.00 15.50 LIG 0.01  A 
ATOM     49  CE1 PHE D 107      -5.769   1.975   8.068  1.00 13.30 LIG 0.00  A 
ATOM     50  CZ  PHE D 107      -4.523   1.800   8.663  1.00 10.86 LIG 0.00  A 
ATOM     51  CE2 PHE D 107      -4.435   1.119   9.856  1.00 17.40 LIG 0.00  A 
ATOM     52  CD2 PHE D 107      -5.591   0.572  10.442  1.00 18.44 LIG 0.01  A 
ENDBRANCH 46 47
ENDBRANCH 44 46
ENDBRANCH 42 44
ENDBRANCH 39 40
BRANCH 39 53
ATOM     53  CB  ARG D 108     -13.742  -0.391  11.239  1.00 35.28 LIG 0.04  C 
BRANCH 53 54
ATOM     54  CG  ARG D 108     -14.434   0.802  11.873  1.00 41.69 LIG 0.02  C 
BRANCH 54 55
ATOM     55  CD  ARG D 108     -13.586   1.506  12.968  1.00 52.08 LIG 0.14  C 
BRANCH 55 56
ATOM     56  NE  ARG D 108     -12.975   2.776  12.560  1.00 57.02 LIG-0.23  N 
ATOM     57  CZ  ARG D 108     -11.904   3.325  13.144  1.00 70.73 LIG 0.67  C 
ATOM     58  NH1 ARG D 108     -11.324   2.734  14.191  1.00 60.72 LIG-0.23  N 
ATOM     59  NH2 ARG D 108     -11.412   4.479  12.691  1.00 54.42 LIG-0.23  N 
ATOM     60 2HH1 ARG D 108     -10.636   3.093  14.561  1.00 60.72 LIG 0.17  HD
ATOM     61 1HH1 ARG D 108     -11.640   1.993  14.496  1.00 60.72 LIG 0.17  HD
ATOM     62 2HH2 ARG D 108     -10.724   4.830  13.067  1.00 54.42 LIG 0.17  HD
ATOM     63 1HH2 ARG D 108     -11.784   4.872  12.022  1.00 54.42 LIG 0.17  HD
ATOM     64 HE   ARG D 108     -13.331   3.197  11.899  1.00 57.02 LIG 0.18  HD
ENDBRANCH 55 56
ENDBRANCH 54 55
ENDBRANCH 53 54
ENDBRANCH 39 53
ENDBRANCH 37 39
ENDBRANCH 1 35
TORSDOF 27
ENDMDL
MODEL 2
USER: ADFR SOLUTION from run 5
USER: SCORE 19.487910 LL:  -4.372 LR: -16.712 RR:   0.000 FEB:  -8.658
USER: RMSD 4.896691
USER: SEED 345184
USER: STATUS no improvement in best in 5 clusters for 5 generations
USER: GENES 29
USER: genes 0 Translation |==|  0.43290 0.46729 0.44315
USER: genes 1 Rotation |==|  0.48840 0.27945 0.52026 0.94812
USER: genes 2 Torsion [N]-CA--C-[N] |==|  0.35480
USER: genes 3 Torsion [C]-N--CA-[CB] |==|  0.50556
USER: genes 4 Torsion [N]-CA--CB-[CG] |==|  0.49560
USER: genes 5 Torsion [CA]-CB--CG-[CD] |==|  0.72426
USER: genes 6 Torsion [CB]-CG--CD-[CE] |==|  0.66164
USER: genes 7 Torsion [CG]-CD--CE-[NZ] |==|  0.34157
USER: genes 8 Torsion [CD]-CE--NZ-[HZ3] |==|  0.27555
USER: genes 9 Torsion [N]-CA--C-[N] |==|  0.81386
USER: genes 10 Torsion [C]-N--CA-[C] |==|  0.21714
USER: genes 11 Torsion [N]-CA--C-[N] |==|  0.59128
USER: genes 12 Torsion [C]-N--CA-[CB] |==|  0.43073
USER: genes 13 Torsion [N]-CA--CB-[CG] |==|  0.67813
USER: genes 14 Torsion [CA]-CB--CG-[CD] |==|  0.23150
USER: genes 15 Torsion [CB]-CG--CD-[OE2] |==|  0.16464
USER: genes 16 Torsion [N]-CA--C-[O] |==|  0.93652
USER: genes 17 Torsion [C]-CA--CB-[OG] |==|  0.84301
USER: genes 18 Torsion [CA]-CB--OG-[HG] |==|  0.25398
USER: genes 19 Torsion [C]-CA--N-[C] |==|  0.81024
USER: genes 20 Torsion [N]-C--CA-[N] |==|  0.46976
USER: genes 21 Torsion [C]-CA--N-[C] |==|  0.73910
USER: genes 22 Torsion [N]-C--CA-[N] |==|  0.36779
USER: genes 23 Torsion [C]-CA--CB-[CG] |==|  0.51783
USER: genes 24 Torsion [CA]-CB--CG-[CD1] |==|  0.89254
USER: genes 25 Torsion [C]-CA--CB-[CG] |==|  0.37920
USER: genes 26 Torsion [CA]-CB--CG-[CD] |==|  0.00488
USER: genes 27 Torsion [CB]-CG--CD-[NE] |==|  0.26936
USER: genes 28 Torsion [CG]-CD--NE-[HE] |==|  0.07958
ROOT
ATOM      1  CA  SER D 109     -13.226  -4.040  12.826  1.00 42.91 LIG 0.20  C 
ENDROOT
BRANCH 1 2
ATOM      2  C   SER D 109     -13.827  -4.662  11.580  1.00 45.81 LIG 0.24  C 
ATOM      3 O    SER D 109     -14.919  -4.283  11.159  1.00 48.15 LIG-0.27  OA
ATOM      4  N   LYS D 110     -13.132  -5.630  10.993  1.00 56.31 LIG-0.35  N 
ATOM      5 H    LYS D 110     -12.431  -6.004  11.322  1.00 56.31 LIG 0.16  HD
BRANCH 4 6
ATOM      6  CA  LYS D 110     -13.555  -6.132   9.681  1.00 51.35 LIG 0.18  C 
BRANCH 6 7
ATOM      7  CB  LYS D 110     -12.628  -7.271   9.243  1.00 62.96 LIG 0.04  C 
BRANCH 7 8
ATOM      8  CG  LYS D 110     -13.039  -7.863   7.903  1.00 63.09 LIG 0.00  C 
BRANCH 8 9
ATOM      9  CD  LYS D 110     -13.840  -9.151   8.045  1.00 65.88 LIG 0.03  C 
BRANCH 9 10
ATOM     10  CE  LYS D 110     -13.139 -10.297   7.310  1.00 57.43 LIG 0.23  C 
BRANCH 10 11
ATOM     11  NZ  LYS D 110     -12.841 -11.445   8.207  1.00 66.24 LIG-0.08  N 
ATOM     12 HZ3  LYS D 110     -13.462 -12.074   8.101  1.00 66.24 LIG 0.27  HD
ATOM     13 HZ1  LYS D 110     -12.042 -11.780   8.004  1.00 66.24 LIG 0.27  HD
ATOM     14 HZ2  LYS D 110     -12.840 -11.169   9.053  1.00 66.24 LIG 0.27  HD
ENDBRANCH 10 11
ENDBRANCH 9 10
ENDBRANCH 8 9
ENDBRANCH 7 8
ENDBRANCH 6 7
BRANCH 6 15
ATOM     15  C   LYS D 110     -15.043  -6.468   9.398  1.00 56.31 LIG 0.24  C 
ATOM     16  N   GLY D 111     -15.632  -7.490  10.025  1.00 59.27 LIG-0.35  N 
ATOM     17 H    GLY D 111     -16.431  -7.742   9.832  1.00 59.27 LIG 0.16  HD
ATOM     18 O    LYS D 110     -15.672  -5.764   8.611  1.00 65.56 LIG-0.27  OA
BRANCH 16 19
ATOM     19  CA  GLY D 111     -15.036  -8.287  11.077  1.00 50.66 LIG 0.23  C 
BRANCH 19 20
ATOM     20  C   GLY D 111     -15.095  -7.518  12.390  1.00 62.91 LIG 0.23  C 
ATOM     21  N   GLU D 112     -14.107  -7.687  13.276  1.00 61.49 LIG-0.35  N 
ATOM     22 H    GLU D 112     -14.057  -7.230  14.003  1.00 61.49 LIG 0.16  HD
ATOM     23 O    GLY D 111     -16.071  -6.786  12.619  1.00 69.91 LIG-0.27  OA
BRANCH 21 24
ATOM     24  CA  GLU D 112     -13.007  -8.650  13.129  1.00 68.08 LIG 0.16  C 
BRANCH 24 25
ATOM     25  CB  GLU D 112     -11.777  -8.201  13.923  1.00 70.52 LIG 0.04  C 
BRANCH 25 26
ATOM     26  CG  GLU D 112     -10.573  -7.889  13.059  1.00 75.61 LIG 0.12  C 
BRANCH 26 27
ATOM     27  CD  GLU D 112     -10.612  -6.485  12.493  1.00 80.23 LIG 0.17  C 
ATOM     28 OE2  GLU D 112     -10.655  -5.522  13.290  1.00 75.53 LIG-0.65  OA
ATOM     29 OE1  GLU D 112     -10.591  -6.351  11.253  1.00 82.12 LIG-0.65  OA
ENDBRANCH 26 27
ENDBRANCH 25 26
ENDBRANCH 24 25
BRANCH 24 30
ATOM     30  C   GLU D 112     -13.328 -10.111  13.427  1.00 62.49 LIG 0.22  C 
ATOM     31 O    GLU D 112     -14.283 -10.407  14.151  1.00 75.48 LIG-0.29  OA
ENDBRANCH 24 30
ENDBRANCH 21 24
ENDBRANCH 19 20
ENDBRANCH 16 19
ENDBRANCH 6 15
ENDBRANCH 4 6
ENDBRANCH 1 2
BRANCH 1 32
ATOM     32  CB  SER D 109     -14.010  -4.480  14.056  1.00 41.32 LIG 0.20  C 
BRANCH 32 33
ATOM     33 OG   SER D 109     -15.382  -4.147  13.924  1.00 47.11 LIG-0.40  OA
ATOM     34 HG   SER D 109     -15.794  -4.791  13.577  1.00 47.11 LIG 0.21  HD
ENDBRANCH 32 33
ENDBRANCH 1 32
BRANCH 1 35
ATOM     35  N   SER D 109     -13.168  -2.573  12.717  1.00 33.49 LIG-0.34  N 
ATOM     36 H    SER D 109     -13.695  -2.149  13.246  1.00 33.49 LIG 0.16  HD
ATOM     37  C   ARG D 108     -12.342  -1.993  11.846  1.00 29.49 LIG 0.24  C 
ATOM     38 O    ARG D 108     -11.500  -2.618  11.196  1.00 22.63 LIG-0.27  OA
BRANCH 37 39
ATOM     39  CA  ARG D 108     -12.457  -0.491  11.698  1.00 38.27 LIG 0.18  C 
BRANCH 39 40
ATOM     40  N   ARG D 108     -11.345   0.068  10.918  1.00 22.07 LIG-0.35  N 
ATOM     41 H    ARG D 108     -11.455   0.064  10.065  1.00 22.07 LIG 0.16  HD
ATOM     42  C   PHE D 107     -10.278   0.529  11.544  1.00 20.48 LIG 0.26  C 
ATOM     43 O    PHE D 107     -10.212   0.567  12.762  1.00 25.48 LIG-0.27  OA
BRANCH 42 44
ATOM     44  CA  PHE D 107      -9.119   1.052  10.704  1.00 18.28 LIG 0.40  C 
ATOM     45  N   PHE D 107      -8.708   2.334  11.237  1.00 19.80 LIG 0.61  N 
BRANCH 44 46
ATOM     46  CB  PHE D 107      -7.949   0.091  10.708  1.00 13.52 LIG 0.09  C 
BRANCH 46 47
ATOM     47  CG  PHE D 107      -6.729   0.628  10.021  1.00 17.60 LIG-0.06  A 
ATOM     48  CD1 PHE D 107      -6.840   1.387   8.857  1.00 15.50 LIG 0.01  A 
ATOM     49  CE1 PHE D 107      -5.704   1.890   8.235  1.00 13.30 LIG 0.00  A 
ATOM     50  CZ  PHE D 107      -4.433   1.606   8.727  1.00 10.86 LIG 0.00  A 
ATOM     51  CE2 PHE D 107      -4.306   0.868   9.882  1.00 17.40 LIG 0.00  A 
ATOM     52  CD2 PHE D 107      -5.451   0.373  10.532  1.00 18.44 LIG 0.01  A 
ENDBRANCH 46 47
ENDBRANCH 44 46
ENDBRANCH 42 44
ENDBRANCH 39 40
BRANCH 39 53
ATOM     53  CB  ARG D 108     -13.822  -0.119  11.101  1.00 35.28 LIG 0.04  C 
BRANCH 53 54
ATOM     54  CG  ARG D 108     -14.539   1.057  11.739  1.00 41.69 LIG 0.02  C 
BRANCH 54 55
ATOM     55  CD  ARG D 108     -13.735   1.730  12.887  1.00 52.08 LIG 0.14  C 
BRANCH 55 56
ATOM     56  NE  ARG D 108     -12.972   2.919  12.497  1.00 57.02 LIG-0.23  N 
ATOM     57  CZ  ARG D 108     -11.843   3.325  13.092  1.00 70.73 LIG 0.67  C 
ATOM     58  NH1 ARG D 108     -11.346   2.655  14.133  1.00 60.72 LIG-0.23  N 
ATOM     59  NH2 ARG D 108     -11.211   4.416  12.654  1.00 54.42 LIG-0.23  N 
ATOM     60 2HH1 ARG D 108     -10.621   2.922  14.510  1.00 60.72 LIG 0.17  HD
ATOM     61 1HH1 ARG D 108     -11.752   1.956  14.427  1.00 60.72 LIG 0.17  HD
ATOM     62 2HH2 ARG D 108     -10.487   4.675  13.037  1.00 54.42 LIG 0.17  HD
ATOM     63 1HH2 ARG D 108     -11.529   4.859  11.989  1.00 54.42 LIG 0.17  HD
ATOM     64 HE   ARG D 108     -13.269   3.389  11.841  1.00 57.02 LIG 0.18  HD
ENDBRANCH 55 56
ENDBRANCH 54 55
ENDBRANCH 53 54
ENDBRANCH 39 53
ENDBRANCH 37 39
ENDBRANCH 1 35
TORSDOF 27
ENDMDL
MODEL 3
USER: ADFR SOLUTION from run 11
USER: SCORE 18.909924 LL:  -4.076 LR: -16.695 RR:   0.000 FEB:  -8.641
USER: RMSD 4.726413
USER: SEED 375639
USER: STATUS no improvement in best in 4 clusters for 5 generations
USER: GENES 29
USER: genes 0 Translation |==|  0.41936 0.47258 0.46229
USER: genes 1 Rotation |==|  0.40241 0.31045 0.57056 0.94673
USER: genes 2 Torsion [N]-CA--C-[N] |==|  0.24811
USER: genes 3 Torsion [C]-N--CA-[CB] |==|  0.43030
USER: genes 4 Torsion [N]-CA--CB-[CG] |==|  0.51396
USER: genes 5 Torsion [CA]-CB--CG-[CD] |==|  0.64612
USER: genes 6 Torsion [CB]-CG--CD-[CE] |==|  0.37098
USER: genes 7 Torsion [CG]-CD--CE-[NZ] |==|  0.65748
USER: genes 8 Torsion [CD]-CE--NZ-[HZ3] |==|  0.17947
USER: genes 9 Torsion [N]-CA--C-[N] |==|  0.86671
USER: genes 10 Torsion [C]-N--CA-[C] |==|  0.25675
USER: genes 11 Torsion [N]-CA--C-[N] |==|  0.56211
USER: genes 12 Torsion [C]-N--CA-[CB] |==|  0.83894
USER: genes 13 Torsion [N]-CA--CB-[CG] |==|  0.52816
USER: genes 14 Torsion [CA]-CB--CG-[CD] |==|  0.13109
USER: genes 15 Torsion [CB]-CG--CD-[OE2] |==|  0.60125
USER: genes 16 Torsion [N]-CA--C-[O] |==|  0.73789
USER: genes 17 Torsion [C]-CA--CB-[OG] |==|  0.77936
USER: genes 18 Torsion [CA]-CB--OG-[HG] |==|  0.20360
USER: genes 19 Torsion [C]-CA--N-[C] |==|  0.74691
USER: genes 20 Torsion [N]-C--CA-[N] |==|  0.42186
USER: genes 21 Torsion [C]-CA--N-[C] |==|  0.66446
USER: genes 22 Torsion [N]-C--CA-[N] |==|  0.55295
USER: genes 23 Torsion [C]-CA--CB-[CG] |==|  0.45773
USER: genes 24 Torsion [CA]-CB--CG-[CD1] |==|  0.87442
USER: genes 25 Torsion [C]-CA--CB-[CG] |==|  0.00597
USER: genes 26 Torsion [CA]-CB--CG-[CD] |==|  0.45759
USER: genes 27 Torsion [CB]-CG--CD-[NE] |==|  0.11592
USER: genes 28 Torsion [CG]-CD--NE-[HE] |==|  0.91122
ROOT
ATOM      1  CA  SER D 109     -13.530  -3.933  13.285  1.00 42.91 LIG 0.20  C 
ENDROOT
BRANCH 1 2
ATOM      2  C   SER D 109     -14.215  -4.999  12.451  1.00 45.81 LIG 0.24  C 
ATOM      3 O    SER D 109     -15.415  -5.228  12.595  1.00 48.15 LIG-0.27  OA
ATOM      4  N   LYS D 110     -13.458  -5.670  11.590  1.00 56.31 LIG-0.35  N 
ATOM      5 H    LYS D 110     -12.600  -5.626  11.548  1.00 56.31 LIG 0.16  HD
BRANCH 4 6
ATOM      6  CA  LYS D 110     -14.090  -6.568  10.617  1.00 51.35 LIG 0.18  C 
BRANCH 6 7
ATOM      7  CB  LYS D 110     -13.178  -6.725   9.395  1.00 62.96 LIG 0.04  C 
BRANCH 7 8
ATOM      8  CG  LYS D 110     -13.831  -7.548   8.294  1.00 63.09 LIG 0.00  C 
BRANCH 8 9
ATOM      9  CD  LYS D 110     -12.958  -8.704   7.823  1.00 65.88 LIG 0.03  C 
BRANCH 9 10
ATOM     10  CE  LYS D 110     -13.784  -9.990   7.729  1.00 57.43 LIG 0.23  C 
BRANCH 10 11
ATOM     11  NZ  LYS D 110     -13.216 -11.088   8.554  1.00 66.24 LIG-0.08  N 
ATOM     12 HZ3  LYS D 110     -13.255 -10.865   9.415  1.00 66.24 LIG 0.27  HD
ATOM     13 HZ1  LYS D 110     -13.684 -11.833   8.420  1.00 66.24 LIG 0.27  HD
ATOM     14 HZ2  LYS D 110     -12.367 -11.226   8.323  1.00 66.24 LIG 0.27  HD
ENDBRANCH 10 11
ENDBRANCH 9 10
ENDBRANCH 8 9
ENDBRANCH 7 8
ENDBRANCH 6 7
BRANCH 6 15
ATOM     15  C   LYS D 110     -14.688  -7.930  11.060  1.00 56.31 LIG 0.24  C 
ATOM     16  N   GLY D 111     -13.981  -8.752  11.838  1.00 59.27 LIG-0.35  N 
ATOM     17 H    GLY D 111     -14.258  -9.541  12.037  1.00 59.27 LIG 0.16  HD
ATOM     18 O    LYS D 110     -15.828  -8.222  10.704  1.00 65.56 LIG-0.27  OA
BRANCH 16 19
ATOM     19  CA  GLY D 111     -12.697  -8.447  12.438  1.00 50.66 LIG 0.23  C 
BRANCH 19 20
ATOM     20  C   GLY D 111     -12.913  -7.872  13.831  1.00 62.91 LIG 0.23  C 
ATOM     21  N   GLU D 112     -11.947  -7.121  14.370  1.00 61.49 LIG-0.35  N 
ATOM     22 H    GLU D 112     -12.043  -6.719  15.124  1.00 61.49 LIG 0.16  HD
ATOM     23 O    GLY D 111     -13.960  -8.144  14.443  1.00 69.91 LIG-0.27  OA
BRANCH 21 24
ATOM     24  CA  GLU D 112     -10.630  -6.889  13.762  1.00 68.08 LIG 0.16  C 
BRANCH 24 25
ATOM     25  CB  GLU D 112      -9.897  -8.211  13.521  1.00 70.52 LIG 0.04  C 
BRANCH 25 26
ATOM     26  CG  GLU D 112      -8.445  -8.041  13.125  1.00 75.61 LIG 0.12  C 
BRANCH 26 27
ATOM     27  CD  GLU D 112      -7.711  -7.062  14.015  1.00 80.23 LIG 0.17  C 
ATOM     28 OE2  GLU D 112      -6.848  -6.317  13.499  1.00 75.53 LIG-0.65  OA
ATOM     29 OE1  GLU D 112      -8.006  -7.034  15.227  1.00 82.12 LIG-0.65  OA
ENDBRANCH 26 27
ENDBRANCH 25 26
ENDBRANCH 24 25
BRANCH 24 30
ATOM     30  C   GLU D 112     -10.596  -6.026  12.505  1.00 62.49 LIG 0.22  C 
ATOM     31 O    GLU D 112     -10.625  -6.546  11.386  1.00 75.48 LIG-0.29  OA
ENDBRANCH 24 30
ENDBRANCH 21 24
ENDBRANCH 19 20
ENDBRANCH 16 19
ENDBRANCH 6 15
ENDBRANCH 4 6
ENDBRANCH 1 2
BRANCH 1 32
ATOM     32  CB  SER D 109     -14.177  -3.856  14.662  1.00 41.32 LIG 0.20  C 
BRANCH 32 33
ATOM     33 OG   SER D 109     -15.387  -3.119  14.610  1.00 47.11 LIG-0.40  OA
ATOM     34 HG   SER D 109     -15.980  -3.579  14.232  1.00 47.11 LIG 0.21  HD
ENDBRANCH 32 33
ENDBRANCH 1 32
BRANCH 1 35
ATOM     35  N   SER D 109     -13.549  -2.628  12.604  1.00 33.49 LIG-0.34  N 
ATOM     36 H    SER D 109     -14.240  -2.143  12.767  1.00 33.49 LIG 0.16  HD
ATOM     37  C   ARG D 108     -12.545  -2.269  11.805  1.00 29.49 LIG 0.24  C 
ATOM     38 O    ARG D 108     -11.504  -2.921  11.696  1.00 22.63 LIG-0.27  OA
BRANCH 37 39
ATOM     39  CA  ARG D 108     -12.719  -0.979  11.033  1.00 38.27 LIG 0.18  C 
BRANCH 39 40
ATOM     40  N   ARG D 108     -11.430  -0.339  10.739  1.00 22.07 LIG-0.35  N 
ATOM     41 H    ARG D 108     -10.880  -0.813  10.278  1.00 22.07 LIG 0.16  HD
ATOM     42  C   PHE D 107     -11.194   0.882  11.182  1.00 20.48 LIG 0.26  C 
ATOM     43 O    PHE D 107     -12.042   1.528  11.774  1.00 25.48 LIG-0.27  OA
BRANCH 42 44
ATOM     44  CA  PHE D 107      -9.826   1.496  10.907  1.00 18.28 LIG 0.40  C 
ATOM     45  N   PHE D 107      -9.622   2.594  11.829  1.00 19.80 LIG 0.61  N 
BRANCH 44 46
ATOM     46  CB  PHE D 107      -8.716   0.478  11.062  1.00 13.52 LIG 0.09  C 
BRANCH 46 47
ATOM     47  CG  PHE D 107      -7.413   0.915  10.463  1.00 17.60 LIG-0.06  A 
ATOM     48  CD1 PHE D 107      -7.367   1.496   9.197  1.00 15.50 LIG 0.01  A 
ATOM     49  CE1 PHE D 107      -6.155   1.907   8.656  1.00 13.30 LIG 0.00  A 
ATOM     50  CZ  PHE D 107      -4.960   1.703   9.340  1.00 10.86 LIG 0.00  A 
ATOM     51  CE2 PHE D 107      -4.988   1.143  10.596  1.00 17.40 LIG 0.00  A 
ATOM     52  CD2 PHE D 107      -6.212   0.742  11.162  1.00 18.44 LIG 0.01  A 
ENDBRANCH 46 47
ENDBRANCH 44 46
ENDBRANCH 42 44
ENDBRANCH 39 40
BRANCH 39 53
ATOM     53  CB  ARG D 108     -13.540  -1.229   9.760  1.00 35.28 LIG 0.04  C 
BRANCH 53 54
ATOM     54  CG  ARG D 108     -14.046  -2.645   9.550  1.00 41.69 LIG 0.02  C 
BRANCH 54 55
ATOM     55  CD  ARG D 108     -15.161  -2.757   8.474  1.00 52.08 LIG 0.14  C 
BRANCH 55 56
ATOM     56  NE  ARG D 108     -14.944  -1.950   7.268  1.00 57.02 LIG-0.23  N 
ATOM     57  CZ  ARG D 108     -15.354  -2.294   6.041  1.00 70.73 LIG 0.67  C 
ATOM     58  NH1 ARG D 108     -15.985  -3.452   5.837  1.00 60.72 LIG-0.23  N 
ATOM     59  NH2 ARG D 108     -15.121  -1.485   5.006  1.00 54.42 LIG-0.23  N 
ATOM     60 2HH1 ARG D 108     -16.244  -3.666   5.045  1.00 60.72 LIG 0.17  HD
ATOM     61 1HH1 ARG D 108     -16.132  -3.984   6.496  1.00 60.72 LIG 0.17  HD
ATOM     62 2HH2 ARG D 108     -15.384  -1.707   4.219  1.00 54.42 LIG 0.17  HD
ATOM     63 1HH2 ARG D 108     -14.707  -0.741   5.128  1.00 54.42 LIG 0.17  HD
ATOM     64 HE   ARG D 108     -14.524  -1.204   7.355  1.00 57.02 LIG 0.18  HD
ENDBRANCH 55 56
ENDBRANCH 54 55
ENDBRANCH 53 54
ENDBRANCH 39 53
ENDBRANCH 37 39
ENDBRANCH 1 35
TORSDOF 27
ENDMDL
MODEL 4
USER: ADFR SOLUTION from run 149
USER: SCORE 19.401397 LL:  -3.936 LR: -16.610 RR:   0.000 FEB:  -8.556
USER: RMSD 4.794442
USER: SEED 148
USER: STATUS 1 or 2 clusters left
USER: GENES 29
USER: genes 0 Translation |==|  0.40172 0.48165 0.45994
USER: genes 1 Rotation |==|  0.39200 0.26745 0.57247 0.92309
USER: genes 2 Torsion [N]-CA--C-[N] |==|  0.45230
USER: genes 3 Torsion [C]-N--CA-[CB] |==|  0.18113
USER: genes 4 Torsion [N]-CA--CB-[CG] |==|  0.61682
USER: genes 5 Torsion [CA]-CB--CG-[CD] |==|  0.61896
USER: genes 6 Torsion [CB]-CG--CD-[CE] |==|  0.32974
USER: genes 7 Torsion [CG]-CD--CE-[NZ] |==|  0.65435
USER: genes 8 Torsion [CD]-CE--NZ-[HZ3] |==|  0.85724
USER: genes 9 Torsion [N]-CA--C-[N] |==|  0.81131
USER: genes 10 Torsion [C]-N--CA-[C] |==|  0.23352
USER: genes 11 Torsion [N]-CA--C-[N] |==|  0.58409
USER: genes 12 Torsion [C]-N--CA-[CB] |==|  0.83454
USER: genes 13 Torsion [N]-CA--CB-[CG] |==|  0.62023
USER: genes 14 Torsion [CA]-CB--CG-[CD] |==|  0.20325
USER: genes 15 Torsion [CB]-CG--CD-[OE2] |==|  0.43172
USER: genes 16 Torsion [N]-CA--C-[O] |==|  0.65239
USER: genes 17 Torsion [C]-CA--CB-[OG] |==|  0.67634
USER: genes 18 Torsion [CA]-CB--OG-[HG] |==|  0.35047
USER: genes 19 Torsion [C]-CA--N-[C] |==|  0.79012
USER: genes 20 Torsion [N]-C--CA-[N] |==|  0.40003
USER: genes 21 Torsion [C]-CA--N-[C] |==|  0.66471
USER: genes 22 Torsion [N]-C--CA-[N] |==|  0.56337
USER: genes 23 Torsion [C]-CA--CB-[CG] |==|  0.44967
USER: genes 24 Torsion [CA]-CB--CG-[CD1] |==|  0.89209
USER: genes 25 Torsion [C]-CA--CB-[CG] |==|  0.19735
USER: genes 26 Torsion [CA]-CB--CG-[CD] |==|  0.25019
USER: genes 27 Torsion [CB]-CG--CD-[NE] |==|  0.89640
USER: genes 28 Torsion [CG]-CD--NE-[HE] |==|  0.13265
ROOT
ATOM      1  CA  SER D 109     -13.927  -3.750  13.229  1.00 42.91 LIG 0.20  C 
ENDROOT
BRANCH 1 2
ATOM      2  C   SER D 109     -14.400  -4.868  12.320  1.00 45.81 LIG 0.24  C 
ATOM      3 O    SER D 109     -14.979  -4.611  11.265  1.00 48.15 LIG-0.27  OA
ATOM      4  N   LYS D 110     -14.177  -6.112  12.727  1.00 56.31 LIG-0.35  N 
ATOM      5 H    LYS D 110     -13.889  -6.332  13.507  1.00 56.31 LIG 0.16  HD
BRANCH 4 6
ATOM      6  CA  LYS D 110     -14.425  -7.229  11.810  1.00 51.35 LIG 0.18  C 
BRANCH 6 7
ATOM      7  CB  LYS D 110     -13.453  -7.150  10.628  1.00 62.96 LIG 0.04  C 
BRANCH 7 8
ATOM      8  CG  LYS D 110     -14.135  -7.458   9.303  1.00 63.09 LIG 0.00  C 
BRANCH 8 9
ATOM      9  CD  LYS D 110     -13.299  -8.361   8.403  1.00 65.88 LIG 0.03  C 
BRANCH 9 10
ATOM     10  CE  LYS D 110     -14.045  -9.669   8.124  1.00 57.43 LIG 0.23  C 
BRANCH 10 11
ATOM     11  NZ  LYS D 110     -13.246 -10.866   8.499  1.00 66.24 LIG-0.08  N 
ATOM     12 HZ3  LYS D 110     -12.438 -10.812   8.129  1.00 66.24 LIG 0.27  HD
ATOM     13 HZ1  LYS D 110     -13.164 -10.902   9.385  1.00 66.24 LIG 0.27  HD
ATOM     14 HZ2  LYS D 110     -13.656 -11.601   8.209  1.00 66.24 LIG 0.27  HD
ENDBRANCH 10 11
ENDBRANCH 9 10
ENDBRANCH 8 9
ENDBRANCH 7 8
ENDBRANCH 6 7
BRANCH 6 15
ATOM     15  C   LYS D 110     -14.559  -8.681  12.341  1.00 56.31 LIG 0.24  C 
ATOM     16  N   GLY D 111     -13.499  -9.307  12.860  1.00 59.27 LIG-0.35  N 
ATOM     17 H    GLY D 111     -13.528 -10.134  13.092  1.00 59.27 LIG 0.16  HD
ATOM     18 O    LYS D 110     -15.658  -9.231  12.300  1.00 65.56 LIG-0.27  OA
BRANCH 16 19
ATOM     19  CA  GLY D 111     -12.201  -8.709  13.096  1.00 50.66 LIG 0.23  C 
BRANCH 19 20
ATOM     20  C   GLY D 111     -12.214  -7.987  14.437  1.00 62.91 LIG 0.23  C 
ATOM     21  N   GLU D 112     -11.433  -6.913  14.593  1.00 61.49 LIG-0.35  N 
ATOM     22 H    GLU D 112     -11.449  -6.432  15.306  1.00 61.49 LIG 0.16  HD
ATOM     23 O    GLY D 111     -12.917  -8.434  15.359  1.00 69.91 LIG-0.27  OA
BRANCH 21 24
ATOM     24  CA  GLU D 112     -10.469  -6.427  13.597  1.00 68.08 LIG 0.16  C 
BRANCH 24 25
ATOM     25  CB  GLU D 112      -9.420  -7.496  13.282  1.00 70.52 LIG 0.04  C 
BRANCH 25 26
ATOM     26  CG  GLU D 112      -8.006  -6.959  13.200  1.00 75.61 LIG 0.12  C 
BRANCH 26 27
ATOM     27  CD  GLU D 112      -7.438  -6.607  14.558  1.00 80.23 LIG 0.17  C 
ATOM     28 OE2  GLU D 112      -6.195  -6.605  14.703  1.00 75.53 LIG-0.65  OA
ATOM     29 OE1  GLU D 112      -8.237  -6.324  15.473  1.00 82.12 LIG-0.65  OA
ENDBRANCH 26 27
ENDBRANCH 25 26
ENDBRANCH 24 25
BRANCH 24 30
ATOM     30  C   GLU D 112     -11.046  -5.853  12.307  1.00 62.49 LIG 0.22  C 
ATOM     31 O    GLU D 112     -10.694  -6.296  11.210  1.00 75.48 LIG-0.29  OA
ENDBRANCH 24 30
ENDBRANCH 21 24
ENDBRANCH 19 20
ENDBRANCH 16 19
ENDBRANCH 6 15
ENDBRANCH 4 6
ENDBRANCH 1 2
BRANCH 1 32
ATOM     32  CB  SER D 109     -14.831  -3.657  14.452  1.00 41.32 LIG 0.20  C 
BRANCH 32 33
ATOM     33 OG   SER D 109     -15.506  -2.411  14.486  1.00 47.11 LIG-0.40  OA
ATOM     34 HG   SER D 109     -16.333  -2.542  14.553  1.00 47.11 LIG 0.21  HD
ENDBRANCH 32 33
ENDBRANCH 1 32
BRANCH 1 35
ATOM     35  N   SER D 109     -13.859  -2.468  12.508  1.00 33.49 LIG-0.34  N 
ATOM     36 H    SER D 109     -14.495  -1.917  12.685  1.00 33.49 LIG 0.16  HD
ATOM     37  C   ARG D 108     -12.864  -2.224  11.655  1.00 29.49 LIG 0.24  C 
ATOM     38 O    ARG D 108     -11.892  -2.973  11.523  1.00 22.63 LIG-0.27  OA
BRANCH 37 39
ATOM     39  CA  ARG D 108     -12.955  -0.946  10.851  1.00 38.27 LIG 0.18  C 
BRANCH 39 40
ATOM     40  N   ARG D 108     -11.636  -0.337  10.640  1.00 22.07 LIG-0.35  N 
ATOM     41 H    ARG D 108     -11.064  -0.829  10.227  1.00 22.07 LIG 0.16  HD
ATOM     42  C   PHE D 107     -11.406   0.887  11.079  1.00 20.48 LIG 0.26  C 
ATOM     43 O    PHE D 107     -12.281   1.560  11.599  1.00 25.48 LIG-0.27  OA
BRANCH 42 44
ATOM     44  CA  PHE D 107     -10.010   1.469  10.893  1.00 18.28 LIG 0.40  C 
ATOM     45  N   PHE D 107      -9.817   2.520  11.870  1.00 19.80 LIG 0.61  N 
BRANCH 44 46
ATOM     46  CB  PHE D 107      -8.939   0.411  11.053  1.00 13.52 LIG 0.09  C 
BRANCH 46 47
ATOM     47  CG  PHE D 107      -7.614   0.806  10.472  1.00 17.60 LIG-0.06  A 
ATOM     48  CD1 PHE D 107      -7.542   1.510   9.271  1.00 15.50 LIG 0.01  A 
ATOM     49  CE1 PHE D 107      -6.310   1.880   8.746  1.00 13.30 LIG 0.00  A 
ATOM     50  CZ  PHE D 107      -5.124   1.514   9.377  1.00 10.86 LIG 0.00  A 
ATOM     51  CE2 PHE D 107      -5.177   0.829  10.569  1.00 17.40 LIG 0.00  A 
ATOM     52  CD2 PHE D 107      -6.420   0.468  11.120  1.00 18.44 LIG 0.01  A 
ENDBRANCH 46 47
ENDBRANCH 44 46
ENDBRANCH 42 44
ENDBRANCH 39 40
BRANCH 39 53
ATOM     53  CB  ARG D 108     -13.688  -1.203   9.526  1.00 35.28 LIG 0.04  C 
BRANCH 53 54
ATOM     54  CG  ARG D 108     -15.181  -1.465   9.621  1.00 41.69 LIG 0.02  C 
BRANCH 54 55
ATOM     55  CD  ARG D 108     -16.047  -0.178   9.527  1.00 52.08 LIG 0.14  C 
BRANCH 55 56
ATOM     56  NE  ARG D 108     -15.481   1.002  10.189  1.00 57.02 LIG-0.23  N 
ATOM     57  CZ  ARG D 108     -16.160   1.805  11.017  1.00 70.73 LIG 0.67  C 
ATOM     58  NH1 ARG D 108     -17.450   1.581  11.275  1.00 60.72 LIG-0.23  N 
ATOM     59  NH2 ARG D 108     -15.552   2.849  11.584  1.00 54.42 LIG-0.23  N 
ATOM     60 2HH1 ARG D 108     -17.879   2.102  11.807  1.00 60.72 LIG 0.17  HD
ATOM     61 1HH1 ARG D 108     -17.852   0.915  10.907  1.00 60.72 LIG 0.17  HD
ATOM     62 2HH2 ARG D 108     -15.989   3.365  12.115  1.00 54.42 LIG 0.17  HD
ATOM     63 1HH2 ARG D 108     -14.723   3.007  11.417  1.00 54.42 LIG 0.17  HD
ATOM     64 HE   ARG D 108     -14.657   1.191  10.035  1.00 57.02 LIG 0.18  HD
ENDBRANCH 55 56
ENDBRANCH 54 55
ENDBRANCH 53 54
ENDBRANCH 39 53
ENDBRANCH 37 39
ENDBRANCH 1 35
TORSDOF 27
ENDMDL
MODEL 5
USER: ADFR SOLUTION from run 11
USER: SCORE 20.094324 LL:  -5.243 LR: -16.434 RR:   0.000 FEB:  -8.380
USER: RMSD 4.650654
USER: SEED 375639
USER: STATUS no improvement in best in 4 clusters for 5 generations
USER: GENES 29
USER: genes 0 Translation |==|  0.40368 0.47984 0.43459
USER: genes 1 Rotation |==|  0.43013 0.30734 0.53636 0.95462
USER: genes 2 Torsion [N]-CA--C-[N] |==|  0.27007
USER: genes 3 Torsion [C]-N--CA-[CB] |==|  0.51893
USER: genes 4 Torsion [N]-CA--CB-[CG] |==|  0.47497
USER: genes 5 Torsion [CA]-CB--CG-[CD] |==|  0.54637
USER: genes 6 Torsion [CB]-CG--CD-[CE] |==|  0.34486
USER: genes 7 Torsion [CG]-CD--CE-[NZ] |==|  0.65702
USER: genes 8 Torsion [CD]-CE--NZ-[HZ3] |==|  0.20443
USER: genes 9 Torsion [N]-CA--C-[N] |==|  0.86670
USER: genes 10 Torsion [C]-N--CA-[C] |==|  0.74575
USER: genes 11 Torsion [N]-CA--C-[N] |==|  0.50052
USER: genes 12 Torsion [C]-N--CA-[CB] |==|  0.81224
USER: genes 13 Torsion [N]-CA--CB-[CG] |==|  0.85524
USER: genes 14 Torsion [CA]-CB--CG-[CD] |==|  0.42424
USER: genes 15 Torsion [CB]-CG--CD-[OE2] |==|  0.64898
USER: genes 16 Torsion [N]-CA--C-[O] |==|  0.64896
USER: genes 17 Torsion [C]-CA--CB-[OG] |==|  0.79654
USER: genes 18 Torsion [CA]-CB--OG-[HG] |==|  0.15015
USER: genes 19 Torsion [C]-CA--N-[C] |==|  0.74033
USER: genes 20 Torsion [N]-C--CA-[N] |==|  0.42145
USER: genes 21 Torsion [C]-CA--N-[C] |==|  0.62369
USER: genes 22 Torsion [N]-C--CA-[N] |==|  0.57228
USER: genes 23 Torsion [C]-CA--CB-[CG] |==|  0.42709
USER: genes 24 Torsion [CA]-CB--CG-[CD1] |==|  0.88822
USER: genes 25 Torsion [C]-CA--CB-[CG] |==|  0.21233
USER: genes 26 Torsion [CA]-CB--CG-[CD] |==|  0.09727
USER: genes 27 Torsion [CB]-CG--CD-[NE] |==|  0.15937
USER: genes 28 Torsion [CG]-CD--NE-[HE] |==|  0.85090
ROOT
ATOM      1  CA  SER D 109     -13.883  -3.786  12.620  1.00 42.91 LIG 0.20  C 
ENDROOT
BRANCH 1 2
ATOM      2  C   SER D 109     -14.638  -4.647  11.625  1.00 45.81 LIG 0.24  C 
ATOM      3 O    SER D 109     -15.867  -4.681  11.637  1.00 48.15 LIG-0.27  OA
ATOM      4  N   LYS D 110     -13.912  -5.361  10.773  1.00 56.31 LIG-0.35  N 
ATOM      5 H    LYS D 110     -13.058  -5.459  10.812  1.00 56.31 LIG 0.16  HD
BRANCH 4 6
ATOM      6  CA  LYS D 110     -14.573  -6.054   9.662  1.00 51.35 LIG 0.18  C 
BRANCH 6 7
ATOM      7  CB  LYS D 110     -13.557  -6.937   8.929  1.00 62.96 LIG 0.04  C 
BRANCH 7 8
ATOM      8  CG  LYS D 110     -14.220  -7.849   7.907  1.00 63.09 LIG 0.00  C 
BRANCH 8 9
ATOM      9  CD  LYS D 110     -13.320  -8.996   7.466  1.00 65.88 LIG 0.03  C 
BRANCH 9 10
ATOM     10  CE  LYS D 110     -14.017 -10.339   7.702  1.00 57.43 LIG 0.23  C 
BRANCH 10 11
ATOM     11  NZ  LYS D 110     -13.216 -11.247   8.565  1.00 66.24 LIG-0.08  N 
ATOM     12 HZ3  LYS D 110     -13.247 -10.962   9.408  1.00 66.24 LIG 0.27  HD
ATOM     13 HZ1  LYS D 110     -13.549 -12.071   8.519  1.00 66.24 LIG 0.27  HD
ATOM     14 HZ2  LYS D 110     -12.371 -11.254   8.286  1.00 66.24 LIG 0.27  HD
ENDBRANCH 10 11
ENDBRANCH 9 10
ENDBRANCH 8 9
ENDBRANCH 7 8
ENDBRANCH 6 7
BRANCH 6 15
ATOM     15  C   LYS D 110     -15.921  -6.792   9.872  1.00 56.31 LIG 0.24  C 
ATOM     16  N   GLY D 111     -16.077  -7.626  10.904  1.00 59.27 LIG-0.35  N 
ATOM     17 H    GLY D 111     -16.787  -8.102  11.001  1.00 59.27 LIG 0.16  HD
ATOM     18 O    LYS D 110     -16.846  -6.575   9.091  1.00 65.56 LIG-0.27  OA
BRANCH 16 19
ATOM     19  CA  GLY D 111     -15.114  -7.840  11.965  1.00 50.66 LIG 0.23  C 
BRANCH 19 20
ATOM     20  C   GLY D 111     -14.197  -8.996  11.590  1.00 62.91 LIG 0.23  C 
ATOM     21  N   GLU D 112     -13.236  -9.355  12.447  1.00 61.49 LIG-0.35  N 
ATOM     22 H    GLU D 112     -12.733 -10.040  12.315  1.00 61.49 LIG 0.16  HD
ATOM     23 O    GLY D 111     -14.341  -9.549  10.487  1.00 69.91 LIG-0.27  OA
BRANCH 21 24
ATOM     24  CA  GLU D 112     -12.920  -8.645  13.694  1.00 68.08 LIG 0.16  C 
BRANCH 24 25
ATOM     25  CB  GLU D 112     -12.333  -7.261  13.404  1.00 70.52 LIG 0.04  C 
BRANCH 25 26
ATOM     26  CG  GLU D 112     -11.164  -7.284  12.441  1.00 75.61 LIG 0.12  C 
BRANCH 26 27
ATOM     27  CD  GLU D 112     -11.022  -5.989  11.669  1.00 80.23 LIG 0.17  C 
ATOM     28 OE2  GLU D 112     -10.975  -6.041  10.420  1.00 75.53 LIG-0.65  OA
ATOM     29 OE1  GLU D 112     -10.966  -4.924  12.315  1.00 82.12 LIG-0.65  OA
ENDBRANCH 26 27
ENDBRANCH 25 26
ENDBRANCH 24 25
BRANCH 24 30
ATOM     30  C   GLU D 112     -14.036  -8.543  14.728  1.00 62.49 LIG 0.22  C 
ATOM     31 O    GLU D 112     -14.370  -7.445  15.185  1.00 75.48 LIG-0.29  OA
ENDBRANCH 24 30
ENDBRANCH 21 24
ENDBRANCH 19 20
ENDBRANCH 16 19
ENDBRANCH 6 15
ENDBRANCH 4 6
ENDBRANCH 1 2
BRANCH 1 32
ATOM     32  CB  SER D 109     -14.544  -3.874  13.990  1.00 41.32 LIG 0.20  C 
BRANCH 32 33
ATOM     33 OG   SER D 109     -15.765  -3.153  14.007  1.00 47.11 LIG-0.40  OA
ATOM     34 HG   SER D 109     -16.257  -3.420  13.380  1.00 47.11 LIG 0.21  HD
ENDBRANCH 32 33
ENDBRANCH 1 32
BRANCH 1 35
ATOM     35  N   SER D 109     -13.785  -2.393  12.155  1.00 33.49 LIG-0.34  N 
ATOM     36 H    SER D 109     -14.452  -1.892  12.363  1.00 33.49 LIG 0.16  HD
ATOM     37  C   ARG D 108     -12.719  -1.984  11.467  1.00 29.49 LIG 0.24  C 
ATOM     38 O    ARG D 108     -11.716  -2.683  11.300  1.00 22.63 LIG-0.27  OA
BRANCH 37 39
ATOM     39  CA  ARG D 108     -12.771  -0.581  10.902  1.00 38.27 LIG 0.18  C 
BRANCH 39 40
ATOM     40  N   ARG D 108     -11.432   0.006  10.773  1.00 22.07 LIG-0.35  N 
ATOM     41 H    ARG D 108     -10.833  -0.512  10.438  1.00 22.07 LIG 0.16  HD
ATOM     42  C   PHE D 107     -11.227   1.252  11.162  1.00 20.48 LIG 0.26  C 
ATOM     43 O    PHE D 107     -12.135   1.958  11.566  1.00 25.48 LIG-0.27  OA
BRANCH 42 44
ATOM     44  CA  PHE D 107      -9.813   1.813  11.065  1.00 18.28 LIG 0.40  C 
ATOM     45  N   PHE D 107      -9.669   2.865  12.048  1.00 19.80 LIG 0.61  N 
BRANCH 44 46
ATOM     46  CB  PHE D 107      -8.770   0.741  11.298  1.00 13.52 LIG 0.09  C 
BRANCH 46 47
ATOM     47  CG  PHE D 107      -7.455   1.027  10.636  1.00 17.60 LIG-0.06  A 
ATOM     48  CD1 PHE D 107      -7.405   1.576   9.355  1.00 15.50 LIG 0.01  A 
ATOM     49  CE1 PHE D 107      -6.182   1.848   8.754  1.00 13.30 LIG 0.00  A 
ATOM     50  CZ  PHE D 107      -4.986   1.534   9.393  1.00 10.86 LIG 0.00  A 
ATOM     51  CE2 PHE D 107      -5.017   1.003  10.662  1.00 17.40 LIG 0.00  A 
ATOM     52  CD2 PHE D 107      -6.250   0.744  11.288  1.00 18.44 LIG 0.01  A 
ENDBRANCH 46 47
ENDBRANCH 44 46
ENDBRANCH 42 44
ENDBRANCH 39 40
BRANCH 39 53
ATOM     53  CB  ARG D 108     -13.534  -0.573   9.570  1.00 35.28 LIG 0.04  C 
BRANCH 53 54
ATOM     54  CG  ARG D 108     -15.047  -0.665   9.659  1.00 41.69 LIG 0.02  C 
BRANCH 54 55
ATOM     55  CD  ARG D 108     -15.646   0.070  10.890  1.00 52.08 LIG 0.14  C 
BRANCH 55 56
ATOM     56  NE  ARG D 108     -15.319   1.497  10.982  1.00 57.02 LIG-0.23  N 
ATOM     57  CZ  ARG D 108     -16.224   2.475  11.110  1.00 70.73 LIG 0.67  C 
ATOM     58  NH1 ARG D 108     -17.528   2.195  11.136  1.00 60.72 LIG-0.23  N 
ATOM     59  NH2 ARG D 108     -15.827   3.746  11.200  1.00 54.42 LIG-0.23  N 
ATOM     60 2HH1 ARG D 108     -18.103   2.829  11.218  1.00 60.72 LIG 0.17  HD
ATOM     61 1HH1 ARG D 108     -17.794   1.379  11.070  1.00 60.72 LIG 0.17  HD
ATOM     62 2HH2 ARG D 108     -16.409   4.373  11.282  1.00 54.42 LIG 0.17  HD
ATOM     63 1HH2 ARG D 108     -14.988   3.937  11.175  1.00 54.42 LIG 0.17  HD
ATOM     64 HE   ARG D 108     -14.490   1.721  10.951  1.00 57.02 LIG 0.18  HD
ENDBRANCH 55 56
ENDBRANCH 54 55
ENDBRANCH 53 54
ENDBRANCH 39 53
ENDBRANCH 37 39
ENDBRANCH 1 35
TORSDOF 27
ENDMDL
MODEL 6
USER: ADFR SOLUTION from run 26
USER: SCORE 19.142955 LL:  -4.704 LR: -16.134 RR:   0.000 FEB:  -8.080
USER: RMSD 4.428541
USER: SEED 25
USER: STATUS no improvement in best in 6 clusters for 5 generations
USER: GENES 29
USER: genes 0 Translation |==|  0.41366 0.47750 0.41388
USER: genes 1 Rotation |==|  0.45419 0.27550 0.53227 0.94324
USER: genes 2 Torsion [N]-CA--C-[N] |==|  0.33236
USER: genes 3 Torsion [C]-N--CA-[CB] |==|  0.49680
USER: genes 4 Torsion [N]-CA--CB-[CG] |==|  0.54982
USER: genes 5 Torsion [CA]-CB--CG-[CD] |==|  0.62473
USER: genes 6 Torsion [CB]-CG--CD-[CE] |==|  0.14040
USER: genes 7 Torsion [CG]-CD--CE-[NZ] |==|  0.60076
USER: genes 8 Torsion [CD]-CE--NZ-[HZ3] |==|  0.01092
USER: genes 9 Torsion [N]-CA--C-[N] |==|  0.81046
USER: genes 10 Torsion [C]-N--CA-[C] |==|  0.23107
USER: genes 11 Torsion [N]-CA--C-[N] |==|  0.53804
USER: genes 12 Torsion [C]-N--CA-[CB] |==|  0.31657
USER: genes 13 Torsion [N]-CA--CB-[CG] |==|  0.96129
USER: genes 14 Torsion [CA]-CB--CG-[CD] |==|  0.61697
USER: genes 15 Torsion [CB]-CG--CD-[OE2] |==|  0.83257
USER: genes 16 Torsion [N]-CA--C-[O] |==|  0.74542
USER: genes 17 Torsion [C]-CA--CB-[OG] |==|  0.55859
USER: genes 18 Torsion [CA]-CB--OG-[HG] |==|  0.58362
USER: genes 19 Torsion [C]-CA--N-[C] |==|  0.71667
USER: genes 20 Torsion [N]-C--CA-[N] |==|  0.48196
USER: genes 21 Torsion [C]-CA--N-[C] |==|  0.61345
USER: genes 22 Torsion [N]-C--CA-[N] |==|  0.55764
USER: genes 23 Torsion [C]-CA--CB-[CG] |==|  0.42722
USER: genes 24 Torsion [CA]-CB--CG-[CD1] |==|  0.41138
USER: genes 25 Torsion [C]-CA--CB-[CG] |==|  0.23666
USER: genes 26 Torsion [CA]-CB--CG-[CD] |==|  0.65313
USER: genes 27 Torsion [CB]-CG--CD-[NE] |==|  0.87025
USER: genes 28 Torsion [CG]-CD--NE-[HE] |==|  0.89986
ROOT
ATOM      1  CA  SER D 109     -13.659  -3.834  12.123  1.00 42.91 LIG 0.20  C 
ENDROOT
BRANCH 1 2
ATOM      2  C   SER D 109     -14.238  -4.619  10.962  1.00 45.81 LIG 0.24  C 
ATOM      3 O    SER D 109     -15.376  -4.384  10.557  1.00 48.15 LIG-0.27  OA
ATOM      4  N   LYS D 110     -13.473  -5.566  10.433  1.00 56.31 LIG-0.35  N 
ATOM      5 H    LYS D 110     -12.728  -5.842  10.763  1.00 56.31 LIG 0.16  HD
BRANCH 4 6
ATOM      6  CA  LYS D 110     -13.889  -6.222   9.189  1.00 51.35 LIG 0.18  C 
BRANCH 6 7
ATOM      7  CB  LYS D 110     -12.831  -7.250   8.770  1.00 62.96 LIG 0.04  C 
BRANCH 7 8
ATOM      8  CG  LYS D 110     -12.963  -7.646   7.307  1.00 63.09 LIG 0.00  C 
BRANCH 8 9
ATOM      9  CD  LYS D 110     -12.852  -9.150   7.089  1.00 65.88 LIG 0.03  C 
BRANCH 9 10
ATOM     10  CE  LYS D 110     -13.797  -9.895   8.036  1.00 57.43 LIG 0.23  C 
BRANCH 10 11
ATOM     11  NZ  LYS D 110     -13.216 -11.175   8.521  1.00 66.24 LIG-0.08  N 
ATOM     12 HZ3  LYS D 110     -12.384 -11.259   8.216  1.00 66.24 LIG 0.27  HD
ATOM     13 HZ1  LYS D 110     -13.207 -11.178   9.411  1.00 66.24 LIG 0.27  HD
ATOM     14 HZ2  LYS D 110     -13.709 -11.856   8.227  1.00 66.24 LIG 0.27  HD
ENDBRANCH 10 11
ENDBRANCH 9 10
ENDBRANCH 8 9
ENDBRANCH 7 8
ENDBRANCH 6 7
BRANCH 6 15
ATOM     15  C   LYS D 110     -15.326  -6.786   9.027  1.00 56.31 LIG 0.24  C 
ATOM     16  N   GLY D 111     -15.717  -7.844   9.741  1.00 59.27 LIG-0.35  N 
ATOM     17 H    GLY D 111     -16.480  -8.220   9.617  1.00 59.27 LIG 0.16  HD
ATOM     18 O    LYS D 110     -16.100  -6.226   8.253  1.00 65.56 LIG-0.27  OA
BRANCH 16 19
ATOM     19  CA  GLY D 111     -14.944  -8.486  10.786  1.00 50.66 LIG 0.23  C 
BRANCH 19 20
ATOM     20  C   GLY D 111     -15.135  -7.728  12.093  1.00 62.91 LIG 0.23  C 
ATOM     21  N   GLU D 112     -14.303  -7.983  13.108  1.00 61.49 LIG-0.35  N 
ATOM     22 H    GLU D 112     -14.325  -7.539  13.844  1.00 61.49 LIG 0.16  HD
ATOM     23 O    GLY D 111     -16.076  -6.924  12.195  1.00 69.91 LIG-0.27  OA
BRANCH 21 24
ATOM     24  CA  GLU D 112     -13.269  -9.027  13.100  1.00 68.08 LIG 0.16  C 
BRANCH 24 25
ATOM     25  CB  GLU D 112     -11.868  -8.412  13.146  1.00 70.52 LIG 0.04  C 
BRANCH 25 26
ATOM     26  CG  GLU D 112     -11.844  -6.926  12.853  1.00 75.61 LIG 0.12  C 
BRANCH 26 27
ATOM     27  CD  GLU D 112     -10.696  -6.530  11.950  1.00 80.23 LIG 0.17  C 
ATOM     28 OE2  GLU D 112      -9.528  -6.752  12.339  1.00 75.53 LIG-0.65  OA
ATOM     29 OE1  GLU D 112     -10.967  -6.005  10.851  1.00 82.12 LIG-0.65  OA
ENDBRANCH 26 27
ENDBRANCH 25 26
ENDBRANCH 24 25
BRANCH 24 30
ATOM     30  C   GLU D 112     -13.400 -10.130  14.146  1.00 62.49 LIG 0.22  C 
ATOM     31 O    GLU D 112     -12.843 -10.023  15.243  1.00 75.48 LIG-0.29  OA
ENDBRANCH 24 30
ENDBRANCH 21 24
ENDBRANCH 19 20
ENDBRANCH 16 19
ENDBRANCH 6 15
ENDBRANCH 4 6
ENDBRANCH 1 2
BRANCH 1 32
ATOM     32  CB  SER D 109     -14.482  -4.081  13.381  1.00 41.32 LIG 0.20  C 
BRANCH 32 33
ATOM     33 OG   SER D 109     -14.289  -3.039  14.323  1.00 47.11 LIG-0.40  OA
ATOM     34 HG   SER D 109     -14.379  -3.344  15.100  1.00 47.11 LIG 0.21  HD
ENDBRANCH 32 33
ENDBRANCH 1 32
BRANCH 1 35
ATOM     35  N   SER D 109     -13.571  -2.398  11.807  1.00 33.49 LIG-0.34  N 
ATOM     36 H    SER D 109     -14.313  -1.968  11.862  1.00 33.49 LIG 0.16  HD
ATOM     37  C   ARG D 108     -12.405  -1.852  11.466  1.00 29.49 LIG 0.24  C 
ATOM     38 O    ARG D 108     -11.332  -2.459  11.527  1.00 22.63 LIG-0.27  OA
BRANCH 37 39
ATOM     39  CA  ARG D 108     -12.436  -0.408  11.015  1.00 38.27 LIG 0.18  C 
BRANCH 39 40
ATOM     40  N   ARG D 108     -11.086   0.132  10.813  1.00 22.07 LIG-0.35  N 
ATOM     41 H    ARG D 108     -10.528  -0.402  10.433  1.00 22.07 LIG 0.16  HD
ATOM     42  C   PHE D 107     -10.810   1.361  11.209  1.00 20.48 LIG 0.26  C 
ATOM     43 O    PHE D 107     -11.664   2.093  11.681  1.00 25.48 LIG-0.27  OA
BRANCH 42 44
ATOM     44  CA  PHE D 107      -9.385   1.871  11.034  1.00 18.28 LIG 0.40  C 
ATOM     45  N   PHE D 107      -9.180   2.983  11.939  1.00 19.80 LIG 0.61  N 
BRANCH 44 46
ATOM     46  CB  PHE D 107      -8.366   0.786  11.310  1.00 13.52 LIG 0.09  C 
BRANCH 46 47
ATOM     47  CG  PHE D 107      -7.064   0.988  10.594  1.00 17.60 LIG-0.06  A 
ATOM     48  CD1 PHE D 107      -5.863   0.561  11.160  1.00 15.50 LIG 0.01  A 
ATOM     49  CE1 PHE D 107      -4.663   0.743  10.483  1.00 13.30 LIG 0.00  A 
ATOM     50  CZ  PHE D 107      -4.626   1.397   9.256  1.00 10.86 LIG 0.00  A 
ATOM     51  CE2 PHE D 107      -5.803   1.815   8.678  1.00 17.40 LIG 0.00  A 
ATOM     52  CD2 PHE D 107      -7.025   1.616   9.344  1.00 18.44 LIG 0.01  A 
ENDBRANCH 46 47
ENDBRANCH 44 46
ENDBRANCH 42 44
ENDBRANCH 39 40
BRANCH 39 53
ATOM     53  CB  ARG D 108     -13.308  -0.263   9.759  1.00 35.28 LIG 0.04  C 
BRANCH 53 54
ATOM     54  CG  ARG D 108     -14.799  -0.092   9.989  1.00 41.69 LIG 0.02  C 
BRANCH 54 55
ATOM     55  CD  ARG D 108     -15.670  -1.140   9.242  1.00 52.08 LIG 0.14  C 
BRANCH 55 56
ATOM     56  NE  ARG D 108     -15.315  -1.353   7.835  1.00 57.02 LIG-0.23  N 
ATOM     57  CZ  ARG D 108     -15.370  -2.535   7.210  1.00 70.73 LIG 0.67  C 
ATOM     58  NH1 ARG D 108     -15.741  -3.635   7.869  1.00 60.72 LIG-0.23  N 
ATOM     59  NH2 ARG D 108     -15.040  -2.626   5.920  1.00 54.42 LIG-0.23  N 
ATOM     60 2HH1 ARG D 108     -15.773  -4.391   7.460  1.00 60.72 LIG 0.17  HD
ATOM     61 1HH1 ARG D 108     -15.947  -3.588   8.703  1.00 60.72 LIG 0.17  HD
ATOM     62 2HH2 ARG D 108     -15.076  -3.386   5.520  1.00 54.42 LIG 0.17  HD
ATOM     63 1HH2 ARG D 108     -14.792  -1.924   5.490  1.00 54.42 LIG 0.17  HD
ATOM     64 HE   ARG D 108     -15.054  -0.672   7.380  1.00 57.02 LIG 0.18  HD
ENDBRANCH 55 56
ENDBRANCH 54 55
ENDBRANCH 53 54
ENDBRANCH 39 53
ENDBRANCH 37 39
ENDBRANCH 1 35
TORSDOF 27
ENDMDL
MODEL 7
USER: ADFR SOLUTION from run 175
USER: SCORE 18.914549 LL:  -4.997 LR: -15.815 RR:   0.000 FEB:  -7.761
USER: RMSD 3.890563
USER: SEED 174
USER: STATUS no improvement in best in 6 clusters for 5 generations
USER: GENES 29
USER: genes 0 Translation |==|  0.45061 0.49461 0.49142
USER: genes 1 Rotation |==|  0.38510 0.45587 0.53634 0.98325
USER: genes 2 Torsion [N]-CA--C-[N] |==|  0.25562
USER: genes 3 Torsion [C]-N--CA-[CB] |==|  0.45247
USER: genes 4 Torsion [N]-CA--CB-[CG] |==|  0.94733
USER: genes 5 Torsion [CA]-CB--CG-[CD] |==|  0.48036
USER: genes 6 Torsion [CB]-CG--CD-[CE] |==|  0.76750
USER: genes 7 Torsion [CG]-CD--CE-[NZ] |==|  0.23351
USER: genes 8 Torsion [CD]-CE--NZ-[HZ3] |==|  0.02727
USER: genes 9 Torsion [N]-CA--C-[N] |==|  0.87499
USER: genes 10 Torsion [C]-N--CA-[C] |==|  0.78494
USER: genes 11 Torsion [N]-CA--C-[N] |==|  0.42228
USER: genes 12 Torsion [C]-N--CA-[CB] |==|  0.32438
USER: genes 13 Torsion [N]-CA--CB-[CG] |==|  0.87393
USER: genes 14 Torsion [CA]-CB--CG-[CD] |==|  0.79263
USER: genes 15 Torsion [CB]-CG--CD-[OE2] |==|  0.50866
USER: genes 16 Torsion [N]-CA--C-[O] |==|  0.92422
USER: genes 17 Torsion [C]-CA--CB-[OG] |==|  0.68085
USER: genes 18 Torsion [CA]-CB--OG-[HG] |==|  0.50418
USER: genes 19 Torsion [C]-CA--N-[C] |==|  0.73078
USER: genes 20 Torsion [N]-C--CA-[N] |==|  0.36050
USER: genes 21 Torsion [C]-CA--N-[C] |==|  0.66788
USER: genes 22 Torsion [N]-C--CA-[N] |==|  0.54686
USER: genes 23 Torsion [C]-CA--CB-[CG] |==|  0.47559
USER: genes 24 Torsion [CA]-CB--CG-[CD1] |==|  0.86579
USER: genes 25 Torsion [C]-CA--CB-[CG] |==|  0.02774
USER: genes 26 Torsion [CA]-CB--CG-[CD] |==|  0.52315
USER: genes 27 Torsion [CB]-CG--CD-[NE] |==|  0.98923
USER: genes 28 Torsion [CG]-CD--NE-[HE] |==|  0.20717
ROOT
ATOM      1  CA  SER D 109     -12.827  -3.487  13.984  1.00 42.91 LIG 0.20  C 
ENDROOT
BRANCH 1 2
ATOM      2  C   SER D 109     -14.089  -4.299  13.763  1.00 45.81 LIG 0.24  C 
ATOM      3 O    SER D 109     -15.067  -4.141  14.492  1.00 48.15 LIG-0.27  OA
ATOM      4  N   LYS D 110     -14.071  -5.185  12.773  1.00 56.31 LIG-0.35  N 
ATOM      5 H    LYS D 110     -13.372  -5.410  12.325  1.00 56.31 LIG 0.16  HD
BRANCH 4 6
ATOM      6  CA  LYS D 110     -15.314  -5.856  12.380  1.00 51.35 LIG 0.18  C 
BRANCH 6 7
ATOM      7  CB  LYS D 110     -15.144  -6.480  10.990  1.00 62.96 LIG 0.04  C 
BRANCH 7 8
ATOM      8  CG  LYS D 110     -13.976  -5.872  10.227  1.00 63.09 LIG 0.00  C 
BRANCH 8 9
ATOM      9  CD  LYS D 110     -13.684  -6.594   8.918  1.00 65.88 LIG 0.03  C 
BRANCH 9 10
ATOM     10  CE  LYS D 110     -12.801  -7.819   9.172  1.00 57.43 LIG 0.23  C 
BRANCH 10 11
ATOM     11  NZ  LYS D 110     -13.591  -9.010   9.580  1.00 66.24 LIG-0.08  N 
ATOM     12 HZ3  LYS D 110     -14.458  -8.844   9.470  1.00 66.24 LIG 0.27  HD
ATOM     13 HZ1  LYS D 110     -13.357  -9.708   9.080  1.00 66.24 LIG 0.27  HD
ATOM     14 HZ2  LYS D 110     -13.432  -9.194  10.437  1.00 66.24 LIG 0.27  HD
ENDBRANCH 10 11
ENDBRANCH 9 10
ENDBRANCH 8 9
ENDBRANCH 7 8
ENDBRANCH 6 7
BRANCH 6 15
ATOM     15  C   LYS D 110     -16.042  -6.822  13.352  1.00 56.31 LIG 0.24  C 
ATOM     16  N   GLY D 111     -15.348  -7.734  14.036  1.00 59.27 LIG-0.35  N 
ATOM     17 H    GLY D 111     -15.734  -8.328  14.524  1.00 59.27 LIG 0.16  HD
ATOM     18 O    LYS D 110     -17.258  -6.713  13.498  1.00 65.56 LIG-0.27  OA
BRANCH 16 19
ATOM     19  CA  GLY D 111     -13.904  -7.852  14.057  1.00 50.66 LIG 0.23  C 
BRANCH 19 20
ATOM     20  C   GLY D 111     -13.433  -8.516  12.769  1.00 62.91 LIG 0.23  C 
ATOM     21  N   GLU D 112     -12.209  -8.231  12.314  1.00 61.49 LIG-0.35  N 
ATOM     22 H    GLU D 112     -11.869  -8.625  11.629  1.00 61.49 LIG 0.16  HD
ATOM     23 O    GLY D 111     -14.207  -9.272  12.160  1.00 69.91 LIG-0.27  OA
BRANCH 21 24
ATOM     24  CA  GLU D 112     -11.307  -7.233  12.905  1.00 68.08 LIG 0.16  C 
BRANCH 24 25
ATOM     25  CB  GLU D 112     -10.034  -7.894  13.441  1.00 70.52 LIG 0.04  C 
BRANCH 25 26
ATOM     26  CG  GLU D 112     -10.291  -9.153  14.243  1.00 75.61 LIG 0.12  C 
BRANCH 26 27
ATOM     27  CD  GLU D 112     -10.846  -8.862  15.621  1.00 80.23 LIG 0.17  C 
ATOM     28 OE2  GLU D 112     -11.044  -9.821  16.399  1.00 75.53 LIG-0.65  OA
ATOM     29 OE1  GLU D 112     -11.074  -7.673  15.923  1.00 82.12 LIG-0.65  OA
ENDBRANCH 26 27
ENDBRANCH 25 26
ENDBRANCH 24 25
BRANCH 24 30
ATOM     30  C   GLU D 112     -10.955  -6.027  12.040  1.00 62.49 LIG 0.22  C 
ATOM     31 O    GLU D 112     -10.967  -6.114  10.808  1.00 75.48 LIG-0.29  OA
ENDBRANCH 24 30
ENDBRANCH 21 24
ENDBRANCH 19 20
ENDBRANCH 16 19
ENDBRANCH 6 15
ENDBRANCH 4 6
ENDBRANCH 1 2
BRANCH 1 32
ATOM     32  CB  SER D 109     -12.616  -3.249  15.474  1.00 41.32 LIG 0.20  C 
BRANCH 32 33
ATOM     33 OG   SER D 109     -12.722  -1.870  15.784  1.00 47.11 LIG-0.40  OA
ATOM     34 HG   SER D 109     -12.583  -1.755  16.604  1.00 47.11 LIG 0.21  HD
ENDBRANCH 32 33
ENDBRANCH 1 32
BRANCH 1 35
ATOM     35  N   SER D 109     -12.869  -2.221  13.235  1.00 33.49 LIG-0.34  N 
ATOM     36 H    SER D 109     -13.294  -1.582  13.623  1.00 33.49 LIG 0.16  HD
ATOM     37  C   ARG D 108     -12.276  -2.120  12.046  1.00 29.49 LIG 0.24  C 
ATOM     38 O    ARG D 108     -11.558  -3.005  11.573  1.00 22.63 LIG-0.27  OA
BRANCH 37 39
ATOM     39  CA  ARG D 108     -12.496  -0.831  11.283  1.00 38.27 LIG 0.18  C 
BRANCH 39 40
ATOM     40  N   ARG D 108     -11.232  -0.250  10.814  1.00 22.07 LIG-0.35  N 
ATOM     41 H    ARG D 108     -10.774  -0.745  10.280  1.00 22.07 LIG 0.16  HD
ATOM     42  C   PHE D 107     -10.878   0.955  11.223  1.00 20.48 LIG 0.26  C 
ATOM     43 O    PHE D 107     -11.604   1.634  11.930  1.00 25.48 LIG-0.27  OA
BRANCH 42 44
ATOM     44  CA  PHE D 107      -9.534   1.506  10.762  1.00 18.28 LIG 0.40  C 
ATOM     45  N   PHE D 107      -9.176   2.618  11.617  1.00 19.80 LIG 0.61  N 
BRANCH 44 46
ATOM     46  CB  PHE D 107      -8.451   0.449  10.808  1.00 13.52 LIG 0.09  C 
BRANCH 46 47
ATOM     47  CG  PHE D 107      -7.164   0.879  10.171  1.00 17.60 LIG-0.06  A 
ATOM     48  CD1 PHE D 107      -7.154   1.468   8.907  1.00 15.50 LIG 0.01  A 
ATOM     49  CE1 PHE D 107      -5.957   1.873   8.330  1.00 13.30 LIG 0.00  A 
ATOM     50  CZ  PHE D 107      -4.743   1.654   8.973  1.00 10.86 LIG 0.00  A 
ATOM     51  CE2 PHE D 107      -4.735   1.086  10.226  1.00 17.40 LIG 0.00  A 
ATOM     52  CD2 PHE D 107      -5.943   0.692  10.829  1.00 18.44 LIG 0.01  A 
ENDBRANCH 46 47
ENDBRANCH 44 46
ENDBRANCH 42 44
ENDBRANCH 39 40
BRANCH 39 53
ATOM     53  CB  ARG D 108     -13.486  -1.059  10.132  1.00 35.28 LIG 0.04  C 
BRANCH 53 54
ATOM     54  CG  ARG D 108     -14.211  -2.393  10.119  1.00 41.69 LIG 0.02  C 
BRANCH 54 55
ATOM     55  CD  ARG D 108     -15.037  -2.642   8.826  1.00 52.08 LIG 0.14  C 
BRANCH 55 56
ATOM     56  NE  ARG D 108     -15.058  -1.524   7.877  1.00 57.02 LIG-0.23  N 
ATOM     57  CZ  ARG D 108     -16.104  -0.712   7.684  1.00 70.73 LIG 0.67  C 
ATOM     58  NH1 ARG D 108     -17.243  -0.901   8.354  1.00 60.72 LIG-0.23  N 
ATOM     59  NH2 ARG D 108     -16.021   0.289   6.805  1.00 54.42 LIG-0.23  N 
ATOM     60 2HH1 ARG D 108     -17.911  -0.375   8.224  1.00 60.72 LIG 0.17  HD
ATOM     61 1HH1 ARG D 108     -17.308  -1.549   8.916  1.00 60.72 LIG 0.17  HD
ATOM     62 2HH2 ARG D 108     -16.694   0.809   6.682  1.00 54.42 LIG 0.17  HD
ATOM     63 1HH2 ARG D 108     -15.295   0.412   6.362  1.00 54.42 LIG 0.17  HD
ATOM     64 HE   ARG D 108     -14.349  -1.380   7.412  1.00 57.02 LIG 0.18  HD
ENDBRANCH 55 56
ENDBRANCH 54 55
ENDBRANCH 53 54
ENDBRANCH 39 53
ENDBRANCH 37 39
ENDBRANCH 1 35
TORSDOF 27
ENDMDL
MODEL 8
USER: ADFR SOLUTION from run 184
USER: SCORE 18.741372 LL:  -4.153 LR: -15.759 RR:   0.000 FEB:  -7.705
USER: RMSD 4.487969
USER: SEED 183
USER: STATUS no improvement in best in 6 clusters for 5 generations
USER: GENES 29
USER: genes 0 Translation |==|  0.45520 0.48124 0.48968
USER: genes 1 Rotation |==|  0.39756 0.44507 0.56158 0.98239
USER: genes 2 Torsion [N]-CA--C-[N] |==|  0.47318
USER: genes 3 Torsion [C]-N--CA-[CB] |==|  0.17242
USER: genes 4 Torsion [N]-CA--CB-[CG] |==|  0.38623
USER: genes 5 Torsion [CA]-CB--CG-[CD] |==|  0.54558
USER: genes 6 Torsion [CB]-CG--CD-[CE] |==|  0.53319
USER: genes 7 Torsion [CG]-CD--CE-[NZ] |==|  0.78849
USER: genes 8 Torsion [CD]-CE--NZ-[HZ3] |==|  0.38186
USER: genes 9 Torsion [N]-CA--C-[N] |==|  0.85918
USER: genes 10 Torsion [C]-N--CA-[C] |==|  0.23908
USER: genes 11 Torsion [N]-CA--C-[N] |==|  0.52829
USER: genes 12 Torsion [C]-N--CA-[CB] |==|  0.22898
USER: genes 13 Torsion [N]-CA--CB-[CG] |==|  0.74878
USER: genes 14 Torsion [CA]-CB--CG-[CD] |==|  0.54803
USER: genes 15 Torsion [CB]-CG--CD-[OE2] |==|  0.76598
USER: genes 16 Torsion [N]-CA--C-[O] |==|  0.28910
USER: genes 17 Torsion [C]-CA--CB-[OG] |==|  0.70777
USER: genes 18 Torsion [CA]-CB--OG-[HG] |==|  0.08387
USER: genes 19 Torsion [C]-CA--N-[C] |==|  0.68819
USER: genes 20 Torsion [N]-C--CA-[N] |==|  0.42748
USER: genes 21 Torsion [C]-CA--N-[C] |==|  0.69493
USER: genes 22 Torsion [N]-C--CA-[N] |==|  0.52807
USER: genes 23 Torsion [C]-CA--CB-[CG] |==|  0.49442
USER: genes 24 Torsion [CA]-CB--CG-[CD1] |==|  0.85326
USER: genes 25 Torsion [C]-CA--CB-[CG] |==|  0.95484
USER: genes 26 Torsion [CA]-CB--CG-[CD] |==|  0.53445
USER: genes 27 Torsion [CB]-CG--CD-[NE] |==|  0.04456
USER: genes 28 Torsion [CG]-CD--NE-[HE] |==|  0.24699
ROOT
ATOM      1  CA  SER D 109     -12.724  -3.758  13.942  1.00 42.91 LIG 0.20  C 
ENDROOT
BRANCH 1 2
ATOM      2  C   SER D 109     -13.884  -4.696  13.667  1.00 45.81 LIG 0.24  C 
ATOM      3 O    SER D 109     -14.897  -4.285  13.104  1.00 48.15 LIG-0.27  OA
ATOM      4  N   LYS D 110     -13.753  -5.953  14.076  1.00 56.31 LIG-0.35  N 
ATOM      5 H    LYS D 110     -13.119  -6.246  14.577  1.00 56.31 LIG 0.16  HD
BRANCH 4 6
ATOM      6  CA  LYS D 110     -14.744  -6.954  13.666  1.00 51.35 LIG 0.18  C 
BRANCH 6 7
ATOM      7  CB  LYS D 110     -14.731  -7.096  12.140  1.00 62.96 LIG 0.04  C 
BRANCH 7 8
ATOM      8  CG  LYS D 110     -14.851  -8.546  11.697  1.00 63.09 LIG 0.00  C 
BRANCH 8 9
ATOM      9  CD  LYS D 110     -14.447  -8.756  10.243  1.00 65.88 LIG 0.03  C 
BRANCH 9 10
ATOM     10  CE  LYS D 110     -14.864 -10.153   9.772  1.00 57.43 LIG 0.23  C 
BRANCH 10 11
ATOM     11  NZ  LYS D 110     -13.966 -11.216  10.293  1.00 66.24 LIG-0.08  N 
ATOM     12 HZ3  LYS D 110     -14.453 -11.912  10.560  1.00 66.24 LIG 0.27  HD
ATOM     13 HZ1  LYS D 110     -13.407 -11.474   9.651  1.00 66.24 LIG 0.27  HD
ATOM     14 HZ2  LYS D 110     -13.499 -10.900  10.982  1.00 66.24 LIG 0.27  HD
ENDBRANCH 10 11
ENDBRANCH 9 10
ENDBRANCH 8 9
ENDBRANCH 7 8
ENDBRANCH 6 7
BRANCH 6 15
ATOM     15  C   LYS D 110     -14.816  -8.337  14.365  1.00 56.31 LIG 0.24  C 
ATOM     16  N   GLY D 111     -13.713  -9.075  14.510  1.00 59.27 LIG-0.35  N 
ATOM     17 H    GLY D 111     -13.738  -9.874  14.826  1.00 59.27 LIG 0.16  HD
ATOM     18 O    LYS D 110     -15.897  -8.725  14.805  1.00 65.56 LIG-0.27  OA
BRANCH 16 19
ATOM     19  CA  GLY D 111     -12.368  -8.655  14.168  1.00 50.66 LIG 0.23  C 
BRANCH 19 20
ATOM     20  C   GLY D 111     -11.760  -7.902  15.344  1.00 62.91 LIG 0.23  C 
ATOM     21  N   GLU D 112     -10.606  -7.253  15.160  1.00 61.49 LIG-0.35  N 
ATOM     22 H    GLU D 112     -10.253  -6.760  15.770  1.00 61.49 LIG 0.16  HD
ATOM     23 O    GLY D 111     -12.330  -7.941  16.447  1.00 69.91 LIG-0.27  OA
BRANCH 21 24
ATOM     24  CA  GLU D 112      -9.810  -7.295  13.926  1.00 68.08 LIG 0.16  C 
BRANCH 24 25
ATOM     25  CB  GLU D 112     -10.350  -6.303  12.892  1.00 70.52 LIG 0.04  C 
BRANCH 25 26
ATOM     26  CG  GLU D 112     -11.393  -6.894  11.966  1.00 75.61 LIG 0.12  C 
BRANCH 26 27
ATOM     27  CD  GLU D 112     -11.604  -6.061  10.720  1.00 80.23 LIG 0.17  C 
ATOM     28 OE2  GLU D 112     -12.390  -5.089  10.779  1.00 75.53 LIG-0.65  OA
ATOM     29 OE1  GLU D 112     -10.975  -6.376   9.690  1.00 82.12 LIG-0.65  OA
ENDBRANCH 26 27
ENDBRANCH 25 26
ENDBRANCH 24 25
BRANCH 24 30
ATOM     30  C   GLU D 112      -8.300  -7.136  14.077  1.00 62.49 LIG 0.22  C 
ATOM     31 O    GLU D 112      -7.554  -8.114  13.981  1.00 75.48 LIG-0.29  OA
ENDBRANCH 24 30
ENDBRANCH 21 24
ENDBRANCH 19 20
ENDBRANCH 16 19
ENDBRANCH 6 15
ENDBRANCH 4 6
ENDBRANCH 1 2
BRANCH 1 32
ATOM     32  CB  SER D 109     -12.560  -3.562  15.444  1.00 41.32 LIG 0.20  C 
BRANCH 32 33
ATOM     33 OG   SER D 109     -13.035  -2.286  15.840  1.00 47.11 LIG-0.40  OA
ATOM     34 HG   SER D 109     -13.657  -2.047  15.329  1.00 47.11 LIG 0.21  HD
ENDBRANCH 32 33
ENDBRANCH 1 32
BRANCH 1 35
ATOM     35  N   SER D 109     -12.898  -2.474  13.244  1.00 33.49 LIG-0.34  N 
ATOM     36 H    SER D 109     -13.546  -1.988  13.533  1.00 33.49 LIG 0.16  HD
ATOM     37  C   ARG D 108     -12.085  -2.133  12.245  1.00 29.49 LIG 0.24  C 
ATOM     38 O    ARG D 108     -11.081  -2.782  11.941  1.00 22.63 LIG-0.27  OA
BRANCH 37 39
ATOM     39  CA  ARG D 108     -12.429  -0.867  11.490  1.00 38.27 LIG 0.18  C 
BRANCH 39 40
ATOM     40  N   ARG D 108     -11.243  -0.255  10.878  1.00 22.07 LIG-0.35  N 
ATOM     41 H    ARG D 108     -10.906  -0.687  10.215  1.00 22.07 LIG 0.16  HD
ATOM     42  C   PHE D 107     -10.775   0.882  11.360  1.00 20.48 LIG 0.26  C 
ATOM     43 O    PHE D 107     -11.338   1.480  12.262  1.00 25.48 LIG-0.27  OA
BRANCH 42 44
ATOM     44  CA  PHE D 107      -9.510   1.462  10.738  1.00 18.28 LIG 0.40  C 
ATOM     45  N   PHE D 107      -9.053   2.559  11.565  1.00 19.80 LIG 0.61  N 
BRANCH 44 46
ATOM     46  CB  PHE D 107      -8.420   0.419  10.615  1.00 13.52 LIG 0.09  C 
BRANCH 46 47
ATOM     47  CG  PHE D 107      -7.170   0.930   9.964  1.00 17.60 LIG-0.06  A 
ATOM     48  CD1 PHE D 107      -7.219   1.570   8.726  1.00 15.50 LIG 0.01  A 
ATOM     49  CE1 PHE D 107      -6.057   2.050   8.136  1.00 13.30 LIG 0.00  A 
ATOM     50  CZ  PHE D 107      -4.817   1.859   8.739  1.00 10.86 LIG 0.00  A 
ATOM     51  CE2 PHE D 107      -4.751   1.240   9.966  1.00 17.40 LIG 0.00  A 
ATOM     52  CD2 PHE D 107      -5.924   0.769  10.582  1.00 18.44 LIG 0.01  A 
ENDBRANCH 46 47
ENDBRANCH 44 46
ENDBRANCH 42 44
ENDBRANCH 39 40
BRANCH 39 53
ATOM     53  CB  ARG D 108     -13.529  -1.148  10.456  1.00 35.28 LIG 0.04  C 
BRANCH 53 54
ATOM     54  CG  ARG D 108     -13.775  -2.606  10.112  1.00 41.69 LIG 0.02  C 
BRANCH 54 55
ATOM     55  CD  ARG D 108     -14.669  -2.809   8.858  1.00 52.08 LIG 0.14  C 
BRANCH 55 56
ATOM     56  NE  ARG D 108     -14.825  -1.625   8.007  1.00 57.02 LIG-0.23  N 
ATOM     57  CZ  ARG D 108     -15.804  -0.721   8.137  1.00 70.73 LIG 0.67  C 
ATOM     58  NH1 ARG D 108     -16.746  -0.870   9.070  1.00 60.72 LIG-0.23  N 
ATOM     59  NH2 ARG D 108     -15.852   0.334   7.321  1.00 54.42 LIG-0.23  N 
ATOM     60 2HH1 ARG D 108     -17.371  -0.285   9.146  1.00 60.72 LIG 0.17  HD
ATOM     61 1HH1 ARG D 108     -16.727  -1.551   9.595  1.00 60.72 LIG 0.17  HD
ATOM     62 2HH2 ARG D 108     -16.482   0.913   7.405  1.00 54.42 LIG 0.17  HD
ATOM     63 1HH2 ARG D 108     -15.255   0.433   6.711  1.00 54.42 LIG 0.17  HD
ATOM     64 HE   ARG D 108     -14.247  -1.502   7.381  1.00 57.02 LIG 0.18  HD
ENDBRANCH 55 56
ENDBRANCH 54 55
ENDBRANCH 53 54
ENDBRANCH 39 53
ENDBRANCH 37 39
ENDBRANCH 1 35
TORSDOF 27
ENDMDL
MODEL 9
USER: ADFR SOLUTION from run 152
USER: SCORE 18.104096 LL:  -4.077 LR: -15.699 RR:   0.000 FEB:  -7.645
USER: RMSD 4.488526
USER: SEED 151
USER: STATUS 1 or 2 clusters left
USER: GENES 29
USER: genes 0 Translation |==|  0.49972 0.46972 0.50045
USER: genes 1 Rotation |==|  0.43964 0.37961 0.57407 0.97579
USER: genes 2 Torsion [N]-CA--C-[N] |==|  0.34860
USER: genes 3 Torsion [C]-N--CA-[CB] |==|  0.40584
USER: genes 4 Torsion [N]-CA--CB-[CG] |==|  0.66725
USER: genes 5 Torsion [CA]-CB--CG-[CD] |==|  0.74294
USER: genes 6 Torsion [CB]-CG--CD-[CE] |==|  0.71000
USER: genes 7 Torsion [CG]-CD--CE-[NZ] |==|  0.34108
USER: genes 8 Torsion [CD]-CE--NZ-[HZ3] |==|  0.25239
USER: genes 9 Torsion [N]-CA--C-[N] |==|  0.87224
USER: genes 10 Torsion [C]-N--CA-[C] |==|  0.25634
USER: genes 11 Torsion [N]-CA--C-[N] |==|  0.54062
USER: genes 12 Torsion [C]-N--CA-[CB] |==|  0.35527
USER: genes 13 Torsion [N]-CA--CB-[CG] |==|  0.60041
USER: genes 14 Torsion [CA]-CB--CG-[CD] |==|  0.10932
USER: genes 15 Torsion [CB]-CG--CD-[OE2] |==|  0.16694
USER: genes 16 Torsion [N]-CA--C-[O] |==|  0.41461
USER: genes 17 Torsion [C]-CA--CB-[OG] |==|  0.81935
USER: genes 18 Torsion [CA]-CB--OG-[HG] |==|  0.63557
USER: genes 19 Torsion [C]-CA--N-[C] |==|  0.83967
USER: genes 20 Torsion [N]-C--CA-[N] |==|  0.35927
USER: genes 21 Torsion [C]-CA--N-[C] |==|  0.68931
USER: genes 22 Torsion [N]-C--CA-[N] |==|  0.49795
USER: genes 23 Torsion [C]-CA--CB-[CG] |==|  0.51980
USER: genes 24 Torsion [CA]-CB--CG-[CD1] |==|  0.83797
USER: genes 25 Torsion [C]-CA--CB-[CG] |==|  0.75832
USER: genes 26 Torsion [CA]-CB--CG-[CD] |==|  0.57149
USER: genes 27 Torsion [CB]-CG--CD-[NE] |==|  0.12322
USER: genes 28 Torsion [CG]-CD--NE-[HE] |==|  0.16416
ROOT
ATOM      1  CA  SER D 109     -11.722  -3.991  14.201  1.00 42.91 LIG 0.20  C 
ENDROOT
BRANCH 1 2
ATOM      2  C   SER D 109     -12.652  -4.970  13.509  1.00 45.81 LIG 0.24  C 
ATOM      3 O    SER D 109     -13.868  -4.788  13.521  1.00 48.15 LIG-0.27  OA
ATOM      4  N   LYS D 110     -12.092  -6.021  12.921  1.00 56.31 LIG-0.35  N 
ATOM      5 H    LYS D 110     -11.265  -6.246  12.995  1.00 56.31 LIG 0.16  HD
BRANCH 4 6
ATOM      6  CA  LYS D 110     -12.907  -6.893  12.068  1.00 51.35 LIG 0.18  C 
BRANCH 6 7
ATOM      7  CB  LYS D 110     -12.052  -7.429  10.915  1.00 62.96 LIG 0.04  C 
BRANCH 7 8
ATOM      8  CG  LYS D 110     -12.600  -7.021   9.555  1.00 63.09 LIG 0.00  C 
BRANCH 8 9
ATOM      9  CD  LYS D 110     -13.546  -8.058   8.963  1.00 65.88 LIG 0.03  C 
BRANCH 9 10
ATOM     10  CE  LYS D 110     -12.847  -8.840   7.847  1.00 57.43 LIG 0.23  C 
BRANCH 10 11
ATOM     11  NZ  LYS D 110     -12.841 -10.305   8.102  1.00 66.24 LIG-0.08  N 
ATOM     12 HZ3  LYS D 110     -13.564 -10.673   7.736  1.00 66.24 LIG 0.27  HD
ATOM     13 HZ1  LYS D 110     -12.111 -10.665   7.743  1.00 66.24 LIG 0.27  HD
ATOM     14 HZ2  LYS D 110     -12.845 -10.454   8.980  1.00 66.24 LIG 0.27  HD
ENDBRANCH 10 11
ENDBRANCH 9 10
ENDBRANCH 8 9
ENDBRANCH 7 8
ENDBRANCH 6 7
BRANCH 6 15
ATOM     15  C   LYS D 110     -13.795  -8.006  12.684  1.00 56.31 LIG 0.24  C 
ATOM     16  N   GLY D 111     -13.303  -8.813  13.628  1.00 59.27 LIG-0.35  N 
ATOM     17 H    GLY D 111     -13.748  -9.482  13.932  1.00 59.27 LIG 0.16  HD
ATOM     18 O    LYS D 110     -14.961  -8.113  12.308  1.00 65.56 LIG-0.27  OA
BRANCH 16 19
ATOM     19  CA  GLY D 111     -12.001  -8.682  14.251  1.00 50.66 LIG 0.23  C 
BRANCH 19 20
ATOM     20  C   GLY D 111     -12.128  -7.843  15.516  1.00 62.91 LIG 0.23  C 
ATOM     21  N   GLU D 112     -11.015  -7.357  16.075  1.00 61.49 LIG-0.35  N 
ATOM     22 H    GLU D 112     -11.034  -6.825  16.751  1.00 61.49 LIG 0.16  HD
ATOM     23 O    GLY D 111     -13.252  -7.664  16.013  1.00 69.91 LIG-0.27  OA
BRANCH 21 24
ATOM     24  CA  GLU D 112      -9.650  -7.658  15.622  1.00 68.08 LIG 0.16  C 
BRANCH 24 25
ATOM     25  CB  GLU D 112      -8.853  -6.372  15.390  1.00 70.52 LIG 0.04  C 
BRANCH 25 26
ATOM     26  CG  GLU D 112      -7.899  -6.448  14.215  1.00 75.61 LIG 0.12  C 
BRANCH 26 27
ATOM     27  CD  GLU D 112      -8.486  -7.196  13.038  1.00 80.23 LIG 0.17  C 
ATOM     28 OE2  GLU D 112      -9.534  -6.757  12.515  1.00 75.53 LIG-0.65  OA
ATOM     29 OE1  GLU D 112      -7.891  -8.216  12.634  1.00 82.12 LIG-0.65  OA
ENDBRANCH 26 27
ENDBRANCH 25 26
ENDBRANCH 24 25
BRANCH 24 30
ATOM     30  C   GLU D 112      -8.845  -8.636  16.473  1.00 62.49 LIG 0.22  C 
ATOM     31 O    GLU D 112      -7.996  -9.366  15.954  1.00 75.48 LIG-0.29  OA
ENDBRANCH 24 30
ENDBRANCH 21 24
ENDBRANCH 19 20
ENDBRANCH 16 19
ENDBRANCH 6 15
ENDBRANCH 4 6
ENDBRANCH 1 2
BRANCH 1 32
ATOM     32  CB  SER D 109     -11.908  -4.076  15.711  1.00 41.32 LIG 0.20  C 
BRANCH 32 33
ATOM     33 OG   SER D 109     -13.208  -3.652  16.083  1.00 47.11 LIG-0.40  OA
ATOM     34 HG   SER D 109     -13.154  -3.100  16.713  1.00 47.11 LIG 0.21  HD
ENDBRANCH 32 33
ENDBRANCH 1 32
BRANCH 1 35
ATOM     35  N   SER D 109     -11.927  -2.619  13.707  1.00 33.49 LIG-0.34  N 
ATOM     36 H    SER D 109     -12.134  -2.043  14.310  1.00 33.49 LIG 0.16  HD
ATOM     37  C   ARG D 108     -11.789  -2.341  12.411  1.00 29.49 LIG 0.24  C 
ATOM     38 O    ARG D 108     -11.358  -3.153  11.589  1.00 22.63 LIG-0.27  OA
BRANCH 37 39
ATOM     39  CA  ARG D 108     -12.163  -0.941  11.973  1.00 38.27 LIG 0.18  C 
BRANCH 39 40
ATOM     40  N   ARG D 108     -11.101  -0.316  11.174  1.00 22.07 LIG-0.35  N 
ATOM     41 H    ARG D 108     -10.969  -0.665  10.399  1.00 22.07 LIG 0.16  HD
ATOM     42  C   PHE D 107     -10.431   0.709  11.669  1.00 20.48 LIG 0.26  C 
ATOM     43 O    PHE D 107     -10.712   1.201  12.750  1.00 25.48 LIG-0.27  OA
BRANCH 42 44
ATOM     44  CA  PHE D 107      -9.299   1.299  10.837  1.00 18.28 LIG 0.40  C 
ATOM     45  N   PHE D 107      -8.727   2.413  11.565  1.00 19.80 LIG 0.61  N 
BRANCH 44 46
ATOM     46  CB  PHE D 107      -8.229   0.271  10.541  1.00 13.52 LIG 0.09  C 
BRANCH 46 47
ATOM     47  CG  PHE D 107      -7.015   0.842   9.872  1.00 17.60 LIG-0.06  A 
ATOM     48  CD1 PHE D 107      -7.119   1.510   8.652  1.00 15.50 LIG 0.01  A 
ATOM     49  CE1 PHE D 107      -5.990   2.046   8.045  1.00 13.30 LIG 0.00  A 
ATOM     50  CZ  PHE D 107      -4.729   1.884   8.611  1.00 10.86 LIG 0.00  A 
ATOM     51  CE2 PHE D 107      -4.609   1.238   9.820  1.00 17.40 LIG 0.00  A 
ATOM     52  CD2 PHE D 107      -5.749   0.711  10.454  1.00 18.44 LIG 0.01  A 
ENDBRANCH 46 47
ENDBRANCH 44 46
ENDBRANCH 42 44
ENDBRANCH 39 40
BRANCH 39 53
ATOM     53  CB  ARG D 108     -13.506  -0.958  11.231  1.00 35.28 LIG 0.04  C 
BRANCH 53 54
ATOM     54  CG  ARG D 108     -13.449  -1.230   9.738  1.00 41.69 LIG 0.02  C 
BRANCH 54 55
ATOM     55  CD  ARG D 108     -14.650  -0.638   8.949  1.00 52.08 LIG 0.14  C 
BRANCH 55 56
ATOM     56  NE  ARG D 108     -15.019   0.733   9.316  1.00 57.02 LIG-0.23  N 
ATOM     57  CZ  ARG D 108     -16.222   1.097   9.776  1.00 70.73 LIG 0.67  C 
ATOM     58  NH1 ARG D 108     -17.200   0.198   9.906  1.00 60.72 LIG-0.23  N 
ATOM     59  NH2 ARG D 108     -16.459   2.370  10.098  1.00 54.42 LIG-0.23  N 
ATOM     60 2HH1 ARG D 108     -17.970   0.440  10.202  1.00 60.72 LIG 0.17  HD
ATOM     61 1HH1 ARG D 108     -17.059  -0.624   9.694  1.00 60.72 LIG 0.17  HD
ATOM     62 2HH2 ARG D 108     -17.232   2.602  10.393  1.00 54.42 LIG 0.17  HD
ATOM     63 1HH2 ARG D 108     -15.837   2.958  10.009  1.00 54.42 LIG 0.17  HD
ATOM     64 HE   ARG D 108     -14.422   1.346   9.230  1.00 57.02 LIG 0.18  HD
ENDBRANCH 55 56
ENDBRANCH 54 55
ENDBRANCH 53 54
ENDBRANCH 39 53
ENDBRANCH 37 39
ENDBRANCH 1 35
TORSDOF 27
ENDMDL
MODEL 10
USER: ADFR SOLUTION from run 124
USER: SCORE 18.015282 LL:  -3.381 LR: -15.654 RR:   0.000 FEB:  -7.599
USER: RMSD 4.569834
USER: SEED 123
USER: STATUS no improvement in best in 5 clusters for 5 generations
USER: GENES 29
USER: genes 0 Translation |==|  0.45786 0.51020 0.50410
USER: genes 1 Rotation |==|  0.37280 0.45633 0.54248 0.97970
USER: genes 2 Torsion [N]-CA--C-[N] |==|  0.43142
USER: genes 3 Torsion [C]-N--CA-[CB] |==|  0.19471
USER: genes 4 Torsion [N]-CA--CB-[CG] |==|  0.41673
USER: genes 5 Torsion [CA]-CB--CG-[CD] |==|  0.66540
USER: genes 6 Torsion [CB]-CG--CD-[CE] |==|  0.42060
USER: genes 7 Torsion [CG]-CD--CE-[NZ] |==|  0.67570
USER: genes 8 Torsion [CD]-CE--NZ-[HZ3] |==|  0.30993
USER: genes 9 Torsion [N]-CA--C-[N] |==|  0.85199
USER: genes 10 Torsion [C]-N--CA-[C] |==|  0.21301
USER: genes 11 Torsion [N]-CA--C-[N] |==|  0.56956
USER: genes 12 Torsion [C]-N--CA-[CB] |==|  0.82877
USER: genes 13 Torsion [N]-CA--CB-[CG] |==|  0.79837
USER: genes 14 Torsion [CA]-CB--CG-[CD] |==|  0.91926
USER: genes 15 Torsion [CB]-CG--CD-[OE2] |==|  0.28795
USER: genes 16 Torsion [N]-CA--C-[O] |==|  0.47070
USER: genes 17 Torsion [C]-CA--CB-[OG] |==|  0.73941
USER: genes 18 Torsion [CA]-CB--OG-[HG] |==|  0.05454
USER: genes 19 Torsion [C]-CA--N-[C] |==|  0.75384
USER: genes 20 Torsion [N]-C--CA-[N] |==|  0.34685
USER: genes 21 Torsion [C]-CA--N-[C] |==|  0.70240
USER: genes 22 Torsion [N]-C--CA-[N] |==|  0.51414
USER: genes 23 Torsion [C]-CA--CB-[CG] |==|  0.49430
USER: genes 24 Torsion [CA]-CB--CG-[CD1] |==|  0.88004
USER: genes 25 Torsion [C]-CA--CB-[CG] |==|  0.26321
USER: genes 26 Torsion [CA]-CB--CG-[CD] |==|  0.43444
USER: genes 27 Torsion [CB]-CG--CD-[NE] |==|  0.03465
USER: genes 28 Torsion [CG]-CD--NE-[HE] |==|  0.72113
ROOT
ATOM      1  CA  SER D 109     -12.664  -3.171  14.288  1.00 42.91 LIG 0.20  C 
ENDROOT
BRANCH 1 2
ATOM      2  C   SER D 109     -13.910  -4.019  14.115  1.00 45.81 LIG 0.24  C 
ATOM      3 O    SER D 109     -14.975  -3.502  13.781  1.00 48.15 LIG-0.27  OA
ATOM      4  N   LYS D 110     -13.793  -5.320  14.357  1.00 56.31 LIG-0.35  N 
ATOM      5 H    LYS D 110     -13.104  -5.697  14.708  1.00 56.31 LIG 0.16  HD
BRANCH 4 6
ATOM      6  CA  LYS D 110     -14.898  -6.222  14.017  1.00 51.35 LIG 0.18  C 
BRANCH 6 7
ATOM      7  CB  LYS D 110     -15.016  -6.339  12.493  1.00 62.96 LIG 0.04  C 
BRANCH 7 8
ATOM      8  CG  LYS D 110     -15.559  -7.693  12.062  1.00 63.09 LIG 0.00  C 
BRANCH 8 9
ATOM      9  CD  LYS D 110     -14.598  -8.456  11.158  1.00 65.88 LIG 0.03  C 
BRANCH 9 10
ATOM     10  CE  LYS D 110     -14.799  -9.965  11.322  1.00 57.43 LIG 0.23  C 
BRANCH 10 11
ATOM     11  NZ  LYS D 110     -13.591 -10.640  11.867  1.00 66.24 LIG-0.08  N 
ATOM     12 HZ3  LYS D 110     -13.760 -10.932  12.691  1.00 66.24 LIG 0.27  HD
ATOM     13 HZ1  LYS D 110     -13.375 -11.328  11.346  1.00 66.24 LIG 0.27  HD
ATOM     14 HZ2  LYS D 110     -12.913 -10.063  11.891  1.00 66.24 LIG 0.27  HD
ENDBRANCH 10 11
ENDBRANCH 9 10
ENDBRANCH 8 9
ENDBRANCH 7 8
ENDBRANCH 6 7
BRANCH 6 15
ATOM     15  C   LYS D 110     -15.040  -7.605  14.707  1.00 56.31 LIG 0.24  C 
ATOM     16  N   GLY D 111     -14.015  -8.461  14.712  1.00 59.27 LIG-0.35  N 
ATOM     17 H    GLY D 111     -14.091  -9.260  15.021  1.00 59.27 LIG 0.16  HD
ATOM     18 O    LYS D 110     -16.098  -7.883  15.268  1.00 65.56 LIG-0.27  OA
BRANCH 16 19
ATOM     19  CA  GLY D 111     -12.682  -8.181  14.217  1.00 50.66 LIG 0.23  C 
BRANCH 19 20
ATOM     20  C   GLY D 111     -11.937  -7.322  15.230  1.00 62.91 LIG 0.23  C 
ATOM     21  N   GLU D 112     -10.940  -6.544  14.798  1.00 61.49 LIG-0.35  N 
ATOM     22 H    GLU D 112     -10.529  -5.992  15.315  1.00 61.49 LIG 0.16  HD
ATOM     23 O    GLY D 111     -12.250  -7.393  16.430  1.00 69.91 LIG-0.27  OA
BRANCH 21 24
ATOM     24  CA  GLU D 112     -10.425  -6.529  13.422  1.00 68.08 LIG 0.16  C 
BRANCH 24 25
ATOM     25  CB  GLU D 112      -9.856  -7.896  13.035  1.00 70.52 LIG 0.04  C 
BRANCH 25 26
ATOM     26  CG  GLU D 112      -8.536  -8.220  13.705  1.00 75.61 LIG 0.12  C 
BRANCH 26 27
ATOM     27  CD  GLU D 112      -7.725  -6.981  14.019  1.00 80.23 LIG 0.17  C 
ATOM     28 OE2  GLU D 112      -7.688  -6.576  15.203  1.00 75.53 LIG-0.65  OA
ATOM     29 OE1  GLU D 112      -7.120  -6.423  13.083  1.00 82.12 LIG-0.65  OA
ENDBRANCH 26 27
ENDBRANCH 25 26
ENDBRANCH 24 25
BRANCH 24 30
ATOM     30  C   GLU D 112     -11.374  -6.023  12.340  1.00 62.49 LIG 0.22  C 
ATOM     31 O    GLU D 112     -10.960  -5.797  11.199  1.00 75.48 LIG-0.29  OA
ENDBRANCH 24 30
ENDBRANCH 21 24
ENDBRANCH 19 20
ENDBRANCH 16 19
ENDBRANCH 6 15
ENDBRANCH 4 6
ENDBRANCH 1 2
BRANCH 1 32
ATOM     32  CB  SER D 109     -12.455  -2.851  15.763  1.00 41.32 LIG 0.20  C 
BRANCH 32 33
ATOM     33 OG   SER D 109     -13.040  -1.603  16.095  1.00 47.11 LIG-0.40  OA
ATOM     34 HG   SER D 109     -13.611  -1.398  15.514  1.00 47.11 LIG 0.21  HD
ENDBRANCH 32 33
ENDBRANCH 1 32
BRANCH 1 35
ATOM     35  N   SER D 109     -12.733  -1.948  13.473  1.00 33.49 LIG-0.34  N 
ATOM     36 H    SER D 109     -13.071  -1.265  13.870  1.00 33.49 LIG 0.16  HD
ATOM     37  C   ARG D 108     -12.290  -1.948  12.216  1.00 29.49 LIG 0.24  C 
ATOM     38 O    ARG D 108     -11.686  -2.900  11.714  1.00 22.63 LIG-0.27  OA
BRANCH 37 39
ATOM     39  CA  ARG D 108     -12.536  -0.692  11.408  1.00 38.27 LIG 0.18  C 
BRANCH 39 40
ATOM     40  N   ARG D 108     -11.292  -0.150  10.847  1.00 22.07 LIG-0.35  N 
ATOM     41 H    ARG D 108     -10.957  -0.596  10.192  1.00 22.07 LIG 0.16  HD
ATOM     42  C   PHE D 107     -10.773   0.951  11.358  1.00 20.48 LIG 0.26  C 
ATOM     43 O    PHE D 107     -11.332   1.576  12.245  1.00 25.48 LIG-0.27  OA
BRANCH 42 44
ATOM     44  CA  PHE D 107      -9.453   1.457  10.790  1.00 18.28 LIG 0.40  C 
ATOM     45  N   PHE D 107      -9.020   2.594  11.575  1.00 19.80 LIG 0.61  N 
BRANCH 44 46
ATOM     46  CB  PHE D 107      -8.388   0.380  10.810  1.00 13.52 LIG 0.09  C 
BRANCH 46 47
ATOM     47  CG  PHE D 107      -7.082   0.816  10.214  1.00 17.60 LIG-0.06  A 
ATOM     48  CD1 PHE D 107      -7.047   1.552   9.031  1.00 15.50 LIG 0.01  A 
ATOM     49  CE1 PHE D 107      -5.832   1.960   8.493  1.00 13.30 LIG 0.00  A 
ATOM     50  CZ  PHE D 107      -4.628   1.602   9.092  1.00 10.86 LIG 0.00  A 
ATOM     51  CE2 PHE D 107      -4.645   0.886  10.267  1.00 17.40 LIG 0.00  A 
ATOM     52  CD2 PHE D 107      -5.870   0.486  10.831  1.00 18.44 LIG 0.01  A 
ENDBRANCH 46 47
ENDBRANCH 44 46
ENDBRANCH 42 44
ENDBRANCH 39 40
BRANCH 39 53
ATOM     53  CB  ARG D 108     -13.589  -0.958  10.322  1.00 35.28 LIG 0.04  C 
BRANCH 53 54
ATOM     54  CG  ARG D 108     -15.023  -0.604  10.672  1.00 41.69 LIG 0.02  C 
BRANCH 54 55
ATOM     55  CD  ARG D 108     -15.920  -0.336   9.432  1.00 52.08 LIG 0.14  C 
BRANCH 55 56
ATOM     56  NE  ARG D 108     -15.340  -0.737   8.147  1.00 57.02 LIG-0.23  N 
ATOM     57  CZ  ARG D 108     -15.319  -1.992   7.683  1.00 70.73 LIG 0.67  C 
ATOM     58  NH1 ARG D 108     -15.823  -2.993   8.409  1.00 60.72 LIG-0.23  N 
ATOM     59  NH2 ARG D 108     -14.780  -2.257   6.491  1.00 54.42 LIG-0.23  N 
ATOM     60 2HH1 ARG D 108     -15.805  -3.796   8.104  1.00 60.72 LIG 0.17  HD
ATOM     61 1HH1 ARG D 108     -16.165  -2.833   9.181  1.00 60.72 LIG 0.17  HD
ATOM     62 2HH2 ARG D 108     -14.767  -3.063   6.195  1.00 54.42 LIG 0.17  HD
ATOM     63 1HH2 ARG D 108     -14.445  -1.620   6.021  1.00 54.42 LIG 0.17  HD
ATOM     64 HE   ARG D 108     -14.989  -0.124   7.657  1.00 57.02 LIG 0.18  HD
ENDBRANCH 55 56
ENDBRANCH 54 55
ENDBRANCH 53 54
ENDBRANCH 39 53
ENDBRANCH 37 39
ENDBRANCH 1 35
TORSDOF 27
ENDMDL
MODEL 11
USER: ADFR SOLUTION from run 139
USER: SCORE 19.146916 LL:  -5.367 LR: -15.466 RR:   0.000 FEB:  -7.412
USER: RMSD 4.657720
USER: SEED 138
USER: STATUS no improvement in best in 5 clusters for 5 generations
USER: GENES 29
USER: genes 0 Translation |==|  0.46668 0.53939 0.50473
USER: genes 1 Rotation |==|  0.39143 0.49762 0.45315 0.98581
USER: genes 2 Torsion [N]-CA--C-[N] |==|  0.29951
USER: genes 3 Torsion [C]-N--CA-[CB] |==|  0.38787
USER: genes 4 Torsion [N]-CA--CB-[CG] |==|  0.24729
USER: genes 5 Torsion [CA]-CB--CG-[CD] |==|  0.71582
USER: genes 6 Torsion [CB]-CG--CD-[CE] |==|  0.33825
USER: genes 7 Torsion [CG]-CD--CE-[NZ] |==|  0.44282
USER: genes 8 Torsion [CD]-CE--NZ-[HZ3] |==|  0.80712
USER: genes 9 Torsion [N]-CA--C-[N] |==|  0.90587
USER: genes 10 Torsion [C]-N--CA-[C] |==|  0.23828
USER: genes 11 Torsion [N]-CA--C-[N] |==|  0.51172
USER: genes 12 Torsion [C]-N--CA-[CB] |==|  0.35700
USER: genes 13 Torsion [N]-CA--CB-[CG] |==|  0.58703
USER: genes 14 Torsion [CA]-CB--CG-[CD] |==|  0.23371
USER: genes 15 Torsion [CB]-CG--CD-[OE2] |==|  0.54609
USER: genes 16 Torsion [N]-CA--C-[O] |==|  0.00148
USER: genes 17 Torsion [C]-CA--CB-[OG] |==|  0.71626
USER: genes 18 Torsion [CA]-CB--OG-[HG] |==|  0.45514
USER: genes 19 Torsion [C]-CA--N-[C] |==|  0.75187
USER: genes 20 Torsion [N]-C--CA-[N] |==|  0.37512
USER: genes 21 Torsion [C]-CA--N-[C] |==|  0.61930
USER: genes 22 Torsion [N]-C--CA-[N] |==|  0.29511
USER: genes 23 Torsion [C]-CA--CB-[CG] |==|  0.48479
USER: genes 24 Torsion [CA]-CB--CG-[CD1] |==|  0.66026
USER: genes 25 Torsion [C]-CA--CB-[CG] |==|  0.19714
USER: genes 26 Torsion [CA]-CB--CG-[CD] |==|  0.12042
USER: genes 27 Torsion [CB]-CG--CD-[NE] |==|  0.14554
USER: genes 28 Torsion [CG]-CD--NE-[HE] |==|  0.15191
ROOT
ATOM      1  CA  SER D 109     -12.466  -2.580  14.303  1.00 42.91 LIG 0.20  C 
ENDROOT
BRANCH 1 2
ATOM      2  C   SER D 109     -13.947  -2.885  14.180  1.00 45.81 LIG 0.24  C 
ATOM      3 O    SER D 109     -14.773  -2.223  14.806  1.00 48.15 LIG-0.27  OA
ATOM      4  N   LYS D 110     -14.291  -3.896  13.391  1.00 56.31 LIG-0.35  N 
ATOM      5 H    LYS D 110     -13.742  -4.455  13.037  1.00 56.31 LIG 0.16  HD
BRANCH 4 6
ATOM      6  CA  LYS D 110     -15.705  -4.115  13.071  1.00 51.35 LIG 0.18  C 
BRANCH 6 7
ATOM      7  CB  LYS D 110     -15.844  -4.506  11.595  1.00 62.96 LIG 0.04  C 
BRANCH 7 8
ATOM      8  CG  LYS D 110     -15.740  -6.010  11.388  1.00 63.09 LIG 0.00  C 
BRANCH 8 9
ATOM      9  CD  LYS D 110     -14.379  -6.441  10.855  1.00 65.88 LIG 0.03  C 
BRANCH 9 10
ATOM     10  CE  LYS D 110     -13.726  -7.442  11.812  1.00 57.43 LIG 0.23  C 
BRANCH 10 11
ATOM     11  NZ  LYS D 110     -12.671  -8.253  11.148  1.00 66.24 LIG-0.08  N 
ATOM     12 HZ3  LYS D 110     -13.047  -8.811  10.566  1.00 66.24 LIG 0.27  HD
ATOM     13 HZ1  LYS D 110     -12.107  -7.713  10.720  1.00 66.24 LIG 0.27  HD
ATOM     14 HZ2  LYS D 110     -12.225  -8.721  11.761  1.00 66.24 LIG 0.27  HD
ENDBRANCH 10 11
ENDBRANCH 9 10
ENDBRANCH 8 9
ENDBRANCH 7 8
ENDBRANCH 6 7
BRANCH 6 15
ATOM     15  C   LYS D 110     -16.601  -4.998  13.980  1.00 56.31 LIG 0.24  C 
ATOM     16  N   GLY D 111     -16.085  -6.057  14.607  1.00 59.27 LIG-0.35  N 
ATOM     17 H    GLY D 111     -16.574  -6.603  15.055  1.00 59.27 LIG 0.16  HD
ATOM     18 O    LYS D 110     -17.781  -4.688  14.131  1.00 65.56 LIG-0.27  OA
BRANCH 16 19
ATOM     19  CA  GLY D 111     -14.683  -6.426  14.621  1.00 50.66 LIG 0.23  C 
BRANCH 19 20
ATOM     20  C   GLY D 111     -13.976  -5.678  15.744  1.00 62.91 LIG 0.23  C 
ATOM     21  N   GLU D 112     -12.652  -5.817  15.870  1.00 61.49 LIG-0.35  N 
ATOM     22 H    GLU D 112     -12.195  -5.369  16.444  1.00 61.49 LIG 0.16  HD
ATOM     23 O    GLY D 111     -14.648  -4.992  16.532  1.00 69.91 LIG-0.27  OA
BRANCH 21 24
ATOM     24  CA  GLU D 112     -11.826  -6.729  15.067  1.00 68.08 LIG 0.16  C 
BRANCH 24 25
ATOM     25  CB  GLU D 112     -10.635  -5.991  14.450  1.00 70.52 LIG 0.04  C 
BRANCH 25 26
ATOM     26  CG  GLU D 112     -10.197  -6.549  13.112  1.00 75.61 LIG 0.12  C 
BRANCH 26 27
ATOM     27  CD  GLU D 112     -11.005  -5.995  11.958  1.00 80.23 LIG 0.17  C 
ATOM     28 OE2  GLU D 112     -10.965  -6.594  10.860  1.00 75.53 LIG-0.65  OA
ATOM     29 OE1  GLU D 112     -11.685  -4.968  12.157  1.00 82.12 LIG-0.65  OA
ENDBRANCH 26 27
ENDBRANCH 25 26
ENDBRANCH 24 25
BRANCH 24 30
ATOM     30  C   GLU D 112     -11.360  -8.013  15.748  1.00 62.49 LIG 0.22  C 
ATOM     31 O    GLU D 112     -11.683  -8.257  16.914  1.00 75.48 LIG-0.29  OA
ENDBRANCH 24 30
ENDBRANCH 21 24
ENDBRANCH 19 20
ENDBRANCH 16 19
ENDBRANCH 6 15
ENDBRANCH 4 6
ENDBRANCH 1 2
BRANCH 1 32
ATOM     32  CB  SER D 109     -12.068  -2.520  15.773  1.00 41.32 LIG 0.20  C 
BRANCH 32 33
ATOM     33 OG   SER D 109     -11.936  -1.176  16.204  1.00 47.11 LIG-0.40  OA
ATOM     34 HG   SER D 109     -11.937  -1.149  17.044  1.00 47.11 LIG 0.21  HD
ENDBRANCH 32 33
ENDBRANCH 1 32
BRANCH 1 35
ATOM     35  N   SER D 109     -12.115  -1.338  13.596  1.00 33.49 LIG-0.34  N 
ATOM     36 H    SER D 109     -12.157  -0.624  14.073  1.00 33.49 LIG 0.16  HD
ATOM     37  C   ARG D 108     -11.763  -1.368  12.311  1.00 29.49 LIG 0.24  C 
ATOM     38 O    ARG D 108     -11.578  -2.417  11.688  1.00 22.63 LIG-0.27  OA
BRANCH 37 39
ATOM     39  CA  ARG D 108     -11.564  -0.032  11.629  1.00 38.27 LIG 0.18  C 
BRANCH 39 40
ATOM     40  N   ARG D 108     -10.343  -0.010  10.814  1.00 22.07 LIG-0.35  N 
ATOM     41 H    ARG D 108     -10.202  -0.715  10.342  1.00 22.07 LIG 0.16  HD
ATOM     42  C   PHE D 107      -9.555   1.049  10.850  1.00 20.48 LIG 0.26  C 
ATOM     43 O    PHE D 107      -9.845   2.046  11.490  1.00 25.48 LIG-0.27  OA
BRANCH 42 44
ATOM     44  CA  PHE D 107      -8.268   1.017  10.035  1.00 18.28 LIG 0.40  C 
ATOM     45  N   PHE D 107      -8.435   1.872   8.878  1.00 19.80 LIG 0.61  N 
BRANCH 44 46
ATOM     46  CB  PHE D 107      -7.079   1.480  10.851  1.00 13.52 LIG 0.09  C 
BRANCH 46 47
ATOM     47  CG  PHE D 107      -5.769   1.344  10.135  1.00 17.60 LIG-0.06  A 
ATOM     48  CD1 PHE D 107      -4.734   0.584  10.678  1.00 15.50 LIG 0.01  A 
ATOM     49  CE1 PHE D 107      -3.527   0.455  10.001  1.00 13.30 LIG 0.00  A 
ATOM     50  CZ  PHE D 107      -3.307   1.120   8.799  1.00 10.86 LIG 0.00  A 
ATOM     51  CE2 PHE D 107      -4.321   1.864   8.243  1.00 17.40 LIG 0.00  A 
ATOM     52  CD2 PHE D 107      -5.555   1.984   8.909  1.00 18.44 LIG 0.01  A 
ENDBRANCH 46 47
ENDBRANCH 44 46
ENDBRANCH 42 44
ENDBRANCH 39 40
BRANCH 39 53
ATOM     53  CB  ARG D 108     -12.809   0.335  10.809  1.00 35.28 LIG 0.04  C 
BRANCH 53 54
ATOM     54  CG  ARG D 108     -14.049   0.716  11.598  1.00 41.69 LIG 0.02  C 
BRANCH 54 55
ATOM     55  CD  ARG D 108     -13.759   1.660  12.798  1.00 52.08 LIG 0.14  C 
BRANCH 55 56
ATOM     56  NE  ARG D 108     -12.995   2.867  12.468  1.00 57.02 LIG-0.23  N 
ATOM     57  CZ  ARG D 108     -11.857   3.233  13.071  1.00 70.73 LIG 0.67  C 
ATOM     58  NH1 ARG D 108     -11.349   2.500  14.064  1.00 60.72 LIG-0.23  N 
ATOM     59  NH2 ARG D 108     -11.226   4.345  12.690  1.00 54.42 LIG-0.23  N 
ATOM     60 2HH1 ARG D 108     -10.618   2.742  14.446  1.00 60.72 LIG 0.17  HD
ATOM     61 1HH1 ARG D 108     -11.754   1.786  14.322  1.00 60.72 LIG 0.17  HD
ATOM     62 2HH2 ARG D 108     -10.495   4.578  13.078  1.00 54.42 LIG 0.17  HD
ATOM     63 1HH2 ARG D 108     -11.550   4.828  12.057  1.00 54.42 LIG 0.17  HD
ATOM     64 HE   ARG D 108     -13.299   3.376  11.845  1.00 57.02 LIG 0.18  HD
ENDBRANCH 55 56
ENDBRANCH 54 55
ENDBRANCH 53 54
ENDBRANCH 39 53
ENDBRANCH 37 39
ENDBRANCH 1 35
TORSDOF 27
ENDMDL
MODEL 12
USER: ADFR SOLUTION from run 50
USER: SCORE 17.138854 LL:  -3.627 LR: -15.366 RR:   0.000 FEB:  -7.312
USER: RMSD 3.907193
USER: SEED 49
USER: STATUS no improvement in best in 8 clusters for 5 generations
USER: GENES 29
USER: genes 0 Translation |==|  0.41032 0.46903 0.43476
USER: genes 1 Rotation |==|  0.42419 0.30687 0.57648 0.94845
USER: genes 2 Torsion [N]-CA--C-[N] |==|  0.29629
USER: genes 3 Torsion [C]-N--CA-[CB] |==|  0.47778
USER: genes 4 Torsion [N]-CA--CB-[CG] |==|  0.56963
USER: genes 5 Torsion [CA]-CB--CG-[CD] |==|  0.76505
USER: genes 6 Torsion [CB]-CG--CD-[CE] |==|  0.70978
USER: genes 7 Torsion [CG]-CD--CE-[NZ] |==|  0.33995
USER: genes 8 Torsion [CD]-CE--NZ-[HZ3] |==|  0.24047
USER: genes 9 Torsion [N]-CA--C-[N] |==|  0.83403
USER: genes 10 Torsion [C]-N--CA-[C] |==|  0.24454
USER: genes 11 Torsion [N]-CA--C-[N] |==|  0.58686
USER: genes 12 Torsion [C]-N--CA-[CB] |==|  0.81995
USER: genes 13 Torsion [N]-CA--CB-[CG] |==|  0.83977
USER: genes 14 Torsion [CA]-CB--CG-[CD] |==|  0.26733
USER: genes 15 Torsion [CB]-CG--CD-[OE2] |==|  0.64328
USER: genes 16 Torsion [N]-CA--C-[O] |==|  0.39990
USER: genes 17 Torsion [C]-CA--CB-[OG] |==|  0.66606
USER: genes 18 Torsion [CA]-CB--OG-[HG] |==|  0.29339
USER: genes 19 Torsion [C]-CA--N-[C] |==|  0.73388
USER: genes 20 Torsion [N]-C--CA-[N] |==|  0.42995
USER: genes 21 Torsion [C]-CA--N-[C] |==|  0.71563
USER: genes 22 Torsion [N]-C--CA-[N] |==|  0.49023
USER: genes 23 Torsion [C]-CA--CB-[CG] |==|  0.41967
USER: genes 24 Torsion [CA]-CB--CG-[CD1] |==|  0.89039
USER: genes 25 Torsion [C]-CA--CB-[CG] |==|  0.20149
USER: genes 26 Torsion [CA]-CB--CG-[CD] |==|  0.21693
USER: genes 27 Torsion [CB]-CG--CD-[NE] |==|  0.95451
USER: genes 28 Torsion [CG]-CD--NE-[HE] |==|  0.21925
ROOT
ATOM      1  CA  SER D 109     -13.734  -4.005  12.624  1.00 42.91 LIG 0.20  C 
ENDROOT
BRANCH 1 2
ATOM      2  C   SER D 109     -14.365  -5.045  11.719  1.00 45.81 LIG 0.24  C 
ATOM      3 O    SER D 109     -15.589  -5.129  11.624  1.00 48.15 LIG-0.27  OA
ATOM      4  N   LYS D 110     -13.541  -5.855  11.063  1.00 56.31 LIG-0.35  N 
ATOM      5 H    LYS D 110     -12.693  -5.909  11.196  1.00 56.31 LIG 0.16  HD
BRANCH 4 6
ATOM      6  CA  LYS D 110     -14.073  -6.743  10.025  1.00 51.35 LIG 0.18  C 
BRANCH 6 7
ATOM      7  CB  LYS D 110     -12.914  -7.422   9.286  1.00 62.96 LIG 0.04  C 
BRANCH 7 8
ATOM      8  CG  LYS D 110     -13.301  -7.847   7.877  1.00 63.09 LIG 0.00  C 
BRANCH 8 9
ATOM      9  CD  LYS D 110     -13.990  -9.205   7.837  1.00 65.88 LIG 0.03  C 
BRANCH 9 10
ATOM     10  CE  LYS D 110     -13.026 -10.274   7.314  1.00 57.43 LIG 0.23  C 
BRANCH 10 11
ATOM     11  NZ  LYS D 110     -12.843 -11.390   8.279  1.00 66.24 LIG-0.08  N 
ATOM     12 HZ3  LYS D 110     -13.480 -11.999   8.154  1.00 66.24 LIG 0.27  HD
ATOM     13 HZ1  LYS D 110     -12.046 -11.765   8.152  1.00 66.24 LIG 0.27  HD
ATOM     14 HZ2  LYS D 110     -12.893 -11.076   9.110  1.00 66.24 LIG 0.27  HD
ENDBRANCH 10 11
ENDBRANCH 9 10
ENDBRANCH 8 9
ENDBRANCH 7 8
ENDBRANCH 6 7
BRANCH 6 15
ATOM     15  C   LYS D 110     -15.212  -7.748  10.343  1.00 56.31 LIG 0.24  C 
ATOM     16  N   GLY D 111     -15.038  -8.688  11.275  1.00 59.27 LIG-0.35  N 
ATOM     17 H    GLY D 111     -15.623  -9.301  11.417  1.00 59.27 LIG 0.16  HD
ATOM     18 O    LYS D 110     -16.279  -7.646   9.742  1.00 65.56 LIG-0.27  OA
BRANCH 16 19
ATOM     19  CA  GLY D 111     -13.885  -8.807  12.145  1.00 50.66 LIG 0.23  C 
BRANCH 19 20
ATOM     20  C   GLY D 111     -14.108  -7.967  13.396  1.00 62.91 LIG 0.23  C 
ATOM     21  N   GLU D 112     -13.047  -7.418  13.995  1.00 61.49 LIG-0.35  N 
ATOM     22 H    GLU D 112     -13.121  -6.883  14.665  1.00 61.49 LIG 0.16  HD
ATOM     23 O    GLY D 111     -15.259  -7.846  13.847  1.00 69.91 LIG-0.27  OA
BRANCH 21 24
ATOM     24  CA  GLU D 112     -11.650  -7.648  13.600  1.00 68.08 LIG 0.16  C 
BRANCH 24 25
ATOM     25  CB  GLU D 112     -11.253  -9.110  13.819  1.00 70.52 LIG 0.04  C 
BRANCH 25 26
ATOM     26  CG  GLU D 112     -11.425  -9.582  15.248  1.00 75.61 LIG 0.12  C 
BRANCH 26 27
ATOM     27  CD  GLU D 112     -12.741 -10.297  15.470  1.00 80.23 LIG 0.17  C 
ATOM     28 OE2  GLU D 112     -13.470  -9.926  16.416  1.00 75.53 LIG-0.65  OA
ATOM     29 OE1  GLU D 112     -13.045 -11.223  14.690  1.00 82.12 LIG-0.65  OA
ENDBRANCH 26 27
ENDBRANCH 25 26
ENDBRANCH 24 25
BRANCH 24 30
ATOM     30  C   GLU D 112     -11.248  -7.191  12.201  1.00 62.49 LIG 0.22  C 
ATOM     31 O    GLU D 112     -10.125  -6.723  11.993  1.00 75.48 LIG-0.29  OA
ENDBRANCH 24 30
ENDBRANCH 21 24
ENDBRANCH 19 20
ENDBRANCH 16 19
ENDBRANCH 6 15
ENDBRANCH 4 6
ENDBRANCH 1 2
BRANCH 1 32
ATOM     32  CB  SER D 109     -14.372  -4.064  14.007  1.00 41.32 LIG 0.20  C 
BRANCH 32 33
ATOM     33 OG   SER D 109     -14.972  -2.822  14.337  1.00 47.11 LIG-0.40  OA
ATOM     34 HG   SER D 109     -15.807  -2.890  14.278  1.00 47.11 LIG 0.21  HD
ENDBRANCH 32 33
ENDBRANCH 1 32
BRANCH 1 35
ATOM     35  N   SER D 109     -13.831  -2.657  12.040  1.00 33.49 LIG-0.34  N 
ATOM     36 H    SER D 109     -14.573  -2.250  12.188  1.00 33.49 LIG 0.16  HD
ATOM     37  C   ARG D 108     -12.817  -2.149  11.341  1.00 29.49 LIG 0.24  C 
ATOM     38 O    ARG D 108     -11.714  -2.697  11.259  1.00 22.63 LIG-0.27  OA
BRANCH 37 39
ATOM     39  CA  ARG D 108     -13.061  -0.823  10.654  1.00 38.27 LIG 0.18  C 
BRANCH 39 40
ATOM     40  N   ARG D 108     -11.812  -0.082  10.437  1.00 22.07 LIG-0.35  N 
ATOM     41 H    ARG D 108     -11.331  -0.354   9.778  1.00 22.07 LIG 0.16  HD
ATOM     42  C   PHE D 107     -11.506   0.926  11.234  1.00 20.48 LIG 0.26  C 
ATOM     43 O    PHE D 107     -12.264   1.306  12.111  1.00 25.48 LIG-0.27  OA
BRANCH 42 44
ATOM     44  CA  PHE D 107     -10.178   1.639  11.016  1.00 18.28 LIG 0.40  C 
ATOM     45  N   PHE D 107     -10.095   2.750  11.942  1.00 19.80 LIG 0.61  N 
BRANCH 44 46
ATOM     46  CB  PHE D 107      -9.003   0.707  11.223  1.00 13.52 LIG 0.09  C 
BRANCH 46 47
ATOM     47  CG  PHE D 107      -7.796   1.072  10.412  1.00 17.60 LIG-0.06  A 
ATOM     48  CD1 PHE D 107      -7.927   1.525   9.100  1.00 15.50 LIG 0.01  A 
ATOM     49  CE1 PHE D 107      -6.803   1.871   8.360  1.00 13.30 LIG 0.00  A 
ATOM     50  CZ  PHE D 107      -5.525   1.725   8.890  1.00 10.86 LIG 0.00  A 
ATOM     51  CE2 PHE D 107      -5.377   1.291  10.187  1.00 17.40 LIG 0.00  A 
ATOM     52  CD2 PHE D 107      -6.510   0.958  10.952  1.00 18.44 LIG 0.01  A 
ENDBRANCH 46 47
ENDBRANCH 44 46
ENDBRANCH 42 44
ENDBRANCH 39 40
BRANCH 39 53
ATOM     53  CB  ARG D 108     -13.836  -1.038   9.346  1.00 35.28 LIG 0.04  C 
BRANCH 53 54
ATOM     54  CG  ARG D 108     -15.303  -1.407   9.485  1.00 41.69 LIG 0.02  C 
BRANCH 54 55
ATOM     55  CD  ARG D 108     -16.222  -0.199   9.815  1.00 52.08 LIG 0.14  C 
BRANCH 55 56
ATOM     56  NE  ARG D 108     -15.526   0.996  10.305  1.00 57.02 LIG-0.23  N 
ATOM     57  CZ  ARG D 108     -15.456   1.358  11.591  1.00 70.73 LIG 0.67  C 
ATOM     58  NH1 ARG D 108     -16.063   0.636  12.535  1.00 60.72 LIG-0.23  N 
ATOM     59  NH2 ARG D 108     -14.785   2.458  11.941  1.00 54.42 LIG-0.23  N 
ATOM     60 2HH1 ARG D 108     -16.013   0.876  13.359  1.00 60.72 LIG 0.17  HD
ATOM     61 1HH1 ARG D 108     -16.505  -0.070  12.318  1.00 60.72 LIG 0.17  HD
ATOM     62 2HH2 ARG D 108     -14.741   2.690  12.767  1.00 54.42 LIG 0.17  HD
ATOM     63 1HH2 ARG D 108     -14.398   2.935  11.339  1.00 54.42 LIG 0.17  HD
ATOM     64 HE   ARG D 108     -15.137   1.498   9.726  1.00 57.02 LIG 0.18  HD
ENDBRANCH 55 56
ENDBRANCH 54 55
ENDBRANCH 53 54
ENDBRANCH 39 53
ENDBRANCH 37 39
ENDBRANCH 1 35
TORSDOF 27
ENDMDL
MODEL 13
USER: ADFR SOLUTION from run 75
USER: SCORE 18.480512 LL:  -5.218 LR: -15.177 RR:   0.000 FEB:  -7.123
USER: RMSD 4.188594
USER: SEED 74
USER: STATUS no improvement in best in 2 clusters for 5 generations
USER: GENES 29
USER: genes 0 Translation |==|  0.43407 0.47580 0.46766
USER: genes 1 Rotation |==|  0.44147 0.47515 0.52615 0.99525
USER: genes 2 Torsion [N]-CA--C-[N] |==|  0.31257
USER: genes 3 Torsion [C]-N--CA-[CB] |==|  0.43603
USER: genes 4 Torsion [N]-CA--CB-[CG] |==|  0.97644
USER: genes 5 Torsion [CA]-CB--CG-[CD] |==|  0.35026
USER: genes 6 Torsion [CB]-CG--CD-[CE] |==|  0.07297
USER: genes 7 Torsion [CG]-CD--CE-[NZ] |==|  0.62422
USER: genes 8 Torsion [CD]-CE--NZ-[HZ3] |==|  0.17061
USER: genes 9 Torsion [N]-CA--C-[N] |==|  0.89956
USER: genes 10 Torsion [C]-N--CA-[C] |==|  0.75539
USER: genes 11 Torsion [N]-CA--C-[N] |==|  0.49766
USER: genes 12 Torsion [C]-N--CA-[CB] |==|  0.81623
USER: genes 13 Torsion [N]-CA--CB-[CG] |==|  0.75586
USER: genes 14 Torsion [CA]-CB--CG-[CD] |==|  0.33939
USER: genes 15 Torsion [CB]-CG--CD-[OE2] |==|  0.64448
USER: genes 16 Torsion [N]-CA--C-[O] |==|  0.60585
USER: genes 17 Torsion [C]-CA--CB-[OG] |==|  0.09134
USER: genes 18 Torsion [CA]-CB--OG-[HG] |==|  0.25965
USER: genes 19 Torsion [C]-CA--N-[C] |==|  0.62900
USER: genes 20 Torsion [N]-C--CA-[N] |==|  0.48817
USER: genes 21 Torsion [C]-CA--N-[C] |==|  0.67767
USER: genes 22 Torsion [N]-C--CA-[N] |==|  0.49339
USER: genes 23 Torsion [C]-CA--CB-[CG] |==|  0.49784
USER: genes 24 Torsion [CA]-CB--CG-[CD1] |==|  0.88998
USER: genes 25 Torsion [C]-CA--CB-[CG] |==|  0.75617
USER: genes 26 Torsion [CA]-CB--CG-[CD] |==|  0.30672
USER: genes 27 Torsion [CB]-CG--CD-[NE] |==|  0.40754
USER: genes 28 Torsion [CG]-CD--NE-[HE] |==|  0.14705
ROOT
ATOM      1  CA  SER D 109     -13.199  -3.868  13.414  1.00 42.91 LIG 0.20  C 
ENDROOT
BRANCH 1 2
ATOM      2  C   SER D 109     -14.514  -4.570  13.131  1.00 45.81 LIG 0.24  C 
ATOM      3 O    SER D 109     -15.531  -4.260  13.749  1.00 48.15 LIG-0.27  OA
ATOM      4  N   LYS D 110     -14.500  -5.530  12.214  1.00 56.31 LIG-0.35  N 
ATOM      5 H    LYS D 110     -13.791  -5.858  11.852  1.00 56.31 LIG 0.16  HD
BRANCH 4 6
ATOM      6  CA  LYS D 110     -15.766  -6.108  11.751  1.00 51.35 LIG 0.18  C 
BRANCH 6 7
ATOM      7  CB  LYS D 110     -15.571  -6.728  10.363  1.00 62.96 LIG 0.04  C 
BRANCH 7 8
ATOM      8  CG  LYS D 110     -14.208  -6.398   9.773  1.00 63.09 LIG 0.00  C 
BRANCH 8 9
ATOM      9  CD  LYS D 110     -13.433  -7.638   9.343  1.00 65.88 LIG 0.03  C 
BRANCH 9 10
ATOM     10  CE  LYS D 110     -14.399  -8.777   9.004  1.00 57.43 LIG 0.23  C 
BRANCH 10 11
ATOM     11  NZ  LYS D 110     -13.966 -10.075   9.585  1.00 66.24 LIG-0.08  N 
ATOM     12 HZ3  LYS D 110     -13.944 -10.011  10.473  1.00 66.24 LIG 0.27  HD
ATOM     13 HZ1  LYS D 110     -14.540 -10.713   9.348  1.00 66.24 LIG 0.27  HD
ATOM     14 HZ2  LYS D 110     -13.154 -10.281   9.283  1.00 66.24 LIG 0.27  HD
ENDBRANCH 10 11
ENDBRANCH 9 10
ENDBRANCH 8 9
ENDBRANCH 7 8
ENDBRANCH 6 7
BRANCH 6 15
ATOM     15  C   LYS D 110     -16.606  -7.030  12.674  1.00 56.31 LIG 0.24  C 
ATOM     16  N   GLY D 111     -16.001  -7.876  13.510  1.00 59.27 LIG-0.35  N 
ATOM     17 H    GLY D 111     -16.441  -8.448  13.976  1.00 59.27 LIG 0.16  HD
ATOM     18 O    LYS D 110     -17.833  -6.947  12.639  1.00 65.56 LIG-0.27  OA
BRANCH 16 19
ATOM     19  CA  GLY D 111     -14.572  -7.951  13.742  1.00 50.66 LIG 0.23  C 
BRANCH 19 20
ATOM     20  C   GLY D 111     -13.944  -8.901  12.731  1.00 62.91 LIG 0.23  C 
ATOM     21  N   GLU D 112     -12.622  -9.093  12.769  1.00 61.49 LIG-0.35  N 
ATOM     22 H    GLU D 112     -12.225  -9.666  12.265  1.00 61.49 LIG 0.16  HD
ATOM     23 O    GLY D 111     -14.668  -9.441  11.877  1.00 69.91 LIG-0.27  OA
BRANCH 21 24
ATOM     24  CA  GLU D 112     -11.696  -8.371  13.652  1.00 68.08 LIG 0.16  C 
BRANCH 24 25
ATOM     25  CB  GLU D 112     -11.634  -6.886  13.285  1.00 70.52 LIG 0.04  C 
BRANCH 25 26
ATOM     26  CG  GLU D 112     -10.603  -6.563  12.223  1.00 75.61 LIG 0.12  C 
BRANCH 26 27
ATOM     27  CD  GLU D 112     -11.209  -5.894  11.008  1.00 80.23 LIG 0.17  C 
ATOM     28 OE2  GLU D 112     -10.966  -6.375   9.879  1.00 75.53 LIG-0.65  OA
ATOM     29 OE1  GLU D 112     -11.935  -4.895  11.188  1.00 82.12 LIG-0.65  OA
ENDBRANCH 26 27
ENDBRANCH 25 26
ENDBRANCH 24 25
BRANCH 24 30
ATOM     30  C   GLU D 112     -11.908  -8.538  15.154  1.00 62.49 LIG 0.22  C 
ATOM     31 O    GLU D 112     -11.750  -7.583  15.919  1.00 75.48 LIG-0.29  OA
ENDBRANCH 24 30
ENDBRANCH 21 24
ENDBRANCH 19 20
ENDBRANCH 16 19
ENDBRANCH 6 15
ENDBRANCH 4 6
ENDBRANCH 1 2
BRANCH 1 32
ATOM     32  CB  SER D 109     -12.857  -3.981  14.894  1.00 41.32 LIG 0.20  C 
BRANCH 32 33
ATOM     33 OG   SER D 109     -13.325  -5.209  15.427  1.00 47.11 LIG-0.40  OA
ATOM     34 HG   SER D 109     -12.712  -5.782  15.390  1.00 47.11 LIG 0.21  HD
ENDBRANCH 32 33
ENDBRANCH 1 32
BRANCH 1 35
ATOM     35  N   SER D 109     -13.238  -2.464  12.973  1.00 33.49 LIG-0.34  N 
ATOM     36 H    SER D 109     -13.943  -2.030  13.203  1.00 33.49 LIG 0.16  HD
ATOM     37  C   ARG D 108     -12.228  -1.948  12.272  1.00 29.49 LIG 0.24  C 
ATOM     38 O    ARG D 108     -11.169  -2.549  12.074  1.00 22.63 LIG-0.27  OA
BRANCH 37 39
ATOM     39  CA  ARG D 108     -12.419  -0.546  11.736  1.00 38.27 LIG 0.18  C 
BRANCH 39 40
ATOM     40  N   ARG D 108     -11.210  -0.046  11.069  1.00 22.07 LIG-0.35  N 
ATOM     41 H    ARG D 108     -10.973  -0.477  10.363  1.00 22.07 LIG 0.16  HD
ATOM     42  C   PHE D 107     -10.576   0.999  11.569  1.00 20.48 LIG 0.26  C 
ATOM     43 O    PHE D 107     -11.002   1.608  12.536  1.00 25.48 LIG-0.27  OA
BRANCH 42 44
ATOM     44  CA  PHE D 107      -9.294   1.458  10.885  1.00 18.28 LIG 0.40  C 
ATOM     45  N   PHE D 107      -8.810   2.641  11.565  1.00 19.80 LIG 0.61  N 
BRANCH 44 46
ATOM     46  CB  PHE D 107      -8.232   0.379  10.906  1.00 13.52 LIG 0.09  C 
BRANCH 46 47
ATOM     47  CG  PHE D 107      -6.957   0.779  10.227  1.00 17.60 LIG-0.06  A 
ATOM     48  CD1 PHE D 107      -6.977   1.519   9.046  1.00 15.50 LIG 0.01  A 
ATOM     49  CE1 PHE D 107      -5.789   1.894   8.431  1.00 13.30 LIG 0.00  A 
ATOM     50  CZ  PHE D 107      -4.559   1.497   8.948  1.00 10.86 LIG 0.00  A 
ATOM     51  CE2 PHE D 107      -4.520   0.776  10.119  1.00 17.40 LIG 0.00  A 
ATOM     52  CD2 PHE D 107      -5.717   0.410  10.762  1.00 18.44 LIG 0.01  A 
ENDBRANCH 46 47
ENDBRANCH 44 46
ENDBRANCH 42 44
ENDBRANCH 39 40
BRANCH 39 53
ATOM     53  CB  ARG D 108     -13.647  -0.493  10.815  1.00 35.28 LIG 0.04  C 
BRANCH 53 54
ATOM     54  CG  ARG D 108     -13.408  -0.822   9.352  1.00 41.69 LIG 0.02  C 
BRANCH 54 55
ATOM     55  CD  ARG D 108     -14.035  -2.172   8.906  1.00 52.08 LIG 0.14  C 
BRANCH 55 56
ATOM     56  NE  ARG D 108     -14.516  -2.207   7.521  1.00 57.02 LIG-0.23  N 
ATOM     57  CZ  ARG D 108     -15.749  -2.577   7.155  1.00 70.73 LIG 0.67  C 
ATOM     58  NH1 ARG D 108     -16.637  -2.976   8.068  1.00 60.72 LIG-0.23  N 
ATOM     59  NH2 ARG D 108     -16.097  -2.562   5.867  1.00 54.42 LIG-0.23  N 
ATOM     60 2HH1 ARG D 108     -17.427  -3.213   7.825  1.00 60.72 LIG 0.17  HD
ATOM     61 1HH1 ARG D 108     -16.418  -2.997   8.900  1.00 60.72 LIG 0.17  HD
ATOM     62 2HH2 ARG D 108     -16.890  -2.801   5.634  1.00 54.42 LIG 0.17  HD
ATOM     63 1HH2 ARG D 108     -15.529  -2.315   5.271  1.00 54.42 LIG 0.17  HD
ATOM     64 HE   ARG D 108     -13.967  -1.974   6.901  1.00 57.02 LIG 0.18  HD
ENDBRANCH 55 56
ENDBRANCH 54 55
ENDBRANCH 53 54
ENDBRANCH 39 53
ENDBRANCH 37 39
ENDBRANCH 1 35
TORSDOF 27
ENDMDL
MODEL 14
USER: ADFR SOLUTION from run 65
USER: SCORE 19.299980 LL:  -5.990 LR: -15.163 RR:   0.000 FEB:  -7.108
USER: RMSD 4.264616
USER: SEED 64
USER: STATUS no improvement in best in 6 clusters for 5 generations
USER: GENES 29
USER: genes 0 Translation |==|  0.45274 0.47215 0.48021
USER: genes 1 Rotation |==|  0.39260 0.53660 0.51761 0.98664
USER: genes 2 Torsion [N]-CA--C-[N] |==|  0.30690
USER: genes 3 Torsion [C]-N--CA-[CB] |==|  0.37741
USER: genes 4 Torsion [N]-CA--CB-[CG] |==|  0.94990
USER: genes 5 Torsion [CA]-CB--CG-[CD] |==|  0.41996
USER: genes 6 Torsion [CB]-CG--CD-[CE] |==|  0.67843
USER: genes 7 Torsion [CG]-CD--CE-[NZ] |==|  0.20898
USER: genes 8 Torsion [CD]-CE--NZ-[HZ3] |==|  0.95196
USER: genes 9 Torsion [N]-CA--C-[N] |==|  0.91952
USER: genes 10 Torsion [C]-N--CA-[C] |==|  0.75980
USER: genes 11 Torsion [N]-CA--C-[N] |==|  0.54278
USER: genes 12 Torsion [C]-N--CA-[CB] |==|  0.82809
USER: genes 13 Torsion [N]-CA--CB-[CG] |==|  0.78909
USER: genes 14 Torsion [CA]-CB--CG-[CD] |==|  0.23906
USER: genes 15 Torsion [CB]-CG--CD-[OE2] |==|  0.00541
USER: genes 16 Torsion [N]-CA--C-[O] |==|  0.60053
USER: genes 17 Torsion [C]-CA--CB-[OG] |==|  0.75517
USER: genes 18 Torsion [CA]-CB--OG-[HG] |==|  0.00677
USER: genes 19 Torsion [C]-CA--N-[C] |==|  0.69207
USER: genes 20 Torsion [N]-C--CA-[N] |==|  0.31843
USER: genes 21 Torsion [C]-CA--N-[C] |==|  0.64264
USER: genes 22 Torsion [N]-C--CA-[N] |==|  0.56417
USER: genes 23 Torsion [C]-CA--CB-[CG] |==|  0.43855
USER: genes 24 Torsion [CA]-CB--CG-[CD1] |==|  0.88123
USER: genes 25 Torsion [C]-CA--CB-[CG] |==|  0.32029
USER: genes 26 Torsion [CA]-CB--CG-[CD] |==|  0.98626
USER: genes 27 Torsion [CB]-CG--CD-[NE] |==|  0.27264
USER: genes 28 Torsion [CG]-CD--NE-[HE] |==|  0.80117
ROOT
ATOM      1  CA  SER D 109     -12.779  -3.942  13.715  1.00 42.91 LIG 0.20  C 
ENDROOT
BRANCH 1 2
ATOM      2  C   SER D 109     -14.154  -4.560  13.882  1.00 45.81 LIG 0.24  C 
ATOM      3 O    SER D 109     -14.973  -4.061  14.653  1.00 48.15 LIG-0.27  OA
ATOM      4  N   LYS D 110     -14.412  -5.657  13.179  1.00 56.31 LIG-0.35  N 
ATOM      5 H    LYS D 110     -13.831  -6.102  12.727  1.00 56.31 LIG 0.16  HD
BRANCH 4 6
ATOM      6  CA  LYS D 110     -15.779  -6.187  13.139  1.00 51.35 LIG 0.18  C 
BRANCH 6 7
ATOM      7  CB  LYS D 110     -16.137  -6.580  11.701  1.00 62.96 LIG 0.04  C 
BRANCH 7 8
ATOM      8  CG  LYS D 110     -15.210  -5.933  10.682  1.00 63.09 LIG 0.00  C 
BRANCH 8 9
ATOM      9  CD  LYS D 110     -15.049  -6.767   9.417  1.00 65.88 LIG 0.03  C 
BRANCH 9 10
ATOM     10  CE  LYS D 110     -13.598  -7.236   9.271  1.00 57.43 LIG 0.23  C 
BRANCH 10 11
ATOM     11  NZ  LYS D 110     -13.267  -8.345  10.205  1.00 66.24 LIG-0.08  N 
ATOM     12 HZ3  LYS D 110     -13.876  -8.381  10.852  1.00 66.24 LIG 0.27  HD
ATOM     13 HZ1  LYS D 110     -13.261  -9.115   9.759  1.00 66.24 LIG 0.27  HD
ATOM     14 HZ2  LYS D 110     -12.463  -8.203  10.562  1.00 66.24 LIG 0.27  HD
ENDBRANCH 10 11
ENDBRANCH 9 10
ENDBRANCH 8 9
ENDBRANCH 7 8
ENDBRANCH 6 7
BRANCH 6 15
ATOM     15  C   LYS D 110     -16.247  -7.262  14.156  1.00 56.31 LIG 0.24  C 
ATOM     16  N   GLY D 111     -15.369  -8.124  14.674  1.00 59.27 LIG-0.35  N 
ATOM     17 H    GLY D 111     -15.614  -8.773  15.181  1.00 59.27 LIG 0.16  HD
ATOM     18 O    LYS D 110     -17.429  -7.286  14.493  1.00 65.56 LIG-0.27  OA
BRANCH 16 19
ATOM     19  CA  GLY D 111     -13.935  -8.091  14.467  1.00 50.66 LIG 0.23  C 
BRANCH 19 20
ATOM     20  C   GLY D 111     -13.592  -8.851  13.192  1.00 62.91 LIG 0.23  C 
ATOM     21  N   GLU D 112     -12.320  -9.207  12.983  1.00 61.49 LIG-0.35  N 
ATOM     22 H    GLU D 112     -12.082  -9.692  12.314  1.00 61.49 LIG 0.16  HD
ATOM     23 O    GLY D 111     -14.489  -9.085  12.367  1.00 69.91 LIG-0.27  OA
BRANCH 21 24
ATOM     24  CA  GLU D 112     -11.192  -8.828  13.845  1.00 68.08 LIG 0.16  C 
BRANCH 24 25
ATOM     25  CB  GLU D 112     -11.014  -7.308  13.878  1.00 70.52 LIG 0.04  C 
BRANCH 25 26
ATOM     26  CG  GLU D 112     -10.375  -6.741  12.627  1.00 75.61 LIG 0.12  C 
BRANCH 26 27
ATOM     27  CD  GLU D 112     -11.385  -6.452  11.538  1.00 80.23 LIG 0.17  C 
ATOM     28 OE2  GLU D 112     -12.596  -6.662  11.776  1.00 75.53 LIG-0.65  OA
ATOM     29 OE1  GLU D 112     -10.966  -6.007  10.450  1.00 82.12 LIG-0.65  OA
ENDBRANCH 26 27
ENDBRANCH 25 26
ENDBRANCH 24 25
BRANCH 24 30
ATOM     30  C   GLU D 112     -11.189  -9.394  15.261  1.00 62.49 LIG 0.22  C 
ATOM     31 O    GLU D 112     -10.773  -8.718  16.206  1.00 75.48 LIG-0.29  OA
ENDBRANCH 24 30
ENDBRANCH 21 24
ENDBRANCH 19 20
ENDBRANCH 16 19
ENDBRANCH 6 15
ENDBRANCH 4 6
ENDBRANCH 1 2
BRANCH 1 32
ATOM     32  CB  SER D 109     -12.109  -3.791  15.075  1.00 41.32 LIG 0.20  C 
BRANCH 32 33
ATOM     33 OG   SER D 109     -12.450  -2.550  15.669  1.00 47.11 LIG-0.40  OA
ATOM     34 HG   SER D 109     -12.988  -2.140  15.173  1.00 47.11 LIG 0.21  HD
ENDBRANCH 32 33
ENDBRANCH 1 32
BRANCH 1 35
ATOM     35  N   SER D 109     -12.854  -2.656  13.003  1.00 33.49 LIG-0.34  N 
ATOM     36 H    SER D 109     -13.227  -2.018  13.443  1.00 33.49 LIG 0.16  HD
ATOM     37  C   ARG D 108     -12.366  -2.538  11.769  1.00 29.49 LIG 0.24  C 
ATOM     38 O    ARG D 108     -11.716  -3.427  11.213  1.00 22.63 LIG-0.27  OA
BRANCH 37 39
ATOM     39  CA  ARG D 108     -12.620  -1.225  11.060  1.00 38.27 LIG 0.18  C 
BRANCH 39 40
ATOM     40  N   ARG D 108     -11.374  -0.489  10.809  1.00 22.07 LIG-0.35  N 
ATOM     41 H    ARG D 108     -10.752  -0.939  10.422  1.00 22.07 LIG 0.16  HD
ATOM     42  C   PHE D 107     -11.279   0.775  11.178  1.00 20.48 LIG 0.26  C 
ATOM     43 O    PHE D 107     -12.223   1.377  11.664  1.00 25.48 LIG-0.27  OA
BRANCH 42 44
ATOM     44  CA  PHE D 107      -9.955   1.494  10.953  1.00 18.28 LIG 0.40  C 
ATOM     45  N   PHE D 107      -9.875   2.609  11.874  1.00 19.80 LIG 0.61  N 
BRANCH 44 46
ATOM     46  CB  PHE D 107      -8.775   0.568  11.161  1.00 13.52 LIG 0.09  C 
BRANCH 46 47
ATOM     47  CG  PHE D 107      -7.524   1.024  10.472  1.00 17.60 LIG-0.06  A 
ATOM     48  CD1 PHE D 107      -7.567   1.527   9.172  1.00 15.50 LIG 0.01  A 
ATOM     49  CE1 PHE D 107      -6.404   1.958   8.546  1.00 13.30 LIG 0.00  A 
ATOM     50  CZ  PHE D 107      -5.169   1.850   9.179  1.00 10.86 LIG 0.00  A 
ATOM     51  CE2 PHE D 107      -5.110   1.368  10.466  1.00 17.40 LIG 0.00  A 
ATOM     52  CD2 PHE D 107      -6.284   0.949  11.117  1.00 18.44 LIG 0.01  A 
ENDBRANCH 46 47
ENDBRANCH 44 46
ENDBRANCH 42 44
ENDBRANCH 39 40
BRANCH 39 53
ATOM     53  CB  ARG D 108     -13.416  -1.464   9.769  1.00 35.28 LIG 0.04  C 
BRANCH 53 54
ATOM     54  CG  ARG D 108     -14.810  -0.864   9.715  1.00 41.69 LIG 0.02  C 
BRANCH 54 55
ATOM     55  CD  ARG D 108     -15.254  -0.197  11.047  1.00 52.08 LIG 0.14  C 
BRANCH 55 56
ATOM     56  NE  ARG D 108     -15.089   1.259  11.097  1.00 57.02 LIG-0.23  N 
ATOM     57  CZ  ARG D 108     -16.097   2.139  11.064  1.00 70.73 LIG 0.67  C 
ATOM     58  NH1 ARG D 108     -17.359   1.720  10.951  1.00 60.72 LIG-0.23  N 
ATOM     59  NH2 ARG D 108     -15.846   3.448  11.130  1.00 54.42 LIG-0.23  N 
ATOM     60 2HH1 ARG D 108     -18.002   2.291  10.930  1.00 60.72 LIG 0.17  HD
ATOM     61 1HH1 ARG D 108     -17.530   0.878  10.899  1.00 60.72 LIG 0.17  HD
ATOM     62 2HH2 ARG D 108     -16.495   4.011  11.108  1.00 54.42 LIG 0.17  HD
ATOM     63 1HH2 ARG D 108     -15.036   3.727  11.194  1.00 54.42 LIG 0.17  HD
ATOM     64 HE   ARG D 108     -14.289   1.570  11.152  1.00 57.02 LIG 0.18  HD
ENDBRANCH 55 56
ENDBRANCH 54 55
ENDBRANCH 53 54
ENDBRANCH 39 53
ENDBRANCH 37 39
ENDBRANCH 1 35
TORSDOF 27
ENDMDL
