MODEL 1
USER: ADFR SOLUTION from run 50
USER: SCORE 20.874424 LL:  -3.714 LR: -18.192 RR:   0.000 FEB: -11.928
USER: RMSD 4.270658
USER: SEED 49
USER: STATUS no improvement in best in 3 clusters for 5 generations
USER: GENES 23
USER: genes 0 Translation |==|  0.54087 0.66136 0.46249
USER: genes 1 Rotation |==|  0.42811 0.49162 0.44778 0.99197
USER: genes 2 Torsion [N]-CA--C-[N] |==|  0.33978
USER: genes 3 Torsion [N]-CA--C-[N] |==|  0.50258
USER: genes 4 Torsion [C]-N--CA-[CB] |==|  0.48373
USER: genes 5 Torsion [N]-CA--CB-[CG] |==|  0.73891
USER: genes 6 Torsion [CA]-CB--CG-[CD] |==|  0.14975
USER: genes 7 Torsion [CB]-CG--CD-[OE2] |==|  0.09564
USER: genes 8 Torsion [N]-CA--C-[N] |==|  0.50556
USER: genes 9 Torsion [C]-N--CA-[CB] |==|  0.36330
USER: genes 10 Torsion [N]-CA--C-[O] |==|  0.91781
USER: genes 11 Torsion [C]-CA--CB-[CG] |==|  0.13192
USER: genes 12 Torsion [CA]-CB--CG-[CD] |==|  0.57400
USER: genes 13 Torsion [CB]-CG--CD-[OE1] |==|  0.05243
USER: genes 14 Torsion [C]-CA--N-[C] |==|  0.66238
USER: genes 15 Torsion [N]-C--CA-[N] |==|  0.96780
USER: genes 16 Torsion [C]-CA--CB-[CG] |==|  0.91145
USER: genes 17 Torsion [CA]-CB--CG-[CD2] |==|  0.32076
USER: genes 18 Torsion [CE1]-CZ--OH-[HH] |==|  0.48196
USER: genes 19 Torsion [C]-CA--N-[C] |==|  0.78832
USER: genes 20 Torsion [N]-C--CA-[N] |==|  0.18623
USER: genes 21 Torsion [C]-CA--CB-[CG] |==|  0.29208
USER: genes 22 Torsion [CA]-CB--CG-[OD2] |==|  0.26077
ROOT
ATOM      1  CA  GLU B 137     -34.226  17.654   3.468  1.00 17.35 LIG 0.18  C 
ENDROOT
BRANCH 1 2
ATOM      2  C   GLU B 137     -34.007  16.154   3.183  1.00 17.61 LIG 0.24  C 
ATOM      3 O    GLU B 137     -34.350  15.320   4.016  1.00 18.66 LIG-0.27  OA
ATOM      4  N   PRO B 138     -33.411  15.801   2.023  1.00 16.89 LIG-0.34  N 
ATOM      5  CD  PRO B 138     -32.939  16.707   0.957  1.00 17.79 LIG 0.13  C 
ATOM      6  CA  PRO B 138     -33.102  14.392   1.755  1.00 17.53 LIG 0.18  C 
ATOM      7  CG  PRO B 138     -32.034  15.827   0.091  1.00 17.78 LIG 0.02  C 
ATOM      8  CB  PRO B 138     -32.609  14.399   0.297  1.00 16.48 LIG 0.04  C 
BRANCH 6 9
ATOM      9  C   PRO B 138     -31.979  13.888   2.662  1.00 16.18 LIG 0.24  C 
ATOM     10  N   GLU B 139     -31.628  12.633   2.471  1.00 18.61 LIG-0.35  N 
ATOM     11 H    GLU B 139     -32.056  12.073   1.978  1.00 18.61 LIG 0.16  HD
ATOM     12 O    PRO B 138     -31.429  14.648   3.475  1.00 15.80 LIG-0.27  OA
BRANCH 10 13
ATOM     13  CA  GLU B 139     -30.436  12.107   3.119  1.00 18.29 LIG 0.18  C 
BRANCH 13 14
ATOM     14  CB  GLU B 139     -30.311  10.599   2.867  1.00 20.66 LIG 0.04  C 
BRANCH 14 15
ATOM     15  CG  GLU B 139     -30.932   9.759   3.999  1.00 25.98 LIG 0.12  C 
BRANCH 15 16
ATOM     16  CD  GLU B 139     -32.388  10.139   4.293  1.00 26.03 LIG 0.17  C 
ATOM     17 OE2  GLU B 139     -33.124  10.502   3.341  1.00 30.93 LIG-0.65  OA
ATOM     18 OE1  GLU B 139     -32.772  10.128   5.471  1.00 28.23 LIG-0.65  OA
ENDBRANCH 15 16
ENDBRANCH 14 15
ENDBRANCH 13 14
BRANCH 13 19
ATOM     19  C   GLU B 139     -29.208  12.887   2.657  1.00 18.24 LIG 0.24  C 
ATOM     20 O    GLU B 139     -29.281  13.828   1.837  1.00 18.84 LIG-0.27  OA
ATOM     21  N   ALA B 140     -28.061  12.461   3.155  1.00 17.91 LIG-0.34  N 
ATOM     22 H    ALA B 140     -27.971  11.764   3.651  1.00 17.91 LIG 0.16  HD
BRANCH 21 23
ATOM     23  CA  ALA B 140     -26.827  13.183   2.879  1.00 17.23 LIG 0.18  C 
ATOM     24  CB  ALA B 140     -26.036  13.449   4.153  1.00 16.99 LIG 0.04  C 
BRANCH 23 25
ATOM     25  C   ALA B 140     -25.970  12.445   1.855  1.00 18.72 LIG 0.20  C 
ATOM     26 O    ALA B 140     -26.016  11.200   1.765  1.00 21.33 LIG-0.65  OA
ATOM     27 OXT  ALA B 140     -25.269  13.128   1.087  1.00 18.51 LIG-0.65  OA
ENDBRANCH 23 25
ENDBRANCH 21 23
ENDBRANCH 13 19
ENDBRANCH 10 13
ENDBRANCH 6 9
ENDBRANCH 1 2
BRANCH 1 28
ATOM     28  CB  GLU B 137     -33.486  18.019   4.757  1.00 18.04 LIG 0.04  C 
BRANCH 28 29
ATOM     29  CG  GLU B 137     -32.071  17.486   4.767  1.00 15.54 LIG 0.12  C 
BRANCH 29 30
ATOM     30  CD  GLU B 137     -31.558  17.253   6.187  1.00 15.60 LIG 0.17  C 
ATOM     31 OE1  GLU B 137     -32.390  17.158   7.132  1.00 18.63 LIG-0.65  OA
ATOM     32 OE2  GLU B 137     -30.327  17.152   6.325  1.00 16.09 LIG-0.65  OA
ENDBRANCH 29 30
ENDBRANCH 28 29
ENDBRANCH 1 28
BRANCH 1 33
ATOM     33  N   GLU B 137     -35.631  17.924   3.686  1.00 19.05 LIG-0.35  N 
ATOM     34  C   TYR B 136     -36.255  18.788   2.915  1.00 22.23 LIG 0.24  C 
ATOM     35 O    TYR B 136     -35.733  19.335   1.951  1.00 24.10 LIG-0.27  OA
ATOM     36 H    GLU B 137     -35.995  17.488   4.332  1.00 19.05 LIG 0.16  HD
BRANCH 34 37
ATOM     37  CA  TYR B 136     -37.679  19.038   3.268  1.00 22.42 LIG 0.18  C 
BRANCH 37 38
ATOM     38  CB  TYR B 136     -37.775  20.396   3.887  1.00 19.45 LIG 0.07  C 
BRANCH 38 39
ATOM     39  CG  TYR B 136     -36.511  20.728   4.647  1.00 15.32 LIG-0.06  A 
ATOM     40  CD1 TYR B 136     -36.162  20.055   5.838  1.00 18.49 LIG 0.01  A 
ATOM     41  CE1 TYR B 136     -35.043  20.467   6.594  1.00 17.90 LIG 0.04  A 
ATOM     42  CZ  TYR B 136     -34.278  21.539   6.139  1.00 15.67 LIG 0.07  A 
ATOM     43  CE2 TYR B 136     -34.591  22.166   4.942  1.00 13.07 LIG 0.04  A 
ATOM     44  CD2 TYR B 136     -35.699  21.789   4.224  1.00 14.55 LIG 0.01  A 
BRANCH 42 45
ATOM     45 OH   TYR B 136     -33.190  21.911   6.863  1.00 15.32 LIG-0.36  OA
ATOM     46 HH   TYR B 136     -32.765  22.503   6.445  1.00 15.32 LIG 0.22  HD
ENDBRANCH 42 45
ENDBRANCH 38 39
ENDBRANCH 37 38
BRANCH 37 47
ATOM     47  N   TYR B 136     -38.140  18.063   4.228  1.00 26.32 LIG-0.34  N 
ATOM     48  C   ASP B 135     -38.431  16.826   3.850  1.00 34.01 LIG 0.26  C 
ATOM     49 O    ASP B 135     -38.582  16.509   2.663  1.00 37.29 LIG-0.27  OA
ATOM     50 H    TYR B 136     -38.203  18.352   5.035  1.00 26.32 LIG 0.16  HD
BRANCH 48 51
ATOM     51  CA  ASP B 135     -38.574  15.783   4.983  1.00 37.28 LIG 0.41  C 
ATOM     52  N   ASP B 135     -39.754  16.056   5.839  1.00 36.58 LIG 0.61  N 
BRANCH 51 53
ATOM     53  CB  ASP B 135     -38.666  14.365   4.399  1.00 38.83 LIG 0.16  C 
BRANCH 53 54
ATOM     54  CG  ASP B 135     -37.369  13.568   4.582  1.00 44.23 LIG 0.17  C 
ATOM     55 OD2  ASP B 135     -37.266  12.823   5.591  1.00 49.44 LIG-0.65  OA
ATOM     56 OD1  ASP B 135     -36.466  13.681   3.712  1.00 41.19 LIG-0.65  OA
ENDBRANCH 53 54
ENDBRANCH 51 53
ENDBRANCH 48 51
ENDBRANCH 37 47
ENDBRANCH 34 37
ENDBRANCH 1 33
TORSDOF 21
ENDMDL
MODEL 2
USER: ADFR SOLUTION from run 140
USER: SCORE 20.144996 LL:  -3.788 LR: -17.566 RR:   0.000 FEB: -11.302
USER: RMSD 4.804160
USER: SEED 139
USER: STATUS no improvement in best in 4 clusters for 5 generations
USER: GENES 23
USER: genes 0 Translation |==|  0.53333 0.64496 0.48499
USER: genes 1 Rotation |==|  0.42361 0.62815 0.52569 0.97653
USER: genes 2 Torsion [N]-CA--C-[N] |==|  0.44426
USER: genes 3 Torsion [N]-CA--C-[N] |==|  0.47346
USER: genes 4 Torsion [C]-N--CA-[CB] |==|  0.48889
USER: genes 5 Torsion [N]-CA--CB-[CG] |==|  0.91140
USER: genes 6 Torsion [CA]-CB--CG-[CD] |==|  0.85548
USER: genes 7 Torsion [CB]-CG--CD-[OE2] |==|  0.43172
USER: genes 8 Torsion [N]-CA--C-[N] |==|  0.48037
USER: genes 9 Torsion [C]-N--CA-[CB] |==|  0.38631
USER: genes 10 Torsion [N]-CA--C-[O] |==|  0.92850
USER: genes 11 Torsion [C]-CA--CB-[CG] |==|  0.94639
USER: genes 12 Torsion [CA]-CB--CG-[CD] |==|  0.60245
USER: genes 13 Torsion [CB]-CG--CD-[OE1] |==|  0.66820
USER: genes 14 Torsion [C]-CA--N-[C] |==|  0.56230
USER: genes 15 Torsion [N]-C--CA-[N] |==|  0.04758
USER: genes 16 Torsion [C]-CA--CB-[CG] |==|  0.80594
USER: genes 17 Torsion [CA]-CB--CG-[CD2] |==|  0.25849
USER: genes 18 Torsion [CE1]-CZ--OH-[HH] |==|  0.52412
USER: genes 19 Torsion [C]-CA--N-[C] |==|  0.60942
USER: genes 20 Torsion [N]-C--CA-[N] |==|  0.31944
USER: genes 21 Torsion [C]-CA--CB-[CG] |==|  0.27951
USER: genes 22 Torsion [CA]-CB--CG-[OD2] |==|  0.82353
ROOT
ATOM      1  CA  GLU B 137     -34.441  17.346   3.839  1.00 17.35 LIG 0.18  C 
ENDROOT
BRANCH 1 2
ATOM      2  C   GLU B 137     -34.119  15.920   3.350  1.00 17.61 LIG 0.24  C 
ATOM      3 O    GLU B 137     -34.430  14.954   4.041  1.00 18.66 LIG-0.27  OA
ATOM      4  N   PRO B 138     -33.469  15.776   2.173  1.00 16.89 LIG-0.34  N 
ATOM      5  CD  PRO B 138     -33.027  16.854   1.267  1.00 17.79 LIG 0.13  C 
ATOM      6  CA  PRO B 138     -33.064  14.442   1.716  1.00 17.53 LIG 0.18  C 
ATOM      7  CG  PRO B 138     -32.045  16.165   0.317  1.00 17.78 LIG 0.02  C 
ATOM      8  CB  PRO B 138     -32.533  14.691   0.294  1.00 16.48 LIG 0.04  C 
BRANCH 6 9
ATOM      9  C   PRO B 138     -31.936  13.878   2.582  1.00 16.18 LIG 0.24  C 
ATOM     10  N   GLU B 139     -31.648  12.612   2.367  1.00 18.61 LIG-0.35  N 
ATOM     11 H    GLU B 139     -32.116  12.077   1.882  1.00 18.61 LIG 0.16  HD
ATOM     12 O    PRO B 138     -31.328  14.604   3.385  1.00 15.80 LIG-0.27  OA
BRANCH 10 13
ATOM     13  CA  GLU B 139     -30.461  12.025   2.970  1.00 18.29 LIG 0.18  C 
BRANCH 13 14
ATOM     14  CB  GLU B 139     -30.387  10.525   2.660  1.00 20.66 LIG 0.04  C 
BRANCH 14 15
ATOM     15  CG  GLU B 139     -31.779   9.879   2.540  1.00 25.98 LIG 0.12  C 
BRANCH 15 16
ATOM     16  CD  GLU B 139     -32.679  10.173   3.746  1.00 26.03 LIG 0.17  C 
ATOM     17 OE2  GLU B 139     -33.927  10.128   3.596  1.00 30.93 LIG-0.65  OA
ATOM     18 OE1  GLU B 139     -32.143  10.500   4.814  1.00 28.23 LIG-0.65  OA
ENDBRANCH 15 16
ENDBRANCH 14 15
ENDBRANCH 13 14
BRANCH 13 19
ATOM     19  C   GLU B 139     -29.218  12.785   2.513  1.00 18.24 LIG 0.24  C 
ATOM     20 O    GLU B 139     -29.254  13.647   1.608  1.00 18.84 LIG-0.27  OA
ATOM     21  N   ALA B 140     -28.097  12.429   3.115  1.00 17.91 LIG-0.34  N 
ATOM     22 H    ALA B 140     -28.028  11.782   3.677  1.00 17.91 LIG 0.16  HD
BRANCH 21 23
ATOM     23  CA  ALA B 140     -26.860  13.147   2.849  1.00 17.23 LIG 0.18  C 
ATOM     24  CB  ALA B 140     -26.052  13.365   4.122  1.00 16.99 LIG 0.04  C 
BRANCH 23 25
ATOM     25  C   ALA B 140     -26.021  12.435   1.792  1.00 18.72 LIG 0.20  C 
ATOM     26 O    ALA B 140     -26.133  11.204   1.614  1.00 21.33 LIG-0.65  OA
ATOM     27 OXT  ALA B 140     -25.267  13.129   1.087  1.00 18.51 LIG-0.65  OA
ENDBRANCH 23 25
ENDBRANCH 21 23
ENDBRANCH 13 19
ENDBRANCH 10 13
ENDBRANCH 6 9
ENDBRANCH 1 2
BRANCH 1 28
ATOM     28  CB  GLU B 137     -33.202  17.916   4.533  1.00 18.04 LIG 0.04  C 
BRANCH 28 29
ATOM     29  CG  GLU B 137     -32.238  16.828   4.953  1.00 15.54 LIG 0.12  C 
BRANCH 29 30
ATOM     30  CD  GLU B 137     -31.569  17.141   6.290  1.00 15.60 LIG 0.17  C 
ATOM     31 OE1  GLU B 137     -30.313  17.253   6.335  1.00 18.63 LIG-0.65  OA
ATOM     32 OE2  GLU B 137     -32.321  17.285   7.268  1.00 16.09 LIG-0.65  OA
ENDBRANCH 29 30
ENDBRANCH 28 29
ENDBRANCH 1 28
BRANCH 1 33
ATOM     33  N   GLU B 137     -35.507  17.313   4.818  1.00 19.05 LIG-0.35  N 
ATOM     34  C   TYR B 136     -36.227  18.391   5.033  1.00 22.23 LIG 0.24  C 
ATOM     35 O    TYR B 136     -36.106  19.426   4.388  1.00 24.10 LIG-0.27  OA
ATOM     36 H    GLU B 137     -35.614  16.560   5.221  1.00 19.05 LIG 0.16  HD
BRANCH 34 37
ATOM     37  CA  TYR B 136     -37.252  18.265   6.105  1.00 22.42 LIG 0.18  C 
BRANCH 37 38
ATOM     38  CB  TYR B 136     -37.198  19.498   6.950  1.00 19.45 LIG 0.07  C 
BRANCH 38 39
ATOM     39  CG  TYR B 136     -35.924  19.534   7.762  1.00 15.32 LIG-0.06  A 
ATOM     40  CD1 TYR B 136     -35.856  18.990   9.063  1.00 18.49 LIG 0.01  A 
ATOM     41  CE1 TYR B 136     -34.692  19.147   9.847  1.00 17.90 LIG 0.04  A 
ATOM     42  CZ  TYR B 136     -33.604  19.832   9.312  1.00 15.67 LIG 0.07  A 
ATOM     43  CE2 TYR B 136     -33.652  20.320   8.014  1.00 13.07 LIG 0.04  A 
ATOM     44  CD2 TYR B 136     -34.796  20.200   7.263  1.00 14.55 LIG 0.01  A 
BRANCH 42 45
ATOM     45 OH   TYR B 136     -32.481  19.956  10.067  1.00 15.32 LIG-0.36  OA
ATOM     46 HH   TYR B 136     -31.947  20.483   9.690  1.00 15.32 LIG 0.22  HD
ENDBRANCH 42 45
ENDBRANCH 38 39
ENDBRANCH 37 38
BRANCH 37 47
ATOM     47  N   TYR B 136     -36.968  17.123   6.942  1.00 26.32 LIG-0.34  N 
ATOM     48  C   ASP B 135     -37.949  16.351   7.388  1.00 34.01 LIG 0.26  C 
ATOM     49 O    ASP B 135     -39.138  16.691   7.346  1.00 37.29 LIG-0.27  OA
ATOM     50 H    TYR B 136     -36.135  17.000   7.115  1.00 26.32 LIG 0.16  HD
BRANCH 48 51
ATOM     51  CA  ASP B 135     -37.527  14.982   7.970  1.00 37.28 LIG 0.41  C 
ATOM     52  N   ASP B 135     -37.824  14.884   9.420  1.00 36.58 LIG 0.61  N 
BRANCH 51 53
ATOM     53  CB  ASP B 135     -38.221  13.839   7.213  1.00 38.83 LIG 0.16  C 
BRANCH 53 54
ATOM     54  CG  ASP B 135     -37.303  13.174   6.180  1.00 44.23 LIG 0.17  C 
ATOM     55 OD2  ASP B 135     -36.891  13.869   5.216  1.00 49.44 LIG-0.65  OA
ATOM     56 OD1  ASP B 135     -36.991  11.966   6.344  1.00 41.19 LIG-0.65  OA
ENDBRANCH 53 54
ENDBRANCH 51 53
ENDBRANCH 48 51
ENDBRANCH 37 47
ENDBRANCH 34 37
ENDBRANCH 1 33
TORSDOF 21
ENDMDL
MODEL 3
USER: ADFR SOLUTION from run 54
USER: SCORE 19.477109 LL:  -3.423 LR: -17.202 RR:   0.000 FEB: -10.938
USER: RMSD 3.503090
USER: SEED 53
USER: STATUS no improvement in best in 4 clusters for 5 generations
USER: GENES 23
USER: genes 0 Translation |==|  0.51486 0.62728 0.49325
USER: genes 1 Rotation |==|  0.47958 0.49325 0.50079 0.99954
USER: genes 2 Torsion [N]-CA--C-[N] |==|  0.35987
USER: genes 3 Torsion [N]-CA--C-[N] |==|  0.44868
USER: genes 4 Torsion [C]-N--CA-[CB] |==|  0.48899
USER: genes 5 Torsion [N]-CA--CB-[CG] |==|  0.73219
USER: genes 6 Torsion [CA]-CB--CG-[CD] |==|  0.15592
USER: genes 7 Torsion [CB]-CG--CD-[OE2] |==|  0.09306
USER: genes 8 Torsion [N]-CA--C-[N] |==|  0.50553
USER: genes 9 Torsion [C]-N--CA-[CB] |==|  0.35641
USER: genes 10 Torsion [N]-CA--C-[O] |==|  0.91205
USER: genes 11 Torsion [C]-CA--CB-[CG] |==|  0.20785
USER: genes 12 Torsion [CA]-CB--CG-[CD] |==|  0.58617
USER: genes 13 Torsion [CB]-CG--CD-[OE1] |==|  0.89563
USER: genes 14 Torsion [C]-CA--N-[C] |==|  0.84444
USER: genes 15 Torsion [N]-C--CA-[N] |==|  0.90539
USER: genes 16 Torsion [C]-CA--CB-[CG] |==|  0.05110
USER: genes 17 Torsion [CA]-CB--CG-[CD2] |==|  0.72648
USER: genes 18 Torsion [CE1]-CZ--OH-[HH] |==|  0.22804
USER: genes 19 Torsion [C]-CA--N-[C] |==|  0.66974
USER: genes 20 Torsion [N]-C--CA-[N] |==|  0.30146
USER: genes 21 Torsion [C]-CA--CB-[CG] |==|  0.19564
USER: genes 22 Torsion [CA]-CB--CG-[OD2] |==|  0.52002
ROOT
ATOM      1  CA  GLU B 137     -34.967  17.014   3.976  1.00 17.35 LIG 0.18  C 
ENDROOT
BRANCH 1 2
ATOM      2  C   GLU B 137     -34.449  15.685   3.393  1.00 17.61 LIG 0.24  C 
ATOM      3 O    GLU B 137     -34.694  14.630   3.972  1.00 18.66 LIG-0.27  OA
ATOM      4  N   PRO B 138     -33.707  15.724   2.263  1.00 16.89 LIG-0.34  N 
ATOM      5  CD  PRO B 138     -33.331  16.924   1.491  1.00 17.79 LIG 0.13  C 
ATOM      6  CA  PRO B 138     -33.119  14.491   1.728  1.00 17.53 LIG 0.18  C 
ATOM      7  CG  PRO B 138     -32.212  16.439   0.567  1.00 17.78 LIG 0.02  C 
ATOM      8  CB  PRO B 138     -32.522  14.928   0.379  1.00 16.48 LIG 0.04  C 
BRANCH 6 9
ATOM      9  C   PRO B 138     -31.996  13.974   2.630  1.00 16.18 LIG 0.24  C 
ATOM     10  N   GLU B 139     -31.674  12.710   2.451  1.00 18.61 LIG-0.35  N 
ATOM     11 H    GLU B 139     -32.120  12.153   1.970  1.00 18.61 LIG 0.16  HD
ATOM     12 O    PRO B 138     -31.421  14.733   3.426  1.00 15.80 LIG-0.27  OA
BRANCH 10 13
ATOM     13  CA  GLU B 139     -30.486  12.167   3.092  1.00 18.29 LIG 0.18  C 
BRANCH 13 14
ATOM     14  CB  GLU B 139     -30.371  10.662   2.820  1.00 20.66 LIG 0.04  C 
BRANCH 14 15
ATOM     15  CG  GLU B 139     -30.945   9.810   3.967  1.00 25.98 LIG 0.12  C 
BRANCH 15 16
ATOM     16  CD  GLU B 139     -32.406  10.149   4.289  1.00 26.03 LIG 0.17  C 
ATOM     17 OE2  GLU B 139     -33.167  10.503   3.352  1.00 30.93 LIG-0.65  OA
ATOM     18 OE1  GLU B 139     -32.770  10.115   5.472  1.00 28.23 LIG-0.65  OA
ENDBRANCH 15 16
ENDBRANCH 14 15
ENDBRANCH 13 14
BRANCH 13 19
ATOM     19  C   GLU B 139     -29.253  12.945   2.641  1.00 18.24 LIG 0.24  C 
ATOM     20 O    GLU B 139     -29.319  13.897   1.835  1.00 18.84 LIG-0.27  OA
ATOM     21  N   ALA B 140     -28.109  12.505   3.134  1.00 17.91 LIG-0.34  N 
ATOM     22 H    ALA B 140     -28.025  11.800   3.621  1.00 17.91 LIG 0.16  HD
BRANCH 21 23
ATOM     23  CA  ALA B 140     -26.870  13.221   2.869  1.00 17.23 LIG 0.18  C 
ATOM     24  CB  ALA B 140     -26.107  13.519   4.154  1.00 16.99 LIG 0.04  C 
BRANCH 23 25
ATOM     25  C   ALA B 140     -25.990  12.462   1.881  1.00 18.72 LIG 0.20  C 
ATOM     26 O    ALA B 140     -26.004  11.213   1.846  1.00 21.33 LIG-0.65  OA
ATOM     27 OXT  ALA B 140     -25.303  13.128   1.087  1.00 18.51 LIG-0.65  OA
ENDBRANCH 23 25
ENDBRANCH 21 23
ENDBRANCH 13 19
ENDBRANCH 10 13
ENDBRANCH 6 9
ENDBRANCH 1 2
BRANCH 1 28
ATOM     28  CB  GLU B 137     -34.273  17.264   5.316  1.00 18.04 LIG 0.04  C 
BRANCH 28 29
ATOM     29  CG  GLU B 137     -32.838  17.708   5.136  1.00 15.54 LIG 0.12  C 
BRANCH 29 30
ATOM     30  CD  GLU B 137     -31.948  17.249   6.290  1.00 15.60 LIG 0.17  C 
ATOM     31 OE1  GLU B 137     -32.415  17.253   7.463  1.00 18.63 LIG-0.65  OA
ATOM     32 OE2  GLU B 137     -30.801  16.878   5.993  1.00 16.09 LIG-0.65  OA
ENDBRANCH 29 30
ENDBRANCH 28 29
ENDBRANCH 1 28
BRANCH 1 33
ATOM     33  N   GLU B 137     -36.389  16.929   4.235  1.00 19.05 LIG-0.35  N 
ATOM     34  C   TYR B 136     -37.210  16.604   3.261  1.00 22.23 LIG 0.24  C 
ATOM     35 O    TYR B 136     -36.836  16.282   2.140  1.00 24.10 LIG-0.27  OA
ATOM     36 H    GLU B 137     -36.627  17.103   5.043  1.00 19.05 LIG 0.16  HD
BRANCH 34 37
ATOM     37  CA  TYR B 136     -38.653  16.609   3.622  1.00 22.42 LIG 0.18  C 
BRANCH 37 38
ATOM     38  CB  TYR B 136     -39.165  18.008   3.481  1.00 19.45 LIG 0.07  C 
BRANCH 38 39
ATOM     39  CG  TYR B 136     -38.235  18.833   2.622  1.00 15.32 LIG-0.06  A 
ATOM     40  CD1 TYR B 136     -38.218  18.711   1.215  1.00 18.49 LIG 0.01  A 
ATOM     41  CE1 TYR B 136     -37.256  19.400   0.446  1.00 17.90 LIG 0.04  A 
ATOM     42  CZ  TYR B 136     -36.332  20.216   1.094  1.00 15.67 LIG 0.07  A 
ATOM     43  CE2 TYR B 136     -36.382  20.378   2.471  1.00 13.07 LIG 0.04  A 
ATOM     44  CD2 TYR B 136     -37.294  19.681   3.224  1.00 14.55 LIG 0.01  A 
BRANCH 42 45
ATOM     45 OH   TYR B 136     -35.425  20.894   0.340  1.00 15.32 LIG-0.36  OA
ATOM     46 HH   TYR B 136     -35.778  21.595   0.041  1.00 15.32 LIG 0.22  HD
ENDBRANCH 42 45
ENDBRANCH 38 39
ENDBRANCH 37 38
BRANCH 37 47
ATOM     47  N   TYR B 136     -38.833  16.192   4.993  1.00 26.32 LIG-0.34  N 
ATOM     48  C   ASP B 135     -39.540  15.109   5.284  1.00 34.01 LIG 0.26  C 
ATOM     49 O    ASP B 135     -40.286  14.559   4.463  1.00 37.29 LIG-0.27  OA
ATOM     50 H    TYR B 136     -38.451  16.694   5.577  1.00 26.32 LIG 0.16  HD
BRANCH 48 51
ATOM     51  CA  ASP B 135     -39.382  14.557   6.719  1.00 37.28 LIG 0.41  C 
ATOM     52  N   ASP B 135     -40.597  14.792   7.537  1.00 36.58 LIG 0.61  N 
BRANCH 51 53
ATOM     53  CB  ASP B 135     -39.055  13.057   6.685  1.00 38.83 LIG 0.16  C 
BRANCH 53 54
ATOM     54  CG  ASP B 135     -37.640  12.774   6.165  1.00 44.23 LIG 0.17  C 
ATOM     55 OD2  ASP B 135     -37.309  11.577   5.962  1.00 49.44 LIG-0.65  OA
ATOM     56 OD1  ASP B 135     -36.873  13.749   5.952  1.00 41.19 LIG-0.65  OA
ENDBRANCH 53 54
ENDBRANCH 51 53
ENDBRANCH 48 51
ENDBRANCH 37 47
ENDBRANCH 34 37
ENDBRANCH 1 33
TORSDOF 21
ENDMDL
MODEL 4
USER: ADFR SOLUTION from run 39
USER: SCORE 19.865253 LL:  -3.727 LR: -16.940 RR:   0.000 FEB: -10.675
USER: RMSD 4.342735
USER: SEED 38
USER: STATUS no improvement in best in 3 clusters for 5 generations
USER: GENES 23
USER: genes 0 Translation |==|  0.54950 0.62480 0.45062
USER: genes 1 Rotation |==|  0.46815 0.40929 0.43395 0.98621
USER: genes 2 Torsion [N]-CA--C-[N] |==|  0.27794
USER: genes 3 Torsion [N]-CA--C-[N] |==|  0.42908
USER: genes 4 Torsion [C]-N--CA-[CB] |==|  0.53197
USER: genes 5 Torsion [N]-CA--CB-[CG] |==|  0.87730
USER: genes 6 Torsion [CA]-CB--CG-[CD] |==|  0.87253
USER: genes 7 Torsion [CB]-CG--CD-[OE2] |==|  0.38974
USER: genes 8 Torsion [N]-CA--C-[N] |==|  0.39210
USER: genes 9 Torsion [C]-N--CA-[CB] |==|  0.47136
USER: genes 10 Torsion [N]-CA--C-[O] |==|  0.92719
USER: genes 11 Torsion [C]-CA--CB-[CG] |==|  0.27858
USER: genes 12 Torsion [CA]-CB--CG-[CD] |==|  0.60528
USER: genes 13 Torsion [CB]-CG--CD-[OE1] |==|  0.85928
USER: genes 14 Torsion [C]-CA--N-[C] |==|  0.67069
USER: genes 15 Torsion [N]-C--CA-[N] |==|  0.97725
USER: genes 16 Torsion [C]-CA--CB-[CG] |==|  0.18459
USER: genes 17 Torsion [CA]-CB--CG-[CD2] |==|  0.62388
USER: genes 18 Torsion [CE1]-CZ--OH-[HH] |==|  0.64094
USER: genes 19 Torsion [C]-CA--N-[C] |==|  0.75341
USER: genes 20 Torsion [N]-C--CA-[N] |==|  0.52485
USER: genes 21 Torsion [C]-CA--CB-[CG] |==|  0.68614
USER: genes 22 Torsion [CA]-CB--CG-[OD2] |==|  0.68069
ROOT
ATOM      1  CA  GLU B 137     -33.980  16.968   3.272  1.00 17.35 LIG 0.18  C 
ENDROOT
BRANCH 1 2
ATOM      2  C   GLU B 137     -33.655  15.507   2.902  1.00 17.61 LIG 0.24  C 
ATOM      3 O    GLU B 137     -33.913  14.606   3.696  1.00 18.66 LIG-0.27  OA
ATOM      4  N   PRO B 138     -33.062  15.262   1.712  1.00 16.89 LIG-0.34  N 
ATOM      5  CD  PRO B 138     -32.687  16.257   0.688  1.00 17.79 LIG 0.13  C 
ATOM      6  CA  PRO B 138     -32.654  13.898   1.362  1.00 17.53 LIG 0.18  C 
ATOM      7  CG  PRO B 138     -31.739  15.496  -0.243  1.00 17.78 LIG 0.02  C 
ATOM      8  CB  PRO B 138     -32.199  14.019  -0.103  1.00 16.48 LIG 0.04  C 
BRANCH 6 9
ATOM      9  C   PRO B 138     -31.474  13.434   2.218  1.00 16.18 LIG 0.24  C 
ATOM     10  N   GLU B 139     -31.373  12.130   2.369  1.00 18.61 LIG-0.35  N 
ATOM     11 H    GLU B 139     -31.972  11.560   2.132  1.00 18.61 LIG 0.16  HD
ATOM     12 O    PRO B 138     -30.663  14.253   2.679  1.00 15.80 LIG-0.27  OA
BRANCH 10 13
ATOM     13  CA  GLU B 139     -30.180  11.561   2.977  1.00 18.29 LIG 0.18  C 
BRANCH 13 14
ATOM     14  CB  GLU B 139     -30.157  10.039   2.791  1.00 20.66 LIG 0.04  C 
BRANCH 14 15
ATOM     15  CG  GLU B 139     -31.524   9.390   3.073  1.00 25.98 LIG 0.12  C 
BRANCH 15 16
ATOM     16  CD  GLU B 139     -32.176   9.908   4.361  1.00 26.03 LIG 0.17  C 
ATOM     17 OE2  GLU B 139     -33.417  10.114   4.372  1.00 30.93 LIG-0.65  OA
ATOM     18 OE1  GLU B 139     -31.446  10.159   5.330  1.00 28.23 LIG-0.65  OA
ENDBRANCH 15 16
ENDBRANCH 14 15
ENDBRANCH 13 14
BRANCH 13 19
ATOM     19  C   GLU B 139     -28.936  12.244   2.415  1.00 18.24 LIG 0.24  C 
ATOM     20 O    GLU B 139     -28.818  12.530   1.204  1.00 18.84 LIG-0.27  OA
ATOM     21  N   ALA B 140     -27.978  12.467   3.297  1.00 17.91 LIG-0.34  N 
ATOM     22 H    ALA B 140     -27.996  12.203   4.115  1.00 17.91 LIG 0.16  HD
BRANCH 21 23
ATOM     23  CA  ALA B 140     -26.784  13.205   2.915  1.00 17.23 LIG 0.18  C 
ATOM     24  CB  ALA B 140     -25.935  13.566   4.128  1.00 16.99 LIG 0.04  C 
BRANCH 23 25
ATOM     25  C   ALA B 140     -25.959  12.435   1.888  1.00 18.72 LIG 0.20  C 
ATOM     26 O    ALA B 140     -26.020  11.189   1.828  1.00 21.33 LIG-0.65  OA
ATOM     27 OXT  ALA B 140     -25.271  13.093   1.087  1.00 18.51 LIG-0.65  OA
ENDBRANCH 23 25
ENDBRANCH 21 23
ENDBRANCH 13 19
ENDBRANCH 10 13
ENDBRANCH 6 9
ENDBRANCH 1 2
BRANCH 1 28
ATOM     28  CB  GLU B 137     -33.733  17.159   4.770  1.00 18.04 LIG 0.04  C 
BRANCH 28 29
ATOM     29  CG  GLU B 137     -32.404  17.827   5.044  1.00 15.54 LIG 0.12  C 
BRANCH 29 30
ATOM     30  CD  GLU B 137     -31.718  17.250   6.282  1.00 15.60 LIG 0.17  C 
ATOM     31 OE1  GLU B 137     -32.372  17.161   7.358  1.00 18.63 LIG-0.65  OA
ATOM     32 OE2  GLU B 137     -30.540  16.883   6.145  1.00 16.09 LIG-0.65  OA
ENDBRANCH 29 30
ENDBRANCH 28 29
ENDBRANCH 1 28
BRANCH 1 33
ATOM     33  N   GLU B 137     -35.378  17.250   3.026  1.00 19.05 LIG-0.35  N 
ATOM     34  C   TYR B 136     -35.712  18.176   2.154  1.00 22.23 LIG 0.24  C 
ATOM     35 O    TYR B 136     -34.900  18.776   1.460  1.00 24.10 LIG-0.27  OA
ATOM     36 H    GLU B 137     -35.935  16.778   3.481  1.00 19.05 LIG 0.16  HD
BRANCH 34 37
ATOM     37  CA  TYR B 136     -37.173  18.428   2.027  1.00 22.42 LIG 0.18  C 
BRANCH 37 38
ATOM     38  CB  TYR B 136     -37.465  19.780   2.597  1.00 19.45 LIG 0.07  C 
BRANCH 38 39
ATOM     39  CG  TYR B 136     -36.828  20.863   1.756  1.00 15.32 LIG-0.06  A 
ATOM     40  CD1 TYR B 136     -36.819  20.801   0.346  1.00 18.49 LIG 0.01  A 
ATOM     41  CE1 TYR B 136     -36.110  21.760  -0.411  1.00 17.90 LIG 0.04  A 
ATOM     42  CZ  TYR B 136     -35.432  22.778   0.254  1.00 15.67 LIG 0.07  A 
ATOM     43  CE2 TYR B 136     -35.485  22.870   1.638  1.00 13.07 LIG 0.04  A 
ATOM     44  CD2 TYR B 136     -36.144  21.918   2.377  1.00 14.55 LIG 0.01  A 
BRANCH 42 45
ATOM     45 OH   TYR B 136     -34.774  23.709  -0.486  1.00 15.32 LIG-0.36  OA
ATOM     46 HH   TYR B 136     -33.986  23.786  -0.203  1.00 15.32 LIG 0.22  HD
ENDBRANCH 42 45
ENDBRANCH 38 39
ENDBRANCH 37 38
BRANCH 37 47
ATOM     47  N   TYR B 136     -37.922  17.445   2.773  1.00 26.32 LIG-0.34  N 
ATOM     48  C   ASP B 135     -38.288  16.302   2.210  1.00 34.01 LIG 0.26  C 
ATOM     49 O    ASP B 135     -38.253  16.120   0.987  1.00 37.29 LIG-0.27  OA
ATOM     50 H    TYR B 136     -38.099  17.666   3.585  1.00 26.32 LIG 0.16  HD
BRANCH 48 51
ATOM     51  CA  ASP B 135     -38.768  15.191   3.173  1.00 37.28 LIG 0.41  C 
ATOM     52  N   ASP B 135     -38.950  13.896   2.473  1.00 36.58 LIG 0.61  N 
BRANCH 51 53
ATOM     53  CB  ASP B 135     -37.778  15.024   4.336  1.00 38.83 LIG 0.16  C 
BRANCH 53 54
ATOM     54  CG  ASP B 135     -37.052  13.675   4.302  1.00 44.23 LIG 0.17  C 
ATOM     55 OD2  ASP B 135     -37.265  12.861   5.239  1.00 49.44 LIG-0.65  OA
ATOM     56 OD1  ASP B 135     -36.282  13.431   3.337  1.00 41.19 LIG-0.65  OA
ENDBRANCH 53 54
ENDBRANCH 51 53
ENDBRANCH 48 51
ENDBRANCH 37 47
ENDBRANCH 34 37
ENDBRANCH 1 33
TORSDOF 21
ENDMDL
MODEL 5
USER: ADFR SOLUTION from run 95
USER: SCORE 19.691009 LL:  -4.262 LR: -16.814 RR:   0.000 FEB: -10.550
USER: RMSD 4.285908
USER: SEED 94
USER: STATUS no improvement in best in 3 clusters for 5 generations
USER: GENES 23
USER: genes 0 Translation |==|  0.52250 0.63639 0.48664
USER: genes 1 Rotation |==|  0.42479 0.63447 0.54738 0.97330
USER: genes 2 Torsion [N]-CA--C-[N] |==|  0.46041
USER: genes 3 Torsion [N]-CA--C-[N] |==|  0.47029
USER: genes 4 Torsion [C]-N--CA-[CB] |==|  0.48474
USER: genes 5 Torsion [N]-CA--CB-[CG] |==|  0.90249
USER: genes 6 Torsion [CA]-CB--CG-[CD] |==|  0.86183
USER: genes 7 Torsion [CB]-CG--CD-[OE2] |==|  0.41776
USER: genes 8 Torsion [N]-CA--C-[N] |==|  0.51333
USER: genes 9 Torsion [C]-N--CA-[CB] |==|  0.35961
USER: genes 10 Torsion [N]-CA--C-[O] |==|  0.92882
USER: genes 11 Torsion [C]-CA--CB-[CG] |==|  0.94113
USER: genes 12 Torsion [CA]-CB--CG-[CD] |==|  0.59217
USER: genes 13 Torsion [CB]-CG--CD-[OE1] |==|  0.11833
USER: genes 14 Torsion [C]-CA--N-[C] |==|  0.55818
USER: genes 15 Torsion [N]-C--CA-[N] |==|  0.90710
USER: genes 16 Torsion [C]-CA--CB-[CG] |==|  0.74351
USER: genes 17 Torsion [CA]-CB--CG-[CD2] |==|  0.25239
USER: genes 18 Torsion [CE1]-CZ--OH-[HH] |==|  0.58195
USER: genes 19 Torsion [C]-CA--N-[C] |==|  0.66111
USER: genes 20 Torsion [N]-C--CA-[N] |==|  0.56202
USER: genes 21 Torsion [C]-CA--CB-[CG] |==|  0.24316
USER: genes 22 Torsion [CA]-CB--CG-[OD2] |==|  0.78527
ROOT
ATOM      1  CA  GLU B 137     -34.750  17.185   3.866  1.00 17.35 LIG 0.18  C 
ENDROOT
BRANCH 1 2
ATOM      2  C   GLU B 137     -34.339  15.800   3.329  1.00 17.61 LIG 0.24  C 
ATOM      3 O    GLU B 137     -34.640  14.789   3.957  1.00 18.66 LIG-0.27  OA
ATOM      4  N   PRO B 138     -33.624  15.742   2.182  1.00 16.89 LIG-0.34  N 
ATOM      5  CD  PRO B 138     -33.187  16.881   1.352  1.00 17.79 LIG 0.13  C 
ATOM      6  CA  PRO B 138     -33.136  14.451   1.686  1.00 17.53 LIG 0.18  C 
ATOM      7  CG  PRO B 138     -32.127  16.282   0.424  1.00 17.78 LIG 0.02  C 
ATOM      8  CB  PRO B 138     -32.545  14.791   0.307  1.00 16.48 LIG 0.04  C 
BRANCH 6 9
ATOM      9  C   PRO B 138     -32.029  13.894   2.583  1.00 16.18 LIG 0.24  C 
ATOM     10  N   GLU B 139     -31.689  12.646   2.340  1.00 18.61 LIG-0.35  N 
ATOM     11 H    GLU B 139     -32.117  12.113   1.817  1.00 18.61 LIG 0.16  HD
ATOM     12 O    PRO B 138     -31.481  14.612   3.435  1.00 15.80 LIG-0.27  OA
BRANCH 10 13
ATOM     13  CA  GLU B 139     -30.510  12.078   2.977  1.00 18.29 LIG 0.18  C 
BRANCH 13 14
ATOM     14  CB  GLU B 139     -30.392  10.584   2.653  1.00 20.66 LIG 0.04  C 
BRANCH 14 15
ATOM     15  CG  GLU B 139     -31.764   9.892   2.555  1.00 25.98 LIG 0.12  C 
BRANCH 15 16
ATOM     16  CD  GLU B 139     -32.670  10.191   3.756  1.00 26.03 LIG 0.17  C 
ATOM     17 OE2  GLU B 139     -33.917  10.198   3.589  1.00 30.93 LIG-0.65  OA
ATOM     18 OE1  GLU B 139     -32.137  10.473   4.839  1.00 28.23 LIG-0.65  OA
ENDBRANCH 15 16
ENDBRANCH 14 15
ENDBRANCH 13 14
BRANCH 13 19
ATOM     19  C   GLU B 139     -29.270  12.870   2.571  1.00 18.24 LIG 0.24  C 
ATOM     20 O    GLU B 139     -29.330  13.882   1.840  1.00 18.84 LIG-0.27  OA
ATOM     21  N   ALA B 140     -28.127  12.378   3.016  1.00 17.91 LIG-0.34  N 
ATOM     22 H    ALA B 140     -28.048  11.638   3.446  1.00 17.91 LIG 0.16  HD
BRANCH 21 23
ATOM     23  CA  ALA B 140     -26.881  13.095   2.790  1.00 17.23 LIG 0.18  C 
ATOM     24  CB  ALA B 140     -26.086  13.258   4.080  1.00 16.99 LIG 0.04  C 
BRANCH 23 25
ATOM     25  C   ALA B 140     -26.036  12.415   1.717  1.00 18.72 LIG 0.20  C 
ATOM     26 O    ALA B 140     -26.157  11.193   1.491  1.00 21.33 LIG-0.65  OA
ATOM     27 OXT  ALA B 140     -25.266  13.128   1.049  1.00 18.51 LIG-0.65  OA
ENDBRANCH 23 25
ENDBRANCH 21 23
ENDBRANCH 13 19
ENDBRANCH 10 13
ENDBRANCH 6 9
ENDBRANCH 1 2
BRANCH 1 28
ATOM     28  CB  GLU B 137     -33.531  17.836   4.524  1.00 18.04 LIG 0.04  C 
BRANCH 28 29
ATOM     29  CG  GLU B 137     -32.489  16.813   4.919  1.00 15.54 LIG 0.12  C 
BRANCH 29 30
ATOM     30  CD  GLU B 137     -31.741  17.219   6.188  1.00 15.60 LIG 0.17  C 
ATOM     31 OE1  GLU B 137     -32.393  17.703   7.155  1.00 18.63 LIG-0.65  OA
ATOM     32 OE2  GLU B 137     -30.514  17.028   6.197  1.00 16.09 LIG-0.65  OA
ENDBRANCH 29 30
ENDBRANCH 28 29
ENDBRANCH 1 28
BRANCH 1 33
ATOM     33  N   GLU B 137     -35.768  17.047   4.886  1.00 19.05 LIG-0.35  N 
ATOM     34  C   TYR B 136     -36.541  18.070   5.177  1.00 22.23 LIG 0.24  C 
ATOM     35 O    TYR B 136     -36.510  19.135   4.573  1.00 24.10 LIG-0.27  OA
ATOM     36 H    GLU B 137     -35.812  16.274   5.260  1.00 19.05 LIG 0.16  HD
BRANCH 34 37
ATOM     37  CA  TYR B 136     -37.509  17.837   6.283  1.00 22.42 LIG 0.18  C 
BRANCH 37 38
ATOM     38  CB  TYR B 136     -36.812  18.113   7.578  1.00 19.45 LIG 0.07  C 
BRANCH 38 39
ATOM     39  CG  TYR B 136     -36.207  16.846   8.139  1.00 15.32 LIG-0.06  A 
ATOM     40  CD1 TYR B 136     -36.901  16.039   9.068  1.00 18.49 LIG 0.01  A 
ATOM     41  CE1 TYR B 136     -36.266  14.931   9.669  1.00 17.90 LIG 0.04  A 
ATOM     42  CZ  TYR B 136     -34.951  14.634   9.322  1.00 15.67 LIG 0.07  A 
ATOM     43  CE2 TYR B 136     -34.288  15.396   8.370  1.00 13.07 LIG 0.04  A 
ATOM     44  CD2 TYR B 136     -34.891  16.495   7.811  1.00 14.55 LIG 0.01  A 
BRANCH 42 45
ATOM     45 OH   TYR B 136     -34.359  13.551   9.890  1.00 15.32 LIG-0.36  OA
ATOM     46 HH   TYR B 136     -33.531  13.682   9.949  1.00 15.32 LIG 0.22  HD
ENDBRANCH 42 45
ENDBRANCH 38 39
ENDBRANCH 37 38
BRANCH 37 47
ATOM     47  N   TYR B 136     -37.953  16.463   6.285  1.00 26.32 LIG-0.34  N 
ATOM     48  C   ASP B 135     -39.241  16.168   6.176  1.00 34.01 LIG 0.26  C 
ATOM     49 O    ASP B 135     -40.133  17.011   6.331  1.00 37.29 LIG-0.27  OA
ATOM     50 H    TYR B 136     -37.325  15.880   6.360  1.00 26.32 LIG 0.16  HD
BRANCH 48 51
ATOM     51  CA  ASP B 135     -39.576  14.697   5.840  1.00 37.28 LIG 0.41  C 
ATOM     52  N   ASP B 135     -40.921  14.564   5.229  1.00 36.58 LIG 0.61  N 
BRANCH 51 53
ATOM     53  CB  ASP B 135     -38.513  14.104   4.902  1.00 38.83 LIG 0.16  C 
BRANCH 53 54
ATOM     54  CG  ASP B 135     -37.326  13.502   5.663  1.00 44.23 LIG 0.17  C 
ATOM     55 OD2  ASP B 135     -36.465  14.287   6.138  1.00 49.44 LIG-0.65  OA
ATOM     56 OD1  ASP B 135     -37.266  12.251   5.791  1.00 41.19 LIG-0.65  OA
ENDBRANCH 53 54
ENDBRANCH 51 53
ENDBRANCH 48 51
ENDBRANCH 37 47
ENDBRANCH 34 37
ENDBRANCH 1 33
TORSDOF 21
ENDMDL
MODEL 6
USER: ADFR SOLUTION from run 33
USER: SCORE 19.630513 LL:  -3.882 LR: -16.737 RR:   0.000 FEB: -10.473
USER: RMSD 3.113055
USER: SEED 32
USER: STATUS no improvement in best in 4 clusters for 5 generations
USER: GENES 23
USER: genes 0 Translation |==|  0.53329 0.65161 0.47668
USER: genes 1 Rotation |==|  0.45546 0.45315 0.44771 0.99304
USER: genes 2 Torsion [N]-CA--C-[N] |==|  0.31341
USER: genes 3 Torsion [N]-CA--C-[N] |==|  0.47928
USER: genes 4 Torsion [C]-N--CA-[CB] |==|  0.49444
USER: genes 5 Torsion [N]-CA--CB-[CG] |==|  0.74240
USER: genes 6 Torsion [CA]-CB--CG-[CD] |==|  0.14743
USER: genes 7 Torsion [CB]-CG--CD-[OE2] |==|  0.09843
USER: genes 8 Torsion [N]-CA--C-[N] |==|  0.50406
USER: genes 9 Torsion [C]-N--CA-[CB] |==|  0.35846
USER: genes 10 Torsion [N]-CA--C-[O] |==|  0.92373
USER: genes 11 Torsion [C]-CA--CB-[CG] |==|  0.22593
USER: genes 12 Torsion [CA]-CB--CG-[CD] |==|  0.62787
USER: genes 13 Torsion [CB]-CG--CD-[OE1] |==|  0.91332
USER: genes 14 Torsion [C]-CA--N-[C] |==|  0.67498
USER: genes 15 Torsion [N]-C--CA-[N] |==|  0.92691
USER: genes 16 Torsion [C]-CA--CB-[CG] |==|  0.45880
USER: genes 17 Torsion [CA]-CB--CG-[CD2] |==|  0.24597
USER: genes 18 Torsion [CE1]-CZ--OH-[HH] |==|  0.71107
USER: genes 19 Torsion [C]-CA--N-[C] |==|  0.79128
USER: genes 20 Torsion [N]-C--CA-[N] |==|  0.52086
USER: genes 21 Torsion [C]-CA--CB-[CG] |==|  0.66949
USER: genes 22 Torsion [CA]-CB--CG-[OD2] |==|  0.15884
ROOT
ATOM      1  CA  GLU B 137     -34.442  17.471   3.702  1.00 17.35 LIG 0.18  C 
ENDROOT
BRANCH 1 2
ATOM      2  C   GLU B 137     -34.133  16.008   3.324  1.00 17.61 LIG 0.24  C 
ATOM      3 O    GLU B 137     -34.427  15.104   4.100  1.00 18.66 LIG-0.27  OA
ATOM      4  N   PRO B 138     -33.514  15.766   2.146  1.00 16.89 LIG-0.34  N 
ATOM      5  CD  PRO B 138     -33.096  16.766   1.143  1.00 17.79 LIG 0.13  C 
ATOM      6  CA  PRO B 138     -33.121  14.399   1.791  1.00 17.53 LIG 0.18  C 
ATOM      7  CG  PRO B 138     -32.139  15.999   0.228  1.00 17.78 LIG 0.02  C 
ATOM      8  CB  PRO B 138     -32.627  14.528   0.339  1.00 16.48 LIG 0.04  C 
BRANCH 6 9
ATOM      9  C   PRO B 138     -31.971  13.905   2.671  1.00 16.18 LIG 0.24  C 
ATOM     10  N   GLU B 139     -31.660  12.635   2.521  1.00 18.61 LIG-0.35  N 
ATOM     11 H    GLU B 139     -32.124  12.065   2.073  1.00 18.61 LIG 0.16  HD
ATOM     12 O    PRO B 138     -31.367  14.686   3.423  1.00 15.80 LIG-0.27  OA
BRANCH 10 13
ATOM     13  CA  GLU B 139     -30.454  12.106   3.139  1.00 18.29 LIG 0.18  C 
BRANCH 13 14
ATOM     14  CB  GLU B 139     -30.328  10.601   2.869  1.00 20.66 LIG 0.04  C 
BRANCH 14 15
ATOM     15  CG  GLU B 139     -30.951   9.748   3.989  1.00 25.98 LIG 0.12  C 
BRANCH 15 16
ATOM     16  CD  GLU B 139     -32.401  10.137   4.300  1.00 26.03 LIG 0.17  C 
ATOM     17 OE2  GLU B 139     -33.145  10.508   3.355  1.00 30.93 LIG-0.65  OA
ATOM     18 OE1  GLU B 139     -32.773  10.127   5.482  1.00 28.23 LIG-0.65  OA
ENDBRANCH 15 16
ENDBRANCH 14 15
ENDBRANCH 13 14
BRANCH 13 19
ATOM     19  C   GLU B 139     -29.238  12.895   2.662  1.00 18.24 LIG 0.24  C 
ATOM     20 O    GLU B 139     -29.329  13.839   1.846  1.00 18.84 LIG-0.27  OA
ATOM     21  N   ALA B 140     -28.081  12.476   3.141  1.00 17.91 LIG-0.34  N 
ATOM     22 H    ALA B 140     -27.979  11.778   3.633  1.00 17.91 LIG 0.16  HD
BRANCH 21 23
ATOM     23  CA  ALA B 140     -26.856  13.206   2.849  1.00 17.23 LIG 0.18  C 
ATOM     24  CB  ALA B 140     -26.069  13.511   4.118  1.00 16.99 LIG 0.04  C 
BRANCH 23 25
ATOM     25  C   ALA B 140     -25.989  12.457   1.842  1.00 18.72 LIG 0.20  C 
ATOM     26 O    ALA B 140     -26.049  11.213   1.753  1.00 21.33 LIG-0.65  OA
ATOM     27 OXT  ALA B 140     -25.266  13.130   1.087  1.00 18.51 LIG-0.65  OA
ENDBRANCH 23 25
ENDBRANCH 21 23
ENDBRANCH 13 19
ENDBRANCH 10 13
ENDBRANCH 6 9
ENDBRANCH 1 2
BRANCH 1 28
ATOM     28  CB  GLU B 137     -33.931  17.726   5.122  1.00 18.04 LIG 0.04  C 
BRANCH 28 29
ATOM     29  CG  GLU B 137     -32.446  18.013   5.145  1.00 15.54 LIG 0.12  C 
BRANCH 29 30
ATOM     30  CD  GLU B 137     -31.729  17.227   6.242  1.00 15.60 LIG 0.17  C 
ATOM     31 OE1  GLU B 137     -32.351  16.954   7.306  1.00 18.63 LIG-0.65  OA
ATOM     32 OE2  GLU B 137     -30.559  16.885   6.008  1.00 16.09 LIG-0.65  OA
ENDBRANCH 29 30
ENDBRANCH 28 29
ENDBRANCH 1 28
BRANCH 1 33
ATOM     33  N   GLU B 137     -35.872  17.696   3.711  1.00 19.05 LIG-0.35  N 
ATOM     34  C   TYR B 136     -36.400  18.554   2.867  1.00 22.23 LIG 0.24  C 
ATOM     35 O    TYR B 136     -35.759  19.133   1.998  1.00 24.10 LIG-0.27  OA
ATOM     36 H    GLU B 137     -36.313  17.239   4.290  1.00 19.05 LIG 0.16  HD
BRANCH 34 37
ATOM     37  CA  TYR B 136     -37.868  18.757   3.006  1.00 22.42 LIG 0.18  C 
BRANCH 37 38
ATOM     38  CB  TYR B 136     -38.095  19.911   3.931  1.00 19.45 LIG 0.07  C 
BRANCH 38 39
ATOM     39  CG  TYR B 136     -39.522  20.398   3.836  1.00 15.32 LIG-0.06  A 
ATOM     40  CD1 TYR B 136     -39.884  21.482   3.006  1.00 18.49 LIG 0.01  A 
ATOM     41  CE1 TYR B 136     -41.198  21.997   3.029  1.00 17.90 LIG 0.04  A 
ATOM     42  CZ  TYR B 136     -42.139  21.410   3.872  1.00 15.67 LIG 0.07  A 
ATOM     43  CE2 TYR B 136     -41.797  20.311   4.647  1.00 13.07 LIG 0.04  A 
ATOM     44  CD2 TYR B 136     -40.511  19.832   4.652  1.00 14.55 LIG 0.01  A 
BRANCH 42 45
ATOM     45 OH   TYR B 136     -43.407  21.899   3.868  1.00 15.32 LIG-0.36  OA
ATOM     46 HH   TYR B 136     -43.530  22.365   4.555  1.00 15.32 LIG 0.22  HD
ENDBRANCH 42 45
ENDBRANCH 38 39
ENDBRANCH 37 38
BRANCH 37 47
ATOM     47  N   TYR B 136     -38.488  17.584   3.576  1.00 26.32 LIG-0.34  N 
ATOM     48  C   ASP B 135     -38.669  16.491   2.847  1.00 34.01 LIG 0.26  C 
ATOM     49 O    ASP B 135     -38.574  16.490   1.614  1.00 37.29 LIG-0.27  OA
ATOM     50 H    TYR B 136     -38.717  17.661   4.402  1.00 26.32 LIG 0.16  HD
BRANCH 48 51
ATOM     51  CA  ASP B 135     -39.009  15.200   3.627  1.00 37.28 LIG 0.41  C 
ATOM     52  N   ASP B 135     -39.016  14.009   2.744  1.00 36.58 LIG 0.61  N 
BRANCH 51 53
ATOM     53  CB  ASP B 135     -38.017  14.992   4.781  1.00 38.83 LIG 0.16  C 
BRANCH 53 54
ATOM     54  CG  ASP B 135     -37.224  13.687   4.647  1.00 44.23 LIG 0.17  C 
ATOM     55 OD2  ASP B 135     -36.550  13.504   3.600  1.00 49.44 LIG-0.65  OA
ATOM     56 OD1  ASP B 135     -37.270  12.856   5.592  1.00 41.19 LIG-0.65  OA
ENDBRANCH 53 54
ENDBRANCH 51 53
ENDBRANCH 48 51
ENDBRANCH 37 47
ENDBRANCH 34 37
ENDBRANCH 1 33
TORSDOF 21
ENDMDL
MODEL 7
USER: ADFR SOLUTION from run 14
USER: SCORE 20.269152 LL:  -4.608 LR: -16.631 RR:   0.000 FEB: -10.366
USER: RMSD 3.319550
USER: SEED 659180
USER: STATUS no improvement in best in 3 clusters for 5 generations
USER: GENES 23
USER: genes 0 Translation |==|  0.52940 0.64736 0.47943
USER: genes 1 Rotation |==|  0.45603 0.48121 0.46435 0.99643
USER: genes 2 Torsion [N]-CA--C-[N] |==|  0.33990
USER: genes 3 Torsion [N]-CA--C-[N] |==|  0.48160
USER: genes 4 Torsion [C]-N--CA-[CB] |==|  0.48364
USER: genes 5 Torsion [N]-CA--CB-[CG] |==|  0.73637
USER: genes 6 Torsion [CA]-CB--CG-[CD] |==|  0.15001
USER: genes 7 Torsion [CB]-CG--CD-[OE2] |==|  0.09591
USER: genes 8 Torsion [N]-CA--C-[N] |==|  0.50556
USER: genes 9 Torsion [C]-N--CA-[CB] |==|  0.36171
USER: genes 10 Torsion [N]-CA--C-[O] |==|  0.92017
USER: genes 11 Torsion [C]-CA--CB-[CG] |==|  0.17858
USER: genes 12 Torsion [CA]-CB--CG-[CD] |==|  0.57767
USER: genes 13 Torsion [CB]-CG--CD-[OE1] |==|  0.96209
USER: genes 14 Torsion [C]-CA--N-[C] |==|  0.80609
USER: genes 15 Torsion [N]-C--CA-[N] |==|  0.35381
USER: genes 16 Torsion [C]-CA--CB-[CG] |==|  0.16403
USER: genes 17 Torsion [CA]-CB--CG-[CD2] |==|  0.18157
USER: genes 18 Torsion [CE1]-CZ--OH-[HH] |==|  0.27058
USER: genes 19 Torsion [C]-CA--N-[C] |==|  0.76703
USER: genes 20 Torsion [N]-C--CA-[N] |==|  0.49382
USER: genes 21 Torsion [C]-CA--CB-[CG] |==|  0.81959
USER: genes 22 Torsion [CA]-CB--CG-[OD2] |==|  0.25980
ROOT
ATOM      1  CA  GLU B 137     -34.553  17.391   3.748  1.00 17.35 LIG 0.18  C 
ENDROOT
BRANCH 1 2
ATOM      2  C   GLU B 137     -34.208  15.951   3.317  1.00 17.61 LIG 0.24  C 
ATOM      3 O    GLU B 137     -34.519  15.009   4.041  1.00 18.66 LIG-0.27  OA
ATOM      4  N   PRO B 138     -33.541  15.770   2.155  1.00 16.89 LIG-0.34  N 
ATOM      5  CD  PRO B 138     -33.099  16.818   1.214  1.00 17.79 LIG 0.13  C 
ATOM      6  CA  PRO B 138     -33.115  14.425   1.756  1.00 17.53 LIG 0.18  C 
ATOM      7  CG  PRO B 138     -32.096  16.105   0.305  1.00 17.78 LIG 0.02  C 
ATOM      8  CB  PRO B 138     -32.567  14.625   0.332  1.00 16.48 LIG 0.04  C 
BRANCH 6 9
ATOM      9  C   PRO B 138     -31.993  13.907   2.657  1.00 16.18 LIG 0.24  C 
ATOM     10  N   GLU B 139     -31.646  12.654   2.453  1.00 18.61 LIG-0.35  N 
ATOM     11 H    GLU B 139     -32.076  12.100   1.954  1.00 18.61 LIG 0.16  HD
ATOM     12 O    PRO B 138     -31.440  14.657   3.478  1.00 15.80 LIG-0.27  OA
BRANCH 10 13
ATOM     13  CA  GLU B 139     -30.455  12.117   3.094  1.00 18.29 LIG 0.18  C 
BRANCH 13 14
ATOM     14  CB  GLU B 139     -30.336  10.611   2.828  1.00 20.66 LIG 0.04  C 
BRANCH 14 15
ATOM     15  CG  GLU B 139     -30.938   9.762   3.962  1.00 25.98 LIG 0.12  C 
BRANCH 15 16
ATOM     16  CD  GLU B 139     -32.390  10.138   4.282  1.00 26.03 LIG 0.17  C 
ATOM     17 OE2  GLU B 139     -33.142  10.507   3.344  1.00 30.93 LIG-0.65  OA
ATOM     18 OE1  GLU B 139     -32.755  10.119   5.466  1.00 28.23 LIG-0.65  OA
ENDBRANCH 15 16
ENDBRANCH 14 15
ENDBRANCH 13 14
BRANCH 13 19
ATOM     19  C   GLU B 139     -29.225  12.897   2.639  1.00 18.24 LIG 0.24  C 
ATOM     20 O    GLU B 139     -29.295  13.846   1.829  1.00 18.84 LIG-0.27  OA
ATOM     21  N   ALA B 140     -28.079  12.463   3.132  1.00 17.91 LIG-0.34  N 
ATOM     22 H    ALA B 140     -27.992  11.760   3.621  1.00 17.91 LIG 0.16  HD
BRANCH 21 23
ATOM     23  CA  ALA B 140     -26.843  13.182   2.862  1.00 17.23 LIG 0.18  C 
ATOM     24  CB  ALA B 140     -26.057  13.446   4.141  1.00 16.99 LIG 0.04  C 
BRANCH 23 25
ATOM     25  C   ALA B 140     -25.982  12.445   1.841  1.00 18.72 LIG 0.20  C 
ATOM     26 O    ALA B 140     -26.042  11.202   1.738  1.00 21.33 LIG-0.65  OA
ATOM     27 OXT  ALA B 140     -25.265  13.128   1.088  1.00 18.51 LIG-0.65  OA
ENDBRANCH 23 25
ENDBRANCH 21 23
ENDBRANCH 13 19
ENDBRANCH 10 13
ENDBRANCH 6 9
ENDBRANCH 1 2
BRANCH 1 28
ATOM     28  CB  GLU B 137     -33.894  17.668   5.100  1.00 18.04 LIG 0.04  C 
BRANCH 28 29
ATOM     29  CG  GLU B 137     -32.384  17.631   5.012  1.00 15.54 LIG 0.12  C 
BRANCH 29 30
ATOM     30  CD  GLU B 137     -31.744  17.223   6.338  1.00 15.60 LIG 0.17  C 
ATOM     31 OE1  GLU B 137     -32.449  17.222   7.385  1.00 18.63 LIG-0.65  OA
ATOM     32 OE2  GLU B 137     -30.546  16.895   6.300  1.00 16.09 LIG-0.65  OA
ENDBRANCH 29 30
ENDBRANCH 28 29
ENDBRANCH 1 28
BRANCH 1 33
ATOM     33  N   GLU B 137     -35.982  17.534   3.926  1.00 19.05 LIG-0.35  N 
ATOM     34  C   TYR B 136     -36.776  17.503   2.878  1.00 22.23 LIG 0.24  C 
ATOM     35 O    TYR B 136     -36.385  17.278   1.740  1.00 24.10 LIG-0.27  OA
ATOM     36 H    GLU B 137     -36.243  17.635   4.740  1.00 19.05 LIG 0.16  HD
BRANCH 34 37
ATOM     37  CA  TYR B 136     -38.218  17.724   3.170  1.00 22.42 LIG 0.18  C 
BRANCH 37 38
ATOM     38  CB  TYR B 136     -38.956  16.461   2.860  1.00 19.45 LIG 0.07  C 
BRANCH 38 39
ATOM     39  CG  TYR B 136     -38.424  15.314   3.688  1.00 15.32 LIG-0.06  A 
ATOM     40  CD1 TYR B 136     -37.852  14.169   3.092  1.00 18.49 LIG 0.01  A 
ATOM     41  CE1 TYR B 136     -37.477  13.060   3.881  1.00 17.90 LIG 0.04  A 
ATOM     42  CZ  TYR B 136     -37.664  13.118   5.260  1.00 15.67 LIG 0.07  A 
ATOM     43  CE2 TYR B 136     -38.177  14.264   5.851  1.00 13.07 LIG 0.04  A 
ATOM     44  CD2 TYR B 136     -38.576  15.329   5.082  1.00 14.55 LIG 0.01  A 
BRANCH 42 45
ATOM     45 OH   TYR B 136     -37.277  12.054   6.012  1.00 15.32 LIG-0.36  OA
ATOM     46 HH   TYR B 136     -36.515  12.201   6.335  1.00 15.32 LIG 0.22  HD
ENDBRANCH 42 45
ENDBRANCH 38 39
ENDBRANCH 37 38
BRANCH 37 47
ATOM     47  N   TYR B 136     -38.746  18.779   2.337  1.00 26.32 LIG-0.34  N 
ATOM     48  C   ASP B 135     -38.607  20.051   2.685  1.00 34.01 LIG 0.26  C 
ATOM     49 O    ASP B 135     -38.272  20.397   3.825  1.00 37.29 LIG-0.27  OA
ATOM     50 H    TYR B 136     -39.142  18.511   1.622  1.00 26.32 LIG 0.16  HD
BRANCH 48 51
ATOM     51  CA  ASP B 135     -38.886  21.095   1.579  1.00 37.28 LIG 0.41  C 
ATOM     52  N   ASP B 135     -38.755  22.483   2.086  1.00 36.58 LIG 0.61  N 
BRANCH 51 53
ATOM     53  CB  ASP B 135     -37.943  20.880   0.386  1.00 38.83 LIG 0.16  C 
BRANCH 53 54
ATOM     54  CG  ASP B 135     -36.473  21.127   0.746  1.00 44.23 LIG 0.17  C 
ATOM     55 OD2  ASP B 135     -35.773  20.144   1.101  1.00 49.44 LIG-0.65  OA
ATOM     56 OD1  ASP B 135     -36.023  22.300   0.662  1.00 41.19 LIG-0.65  OA
ENDBRANCH 53 54
ENDBRANCH 51 53
ENDBRANCH 48 51
ENDBRANCH 37 47
ENDBRANCH 34 37
ENDBRANCH 1 33
TORSDOF 21
ENDMDL
MODEL 8
USER: ADFR SOLUTION from run 182
USER: SCORE 19.102800 LL:  -4.128 LR: -16.265 RR:   0.000 FEB: -10.001
USER: RMSD 3.324409
USER: SEED 181
USER: STATUS no improvement in best in 3 clusters for 5 generations
USER: GENES 23
USER: genes 0 Translation |==|  0.52516 0.63613 0.47560
USER: genes 1 Rotation |==|  0.46477 0.49889 0.49127 0.99868
USER: genes 2 Torsion [N]-CA--C-[N] |==|  0.36599
USER: genes 3 Torsion [N]-CA--C-[N] |==|  0.45688
USER: genes 4 Torsion [C]-N--CA-[CB] |==|  0.48954
USER: genes 5 Torsion [N]-CA--CB-[CG] |==|  0.91482
USER: genes 6 Torsion [CA]-CB--CG-[CD] |==|  0.86224
USER: genes 7 Torsion [CB]-CG--CD-[OE2] |==|  0.39611
USER: genes 8 Torsion [N]-CA--C-[N] |==|  0.50531
USER: genes 9 Torsion [C]-N--CA-[CB] |==|  0.38075
USER: genes 10 Torsion [N]-CA--C-[O] |==|  0.91150
USER: genes 11 Torsion [C]-CA--CB-[CG] |==|  0.15785
USER: genes 12 Torsion [CA]-CB--CG-[CD] |==|  0.56367
USER: genes 13 Torsion [CB]-CG--CD-[OE1] |==|  0.97062
USER: genes 14 Torsion [C]-CA--N-[C] |==|  0.75786
USER: genes 15 Torsion [N]-C--CA-[N] |==|  0.84311
USER: genes 16 Torsion [C]-CA--CB-[CG] |==|  0.69837
USER: genes 17 Torsion [CA]-CB--CG-[CD2] |==|  0.23121
USER: genes 18 Torsion [CE1]-CZ--OH-[HH] |==|  0.50313
USER: genes 19 Torsion [C]-CA--N-[C] |==|  0.65965
USER: genes 20 Torsion [N]-C--CA-[N] |==|  0.71380
USER: genes 21 Torsion [C]-CA--CB-[CG] |==|  0.72301
USER: genes 22 Torsion [CA]-CB--CG-[OD2] |==|  0.62398
ROOT
ATOM      1  CA  GLU B 137     -34.674  17.180   3.684  1.00 17.35 LIG 0.18  C 
ENDROOT
BRANCH 1 2
ATOM      2  C   GLU B 137     -34.221  15.799   3.171  1.00 17.61 LIG 0.24  C 
ATOM      3 O    GLU B 137     -34.528  14.787   3.795  1.00 18.66 LIG-0.27  OA
ATOM      4  N   PRO B 138     -33.464  15.745   2.052  1.00 16.89 LIG-0.34  N 
ATOM      5  CD  PRO B 138     -33.015  16.887   1.230  1.00 17.79 LIG 0.13  C 
ATOM      6  CA  PRO B 138     -32.937  14.460   1.583  1.00 17.53 LIG 0.18  C 
ATOM      7  CG  PRO B 138     -31.913  16.300   0.346  1.00 17.78 LIG 0.02  C 
ATOM      8  CB  PRO B 138     -32.302  14.801   0.224  1.00 16.48 LIG 0.04  C 
BRANCH 6 9
ATOM      9  C   PRO B 138     -31.855  13.927   2.524  1.00 16.18 LIG 0.24  C 
ATOM     10  N   GLU B 139     -31.556  12.654   2.366  1.00 18.61 LIG-0.35  N 
ATOM     11 H    GLU B 139     -31.999  12.102   1.877  1.00 18.61 LIG 0.16  HD
ATOM     12 O    PRO B 138     -31.287  14.681   3.330  1.00 15.80 LIG-0.27  OA
BRANCH 10 13
ATOM     13  CA  GLU B 139     -30.401  12.091   3.049  1.00 18.29 LIG 0.18  C 
BRANCH 13 14
ATOM     14  CB  GLU B 139     -30.309  10.582   2.790  1.00 20.66 LIG 0.04  C 
BRANCH 14 15
ATOM     15  CG  GLU B 139     -31.690   9.933   2.589  1.00 25.98 LIG 0.12  C 
BRANCH 15 16
ATOM     16  CD  GLU B 139     -32.693  10.312   3.685  1.00 26.03 LIG 0.17  C 
ATOM     17 OE2  GLU B 139     -33.896  10.498   3.368  1.00 30.93 LIG-0.65  OA
ATOM     18 OE1  GLU B 139     -32.270  10.476   4.838  1.00 28.23 LIG-0.65  OA
ENDBRANCH 15 16
ENDBRANCH 14 15
ENDBRANCH 13 14
BRANCH 13 19
ATOM     19  C   GLU B 139     -29.138  12.840   2.633  1.00 18.24 LIG 0.24  C 
ATOM     20 O    GLU B 139     -29.157  13.787   1.817  1.00 18.84 LIG-0.27  OA
ATOM     21  N   ALA B 140     -28.020  12.381   3.167  1.00 17.91 LIG-0.34  N 
ATOM     22 H    ALA B 140     -27.966  11.679   3.661  1.00 17.91 LIG 0.16  HD
BRANCH 21 23
ATOM     23  CA  ALA B 140     -26.758  13.070   2.937  1.00 17.23 LIG 0.18  C 
ATOM     24  CB  ALA B 140     -25.933  13.172   4.214  1.00 16.99 LIG 0.04  C 
BRANCH 23 25
ATOM     25  C   ALA B 140     -25.954  12.401   1.826  1.00 18.72 LIG 0.20  C 
ATOM     26 O    ALA B 140     -26.028  11.168   1.642  1.00 21.33 LIG-0.65  OA
ATOM     27 OXT  ALA B 140     -25.269  13.130   1.087  1.00 18.51 LIG-0.65  OA
ENDBRANCH 23 25
ENDBRANCH 21 23
ENDBRANCH 13 19
ENDBRANCH 10 13
ENDBRANCH 6 9
ENDBRANCH 1 2
BRANCH 1 28
ATOM     28  CB  GLU B 137     -33.941  17.480   4.994  1.00 18.04 LIG 0.04  C 
BRANCH 28 29
ATOM     29  CG  GLU B 137     -32.439  17.424   4.826  1.00 15.54 LIG 0.12  C 
BRANCH 29 30
ATOM     30  CD  GLU B 137     -31.725  17.161   6.152  1.00 15.60 LIG 0.17  C 
ATOM     31 OE1  GLU B 137     -32.385  17.222   7.226  1.00 18.63 LIG-0.65  OA
ATOM     32 OE2  GLU B 137     -30.517  16.880   6.087  1.00 16.09 LIG-0.65  OA
ENDBRANCH 29 30
ENDBRANCH 28 29
ENDBRANCH 1 28
BRANCH 1 33
ATOM     33  N   GLU B 137     -36.091  17.168   3.976  1.00 19.05 LIG-0.35  N 
ATOM     34  C   TYR B 136     -36.955  17.433   3.021  1.00 22.23 LIG 0.24  C 
ATOM     35 O    TYR B 136     -36.637  17.617   1.852  1.00 24.10 LIG-0.27  OA
ATOM     36 H    GLU B 137     -36.298  16.981   4.790  1.00 19.05 LIG 0.16  HD
BRANCH 34 37
ATOM     37  CA  TYR B 136     -38.381  17.457   3.445  1.00 22.42 LIG 0.18  C 
BRANCH 37 38
ATOM     38  CB  TYR B 136     -38.550  18.548   4.454  1.00 19.45 LIG 0.07  C 
BRANCH 38 39
ATOM     39  CG  TYR B 136     -38.770  17.971   5.834  1.00 15.32 LIG-0.06  A 
ATOM     40  CD1 TYR B 136     -40.056  17.896   6.412  1.00 18.49 LIG 0.01  A 
ATOM     41  CE1 TYR B 136     -40.219  17.469   7.748  1.00 17.90 LIG 0.04  A 
ATOM     42  CZ  TYR B 136     -39.093  17.106   8.483  1.00 15.67 LIG 0.07  A 
ATOM     43  CE2 TYR B 136     -37.835  17.129   7.898  1.00 13.07 LIG 0.04  A 
ATOM     44  CD2 TYR B 136     -37.671  17.578   6.611  1.00 14.55 LIG 0.01  A 
BRANCH 42 45
ATOM     45 OH   TYR B 136     -39.265  16.673   9.760  1.00 15.32 LIG-0.36  OA
ATOM     46 HH   TYR B 136     -38.516  16.501  10.100  1.00 15.32 LIG 0.22  HD
ENDBRANCH 42 45
ENDBRANCH 38 39
ENDBRANCH 37 38
BRANCH 37 47
ATOM     47  N   TYR B 136     -38.745  16.202   4.062  1.00 26.32 LIG-0.34  N 
ATOM     48  C   ASP B 135     -39.746  15.477   3.583  1.00 34.01 LIG 0.26  C 
ATOM     49 O    ASP B 135     -40.573  15.930   2.781  1.00 37.29 LIG-0.27  OA
ATOM     50 H    TYR B 136     -38.268  15.982   4.743  1.00 26.32 LIG 0.16  HD
BRANCH 48 51
ATOM     51  CA  ASP B 135     -39.829  14.016   4.081  1.00 37.28 LIG 0.41  C 
ATOM     52  N   ASP B 135     -39.337  13.057   3.062  1.00 36.58 LIG 0.61  N 
BRANCH 51 53
ATOM     53  CB  ASP B 135     -39.036  13.848   5.386  1.00 38.83 LIG 0.16  C 
BRANCH 53 54
ATOM     54  CG  ASP B 135     -37.649  13.236   5.157  1.00 44.23 LIG 0.17  C 
ATOM     55 OD2  ASP B 135     -37.266  12.323   5.934  1.00 49.44 LIG-0.65  OA
ATOM     56 OD1  ASP B 135     -36.954  13.664   4.199  1.00 41.19 LIG-0.65  OA
ENDBRANCH 53 54
ENDBRANCH 51 53
ENDBRANCH 48 51
ENDBRANCH 37 47
ENDBRANCH 34 37
ENDBRANCH 1 33
TORSDOF 21
ENDMDL
