MODEL 1
USER: ADFR SOLUTION from run 68
USER: SCORE 15.648069 LL:  -2.257 LR: -15.096 RR:   0.000 FEB: -10.025
USER: RMSD 2.490071
USER: SEED 67
USER: STATUS no improvement in best in 2 clusters for 5 generations
USER: GENES 19
USER: genes 0 Translation |==|  0.52207 0.46727 0.59207
USER: genes 1 Rotation |==|  0.51990 0.43788 0.53026 0.99480
USER: genes 2 Torsion [N]-C--CA-[N] |==|  0.38560
USER: genes 3 Torsion [C]-CA--N-[C] |==|  0.81947
USER: genes 4 Torsion [N]-C--CA-[N] |==|  0.38336
USER: genes 5 Torsion [C]-CA--CB-[CG2] |==|  0.75831
USER: genes 6 Torsion [CA]-CB--CG1-[CD1] |==|  0.32942
USER: genes 7 Torsion [C]-CA--N-[H3] |==|  0.32269
USER: genes 8 Torsion [C]-CA--CB-[CG] |==|  0.22590
USER: genes 9 Torsion [CA]-CB--CG-[CD] |==|  0.60846
USER: genes 10 Torsion [CB]-CG--CD-[OE2] |==|  0.39490
USER: genes 11 Torsion [C]-N--CA-[CB] |==|  0.44916
USER: genes 12 Torsion [N]-CA--C-[N] |==|  0.55831
USER: genes 13 Torsion [C]-N--CA-[C] |==|  0.63755
USER: genes 14 Torsion [N]-CA--CB-[CG] |==|  0.57954
USER: genes 15 Torsion [CA]-CB--CG-[OD1] |==|  0.61726
USER: genes 16 Torsion [N]-CA--C-[O] |==|  0.67075
USER: genes 17 Torsion [N]-CA--CB-[OG1] |==|  0.18129
USER: genes 18 Torsion [CA]-CB--OG1-[HG1] |==|  0.99034
ROOT
ATOM      1  C   GLU G   2      16.563   5.778 -34.543  1.00 25.53 LIG 0.24  C 
ATOM      2 O    GLU G   2      15.510   5.211 -34.810  1.00 27.72 LIG-0.27  OA
ATOM      3  N   THR G   3      16.638   7.078 -34.286  1.00 24.80 LIG-0.34  N 
ATOM      4 H    THR G   3      17.367   7.491 -34.094  1.00 24.80 LIG 0.16  HD
ENDROOT
BRANCH 1 5
ATOM      5  CA  GLU G   2      17.873   5.008 -34.492  1.00 28.49 LIG 0.18  C 
BRANCH 5 6
ATOM      6  N   GLU G   2      17.732   3.706 -33.845  1.00 29.38 LIG-0.35  N 
ATOM      7 H    GLU G   2      17.870   3.032 -34.361  1.00 29.38 LIG 0.16  HD
ATOM      8  C   ILE G   1      17.415   3.608 -32.557  1.00 32.49 LIG 0.25  C 
ATOM      9 O    ILE G   1      17.228   4.589 -31.844  1.00 35.08 LIG-0.27  OA
BRANCH 8 10
ATOM     10  CA  ILE G   1      17.275   2.197 -31.991  1.00 40.53 LIG 0.28  C 
BRANCH 10 11
ATOM     11  CB  ILE G   1      15.785   1.793 -31.952  1.00 45.86 LIG 0.02  C 
ATOM     12  CG2 ILE G   1      15.139   2.247 -30.674  1.00 44.63 LIG 0.01  C 
BRANCH 11 13
ATOM     13  CG1 ILE G   1      15.021   2.390 -33.134  1.00 53.07 LIG 0.00  C 
ATOM     14  CD1 ILE G   1      14.414   1.340 -34.046  1.00 50.29 LIG 0.01  C 
ENDBRANCH 11 13
ENDBRANCH 10 11
BRANCH 10 15
ATOM     15  N   ILE G   1      17.890   2.114 -30.674  1.00 42.16 LIG-0.07  N 
ATOM     16 H3   ILE G   1      17.265   1.932 -30.066  1.00 42.16 LIG 0.28  HD
ATOM     17 H1   ILE G   1      18.501   1.467 -30.672  1.00 42.16 LIG 0.28  HD
ATOM     18 H2   ILE G   1      18.278   2.890 -30.478  1.00 42.16 LIG 0.28  HD
ENDBRANCH 10 15
ENDBRANCH 8 10
ENDBRANCH 5 6
BRANCH 5 19
ATOM     19  CB  GLU G   2      18.426   4.848 -35.902  1.00 31.40 LIG 0.04  C 
BRANCH 19 20
ATOM     20  CG  GLU G   2      19.162   6.069 -36.389  1.00 29.13 LIG 0.12  C 
BRANCH 20 21
ATOM     21  CD  GLU G   2      18.897   6.356 -37.840  1.00 32.73 LIG 0.17  C 
ATOM     22 OE2  GLU G   2      18.791   7.549 -38.188  1.00 36.24 LIG-0.65  OA
ATOM     23 OE1  GLU G   2      18.791   5.391 -38.628  1.00 30.62 LIG-0.65  OA
ENDBRANCH 20 21
ENDBRANCH 19 20
ENDBRANCH 5 19
ENDBRANCH 1 5
BRANCH 3 24
ATOM     24  CA  THR G   3      15.453   7.920 -34.314  1.00 22.88 LIG 0.20  C 
BRANCH 24 25
ATOM     25  C   THR G   3      15.041   8.217 -35.746  1.00 24.60 LIG 0.24  C 
ATOM     26  N   ASP G   4      14.276   9.284 -35.924  1.00 24.15 LIG-0.35  N 
ATOM     27 H    ASP G   4      14.012   9.800 -35.289  1.00 24.15 LIG 0.16  HD
ATOM     28 O    THR G   3      15.409   7.499 -36.672  1.00 25.42 LIG-0.27  OA
BRANCH 26 29
ATOM     29  CA  ASP G   4      13.814   9.667 -37.252  1.00 27.29 LIG 0.17  C 
BRANCH 29 30
ATOM     30  CB  ASP G   4      12.345   9.293 -37.428  1.00 26.38 LIG 0.15  C 
BRANCH 30 31
ATOM     31  CG  ASP G   4      12.007   9.009 -38.872  1.00 24.82 LIG 0.17  C 
ATOM     32 OD2  ASP G   4      12.791   8.340 -39.578  1.00 25.35 LIG-0.65  OA
ATOM     33 OD1  ASP G   4      10.934   9.465 -39.299  1.00 26.55 LIG-0.65  OA
ENDBRANCH 30 31
ENDBRANCH 29 30
BRANCH 29 34
ATOM     34  C   ASP G   4      14.056  11.142 -37.566  1.00 29.06 LIG 0.22  C 
ATOM     35 O    ASP G   4      13.121  11.902 -37.801  1.00 23.21 LIG-0.29  OA
ENDBRANCH 29 34
ENDBRANCH 26 29
ENDBRANCH 24 25
BRANCH 24 36
ATOM     36  CB  THR G   3      15.679   9.241 -33.569  1.00 24.93 LIG 0.15  C 
ATOM     37  CG2 THR G   3      16.131   8.975 -32.142  1.00 25.23 LIG 0.04  C 
BRANCH 36 38
ATOM     38 OG1  THR G   3      16.670  10.013 -34.255  1.00 25.78 LIG-0.39  OA
ATOM     39 HG1  THR G   3      16.970   9.572 -34.904  1.00 25.78 LIG 0.21  HD
ENDBRANCH 36 38
ENDBRANCH 24 36
ENDBRANCH 3 24
TORSDOF 17
ENDMDL
MODEL 2
USER: ADFR SOLUTION from run 25
USER: SCORE 15.708319 LL:  -2.398 LR: -14.675 RR:   0.000 FEB:  -9.604
USER: RMSD 2.929873
USER: SEED 24
USER: STATUS no improvement in best in 1 clusters for 5 generations
USER: GENES 19
USER: genes 0 Translation |==|  0.54201 0.42799 0.61089
USER: genes 1 Rotation |==|  0.55550 0.39267 0.50816 0.98511
USER: genes 2 Torsion [N]-C--CA-[N] |==|  0.34246
USER: genes 3 Torsion [C]-CA--N-[C] |==|  0.79967
USER: genes 4 Torsion [N]-C--CA-[N] |==|  0.42937
USER: genes 5 Torsion [C]-CA--CB-[CG2] |==|  0.62697
USER: genes 6 Torsion [CA]-CB--CG1-[CD1] |==|  0.34884
USER: genes 7 Torsion [C]-CA--N-[H3] |==|  0.24693
USER: genes 8 Torsion [C]-CA--CB-[CG] |==|  0.48011
USER: genes 9 Torsion [CA]-CB--CG-[CD] |==|  0.68227
USER: genes 10 Torsion [CB]-CG--CD-[OE2] |==|  0.75419
USER: genes 11 Torsion [C]-N--CA-[CB] |==|  0.42223
USER: genes 12 Torsion [N]-CA--C-[N] |==|  0.46370
USER: genes 13 Torsion [C]-N--CA-[C] |==|  0.78715
USER: genes 14 Torsion [N]-CA--CB-[CG] |==|  0.62056
USER: genes 15 Torsion [CA]-CB--CG-[OD1] |==|  0.91449
USER: genes 16 Torsion [N]-CA--C-[O] |==|  0.20586
USER: genes 17 Torsion [N]-CA--CB-[OG1] |==|  0.55799
USER: genes 18 Torsion [CA]-CB--OG1-[HG1] |==|  0.89717
ROOT
ATOM      1  C   GLU G   2      16.922   4.953 -34.261  1.00 25.53 LIG 0.24  C 
ATOM      2 O    GLU G   2      15.901   4.530 -34.789  1.00 27.72 LIG-0.27  OA
ATOM      3  N   THR G   3      17.028   6.185 -33.779  1.00 24.80 LIG-0.34  N 
ATOM      4 H    THR G   3      17.735   6.497 -33.402  1.00 24.80 LIG 0.16  HD
ENDROOT
BRANCH 1 5
ATOM      5  CA  GLU G   2      18.154   4.072 -34.126  1.00 28.49 LIG 0.18  C 
BRANCH 5 6
ATOM      6  N   GLU G   2      17.879   2.832 -33.405  1.00 29.38 LIG-0.35  N 
ATOM      7 H    GLU G   2      17.871   2.126 -33.896  1.00 29.38 LIG 0.16  HD
ATOM      8  C   ILE G   1      17.663   2.832 -32.093  1.00 32.49 LIG 0.25  C 
ATOM      9 O    ILE G   1      17.685   3.857 -31.418  1.00 35.08 LIG-0.27  OA
BRANCH 8 10
ATOM     10  CA  ILE G   1      17.367   1.481 -31.446  1.00 40.53 LIG 0.28  C 
BRANCH 10 11
ATOM     11  CB  ILE G   1      15.877   1.122 -31.642  1.00 45.86 LIG 0.02  C 
ATOM     12  CG2 ILE G   1      15.274   0.620 -30.361  1.00 44.63 LIG 0.01  C 
BRANCH 11 13
ATOM     13  CG1 ILE G   1      15.078   2.332 -32.126  1.00 53.07 LIG 0.00  C 
ATOM     14  CD1 ILE G   1      14.301   2.064 -33.401  1.00 50.29 LIG 0.01  C 
ENDBRANCH 11 13
ENDBRANCH 10 11
BRANCH 10 15
ATOM     15  N   ILE G   1      17.736   1.498 -30.039  1.00 42.16 LIG-0.07  N 
ATOM     16 H3   ILE G   1      17.046   1.781 -29.554  1.00 42.16 LIG 0.28  HD
ATOM     17 H1   ILE G   1      17.961   0.677 -29.781  1.00 42.16 LIG 0.28  HD
ATOM     18 H2   ILE G   1      18.428   2.046 -29.920  1.00 42.16 LIG 0.28  HD
ENDBRANCH 10 15
ENDBRANCH 8 10
ENDBRANCH 5 6
BRANCH 5 19
ATOM     19  CB  GLU G   2      18.720   3.774 -35.509  1.00 31.40 LIG 0.04  C 
BRANCH 19 20
ATOM     20  CG  GLU G   2      20.040   3.050 -35.461  1.00 29.13 LIG 0.12  C 
BRANCH 20 21
ATOM     21  CD  GLU G   2      21.167   3.879 -36.007  1.00 32.73 LIG 0.17  C 
ATOM     22 OE2  GLU G   2      21.399   3.816 -37.231  1.00 36.24 LIG-0.65  OA
ATOM     23 OE1  GLU G   2      21.822   4.590 -35.213  1.00 30.62 LIG-0.65  OA
ENDBRANCH 20 21
ENDBRANCH 19 20
ENDBRANCH 5 19
ENDBRANCH 1 5
BRANCH 3 24
ATOM     24  CA  THR G   3      15.919   7.122 -33.857  1.00 22.88 LIG 0.20  C 
BRANCH 24 25
ATOM     25  C   THR G   3      15.929   7.852 -35.190  1.00 24.60 LIG 0.24  C 
ATOM     26  N   ASP G   4      14.831   8.528 -35.493  1.00 24.15 LIG-0.35  N 
ATOM     27 H    ASP G   4      14.137   8.574 -34.988  1.00 24.15 LIG 0.16  HD
ATOM     28 O    THR G   3      16.909   7.808 -35.929  1.00 25.42 LIG-0.27  OA
BRANCH 26 29
ATOM     29  CA  ASP G   4      14.721   9.265 -36.745  1.00 27.29 LIG 0.17  C 
BRANCH 29 30
ATOM     30  CB  ASP G   4      13.254   9.481 -37.104  1.00 26.38 LIG 0.15  C 
BRANCH 30 31
ATOM     31  CG  ASP G   4      12.989   9.225 -38.568  1.00 24.82 LIG 0.17  C 
ATOM     32 OD2  ASP G   4      11.875   8.796 -38.936  1.00 25.35 LIG-0.65  OA
ATOM     33 OD1  ASP G   4      13.916   9.465 -39.358  1.00 26.55 LIG-0.65  OA
ENDBRANCH 30 31
ENDBRANCH 29 30
BRANCH 29 34
ATOM     34  C   ASP G   4      15.493  10.583 -36.734  1.00 29.06 LIG 0.22  C 
ATOM     35 O    ASP G   4      16.717  10.602 -36.811  1.00 23.21 LIG-0.29  OA
ENDBRANCH 29 34
ENDBRANCH 26 29
ENDBRANCH 24 25
BRANCH 24 36
ATOM     36  CB  THR G   3      15.963   8.149 -32.719  1.00 24.93 LIG 0.15  C 
ATOM     37  CG2 THR G   3      16.962   9.249 -33.035  1.00 25.23 LIG 0.04  C 
BRANCH 36 38
ATOM     38 OG1  THR G   3      14.661   8.715 -32.536  1.00 25.78 LIG-0.39  OA
ATOM     39 HG1  THR G   3      14.288   8.809 -33.283  1.00 25.78 LIG 0.21  HD
ENDBRANCH 36 38
ENDBRANCH 24 36
ENDBRANCH 3 24
TORSDOF 17
ENDMDL
MODEL 3
USER: ADFR SOLUTION from run 170
USER: SCORE 15.545642 LL:  -2.126 LR: -14.154 RR:   0.000 FEB:  -9.083
USER: RMSD 2.483837
USER: SEED 169
USER: STATUS no improvement in best in 3 clusters for 5 generations
USER: GENES 19
USER: genes 0 Translation |==|  0.54978 0.44216 0.54956
USER: genes 1 Rotation |==|  0.66904 0.33787 0.44850 0.93873
USER: genes 2 Torsion [N]-C--CA-[N] |==|  0.35462
USER: genes 3 Torsion [C]-CA--N-[C] |==|  0.69499
USER: genes 4 Torsion [N]-C--CA-[N] |==|  0.34527
USER: genes 5 Torsion [C]-CA--CB-[CG2] |==|  0.82614
USER: genes 6 Torsion [CA]-CB--CG1-[CD1] |==|  0.67780
USER: genes 7 Torsion [C]-CA--N-[H3] |==|  0.31754
USER: genes 8 Torsion [C]-CA--CB-[CG] |==|  0.07779
USER: genes 9 Torsion [CA]-CB--CG-[CD] |==|  0.62218
USER: genes 10 Torsion [CB]-CG--CD-[OE2] |==|  0.97359
USER: genes 11 Torsion [C]-N--CA-[CB] |==|  0.52870
USER: genes 12 Torsion [N]-CA--C-[N] |==|  0.34030
USER: genes 13 Torsion [C]-N--CA-[C] |==|  0.84852
USER: genes 14 Torsion [N]-CA--CB-[CG] |==|  0.55621
USER: genes 15 Torsion [CA]-CB--CG-[OD1] |==|  0.01775
USER: genes 16 Torsion [N]-CA--C-[O] |==|  0.57479
USER: genes 17 Torsion [N]-CA--CB-[OG1] |==|  0.91027
USER: genes 18 Torsion [CA]-CB--OG1-[HG1] |==|  0.49549
ROOT
ATOM      1  C   GLU G   2      17.062   5.250 -35.181  1.00 25.53 LIG 0.24  C 
ATOM      2 O    GLU G   2      16.170   5.350 -36.015  1.00 27.72 LIG-0.27  OA
ATOM      3  N   THR G   3      17.158   6.052 -34.127  1.00 24.80 LIG-0.34  N 
ATOM      4 H    THR G   3      17.775   5.994 -33.531  1.00 24.80 LIG 0.16  HD
ENDROOT
BRANCH 1 5
ATOM      5  CA  GLU G   2      18.135   4.181 -35.309  1.00 28.49 LIG 0.18  C 
BRANCH 5 6
ATOM      6  N   GLU G   2      17.574   2.844 -35.483  1.00 29.38 LIG-0.35  N 
ATOM      7 H    GLU G   2      17.197   2.709 -36.245  1.00 29.38 LIG 0.16  HD
ATOM      8  C   ILE G   1      17.658   1.931 -34.519  1.00 32.49 LIG 0.25  C 
ATOM      9 O    ILE G   1      18.206   2.152 -33.444  1.00 35.08 LIG-0.27  OA
BRANCH 8 10
ATOM     10  CA  ILE G   1      17.020   0.573 -34.803  1.00 40.53 LIG 0.28  C 
BRANCH 10 11
ATOM     11  CB  ILE G   1      15.790   0.371 -33.891  1.00 45.86 LIG 0.02  C 
ATOM     12  CG2 ILE G   1      16.191   0.358 -32.444  1.00 44.63 LIG 0.01  C 
BRANCH 11 13
ATOM     13  CG1 ILE G   1      14.755   1.476 -34.109  1.00 53.07 LIG 0.00  C 
ATOM     14  CD1 ILE G   1      14.536   2.340 -32.882  1.00 50.29 LIG 0.01  C 
ENDBRANCH 11 13
ENDBRANCH 10 11
BRANCH 10 15
ATOM     15  N   ILE G   1      17.995  -0.493 -34.635  1.00 42.16 LIG-0.07  N 
ATOM     16 H3   ILE G   1      17.759  -1.007 -33.947  1.00 42.16 LIG 0.28  HD
ATOM     17 H1   ILE G   1      18.027  -0.986 -35.375  1.00 42.16 LIG 0.28  HD
ATOM     18 H2   ILE G   1      18.797  -0.140 -34.480  1.00 42.16 LIG 0.28  HD
ENDBRANCH 10 15
ENDBRANCH 8 10
ENDBRANCH 5 6
BRANCH 5 19
ATOM     19  CB  GLU G   2      19.064   4.527 -36.465  1.00 31.40 LIG 0.04  C 
BRANCH 19 20
ATOM     20  CG  GLU G   2      19.154   6.008 -36.726  1.00 29.13 LIG 0.12  C 
BRANCH 20 21
ATOM     21  CD  GLU G   2      19.084   6.335 -38.191  1.00 32.73 LIG 0.17  C 
ATOM     22 OE2  GLU G   2      19.147   5.391 -39.003  1.00 36.24 LIG-0.65  OA
ATOM     23 OE1  GLU G   2      18.971   7.534 -38.529  1.00 30.62 LIG-0.65  OA
ENDBRANCH 20 21
ENDBRANCH 19 20
ENDBRANCH 5 19
ENDBRANCH 1 5
BRANCH 3 24
ATOM     24  CA  THR G   3      16.195   7.118 -33.902  1.00 22.88 LIG 0.20  C 
BRANCH 24 25
ATOM     25  C   THR G   3      15.978   7.920 -35.174  1.00 24.60 LIG 0.24  C 
ATOM     26  N   ASP G   4      14.732   7.985 -35.619  1.00 24.15 LIG-0.35  N 
ATOM     27 H    ASP G   4      14.062   7.608 -35.234  1.00 24.15 LIG 0.16  HD
ATOM     28 O    THR G   3      16.917   8.473 -35.741  1.00 25.42 LIG-0.27  OA
BRANCH 26 29
ATOM     29  CA  ASP G   4      14.401   8.722 -36.831  1.00 27.29 LIG 0.17  C 
BRANCH 29 30
ATOM     30  CB  ASP G   4      12.904   8.633 -37.111  1.00 26.38 LIG 0.15  C 
BRANCH 30 31
ATOM     31  CG  ASP G   4      12.583   8.937 -38.555  1.00 24.82 LIG 0.17  C 
ATOM     32 OD2  ASP G   4      11.393   9.028 -38.924  1.00 25.35 LIG-0.65  OA
ATOM     33 OD1  ASP G   4      13.544   9.090 -39.326  1.00 26.55 LIG-0.65  OA
ENDBRANCH 30 31
ENDBRANCH 29 30
BRANCH 29 34
ATOM     34  C   ASP G   4      14.877  10.173 -36.797  1.00 29.06 LIG 0.22  C 
ATOM     35 O    ASP G   4      14.304  11.043 -37.445  1.00 23.21 LIG-0.29  OA
ENDBRANCH 29 34
ENDBRANCH 26 29
ENDBRANCH 24 25
BRANCH 24 36
ATOM     36  CB  THR G   3      16.645   8.061 -32.780  1.00 24.93 LIG 0.15  C 
ATOM     37  CG2 THR G   3      15.442   8.714 -32.121  1.00 25.23 LIG 0.04  C 
BRANCH 36 38
ATOM     38 OG1  THR G   3      17.390   7.323 -31.805  1.00 25.78 LIG-0.39  OA
ATOM     39 HG1  THR G   3      17.655   7.844 -31.202  1.00 25.78 LIG 0.21  HD
ENDBRANCH 36 38
ENDBRANCH 24 36
ENDBRANCH 3 24
TORSDOF 17
ENDMDL
MODEL 4
USER: ADFR SOLUTION from run 179
USER: SCORE 14.685279 LL:  -2.075 LR: -13.469 RR:   0.000 FEB:  -8.398
USER: RMSD 1.252166
USER: SEED 178
USER: STATUS no improvement in best in 3 clusters for 5 generations
USER: GENES 19
USER: genes 0 Translation |==|  0.53796 0.49010 0.56247
USER: genes 1 Rotation |==|  0.57450 0.40603 0.50603 0.98537
USER: genes 2 Torsion [N]-C--CA-[N] |==|  0.44301
USER: genes 3 Torsion [C]-CA--N-[C] |==|  0.64082
USER: genes 4 Torsion [N]-C--CA-[N] |==|  0.90939
USER: genes 5 Torsion [C]-CA--CB-[CG2] |==|  0.08912
USER: genes 6 Torsion [CA]-CB--CG1-[CD1] |==|  0.35242
USER: genes 7 Torsion [C]-CA--N-[H3] |==|  0.18702
USER: genes 8 Torsion [C]-CA--CB-[CG] |==|  0.74564
USER: genes 9 Torsion [CA]-CB--CG-[CD] |==|  0.40975
USER: genes 10 Torsion [CB]-CG--CD-[OE2] |==|  0.43378
USER: genes 11 Torsion [C]-N--CA-[CB] |==|  0.47840
USER: genes 12 Torsion [N]-CA--C-[N] |==|  0.45155
USER: genes 13 Torsion [C]-N--CA-[C] |==|  0.74073
USER: genes 14 Torsion [N]-CA--CB-[CG] |==|  0.60874
USER: genes 15 Torsion [CA]-CB--CG-[OD1] |==|  0.11052
USER: genes 16 Torsion [N]-CA--C-[O] |==|  0.63875
USER: genes 17 Torsion [N]-CA--CB-[OG1] |==|  0.17477
USER: genes 18 Torsion [CA]-CB--OG1-[HG1] |==|  0.05532
ROOT
ATOM      1  C   GLU G   2      16.849   6.257 -34.987  1.00 25.53 LIG 0.24  C 
ATOM      2 O    GLU G   2      15.806   5.859 -35.490  1.00 27.72 LIG-0.27  OA
ATOM      3  N   THR G   3      16.967   7.451 -34.420  1.00 24.80 LIG-0.34  N 
ATOM      4 H    THR G   3      17.690   7.746 -34.060  1.00 24.80 LIG 0.16  HD
ENDROOT
BRANCH 1 5
ATOM      5  CA  GLU G   2      18.097   5.389 -34.985  1.00 28.49 LIG 0.18  C 
BRANCH 5 6
ATOM      6  N   GLU G   2      17.793   3.972 -35.170  1.00 29.38 LIG-0.35  N 
ATOM      7 H    GLU G   2      17.284   3.799 -35.842  1.00 29.38 LIG 0.16  HD
ATOM      8  C   ILE G   1      18.283   3.050 -34.346  1.00 32.49 LIG 0.25  C 
ATOM      9 O    ILE G   1      19.011   3.328 -33.398  1.00 35.08 LIG-0.27  OA
BRANCH 8 10
ATOM     10  CA  ILE G   1      17.884   1.602 -34.623  1.00 40.53 LIG 0.28  C 
BRANCH 10 11
ATOM     11  CB  ILE G   1      18.921   0.942 -35.558  1.00 45.86 LIG 0.02  C 
ATOM     12  CG2 ILE G   1      20.293   1.506 -35.322  1.00 44.63 LIG 0.01  C 
BRANCH 11 13
ATOM     13  CG1 ILE G   1      18.964  -0.573 -35.350  1.00 53.07 LIG 0.00  C 
ATOM     14  CD1 ILE G   1      18.787  -1.358 -36.636  1.00 50.29 LIG 0.01  C 
ENDBRANCH 11 13
ENDBRANCH 10 11
BRANCH 10 15
ATOM     15  N   ILE G   1      16.541   1.541 -35.179  1.00 42.16 LIG-0.07  N 
ATOM     16 H3   ILE G   1      16.539   1.906 -35.991  1.00 42.16 LIG 0.28  HD
ATOM     17 H1   ILE G   1      16.281   0.692 -35.236  1.00 42.16 LIG 0.28  HD
ATOM     18 H2   ILE G   1      15.981   1.988 -34.651  1.00 42.16 LIG 0.28  HD
ENDBRANCH 10 15
ENDBRANCH 8 10
ENDBRANCH 5 6
BRANCH 5 19
ATOM     19  CB  GLU G   2      19.058   5.876 -36.062  1.00 31.40 LIG 0.04  C 
BRANCH 19 20
ATOM     20  CG  GLU G   2      18.862   5.183 -37.385  1.00 29.13 LIG 0.12  C 
BRANCH 20 21
ATOM     21  CD  GLU G   2      19.165   6.080 -38.551  1.00 32.73 LIG 0.17  C 
ATOM     22 OE2  GLU G   2      19.481   5.544 -39.632  1.00 36.24 LIG-0.65  OA
ATOM     23 OE1  GLU G   2      19.090   7.317 -38.386  1.00 30.62 LIG-0.65  OA
ENDBRANCH 20 21
ENDBRANCH 19 20
ENDBRANCH 5 19
ENDBRANCH 1 5
BRANCH 3 24
ATOM     24  CA  THR G   3      15.844   8.374 -34.369  1.00 22.88 LIG 0.20  C 
BRANCH 24 25
ATOM     25  C   THR G   3      15.462   8.830 -35.767  1.00 24.60 LIG 0.24  C 
ATOM     26  N   ASP G   4      14.260   9.372 -35.896  1.00 24.15 LIG-0.35  N 
ATOM     27 H    ASP G   4      13.705   9.477 -35.248  1.00 24.15 LIG 0.16  HD
ATOM     28 O    THR G   3      16.238   8.698 -36.710  1.00 25.42 LIG-0.27  OA
BRANCH 26 29
ATOM     29  CA  ASP G   4      13.781   9.844 -37.189  1.00 27.29 LIG 0.17  C 
BRANCH 29 30
ATOM     30  CB  ASP G   4      12.299   9.520 -37.352  1.00 26.38 LIG 0.15  C 
BRANCH 30 31
ATOM     31  CG  ASP G   4      11.971   9.082 -38.759  1.00 24.82 LIG 0.17  C 
ATOM     32 OD2  ASP G   4      10.914   9.467 -39.303  1.00 25.35 LIG-0.65  OA
ATOM     33 OD1  ASP G   4      12.791   8.340 -39.324  1.00 26.55 LIG-0.65  OA
ENDBRANCH 30 31
ENDBRANCH 29 30
BRANCH 29 34
ATOM     34  C   ASP G   4      14.057  11.328 -37.424  1.00 29.06 LIG 0.22  C 
ATOM     35 O    ASP G   4      13.169  12.086 -37.799  1.00 23.21 LIG-0.29  OA
ENDBRANCH 29 34
ENDBRANCH 26 29
ENDBRANCH 24 25
BRANCH 24 36
ATOM     36  CB  THR G   3      16.159   9.602 -33.505  1.00 24.93 LIG 0.15  C 
ATOM     37  CG2 THR G   3      16.527   9.177 -32.094  1.00 25.23 LIG 0.04  C 
BRANCH 36 38
ATOM     38 OG1  THR G   3      17.243  10.332 -34.090  1.00 25.78 LIG-0.39  OA
ATOM     39 HG1  THR G   3      17.317  10.123 -34.900  1.00 25.78 LIG 0.21  HD
ENDBRANCH 36 38
ENDBRANCH 24 36
ENDBRANCH 3 24
TORSDOF 17
ENDMDL
MODEL 5
USER: ADFR SOLUTION from run 53
USER: SCORE 14.819697 LL:  -1.997 LR: -13.331 RR:   0.000 FEB:  -8.260
USER: RMSD 3.831117
USER: SEED 52
USER: STATUS 1 or 2 clusters left
USER: GENES 19
USER: genes 0 Translation |==|  0.49705 0.45115 0.62290
USER: genes 1 Rotation |==|  0.57055 0.27312 0.37225 0.92099
USER: genes 2 Torsion [N]-C--CA-[N] |==|  0.98841
USER: genes 3 Torsion [C]-CA--N-[C] |==|  0.80290
USER: genes 4 Torsion [N]-C--CA-[N] |==|  0.87748
USER: genes 5 Torsion [C]-CA--CB-[CG2] |==|  0.04633
USER: genes 6 Torsion [CA]-CB--CG1-[CD1] |==|  0.44965
USER: genes 7 Torsion [C]-CA--N-[H3] |==|  0.26314
USER: genes 8 Torsion [C]-CA--CB-[CG] |==|  0.47560
USER: genes 9 Torsion [CA]-CB--CG-[CD] |==|  0.54233
USER: genes 10 Torsion [CB]-CG--CD-[OE2] |==|  0.61293
USER: genes 11 Torsion [C]-N--CA-[CB] |==|  0.56346
USER: genes 12 Torsion [N]-CA--C-[N] |==|  0.33216
USER: genes 13 Torsion [C]-N--CA-[C] |==|  0.80950
USER: genes 14 Torsion [N]-CA--CB-[CG] |==|  0.56232
USER: genes 15 Torsion [CA]-CB--CG-[OD1] |==|  0.89106
USER: genes 16 Torsion [N]-CA--C-[O] |==|  0.17548
USER: genes 17 Torsion [N]-CA--CB-[OG1] |==|  0.89227
USER: genes 18 Torsion [CA]-CB--OG1-[HG1] |==|  0.51636
ROOT
ATOM      1  C   GLU G   2      16.113   5.439 -34.081  1.00 25.53 LIG 0.24  C 
ATOM      2 O    GLU G   2      15.416   5.710 -35.051  1.00 27.72 LIG-0.27  OA
ATOM      3  N   THR G   3      16.541   6.355 -33.221  1.00 24.80 LIG-0.34  N 
ATOM      4 H    THR G   3      17.028   6.183 -32.533  1.00 24.80 LIG 0.16  HD
ENDROOT
BRANCH 1 5
ATOM      5  CA  GLU G   2      16.538   4.007 -33.800  1.00 28.49 LIG 0.18  C 
BRANCH 5 6
ATOM      6  N   GLU G   2      17.444   3.905 -32.659  1.00 29.38 LIG-0.35  N 
ATOM      7 H    GLU G   2      17.100   3.544 -31.959  1.00 29.38 LIG 0.16  HD
ATOM      8  C   ILE G   1      18.697   4.347 -32.733  1.00 32.49 LIG 0.25  C 
ATOM      9 O    ILE G   1      19.162   4.855 -33.749  1.00 35.08 LIG-0.27  OA
BRANCH 8 10
ATOM     10  CA  ILE G   1      19.549   4.208 -31.474  1.00 40.53 LIG 0.28  C 
BRANCH 10 11
ATOM     11  CB  ILE G   1      20.068   2.759 -31.349  1.00 45.86 LIG 0.02  C 
ATOM     12  CG2 ILE G   1      19.943   2.030 -32.656  1.00 44.63 LIG 0.01  C 
BRANCH 11 13
ATOM     13  CG1 ILE G   1      21.531   2.735 -30.906  1.00 53.07 LIG 0.00  C 
ATOM     14  CD1 ILE G   1      21.966   1.391 -30.351  1.00 50.29 LIG 0.01  C 
ENDBRANCH 11 13
ENDBRANCH 10 11
BRANCH 10 15
ATOM     15  N   ILE G   1      18.790   4.611 -30.299  1.00 42.16 LIG-0.07  N 
ATOM     16 H3   ILE G   1      18.421   3.893 -29.924  1.00 42.16 LIG 0.28  HD
ATOM     17 H1   ILE G   1      19.334   5.003 -29.714  1.00 42.16 LIG 0.28  HD
ATOM     18 H2   ILE G   1      18.152   5.182 -30.540  1.00 42.16 LIG 0.28  HD
ENDBRANCH 10 15
ENDBRANCH 8 10
ENDBRANCH 5 6
BRANCH 5 19
ATOM     19  CB  GLU G   2      15.304   3.142 -33.583  1.00 31.40 LIG 0.04  C 
BRANCH 19 20
ATOM     20  CG  GLU G   2      15.620   1.671 -33.507  1.00 29.13 LIG 0.12  C 
BRANCH 20 21
ATOM     21  CD  GLU G   2      14.395   0.814 -33.660  1.00 32.73 LIG 0.17  C 
ATOM     22 OE2  GLU G   2      14.291  -0.190 -32.928  1.00 36.24 LIG-0.65  OA
ATOM     23 OE1  GLU G   2      13.541   1.143 -34.513  1.00 30.62 LIG-0.65  OA
ENDBRANCH 20 21
ENDBRANCH 19 20
ENDBRANCH 5 19
ENDBRANCH 1 5
BRANCH 3 24
ATOM     24  CA  THR G   3      16.206   7.760 -33.389  1.00 22.88 LIG 0.20  C 
BRANCH 24 25
ATOM     25  C   THR G   3      16.159   8.127 -34.864  1.00 24.60 LIG 0.24  C 
ATOM     26  N   ASP G   4      14.999   8.577 -35.317  1.00 24.15 LIG-0.35  N 
ATOM     27 H    ASP G   4      14.295   8.670 -34.833  1.00 24.15 LIG 0.16  HD
ATOM     28 O    THR G   3      17.153   8.008 -35.576  1.00 25.42 LIG-0.27  OA
BRANCH 26 29
ATOM     29  CA  ASP G   4      14.832   8.956 -36.714  1.00 27.29 LIG 0.17  C 
BRANCH 29 30
ATOM     30  CB  ASP G   4      13.350   9.102 -37.047  1.00 26.38 LIG 0.15  C 
BRANCH 30 31
ATOM     31  CG  ASP G   4      13.089   8.953 -38.527  1.00 24.82 LIG 0.17  C 
ATOM     32 OD2  ASP G   4      12.076   8.340 -38.924  1.00 25.35 LIG-0.65  OA
ATOM     33 OD1  ASP G   4      13.916   9.465 -39.299  1.00 26.55 LIG-0.65  OA
ENDBRANCH 30 31
ENDBRANCH 29 30
BRANCH 29 34
ATOM     34  C   ASP G   4      15.615  10.213 -37.090  1.00 29.06 LIG 0.22  C 
ATOM     35 O    ASP G   4      16.840  10.237 -37.034  1.00 23.21 LIG-0.29  OA
ENDBRANCH 29 34
ENDBRANCH 26 29
ENDBRANCH 24 25
BRANCH 24 36
ATOM     36  CB  THR G   3      17.210   8.672 -32.674  1.00 24.93 LIG 0.15  C 
ATOM     37  CG2 THR G   3      16.601  10.044 -32.432  1.00 25.23 LIG 0.04  C 
BRANCH 36 38
ATOM     38 OG1  THR G   3      17.585   8.083 -31.424  1.00 25.78 LIG-0.39  OA
ATOM     39 HG1  THR G   3      18.071   8.617 -30.996  1.00 25.78 LIG 0.21  HD
ENDBRANCH 36 38
ENDBRANCH 24 36
ENDBRANCH 3 24
TORSDOF 17
ENDMDL
MODEL 6
USER: ADFR SOLUTION from run 180
USER: SCORE 14.697249 LL:  -2.224 LR: -13.116 RR:   0.000 FEB:  -8.045
USER: RMSD 1.963788
USER: SEED 179
USER: STATUS no improvement in best in 2 clusters for 5 generations
USER: GENES 19
USER: genes 0 Translation |==|  0.52974 0.46421 0.58055
USER: genes 1 Rotation |==|  0.60527 0.34907 0.43950 0.96095
USER: genes 2 Torsion [N]-C--CA-[N] |==|  0.36676
USER: genes 3 Torsion [C]-CA--N-[C] |==|  0.77948
USER: genes 4 Torsion [N]-C--CA-[N] |==|  0.84856
USER: genes 5 Torsion [C]-CA--CB-[CG2] |==|  0.46503
USER: genes 6 Torsion [CA]-CB--CG1-[CD1] |==|  0.49977
USER: genes 7 Torsion [C]-CA--N-[H3] |==|  0.46873
USER: genes 8 Torsion [C]-CA--CB-[CG] |==|  0.50098
USER: genes 9 Torsion [CA]-CB--CG-[CD] |==|  0.62188
USER: genes 10 Torsion [CB]-CG--CD-[OE2] |==|  0.20643
USER: genes 11 Torsion [C]-N--CA-[CB] |==|  0.51227
USER: genes 12 Torsion [N]-CA--C-[N] |==|  0.37800
USER: genes 13 Torsion [C]-N--CA-[C] |==|  0.80718
USER: genes 14 Torsion [N]-CA--CB-[CG] |==|  0.59569
USER: genes 15 Torsion [CA]-CB--CG-[OD1] |==|  0.99492
USER: genes 16 Torsion [N]-CA--C-[O] |==|  0.07698
USER: genes 17 Torsion [N]-CA--CB-[OG1] |==|  0.74959
USER: genes 18 Torsion [CA]-CB--OG1-[HG1] |==|  0.26556
ROOT
ATOM      1  C   GLU G   2      16.701   5.713 -34.716  1.00 25.53 LIG 0.24  C 
ATOM      2 O    GLU G   2      15.729   5.709 -35.461  1.00 27.72 LIG-0.27  OA
ATOM      3  N   THR G   3      16.980   6.722 -33.900  1.00 24.80 LIG-0.34  N 
ATOM      4 H    THR G   3      17.656   6.741 -33.368  1.00 24.80 LIG 0.16  HD
ENDROOT
BRANCH 1 5
ATOM      5  CA  GLU G   2      17.667   4.540 -34.685  1.00 28.49 LIG 0.18  C 
BRANCH 5 6
ATOM      6  N   GLU G   2      16.982   3.254 -34.581  1.00 29.38 LIG-0.35  N 
ATOM      7 H    GLU G   2      16.910   2.825 -35.324  1.00 29.38 LIG 0.16  HD
ATOM      8  C   ILE G   1      16.519   2.813 -33.415  1.00 32.49 LIG 0.25  C 
ATOM      9 O    ILE G   1      16.640   3.447 -32.371  1.00 35.08 LIG-0.27  OA
BRANCH 8 10
ATOM     10  CA  ILE G   1      15.802   1.465 -33.428  1.00 40.53 LIG 0.28  C 
BRANCH 10 11
ATOM     11  CB  ILE G   1      16.815   0.334 -33.710  1.00 45.86 LIG 0.02  C 
ATOM     12  CG2 ILE G   1      16.210  -1.012 -33.429  1.00 44.63 LIG 0.01  C 
BRANCH 11 13
ATOM     13  CG1 ILE G   1      17.291   0.371 -35.163  1.00 53.07 LIG 0.00  C 
ATOM     14  CD1 ILE G   1      18.292  -0.721 -35.492  1.00 50.29 LIG 0.01  C 
ENDBRANCH 11 13
ENDBRANCH 10 11
BRANCH 10 15
ATOM     15  N   ILE G   1      14.719   1.472 -34.400  1.00 42.16 LIG-0.07  N 
ATOM     16 H3   ILE G   1      14.418   0.643 -34.516  1.00 42.16 LIG 0.28  HD
ATOM     17 H1   ILE G   1      14.058   1.989 -34.105  1.00 42.16 LIG 0.28  HD
ATOM     18 H2   ILE G   1      15.020   1.790 -35.176  1.00 42.16 LIG 0.28  HD
ENDBRANCH 10 15
ENDBRANCH 8 10
ENDBRANCH 5 6
BRANCH 5 19
ATOM     19  CB  GLU G   2      18.554   4.576 -35.923  1.00 31.40 LIG 0.04  C 
BRANCH 19 20
ATOM     20  CG  GLU G   2      19.539   3.439 -35.976  1.00 29.13 LIG 0.12  C 
BRANCH 20 21
ATOM     21  CD  GLU G   2      20.911   3.890 -36.390  1.00 32.73 LIG 0.17  C 
ATOM     22 OE2  GLU G   2      21.595   4.514 -35.555  1.00 36.24 LIG-0.65  OA
ATOM     23 OE1  GLU G   2      21.302   3.623 -37.547  1.00 30.62 LIG-0.65  OA
ENDBRANCH 20 21
ENDBRANCH 19 20
ENDBRANCH 5 19
ENDBRANCH 1 5
BRANCH 3 24
ATOM     24  CA  THR G   3      16.134   7.903 -33.847  1.00 22.88 LIG 0.20  C 
BRANCH 24 25
ATOM     25  C   THR G   3      15.952   8.494 -35.235  1.00 24.60 LIG 0.24  C 
ATOM     26  N   ASP G   4      14.721   8.867 -35.554  1.00 24.15 LIG-0.35  N 
ATOM     27 H    ASP G   4      14.044   8.795 -35.030  1.00 24.15 LIG 0.16  HD
ATOM     28 O    THR G   3      16.904   8.613 -36.002  1.00 25.42 LIG-0.27  OA
BRANCH 26 29
ATOM     29  CA  ASP G   4      14.423   9.443 -36.859  1.00 27.29 LIG 0.17  C 
BRANCH 29 30
ATOM     30  CB  ASP G   4      12.917   9.440 -37.105  1.00 26.38 LIG 0.15  C 
BRANCH 30 31
ATOM     31  CG  ASP G   4      12.585   9.208 -38.560  1.00 24.82 LIG 0.17  C 
ATOM     32 OD2  ASP G   4      11.393   9.145 -38.926  1.00 25.35 LIG-0.65  OA
ATOM     33 OD1  ASP G   4      13.541   9.090 -39.344  1.00 26.55 LIG-0.65  OA
ENDBRANCH 30 31
ENDBRANCH 29 30
BRANCH 29 34
ATOM     34  C   ASP G   4      15.017  10.838 -37.047  1.00 29.06 LIG 0.22  C 
ATOM     35 O    ASP G   4      16.032  11.180 -36.450  1.00 23.21 LIG-0.29  OA
ENDBRANCH 29 34
ENDBRANCH 26 29
ENDBRANCH 24 25
BRANCH 24 36
ATOM     36  CB  THR G   3      16.713   8.975 -32.915  1.00 24.93 LIG 0.15  C 
ATOM     37  CG2 THR G   3      16.338  10.363 -33.405  1.00 25.23 LIG 0.04  C 
BRANCH 36 38
ATOM     38 OG1  THR G   3      16.211   8.777 -31.589  1.00 25.78 LIG-0.39  OA
ATOM     39 HG1  THR G   3      16.764   8.328 -31.143  1.00 25.78 LIG 0.21  HD
ENDBRANCH 36 38
ENDBRANCH 24 36
ENDBRANCH 3 24
TORSDOF 17
ENDMDL
