MODEL 1
USER: ADFR SOLUTION from run 61
USER: SCORE 20.860073 LL:  -3.246 LR: -20.223 RR:   0.000 FEB: -13.064
USER: RMSD 1.570937
USER: SEED 60
USER: STATUS no improvement in best in 3 clusters for 5 generations
USER: GENES 26
USER: genes 0 Translation |==|  0.51991 0.57038 0.60661
USER: genes 1 Rotation |==|  0.50239 0.52777 0.49974 0.99922
USER: genes 2 Torsion [N]-C--CA-[N] |==|  0.36709
USER: genes 3 Torsion [C]-CA--N-[C] |==|  0.80001
USER: genes 4 Torsion [N]-C--CA-[N] |==|  0.36049
USER: genes 5 Torsion [C]-CA--CB-[CG] |==|  0.60595
USER: genes 6 Torsion [CA]-CB--CG-[CD] |==|  0.51870
USER: genes 7 Torsion [CB]-CG--CD-[CE] |==|  0.59293
USER: genes 8 Torsion [CG]-CD--CE-[NZ] |==|  0.49917
USER: genes 9 Torsion [CD]-CE--NZ-[HZ1] |==|  0.34233
USER: genes 10 Torsion [C]-CA--N-[C] |==|  0.82055
USER: genes 11 Torsion [N]-C--CA-[N] |==|  0.23387
USER: genes 12 Torsion [C]-CA--CB-[CG] |==|  0.51842
USER: genes 13 Torsion [CA]-CB--CG-[CD] |==|  0.89300
USER: genes 14 Torsion [CB]-CG--CD-[NE2] |==|  0.38724
USER: genes 15 Torsion [C]-N--CA-[CB] |==|  0.26081
USER: genes 16 Torsion [N]-CA--C-[N] |==|  0.43990
USER: genes 17 Torsion [C]-N--CA-[C] |==|  0.70776
USER: genes 18 Torsion [N]-CA--C-[N] |==|  0.38694
USER: genes 19 Torsion [C]-N--CA-[CB] |==|  0.47030
USER: genes 20 Torsion [N]-CA--C-[N] |==|  0.43180
USER: genes 21 Torsion [C]-N--CA-[CB] |==|  0.31833
USER: genes 22 Torsion [N]-CA--CB-[CG2] |==|  0.19438
USER: genes 23 Torsion [N]-CA--C-[OXT] |==|  0.59825
USER: genes 24 Torsion [N]-CA--CB-[CG] |==|  0.83571
USER: genes 25 Torsion [CA]-CB--CG-[OD1] |==|  0.86156
ROOT
ATOM      1  C   GLN B  14      -2.895  34.494  -7.351  1.00 10.58 LIG 0.24  C 
ATOM      2 O    GLN B  14      -4.124  34.568  -7.232  1.00 11.08 LIG-0.27  OA
ATOM      3  N   ALA B  15      -2.261  33.454  -7.949  1.00  8.59 LIG-0.35  N 
ATOM      4 H    ALA B  15      -1.408  33.369  -8.026  1.00  8.59 LIG 0.16  HD
ENDROOT
BRANCH 1 5
ATOM      5  CA  GLN B  14      -1.999  35.614  -6.790  1.00 10.91 LIG 0.18  C 
BRANCH 5 6
ATOM      6  N   GLN B  14      -2.498  36.939  -7.213  1.00 11.57 LIG-0.35  N 
ATOM      7 H    GLN B  14      -2.865  37.407  -6.592  1.00 11.57 LIG 0.16  HD
ATOM      8  C   LYS B  13      -2.364  37.328  -8.476  0.75 12.06 LIG 0.24  C 
ATOM      9 O    LYS B  13      -1.797  36.667  -9.361  0.75 12.45 LIG-0.27  OA
BRANCH 8 10
ATOM     10  CA  LYS B  13      -2.926  38.727  -8.767  0.75 15.41 LIG 0.18  C 
BRANCH 10 11
ATOM     11  CB  LYS B  13      -4.250  38.712  -9.565  0.75 17.54 LIG 0.04  C 
BRANCH 11 12
ATOM     12  CG  LYS B  13      -4.491  39.781 -10.641  0.75 22.88 LIG 0.00  C 
BRANCH 12 13
ATOM     13  CD  LYS B  13      -5.941  39.696 -11.208  0.75 30.51 LIG 0.03  C 
BRANCH 13 14
ATOM     14  CE  LYS B  13      -6.023  40.075 -12.701  0.75 32.79 LIG 0.23  C 
BRANCH 14 15
ATOM     15  NZ  LYS B  13      -7.368  40.015 -13.323  0.75 35.43 LIG-0.08  N 
ATOM     16 HZ1  LYS B  13      -7.569  40.808 -13.672  0.75 35.43 LIG 0.27  HD
ATOM     17 HZ2  LYS B  13      -7.371  39.399 -13.965  0.75 35.43 LIG 0.27  HD
ATOM     18 HZ3  LYS B  13      -7.972  39.802 -12.705  0.75 35.43 LIG 0.27  HD
ENDBRANCH 14 15
ENDBRANCH 13 14
ENDBRANCH 12 13
ENDBRANCH 11 12
ENDBRANCH 10 11
BRANCH 10 19
ATOM     19  N   LYS B  13      -1.912  39.517  -9.475  0.75 16.03 LIG-0.35  N 
ATOM     20  C   ALA B  12      -0.763  39.821  -8.838  0.50 20.56 LIG 0.26  C 
ATOM     21 O    ALA B  12      -0.551  39.473  -7.694  0.50 22.07 LIG-0.27  OA
ATOM     22 H    LYS B  13      -2.113  39.749 -10.279  0.75 16.03 LIG 0.16  HD
BRANCH 20 23
ATOM     23  CA  ALA B  12       0.351  40.574  -9.561  0.50 23.14 LIG 0.40  C 
ATOM     24  N   ALA B  12       0.170  42.028  -9.551  0.50 24.66 LIG 0.61  N 
ATOM     25  CB  ALA B  12       1.736  40.156  -9.025  0.50 23.20 LIG 0.06  C 
ENDBRANCH 20 23
ENDBRANCH 10 19
ENDBRANCH 8 10
ENDBRANCH 5 6
BRANCH 5 26
ATOM     26  CB  GLN B  14      -1.936  35.519  -5.269  1.00 11.50 LIG 0.04  C 
BRANCH 26 27
ATOM     27  CG  GLN B  14      -1.189  36.697  -4.558  1.00 13.46 LIG 0.10  C 
BRANCH 27 28
ATOM     28  CD  GLN B  14       0.015  37.181  -5.271  1.00 12.39 LIG 0.21  C 
ATOM     29 OE1  GLN B  14       0.767  36.402  -5.810  1.00 14.45 LIG-0.27  OA
ATOM     30  NE2 GLN B  14       0.202  38.486  -5.296  1.00 17.10 LIG-0.37  N 
ATOM     31 22HE GLN B  14       0.882  38.816  -5.708  1.00 17.10 LIG 0.16  HD
ATOM     32 21HE GLN B  14      -0.355  39.008  -4.900  1.00 17.10 LIG 0.16  HD
ENDBRANCH 27 28
ENDBRANCH 26 27
ENDBRANCH 5 26
ENDBRANCH 1 5
BRANCH 3 33
ATOM     33  CA  ALA B  15      -3.049  32.382  -8.514  1.00  7.39 LIG 0.17  C 
ATOM     34  CB  ALA B  15      -3.295  32.677 -10.071  1.00  8.95 LIG 0.04  C 
BRANCH 33 35
ATOM     35  C   ALA B  15      -2.301  31.060  -8.263  1.00  7.55 LIG 0.24  C 
ATOM     36  N   GLY B  16      -2.998  29.936  -8.291  1.00  7.69 LIG-0.35  N 
ATOM     37 H    GLY B  16      -3.842  29.903  -8.452  1.00  7.69 LIG 0.16  HD
ATOM     38 O    ALA B  15      -1.093  31.068  -8.067  1.00  7.87 LIG-0.27  OA
BRANCH 36 39
ATOM     39  CA  GLY B  16      -2.377  28.617  -8.042  1.00  6.73 LIG 0.23  C 
BRANCH 39 40
ATOM     40  C   GLY B  16      -2.187  27.791  -9.271  1.00  7.46 LIG 0.24  C 
ATOM     41 O    GLY B  16      -3.064  27.714 -10.116  1.00  8.30 LIG-0.27  OA
ATOM     42  N   ASP B  17      -1.046  27.137  -9.330  1.00  6.73 LIG-0.35  N 
ATOM     43 H    ASP B  17      -0.411  27.228  -8.758  1.00  6.73 LIG 0.16  HD
BRANCH 42 44
ATOM     44  CA  ASP B  17      -0.764  26.191 -10.387  1.00  7.41 LIG 0.19  C 
BRANCH 44 45
ATOM     45  C   ASP B  17      -1.573  24.940 -10.243  1.00  8.52 LIG 0.24  C 
ATOM     46  N   VAL B  18      -1.750  24.303 -11.378  1.00  7.60 LIG-0.34  N 
ATOM     47 H    VAL B  18      -1.652  24.645 -12.161  1.00  7.60 LIG 0.16  HD
ATOM     48 O    ASP B  17      -1.939  24.500  -9.142  1.00  9.78 LIG-0.27  OA
BRANCH 46 49
ATOM     49  CA  VAL B  18      -2.159  22.850 -11.345  1.00  7.37 LIG 0.19  C 
BRANCH 49 50
ATOM     50  CB  VAL B  18      -3.600  22.781 -11.965  1.00  7.62 LIG 0.01  C 
ATOM     51  CG2 VAL B  18      -3.662  23.049 -13.463  1.00  8.69 LIG 0.01  C 
ATOM     52  CG1 VAL B  18      -4.622  23.567 -11.145  1.00  8.94 LIG 0.01  C 
ENDBRANCH 49 50
BRANCH 49 53
ATOM     53  C   VAL B  18      -1.128  21.849 -11.975  1.00  8.71 LIG 0.20  C 
ATOM     54 OXT  VAL B  18      -1.423  20.895 -12.563  1.00  9.21 LIG-0.65  OA
ATOM     55 O    VAL B  18       0.066  22.317 -11.815  1.00  8.10 LIG-0.65  OA
ENDBRANCH 49 53
ENDBRANCH 46 49
ENDBRANCH 44 45
BRANCH 44 56
ATOM     56  CB  ASP B  17       0.718  25.755 -10.394  1.00  8.76 LIG 0.15  C 
BRANCH 56 57
ATOM     57  CG  ASP B  17       1.680  26.883 -10.570  1.00  8.08 LIG 0.17  C 
ATOM     58 OD1  ASP B  17       1.570  27.697 -11.440  1.00  9.66 LIG-0.65  OA
ATOM     59 OD2  ASP B  17       2.597  26.931  -9.672  1.00  7.95 LIG-0.65  OA
ENDBRANCH 56 57
ENDBRANCH 44 56
ENDBRANCH 42 44
ENDBRANCH 39 40
ENDBRANCH 36 39
ENDBRANCH 33 35
ENDBRANCH 3 33
TORSDOF 24
ENDMDL
MODEL 2
USER: ADFR SOLUTION from run 192
USER: SCORE 20.525758 LL:  -3.887 LR: -19.219 RR:   0.000 FEB: -12.060
USER: RMSD 3.401318
USER: SEED 191
USER: STATUS searching
USER: GENES 26
USER: genes 0 Translation |==|  0.51949 0.56735 0.60170
USER: genes 1 Rotation |==|  0.49337 0.51769 0.49170 0.99957
USER: genes 2 Torsion [N]-C--CA-[N] |==|  0.39597
USER: genes 3 Torsion [C]-CA--N-[C] |==|  0.70774
USER: genes 4 Torsion [N]-C--CA-[N] |==|  0.98790
USER: genes 5 Torsion [C]-CA--CB-[CG] |==|  0.22282
USER: genes 6 Torsion [CA]-CB--CG-[CD] |==|  0.57515
USER: genes 7 Torsion [CB]-CG--CD-[CE] |==|  0.31259
USER: genes 8 Torsion [CG]-CD--CE-[NZ] |==|  0.00905
USER: genes 9 Torsion [CD]-CE--NZ-[HZ1] |==|  0.45145
USER: genes 10 Torsion [C]-CA--N-[C] |==|  0.76486
USER: genes 11 Torsion [N]-C--CA-[N] |==|  0.54186
USER: genes 12 Torsion [C]-CA--CB-[CG] |==|  0.53383
USER: genes 13 Torsion [CA]-CB--CG-[CD] |==|  0.87374
USER: genes 14 Torsion [CB]-CG--CD-[NE2] |==|  0.37508
USER: genes 15 Torsion [C]-N--CA-[CB] |==|  0.24029
USER: genes 16 Torsion [N]-CA--C-[N] |==|  0.40714
USER: genes 17 Torsion [C]-N--CA-[C] |==|  0.74865
USER: genes 18 Torsion [N]-CA--C-[N] |==|  0.41336
USER: genes 19 Torsion [C]-N--CA-[CB] |==|  0.45181
USER: genes 20 Torsion [N]-CA--C-[N] |==|  0.43460
USER: genes 21 Torsion [C]-N--CA-[CB] |==|  0.32592
USER: genes 22 Torsion [N]-CA--CB-[CG2] |==|  0.16721
USER: genes 23 Torsion [N]-CA--C-[OXT] |==|  0.58784
USER: genes 24 Torsion [N]-CA--CB-[CG] |==|  0.84138
USER: genes 25 Torsion [CA]-CB--CG-[OD1] |==|  0.34422
ROOT
ATOM      1  C   GLN B  14      -2.903  34.398  -7.436  1.00 10.58 LIG 0.24  C 
ATOM      2 O    GLN B  14      -4.134  34.513  -7.370  1.00 11.08 LIG-0.27  OA
ATOM      3  N   ALA B  15      -2.279  33.318  -7.968  1.00  8.59 LIG-0.35  N 
ATOM      4 H    ALA B  15      -1.427  33.205  -8.007  1.00  8.59 LIG 0.16  HD
ENDROOT
BRANCH 1 5
ATOM      5  CA  GLN B  14      -1.996  35.512  -6.881  1.00 10.91 LIG 0.18  C 
BRANCH 5 6
ATOM      6  N   GLN B  14      -2.574  36.842  -7.163  1.00 11.57 LIG-0.35  N 
ATOM      7 H    GLN B  14      -3.247  37.060  -6.675  1.00 11.57 LIG 0.16  HD
ATOM      8  C   LYS B  13      -2.052  37.605  -8.117  0.75 12.06 LIG 0.24  C 
ATOM      9 O    LYS B  13      -1.055  37.306  -8.793  0.75 12.45 LIG-0.27  OA
BRANCH 8 10
ATOM     10  CA  LYS B  13      -2.754  38.960  -8.295  0.75 15.41 LIG 0.18  C 
BRANCH 10 11
ATOM     11  CB  LYS B  13      -1.830  40.175  -8.054  0.75 17.54 LIG 0.04  C 
BRANCH 11 12
ATOM     12  CG  LYS B  13      -0.878  40.628  -9.170  0.75 22.88 LIG 0.00  C 
BRANCH 12 13
ATOM     13  CD  LYS B  13       0.378  41.344  -8.588  0.75 30.51 LIG 0.03  C 
BRANCH 13 14
ATOM     14  CE  LYS B  13       1.679  40.542  -8.801  0.75 32.79 LIG 0.23  C 
BRANCH 14 15
ATOM     15  NZ  LYS B  13       1.557  39.283  -9.574  0.75 35.43 LIG-0.08  N 
ATOM     16 HZ1  LYS B  13       2.360  39.030  -9.859  0.75 35.43 LIG 0.27  HD
ATOM     17 HZ2  LYS B  13       1.214  38.647  -9.054  0.75 35.43 LIG 0.27  HD
ATOM     18 HZ3  LYS B  13       1.023  39.414 -10.274  0.75 35.43 LIG 0.27  HD
ENDBRANCH 14 15
ENDBRANCH 13 14
ENDBRANCH 12 13
ENDBRANCH 11 12
ENDBRANCH 10 11
BRANCH 10 19
ATOM     19  N   LYS B  13      -3.920  39.021  -7.406  0.75 16.03 LIG-0.35  N 
ATOM     20  C   ALA B  12      -5.085  38.486  -7.825  0.50 20.56 LIG 0.26  C 
ATOM     21 O    ALA B  12      -5.200  37.972  -8.919  0.50 22.07 LIG-0.27  OA
ATOM     22 H    LYS B  13      -3.791  39.404  -6.647  0.75 16.03 LIG 0.16  HD
BRANCH 20 23
ATOM     23  CA  ALA B  12      -6.302  38.458  -6.904  0.50 23.14 LIG 0.40  C 
ATOM     24  N   ALA B  12      -7.357  37.551  -7.364  0.50 24.66 LIG 0.61  N 
ATOM     25  CB  ALA B  12      -5.884  38.171  -5.446  0.50 23.20 LIG 0.06  C 
ENDBRANCH 20 23
ENDBRANCH 10 19
ENDBRANCH 8 10
ENDBRANCH 5 6
BRANCH 5 26
ATOM     26  CB  GLN B  14      -1.790  35.319  -5.382  1.00 11.50 LIG 0.04  C 
BRANCH 26 27
ATOM     27  CG  GLN B  14      -1.140  36.533  -4.637  1.00 13.46 LIG 0.10  C 
BRANCH 27 28
ATOM     28  CD  GLN B  14       0.031  37.122  -5.325  1.00 12.39 LIG 0.21  C 
ATOM     29 OE1  GLN B  14       0.885  36.413  -5.804  1.00 14.45 LIG-0.27  OA
ATOM     30  NE2 GLN B  14       0.074  38.438  -5.396  1.00 17.10 LIG-0.37  N 
ATOM     31 22HE GLN B  14       0.729  38.826  -5.796  1.00 17.10 LIG 0.16  HD
ATOM     32 21HE GLN B  14      -0.553  38.908  -5.042  1.00 17.10 LIG 0.16  HD
ENDBRANCH 27 28
ENDBRANCH 26 27
ENDBRANCH 5 26
ENDBRANCH 1 5
BRANCH 3 33
ATOM     33  CA  ALA B  15      -3.077  32.249  -8.525  1.00  7.39 LIG 0.17  C 
ATOM     34  CB  ALA B  15      -3.415  32.589 -10.056  1.00  8.95 LIG 0.04  C 
BRANCH 33 35
ATOM     35  C   ALA B  15      -2.291  30.935  -8.360  1.00  7.55 LIG 0.24  C 
ATOM     36  N   GLY B  16      -2.976  29.823  -8.148  1.00  7.69 LIG-0.35  N 
ATOM     37 H    GLY B  16      -3.835  29.793  -8.109  1.00  7.69 LIG 0.16  HD
ATOM     38 O    ALA B  15      -1.070  30.937  -8.446  1.00  7.87 LIG-0.27  OA
BRANCH 36 39
ATOM     39  CA  GLY B  16      -2.314  28.514  -7.957  1.00  6.73 LIG 0.23  C 
BRANCH 39 40
ATOM     40  C   GLY B  16      -2.105  27.746  -9.219  1.00  7.46 LIG 0.24  C 
ATOM     41 O    GLY B  16      -2.907  27.817 -10.137  1.00  8.30 LIG-0.27  OA
ATOM     42  N   ASP B  17      -1.039  26.974  -9.230  1.00  6.73 LIG-0.35  N 
ATOM     43 H    ASP B  17      -0.451  26.961  -8.603  1.00  6.73 LIG 0.16  HD
BRANCH 42 44
ATOM     44  CA  ASP B  17      -0.766  26.067 -10.323  1.00  7.41 LIG 0.19  C 
BRANCH 44 45
ATOM     45  C   ASP B  17      -1.603  24.830 -10.240  1.00  8.52 LIG 0.24  C 
ATOM     46  N   VAL B  18      -1.763  24.233 -11.398  1.00  7.60 LIG-0.34  N 
ATOM     47 H    VAL B  18      -1.638  24.598 -12.167  1.00  7.60 LIG 0.16  HD
ATOM     48 O    ASP B  17      -2.006  24.363  -9.163  1.00  9.78 LIG-0.27  OA
BRANCH 46 49
ATOM     49  CA  VAL B  18      -2.203  22.789 -11.423  1.00  7.37 LIG 0.19  C 
BRANCH 49 50
ATOM     50  CB  VAL B  18      -3.597  22.761 -12.145  1.00  7.62 LIG 0.01  C 
ATOM     51  CG2 VAL B  18      -3.583  23.283 -13.576  1.00  8.69 LIG 0.01  C 
ATOM     52  CG1 VAL B  18      -4.711  23.345 -11.276  1.00  8.94 LIG 0.01  C 
ENDBRANCH 49 50
BRANCH 49 53
ATOM     53  C   VAL B  18      -1.150  21.777 -11.997  1.00  8.71 LIG 0.20  C 
ATOM     54 OXT  VAL B  18      -1.423  20.808 -12.570  1.00  9.21 LIG-0.65  OA
ATOM     55 O    VAL B  18       0.038  22.255 -11.814  1.00  8.10 LIG-0.65  OA
ENDBRANCH 49 53
ENDBRANCH 46 49
ENDBRANCH 44 45
BRANCH 44 56
ATOM     56  CB  ASP B  17       0.707  25.599 -10.333  1.00  8.76 LIG 0.15  C 
BRANCH 56 57
ATOM     57  CG  ASP B  17       1.696  26.715 -10.403  1.00  8.08 LIG 0.17  C 
ATOM     58 OD1  ASP B  17       2.563  26.864  -9.591  1.00  9.66 LIG-0.65  OA
ATOM     59 OD2  ASP B  17       1.567  27.462 -11.440  1.00  7.95 LIG-0.65  OA
ENDBRANCH 56 57
ENDBRANCH 44 56
ENDBRANCH 42 44
ENDBRANCH 39 40
ENDBRANCH 36 39
ENDBRANCH 33 35
ENDBRANCH 3 33
TORSDOF 24
ENDMDL
MODEL 3
USER: ADFR SOLUTION from run 179
USER: SCORE 19.011063 LL:  -3.111 LR: -18.868 RR:   0.000 FEB: -11.708
USER: RMSD 2.197395
USER: SEED 178
USER: STATUS no improvement in best in 3 clusters for 5 generations
USER: GENES 26
USER: genes 0 Translation |==|  0.52066 0.56803 0.58957
USER: genes 1 Rotation |==|  0.46817 0.58125 0.49669 0.99231
USER: genes 2 Torsion [N]-C--CA-[N] |==|  0.42670
USER: genes 3 Torsion [C]-CA--N-[C] |==|  0.62461
USER: genes 4 Torsion [N]-C--CA-[N] |==|  0.69425
USER: genes 5 Torsion [C]-CA--CB-[CG] |==|  0.15585
USER: genes 6 Torsion [CA]-CB--CG-[CD] |==|  0.61657
USER: genes 7 Torsion [CB]-CG--CD-[CE] |==|  0.28895
USER: genes 8 Torsion [CG]-CD--CE-[NZ] |==|  0.26208
USER: genes 9 Torsion [CD]-CE--NZ-[HZ1] |==|  0.94707
USER: genes 10 Torsion [C]-CA--N-[C] |==|  0.65977
USER: genes 11 Torsion [N]-C--CA-[N] |==|  0.00268
USER: genes 12 Torsion [C]-CA--CB-[CG] |==|  0.61066
USER: genes 13 Torsion [CA]-CB--CG-[CD] |==|  0.72367
USER: genes 14 Torsion [CB]-CG--CD-[NE2] |==|  0.30071
USER: genes 15 Torsion [C]-N--CA-[CB] |==|  0.24566
USER: genes 16 Torsion [N]-CA--C-[N] |==|  0.43173
USER: genes 17 Torsion [C]-N--CA-[C] |==|  0.76267
USER: genes 18 Torsion [N]-CA--C-[N] |==|  0.40642
USER: genes 19 Torsion [C]-N--CA-[CB] |==|  0.47821
USER: genes 20 Torsion [N]-CA--C-[N] |==|  0.44883
USER: genes 21 Torsion [C]-N--CA-[CB] |==|  0.31628
USER: genes 22 Torsion [N]-CA--CB-[CG2] |==|  0.11408
USER: genes 23 Torsion [N]-CA--C-[OXT] |==|  0.57516
USER: genes 24 Torsion [N]-CA--CB-[CG] |==|  0.79370
USER: genes 25 Torsion [CA]-CB--CG-[OD1] |==|  0.90298
ROOT
ATOM      1  C   GLN B  14      -2.880  34.420  -7.645  1.00 10.58 LIG 0.24  C 
ATOM      2 O    GLN B  14      -4.056  34.532  -7.278  1.00 11.08 LIG-0.27  OA
ATOM      3  N   ALA B  15      -2.377  33.297  -8.217  1.00  8.59 LIG-0.35  N 
ATOM      4 H    ALA B  15      -1.559  33.187  -8.461  1.00  8.59 LIG 0.16  HD
ENDROOT
BRANCH 1 5
ATOM      5  CA  GLN B  14      -1.897  35.589  -7.446  1.00 10.91 LIG 0.18  C 
BRANCH 5 6
ATOM      6  N   GLN B  14      -2.620  36.878  -7.432  1.00 11.57 LIG-0.35  N 
ATOM      7 H    GLN B  14      -3.338  36.889  -6.958  1.00 11.57 LIG 0.16  HD
ATOM      8  C   LYS B  13      -2.149  37.912  -8.120  0.75 12.06 LIG 0.24  C 
ATOM      9 O    LYS B  13      -1.090  37.905  -8.768  0.75 12.45 LIG-0.27  OA
BRANCH 8 10
ATOM     10  CA  LYS B  13      -3.002  39.184  -8.007  0.75 15.41 LIG 0.18  C 
BRANCH 10 11
ATOM     11  CB  LYS B  13      -4.047  39.133  -6.869  0.75 17.54 LIG 0.04  C 
BRANCH 11 12
ATOM     12  CG  LYS B  13      -3.580  38.858  -5.433  0.75 22.88 LIG 0.00  C 
BRANCH 12 13
ATOM     13  CD  LYS B  13      -4.541  37.871  -4.704  0.75 30.51 LIG 0.03  C 
BRANCH 13 14
ATOM     14  CE  LYS B  13      -3.961  36.445  -4.589  0.75 32.79 LIG 0.23  C 
BRANCH 14 15
ATOM     15  NZ  LYS B  13      -3.244  36.124  -3.332  0.75 35.43 LIG-0.08  N 
ATOM     16 HZ1  LYS B  13      -3.009  36.879  -2.924  0.75 35.43 LIG 0.27  HD
ATOM     17 HZ2  LYS B  13      -3.778  35.654  -2.798  0.75 35.43 LIG 0.27  HD
ATOM     18 HZ3  LYS B  13      -2.516  35.648  -3.518  0.75 35.43 LIG 0.27  HD
ENDBRANCH 14 15
ENDBRANCH 13 14
ENDBRANCH 12 13
ENDBRANCH 11 12
ENDBRANCH 10 11
BRANCH 10 19
ATOM     19  N   LYS B  13      -3.660  39.440  -9.293  0.75 16.03 LIG-0.35  N 
ATOM     20  C   ALA B  12      -3.446  40.620  -9.910  0.50 20.56 LIG 0.26  C 
ATOM     21 O    ALA B  12      -2.738  41.479  -9.425  0.50 22.07 LIG-0.27  OA
ATOM     22 H    LYS B  13      -4.160  38.806  -9.590  0.75 16.03 LIG 0.16  HD
BRANCH 20 23
ATOM     23  CA  ALA B  12      -4.048  40.899 -11.285  0.50 23.14 LIG 0.40  C 
ATOM     24  N   ALA B  12      -4.857  39.792 -11.800  0.50 24.66 LIG 0.61  N 
ATOM     25  CB  ALA B  12      -4.821  42.235 -11.287  0.50 23.20 LIG 0.06  C 
ENDBRANCH 20 23
ENDBRANCH 10 19
ENDBRANCH 8 10
ENDBRANCH 5 6
BRANCH 5 26
ATOM     26  CB  GLN B  14      -1.111  35.395  -6.154  1.00 11.50 LIG 0.04  C 
BRANCH 26 27
ATOM     27  CG  GLN B  14      -0.869  36.697  -5.319  1.00 13.46 LIG 0.10  C 
BRANCH 27 28
ATOM     28  CD  GLN B  14       0.470  37.303  -5.497  1.00 12.39 LIG 0.21  C 
ATOM     29 OE1  GLN B  14       1.454  36.765  -5.045  1.00 14.45 LIG-0.27  OA
ATOM     30  NE2 GLN B  14       0.523  38.430  -6.179  1.00 17.10 LIG-0.37  N 
ATOM     31 22HE GLN B  14       1.280  38.814  -6.319  1.00 17.10 LIG 0.16  HD
ATOM     32 21HE GLN B  14      -0.200  38.782  -6.485  1.00 17.10 LIG 0.16  HD
ENDBRANCH 27 28
ENDBRANCH 26 27
ENDBRANCH 5 26
ENDBRANCH 1 5
BRANCH 3 33
ATOM     33  CA  ALA B  15      -3.255  32.173  -8.450  1.00  7.39 LIG 0.17  C 
ATOM     34  CB  ALA B  15      -3.942  32.334  -9.890  1.00  8.95 LIG 0.04  C 
BRANCH 33 35
ATOM     35  C   ALA B  15      -2.422  30.885  -8.321  1.00  7.55 LIG 0.24  C 
ATOM     36  N   GLY B  16      -3.052  29.766  -8.003  1.00  7.69 LIG-0.35  N 
ATOM     37 H    GLY B  16      -3.901  29.716  -7.876  1.00  7.69 LIG 0.16  HD
ATOM     38 O    ALA B  15      -1.216  30.912  -8.531  1.00  7.87 LIG-0.27  OA
BRANCH 36 39
ATOM     39  CA  GLY B  16      -2.339  28.481  -7.836  1.00  6.73 LIG 0.23  C 
BRANCH 39 40
ATOM     40  C   GLY B  16      -2.132  27.727  -9.108  1.00  7.46 LIG 0.24  C 
ATOM     41 O    GLY B  16      -2.979  27.737  -9.987  1.00  8.30 LIG-0.27  OA
ATOM     42  N   ASP B  17      -1.015  27.035  -9.170  1.00  6.73 LIG-0.35  N 
ATOM     43 H    ASP B  17      -0.399  27.066  -8.571  1.00  6.73 LIG 0.16  HD
BRANCH 42 44
ATOM     44  CA  ASP B  17      -0.727  26.148 -10.275  1.00  7.41 LIG 0.19  C 
BRANCH 44 45
ATOM     45  C   ASP B  17      -1.631  24.956 -10.280  1.00  8.52 LIG 0.24  C 
ATOM     46  N   VAL B  18      -1.672  24.341 -11.440  1.00  7.60 LIG-0.34  N 
ATOM     47 H    VAL B  18      -1.431  24.681 -12.192  1.00  7.60 LIG 0.16  HD
ATOM     48 O    ASP B  17      -2.193  24.535  -9.257  1.00  9.78 LIG-0.27  OA
BRANCH 46 49
ATOM     49  CA  VAL B  18      -2.179  22.920 -11.496  1.00  7.37 LIG 0.19  C 
BRANCH 49 50
ATOM     50  CB  VAL B  18      -3.518  22.959 -12.316  1.00  7.62 LIG 0.01  C 
ATOM     51  CG2 VAL B  18      -3.490  23.869 -13.537  1.00  8.69 LIG 0.01  C 
ATOM     52  CG1 VAL B  18      -4.741  23.149 -11.419  1.00  8.94 LIG 0.01  C 
ENDBRANCH 49 50
BRANCH 49 53
ATOM     53  C   VAL B  18      -1.139  21.856 -11.994  1.00  8.71 LIG 0.20  C 
ATOM     54 OXT  VAL B  18      -1.423  20.863 -12.519  1.00  9.21 LIG-0.65  OA
ATOM     55 O    VAL B  18       0.055  22.318 -11.814  1.00  8.10 LIG-0.65  OA
ENDBRANCH 49 53
ENDBRANCH 46 49
ENDBRANCH 44 45
BRANCH 44 56
ATOM     56  CB  ASP B  17       0.718  25.602 -10.219  1.00  8.76 LIG 0.15  C 
BRANCH 56 57
ATOM     57  CG  ASP B  17       1.758  26.602 -10.599  1.00  8.08 LIG 0.17  C 
ATOM     58 OD1  ASP B  17       1.580  27.435 -11.440  1.00  9.66 LIG-0.65  OA
ATOM     59 OD2  ASP B  17       2.835  26.524  -9.903  1.00  7.95 LIG-0.65  OA
ENDBRANCH 56 57
ENDBRANCH 44 56
ENDBRANCH 42 44
ENDBRANCH 39 40
ENDBRANCH 36 39
ENDBRANCH 33 35
ENDBRANCH 3 33
TORSDOF 24
ENDMDL
MODEL 4
USER: ADFR SOLUTION from run 119
USER: SCORE 19.431794 LL:  -4.083 LR: -18.351 RR:   0.000 FEB: -11.191
USER: RMSD 1.699255
USER: SEED 118
USER: STATUS no improvement in best in 3 clusters for 5 generations
USER: GENES 26
USER: genes 0 Translation |==|  0.52050 0.56563 0.62070
USER: genes 1 Rotation |==|  0.49730 0.54304 0.49730 0.99813
USER: genes 2 Torsion [N]-C--CA-[N] |==|  0.37516
USER: genes 3 Torsion [C]-CA--N-[C] |==|  0.77876
USER: genes 4 Torsion [N]-C--CA-[N] |==|  0.37024
USER: genes 5 Torsion [C]-CA--CB-[CG] |==|  0.15222
USER: genes 6 Torsion [CA]-CB--CG-[CD] |==|  0.08023
USER: genes 7 Torsion [CB]-CG--CD-[CE] |==|  0.48905
USER: genes 8 Torsion [CG]-CD--CE-[NZ] |==|  0.18548
USER: genes 9 Torsion [CD]-CE--NZ-[HZ1] |==|  0.76303
USER: genes 10 Torsion [C]-CA--N-[C] |==|  0.80003
USER: genes 11 Torsion [N]-C--CA-[N] |==|  0.29214
USER: genes 12 Torsion [C]-CA--CB-[CG] |==|  0.63339
USER: genes 13 Torsion [CA]-CB--CG-[CD] |==|  0.22804
USER: genes 14 Torsion [CB]-CG--CD-[NE2] |==|  0.22469
USER: genes 15 Torsion [C]-N--CA-[CB] |==|  0.24025
USER: genes 16 Torsion [N]-CA--C-[N] |==|  0.40297
USER: genes 17 Torsion [C]-N--CA-[C] |==|  0.75877
USER: genes 18 Torsion [N]-CA--C-[N] |==|  0.41089
USER: genes 19 Torsion [C]-N--CA-[CB] |==|  0.46349
USER: genes 20 Torsion [N]-CA--C-[N] |==|  0.45299
USER: genes 21 Torsion [C]-N--CA-[CB] |==|  0.31608
USER: genes 22 Torsion [N]-CA--CB-[CG2] |==|  0.18321
USER: genes 23 Torsion [N]-CA--C-[OXT] |==|  0.59139
USER: genes 24 Torsion [N]-CA--CB-[CG] |==|  0.82485
USER: genes 25 Torsion [CA]-CB--CG-[OD1] |==|  0.86244
ROOT
ATOM      1  C   GLN B  14      -2.883  34.344  -7.108  1.00 10.58 LIG 0.24  C 
ATOM      2 O    GLN B  14      -4.102  34.431  -6.916  1.00 11.08 LIG-0.27  OA
ATOM      3  N   ALA B  15      -2.295  33.286  -7.722  1.00  8.59 LIG-0.35  N 
ATOM      4 H    ALA B  15      -1.449  33.192  -7.849  1.00  8.59 LIG 0.16  HD
ENDROOT
BRANCH 1 5
ATOM      5  CA  GLN B  14      -1.945  35.468  -6.627  1.00 10.91 LIG 0.18  C 
BRANCH 5 6
ATOM      6  N   GLN B  14      -2.495  36.791  -6.985  1.00 11.57 LIG-0.35  N 
ATOM      7 H    GLN B  14      -2.895  37.207  -6.348  1.00 11.57 LIG 0.16  HD
ATOM      8  C   LYS B  13      -2.353  37.257  -8.221  0.75 12.06 LIG 0.24  C 
ATOM      9 O    LYS B  13      -1.739  36.674  -9.129  0.75 12.45 LIG-0.27  OA
BRANCH 8 10
ATOM     10  CA  LYS B  13      -2.971  38.645  -8.446  0.75 15.41 LIG 0.18  C 
BRANCH 10 11
ATOM     11  CB  LYS B  13      -4.320  38.610  -9.199  0.75 17.54 LIG 0.04  C 
BRANCH 11 12
ATOM     12  CG  LYS B  13      -5.463  37.742  -8.653  0.75 22.88 LIG 0.00  C 
BRANCH 12 13
ATOM     13  CD  LYS B  13      -5.370  37.593  -7.104  0.75 30.51 LIG 0.03  C 
BRANCH 13 14
ATOM     14  CE  LYS B  13      -6.556  36.808  -6.505  0.75 32.79 LIG 0.23  C 
BRANCH 14 15
ATOM     15  NZ  LYS B  13      -6.644  35.372  -6.866  0.75 35.43 LIG-0.08  N 
ATOM     16 HZ1  LYS B  13      -7.071  35.287  -7.641  0.75 35.43 LIG 0.27  HD
ATOM     17 HZ2  LYS B  13      -5.825  35.034  -6.941  0.75 35.43 LIG 0.27  HD
ATOM     18 HZ3  LYS B  13      -7.090  34.934  -6.233  0.75 35.43 LIG 0.27  HD
ENDBRANCH 14 15
ENDBRANCH 13 14
ENDBRANCH 12 13
ENDBRANCH 11 12
ENDBRANCH 10 11
BRANCH 10 19
ATOM     19  N   LYS B  13      -2.009  39.493  -9.160  0.75 16.03 LIG-0.35  N 
ATOM     20  C   ALA B  12      -0.921  39.939  -8.501  0.50 20.56 LIG 0.26  C 
ATOM     21 O    ALA B  12      -0.723  39.673  -7.332  0.50 22.07 LIG-0.27  OA
ATOM     22 H    LYS B  13      -2.199  39.662  -9.982  0.75 16.03 LIG 0.16  HD
BRANCH 20 23
ATOM     23  CA  ALA B  12       0.144  40.758  -9.224  0.50 23.14 LIG 0.40  C 
ATOM     24  N   ALA B  12       0.102  42.185  -8.896  0.50 24.66 LIG 0.61  N 
ATOM     25  CB  ALA B  12       1.547  40.153  -9.007  0.50 23.20 LIG 0.06  C 
ENDBRANCH 20 23
ENDBRANCH 10 19
ENDBRANCH 8 10
ENDBRANCH 5 6
BRANCH 5 26
ATOM     26  CB  GLN B  14      -1.734  35.360  -5.120  1.00 11.50 LIG 0.04  C 
BRANCH 26 27
ATOM     27  CG  GLN B  14      -1.907  36.698  -4.325  1.00 13.46 LIG 0.10  C 
BRANCH 27 28
ATOM     28  CD  GLN B  14      -3.311  37.047  -4.008  1.00 12.39 LIG 0.21  C 
ATOM     29 OE1  GLN B  14      -3.920  37.834  -4.694  1.00 14.45 LIG-0.27  OA
ATOM     30  NE2 GLN B  14      -3.847  36.445  -2.964  1.00 17.10 LIG-0.37  N 
ATOM     31 22HE GLN B  14      -4.664  36.607  -2.747  1.00 17.10 LIG 0.16  HD
ATOM     32 21HE GLN B  14      -3.381  35.891  -2.500  1.00 17.10 LIG 0.16  HD
ENDBRANCH 27 28
ENDBRANCH 26 27
ENDBRANCH 5 26
ENDBRANCH 1 5
BRANCH 3 33
ATOM     33  CA  ALA B  15      -3.124  32.210  -8.215  1.00  7.39 LIG 0.17  C 
ATOM     34  CB  ALA B  15      -3.623  32.569  -9.696  1.00  8.95 LIG 0.04  C 
BRANCH 33 35
ATOM     35  C   ALA B  15      -2.301  30.911  -8.156  1.00  7.55 LIG 0.24  C 
ATOM     36  N   GLY B  16      -2.934  29.786  -7.867  1.00  7.69 LIG-0.35  N 
ATOM     37 H    GLY B  16      -3.780  29.739  -7.722  1.00  7.69 LIG 0.16  HD
ATOM     38 O    ALA B  15      -1.100  30.936  -8.392  1.00  7.87 LIG-0.27  OA
BRANCH 36 39
ATOM     39  CA  GLY B  16      -2.229  28.489  -7.766  1.00  6.73 LIG 0.23  C 
BRANCH 39 40
ATOM     40  C   GLY B  16      -2.088  27.769  -9.066  1.00  7.46 LIG 0.24  C 
ATOM     41 O    GLY B  16      -2.960  27.836  -9.918  1.00  8.30 LIG-0.27  OA
ATOM     42  N   ASP B  17      -0.999  27.040  -9.183  1.00  6.73 LIG-0.35  N 
ATOM     43 H    ASP B  17      -0.364  27.031  -8.602  1.00  6.73 LIG 0.16  HD
BRANCH 42 44
ATOM     44  CA  ASP B  17      -0.776  26.178 -10.322  1.00  7.41 LIG 0.19  C 
BRANCH 44 45
ATOM     45  C   ASP B  17      -1.634  24.954 -10.268  1.00  8.52 LIG 0.24  C 
ATOM     46  N   VAL B  18      -1.728  24.335 -11.423  1.00  7.60 LIG-0.34  N 
ATOM     47 H    VAL B  18      -1.549  24.681 -12.189  1.00  7.60 LIG 0.16  HD
ATOM     48 O    ASP B  17      -2.112  24.515  -9.210  1.00  9.78 LIG-0.27  OA
BRANCH 46 49
ATOM     49  CA  VAL B  18      -2.185  22.896 -11.446  1.00  7.37 LIG 0.19  C 
BRANCH 49 50
ATOM     50  CB  VAL B  18      -3.576  22.883 -12.175  1.00  7.62 LIG 0.01  C 
ATOM     51  CG2 VAL B  18      -3.525  23.270 -13.648  1.00  8.69 LIG 0.01  C 
ATOM     52  CG1 VAL B  18      -4.657  23.608 -11.374  1.00  8.94 LIG 0.01  C 
ENDBRANCH 49 50
BRANCH 49 53
ATOM     53  C   VAL B  18      -1.141  21.870 -12.012  1.00  8.71 LIG 0.20  C 
ATOM     54 OXT  VAL B  18      -1.423  20.914 -12.602  1.00  9.21 LIG-0.65  OA
ATOM     55 O    VAL B  18       0.051  22.321 -11.800  1.00  8.10 LIG-0.65  OA
ENDBRANCH 49 53
ENDBRANCH 46 49
ENDBRANCH 44 45
BRANCH 44 56
ATOM     56  CB  ASP B  17       0.687  25.685 -10.399  1.00  8.76 LIG 0.15  C 
BRANCH 56 57
ATOM     57  CG  ASP B  17       1.685  26.778 -10.591  1.00  8.08 LIG 0.17  C 
ATOM     58 OD1  ASP B  17       1.570  27.618 -11.436  1.00  9.66 LIG-0.65  OA
ATOM     59 OD2  ASP B  17       2.642  26.767  -9.735  1.00  7.95 LIG-0.65  OA
ENDBRANCH 56 57
ENDBRANCH 44 56
ENDBRANCH 42 44
ENDBRANCH 39 40
ENDBRANCH 36 39
ENDBRANCH 33 35
ENDBRANCH 3 33
TORSDOF 24
ENDMDL
