MODEL 1
USER: ADFR SOLUTION from run 77
USER: SCORE 18.630378 LL:  -2.897 LR: -17.674 RR:   0.000 FEB: -11.708
USER: RMSD 2.634225
USER: SEED 76
USER: STATUS no improvement in best in 3 clusters for 5 generations
USER: GENES 22
USER: genes 0 Translation |==|  0.41033 0.57077 0.48615
USER: genes 1 Rotation |==|  0.47738 0.50601 0.32336 0.96717
USER: genes 2 Torsion [N]-C--CA-[N] |==|  0.18643
USER: genes 3 Torsion [C]-CA--N-[C] |==|  0.77222
USER: genes 4 Torsion [N]-C--CA-[N] |==|  0.42115
USER: genes 5 Torsion [C]-CA--N-[C] |==|  0.25706
USER: genes 6 Torsion [N]-C--CA-[N] |==|  0.48604
USER: genes 7 Torsion [C]-CA--CB-[OG] |==|  0.58901
USER: genes 8 Torsion [CA]-CB--OG-[HG] |==|  0.19254
USER: genes 9 Torsion [C]-CA--CB-[CG] |==|  0.38607
USER: genes 10 Torsion [CA]-CB--CG-[CD] |==|  0.55932
USER: genes 11 Torsion [CB]-CG--CD-[CE] |==|  0.60919
USER: genes 12 Torsion [CG]-CD--CE-[NZ] |==|  0.90850
USER: genes 13 Torsion [CD]-CE--NZ-[HZ1] |==|  0.62360
USER: genes 14 Torsion [C]-N--CA-[CB] |==|  0.42667
USER: genes 15 Torsion [N]-CA--CB-[CG2] |==|  0.83671
USER: genes 16 Torsion [N]-CA--C-[N] |==|  0.30790
USER: genes 17 Torsion [N]-CA--C-[N] |==|  0.45831
USER: genes 18 Torsion [C]-N--CA-[C] |==|  0.77889
USER: genes 19 Torsion [N]-CA--C-[OXT] |==|  0.10940
USER: genes 20 Torsion [N]-CA--CB-[CG] |==|  0.76940
USER: genes 21 Torsion [CA]-CB--CG-[CD2] |==|  0.30523
ROOT
ATOM      1  C   LYS B   4     -29.333 -24.836  12.451  1.00 44.81 LIG 0.24  C 
ATOM      2 O    LYS B   4     -30.172 -24.052  12.862  1.00 44.64 LIG-0.27  OA
ATOM      3  N   VAL B   5     -28.528 -25.523  13.250  1.00 42.75 LIG-0.35  N 
ATOM      4 H    VAL B   5     -27.947 -26.091  12.966  1.00 42.75 LIG 0.16  HD
ENDROOT
BRANCH 1 5
ATOM      5  CA  LYS B   4     -29.179 -25.078  10.958  1.00 46.85 LIG 0.18  C 
BRANCH 5 6
ATOM      6  N   LYS B   4     -29.599 -26.442  10.642  1.00 49.38 LIG-0.35  N 
ATOM      7 H    LYS B   4     -30.404 -26.501  10.346  1.00 49.38 LIG 0.16  HD
ATOM      8  C   GLY B   3     -28.796 -27.492  10.803  1.00 51.92 LIG 0.24  C 
ATOM      9 O    GLY B   3     -27.584 -27.391  10.899  1.00 51.73 LIG-0.27  OA
BRANCH 8 10
ATOM     10  CA  GLY B   3     -29.469 -28.857  10.864  1.00 54.27 LIG 0.23  C 
BRANCH 10 11
ATOM     11  N   GLY B   3     -28.672 -29.993  10.405  1.00 57.77 LIG-0.35  N 
ATOM     12  C   SER B   2     -27.928 -30.722  11.246  1.00 59.92 LIG 0.26  C 
ATOM     13 O    SER B   2     -28.020 -30.623  12.481  1.00 61.15 LIG-0.27  OA
ATOM     14 H    GLY B   3     -28.726 -30.144   9.559  1.00 57.77 LIG 0.16  HD
BRANCH 12 15
ATOM     15  CA  SER B   2     -26.936 -31.740  10.629  1.00 60.93 LIG 0.42  C 
ATOM     16  N   SER B   2     -26.084 -32.399  11.670  1.00 61.12 LIG 0.62  N 
BRANCH 15 17
ATOM     17  CB  SER B   2     -27.651 -32.801   9.752  1.00 61.55 LIG 0.21  C 
BRANCH 17 18
ATOM     18 OG   SER B   2     -27.000 -34.075   9.773  1.00 63.00 LIG-0.40  OA
ATOM     19 HG   SER B   2     -27.091 -34.425  10.531  1.00 63.00 LIG 0.21  HD
ENDBRANCH 17 18
ENDBRANCH 15 17
ENDBRANCH 12 15
ENDBRANCH 10 11
ENDBRANCH 8 10
ENDBRANCH 5 6
BRANCH 5 20
ATOM     20  CB  LYS B   4     -30.007 -24.064  10.173  1.00 46.79 LIG 0.04  C 
BRANCH 20 21
ATOM     21  CG  LYS B   4     -29.282 -23.542   8.950  1.00 47.63 LIG 0.00  C 
BRANCH 21 22
ATOM     22  CD  LYS B   4     -29.830 -22.203   8.463  1.00 49.12 LIG 0.03  C 
BRANCH 22 23
ATOM     23  CE  LYS B   4     -29.855 -22.196   6.939  1.00 51.72 LIG 0.23  C 
BRANCH 23 24
ATOM     24  NZ  LYS B   4     -28.742 -22.982   6.331  1.00 54.70 LIG-0.08  N 
ATOM     25 HZ3  LYS B   4     -29.057 -23.754   6.023  1.00 54.70 LIG 0.27  HD
ATOM     26 HZ2  LYS B   4     -28.119 -23.141   6.947  1.00 54.70 LIG 0.27  HD
ATOM     27 HZ1  LYS B   4     -28.383 -22.519   5.660  1.00 54.70 LIG 0.27  HD
ENDBRANCH 23 24
ENDBRANCH 22 23
ENDBRANCH 21 22
ENDBRANCH 20 21
ENDBRANCH 5 20
ENDBRANCH 1 5
BRANCH 3 28
ATOM     28  CA  VAL B   5     -28.555 -25.376  14.688  1.00 41.28 LIG 0.18  C 
BRANCH 28 29
ATOM     29  CB  VAL B   5     -28.062 -26.652  15.474  1.00 41.63 LIG 0.01  C 
ATOM     30  CG2 VAL B   5     -28.913 -27.869  15.129  1.00 40.80 LIG 0.01  C 
ATOM     31  CG1 VAL B   5     -28.058 -26.411  17.029  1.00 37.84 LIG 0.01  C 
ENDBRANCH 28 29
BRANCH 28 32
ATOM     32  C   VAL B   5     -27.680 -24.195  15.026  1.00 41.69 LIG 0.24  C 
ATOM     33  N   PRO B   6     -28.308 -23.098  15.490  1.00 42.18 LIG-0.34  N 
ATOM     34  CD  PRO B   6     -29.763 -22.923  15.699  1.00 41.81 LIG 0.13  C 
ATOM     35  CA  PRO B   6     -27.541 -21.912  15.861  1.00 41.75 LIG 0.18  C 
ATOM     36  CG  PRO B   6     -29.901 -21.459  15.851  1.00 42.56 LIG 0.02  C 
ATOM     37  CB  PRO B   6     -28.590 -21.031  16.513  1.00 42.23 LIG 0.04  C 
ATOM     38 O    VAL B   5     -26.459 -24.248  14.862  1.00 40.76 LIG-0.27  OA
BRANCH 35 39
ATOM     39  C   PRO B   6     -26.427 -22.281  16.852  1.00 41.76 LIG 0.24  C 
ATOM     40 O    PRO B   6     -26.418 -23.382  17.377  1.00 42.44 LIG-0.27  OA
ATOM     41  N   LEU B   7     -25.457 -21.394  17.054  1.00 41.16 LIG-0.34  N 
ATOM     42 H    LEU B   7     -25.358 -20.671  16.600  1.00 41.16 LIG 0.16  HD
BRANCH 41 43
ATOM     43  CA  LEU B   7     -24.459 -21.605  18.106  1.00 40.72 LIG 0.18  C 
BRANCH 43 44
ATOM     44  C   LEU B   7     -24.970 -21.234  19.495  1.00 41.28 LIG 0.20  C 
ATOM     45 OXT  LEU B   7     -26.135 -21.497  19.839  1.00 40.17 LIG-0.65  OA
ATOM     46 O    LEU B   7     -24.190 -20.644  20.273  1.00 41.30 LIG-0.65  OA
ENDBRANCH 43 44
BRANCH 43 47
ATOM     47  CB  LEU B   7     -23.180 -20.818  17.815  1.00 40.49 LIG 0.04  C 
BRANCH 47 48
ATOM     48  CG  LEU B   7     -22.189 -21.482  16.859  1.00 39.74 LIG-0.02  C 
ATOM     49  CD2 LEU B   7     -22.161 -20.732  15.549  1.00 36.73 LIG 0.01  C 
ATOM     50  CD1 LEU B   7     -22.637 -22.904  16.618  1.00 40.10 LIG 0.01  C 
ENDBRANCH 47 48
ENDBRANCH 43 47
ENDBRANCH 41 43
ENDBRANCH 35 39
ENDBRANCH 28 32
ENDBRANCH 3 28
TORSDOF 20
ENDMDL
MODEL 2
USER: ADFR SOLUTION from run 52
USER: SCORE 18.015138 LL:  -2.818 LR: -16.774 RR:   0.000 FEB: -10.808
USER: RMSD 3.082595
USER: SEED 51
USER: STATUS no improvement in best in 3 clusters for 5 generations
USER: GENES 22
USER: genes 0 Translation |==|  0.44674 0.44802 0.51109
USER: genes 1 Rotation |==|  0.41410 0.51103 0.73573 0.93236
USER: genes 2 Torsion [N]-C--CA-[N] |==|  0.43436
USER: genes 3 Torsion [C]-CA--N-[C] |==|  0.54123
USER: genes 4 Torsion [N]-C--CA-[N] |==|  0.06678
USER: genes 5 Torsion [C]-CA--N-[C] |==|  0.16764
USER: genes 6 Torsion [N]-C--CA-[N] |==|  0.82399
USER: genes 7 Torsion [C]-CA--CB-[OG] |==|  0.88470
USER: genes 8 Torsion [CA]-CB--OG-[HG] |==|  0.72704
USER: genes 9 Torsion [C]-CA--CB-[CG] |==|  0.17616
USER: genes 10 Torsion [CA]-CB--CG-[CD] |==|  0.40871
USER: genes 11 Torsion [CB]-CG--CD-[CE] |==|  0.40807
USER: genes 12 Torsion [CG]-CD--CE-[NZ] |==|  0.67930
USER: genes 13 Torsion [CD]-CE--NZ-[HZ1] |==|  0.44734
USER: genes 14 Torsion [C]-N--CA-[CB] |==|  0.15549
USER: genes 15 Torsion [N]-CA--CB-[CG2] |==|  0.66710
USER: genes 16 Torsion [N]-CA--C-[N] |==|  0.33651
USER: genes 17 Torsion [N]-CA--C-[N] |==|  0.45563
USER: genes 18 Torsion [C]-N--CA-[C] |==|  0.79377
USER: genes 19 Torsion [N]-CA--C-[OXT] |==|  0.12645
USER: genes 20 Torsion [N]-CA--CB-[CG] |==|  0.75457
USER: genes 21 Torsion [CA]-CB--CG-[CD2] |==|  0.31682
ROOT
ATOM      1  C   LYS B   4     -28.623 -27.322  13.031  1.00 44.81 LIG 0.24  C 
ATOM      2 O    LYS B   4     -29.304 -28.114  13.659  1.00 44.64 LIG-0.27  OA
ATOM      3  N   VAL B   5     -28.082 -26.239  13.573  1.00 42.75 LIG-0.35  N 
ATOM      4 H    VAL B   5     -27.585 -25.687  13.139  1.00 42.75 LIG 0.16  HD
ENDROOT
BRANCH 1 5
ATOM      5  CA  LYS B   4     -28.341 -27.557  11.555  1.00 46.85 LIG 0.18  C 
BRANCH 5 6
ATOM      6  N   LYS B   4     -28.493 -28.979  11.253  1.00 49.38 LIG-0.35  N 
ATOM      7 H    LYS B   4     -28.901 -29.425  11.864  1.00 49.38 LIG 0.16  HD
ATOM      8  C   GLY B   3     -28.036 -29.523  10.127  1.00 51.92 LIG 0.24  C 
ATOM      9 O    GLY B   3     -27.765 -28.866   9.135  1.00 51.73 LIG-0.27  OA
BRANCH 8 10
ATOM     10  CA  GLY B   3     -27.862 -31.037  10.127  1.00 54.27 LIG 0.23  C 
BRANCH 10 11
ATOM     11  N   GLY B   3     -28.680 -31.782  11.082  1.00 57.77 LIG-0.35  N 
ATOM     12  C   SER B   2     -30.018 -31.743  11.049  1.00 59.92 LIG 0.26  C 
ATOM     13 O    SER B   2     -30.653 -31.253  10.101  1.00 61.15 LIG-0.27  OA
ATOM     14 H    GLY B   3     -28.228 -32.238  11.655  1.00 57.77 LIG 0.16  HD
BRANCH 12 15
ATOM     15  CA  SER B   2     -30.783 -32.364  12.246  1.00 60.93 LIG 0.42  C 
ATOM     16  N   SER B   2     -30.538 -33.836  12.369  1.00 61.12 LIG 0.62  N 
BRANCH 15 17
ATOM     17  CB  SER B   2     -30.471 -31.642  13.583  1.00 61.55 LIG 0.21  C 
BRANCH 17 18
ATOM     18 OG   SER B   2     -29.086 -31.314  13.732  1.00 63.00 LIG-0.40  OA
ATOM     19 HG   SER B   2     -28.709 -31.895  14.207  1.00 63.00 LIG 0.21  HD
ENDBRANCH 17 18
ENDBRANCH 15 17
ENDBRANCH 12 15
ENDBRANCH 10 11
ENDBRANCH 8 10
ENDBRANCH 5 6
BRANCH 5 20
ATOM     20  CB  LYS B   4     -29.287 -26.720  10.699  1.00 46.79 LIG 0.04  C 
BRANCH 20 21
ATOM     21  CG  LYS B   4     -29.089 -25.231  10.898  1.00 47.63 LIG 0.00  C 
BRANCH 21 22
ATOM     22  CD  LYS B   4     -29.354 -24.424   9.629  1.00 49.12 LIG 0.03  C 
BRANCH 22 23
ATOM     23  CE  LYS B   4     -29.937 -23.069  10.010  1.00 51.72 LIG 0.23  C 
BRANCH 23 24
ATOM     24  NZ  LYS B   4     -31.334 -22.874   9.524  1.00 54.70 LIG-0.08  N 
ATOM     25 HZ3  LYS B   4     -31.795 -23.627   9.636  1.00 54.70 LIG 0.27  HD
ATOM     26 HZ2  LYS B   4     -31.321 -22.661   8.660  1.00 54.70 LIG 0.27  HD
ATOM     27 HZ1  LYS B   4     -31.721 -22.218   9.986  1.00 54.70 LIG 0.27  HD
ENDBRANCH 23 24
ENDBRANCH 22 23
ENDBRANCH 21 22
ENDBRANCH 20 21
ENDBRANCH 5 20
ENDBRANCH 1 5
BRANCH 3 28
ATOM     28  CA  VAL B   5     -28.284 -25.885  14.960  1.00 41.28 LIG 0.18  C 
BRANCH 28 29
ATOM     29  CB  VAL B   5     -27.867 -27.016  15.978  1.00 41.63 LIG 0.01  C 
ATOM     30  CG2 VAL B   5     -29.057 -27.456  16.823  1.00 40.80 LIG 0.01  C 
ATOM     31  CG1 VAL B   5     -26.680 -26.556  16.903  1.00 37.84 LIG 0.01  C 
ENDBRANCH 28 29
BRANCH 28 32
ATOM     32  C   VAL B   5     -27.475 -24.638  15.219  1.00 41.69 LIG 0.24  C 
ATOM     33  N   PRO B   6     -28.159 -23.560  15.649  1.00 42.18 LIG-0.34  N 
ATOM     34  CD  PRO B   6     -29.615 -23.464  15.889  1.00 41.81 LIG 0.13  C 
ATOM     35  CA  PRO B   6     -27.458 -22.313  15.942  1.00 41.75 LIG 0.18  C 
ATOM     36  CG  PRO B   6     -29.840 -22.005  15.976  1.00 42.56 LIG 0.02  C 
ATOM     37  CB  PRO B   6     -28.542 -21.467  16.582  1.00 42.23 LIG 0.04  C 
ATOM     38 O    VAL B   5     -26.258 -24.624  15.023  1.00 40.76 LIG-0.27  OA
BRANCH 35 39
ATOM     39  C   PRO B   6     -26.298 -22.566  16.917  1.00 41.76 LIG 0.24  C 
ATOM     40 O    PRO B   6     -26.217 -23.631  17.506  1.00 42.44 LIG-0.27  OA
ATOM     41  N   LEU B   7     -25.370 -21.622  17.036  1.00 41.16 LIG-0.34  N 
ATOM     42 H    LEU B   7     -25.321 -20.923  16.537  1.00 41.16 LIG 0.16  HD
BRANCH 41 43
ATOM     43  CA  LEU B   7     -24.333 -21.718  18.067  1.00 40.72 LIG 0.18  C 
BRANCH 43 44
ATOM     44  C   LEU B   7     -24.855 -21.415  19.468  1.00 41.28 LIG 0.20  C 
ATOM     45 OXT  LEU B   7     -25.922 -21.908  19.873  1.00 40.17 LIG-0.65  OA
ATOM     46 O    LEU B   7     -24.189 -20.645  20.193  1.00 41.30 LIG-0.65  OA
ENDBRANCH 43 44
BRANCH 43 47
ATOM     47  CB  LEU B   7     -23.161 -20.786  17.756  1.00 40.49 LIG 0.04  C 
BRANCH 47 48
ATOM     48  CG  LEU B   7     -22.055 -21.372  16.878  1.00 39.74 LIG-0.02  C 
ATOM     49  CD2 LEU B   7     -22.012 -20.645  15.556  1.00 36.73 LIG 0.01  C 
ATOM     50  CD1 LEU B   7     -22.356 -22.833  16.643  1.00 40.10 LIG 0.01  C 
ENDBRANCH 47 48
ENDBRANCH 43 47
ENDBRANCH 41 43
ENDBRANCH 35 39
ENDBRANCH 28 32
ENDBRANCH 3 28
TORSDOF 20
ENDMDL
MODEL 3
USER: ADFR SOLUTION from run 118
USER: SCORE 16.914641 LL:  -3.069 LR: -16.056 RR:   0.000 FEB: -10.090
USER: RMSD 2.546327
USER: SEED 117
USER: STATUS no improvement in best in 2 clusters for 5 generations
USER: GENES 22
USER: genes 0 Translation |==|  0.38307 0.60868 0.46952
USER: genes 1 Rotation |==|  0.55741 0.53839 0.47592 0.99462
USER: genes 2 Torsion [N]-C--CA-[N] |==|  0.39001
USER: genes 3 Torsion [C]-CA--N-[C] |==|  0.81713
USER: genes 4 Torsion [N]-C--CA-[N] |==|  0.14894
USER: genes 5 Torsion [C]-CA--N-[C] |==|  0.25968
USER: genes 6 Torsion [N]-C--CA-[N] |==|  0.75608
USER: genes 7 Torsion [C]-CA--CB-[OG] |==|  0.09337
USER: genes 8 Torsion [CA]-CB--OG-[HG] |==|  0.64363
USER: genes 9 Torsion [C]-CA--CB-[CG] |==|  0.56389
USER: genes 10 Torsion [CA]-CB--CG-[CD] |==|  0.84291
USER: genes 11 Torsion [CB]-CG--CD-[CE] |==|  0.58570
USER: genes 12 Torsion [CG]-CD--CE-[NZ] |==|  0.48270
USER: genes 13 Torsion [CD]-CE--NZ-[HZ1] |==|  0.34921
USER: genes 14 Torsion [C]-N--CA-[CB] |==|  0.34737
USER: genes 15 Torsion [N]-CA--CB-[CG2] |==|  0.81969
USER: genes 16 Torsion [N]-CA--C-[N] |==|  0.27584
USER: genes 17 Torsion [N]-CA--C-[N] |==|  0.41463
USER: genes 18 Torsion [C]-N--CA-[C] |==|  0.74875
USER: genes 19 Torsion [N]-CA--C-[OXT] |==|  0.15439
USER: genes 20 Torsion [N]-CA--CB-[CG] |==|  0.91861
USER: genes 21 Torsion [CA]-CB--CG-[CD2] |==|  0.68384
ROOT
ATOM      1  C   LYS B   4     -29.864 -24.068  12.064  1.00 44.81 LIG 0.24  C 
ATOM      2 O    LYS B   4     -30.930 -24.084  12.656  1.00 44.64 LIG-0.27  OA
ATOM      3  N   VAL B   5     -28.711 -24.391  12.635  1.00 42.75 LIG-0.35  N 
ATOM      4 H    VAL B   5     -27.960 -24.399  12.217  1.00 42.75 LIG 0.16  HD
ENDROOT
BRANCH 1 5
ATOM      5  CA  LYS B   4     -29.812 -23.680  10.595  1.00 46.85 LIG 0.18  C 
BRANCH 5 6
ATOM      6  N   LYS B   4     -30.969 -24.243   9.903  1.00 49.38 LIG-0.35  N 
ATOM      7 H    LYS B   4     -31.519 -23.654   9.605  1.00 49.38 LIG 0.16  HD
ATOM      8  C   GLY B   3     -31.144 -25.555   9.754  1.00 51.92 LIG 0.24  C 
ATOM      9 O    GLY B   3     -30.236 -26.362   9.870  1.00 51.73 LIG-0.27  OA
BRANCH 8 10
ATOM     10  CA  GLY B   3     -32.557 -26.017   9.423  1.00 54.27 LIG 0.23  C 
BRANCH 10 11
ATOM     11  N   GLY B   3     -33.190 -25.387   8.265  1.00 57.77 LIG-0.35  N 
ATOM     12  C   SER B   2     -33.130 -25.930   7.043  1.00 59.92 LIG 0.26  C 
ATOM     13 O    SER B   2     -32.724 -27.087   6.842  1.00 61.15 LIG-0.27  OA
ATOM     14 H    GLY B   3     -33.596 -24.649   8.442  1.00 57.77 LIG 0.16  HD
BRANCH 12 15
ATOM     15  CA  SER B   2     -33.616 -25.068   5.851  1.00 60.93 LIG 0.42  C 
ATOM     16  N   SER B   2     -35.087 -25.217   5.610  1.00 61.12 LIG 0.62  N 
BRANCH 15 17
ATOM     17  CB  SER B   2     -33.234 -23.573   6.010  1.00 61.55 LIG 0.21  C 
BRANCH 17 18
ATOM     18 OG   SER B   2     -31.983 -23.384   6.681  1.00 63.00 LIG-0.40  OA
ATOM     19 HG   SER B   2     -32.084 -22.843   7.316  1.00 63.00 LIG 0.21  HD
ENDBRANCH 17 18
ENDBRANCH 15 17
ENDBRANCH 12 15
ENDBRANCH 10 11
ENDBRANCH 8 10
ENDBRANCH 5 6
BRANCH 5 20
ATOM     20  CB  LYS B   4     -29.785 -22.160  10.453  1.00 46.79 LIG 0.04  C 
BRANCH 20 21
ATOM     21  CG  LYS B   4     -30.281 -21.693   9.101  1.00 47.63 LIG 0.00  C 
BRANCH 21 22
ATOM     22  CD  LYS B   4     -29.502 -22.306   7.940  1.00 49.12 LIG 0.03  C 
BRANCH 22 23
ATOM     23  CE  LYS B   4     -29.476 -21.320   6.778  1.00 51.72 LIG 0.23  C 
BRANCH 23 24
ATOM     24  NZ  LYS B   4     -28.611 -21.769   5.648  1.00 54.70 LIG-0.08  N 
ATOM     25 HZ3  LYS B   4     -28.313 -22.592   5.811  1.00 54.70 LIG 0.27  HD
ATOM     26 HZ2  LYS B   4     -27.920 -21.215   5.565  1.00 54.70 LIG 0.27  HD
ATOM     27 HZ1  LYS B   4     -29.084 -21.769   4.893  1.00 54.70 LIG 0.27  HD
ENDBRANCH 23 24
ENDBRANCH 22 23
ENDBRANCH 21 22
ENDBRANCH 20 21
ENDBRANCH 5 20
ENDBRANCH 1 5
BRANCH 3 28
ATOM     28  CA  VAL B   5     -28.615 -24.761  14.029  1.00 41.28 LIG 0.18  C 
BRANCH 28 29
ATOM     29  CB  VAL B   5     -27.929 -26.160  14.276  1.00 41.63 LIG 0.01  C 
ATOM     30  CG2 VAL B   5     -28.769 -27.291  13.693  1.00 40.80 LIG 0.01  C 
ATOM     31  CG1 VAL B   5     -27.660 -26.412  15.806  1.00 37.84 LIG 0.01  C 
ENDBRANCH 28 29
BRANCH 28 32
ATOM     32  C   VAL B   5     -27.830 -23.675  14.720  1.00 41.69 LIG 0.24  C 
ATOM     33  N   PRO B   6     -28.546 -22.752  15.390  1.00 42.18 LIG-0.34  N 
ATOM     34  CD  PRO B   6     -30.019 -22.683  15.516  1.00 41.81 LIG 0.13  C 
ATOM     35  CA  PRO B   6     -27.870 -21.672  16.104  1.00 41.75 LIG 0.18  C 
ATOM     36  CG  PRO B   6     -30.244 -21.309  16.015  1.00 42.56 LIG 0.02  C 
ATOM     37  CB  PRO B   6     -29.007 -21.019  16.868  1.00 42.23 LIG 0.04  C 
ATOM     38 O    VAL B   5     -26.599 -23.644  14.648  1.00 40.76 LIG-0.27  OA
BRANCH 35 39
ATOM     39  C   PRO B   6     -26.811 -22.242  17.060  1.00 41.76 LIG 0.24  C 
ATOM     40 O    PRO B   6     -26.944 -23.363  17.520  1.00 42.44 LIG-0.27  OA
ATOM     41  N   LEU B   7     -25.733 -21.503  17.302  1.00 41.16 LIG-0.34  N 
ATOM     42 H    LEU B   7     -25.540 -20.773  16.890  1.00 41.16 LIG 0.16  HD
BRANCH 41 43
ATOM     43  CA  LEU B   7     -24.768 -21.904  18.329  1.00 40.72 LIG 0.18  C 
BRANCH 43 44
ATOM     44  C   LEU B   7     -25.086 -21.327  19.705  1.00 41.28 LIG 0.20  C 
ATOM     45 OXT  LEU B   7     -26.193 -21.515  20.237  1.00 40.17 LIG-0.65  OA
ATOM     46 O    LEU B   7     -24.209 -20.644  20.277  1.00 41.30 LIG-0.65  OA
ENDBRANCH 43 44
BRANCH 43 47
ATOM     47  CB  LEU B   7     -23.346 -21.503  17.934  1.00 40.49 LIG 0.04  C 
BRANCH 47 48
ATOM     48  CG  LEU B   7     -23.059 -21.447  16.433  1.00 39.74 LIG-0.02  C 
ATOM     49  CD2 LEU B   7     -22.064 -22.519  16.062  1.00 36.73 LIG 0.01  C 
ATOM     50  CD1 LEU B   7     -22.484 -20.089  16.107  1.00 40.10 LIG 0.01  C 
ENDBRANCH 47 48
ENDBRANCH 43 47
ENDBRANCH 41 43
ENDBRANCH 35 39
ENDBRANCH 28 32
ENDBRANCH 3 28
TORSDOF 20
ENDMDL
MODEL 4
USER: ADFR SOLUTION from run 127
USER: SCORE 16.736536 LL:  -2.938 LR: -16.041 RR:   0.000 FEB: -10.075
USER: RMSD 2.153666
USER: SEED 126
USER: STATUS no improvement in best in 4 clusters for 5 generations
USER: GENES 22
USER: genes 0 Translation |==|  0.38440 0.60433 0.46843
USER: genes 1 Rotation |==|  0.55019 0.53211 0.47288 0.99570
USER: genes 2 Torsion [N]-C--CA-[N] |==|  0.31562
USER: genes 3 Torsion [C]-CA--N-[C] |==|  0.57986
USER: genes 4 Torsion [N]-C--CA-[N] |==|  0.55961
USER: genes 5 Torsion [C]-CA--N-[C] |==|  0.75548
USER: genes 6 Torsion [N]-C--CA-[N] |==|  0.48623
USER: genes 7 Torsion [C]-CA--CB-[OG] |==|  0.40071
USER: genes 8 Torsion [CA]-CB--OG-[HG] |==|  0.49802
USER: genes 9 Torsion [C]-CA--CB-[CG] |==|  0.41163
USER: genes 10 Torsion [CA]-CB--CG-[CD] |==|  0.31515
USER: genes 11 Torsion [CB]-CG--CD-[CE] |==|  0.57429
USER: genes 12 Torsion [CG]-CD--CE-[NZ] |==|  0.58786
USER: genes 13 Torsion [CD]-CE--NZ-[HZ1] |==|  0.35160
USER: genes 14 Torsion [C]-N--CA-[CB] |==|  0.34913
USER: genes 15 Torsion [N]-CA--CB-[CG2] |==|  0.80696
USER: genes 16 Torsion [N]-CA--C-[N] |==|  0.28284
USER: genes 17 Torsion [N]-CA--C-[N] |==|  0.41372
USER: genes 18 Torsion [C]-N--CA-[C] |==|  0.74778
USER: genes 19 Torsion [N]-CA--C-[OXT] |==|  0.13768
USER: genes 20 Torsion [N]-CA--CB-[CG] |==|  0.89939
USER: genes 21 Torsion [CA]-CB--CG-[CD2] |==|  0.69862
ROOT
ATOM      1  C   LYS B   4     -29.838 -24.156  12.039  1.00 44.81 LIG 0.24  C 
ATOM      2 O    LYS B   4     -30.917 -24.141  12.607  1.00 44.64 LIG-0.27  OA
ATOM      3  N   VAL B   5     -28.702 -24.475  12.645  1.00 42.75 LIG-0.35  N 
ATOM      4 H    VAL B   5     -27.942 -24.505  12.245  1.00 42.75 LIG 0.16  HD
ENDROOT
BRANCH 1 5
ATOM      5  CA  LYS B   4     -29.748 -23.815  10.560  1.00 46.85 LIG 0.18  C 
BRANCH 5 6
ATOM      6  N   LYS B   4     -30.450 -24.835   9.783  1.00 49.38 LIG-0.35  N 
ATOM      7 H    LYS B   4     -31.097 -25.212  10.204  1.00 49.38 LIG 0.16  HD
ATOM      8  C   GLY B   3     -30.107 -25.143   8.534  1.00 51.92 LIG 0.24  C 
ATOM      9 O    GLY B   3     -29.433 -24.407   7.831  1.00 51.73 LIG-0.27  OA
BRANCH 8 10
ATOM     10  CA  GLY B   3     -30.604 -26.483   8.005  1.00 54.27 LIG 0.23  C 
BRANCH 10 11
ATOM     11  N   GLY B   3     -29.867 -27.044   6.874  1.00 57.77 LIG-0.35  N 
ATOM     12  C   SER B   2     -30.180 -26.744   5.607  1.00 59.92 LIG 0.26  C 
ATOM     13 O    SER B   2     -30.963 -25.827   5.308  1.00 61.15 LIG-0.27  OA
ATOM     14 H    GLY B   3     -29.227 -27.575   7.096  1.00 57.77 LIG 0.16  HD
BRANCH 12 15
ATOM     15  CA  SER B   2     -29.506 -27.575   4.486  1.00 60.93 LIG 0.42  C 
ATOM     16  N   SER B   2     -30.029 -27.220   3.128  1.00 61.12 LIG 0.62  N 
BRANCH 15 17
ATOM     17  CB  SER B   2     -27.959 -27.468   4.523  1.00 61.55 LIG 0.21  C 
BRANCH 17 18
ATOM     18 OG   SER B   2     -27.304 -28.688   4.160  1.00 63.00 LIG-0.40  OA
ATOM     19 HG   SER B   2     -26.472 -28.579   4.185  1.00 63.00 LIG 0.21  HD
ENDBRANCH 17 18
ENDBRANCH 15 17
ENDBRANCH 12 15
ENDBRANCH 10 11
ENDBRANCH 8 10
ENDBRANCH 5 6
BRANCH 5 20
ATOM     20  CB  LYS B   4     -30.345 -22.434  10.301  1.00 46.79 LIG 0.04  C 
BRANCH 20 21
ATOM     21  CG  LYS B   4     -29.667 -21.711   9.157  1.00 47.63 LIG 0.00  C 
BRANCH 21 22
ATOM     22  CD  LYS B   4     -30.586 -21.511   7.955  1.00 49.12 LIG 0.03  C 
BRANCH 22 23
ATOM     23  CE  LYS B   4     -29.744 -21.418   6.688  1.00 51.72 LIG 0.23  C 
BRANCH 23 24
ATOM     24  NZ  LYS B   4     -30.344 -20.532   5.649  1.00 54.70 LIG-0.08  N 
ATOM     25 HZ3  LYS B   4     -31.060 -20.123   5.984  1.00 54.70 LIG 0.27  HD
ATOM     26 HZ2  LYS B   4     -30.584 -21.019   4.945  1.00 54.70 LIG 0.27  HD
ATOM     27 HZ1  LYS B   4     -29.746 -19.922   5.397  1.00 54.70 LIG 0.27  HD
ENDBRANCH 23 24
ENDBRANCH 22 23
ENDBRANCH 21 22
ENDBRANCH 20 21
ENDBRANCH 5 20
ENDBRANCH 1 5
BRANCH 3 28
ATOM     28  CA  VAL B   5     -28.642 -24.803  14.052  1.00 41.28 LIG 0.18  C 
BRANCH 28 29
ATOM     29  CB  VAL B   5     -27.966 -26.195  14.359  1.00 41.63 LIG 0.01  C 
ATOM     30  CG2 VAL B   5     -28.847 -27.346  13.889  1.00 40.80 LIG 0.01  C 
ATOM     31  CG1 VAL B   5     -27.629 -26.351  15.888  1.00 37.84 LIG 0.01  C 
ENDBRANCH 28 29
BRANCH 28 32
ATOM     32  C   VAL B   5     -27.872 -23.696  14.729  1.00 41.69 LIG 0.24  C 
ATOM     33  N   PRO B   6     -28.600 -22.782  15.396  1.00 42.18 LIG-0.34  N 
ATOM     34  CD  PRO B   6     -30.073 -22.738  15.532  1.00 41.81 LIG 0.13  C 
ATOM     35  CA  PRO B   6     -27.939 -21.684  16.097  1.00 41.75 LIG 0.18  C 
ATOM     36  CG  PRO B   6     -30.320 -21.365  16.022  1.00 42.56 LIG 0.02  C 
ATOM     37  CB  PRO B   6     -29.083 -21.046  16.864  1.00 42.23 LIG 0.04  C 
ATOM     38 O    VAL B   5     -26.642 -23.644  14.648  1.00 40.76 LIG-0.27  OA
BRANCH 35 39
ATOM     39  C   PRO B   6     -26.863 -22.227  17.050  1.00 41.76 LIG 0.24  C 
ATOM     40 O    PRO B   6     -26.976 -23.345  17.525  1.00 42.44 LIG-0.27  OA
ATOM     41  N   LEU B   7     -25.794 -21.469  17.274  1.00 41.16 LIG-0.34  N 
ATOM     42 H    LEU B   7     -25.616 -20.742  16.851  1.00 41.16 LIG 0.16  HD
BRANCH 41 43
ATOM     43  CA  LEU B   7     -24.814 -21.844  18.297  1.00 40.72 LIG 0.18  C 
BRANCH 43 44
ATOM     44  C   LEU B   7     -25.124 -21.248  19.667  1.00 41.28 LIG 0.20  C 
ATOM     45 OXT  LEU B   7     -26.259 -21.345  20.165  1.00 40.17 LIG-0.65  OA
ATOM     46 O    LEU B   7     -24.210 -20.644  20.269  1.00 41.30 LIG-0.65  OA
ENDBRANCH 43 44
BRANCH 43 47
ATOM     47  CB  LEU B   7     -23.401 -21.434  17.880  1.00 40.49 LIG 0.04  C 
BRANCH 47 48
ATOM     48  CG  LEU B   7     -23.080 -21.557  16.390  1.00 39.74 LIG-0.02  C 
ATOM     49  CD2 LEU B   7     -22.132 -22.710  16.164  1.00 36.73 LIG 0.01  C 
ATOM     50  CD1 LEU B   7     -22.432 -20.272  15.934  1.00 40.10 LIG 0.01  C 
ENDBRANCH 47 48
ENDBRANCH 43 47
ENDBRANCH 41 43
ENDBRANCH 35 39
ENDBRANCH 28 32
ENDBRANCH 3 28
TORSDOF 20
ENDMDL
