MODEL 1
USER: ADFR SOLUTION from run 82
USER: SCORE 22.752159 LL:  -4.980 LR: -19.422 RR:   0.000 FEB: -11.368
USER: RMSD 2.596384
USER: SEED 81
USER: STATUS no improvement in best in 5 clusters for 5 generations
USER: GENES 29
USER: genes 0 Translation |==|  0.53508 0.51462 0.54486
USER: genes 1 Rotation |==|  0.64617 0.44696 0.67919 0.94013
USER: genes 2 Torsion [C]-N--CA-[CB] |==|  0.50593
USER: genes 3 Torsion [N]-CA--C-[N] |==|  0.49631
USER: genes 4 Torsion [C]-N--CA-[C] |==|  0.63683
USER: genes 5 Torsion [N]-CA--C-[N] |==|  0.44538
USER: genes 6 Torsion [C]-N--CA-[C] |==|  0.61400
USER: genes 7 Torsion [N]-CA--C-[N] |==|  0.16667
USER: genes 8 Torsion [C]-N--CA-[C] |==|  0.72292
USER: genes 9 Torsion [N]-CA--C-[O] |==|  0.00535
USER: genes 10 Torsion [N]-CA--CB-[OG] |==|  0.07578
USER: genes 11 Torsion [CA]-CB--OG-[HG] |==|  0.34710
USER: genes 12 Torsion [N]-CA--CB-[CG] |==|  0.82197
USER: genes 13 Torsion [CA]-CB--CG-[CD2] |==|  0.81301
USER: genes 14 Torsion [N]-CA--CB-[CG] |==|  0.77805
USER: genes 15 Torsion [CA]-CB--CG-[CD2] |==|  0.19159
USER: genes 16 Torsion [N]-CA--CB-[OG1] |==|  0.03802
USER: genes 17 Torsion [CA]-CB--OG1-[HG1] |==|  0.05942
USER: genes 18 Torsion [N]-C--CA-[N] |==|  0.20654
USER: genes 19 Torsion [C]-CA--CB-[CG] |==|  0.26527
USER: genes 20 Torsion [CA]-CB--CG-[CD2] |==|  0.36870
USER: genes 21 Torsion [C]-CA--N-[C] |==|  0.79675
USER: genes 22 Torsion [N]-C--CA-[N] |==|  0.06602
USER: genes 23 Torsion [C]-CA--CB-[CG] |==|  0.34316
USER: genes 24 Torsion [CA]-CB--CG-[OD1] |==|  0.02280
USER: genes 25 Torsion [C]-CA--N-[C] |==|  0.68520
USER: genes 26 Torsion [N]-C--CA-[N] |==|  0.43269
USER: genes 27 Torsion [C]-CA--CB-[CG] |==|  0.22406
USER: genes 28 Torsion [CA]-CB--CG-[OD2] |==|  0.65340
ROOT
ATOM      1  C   TRP D 340      23.993  36.188  81.319  1.00 16.52 LIG 0.24  C 
ATOM      2 O    TRP D 340      22.896  35.888  81.797  1.00 16.60 LIG-0.27  OA
ATOM      3  N   THR D 341      24.133  36.807  80.154  1.00 13.22 LIG-0.34  N 
ATOM      4 H    THR D 341      24.899  37.023  79.828  1.00 13.22 LIG 0.16  HD
ENDROOT
BRANCH 3 5
ATOM      5  CA  THR D 341      23.014  37.185  79.304  1.00 12.53 LIG 0.20  C 
BRANCH 5 6
ATOM      6  C   THR D 341      22.154  35.963  78.988  1.00 12.10 LIG 0.24  C 
ATOM      7 O    THR D 341      22.440  34.852  79.433  1.00 10.92 LIG-0.27  OA
ATOM      8  N   HIS D 342      21.079  36.172  78.239  1.00 12.26 LIG-0.35  N 
ATOM      9 H    HIS D 342      20.838  36.942  77.943  1.00 12.26 LIG 0.16  HD
BRANCH 8 10
ATOM     10  CA  HIS D 342      20.201  35.071  77.854  1.00 12.78 LIG 0.18  C 
BRANCH 10 11
ATOM     11  C   HIS D 342      19.950  35.137  76.362  1.00 14.51 LIG 0.24  C 
ATOM     12  N   LEU D 343      19.522  34.023  75.775  1.00 15.48 LIG-0.35  N 
ATOM     13 H    LEU D 343      19.320  33.304  76.202  1.00 15.48 LIG 0.16  HD
ATOM     14 O    HIS D 342      20.131  36.202  75.744  1.00 16.02 LIG-0.27  OA
BRANCH 12 15
ATOM     15  CA  LEU D 343      19.356  33.927  74.323  1.00 16.72 LIG 0.18  C 
BRANCH 15 16
ATOM     16  C   LEU D 343      18.096  33.181  73.890  1.00 19.19 LIG 0.24  C 
ATOM     17  N   SER D 344      16.922  33.693  74.296  1.00 21.37 LIG-0.34  N 
ATOM     18 H    SER D 344      16.858  34.281  74.919  1.00 21.37 LIG 0.16  HD
ATOM     19 O    LEU D 343      18.186  32.179  73.200  1.00 19.56 LIG-0.27  OA
BRANCH 17 20
ATOM     20  CA  SER D 344      15.617  33.301  73.715  1.00 23.14 LIG 0.19  C 
BRANCH 20 21
ATOM     21  C   SER D 344      15.135  34.338  72.691  1.00 24.18 LIG 0.22  C 
ATOM     22 O    SER D 344      15.826  35.333  72.410  1.00 25.35 LIG-0.29  OA
ENDBRANCH 20 21
BRANCH 20 23
ATOM     23  CB  SER D 344      14.548  33.133  74.797  1.00 23.66 LIG 0.20  C 
BRANCH 23 24
ATOM     24 OG   SER D 344      14.829  33.950  75.935  1.00 25.03 LIG-0.40  OA
ATOM     25 HG   SER D 344      14.167  34.441  76.099  1.00 25.03 LIG 0.21  HD
ENDBRANCH 23 24
ENDBRANCH 20 23
ENDBRANCH 17 20
ENDBRANCH 15 16
BRANCH 15 26
ATOM     26  CB  LEU D 343      20.566  33.222  73.685  1.00 15.83 LIG 0.04  C 
BRANCH 26 27
ATOM     27  CG  LEU D 343      21.903  33.926  73.804  1.00 14.86 LIG-0.02  C 
ATOM     28  CD1 LEU D 343      23.020  32.998  73.353  1.00 12.95 LIG 0.01  C 
ATOM     29  CD2 LEU D 343      21.894  35.235  72.972  1.00 12.95 LIG 0.01  C 
ENDBRANCH 26 27
ENDBRANCH 15 26
ENDBRANCH 12 15
ENDBRANCH 10 11
BRANCH 10 30
ATOM     30  CB  HIS D 342      18.862  35.173  78.600  1.00 12.90 LIG 0.10  C 
BRANCH 30 31
ATOM     31  CG  HIS D 342      18.915  34.662  80.003  1.00 12.99 LIG 0.06  A 
ATOM     32  CD2 HIS D 342      19.545  35.159  81.094  1.00 12.88 LIG 0.14  A 
ATOM     33 NE2  HIS D 342      19.279  34.308  82.137  1.00 14.80 LIG-0.25  NA
ATOM     34  CE1 HIS D 342      18.519  33.321  81.707  1.00 13.21 LIG 0.23  A 
ATOM     35 ND1  HIS D 342      18.290  33.506  80.419  1.00 14.49 LIG-0.24  NA
ENDBRANCH 30 31
ENDBRANCH 10 30
ENDBRANCH 8 10
ENDBRANCH 5 6
BRANCH 5 36
ATOM     36  CB  THR D 341      23.520  37.839  77.997  1.00 12.70 LIG 0.15  C 
ATOM     37  CG2 THR D 341      23.243  39.354  77.979  1.00 14.15 LIG 0.04  C 
BRANCH 36 38
ATOM     38 OG1  THR D 341      24.926  37.593  77.862  1.00 14.08 LIG-0.39  OA
ATOM     39 HG1  THR D 341      25.140  36.928  78.328  1.00 14.08 LIG 0.21  HD
ENDBRANCH 36 38
ENDBRANCH 5 36
ENDBRANCH 3 5
BRANCH 1 40
ATOM     40  CA  TRP D 340      25.283  35.807  82.037  1.00 18.72 LIG 0.18  C 
BRANCH 40 41
ATOM     41  CB  TRP D 340      24.938  34.780  83.114  1.00 19.00 LIG 0.07  C 
BRANCH 41 42
ATOM     42  CG  TRP D 340      25.119  33.360  82.707  1.00 19.22 LIG-0.03  A 
ATOM     43  CD2 TRP D 340      25.781  32.343  83.456  1.00 20.18 LIG-0.00  A 
ATOM     44  CE3 TRP D 340      26.396  32.313  84.714  1.00 18.70 LIG 0.01  A 
ATOM     45  CE2 TRP D 340      25.753  31.165  82.677  1.00 18.84 LIG 0.04  A 
ATOM     46  CZ3 TRP D 340      26.963  31.118  85.150  1.00 20.55 LIG 0.00  A 
ATOM     47  CH2 TRP D 340      26.911  29.962  84.350  1.00 19.52 LIG 0.00  A 
ATOM     48  CZ2 TRP D 340      26.317  29.965  83.114  1.00 19.79 LIG 0.03  A 
ATOM     49  NE1 TRP D 340      25.099  31.456  81.507  1.00 21.77 LIG-0.36  N 
ATOM     50  CD1 TRP D 340      24.736  32.784  81.531  1.00 20.48 LIG 0.10  A 
ATOM     51 HE1  TRP D 340      24.942  30.903  80.867  1.00 21.77 LIG 0.17  HD
ENDBRANCH 41 42
ENDBRANCH 40 41
BRANCH 40 52
ATOM     52  N   TRP D 340      25.939  36.976  82.634  1.00 22.23 LIG-0.35  N 
ATOM     53  C   ASP D 339      26.575  37.895  81.908  1.00 26.49 LIG 0.24  C 
ATOM     54 O    ASP D 339      26.658  37.847  80.669  1.00 27.22 LIG-0.27  OA
ATOM     55 H    TRP D 340      25.876  37.011  83.490  1.00 22.23 LIG 0.16  HD
BRANCH 53 56
ATOM     56  CA  ASP D 339      27.221  39.048  82.684  1.00 29.46 LIG 0.19  C 
BRANCH 56 57
ATOM     57  CB  ASP D 339      28.523  39.461  81.992  1.00 30.27 LIG 0.15  C 
BRANCH 57 58
ATOM     58  CG  ASP D 339      28.556  40.943  81.608  1.00 32.94 LIG 0.17  C 
ATOM     59 OD1  ASP D 339      27.631  41.673  82.023  1.00 36.53 LIG-0.65  OA
ATOM     60 OD2  ASP D 339      29.487  41.377  80.885  1.00 35.99 LIG-0.65  OA
ENDBRANCH 57 58
ENDBRANCH 56 57
BRANCH 56 61
ATOM     61  N   ASP D 339      27.506  38.661  84.063  1.00 31.22 LIG-0.34  N 
ATOM     62  C   ASP D 338      26.893  39.193  85.119  1.00 32.92 LIG 0.26  C 
ATOM     63 O    ASP D 338      25.884  39.902  85.042  1.00 33.60 LIG-0.27  OA
ATOM     64 H    ASP D 339      28.111  38.053  84.130  1.00 31.22 LIG 0.16  HD
BRANCH 62 65
ATOM     65  CA  ASP D 338      27.501  38.844  86.478  1.00 33.82 LIG 0.41  C 
ATOM     66  N   ASP D 338      27.161  39.887  87.498  1.00 34.02 LIG 0.61  N 
BRANCH 65 67
ATOM     67  CB  ASP D 338      27.017  37.459  86.936  1.00 34.49 LIG 0.16  C 
BRANCH 67 68
ATOM     68  CG  ASP D 338      27.789  36.316  86.288  1.00 35.92 LIG 0.17  C 
ATOM     69 OD2  ASP D 338      27.144  35.443  85.674  1.00 39.23 LIG-0.65  OA
ATOM     70 OD1  ASP D 338      29.038  36.278  86.396  1.00 38.97 LIG-0.65  OA
ENDBRANCH 67 68
ENDBRANCH 65 67
ENDBRANCH 62 65
ENDBRANCH 56 61
ENDBRANCH 53 56
ENDBRANCH 40 52
ENDBRANCH 1 40
TORSDOF 27
ENDMDL
MODEL 2
USER: ADFR SOLUTION from run 184
USER: SCORE 23.076206 LL:  -5.559 LR: -19.339 RR:   0.000 FEB: -11.285
USER: RMSD 3.446666
USER: SEED 183
USER: STATUS no improvement in best in 3 clusters for 5 generations
USER: GENES 29
USER: genes 0 Translation |==|  0.54573 0.50941 0.55606
USER: genes 1 Rotation |==|  0.64016 0.51898 0.63837 0.95918
USER: genes 2 Torsion [C]-N--CA-[CB] |==|  0.49483
USER: genes 3 Torsion [N]-CA--C-[N] |==|  0.27111
USER: genes 4 Torsion [C]-N--CA-[C] |==|  0.79366
USER: genes 5 Torsion [N]-CA--C-[N] |==|  0.23168
USER: genes 6 Torsion [C]-N--CA-[C] |==|  0.77237
USER: genes 7 Torsion [N]-CA--C-[N] |==|  0.44872
USER: genes 8 Torsion [C]-N--CA-[C] |==|  0.61580
USER: genes 9 Torsion [N]-CA--C-[O] |==|  0.02710
USER: genes 10 Torsion [N]-CA--CB-[OG] |==|  0.79093
USER: genes 11 Torsion [CA]-CB--OG-[HG] |==|  0.28758
USER: genes 12 Torsion [N]-CA--CB-[CG] |==|  0.95278
USER: genes 13 Torsion [CA]-CB--CG-[CD2] |==|  0.72240
USER: genes 14 Torsion [N]-CA--CB-[CG] |==|  0.94053
USER: genes 15 Torsion [CA]-CB--CG-[CD2] |==|  0.76797
USER: genes 16 Torsion [N]-CA--CB-[OG1] |==|  0.01398
USER: genes 17 Torsion [CA]-CB--OG1-[HG1] |==|  0.10334
USER: genes 18 Torsion [N]-C--CA-[N] |==|  0.22324
USER: genes 19 Torsion [C]-CA--CB-[CG] |==|  0.26502
USER: genes 20 Torsion [CA]-CB--CG-[CD2] |==|  0.41337
USER: genes 21 Torsion [C]-CA--N-[C] |==|  0.73380
USER: genes 22 Torsion [N]-C--CA-[N] |==|  0.39869
USER: genes 23 Torsion [C]-CA--CB-[CG] |==|  0.56544
USER: genes 24 Torsion [CA]-CB--CG-[OD1] |==|  0.65170
USER: genes 25 Torsion [C]-CA--N-[C] |==|  0.80023
USER: genes 26 Torsion [N]-C--CA-[N] |==|  0.04270
USER: genes 27 Torsion [C]-CA--CB-[CG] |==|  0.35324
USER: genes 28 Torsion [CA]-CB--CG-[OD2] |==|  0.39087
ROOT
ATOM      1  C   TRP D 340      24.289  36.086  81.622  1.00 16.52 LIG 0.24  C 
ATOM      2 O    TRP D 340      23.370  35.963  82.434  1.00 16.60 LIG-0.27  OA
ATOM      3  N   THR D 341      24.112  36.550  80.391  1.00 13.22 LIG-0.34  N 
ATOM      4 H    THR D 341      24.757  36.644  79.830  1.00 13.22 LIG 0.16  HD
ENDROOT
BRANCH 3 5
ATOM      5  CA  THR D 341      22.817  36.947  79.858  1.00 12.53 LIG 0.20  C 
BRANCH 5 6
ATOM      6  C   THR D 341      21.849  35.766  79.890  1.00 12.10 LIG 0.24  C 
ATOM      7 O    THR D 341      21.871  34.901  79.016  1.00 10.92 LIG-0.27  OA
ATOM      8  N   HIS D 342      21.013  35.712  80.920  1.00 12.26 LIG-0.35  N 
ATOM      9 H    HIS D 342      20.999  36.285  81.562  1.00 12.26 LIG 0.16  HD
BRANCH 8 10
ATOM     10  CA  HIS D 342      20.027  34.643  81.038  1.00 12.78 LIG 0.18  C 
BRANCH 10 11
ATOM     11  C   HIS D 342      18.909  34.888  80.046  1.00 14.51 LIG 0.24  C 
ATOM     12  N   LEU D 343      19.111  34.472  78.799  1.00 15.48 LIG-0.35  N 
ATOM     13 H    LEU D 343      19.799  34.021  78.551  1.00 15.48 LIG 0.16  HD
ATOM     14 O    HIS D 342      17.857  35.442  80.415  1.00 16.02 LIG-0.27  OA
BRANCH 12 15
ATOM     15  CA  LEU D 343      18.156  34.755  77.725  1.00 16.72 LIG 0.18  C 
BRANCH 15 16
ATOM     16  C   LEU D 343      16.970  33.794  77.680  1.00 19.19 LIG 0.24  C 
ATOM     17  N   SER D 344      15.888  34.203  76.996  1.00 21.37 LIG-0.34  N 
ATOM     18 H    SER D 344      15.766  35.020  76.758  1.00 21.37 LIG 0.16  HD
ATOM     19 O    LEU D 343      17.038  32.713  78.240  1.00 19.56 LIG-0.27  OA
BRANCH 17 20
ATOM     20  CA  SER D 344      14.795  33.294  76.580  1.00 23.14 LIG 0.19  C 
BRANCH 20 21
ATOM     21  C   SER D 344      14.330  33.608  75.151  1.00 24.18 LIG 0.22  C 
ATOM     22 O    SER D 344      14.965  34.395  74.427  1.00 25.35 LIG-0.29  OA
ENDBRANCH 20 21
BRANCH 20 23
ATOM     23  CB  SER D 344      13.595  33.387  77.526  1.00 23.66 LIG 0.20  C 
BRANCH 23 24
ATOM     24 OG   SER D 344      13.854  32.713  78.759  1.00 25.03 LIG-0.40  OA
ATOM     25 HG   SER D 344      14.020  33.278  79.358  1.00 25.03 LIG 0.21  HD
ENDBRANCH 23 24
ENDBRANCH 20 23
ENDBRANCH 17 20
ENDBRANCH 15 16
BRANCH 15 26
ATOM     26  CB  LEU D 343      18.854  34.708  76.355  1.00 15.83 LIG 0.04  C 
BRANCH 26 27
ATOM     27  CG  LEU D 343      20.368  34.792  76.360  1.00 14.86 LIG-0.02  C 
ATOM     28  CD1 LEU D 343      20.947  33.790  75.375  1.00 12.95 LIG 0.01  C 
ATOM     29  CD2 LEU D 343      20.824  36.235  76.022  1.00 12.95 LIG 0.01  C 
ENDBRANCH 26 27
ENDBRANCH 15 26
ENDBRANCH 12 15
ENDBRANCH 10 11
BRANCH 10 30
ATOM     30  CB  HIS D 342      19.447  34.609  82.461  1.00 12.90 LIG 0.10  C 
BRANCH 30 31
ATOM     31  CG  HIS D 342      20.320  35.264  83.481  1.00 12.99 LIG 0.06  A 
ATOM     32  CD2 HIS D 342      21.381  34.778  84.169  1.00 12.88 LIG 0.14  A 
ATOM     33 NE2  HIS D 342      21.828  35.785  84.987  1.00 14.80 LIG-0.25  NA
ATOM     34  CE1 HIS D 342      21.069  36.849  84.817  1.00 13.21 LIG 0.23  A 
ATOM     35 ND1  HIS D 342      20.146  36.560  83.918  1.00 14.49 LIG-0.24  NA
ENDBRANCH 30 31
ENDBRANCH 10 30
ENDBRANCH 8 10
ENDBRANCH 5 6
BRANCH 5 36
ATOM     36  CB  THR D 341      22.963  37.483  78.415  1.00 12.70 LIG 0.15  C 
ATOM     37  CG2 THR D 341      22.553  38.965  78.319  1.00 14.15 LIG 0.04  C 
BRANCH 36 38
ATOM     38 OG1  THR D 341      24.322  37.319  77.988  1.00 14.08 LIG-0.39  OA
ATOM     39 HG1  THR D 341      24.625  36.597  78.291  1.00 14.08 LIG 0.21  HD
ENDBRANCH 36 38
ENDBRANCH 5 36
ENDBRANCH 3 5
BRANCH 1 40
ATOM     40  CA  TRP D 340      25.706  35.653  81.979  1.00 18.72 LIG 0.18  C 
BRANCH 40 41
ATOM     41  CB  TRP D 340      25.619  34.678  83.152  1.00 19.00 LIG 0.07  C 
BRANCH 41 42
ATOM     42  CG  TRP D 340      25.614  33.239  82.772  1.00 19.22 LIG-0.03  A 
ATOM     43  CD2 TRP D 340      26.145  32.160  83.537  1.00 20.18 LIG-0.00  A 
ATOM     44  CE3 TRP D 340      26.759  32.074  84.792  1.00 18.70 LIG 0.01  A 
ATOM     45  CE2 TRP D 340      25.961  30.981  82.781  1.00 18.84 LIG 0.04  A 
ATOM     46  CZ3 TRP D 340      27.171  30.824  85.249  1.00 20.55 LIG 0.00  A 
ATOM     47  CH2 TRP D 340      26.965  29.670  84.471  1.00 19.52 LIG 0.00  A 
ATOM     48  CZ2 TRP D 340      26.369  29.727  83.238  1.00 19.79 LIG 0.03  A 
ATOM     49  NE1 TRP D 340      25.342  31.332  81.608  1.00 21.77 LIG-0.36  N 
ATOM     50  CD1 TRP D 340      25.152  32.696  81.608  1.00 20.48 LIG 0.10  A 
ATOM     51 HE1  TRP D 340      25.111  30.792  80.980  1.00 21.77 LIG 0.17  HD
ENDBRANCH 41 42
ENDBRANCH 40 41
BRANCH 40 52
ATOM     52  N   TRP D 340      26.554  36.800  82.327  1.00 22.23 LIG-0.35  N 
ATOM     53  C   ASP D 339      27.359  37.394  81.447  1.00 26.49 LIG 0.24  C 
ATOM     54 O    ASP D 339      27.454  37.036  80.261  1.00 27.22 LIG-0.27  OA
ATOM     55 H    TRP D 340      26.482  37.050  83.146  1.00 22.23 LIG 0.16  HD
BRANCH 53 56
ATOM     56  CA  ASP D 339      28.191  38.569  81.972  1.00 29.46 LIG 0.19  C 
BRANCH 56 57
ATOM     57  CB  ASP D 339      27.467  39.882  81.667  1.00 30.27 LIG 0.15  C 
BRANCH 57 58
ATOM     58  CG  ASP D 339      28.407  41.090  81.612  1.00 32.94 LIG 0.17  C 
ATOM     59 OD1  ASP D 339      28.144  42.067  82.344  1.00 36.53 LIG-0.65  OA
ATOM     60 OD2  ASP D 339      29.394  41.074  80.834  1.00 35.99 LIG-0.65  OA
ENDBRANCH 57 58
ENDBRANCH 56 57
BRANCH 56 61
ATOM     61  N   ASP D 339      29.517  38.592  81.360  1.00 31.22 LIG-0.34  N 
ATOM     62  C   ASP D 338      30.476  37.713  81.647  1.00 32.92 LIG 0.26  C 
ATOM     63 O    ASP D 338      30.285  36.674  82.288  1.00 33.60 LIG-0.27  OA
ATOM     64 H    ASP D 339      29.621  39.230  80.794  1.00 31.22 LIG 0.16  HD
BRANCH 62 65
ATOM     65  CA  ASP D 338      31.862  38.050  81.098  1.00 33.82 LIG 0.41  C 
ATOM     66  N   ASP D 338      31.932  39.483  80.665  1.00 34.02 LIG 0.61  N 
BRANCH 65 67
ATOM     67  CB  ASP D 338      32.937  37.750  82.155  1.00 34.49 LIG 0.16  C 
BRANCH 67 68
ATOM     68  CG  ASP D 338      34.051  36.852  81.630  1.00 35.92 LIG 0.17  C 
ATOM     69 OD2  ASP D 338      35.222  37.098  81.982  1.00 39.23 LIG-0.65  OA
ATOM     70 OD1  ASP D 338      33.766  35.906  80.858  1.00 38.97 LIG-0.65  OA
ENDBRANCH 67 68
ENDBRANCH 65 67
ENDBRANCH 62 65
ENDBRANCH 56 61
ENDBRANCH 53 56
ENDBRANCH 40 52
ENDBRANCH 1 40
TORSDOF 27
ENDMDL
MODEL 3
USER: ADFR SOLUTION from run 82
USER: SCORE 22.925265 LL:  -5.272 LR: -19.292 RR:   0.000 FEB: -11.238
USER: RMSD 2.789822
USER: SEED 81
USER: STATUS no improvement in best in 5 clusters for 5 generations
USER: GENES 29
USER: genes 0 Translation |==|  0.53511 0.52069 0.55145
USER: genes 1 Rotation |==|  0.61492 0.44732 0.66066 0.95630
USER: genes 2 Torsion [C]-N--CA-[CB] |==|  0.48889
USER: genes 3 Torsion [N]-CA--C-[N] |==|  0.49372
USER: genes 4 Torsion [C]-N--CA-[C] |==|  0.63024
USER: genes 5 Torsion [N]-CA--C-[N] |==|  0.45467
USER: genes 6 Torsion [C]-N--CA-[C] |==|  0.59859
USER: genes 7 Torsion [N]-CA--C-[N] |==|  0.18530
USER: genes 8 Torsion [C]-N--CA-[C] |==|  0.70076
USER: genes 9 Torsion [N]-CA--C-[O] |==|  0.01971
USER: genes 10 Torsion [N]-CA--CB-[OG] |==|  0.10343
USER: genes 11 Torsion [CA]-CB--OG-[HG] |==|  0.35198
USER: genes 12 Torsion [N]-CA--CB-[CG] |==|  0.82165
USER: genes 13 Torsion [CA]-CB--CG-[CD2] |==|  0.81502
USER: genes 14 Torsion [N]-CA--CB-[CG] |==|  0.77791
USER: genes 15 Torsion [CA]-CB--CG-[CD2] |==|  0.17567
USER: genes 16 Torsion [N]-CA--CB-[OG1] |==|  0.99617
USER: genes 17 Torsion [CA]-CB--OG1-[HG1] |==|  0.12320
USER: genes 18 Torsion [N]-C--CA-[N] |==|  0.17907
USER: genes 19 Torsion [C]-CA--CB-[CG] |==|  0.37187
USER: genes 20 Torsion [CA]-CB--CG-[CD2] |==|  0.86183
USER: genes 21 Torsion [C]-CA--N-[C] |==|  0.76259
USER: genes 22 Torsion [N]-C--CA-[N] |==|  0.41095
USER: genes 23 Torsion [C]-CA--CB-[CG] |==|  0.55292
USER: genes 24 Torsion [CA]-CB--CG-[OD1] |==|  0.66729
USER: genes 25 Torsion [C]-CA--N-[C] |==|  0.75305
USER: genes 26 Torsion [N]-C--CA-[N] |==|  0.14717
USER: genes 27 Torsion [C]-CA--CB-[CG] |==|  0.39631
USER: genes 28 Torsion [CA]-CB--CG-[OD2] |==|  0.88725
ROOT
ATOM      1  C   TRP D 340      23.994  36.306  81.497  1.00 16.52 LIG 0.24  C 
ATOM      2 O    TRP D 340      22.868  36.178  81.984  1.00 16.60 LIG-0.27  OA
ATOM      3  N   THR D 341      24.207  36.761  80.269  1.00 13.22 LIG-0.34  N 
ATOM      4 H    THR D 341      24.994  36.858  79.936  1.00 13.22 LIG 0.16  HD
ENDROOT
BRANCH 3 5
ATOM      5  CA  THR D 341      23.140  37.143  79.356  1.00 12.53 LIG 0.20  C 
BRANCH 5 6
ATOM      6  C   THR D 341      22.249  35.940  79.053  1.00 12.10 LIG 0.24  C 
ATOM      7 O    THR D 341      22.483  34.836  79.541  1.00 10.92 LIG-0.27  OA
ATOM      8  N   HIS D 342      21.203  36.159  78.265  1.00 12.26 LIG-0.35  N 
ATOM      9 H    HIS D 342      20.997  36.927  77.937  1.00 12.26 LIG 0.16  HD
BRANCH 8 10
ATOM     10  CA  HIS D 342      20.301  35.076  77.887  1.00 12.78 LIG 0.18  C 
BRANCH 10 11
ATOM     11  C   HIS D 342      20.050  35.138  76.395  1.00 14.51 LIG 0.24  C 
ATOM     12  N   LEU D 343      19.533  34.052  75.828  1.00 15.48 LIG-0.35  N 
ATOM     13 H    LEU D 343      19.276  33.359  76.267  1.00 15.48 LIG 0.16  HD
ATOM     14 O    HIS D 342      20.313  36.175  75.760  1.00 16.02 LIG-0.27  OA
BRANCH 12 15
ATOM     15  CA  LEU D 343      19.353  33.947  74.378  1.00 16.72 LIG 0.18  C 
BRANCH 15 16
ATOM     16  C   LEU D 343      18.101  33.178  73.961  1.00 19.19 LIG 0.24  C 
ATOM     17  N   SER D 344      16.920  33.745  74.256  1.00 21.37 LIG-0.34  N 
ATOM     18 H    SER D 344      16.838  34.394  74.813  1.00 21.37 LIG 0.16  HD
ATOM     19 O    LEU D 343      18.205  32.110  73.381  1.00 19.56 LIG-0.27  OA
BRANCH 17 20
ATOM     20  CA  SER D 344      15.636  33.315  73.655  1.00 23.14 LIG 0.19  C 
BRANCH 20 21
ATOM     21  C   SER D 344      15.123  34.353  72.647  1.00 24.18 LIG 0.22  C 
ATOM     22 O    SER D 344      15.819  35.331  72.321  1.00 25.35 LIG-0.29  OA
ENDBRANCH 20 21
BRANCH 20 23
ATOM     23  CB  SER D 344      14.564  33.083  74.722  1.00 23.66 LIG 0.20  C 
BRANCH 23 24
ATOM     24 OG   SER D 344      14.667  34.042  75.776  1.00 25.03 LIG-0.40  OA
ATOM     25 HG   SER D 344      13.923  34.416  75.888  1.00 25.03 LIG 0.21  HD
ENDBRANCH 23 24
ENDBRANCH 20 23
ENDBRANCH 17 20
ENDBRANCH 15 16
BRANCH 15 26
ATOM     26  CB  LEU D 343      20.568  33.258  73.731  1.00 15.83 LIG 0.04  C 
BRANCH 26 27
ATOM     27  CG  LEU D 343      21.894  33.985  73.831  1.00 14.86 LIG-0.02  C 
ATOM     28  CD1 LEU D 343      23.020  33.079  73.358  1.00 12.95 LIG 0.01  C 
ATOM     29  CD2 LEU D 343      21.848  35.297  73.006  1.00 12.95 LIG 0.01  C 
ENDBRANCH 26 27
ENDBRANCH 15 26
ENDBRANCH 12 15
ENDBRANCH 10 11
BRANCH 10 30
ATOM     30  CB  HIS D 342      18.965  35.213  78.634  1.00 12.90 LIG 0.10  C 
BRANCH 30 31
ATOM     31  CG  HIS D 342      19.007  34.710  80.040  1.00 12.99 LIG 0.06  A 
ATOM     32  CD2 HIS D 342      19.729  35.138  81.104  1.00 12.88 LIG 0.14  A 
ATOM     33 NE2  HIS D 342      19.403  34.331  82.164  1.00 14.80 LIG-0.25  NA
ATOM     34  CE1 HIS D 342      18.519  33.435  81.771  1.00 13.21 LIG 0.23  A 
ATOM     35 ND1  HIS D 342      18.268  33.637  80.490  1.00 14.49 LIG-0.24  NA
ENDBRANCH 30 31
ENDBRANCH 10 30
ENDBRANCH 8 10
ENDBRANCH 5 6
BRANCH 5 36
ATOM     36  CB  THR D 341      23.724  37.723  78.047  1.00 12.70 LIG 0.15  C 
ATOM     37  CG2 THR D 341      23.193  39.143  77.771  1.00 14.15 LIG 0.04  C 
BRANCH 36 38
ATOM     38 OG1  THR D 341      25.155  37.741  78.139  1.00 14.08 LIG-0.39  OA
ATOM     39 HG1  THR D 341      25.423  37.013  78.460  1.00 14.08 LIG 0.21  HD
ENDBRANCH 36 38
ENDBRANCH 5 36
ENDBRANCH 3 5
BRANCH 1 40
ATOM     40  CA  TRP D 340      25.232  35.889  82.282  1.00 18.72 LIG 0.18  C 
BRANCH 40 41
ATOM     41  CB  TRP D 340      24.768  35.257  83.594  1.00 19.00 LIG 0.07  C 
BRANCH 41 42
ATOM     42  CG  TRP D 340      25.447  33.981  83.949  1.00 19.22 LIG-0.03  A 
ATOM     43  CD2 TRP D 340      25.622  32.851  83.097  1.00 20.18 LIG-0.00  A 
ATOM     44  CE3 TRP D 340      25.286  32.582  81.765  1.00 18.70 LIG 0.01  A 
ATOM     45  CE2 TRP D 340      26.279  31.855  83.854  1.00 18.84 LIG 0.04  A 
ATOM     46  CZ3 TRP D 340      25.611  31.336  81.233  1.00 20.55 LIG 0.00  A 
ATOM     47  CH2 TRP D 340      26.272  30.371  82.015  1.00 19.52 LIG 0.00  A 
ATOM     48  CZ2 TRP D 340      26.610  30.607  83.322  1.00 19.79 LIG 0.03  A 
ATOM     49  NE1 TRP D 340      26.496  32.362  85.110  1.00 21.77 LIG-0.36  N 
ATOM     50  CD1 TRP D 340      25.977  33.637  85.159  1.00 20.48 LIG 0.10  A 
ATOM     51 HE1  TRP D 340      26.889  31.954  85.756  1.00 21.77 LIG 0.17  HD
ENDBRANCH 41 42
ENDBRANCH 40 41
BRANCH 40 52
ATOM     52  N   TRP D 340      26.119  37.028  82.547  1.00 22.23 LIG-0.35  N 
ATOM     53  C   ASP D 339      27.039  37.443  81.677  1.00 26.49 LIG 0.24  C 
ATOM     54 O    ASP D 339      27.218  36.910  80.569  1.00 27.22 LIG-0.27  OA
ATOM     55 H    TRP D 340      25.989  37.399  83.311  1.00 22.23 LIG 0.16  HD
BRANCH 53 56
ATOM     56  CA  ASP D 339      27.895  38.638  82.111  1.00 29.46 LIG 0.19  C 
BRANCH 56 57
ATOM     57  CB  ASP D 339      27.231  39.936  81.645  1.00 30.27 LIG 0.15  C 
BRANCH 57 58
ATOM     58  CG  ASP D 339      28.195  41.126  81.608  1.00 32.94 LIG 0.17  C 
ATOM     59 OD1  ASP D 339      27.930  42.113  82.327  1.00 36.53 LIG-0.65  OA
ATOM     60 OD2  ASP D 339      29.202  41.086  80.858  1.00 35.99 LIG-0.65  OA
ENDBRANCH 57 58
ENDBRANCH 56 57
BRANCH 56 61
ATOM     61  N   ASP D 339      29.241  38.553  81.551  1.00 31.22 LIG-0.34  N 
ATOM     62  C   ASP D 338      30.251  37.927  82.153  1.00 32.92 LIG 0.26  C 
ATOM     63 O    ASP D 338      30.112  37.179  83.127  1.00 33.60 LIG-0.27  OA
ATOM     64 H    ASP D 339      29.322  38.948  80.791  1.00 31.22 LIG 0.16  HD
BRANCH 62 65
ATOM     65  CA  ASP D 338      31.631  38.161  81.538  1.00 33.82 LIG 0.41  C 
ATOM     66  N   ASP D 338      31.916  39.627  81.410  1.00 34.02 LIG 0.61  N 
BRANCH 65 67
ATOM     67  CB  ASP D 338      32.712  37.471  82.384  1.00 34.49 LIG 0.16  C 
BRANCH 67 68
ATOM     68  CG  ASP D 338      33.828  36.864  81.541  1.00 35.92 LIG 0.17  C 
ATOM     69 OD2  ASP D 338      33.517  36.281  80.484  1.00 39.23 LIG-0.65  OA
ATOM     70 OD1  ASP D 338      35.015  36.956  81.934  1.00 38.97 LIG-0.65  OA
ENDBRANCH 67 68
ENDBRANCH 65 67
ENDBRANCH 62 65
ENDBRANCH 56 61
ENDBRANCH 53 56
ENDBRANCH 40 52
ENDBRANCH 1 40
TORSDOF 27
ENDMDL
MODEL 4
USER: ADFR SOLUTION from run 81
USER: SCORE 22.541842 LL:  -4.905 LR: -19.093 RR:   0.000 FEB: -11.039
USER: RMSD 3.156734
USER: SEED 80
USER: STATUS no improvement in best in 3 clusters for 5 generations
USER: GENES 29
USER: genes 0 Translation |==|  0.55451 0.53855 0.55665
USER: genes 1 Rotation |==|  0.47917 0.59476 0.47146 0.98966
USER: genes 2 Torsion [C]-N--CA-[CB] |==|  0.26457
USER: genes 3 Torsion [N]-CA--C-[N] |==|  0.36586
USER: genes 4 Torsion [C]-N--CA-[C] |==|  0.80411
USER: genes 5 Torsion [N]-CA--C-[N] |==|  0.42572
USER: genes 6 Torsion [C]-N--CA-[C] |==|  0.86111
USER: genes 7 Torsion [N]-CA--C-[N] |==|  0.35031
USER: genes 8 Torsion [C]-N--CA-[C] |==|  0.55139
USER: genes 9 Torsion [N]-CA--C-[O] |==|  0.34257
USER: genes 10 Torsion [N]-CA--CB-[OG] |==|  0.10854
USER: genes 11 Torsion [CA]-CB--OG-[HG] |==|  0.79149
USER: genes 12 Torsion [N]-CA--CB-[CG] |==|  0.73771
USER: genes 13 Torsion [CA]-CB--CG-[CD2] |==|  0.91177
USER: genes 14 Torsion [N]-CA--CB-[CG] |==|  0.80827
USER: genes 15 Torsion [CA]-CB--CG-[CD2] |==|  0.26751
USER: genes 16 Torsion [N]-CA--CB-[OG1] |==|  0.04277
USER: genes 17 Torsion [CA]-CB--OG1-[HG1] |==|  0.08569
USER: genes 18 Torsion [N]-C--CA-[N] |==|  0.38221
USER: genes 19 Torsion [C]-CA--CB-[CG] |==|  0.31807
USER: genes 20 Torsion [CA]-CB--CG-[CD2] |==|  0.34625
USER: genes 21 Torsion [C]-CA--N-[C] |==|  0.76201
USER: genes 22 Torsion [N]-C--CA-[N] |==|  0.38571
USER: genes 23 Torsion [C]-CA--CB-[CG] |==|  0.77751
USER: genes 24 Torsion [CA]-CB--CG-[OD1] |==|  0.54559
USER: genes 25 Torsion [C]-CA--N-[C] |==|  0.66821
USER: genes 26 Torsion [N]-C--CA-[N] |==|  0.28124
USER: genes 27 Torsion [C]-CA--CB-[CG] |==|  0.62802
USER: genes 28 Torsion [CA]-CB--CG-[OD2] |==|  0.83146
ROOT
ATOM      1  C   TRP D 340      24.533  36.655  81.638  1.00 16.52 LIG 0.24  C 
ATOM      2 O    TRP D 340      24.100  37.575  82.335  1.00 16.60 LIG-0.27  OA
ATOM      3  N   THR D 341      24.010  36.326  80.463  1.00 13.22 LIG-0.34  N 
ATOM      4 H    THR D 341      24.321  35.690  79.975  1.00 13.22 LIG 0.16  HD
ENDROOT
BRANCH 3 5
ATOM      5  CA  THR D 341      22.863  37.001  79.875  1.00 12.53 LIG 0.20  C 
BRANCH 5 6
ATOM      6  C   THR D 341      21.970  35.993  79.155  1.00 12.10 LIG 0.24  C 
ATOM      7 O    THR D 341      22.445  35.153  78.393  1.00 10.92 LIG-0.27  OA
ATOM      8  N   HIS D 342      20.671  36.056  79.420  1.00 12.26 LIG-0.35  N 
ATOM      9 H    HIS D 342      20.317  36.611  79.974  1.00 12.26 LIG 0.16  HD
BRANCH 8 10
ATOM     10  CA  HIS D 342      19.722  35.159  78.769  1.00 12.78 LIG 0.18  C 
BRANCH 10 11
ATOM     11  C   HIS D 342      19.598  35.544  77.310  1.00 14.51 LIG 0.24  C 
ATOM     12  N   LEU D 343      19.248  34.580  76.461  1.00 15.48 LIG-0.35  N 
ATOM     13 H    LEU D 343      19.028  33.786  76.705  1.00 15.48 LIG 0.16  HD
ATOM     14 O    HIS D 342      19.805  36.718  76.953  1.00 16.02 LIG-0.27  OA
BRANCH 12 15
ATOM     15  CA  LEU D 343      19.209  34.800  75.014  1.00 16.72 LIG 0.18  C 
BRANCH 15 16
ATOM     16  C   LEU D 343      18.433  36.047  74.596  1.00 19.19 LIG 0.24  C 
ATOM     17  N   SER D 344      19.079  36.923  73.809  1.00 21.37 LIG-0.34  N 
ATOM     18 H    SER D 344      19.931  36.911  73.694  1.00 21.37 LIG 0.16  HD
ATOM     19 O    LEU D 343      17.282  36.203  74.967  1.00 19.56 LIG-0.27  OA
BRANCH 17 20
ATOM     20  CA  SER D 344      18.396  38.001  73.056  1.00 23.14 LIG 0.19  C 
BRANCH 20 21
ATOM     21  C   SER D 344      19.285  38.532  71.924  1.00 24.18 LIG 0.22  C 
ATOM     22 O    SER D 344      18.895  38.528  70.743  1.00 25.35 LIG-0.29  OA
ENDBRANCH 20 21
BRANCH 20 23
ATOM     23  CB  SER D 344      18.003  39.164  73.970  1.00 23.66 LIG 0.20  C 
BRANCH 23 24
ATOM     24 OG   SER D 344      19.018  39.426  74.940  1.00 25.03 LIG-0.40  OA
ATOM     25 HG   SER D 344      18.996  38.834  75.536  1.00 25.03 LIG 0.21  HD
ENDBRANCH 23 24
ENDBRANCH 20 23
ENDBRANCH 17 20
ENDBRANCH 15 16
BRANCH 15 26
ATOM     26  CB  LEU D 343      18.580  33.590  74.301  1.00 15.83 LIG 0.04  C 
BRANCH 26 27
ATOM     27  CG  LEU D 343      19.537  32.539  73.774  1.00 14.86 LIG-0.02  C 
ATOM     28  CD1 LEU D 343      18.899  31.790  72.615  1.00 12.95 LIG 0.01  C 
ATOM     29  CD2 LEU D 343      20.873  33.198  73.347  1.00 12.95 LIG 0.01  C 
ENDBRANCH 26 27
ENDBRANCH 15 26
ENDBRANCH 12 15
ENDBRANCH 10 11
BRANCH 10 30
ATOM     30  CB  HIS D 342      18.344  35.263  79.441  1.00 12.90 LIG 0.10  C 
BRANCH 30 31
ATOM     31  CG  HIS D 342      18.308  34.704  80.827  1.00 12.99 LIG 0.06  A 
ATOM     32  CD2 HIS D 342      18.430  35.324  82.026  1.00 12.88 LIG 0.14  A 
ATOM     33 NE2  HIS D 342      18.328  34.356  82.993  1.00 14.80 LIG-0.25  NA
ATOM     34  CE1 HIS D 342      18.155  33.183  82.415  1.00 13.21 LIG 0.23  A 
ATOM     35 ND1  HIS D 342      18.146  33.364  81.106  1.00 14.49 LIG-0.24  NA
ENDBRANCH 30 31
ENDBRANCH 10 30
ENDBRANCH 8 10
ENDBRANCH 5 6
BRANCH 5 36
ATOM     36  CB  THR D 341      23.324  38.106  78.896  1.00 12.70 LIG 0.15  C 
ATOM     37  CG2 THR D 341      23.112  39.512  79.489  1.00 14.15 LIG 0.04  C 
BRANCH 36 38
ATOM     38 OG1  THR D 341      24.709  37.908  78.582  1.00 14.08 LIG-0.39  OA
ATOM     39 HG1  THR D 341      24.887  37.088  78.610  1.00 14.08 LIG 0.21  HD
ENDBRANCH 36 38
ENDBRANCH 5 36
ENDBRANCH 3 5
BRANCH 1 40
ATOM     40  CA  TRP D 340      25.688  35.788  82.125  1.00 18.72 LIG 0.18  C 
BRANCH 40 41
ATOM     41  CB  TRP D 340      25.138  34.802  83.154  1.00 19.00 LIG 0.07  C 
BRANCH 41 42
ATOM     42  CG  TRP D 340      25.196  33.372  82.745  1.00 19.22 LIG-0.03  A 
ATOM     43  CD2 TRP D 340      25.816  32.311  83.467  1.00 20.18 LIG-0.00  A 
ATOM     44  CE3 TRP D 340      26.485  32.237  84.695  1.00 18.70 LIG 0.01  A 
ATOM     45  CE2 TRP D 340      25.666  31.137  82.695  1.00 18.84 LIG 0.04  A 
ATOM     46  CZ3 TRP D 340      26.984  31.005  85.110  1.00 20.55 LIG 0.00  A 
ATOM     47  CH2 TRP D 340      26.810  29.855  84.318  1.00 19.52 LIG 0.00  A 
ATOM     48  CZ2 TRP D 340      26.161  29.900  83.111  1.00 19.79 LIG 0.03  A 
ATOM     49  NE1 TRP D 340      24.981  31.473  81.556  1.00 21.77 LIG-0.36  N 
ATOM     50  CD1 TRP D 340      24.717  32.825  81.591  1.00 20.48 LIG 0.10  A 
ATOM     51 HE1  TRP D 340      24.754  30.933  80.927  1.00 21.77 LIG 0.17  HD
ENDBRANCH 41 42
ENDBRANCH 40 41
BRANCH 40 52
ATOM     52  N   TRP D 340      26.764  36.596  82.712  1.00 22.23 LIG-0.35  N 
ATOM     53  C   ASP D 339      27.733  37.146  81.982  1.00 26.49 LIG 0.24  C 
ATOM     54 O    ASP D 339      27.805  37.031  80.747  1.00 27.22 LIG-0.27  OA
ATOM     55 H    TRP D 340      26.709  36.680  83.566  1.00 22.23 LIG 0.16  HD
BRANCH 53 56
ATOM     56  CA  ASP D 339      28.791  37.948  82.749  1.00 29.46 LIG 0.19  C 
BRANCH 56 57
ATOM     57  CB  ASP D 339      28.479  39.442  82.633  1.00 30.27 LIG 0.15  C 
BRANCH 57 58
ATOM     58  CG  ASP D 339      28.939  40.051  81.305  1.00 32.94 LIG 0.17  C 
ATOM     59 OD1  ASP D 339      29.021  41.296  81.233  1.00 36.53 LIG-0.65  OA
ATOM     60 OD2  ASP D 339      29.203  39.298  80.335  1.00 35.99 LIG-0.65  OA
ENDBRANCH 57 58
ENDBRANCH 56 57
BRANCH 56 61
ATOM     61  N   ASP D 339      30.130  37.689  82.228  1.00 31.22 LIG-0.34  N 
ATOM     62  C   ASP D 338      31.117  37.171  82.957  1.00 32.92 LIG 0.26  C 
ATOM     63 O    ASP D 338      30.953  36.663  84.072  1.00 33.60 LIG-0.27  OA
ATOM     64 H    ASP D 339      30.222  37.903  81.400  1.00 31.22 LIG 0.16  HD
BRANCH 62 65
ATOM     65  CA  ASP D 338      32.502  37.210  82.312  1.00 33.82 LIG 0.41  C 
ATOM     66  N   ASP D 338      33.320  38.333  82.873  1.00 34.02 LIG 0.61  N 
BRANCH 65 67
ATOM     67  CB  ASP D 338      33.218  35.865  82.513  1.00 34.49 LIG 0.16  C 
BRANCH 67 68
ATOM     68  CG  ASP D 338      34.662  36.024  82.973  1.00 35.92 LIG 0.17  C 
ATOM     69 OD2  ASP D 338      35.454  36.639  82.231  1.00 39.23 LIG-0.65  OA
ATOM     70 OD1  ASP D 338      35.017  35.529  84.070  1.00 38.97 LIG-0.65  OA
ENDBRANCH 67 68
ENDBRANCH 65 67
ENDBRANCH 62 65
ENDBRANCH 56 61
ENDBRANCH 53 56
ENDBRANCH 40 52
ENDBRANCH 1 40
TORSDOF 27
ENDMDL
MODEL 5
USER: ADFR SOLUTION from run 68
USER: SCORE 22.632443 LL:  -5.010 LR: -19.035 RR:   0.000 FEB: -10.981
USER: RMSD 3.077991
USER: SEED 67
USER: STATUS no improvement in best in 6 clusters for 5 generations
USER: GENES 29
USER: genes 0 Translation |==|  0.54030 0.50493 0.55387
USER: genes 1 Rotation |==|  0.65289 0.47907 0.63600 0.95573
USER: genes 2 Torsion [C]-N--CA-[CB] |==|  0.48924
USER: genes 3 Torsion [N]-CA--C-[N] |==|  0.45309
USER: genes 4 Torsion [C]-N--CA-[C] |==|  0.68521
USER: genes 5 Torsion [N]-CA--C-[N] |==|  0.43478
USER: genes 6 Torsion [C]-N--CA-[C] |==|  0.71783
USER: genes 7 Torsion [N]-CA--C-[N] |==|  0.91075
USER: genes 8 Torsion [C]-N--CA-[C] |==|  0.53518
USER: genes 9 Torsion [N]-CA--C-[O] |==|  0.95802
USER: genes 10 Torsion [N]-CA--CB-[OG] |==|  0.23730
USER: genes 11 Torsion [CA]-CB--OG-[HG] |==|  0.54444
USER: genes 12 Torsion [N]-CA--CB-[CG] |==|  0.75848
USER: genes 13 Torsion [CA]-CB--CG-[CD2] |==|  0.11333
USER: genes 14 Torsion [N]-CA--CB-[CG] |==|  0.73893
USER: genes 15 Torsion [CA]-CB--CG-[CD2] |==|  0.28041
USER: genes 16 Torsion [N]-CA--CB-[OG1] |==|  0.03505
USER: genes 17 Torsion [CA]-CB--OG1-[HG1] |==|  0.09670
USER: genes 18 Torsion [N]-C--CA-[N] |==|  0.21474
USER: genes 19 Torsion [C]-CA--CB-[CG] |==|  0.28627
USER: genes 20 Torsion [CA]-CB--CG-[CD2] |==|  0.37862
USER: genes 21 Torsion [C]-CA--N-[C] |==|  0.75978
USER: genes 22 Torsion [N]-C--CA-[N] |==|  0.37872
USER: genes 23 Torsion [C]-CA--CB-[CG] |==|  0.56716
USER: genes 24 Torsion [CA]-CB--CG-[OD1] |==|  0.32666
USER: genes 25 Torsion [C]-CA--N-[C] |==|  0.70824
USER: genes 26 Torsion [N]-C--CA-[N] |==|  0.20737
USER: genes 27 Torsion [C]-CA--CB-[CG] |==|  0.39521
USER: genes 28 Torsion [CA]-CB--CG-[OD2] |==|  0.37346
ROOT
ATOM      1  C   TRP D 340      24.138  35.999  81.562  1.00 16.52 LIG 0.24  C 
ATOM      2 O    TRP D 340      23.116  35.855  82.236  1.00 16.60 LIG-0.27  OA
ATOM      3  N   THR D 341      24.146  36.581  80.371  1.00 13.22 LIG-0.34  N 
ATOM      4 H    THR D 341      24.862  36.689  79.907  1.00 13.22 LIG 0.16  HD
ENDROOT
BRANCH 3 5
ATOM      5  CA  THR D 341      22.952  37.099  79.719  1.00 12.53 LIG 0.20  C 
BRANCH 5 6
ATOM      6  C   THR D 341      21.955  35.968  79.469  1.00 12.10 LIG 0.24  C 
ATOM      7 O    THR D 341      22.301  34.790  79.536  1.00 10.92 LIG-0.27  OA
ATOM      8  N   HIS D 342      20.705  36.327  79.207  1.00 12.26 LIG-0.35  N 
ATOM      9 H    HIS D 342      20.429  37.142  79.187  1.00 12.26 LIG 0.16  HD
BRANCH 8 10
ATOM     10  CA  HIS D 342      19.676  35.331  78.925  1.00 12.78 LIG 0.18  C 
BRANCH 10 11
ATOM     11  C   HIS D 342      19.231  35.472  77.485  1.00 14.51 LIG 0.24  C 
ATOM     12  N   LEU D 343      18.687  34.400  76.916  1.00 15.48 LIG-0.35  N 
ATOM     13 H    LEU D 343      18.517  33.669  77.337  1.00 15.48 LIG 0.16  HD
ATOM     14 O    HIS D 342      19.368  36.558  76.892  1.00 16.02 LIG-0.27  OA
BRANCH 12 15
ATOM     15  CA  LEU D 343      18.325  34.375  75.497  1.00 16.72 LIG 0.18  C 
BRANCH 15 16
ATOM     16  C   LEU D 343      16.834  34.570  75.233  1.00 19.19 LIG 0.24  C 
ATOM     17  N   SER D 344      15.989  34.091  76.161  1.00 21.37 LIG-0.34  N 
ATOM     18 H    SER D 344      16.230  33.537  76.772  1.00 21.37 LIG 0.16  HD
ATOM     19 O    LEU D 343      16.463  35.144  74.223  1.00 19.56 LIG-0.27  OA
BRANCH 17 20
ATOM     20  CA  SER D 344      14.558  34.467  76.233  1.00 23.14 LIG 0.19  C 
BRANCH 20 21
ATOM     21  C   SER D 344      13.936  34.016  77.562  1.00 24.18 LIG 0.22  C 
ATOM     22 O    SER D 344      14.509  33.190  78.293  1.00 25.35 LIG-0.29  OA
ENDBRANCH 20 21
BRANCH 20 23
ATOM     23  CB  SER D 344      13.759  33.861  75.077  1.00 23.66 LIG 0.20  C 
BRANCH 23 24
ATOM     24 OG   SER D 344      13.331  32.533  75.383  1.00 25.03 LIG-0.40  OA
ATOM     25 HG   SER D 344      13.093  32.145  74.676  1.00 25.03 LIG 0.21  HD
ENDBRANCH 23 24
ENDBRANCH 20 23
ENDBRANCH 17 20
ENDBRANCH 15 16
BRANCH 15 26
ATOM     26  CB  LEU D 343      18.750  33.043  74.854  1.00 15.83 LIG 0.04  C 
BRANCH 26 27
ATOM     27  CG  LEU D 343      20.166  32.969  74.317  1.00 14.86 LIG-0.02  C 
ATOM     28  CD1 LEU D 343      20.230  33.594  72.933  1.00 12.95 LIG 0.01  C 
ATOM     29  CD2 LEU D 343      21.145  33.671  75.293  1.00 12.95 LIG 0.01  C 
ENDBRANCH 26 27
ENDBRANCH 15 26
ENDBRANCH 12 15
ENDBRANCH 10 11
BRANCH 10 30
ATOM     30  CB  HIS D 342      18.468  35.537  79.853  1.00 12.90 LIG 0.10  C 
BRANCH 30 31
ATOM     31  CG  HIS D 342      18.514  34.705  81.093  1.00 12.99 LIG 0.06  A 
ATOM     32  CD2 HIS D 342      18.865  35.035  82.359  1.00 12.88 LIG 0.14  A 
ATOM     33 NE2  HIS D 342      18.737  33.902  83.123  1.00 14.80 LIG-0.25  NA
ATOM     34  CE1 HIS D 342      18.328  32.909  82.358  1.00 13.21 LIG 0.23  A 
ATOM     35 ND1  HIS D 342      18.192  33.365  81.126  1.00 14.49 LIG-0.24  NA
ENDBRANCH 30 31
ENDBRANCH 10 30
ENDBRANCH 8 10
ENDBRANCH 5 6
BRANCH 5 36
ATOM     36  CB  THR D 341      23.316  37.800  78.389  1.00 12.70 LIG 0.15  C 
ATOM     37  CG2 THR D 341      23.142  39.327  78.489  1.00 14.15 LIG 0.04  C 
BRANCH 36 38
ATOM     38 OG1  THR D 341      24.670  37.478  78.046  1.00 14.08 LIG-0.39  OA
ATOM     39 HG1  THR D 341      24.841  36.692  78.286  1.00 14.08 LIG 0.21  HD
ENDBRANCH 36 38
ENDBRANCH 5 36
ENDBRANCH 3 5
BRANCH 1 40
ATOM     40  CA  TRP D 340      25.475  35.455  82.053  1.00 18.72 LIG 0.18  C 
BRANCH 40 41
ATOM     41  CB  TRP D 340      25.194  34.439  83.159  1.00 19.00 LIG 0.07  C 
BRANCH 41 42
ATOM     42  CG  TRP D 340      25.316  33.014  82.747  1.00 19.22 LIG-0.03  A 
ATOM     43  CD2 TRP D 340      25.952  31.972  83.483  1.00 20.18 LIG-0.00  A 
ATOM     44  CE3 TRP D 340      26.587  31.917  84.730  1.00 18.70 LIG 0.01  A 
ATOM     45  CE2 TRP D 340      25.868  30.797  82.703  1.00 18.84 LIG 0.04  A 
ATOM     46  CZ3 TRP D 340      27.117  30.701  85.156  1.00 20.55 LIG 0.00  A 
ATOM     47  CH2 TRP D 340      27.009  29.549  84.354  1.00 19.52 LIG 0.00  A 
ATOM     48  CZ2 TRP D 340      26.395  29.577  83.129  1.00 19.79 LIG 0.03  A 
ATOM     49  NE1 TRP D 340      25.206  31.114  81.544  1.00 21.77 LIG-0.36  N 
ATOM     50  CD1 TRP D 340      24.892  32.455  81.576  1.00 20.48 LIG 0.10  A 
ATOM     51 HE1  TRP D 340      25.018  30.568  80.907  1.00 21.77 LIG 0.17  HD
ENDBRANCH 41 42
ENDBRANCH 40 41
BRANCH 40 52
ATOM     52  N   TRP D 340      26.349  36.524  82.548  1.00 22.23 LIG-0.35  N 
ATOM     53  C   ASP D 339      27.158  37.222  81.752  1.00 26.49 LIG 0.24  C 
ATOM     54 O    ASP D 339      27.235  37.034  80.525  1.00 27.22 LIG-0.27  OA
ATOM     55 H    TRP D 340      26.291  36.656  83.395  1.00 22.23 LIG 0.16  HD
BRANCH 53 56
ATOM     56  CA  ASP D 339      28.019  38.295  82.427  1.00 29.46 LIG 0.19  C 
BRANCH 56 57
ATOM     57  CB  ASP D 339      27.410  39.675  82.166  1.00 30.27 LIG 0.15  C 
BRANCH 57 58
ATOM     58  CG  ASP D 339      28.433  40.811  82.261  1.00 32.94 LIG 0.17  C 
ATOM     59 OD1  ASP D 339      28.648  41.488  81.233  1.00 36.53 LIG-0.65  OA
ATOM     60 OD2  ASP D 339      29.029  41.021  83.347  1.00 35.99 LIG-0.65  OA
ENDBRANCH 57 58
ENDBRANCH 56 57
BRANCH 56 61
ATOM     61  N   ASP D 339      29.389  38.265  81.925  1.00 31.22 LIG-0.34  N 
ATOM     62  C   ASP D 338      30.416  37.771  82.614  1.00 32.92 LIG 0.26  C 
ATOM     63 O    ASP D 338      30.292  37.101  83.645  1.00 33.60 LIG-0.27  OA
ATOM     64 H    ASP D 339      29.472  38.599  81.137  1.00 31.22 LIG 0.16  HD
BRANCH 62 65
ATOM     65  CA  ASP D 338      31.800  38.057  82.030  1.00 33.82 LIG 0.41  C 
ATOM     66  N   ASP D 338      32.194  39.483  82.264  1.00 34.02 LIG 0.61  N 
BRANCH 65 67
ATOM     67  CB  ASP D 338      32.839  37.101  82.636  1.00 34.49 LIG 0.16  C 
BRANCH 67 68
ATOM     68  CG  ASP D 338      33.885  36.643  81.627  1.00 35.92 LIG 0.17  C 
ATOM     69 OD2  ASP D 338      35.083  36.656  81.971  1.00 39.23 LIG-0.65  OA
ATOM     70 OD1  ASP D 338      33.519  36.280  80.483  1.00 38.97 LIG-0.65  OA
ENDBRANCH 67 68
ENDBRANCH 65 67
ENDBRANCH 62 65
ENDBRANCH 56 61
ENDBRANCH 53 56
ENDBRANCH 40 52
ENDBRANCH 1 40
TORSDOF 27
ENDMDL
MODEL 6
USER: ADFR SOLUTION from run 130
USER: SCORE 23.197417 LL:  -5.916 LR: -18.728 RR:   0.000 FEB: -10.674
USER: RMSD 2.732547
USER: SEED 129
USER: STATUS no improvement in best in 5 clusters for 5 generations
USER: GENES 29
USER: genes 0 Translation |==|  0.54517 0.50636 0.55309
USER: genes 1 Rotation |==|  0.67495 0.45682 0.65865 0.93859
USER: genes 2 Torsion [C]-N--CA-[CB] |==|  0.49711
USER: genes 3 Torsion [N]-CA--C-[N] |==|  0.46768
USER: genes 4 Torsion [C]-N--CA-[C] |==|  0.70136
USER: genes 5 Torsion [N]-CA--C-[N] |==|  0.43266
USER: genes 6 Torsion [C]-N--CA-[C] |==|  0.64256
USER: genes 7 Torsion [N]-CA--C-[N] |==|  0.27784
USER: genes 8 Torsion [C]-N--CA-[C] |==|  0.51346
USER: genes 9 Torsion [N]-CA--C-[O] |==|  0.07619
USER: genes 10 Torsion [N]-CA--CB-[OG] |==|  0.16249
USER: genes 11 Torsion [CA]-CB--OG-[HG] |==|  0.77684
USER: genes 12 Torsion [N]-CA--CB-[CG] |==|  0.64267
USER: genes 13 Torsion [CA]-CB--CG-[CD2] |==|  0.42152
USER: genes 14 Torsion [N]-CA--CB-[CG] |==|  0.45428
USER: genes 15 Torsion [CA]-CB--CG-[CD2] |==|  0.71080
USER: genes 16 Torsion [N]-CA--CB-[OG1] |==|  0.04232
USER: genes 17 Torsion [CA]-CB--OG1-[HG1] |==|  0.06804
USER: genes 18 Torsion [N]-C--CA-[N] |==|  0.19043
USER: genes 19 Torsion [C]-CA--CB-[CG] |==|  0.27371
USER: genes 20 Torsion [CA]-CB--CG-[CD2] |==|  0.37458
USER: genes 21 Torsion [C]-CA--N-[C] |==|  0.75295
USER: genes 22 Torsion [N]-C--CA-[N] |==|  0.31296
USER: genes 23 Torsion [C]-CA--CB-[CG] |==|  0.51886
USER: genes 24 Torsion [CA]-CB--CG-[OD1] |==|  0.96444
USER: genes 25 Torsion [C]-CA--N-[C] |==|  0.72961
USER: genes 26 Torsion [N]-C--CA-[N] |==|  0.36845
USER: genes 27 Torsion [C]-CA--CB-[CG] |==|  0.73260
USER: genes 28 Torsion [CA]-CB--CG-[OD2] |==|  0.79009
ROOT
ATOM      1  C   TRP D 340      24.273  36.027  81.541  1.00 16.52 LIG 0.24  C 
ATOM      2 O    TRP D 340      23.214  35.727  82.097  1.00 16.60 LIG-0.27  OA
ATOM      3  N   THR D 341      24.331  36.752  80.432  1.00 13.22 LIG-0.34  N 
ATOM      4 H    THR D 341      25.072  36.968  80.053  1.00 13.22 LIG 0.16  HD
ENDROOT
BRANCH 3 5
ATOM      5  CA  THR D 341      23.156  37.260  79.740  1.00 12.53 LIG 0.20  C 
BRANCH 5 6
ATOM      6  C   THR D 341      22.246  36.104  79.328  1.00 12.10 LIG 0.24  C 
ATOM      7 O    THR D 341      22.622  34.936  79.417  1.00 10.92 LIG-0.27  OA
ATOM      8  N   HIS D 342      21.031  36.428  78.903  1.00 12.26 LIG-0.35  N 
ATOM      9 H    HIS D 342      20.732  37.233  78.863  1.00 12.26 LIG 0.16  HD
BRANCH 8 10
ATOM     10  CA  HIS D 342      20.088  35.406  78.459  1.00 12.78 LIG 0.18  C 
BRANCH 10 11
ATOM     11  C   HIS D 342      19.953  35.478  76.953  1.00 14.51 LIG 0.24  C 
ATOM     12  N   LEU D 343      19.559  34.370  76.331  1.00 15.48 LIG-0.35  N 
ATOM     13 H    LEU D 343      19.318  33.652  76.739  1.00 15.48 LIG 0.16  HD
ATOM     14 O    HIS D 342      20.191  36.543  76.354  1.00 16.02 LIG-0.27  OA
BRANCH 12 15
ATOM     15  CA  LEU D 343      19.503  34.280  74.870  1.00 16.72 LIG 0.18  C 
BRANCH 15 16
ATOM     16  C   LEU D 343      18.167  33.775  74.330  1.00 19.19 LIG 0.24  C 
ATOM     17  N   SER D 344      17.313  34.703  73.869  1.00 21.37 LIG-0.34  N 
ATOM     18 H    SER D 344      17.399  35.542  74.034  1.00 21.37 LIG 0.16  HD
ATOM     19 O    LEU D 343      17.923  32.579  74.324  1.00 19.56 LIG-0.27  OA
BRANCH 17 20
ATOM     20  CA  SER D 344      16.135  34.383  73.029  1.00 23.14 LIG 0.19  C 
BRANCH 20 21
ATOM     21  C   SER D 344      15.426  35.661  72.563  1.00 24.18 LIG 0.22  C 
ATOM     22 O    SER D 344      16.047  36.730  72.431  1.00 25.35 LIG-0.29  OA
ENDBRANCH 20 21
BRANCH 20 23
ATOM     23  CB  SER D 344      15.133  33.500  73.777  1.00 23.66 LIG 0.20  C 
BRANCH 23 24
ATOM     24 OG   SER D 344      14.681  34.132  74.976  1.00 25.03 LIG-0.40  OA
ATOM     25 HG   SER D 344      15.255  34.030  75.580  1.00 25.03 LIG 0.21  HD
ENDBRANCH 23 24
ENDBRANCH 20 23
ENDBRANCH 17 20
ENDBRANCH 15 16
BRANCH 15 26
ATOM     26  CB  LEU D 343      20.609  33.349  74.343  1.00 15.83 LIG 0.04  C 
BRANCH 26 27
ATOM     27  CG  LEU D 343      21.492  33.899  73.241  1.00 14.86 LIG-0.02  C 
ATOM     28  CD1 LEU D 343      21.591  35.412  73.362  1.00 12.95 LIG 0.01  C 
ATOM     29  CD2 LEU D 343      22.895  33.241  73.301  1.00 12.95 LIG 0.01  C 
ENDBRANCH 26 27
ENDBRANCH 15 26
ENDBRANCH 12 15
ENDBRANCH 10 11
BRANCH 10 30
ATOM     30  CB  HIS D 342      18.714  35.635  79.106  1.00 12.90 LIG 0.10  C 
BRANCH 30 31
ATOM     31  CG  HIS D 342      17.602  34.898  78.432  1.00 12.99 LIG 0.06  A 
ATOM     32  CD2 HIS D 342      16.632  35.346  77.599  1.00 12.88 LIG 0.14  A 
ATOM     33 NE2  HIS D 342      15.858  34.264  77.263  1.00 14.80 LIG-0.25  NA
ATOM     34  CE1 HIS D 342      16.326  33.191  77.869  1.00 13.21 LIG 0.23  A 
ATOM     35 ND1  HIS D 342      17.375  33.547  78.588  1.00 14.49 LIG-0.24  NA
ENDBRANCH 30 31
ENDBRANCH 10 30
ENDBRANCH 8 10
ENDBRANCH 5 6
BRANCH 5 36
ATOM     36  CB  THR D 341      23.569  38.087  78.499  1.00 12.70 LIG 0.15  C 
ATOM     37  CG2 THR D 341      23.361  39.595  78.732  1.00 14.15 LIG 0.04  C 
BRANCH 36 38
ATOM     38 OG1  THR D 341      24.944  37.819  78.194  1.00 14.08 LIG-0.39  OA
ATOM     39 HG1  THR D 341      25.156  37.066  78.497  1.00 14.08 LIG 0.21  HD
ENDBRANCH 36 38
ENDBRANCH 5 36
ENDBRANCH 3 5
BRANCH 1 40
ATOM     40  CA  TRP D 340      25.605  35.523  82.085  1.00 18.72 LIG 0.18  C 
BRANCH 40 41
ATOM     41  CB  TRP D 340      25.311  34.513  83.193  1.00 19.00 LIG 0.07  C 
BRANCH 41 42
ATOM     42  CG  TRP D 340      25.382  33.086  82.775  1.00 19.22 LIG-0.03  A 
ATOM     43  CD2 TRP D 340      26.023  32.028  83.484  1.00 20.18 LIG-0.00  A 
ATOM     44  CE3 TRP D 340      26.707  31.955  84.703  1.00 18.70 LIG 0.01  A 
ATOM     45  CE2 TRP D 340      25.879  30.857  82.706  1.00 18.84 LIG 0.04  A 
ATOM     46  CZ3 TRP D 340      27.225  30.727  85.105  1.00 20.55 LIG 0.00  A 
ATOM     47  CH2 TRP D 340      27.056  29.579  84.308  1.00 19.52 LIG 0.00  A 
ATOM     48  CZ2 TRP D 340      26.393  29.624  83.109  1.00 19.79 LIG 0.03  A 
ATOM     49  NE1 TRP D 340      25.177  31.192  81.577  1.00 21.77 LIG-0.36  N 
ATOM     50  CD1 TRP D 340      24.897  32.540  81.622  1.00 20.48 LIG 0.10  A 
ATOM     51 HE1  TRP D 340      24.950  30.652  80.947  1.00 21.77 LIG 0.17  HD
ENDBRANCH 41 42
ENDBRANCH 40 41
BRANCH 40 52
ATOM     52  N   TRP D 340      26.434  36.621  82.598  1.00 22.23 LIG-0.35  N 
ATOM     53  C   ASP D 339      27.287  37.299  81.832  1.00 26.49 LIG 0.24  C 
ATOM     54 O    ASP D 339      27.448  37.068  80.621  1.00 27.22 LIG-0.27  OA
ATOM     55 H    TRP D 340      26.317  36.783  83.434  1.00 22.23 LIG 0.16  HD
BRANCH 53 56
ATOM     56  CA  ASP D 339      28.090  38.407  82.523  1.00 29.46 LIG 0.19  C 
BRANCH 56 57
ATOM     57  CB  ASP D 339      27.908  39.720  81.758  1.00 30.27 LIG 0.15  C 
BRANCH 57 58
ATOM     58  CG  ASP D 339      28.804  40.848  82.278  1.00 32.94 LIG 0.17  C 
ATOM     59 OD1  ASP D 339      29.378  40.678  83.375  1.00 36.53 LIG-0.65  OA
ATOM     60 OD2  ASP D 339      28.926  41.904  81.608  1.00 35.99 LIG-0.65  OA
ENDBRANCH 57 58
ENDBRANCH 56 57
BRANCH 56 61
ATOM     61  N   ASP D 339      29.510  38.071  82.582  1.00 31.22 LIG-0.34  N 
ATOM     62  C   ASP D 338      30.095  37.532  83.649  1.00 32.92 LIG 0.26  C 
ATOM     63 O    ASP D 338      29.474  37.066  84.611  1.00 33.60 LIG-0.27  OA
ATOM     64 H    ASP D 339      29.935  38.256  81.858  1.00 31.22 LIG 0.16  HD
BRANCH 62 65
ATOM     65  CA  ASP D 338      31.623  37.488  83.610  1.00 33.82 LIG 0.41  C 
ATOM     66  N   ASP D 338      32.204  37.986  84.898  1.00 34.02 LIG 0.61  N 
BRANCH 65 67
ATOM     67  CB  ASP D 338      32.105  36.058  83.316  1.00 34.49 LIG 0.16  C 
BRANCH 67 68
ATOM     68  CG  ASP D 338      32.463  35.281  84.576  1.00 35.92 LIG 0.17  C 
ATOM     69 OD2  ASP D 338      33.538  35.549  85.149  1.00 39.23 LIG-0.65  OA
ATOM     70 OD1  ASP D 338      31.682  34.393  84.995  1.00 38.97 LIG-0.65  OA
ENDBRANCH 67 68
ENDBRANCH 65 67
ENDBRANCH 62 65
ENDBRANCH 56 61
ENDBRANCH 53 56
ENDBRANCH 40 52
ENDBRANCH 1 40
TORSDOF 27
ENDMDL
MODEL 7
USER: ADFR SOLUTION from run 11
USER: SCORE 21.366510 LL:  -4.971 LR: -18.732 RR:   0.000 FEB: -10.678
USER: RMSD 3.139155
USER: SEED 701280
USER: STATUS no improvement in best in 4 clusters for 5 generations
USER: GENES 29
USER: genes 0 Translation |==|  0.53573 0.51927 0.54378
USER: genes 1 Rotation |==|  0.46316 0.56326 0.44168 0.99116
USER: genes 2 Torsion [C]-N--CA-[CB] |==|  0.27558
USER: genes 3 Torsion [N]-CA--C-[N] |==|  0.32548
USER: genes 4 Torsion [C]-N--CA-[C] |==|  0.81159
USER: genes 5 Torsion [N]-CA--C-[N] |==|  0.39848
USER: genes 6 Torsion [C]-N--CA-[C] |==|  0.66778
USER: genes 7 Torsion [N]-CA--C-[N] |==|  0.27568
USER: genes 8 Torsion [C]-N--CA-[C] |==|  0.52916
USER: genes 9 Torsion [N]-CA--C-[O] |==|  0.33065
USER: genes 10 Torsion [N]-CA--CB-[OG] |==|  0.76655
USER: genes 11 Torsion [CA]-CB--OG-[HG] |==|  0.12060
USER: genes 12 Torsion [N]-CA--CB-[CG] |==|  0.79381
USER: genes 13 Torsion [CA]-CB--CG-[CD2] |==|  0.81418
USER: genes 14 Torsion [N]-CA--CB-[CG] |==|  0.82604
USER: genes 15 Torsion [CA]-CB--CG-[CD2] |==|  0.30717
USER: genes 16 Torsion [N]-CA--CB-[OG1] |==|  0.98603
USER: genes 17 Torsion [CA]-CB--OG1-[HG1] |==|  0.98144
USER: genes 18 Torsion [N]-C--CA-[N] |==|  0.45412
USER: genes 19 Torsion [C]-CA--CB-[CG] |==|  0.39247
USER: genes 20 Torsion [CA]-CB--CG-[CD2] |==|  0.28981
USER: genes 21 Torsion [C]-CA--N-[C] |==|  0.78679
USER: genes 22 Torsion [N]-C--CA-[N] |==|  0.66971
USER: genes 23 Torsion [C]-CA--CB-[CG] |==|  0.29141
USER: genes 24 Torsion [CA]-CB--CG-[OD1] |==|  0.64675
USER: genes 25 Torsion [C]-CA--N-[C] |==|  0.64452
USER: genes 26 Torsion [N]-C--CA-[N] |==|  0.27355
USER: genes 27 Torsion [C]-CA--CB-[CG] |==|  0.20026
USER: genes 28 Torsion [CA]-CB--CG-[OD2] |==|  0.57214
ROOT
ATOM      1  C   TRP D 340      24.011  36.279  81.290  1.00 16.52 LIG 0.24  C 
ATOM      2 O    TRP D 340      23.596  37.300  81.844  1.00 16.60 LIG-0.27  OA
ATOM      3  N   THR D 341      23.604  35.887  80.090  1.00 13.22 LIG-0.34  N 
ATOM      4 H    THR D 341      23.902  35.179  79.703  1.00 13.22 LIG 0.16  HD
ENDROOT
BRANCH 3 5
ATOM      5  CA  THR D 341      22.612  36.604  79.302  1.00 12.53 LIG 0.20  C 
BRANCH 5 6
ATOM      6  C   THR D 341      21.651  35.619  78.640  1.00 12.10 LIG 0.24  C 
ATOM      7 O    THR D 341      22.055  34.780  77.836  1.00 10.92 LIG-0.27  OA
ATOM      8  N   HIS D 342      20.376  35.701  79.000  1.00 12.26 LIG-0.35  N 
ATOM      9 H    HIS D 342      20.073  36.255  79.584  1.00 12.26 LIG 0.16  HD
BRANCH 8 10
ATOM     10  CA  HIS D 342      19.367  34.827  78.411  1.00 12.78 LIG 0.18  C 
BRANCH 10 11
ATOM     11  C   HIS D 342      19.192  35.187  76.951  1.00 14.51 LIG 0.24  C 
ATOM     12  N   LEU D 343      18.966  34.184  76.107  1.00 15.48 LIG-0.35  N 
ATOM     13 H    LEU D 343      18.849  33.368  76.354  1.00 15.48 LIG 0.16  HD
ATOM     14 O    HIS D 342      19.246  36.377  76.589  1.00 16.02 LIG-0.27  OA
BRANCH 12 15
ATOM     15  CA  LEU D 343      18.896  34.390  74.659  1.00 16.72 LIG 0.18  C 
BRANCH 15 16
ATOM     16  C   LEU D 343      17.555  34.001  74.040  1.00 19.19 LIG 0.24  C 
ATOM     17  N   SER D 344      16.689  34.999  73.798  1.00 21.37 LIG-0.34  N 
ATOM     18 H    SER D 344      16.774  35.785  74.138  1.00 21.37 LIG 0.16  HD
ATOM     19 O    LEU D 343      17.318  32.833  73.781  1.00 19.56 LIG-0.27  OA
BRANCH 17 20
ATOM     20  CA  SER D 344      15.502  34.856  72.924  1.00 23.14 LIG 0.19  C 
BRANCH 20 21
ATOM     21  C   SER D 344      14.860  36.221  72.638  1.00 24.18 LIG 0.22  C 
ATOM     22 O    SER D 344      14.772  36.659  71.477  1.00 25.35 LIG-0.29  OA
ENDBRANCH 20 21
BRANCH 20 23
ATOM     23  CB  SER D 344      14.453  33.932  73.547  1.00 23.66 LIG 0.20  C 
BRANCH 23 24
ATOM     24 OG   SER D 344      14.743  32.560  73.273  1.00 25.03 LIG-0.40  OA
ATOM     25 HG   SER D 344      15.564  32.420  73.381  1.00 25.03 LIG 0.21  HD
ENDBRANCH 23 24
ENDBRANCH 20 23
ENDBRANCH 17 20
ENDBRANCH 15 16
BRANCH 15 26
ATOM     26  CB  LEU D 343      19.997  33.588  73.944  1.00 15.83 LIG 0.04  C 
BRANCH 26 27
ATOM     27  CG  LEU D 343      21.410  34.123  74.059  1.00 14.86 LIG-0.02  C 
ATOM     28  CD1 LEU D 343      22.397  33.104  73.512  1.00 12.95 LIG 0.01  C 
ATOM     29  CD2 LEU D 343      21.532  35.476  73.311  1.00 12.95 LIG 0.01  C 
ENDBRANCH 26 27
ENDBRANCH 15 26
ENDBRANCH 12 15
ENDBRANCH 10 11
BRANCH 10 30
ATOM     30  CB  HIS D 342      18.026  34.996  79.141  1.00 12.90 LIG 0.10  C 
BRANCH 30 31
ATOM     31  CG  HIS D 342      18.073  34.607  80.583  1.00 12.99 LIG 0.06  A 
ATOM     32  CD2 HIS D 342      17.992  35.370  81.700  1.00 12.88 LIG 0.14  A 
ATOM     33 NE2  HIS D 342      18.093  34.523  82.775  1.00 14.80 LIG-0.25  NA
ATOM     34  CE1 HIS D 342      18.237  33.287  82.341  1.00 13.21 LIG 0.23  A 
ATOM     35 ND1  HIS D 342      18.235  33.310  81.020  1.00 14.49 LIG-0.24  NA
ENDBRANCH 30 31
ENDBRANCH 10 30
ENDBRANCH 8 10
ENDBRANCH 5 6
BRANCH 5 36
ATOM     36  CB  THR D 341      23.300  37.486  78.234  1.00 12.70 LIG 0.15  C 
ATOM     37  CG2 THR D 341      22.820  38.948  78.313  1.00 14.15 LIG 0.04  C 
BRANCH 36 38
ATOM     38 OG1  THR D 341      24.720  37.422  78.416  1.00 14.08 LIG-0.39  OA
ATOM     39 HG1  THR D 341      24.894  36.996  79.118  1.00 14.08 LIG 0.21  HD
ENDBRANCH 36 38
ENDBRANCH 5 36
ENDBRANCH 3 5
BRANCH 1 40
ATOM     40  CA  TRP D 340      25.003  35.361  81.996  1.00 18.72 LIG 0.18  C 
BRANCH 40 41
ATOM     41  CB  TRP D 340      24.237  34.142  82.507  1.00 19.00 LIG 0.07  C 
BRANCH 41 42
ATOM     42  CG  TRP D 340      24.964  32.849  82.386  1.00 19.22 LIG-0.03  A 
ATOM     43  CD2 TRP D 340      25.591  32.129  83.445  1.00 20.18 LIG-0.00  A 
ATOM     44  CE3 TRP D 340      25.705  32.341  84.824  1.00 18.70 LIG 0.01  A 
ATOM     45  CE2 TRP D 340      26.191  30.984  82.874  1.00 18.84 LIG 0.04  A 
ATOM     46  CZ3 TRP D 340      26.412  31.413  85.585  1.00 20.55 LIG 0.00  A 
ATOM     47  CH2 TRP D 340      26.990  30.280  84.983  1.00 19.52 LIG 0.00  A 
ATOM     48  CZ2 TRP D 340      26.896  30.051  83.635  1.00 19.79 LIG 0.03  A 
ATOM     49  NE1 TRP D 340      25.934  31.009  81.527  1.00 21.77 LIG-0.36  N 
ATOM     50  CD1 TRP D 340      25.208  32.144  81.243  1.00 20.48 LIG 0.10  A 
ATOM     51 HE1  TRP D 340      26.184  30.416  80.956  1.00 21.77 LIG 0.17  HD
ENDBRANCH 41 42
ENDBRANCH 40 41
BRANCH 40 52
ATOM     52  N   TRP D 340      25.681  36.042  83.104  1.00 22.23 LIG-0.35  N 
ATOM     53  C   ASP D 339      26.669  36.917  82.917  1.00 26.49 LIG 0.24  C 
ATOM     54 O    ASP D 339      27.093  37.236  81.793  1.00 27.22 LIG-0.27  OA
ATOM     55 H    TRP D 340      25.383  35.825  83.881  1.00 22.23 LIG 0.16  HD
BRANCH 53 56
ATOM     56  CA  ASP D 339      27.284  37.530  84.180  1.00 29.46 LIG 0.19  C 
BRANCH 56 57
ATOM     57  CB  ASP D 339      26.616  36.924  85.417  1.00 30.27 LIG 0.15  C 
BRANCH 57 58
ATOM     58  CG  ASP D 339      27.501  35.903  86.139  1.00 32.94 LIG 0.17  C 
ATOM     59 OD1  ASP D 339      27.019  34.774  86.368  1.00 36.53 LIG-0.65  OA
ATOM     60 OD2  ASP D 339      28.663  36.227  86.491  1.00 35.99 LIG-0.65  OA
ENDBRANCH 57 58
ENDBRANCH 56 57
BRANCH 56 61
ATOM     61  N   ASP D 339      27.114  38.980  84.199  1.00 31.22 LIG-0.34  N 
ATOM     62  C   ASP D 338      28.116  39.837  84.391  1.00 32.92 LIG 0.26  C 
ATOM     63 O    ASP D 338      29.309  39.515  84.361  1.00 33.60 LIG-0.27  OA
ATOM     64 H    ASP D 339      26.302  39.232  84.073  1.00 31.22 LIG 0.16  HD
BRANCH 62 65
ATOM     65  CA  ASP D 338      27.705  41.290  84.627  1.00 33.82 LIG 0.41  C 
ATOM     66  N   ASP D 338      27.701  41.612  86.091  1.00 34.02 LIG 0.61  N 
BRANCH 65 67
ATOM     67  CB  ASP D 338      28.644  42.237  83.865  1.00 34.49 LIG 0.16  C 
BRANCH 67 68
ATOM     68  CG  ASP D 338      28.421  42.209  82.358  1.00 35.92 LIG 0.17  C 
ATOM     69 OD2  ASP D 338      29.375  42.513  81.615  1.00 39.23 LIG-0.65  OA
ATOM     70 OD1  ASP D 338      27.293  41.893  81.909  1.00 38.97 LIG-0.65  OA
ENDBRANCH 67 68
ENDBRANCH 65 67
ENDBRANCH 62 65
ENDBRANCH 56 61
ENDBRANCH 53 56
ENDBRANCH 40 52
ENDBRANCH 1 40
TORSDOF 27
ENDMDL
MODEL 8
USER: ADFR SOLUTION from run 72
USER: SCORE 21.751028 LL:  -4.923 LR: -18.597 RR:   0.000 FEB: -10.543
USER: RMSD 2.630726
USER: SEED 71
USER: STATUS searching
USER: GENES 29
USER: genes 0 Translation |==|  0.54845 0.54541 0.54259
USER: genes 1 Rotation |==|  0.42216 0.59153 0.41863 0.97848
USER: genes 2 Torsion [C]-N--CA-[CB] |==|  0.26214
USER: genes 3 Torsion [N]-CA--C-[N] |==|  0.30359
USER: genes 4 Torsion [C]-N--CA-[C] |==|  0.81717
USER: genes 5 Torsion [N]-CA--C-[N] |==|  0.40734
USER: genes 6 Torsion [C]-N--CA-[C] |==|  0.65537
USER: genes 7 Torsion [N]-CA--C-[N] |==|  0.46926
USER: genes 8 Torsion [C]-N--CA-[C] |==|  0.81268
USER: genes 9 Torsion [N]-CA--C-[O] |==|  0.95310
USER: genes 10 Torsion [N]-CA--CB-[OG] |==|  0.97881
USER: genes 11 Torsion [CA]-CB--OG-[HG] |==|  0.69453
USER: genes 12 Torsion [N]-CA--CB-[CG] |==|  0.82888
USER: genes 13 Torsion [CA]-CB--CG-[CD2] |==|  0.87627
USER: genes 14 Torsion [N]-CA--CB-[CG] |==|  0.78115
USER: genes 15 Torsion [CA]-CB--CG-[CD2] |==|  0.28104
USER: genes 16 Torsion [N]-CA--CB-[OG1] |==|  0.01457
USER: genes 17 Torsion [CA]-CB--OG1-[HG1] |==|  0.95655
USER: genes 18 Torsion [N]-C--CA-[N] |==|  0.37863
USER: genes 19 Torsion [C]-CA--CB-[CG] |==|  0.43239
USER: genes 20 Torsion [CA]-CB--CG-[CD2] |==|  0.85634
USER: genes 21 Torsion [C]-CA--N-[C] |==|  0.82202
USER: genes 22 Torsion [N]-C--CA-[N] |==|  0.27364
USER: genes 23 Torsion [C]-CA--CB-[CG] |==|  0.77566
USER: genes 24 Torsion [CA]-CB--CG-[OD1] |==|  0.54216
USER: genes 25 Torsion [C]-CA--N-[C] |==|  0.60208
USER: genes 26 Torsion [N]-C--CA-[N] |==|  0.21637
USER: genes 27 Torsion [C]-CA--CB-[CG] |==|  0.19621
USER: genes 28 Torsion [CA]-CB--CG-[OD2] |==|  0.68953
ROOT
ATOM      1  C   TRP D 340      24.365  36.789  81.258  1.00 16.52 LIG 0.24  C 
ATOM      2 O    TRP D 340      24.104  37.918  81.679  1.00 16.60 LIG-0.27  OA
ATOM      3  N   THR D 341      23.770  36.253  80.200  1.00 13.22 LIG-0.34  N 
ATOM      4 H    THR D 341      23.961  35.469  79.903  1.00 13.22 LIG 0.16  HD
ENDROOT
BRANCH 3 5
ATOM      5  CA  THR D 341      22.736  36.928  79.429  1.00 12.53 LIG 0.20  C 
BRANCH 5 6
ATOM      6  C   THR D 341      21.685  35.923  78.962  1.00 12.10 LIG 0.24  C 
ATOM      7 O    THR D 341      21.950  35.076  78.110  1.00 10.92 LIG-0.27  OA
ATOM      8  N   HIS D 342      20.494  35.997  79.543  1.00 12.26 LIG-0.35  N 
ATOM      9 H    HIS D 342      20.293  36.556  80.164  1.00 12.26 LIG 0.16  HD
BRANCH 8 10
ATOM     10  CA  HIS D 342      19.407  35.103  79.155  1.00 12.78 LIG 0.18  C 
BRANCH 10 11
ATOM     11  C   HIS D 342      19.003  35.406  77.728  1.00 14.51 LIG 0.24  C 
ATOM     12  N   LEU D 343      18.588  34.380  76.990  1.00 15.48 LIG-0.35  N 
ATOM     13 H    LEU D 343      18.476  33.585  77.297  1.00 15.48 LIG 0.16  HD
ATOM     14 O    HIS D 342      19.053  36.573  77.298  1.00 16.02 LIG-0.27  OA
BRANCH 12 15
ATOM     15  CA  LEU D 343      18.281  34.525  75.565  1.00 16.72 LIG 0.18  C 
BRANCH 15 16
ATOM     16  C   LEU D 343      16.870  34.083  75.185  1.00 19.19 LIG 0.24  C 
ATOM     17  N   SER D 344      16.450  34.401  73.950  1.00 21.37 LIG-0.34  N 
ATOM     18 H    SER D 344      16.846  34.982  73.455  1.00 21.37 LIG 0.16  HD
ATOM     19 O    LEU D 343      16.188  33.464  75.985  1.00 19.56 LIG-0.27  OA
BRANCH 17 20
ATOM     20  CA  SER D 344      15.265  33.787  73.308  1.00 23.14 LIG 0.19  C 
BRANCH 20 21
ATOM     21  C   SER D 344      15.505  32.300  73.011  1.00 24.18 LIG 0.22  C 
ATOM     22 O    SER D 344      16.654  31.823  73.006  1.00 25.35 LIG-0.29  OA
ENDBRANCH 20 21
BRANCH 20 23
ATOM     23  CB  SER D 344      14.896  34.502  72.006  1.00 23.66 LIG 0.20  C 
BRANCH 23 24
ATOM     24 OG   SER D 344      15.676  35.686  71.826  1.00 25.03 LIG-0.40  OA
ATOM     25 HG   SER D 344      15.186  36.362  71.920  1.00 25.03 LIG 0.21  HD
ENDBRANCH 23 24
ENDBRANCH 20 23
ENDBRANCH 17 20
ENDBRANCH 15 16
BRANCH 15 26
ATOM     26  CB  LEU D 343      19.276  33.716  74.713  1.00 15.83 LIG 0.04  C 
BRANCH 26 27
ATOM     27  CG  LEU D 343      20.735  34.112  74.814  1.00 14.86 LIG-0.02  C 
ATOM     28  CD1 LEU D 343      21.532  33.447  73.702  1.00 12.95 LIG 0.01  C 
ATOM     29  CD2 LEU D 343      20.876  35.655  74.756  1.00 12.95 LIG 0.01  C 
ENDBRANCH 26 27
ENDBRANCH 15 26
ENDBRANCH 12 15
ENDBRANCH 10 11
BRANCH 10 30
ATOM     30  CB  HIS D 342      18.197  35.304  80.081  1.00 12.90 LIG 0.10  C 
BRANCH 30 31
ATOM     31  CG  HIS D 342      18.335  34.629  81.406  1.00 12.99 LIG 0.06  A 
ATOM     32  CD2 HIS D 342      18.666  35.135  82.618  1.00 12.88 LIG 0.14  A 
ATOM     33 NE2  HIS D 342      18.655  34.091  83.509  1.00 14.80 LIG-0.25  NA
ATOM     34  CE1 HIS D 342      18.337  32.982  82.872  1.00 13.21 LIG 0.23  A 
ATOM     35 ND1  HIS D 342      18.145  33.277  81.598  1.00 14.49 LIG-0.24  NA
ENDBRANCH 30 31
ENDBRANCH 10 30
ENDBRANCH 8 10
ENDBRANCH 5 6
BRANCH 5 36
ATOM     36  CB  THR D 341      23.352  37.665  78.217  1.00 12.70 LIG 0.15  C 
ATOM     37  CG2 THR D 341      23.147  39.188  78.317  1.00 14.15 LIG 0.04  C 
BRANCH 36 38
ATOM     38 OG1  THR D 341      24.751  37.360  78.145  1.00 14.08 LIG-0.39  OA
ATOM     39 HG1  THR D 341      25.004  37.028  78.874  1.00 14.08 LIG 0.21  HD
ENDBRANCH 36 38
ENDBRANCH 5 36
ENDBRANCH 3 5
BRANCH 1 40
ATOM     40  CA  TRP D 340      25.373  35.904  81.981  1.00 18.72 LIG 0.18  C 
BRANCH 40 41
ATOM     41  CB  TRP D 340      24.702  35.352  83.238  1.00 19.00 LIG 0.07  C 
BRANCH 41 42
ATOM     42  CG  TRP D 340      25.279  34.079  83.749  1.00 19.22 LIG-0.03  A 
ATOM     43  CD2 TRP D 340      25.503  32.890  82.996  1.00 20.18 LIG-0.00  A 
ATOM     44  CE3 TRP D 340      25.314  32.545  81.652  1.00 18.70 LIG 0.01  A 
ATOM     45  CE2 TRP D 340      26.024  31.923  83.885  1.00 18.84 LIG 0.04  A 
ATOM     46  CZ3 TRP D 340      25.644  31.256  81.240  1.00 20.55 LIG 0.00  A 
ATOM     47  CH2 TRP D 340      26.168  30.322  82.153  1.00 19.52 LIG 0.00  A 
ATOM     48  CZ2 TRP D 340      26.361  30.632  83.475  1.00 19.79 LIG 0.03  A 
ATOM     49  NE1 TRP D 340      26.115  32.505  85.124  1.00 21.77 LIG-0.36  N 
ATOM     50  CD1 TRP D 340      25.649  33.798  85.032  1.00 20.48 LIG 0.10  A 
ATOM     51 HE1  TRP D 340      26.412  32.127  85.837  1.00 21.77 LIG 0.17  HD
ENDBRANCH 41 42
ENDBRANCH 40 41
BRANCH 40 52
ATOM     52  N   TRP D 340      26.592  36.642  82.332  1.00 22.23 LIG-0.35  N 
ATOM     53  C   ASP D 339      27.414  37.154  81.417  1.00 26.49 LIG 0.24  C 
ATOM     54 O    ASP D 339      27.216  37.059  80.193  1.00 27.22 LIG-0.27  OA
ATOM     55 H    TRP D 340      26.724  36.713  83.178  1.00 22.23 LIG 0.16  HD
BRANCH 53 56
ATOM     56  CA  ASP D 339      28.652  37.885  81.948  1.00 29.46 LIG 0.19  C 
BRANCH 56 57
ATOM     57  CB  ASP D 339      28.913  39.130  81.096  1.00 30.27 LIG 0.15  C 
BRANCH 57 58
ATOM     58  CG  ASP D 339      29.641  38.820  79.784  1.00 32.94 LIG 0.17  C 
ATOM     59 OD1  ASP D 339      30.153  39.775  79.163  1.00 36.53 LIG-0.65  OA
ATOM     60 OD2  ASP D 339      29.690  37.636  79.366  1.00 35.99 LIG-0.65  OA
ENDBRANCH 57 58
ENDBRANCH 56 57
BRANCH 56 61
ATOM     61  N   ASP D 339      29.829  37.020  81.916  1.00 31.22 LIG-0.34  N 
ATOM     62  C   ASP D 338      30.776  37.031  82.852  1.00 32.92 LIG 0.26  C 
ATOM     63 O    ASP D 338      30.661  37.609  83.938  1.00 33.60 LIG-0.27  OA
ATOM     64 H    ASP D 339      29.852  36.499  81.233  1.00 31.22 LIG 0.16  HD
BRANCH 62 65
ATOM     65  CA  ASP D 338      32.042  36.243  82.516  1.00 33.82 LIG 0.41  C 
ATOM     66  N   ASP D 338      32.916  37.011  81.572  1.00 34.02 LIG 0.61  N 
BRANCH 65 67
ATOM     67  CB  ASP D 338      32.808  35.897  83.803  1.00 34.49 LIG 0.16  C 
BRANCH 67 68
ATOM     68  CG  ASP D 338      32.099  34.848  84.652  1.00 35.92 LIG 0.17  C 
ATOM     69 OD2  ASP D 338      31.626  35.200  85.751  1.00 39.23 LIG-0.65  OA
ATOM     70 OD1  ASP D 338      32.020  33.668  84.233  1.00 38.97 LIG-0.65  OA
ENDBRANCH 67 68
ENDBRANCH 65 67
ENDBRANCH 62 65
ENDBRANCH 56 61
ENDBRANCH 53 56
ENDBRANCH 40 52
ENDBRANCH 1 40
TORSDOF 27
ENDMDL
MODEL 9
USER: ADFR SOLUTION from run 30
USER: SCORE 22.429002 LL:  -5.412 LR: -18.552 RR:   0.000 FEB: -10.497
USER: RMSD 3.125433
USER: SEED 29
USER: STATUS no improvement in best in 6 clusters for 5 generations
USER: GENES 29
USER: genes 0 Translation |==|  0.54568 0.54453 0.54470
USER: genes 1 Rotation |==|  0.43650 0.58131 0.43328 0.98467
USER: genes 2 Torsion [C]-N--CA-[CB] |==|  0.24994
USER: genes 3 Torsion [N]-CA--C-[N] |==|  0.32215
USER: genes 4 Torsion [C]-N--CA-[C] |==|  0.80808
USER: genes 5 Torsion [N]-CA--C-[N] |==|  0.44443
USER: genes 6 Torsion [C]-N--CA-[C] |==|  0.87773
USER: genes 7 Torsion [N]-CA--C-[N] |==|  0.33518
USER: genes 8 Torsion [C]-N--CA-[C] |==|  0.53982
USER: genes 9 Torsion [N]-CA--C-[O] |==|  0.84604
USER: genes 10 Torsion [N]-CA--CB-[OG] |==|  0.06816
USER: genes 11 Torsion [CA]-CB--OG-[HG] |==|  0.85795
USER: genes 12 Torsion [N]-CA--CB-[CG] |==|  0.76387
USER: genes 13 Torsion [CA]-CB--CG-[CD2] |==|  0.86220
USER: genes 14 Torsion [N]-CA--CB-[CG] |==|  0.82466
USER: genes 15 Torsion [CA]-CB--CG-[CD2] |==|  0.23539
USER: genes 16 Torsion [N]-CA--CB-[OG1] |==|  0.06993
USER: genes 17 Torsion [CA]-CB--OG1-[HG1] |==|  0.92582
USER: genes 18 Torsion [N]-C--CA-[N] |==|  0.36776
USER: genes 19 Torsion [C]-CA--CB-[CG] |==|  0.43286
USER: genes 20 Torsion [CA]-CB--CG-[CD2] |==|  0.84806
USER: genes 21 Torsion [C]-CA--N-[C] |==|  0.84288
USER: genes 22 Torsion [N]-C--CA-[N] |==|  0.96346
USER: genes 23 Torsion [C]-CA--CB-[CG] |==|  0.22850
USER: genes 24 Torsion [CA]-CB--CG-[OD1] |==|  0.42622
USER: genes 25 Torsion [C]-CA--N-[C] |==|  0.80308
USER: genes 26 Torsion [N]-C--CA-[N] |==|  0.64208
USER: genes 27 Torsion [C]-CA--CB-[CG] |==|  0.78616
USER: genes 28 Torsion [CA]-CB--CG-[OD2] |==|  0.55272
ROOT
ATOM      1  C   TRP D 340      24.288  36.771  81.315  1.00 16.52 LIG 0.24  C 
ATOM      2 O    TRP D 340      23.945  37.856  81.792  1.00 16.60 LIG-0.27  OA
ATOM      3  N   THR D 341      23.770  36.273  80.200  1.00 13.22 LIG-0.34  N 
ATOM      4 H    THR D 341      24.018  35.521  79.864  1.00 13.22 LIG 0.16  HD
ENDROOT
BRANCH 3 5
ATOM      5  CA  THR D 341      22.732  36.939  79.426  1.00 12.53 LIG 0.20  C 
BRANCH 5 6
ATOM      6  C   THR D 341      21.825  35.905  78.761  1.00 12.10 LIG 0.24  C 
ATOM      7 O    THR D 341      22.266  35.113  77.930  1.00 10.92 LIG-0.27  OA
ATOM      8  N   HIS D 342      20.556  35.893  79.149  1.00 12.26 LIG-0.35  N 
ATOM      9 H    HIS D 342      20.229  36.412  79.752  1.00 12.26 LIG 0.16  HD
BRANCH 8 10
ATOM     10  CA  HIS D 342      19.595  34.965  78.561  1.00 12.78 LIG 0.18  C 
BRANCH 10 11
ATOM     11  C   HIS D 342      19.339  35.363  77.123  1.00 14.51 LIG 0.24  C 
ATOM     12  N   LEU D 343      18.831  34.430  76.322  1.00 15.48 LIG-0.35  N 
ATOM     13 H    LEU D 343      18.582  33.653  76.592  1.00 15.48 LIG 0.16  HD
ATOM     14 O    HIS D 342      19.590  36.521  76.740  1.00 16.02 LIG-0.27  OA
BRANCH 12 15
ATOM     15  CA  LEU D 343      18.649  34.657  74.887  1.00 16.72 LIG 0.18  C 
BRANCH 15 16
ATOM     16  C   LEU D 343      18.054  36.021  74.544  1.00 19.19 LIG 0.24  C 
ATOM     17  N   SER D 344      18.792  36.820  73.755  1.00 21.37 LIG-0.34  N 
ATOM     18 H    SER D 344      19.627  36.684  73.601  1.00 21.37 LIG 0.16  HD
ATOM     19 O    LEU D 343      16.956  36.334  74.973  1.00 19.56 LIG-0.27  OA
BRANCH 17 20
ATOM     20  CA  SER D 344      18.249  38.015  73.069  1.00 23.14 LIG 0.19  C 
BRANCH 20 21
ATOM     21  C   SER D 344      19.212  38.511  71.981  1.00 24.18 LIG 0.22  C 
ATOM     22 O    SER D 344      20.395  38.788  72.246  1.00 25.35 LIG-0.29  OA
ENDBRANCH 20 21
BRANCH 20 23
ATOM     23  CB  SER D 344      17.979  39.155  74.053  1.00 23.66 LIG 0.20  C 
BRANCH 23 24
ATOM     24 OG   SER D 344      18.794  39.036  75.221  1.00 25.03 LIG-0.40  OA
ATOM     25 HG   SER D 344      18.720  38.261  75.536  1.00 25.03 LIG 0.21  HD
ENDBRANCH 23 24
ENDBRANCH 20 23
ENDBRANCH 17 20
ENDBRANCH 15 16
BRANCH 15 26
ATOM     26  CB  LEU D 343      17.735  33.577  74.280  1.00 15.83 LIG 0.04  C 
BRANCH 26 27
ATOM     27  CG  LEU D 343      18.401  32.282  73.860  1.00 14.86 LIG-0.02  C 
ATOM     28  CD1 LEU D 343      17.406  31.404  73.117  1.00 12.95 LIG 0.01  C 
ATOM     29  CD2 LEU D 343      19.646  32.579  72.986  1.00 12.95 LIG 0.01  C 
ENDBRANCH 26 27
ENDBRANCH 15 26
ENDBRANCH 12 15
ENDBRANCH 10 11
BRANCH 10 30
ATOM     30  CB  HIS D 342      18.272  35.004  79.342  1.00 12.90 LIG 0.10  C 
BRANCH 30 31
ATOM     31  CG  HIS D 342      18.399  34.557  80.762  1.00 12.99 LIG 0.06  A 
ATOM     32  CD2 HIS D 342      18.764  35.247  81.870  1.00 12.88 LIG 0.14  A 
ATOM     33 NE2  HIS D 342      18.723  34.370  82.924  1.00 14.80 LIG-0.25  NA
ATOM     34  CE1 HIS D 342      18.353  33.183  82.486  1.00 13.21 LIG 0.23  A 
ATOM     35 ND1  HIS D 342      18.158  33.266  81.182  1.00 14.49 LIG-0.24  NA
ENDBRANCH 30 31
ENDBRANCH 10 30
ENDBRANCH 8 10
ENDBRANCH 5 6
BRANCH 5 36
ATOM     36  CB  THR D 341      23.358  37.870  78.361  1.00 12.70 LIG 0.15  C 
ATOM     37  CG2 THR D 341      23.427  39.327  78.855  1.00 14.15 LIG 0.04  C 
BRANCH 36 38
ATOM     38 OG1  THR D 341      24.672  37.396  78.038  1.00 14.08 LIG-0.39  OA
ATOM     39 HG1  THR D 341      24.987  36.975  78.693  1.00 14.08 LIG 0.21  HD
ENDBRANCH 36 38
ENDBRANCH 5 36
ENDBRANCH 3 5
BRANCH 1 40
ATOM     40  CA  TRP D 340      25.314  35.898  82.027  1.00 18.72 LIG 0.18  C 
BRANCH 40 41
ATOM     41  CB  TRP D 340      24.651  35.310  83.271  1.00 19.00 LIG 0.07  C 
BRANCH 41 42
ATOM     42  CG  TRP D 340      25.258  34.044  83.766  1.00 19.22 LIG-0.03  A 
ATOM     43  CD2 TRP D 340      25.463  32.853  83.010  1.00 20.18 LIG-0.00  A 
ATOM     44  CE3 TRP D 340      25.225  32.500  81.676  1.00 18.70 LIG 0.01  A 
ATOM     45  CE2 TRP D 340      26.027  31.895  83.883  1.00 18.84 LIG 0.04  A 
ATOM     46  CZ3 TRP D 340      25.551  31.212  81.258  1.00 20.55 LIG 0.00  A 
ATOM     47  CH2 TRP D 340      26.118  30.287  82.154  1.00 19.52 LIG 0.00  A 
ATOM     48  CZ2 TRP D 340      26.359  30.605  83.465  1.00 19.79 LIG 0.03  A 
ATOM     49  NE1 TRP D 340      26.161  32.484  85.114  1.00 21.77 LIG-0.36  N 
ATOM     50  CD1 TRP D 340      25.680  33.772  85.035  1.00 20.48 LIG 0.10  A 
ATOM     51 HE1  TRP D 340      26.489  32.112  85.817  1.00 21.77 LIG 0.17  HD
ENDBRANCH 41 42
ENDBRANCH 40 41
BRANCH 40 52
ATOM     52  N   TRP D 340      26.513  36.659  82.397  1.00 22.23 LIG-0.35  N 
ATOM     53  C   ASP D 339      27.245  37.328  81.507  1.00 26.49 LIG 0.24  C 
ATOM     54 O    ASP D 339      26.973  37.372  80.295  1.00 27.22 LIG-0.27  OA
ATOM     55 H    TRP D 340      26.697  36.633  83.236  1.00 22.23 LIG 0.16  HD
BRANCH 53 56
ATOM     56  CA  ASP D 339      28.477  38.061  82.052  1.00 29.46 LIG 0.19  C 
BRANCH 56 57
ATOM     57  CB  ASP D 339      29.744  37.324  81.610  1.00 30.27 LIG 0.15  C 
BRANCH 57 58
ATOM     58  CG  ASP D 339      30.184  37.686  80.188  1.00 32.94 LIG 0.17  C 
ATOM     59 OD1  ASP D 339      31.397  37.575  79.908  1.00 36.53 LIG-0.65  OA
ATOM     60 OD2  ASP D 339      29.333  38.092  79.358  1.00 35.99 LIG-0.65  OA
ENDBRANCH 57 58
ENDBRANCH 56 57
BRANCH 56 61
ATOM     61  N   ASP D 339      28.443  38.137  83.510  1.00 31.22 LIG-0.34  N 
ATOM     62  C   ASP D 338      27.595  38.908  84.188  1.00 32.92 LIG 0.26  C 
ATOM     63 O    ASP D 338      26.619  39.468  83.677  1.00 33.60 LIG-0.27  OA
ATOM     64 H    ASP D 339      29.027  37.634  83.892  1.00 31.22 LIG 0.16  HD
BRANCH 62 65
ATOM     65  CA  ASP D 338      27.880  39.043  85.684  1.00 33.82 LIG 0.41  C 
ATOM     66  N   ASP D 338      26.651  38.748  86.490  1.00 34.02 LIG 0.61  N 
BRANCH 65 67
ATOM     67  CB  ASP D 338      29.031  38.110  86.090  1.00 34.49 LIG 0.16  C 
BRANCH 67 68
ATOM     68  CG  ASP D 338      28.601  36.653  86.210  1.00 35.92 LIG 0.17  C 
ATOM     69 OD2  ASP D 338      29.324  35.876  86.865  1.00 39.23 LIG-0.65  OA
ATOM     70 OD1  ASP D 338      27.548  36.274  85.644  1.00 38.97 LIG-0.65  OA
ENDBRANCH 67 68
ENDBRANCH 65 67
ENDBRANCH 62 65
ENDBRANCH 56 61
ENDBRANCH 53 56
ENDBRANCH 40 52
ENDBRANCH 1 40
TORSDOF 27
ENDMDL
MODEL 10
USER: ADFR SOLUTION from run 176
USER: SCORE 22.203965 LL:  -5.316 LR: -18.367 RR:   0.000 FEB: -10.313
USER: RMSD 3.211668
USER: SEED 175
USER: STATUS no improvement in best in 3 clusters for 5 generations
USER: GENES 29
USER: genes 0 Translation |==|  0.56078 0.56851 0.54163
USER: genes 1 Rotation |==|  0.39318 0.59972 0.41977 0.97139
USER: genes 2 Torsion [C]-N--CA-[CB] |==|  0.22503
USER: genes 3 Torsion [N]-CA--C-[N] |==|  0.34097
USER: genes 4 Torsion [C]-N--CA-[C] |==|  0.77469
USER: genes 5 Torsion [N]-CA--C-[N] |==|  0.42188
USER: genes 6 Torsion [C]-N--CA-[C] |==|  0.84952
USER: genes 7 Torsion [N]-CA--C-[N] |==|  0.34055
USER: genes 8 Torsion [C]-N--CA-[C] |==|  0.84769
USER: genes 9 Torsion [N]-CA--C-[O] |==|  0.82977
USER: genes 10 Torsion [N]-CA--CB-[OG] |==|  0.19524
USER: genes 11 Torsion [CA]-CB--OG-[HG] |==|  0.37921
USER: genes 12 Torsion [N]-CA--CB-[CG] |==|  0.75475
USER: genes 13 Torsion [CA]-CB--CG-[CD2] |==|  0.92738
USER: genes 14 Torsion [N]-CA--CB-[CG] |==|  0.42706
USER: genes 15 Torsion [CA]-CB--CG-[CD2] |==|  0.68888
USER: genes 16 Torsion [N]-CA--CB-[OG1] |==|  0.03953
USER: genes 17 Torsion [CA]-CB--OG1-[HG1] |==|  0.06734
USER: genes 18 Torsion [N]-C--CA-[N] |==|  0.38240
USER: genes 19 Torsion [C]-CA--CB-[CG] |==|  0.39805
USER: genes 20 Torsion [CA]-CB--CG-[CD2] |==|  0.86277
USER: genes 21 Torsion [C]-CA--N-[C] |==|  0.78383
USER: genes 22 Torsion [N]-C--CA-[N] |==|  0.34149
USER: genes 23 Torsion [C]-CA--CB-[CG] |==|  0.40535
USER: genes 24 Torsion [CA]-CB--CG-[OD1] |==|  0.62210
USER: genes 25 Torsion [C]-CA--N-[C] |==|  0.70686
USER: genes 26 Torsion [N]-C--CA-[N] |==|  0.17119
USER: genes 27 Torsion [C]-CA--CB-[CG] |==|  0.54661
USER: genes 28 Torsion [CA]-CB--CG-[OD2] |==|  0.50154
ROOT
ATOM      1  C   TRP D 340      24.707  37.239  81.232  1.00 16.52 LIG 0.24  C 
ATOM      2 O    TRP D 340      24.448  38.404  81.542  1.00 16.60 LIG-0.27  OA
ATOM      3  N   THR D 341      24.065  36.583  80.274  1.00 13.22 LIG-0.34  N 
ATOM      4 H    THR D 341      24.254  35.774  80.053  1.00 13.22 LIG 0.16  HD
ENDROOT
BRANCH 3 5
ATOM      5  CA  THR D 341      22.977  37.157  79.495  1.00 12.53 LIG 0.20  C 
BRANCH 5 6
ATOM      6  C   THR D 341      22.097  36.048  78.920  1.00 12.10 LIG 0.24  C 
ATOM      7 O    THR D 341      22.575  35.155  78.223  1.00 10.92 LIG-0.27  OA
ATOM      8  N   HIS D 342      20.810  36.088  79.239  1.00 12.26 LIG-0.35  N 
ATOM      9 H    HIS D 342      20.456  36.681  79.751  1.00 12.26 LIG 0.16  HD
BRANCH 8 10
ATOM     10  CA  HIS D 342      19.873  35.094  78.724  1.00 12.78 LIG 0.18  C 
BRANCH 10 11
ATOM     11  C   HIS D 342      19.468  35.478  77.317  1.00 14.51 LIG 0.24  C 
ATOM     12  N   LEU D 343      19.121  34.487  76.500  1.00 15.48 LIG-0.35  N 
ATOM     13 H    LEU D 343      19.051  33.666  76.746  1.00 15.48 LIG 0.16  HD
ATOM     14 O    HIS D 342      19.455  36.674  76.974  1.00 16.02 LIG-0.27  OA
BRANCH 12 15
ATOM     15  CA  LEU D 343      18.822  34.719  75.084  1.00 16.72 LIG 0.18  C 
BRANCH 15 16
ATOM     16  C   LEU D 343      17.754  35.783  74.841  1.00 19.19 LIG 0.24  C 
ATOM     17  N   SER D 344      18.106  36.827  74.072  1.00 21.37 LIG-0.34  N 
ATOM     18 H    SER D 344      18.923  37.012  73.880  1.00 21.37 LIG 0.16  HD
ATOM     19 O    LEU D 343      16.643  35.656  75.328  1.00 19.56 LIG-0.27  OA
BRANCH 17 20
ATOM     20  CA  SER D 344      17.130  37.766  73.475  1.00 23.14 LIG 0.19  C 
BRANCH 20 21
ATOM     21  C   SER D 344      16.078  37.016  72.646  1.00 24.18 LIG 0.22  C 
ATOM     22 O    SER D 344      16.403  36.337  71.656  1.00 25.35 LIG-0.29  OA
ENDBRANCH 20 21
BRANCH 20 23
ATOM     23  CB  SER D 344      17.818  38.804  72.586  1.00 23.66 LIG 0.20  C 
BRANCH 23 24
ATOM     24 OG   SER D 344      18.322  38.208  71.388  1.00 25.03 LIG-0.40  OA
ATOM     25 HG   SER D 344      18.145  38.703  70.733  1.00 25.03 LIG 0.21  HD
ENDBRANCH 23 24
ENDBRANCH 20 23
ENDBRANCH 17 20
ENDBRANCH 15 16
BRANCH 15 26
ATOM     26  CB  LEU D 343      18.354  33.417  74.410  1.00 15.83 LIG 0.04  C 
BRANCH 26 27
ATOM     27  CG  LEU D 343      19.435  32.527  73.829  1.00 14.86 LIG-0.02  C 
ATOM     28  CD1 LEU D 343      18.895  31.777  72.621  1.00 12.95 LIG 0.01  C 
ATOM     29  CD2 LEU D 343      20.678  33.373  73.452  1.00 12.95 LIG 0.01  C 
ENDBRANCH 26 27
ENDBRANCH 15 26
ENDBRANCH 12 15
ENDBRANCH 10 11
BRANCH 10 30
ATOM     30  CB  HIS D 342      18.623  35.031  79.615  1.00 12.90 LIG 0.10  C 
BRANCH 30 31
ATOM     31  CG  HIS D 342      17.398  34.559  78.900  1.00 12.99 LIG 0.06  A 
ATOM     32  CD2 HIS D 342      16.263  35.223  78.573  1.00 12.88 LIG 0.14  A 
ATOM     33 NE2  HIS D 342      15.446  34.332  77.925  1.00 14.80 LIG-0.25  NA
ATOM     34  CE1 HIS D 342      16.049  33.161  77.858  1.00 13.21 LIG 0.23  A 
ATOM     35 ND1  HIS D 342      17.227  33.269  78.446  1.00 14.49 LIG-0.24  NA
ENDBRANCH 30 31
ENDBRANCH 10 30
ENDBRANCH 8 10
ENDBRANCH 5 6
BRANCH 5 36
ATOM     36  CB  THR D 341      23.531  38.047  78.358  1.00 12.70 LIG 0.15  C 
ATOM     37  CG2 THR D 341      23.302  39.543  78.648  1.00 14.15 LIG 0.04  C 
BRANCH 36 38
ATOM     38 OG1  THR D 341      24.932  37.785  78.197  1.00 14.08 LIG-0.39  OA
ATOM     39 HG1  THR D 341      25.107  37.015  78.483  1.00 14.08 LIG 0.21  HD
ENDBRANCH 36 38
ENDBRANCH 5 36
ENDBRANCH 3 5
BRANCH 1 40
ATOM     40  CA  TRP D 340      25.770  36.451  81.988  1.00 18.72 LIG 0.18  C 
BRANCH 40 41
ATOM     41  CB  TRP D 340      25.168  36.003  83.319  1.00 19.00 LIG 0.07  C 
BRANCH 41 42
ATOM     42  CG  TRP D 340      25.596  34.653  83.777  1.00 19.22 LIG-0.03  A 
ATOM     43  CD2 TRP D 340      25.590  33.456  83.002  1.00 20.18 LIG-0.00  A 
ATOM     44  CE3 TRP D 340      25.251  33.164  81.676  1.00 18.70 LIG 0.01  A 
ATOM     45  CE2 TRP D 340      26.035  32.411  83.843  1.00 18.84 LIG 0.04  A 
ATOM     46  CZ3 TRP D 340      25.362  31.848  81.233  1.00 20.55 LIG 0.00  A 
ATOM     47  CH2 TRP D 340      25.816  30.834  82.097  1.00 19.52 LIG 0.00  A 
ATOM     48  CZ2 TRP D 340      26.152  31.093  83.401  1.00 19.79 LIG 0.03  A 
ATOM     49  NE1 TRP D 340      26.303  32.954  85.074  1.00 21.77 LIG-0.36  N 
ATOM     50  CD1 TRP D 340      26.020  34.302  85.026  1.00 20.48 LIG 0.10  A 
ATOM     51 HE1  TRP D 340      26.597  32.527  85.760  1.00 21.77 LIG 0.17  HD
ENDBRANCH 41 42
ENDBRANCH 40 41
BRANCH 40 52
ATOM     52  N   TRP D 340      26.980  37.250  82.215  1.00 22.23 LIG-0.35  N 
ATOM     53  C   ASP D 339      27.888  37.470  81.265  1.00 26.49 LIG 0.24  C 
ATOM     54 O    ASP D 339      27.784  37.028  80.108  1.00 27.22 LIG-0.27  OA
ATOM     55 H    TRP D 340      27.047  37.560  83.014  1.00 22.23 LIG 0.16  HD
BRANCH 53 56
ATOM     56  CA  ASP D 339      29.103  38.313  81.667  1.00 29.46 LIG 0.19  C 
BRANCH 56 57
ATOM     57  CB  ASP D 339      29.110  39.614  80.861  1.00 30.27 LIG 0.15  C 
BRANCH 57 58
ATOM     58  CG  ASP D 339      29.663  40.807  81.648  1.00 32.94 LIG 0.17  C 
ATOM     59 OD1  ASP D 339      29.048  41.891  81.570  1.00 36.53 LIG-0.65  OA
ATOM     60 OD2  ASP D 339      30.711  40.671  82.327  1.00 35.99 LIG-0.65  OA
ENDBRANCH 57 58
ENDBRANCH 56 57
BRANCH 56 61
ATOM     61  N   ASP D 339      30.349  37.589  81.431  1.00 31.22 LIG-0.34  N 
ATOM     62  C   ASP D 338      31.085  37.052  82.402  1.00 32.92 LIG 0.26  C 
ATOM     63 O    ASP D 338      30.694  36.922  83.567  1.00 33.60 LIG-0.27  OA
ATOM     64 H    ASP D 339      30.564  37.541  80.600  1.00 31.22 LIG 0.16  HD
BRANCH 62 65
ATOM     65  CA  ASP D 338      32.470  36.559  81.983  1.00 33.82 LIG 0.41  C 
ATOM     66  N   ASP D 338      33.306  37.691  81.468  1.00 34.02 LIG 0.61  N 
BRANCH 65 67
ATOM     67  CB  ASP D 338      33.166  35.865  83.165  1.00 34.49 LIG 0.16  C 
BRANCH 67 68
ATOM     68  CG  ASP D 338      34.668  35.713  82.962  1.00 35.92 LIG 0.17  C 
ATOM     69 OD2  ASP D 338      35.331  35.153  83.858  1.00 39.23 LIG-0.65  OA
ATOM     70 OD1  ASP D 338      35.197  36.160  81.916  1.00 38.97 LIG-0.65  OA
ENDBRANCH 67 68
ENDBRANCH 65 67
ENDBRANCH 62 65
ENDBRANCH 56 61
ENDBRANCH 53 56
ENDBRANCH 40 52
ENDBRANCH 1 40
TORSDOF 27
ENDMDL
MODEL 11
USER: ADFR SOLUTION from run 107
USER: SCORE 21.770370 LL:  -5.983 LR: -18.364 RR:   0.000 FEB: -10.310
USER: RMSD 4.228706
USER: SEED 106
USER: STATUS no improvement in best in 4 clusters for 5 generations
USER: GENES 29
USER: genes 0 Translation |==|  0.54267 0.52336 0.55676
USER: genes 1 Rotation |==|  0.49964 0.60198 0.53880 0.98795
USER: genes 2 Torsion [C]-N--CA-[CB] |==|  0.40868
USER: genes 3 Torsion [N]-CA--C-[N] |==|  0.29044
USER: genes 4 Torsion [C]-N--CA-[C] |==|  0.84632
USER: genes 5 Torsion [N]-CA--C-[N] |==|  0.88645
USER: genes 6 Torsion [C]-N--CA-[C] |==|  0.69275
USER: genes 7 Torsion [N]-CA--C-[N] |==|  0.18511
USER: genes 8 Torsion [C]-N--CA-[C] |==|  0.68424
USER: genes 9 Torsion [N]-CA--C-[O] |==|  0.42694
USER: genes 10 Torsion [N]-CA--CB-[OG] |==|  0.06165
USER: genes 11 Torsion [CA]-CB--OG-[HG] |==|  0.96101
USER: genes 12 Torsion [N]-CA--CB-[CG] |==|  0.79557
USER: genes 13 Torsion [CA]-CB--CG-[CD2] |==|  0.81861
USER: genes 14 Torsion [N]-CA--CB-[CG] |==|  0.44675
USER: genes 15 Torsion [CA]-CB--CG-[CD2] |==|  0.68740
USER: genes 16 Torsion [N]-CA--CB-[OG1] |==|  0.93239
USER: genes 17 Torsion [CA]-CB--OG1-[HG1] |==|  0.11963
USER: genes 18 Torsion [N]-C--CA-[N] |==|  0.34385
USER: genes 19 Torsion [C]-CA--CB-[CG] |==|  0.28853
USER: genes 20 Torsion [CA]-CB--CG-[CD2] |==|  0.39069
USER: genes 21 Torsion [C]-CA--N-[C] |==|  0.74214
USER: genes 22 Torsion [N]-C--CA-[N] |==|  0.37778
USER: genes 23 Torsion [C]-CA--CB-[CG] |==|  0.60941
USER: genes 24 Torsion [CA]-CB--CG-[OD1] |==|  0.64218
USER: genes 25 Torsion [C]-CA--N-[C] |==|  0.71667
USER: genes 26 Torsion [N]-C--CA-[N] |==|  0.18916
USER: genes 27 Torsion [C]-CA--CB-[CG] |==|  0.51756
USER: genes 28 Torsion [CA]-CB--CG-[OD2] |==|  0.99747
ROOT
ATOM      1  C   TRP D 340      24.204  36.359  81.640  1.00 16.52 LIG 0.24  C 
ATOM      2 O    TRP D 340      23.598  37.048  82.464  1.00 16.60 LIG-0.27  OA
ATOM      3  N   THR D 341      23.716  36.063  80.443  1.00 13.22 LIG-0.34  N 
ATOM      4 H    THR D 341      24.145  35.590  79.867  1.00 13.22 LIG 0.16  HD
ENDROOT
BRANCH 3 5
ATOM      5  CA  THR D 341      22.411  36.503  79.974  1.00 12.53 LIG 0.20  C 
BRANCH 5 6
ATOM      6  C   THR D 341      21.346  35.466  80.327  1.00 12.10 LIG 0.24  C 
ATOM      7 O    THR D 341      21.266  34.403  79.714  1.00 10.92 LIG-0.27  OA
ATOM      8  N   HIS D 342      20.542  35.763  81.340  1.00 12.26 LIG-0.35  N 
ATOM      9 H    HIS D 342      20.597  36.483  81.806  1.00 12.26 LIG 0.16  HD
BRANCH 8 10
ATOM     10  CA  HIS D 342      19.472  34.857  81.746  1.00 12.78 LIG 0.18  C 
BRANCH 10 11
ATOM     11  C   HIS D 342      18.587  34.569  80.551  1.00 14.51 LIG 0.24  C 
ATOM     12  N   LEU D 343      18.305  35.594  79.752  1.00 15.48 LIG-0.35  N 
ATOM     13 H    LEU D 343      18.647  36.378  79.839  1.00 15.48 LIG 0.16  HD
ATOM     14 O    HIS D 342      18.171  33.414  80.346  1.00 16.02 LIG-0.27  OA
BRANCH 12 15
ATOM     15  CA  LEU D 343      17.368  35.467  78.633  1.00 16.72 LIG 0.18  C 
BRANCH 15 16
ATOM     16  C   LEU D 343      18.028  35.544  77.258  1.00 19.19 LIG 0.24  C 
ATOM     17  N   SER D 344      18.854  34.537  76.928  1.00 21.37 LIG-0.34  N 
ATOM     18 H    SER D 344      19.163  33.978  77.503  1.00 21.37 LIG 0.16  HD
ATOM     19 O    LEU D 343      17.788  36.482  76.516  1.00 19.56 LIG-0.27  OA
BRANCH 17 20
ATOM     20  CA  SER D 344      19.317  34.281  75.545  1.00 23.14 LIG 0.19  C 
BRANCH 20 21
ATOM     21  C   SER D 344      18.760  32.953  75.013  1.00 24.18 LIG 0.22  C 
ATOM     22 O    SER D 344      18.602  32.765  73.794  1.00 25.35 LIG-0.29  OA
ENDBRANCH 20 21
BRANCH 20 23
ATOM     23  CB  SER D 344      20.844  34.252  75.459  1.00 23.66 LIG 0.20  C 
BRANCH 23 24
ATOM     24 OG   SER D 344      21.430  33.967  76.731  1.00 25.03 LIG-0.40  OA
ATOM     25 HG   SER D 344      20.850  34.055  77.332  1.00 25.03 LIG 0.21  HD
ENDBRANCH 23 24
ENDBRANCH 20 23
ENDBRANCH 17 20
ENDBRANCH 15 16
BRANCH 15 26
ATOM     26  CB  LEU D 343      16.291  36.565  78.702  1.00 15.83 LIG 0.04  C 
BRANCH 26 27
ATOM     27  CG  LEU D 343      15.226  36.405  79.768  1.00 14.86 LIG-0.02  C 
ATOM     28  CD1 LEU D 343      14.367  37.658  79.836  1.00 12.95 LIG 0.01  C 
ATOM     29  CD2 LEU D 343      14.363  35.151  79.478  1.00 12.95 LIG 0.01  C 
ENDBRANCH 26 27
ENDBRANCH 15 26
ENDBRANCH 12 15
ENDBRANCH 10 11
BRANCH 10 30
ATOM     30  CB  HIS D 342      18.630  35.496  82.861  1.00 12.90 LIG 0.10  C 
BRANCH 30 31
ATOM     31  CG  HIS D 342      17.281  34.875  83.026  1.00 12.99 LIG 0.06  A 
ATOM     32  CD2 HIS D 342      16.047  35.382  82.790  1.00 12.88 LIG 0.14  A 
ATOM     33 NE2  HIS D 342      15.140  34.403  83.108  1.00 14.80 LIG-0.25  NA
ATOM     34  CE1 HIS D 342      15.787  33.335  83.531  1.00 13.21 LIG 0.23  A 
ATOM     35 ND1  HIS D 342      17.081  33.595  83.498  1.00 14.49 LIG-0.24  NA
ENDBRANCH 30 31
ENDBRANCH 10 30
ENDBRANCH 8 10
ENDBRANCH 5 6
BRANCH 5 36
ATOM     36  CB  THR D 341      22.435  36.751  78.447  1.00 12.70 LIG 0.15  C 
ATOM     37  CG2 THR D 341      21.505  37.913  78.049  1.00 14.15 LIG 0.04  C 
BRANCH 36 38
ATOM     38 OG1  THR D 341      23.780  37.033  78.039  1.00 14.08 LIG-0.39  OA
ATOM     39 HG1  THR D 341      24.306  36.503  78.422  1.00 14.08 LIG 0.21  HD
ENDBRANCH 36 38
ENDBRANCH 5 36
ENDBRANCH 3 5
BRANCH 1 40
ATOM     40  CA  TRP D 340      25.559  35.749  81.983  1.00 18.72 LIG 0.18  C 
BRANCH 40 41
ATOM     41  CB  TRP D 340      25.357  34.769  83.137  1.00 19.00 LIG 0.07  C 
BRANCH 41 42
ATOM     42  CG  TRP D 340      25.373  33.332  82.748  1.00 19.22 LIG-0.03  A 
ATOM     43  CD2 TRP D 340      25.968  32.264  83.482  1.00 20.18 LIG-0.00  A 
ATOM     44  CE3 TRP D 340      26.642  32.189  84.707  1.00 18.70 LIG 0.01  A 
ATOM     45  CE2 TRP D 340      25.782  31.084  82.728  1.00 18.84 LIG 0.04  A 
ATOM     46  CZ3 TRP D 340      27.110  30.949  85.137  1.00 20.55 LIG 0.00  A 
ATOM     47  CH2 TRP D 340      26.900  29.794  84.362  1.00 19.52 LIG 0.00  A 
ATOM     48  CZ2 TRP D 340      26.245  29.839  83.159  1.00 19.79 LIG 0.03  A 
ATOM     49  NE1 TRP D 340      25.099  31.423  81.587  1.00 21.77 LIG-0.36  N 
ATOM     50  CD1 TRP D 340      24.873  32.782  81.604  1.00 20.48 LIG 0.10  A 
ATOM     51 HE1  TRP D 340      24.854  30.880  80.967  1.00 21.77 LIG 0.17  HD
ENDBRANCH 41 42
ENDBRANCH 40 41
BRANCH 40 52
ATOM     52  N   TRP D 340      26.540  36.777  82.349  1.00 22.23 LIG-0.35  N 
ATOM     53  C   ASP D 339      27.371  37.328  81.465  1.00 26.49 LIG 0.24  C 
ATOM     54 O    ASP D 339      27.380  37.028  80.259  1.00 27.22 LIG-0.27  OA
ATOM     55 H    TRP D 340      26.529  36.988  83.182  1.00 22.23 LIG 0.16  HD
BRANCH 53 56
ATOM     56  CA  ASP D 339      28.347  38.376  82.010  1.00 29.46 LIG 0.19  C 
BRANCH 56 57
ATOM     57  CB  ASP D 339      27.851  39.776  81.638  1.00 30.27 LIG 0.15  C 
BRANCH 57 58
ATOM     58  CG  ASP D 339      28.982  40.727  81.233  1.00 32.94 LIG 0.17  C 
ATOM     59 OD1  ASP D 339      29.034  41.842  81.795  1.00 36.53 LIG-0.65  OA
ATOM     60 OD2  ASP D 339      29.805  40.375  80.352  1.00 35.99 LIG-0.65  OA
ENDBRANCH 57 58
ENDBRANCH 56 57
BRANCH 56 61
ATOM     61  N   ASP D 339      29.690  38.178  81.471  1.00 31.22 LIG-0.34  N 
ATOM     62  C   ASP D 338      30.680  37.604  82.154  1.00 32.92 LIG 0.26  C 
ATOM     63 O    ASP D 338      30.518  36.996  83.217  1.00 33.60 LIG-0.27  OA
ATOM     64 H    ASP D 339      29.782  38.467  80.667  1.00 31.22 LIG 0.16  HD
BRANCH 62 65
ATOM     65  CA  ASP D 338      32.066  37.714  81.519  1.00 33.82 LIG 0.41  C 
ATOM     66  N   ASP D 338      32.550  39.132  81.536  1.00 34.02 LIG 0.61  N 
BRANCH 65 67
ATOM     67  CB  ASP D 338      33.057  36.794  82.249  1.00 34.49 LIG 0.16  C 
BRANCH 67 68
ATOM     68  CG  ASP D 338      34.493  36.967  81.767  1.00 35.92 LIG 0.17  C 
ATOM     69 OD2  ASP D 338      34.714  37.788  80.856  1.00 39.23 LIG-0.65  OA
ATOM     70 OD1  ASP D 338      35.404  36.278  82.287  1.00 38.97 LIG-0.65  OA
ENDBRANCH 67 68
ENDBRANCH 65 67
ENDBRANCH 62 65
ENDBRANCH 56 61
ENDBRANCH 53 56
ENDBRANCH 40 52
ENDBRANCH 1 40
TORSDOF 27
ENDMDL
MODEL 12
USER: ADFR SOLUTION from run 30
USER: SCORE 22.567413 LL:  -5.479 LR: -18.362 RR:   0.000 FEB: -10.308
USER: RMSD 2.834817
USER: SEED 29
USER: STATUS no improvement in best in 6 clusters for 5 generations
USER: GENES 29
USER: genes 0 Translation |==|  0.54519 0.54281 0.54316
USER: genes 1 Rotation |==|  0.42722 0.58705 0.43062 0.98199
USER: genes 2 Torsion [C]-N--CA-[CB] |==|  0.26664
USER: genes 3 Torsion [N]-CA--C-[N] |==|  0.32846
USER: genes 4 Torsion [C]-N--CA-[C] |==|  0.78011
USER: genes 5 Torsion [N]-CA--C-[N] |==|  0.34886
USER: genes 6 Torsion [C]-N--CA-[C] |==|  0.73333
USER: genes 7 Torsion [N]-CA--C-[N] |==|  0.99257
USER: genes 8 Torsion [C]-N--CA-[C] |==|  0.50526
USER: genes 9 Torsion [N]-CA--C-[O] |==|  0.08426
USER: genes 10 Torsion [N]-CA--CB-[OG] |==|  0.06127
USER: genes 11 Torsion [CA]-CB--OG-[HG] |==|  0.78533
USER: genes 12 Torsion [N]-CA--CB-[CG] |==|  0.82172
USER: genes 13 Torsion [CA]-CB--CG-[CD2] |==|  0.83390
USER: genes 14 Torsion [N]-CA--CB-[CG] |==|  0.80731
USER: genes 15 Torsion [CA]-CB--CG-[CD2] |==|  0.22560
USER: genes 16 Torsion [N]-CA--CB-[OG1] |==|  0.98614
USER: genes 17 Torsion [CA]-CB--OG1-[HG1] |==|  0.08870
USER: genes 18 Torsion [N]-C--CA-[N] |==|  0.37741
USER: genes 19 Torsion [C]-CA--CB-[CG] |==|  0.43469
USER: genes 20 Torsion [CA]-CB--CG-[CD2] |==|  0.84579
USER: genes 21 Torsion [C]-CA--N-[C] |==|  0.84301
USER: genes 22 Torsion [N]-C--CA-[N] |==|  0.96422
USER: genes 23 Torsion [C]-CA--CB-[CG] |==|  0.22908
USER: genes 24 Torsion [CA]-CB--CG-[OD1] |==|  0.42623
USER: genes 25 Torsion [C]-CA--N-[C] |==|  0.80287
USER: genes 26 Torsion [N]-C--CA-[N] |==|  0.64175
USER: genes 27 Torsion [C]-CA--CB-[CG] |==|  0.78581
USER: genes 28 Torsion [CA]-CB--CG-[OD2] |==|  0.55379
ROOT
ATOM      1  C   TRP D 340      24.274  36.738  81.273  1.00 16.52 LIG 0.24  C 
ATOM      2 O    TRP D 340      23.954  37.842  81.720  1.00 16.60 LIG-0.27  OA
ATOM      3  N   THR D 341      23.721  36.205  80.191  1.00 13.22 LIG-0.34  N 
ATOM      4 H    THR D 341      23.954  35.439  79.877  1.00 13.22 LIG 0.16  HD
ENDROOT
BRANCH 3 5
ATOM      5  CA  THR D 341      22.668  36.852  79.423  1.00 12.53 LIG 0.20  C 
BRANCH 5 6
ATOM      6  C   THR D 341      21.651  35.816  78.946  1.00 12.10 LIG 0.24  C 
ATOM      7 O    THR D 341      21.987  34.887  78.214  1.00 10.92 LIG-0.27  OA
ATOM      8  N   HIS D 342      20.407  35.960  79.385  1.00 12.26 LIG-0.35  N 
ATOM      9 H    HIS D 342      20.153  36.581  79.924  1.00 12.26 LIG 0.16  HD
BRANCH 8 10
ATOM     10  CA  HIS D 342      19.349  35.044  78.972  1.00 12.78 LIG 0.18  C 
BRANCH 10 11
ATOM     11  C   HIS D 342      18.876  35.428  77.586  1.00 14.51 LIG 0.24  C 
ATOM     12  N   LEU D 343      18.893  34.474  76.659  1.00 15.48 LIG-0.35  N 
ATOM     13 H    LEU D 343      19.089  33.653  76.821  1.00 15.48 LIG 0.16  HD
ATOM     14 O    HIS D 342      18.481  36.587  77.359  1.00 16.02 LIG-0.27  OA
BRANCH 12 15
ATOM     15  CA  LEU D 343      18.570  34.750  75.257  1.00 16.72 LIG 0.18  C 
BRANCH 15 16
ATOM     16  C   LEU D 343      17.119  34.457  74.884  1.00 19.19 LIG 0.24  C 
ATOM     17  N   SER D 344      16.341  33.938  75.848  1.00 21.37 LIG-0.34  N 
ATOM     18 H    SER D 344      16.656  33.599  76.573  1.00 21.37 LIG 0.16  HD
ATOM     19 O    LEU D 343      16.715  34.702  73.759  1.00 19.56 LIG-0.27  OA
BRANCH 17 20
ATOM     20  CA  SER D 344      14.863  33.893  75.769  1.00 23.14 LIG 0.19  C 
BRANCH 20 21
ATOM     21  C   SER D 344      14.259  33.285  77.043  1.00 24.18 LIG 0.22  C 
ATOM     22 O    SER D 344      14.824  33.408  78.144  1.00 25.35 LIG-0.29  OA
ENDBRANCH 20 21
BRANCH 20 23
ATOM     23  CB  SER D 344      14.388  33.088  74.558  1.00 23.66 LIG 0.20  C 
BRANCH 23 24
ATOM     24 OG   SER D 344      15.398  32.181  74.110  1.00 25.03 LIG-0.40  OA
ATOM     25 HG   SER D 344      15.981  32.604  73.677  1.00 25.03 LIG 0.21  HD
ENDBRANCH 23 24
ENDBRANCH 20 23
ENDBRANCH 17 20
ENDBRANCH 15 16
BRANCH 15 26
ATOM     26  CB  LEU D 343      19.474  33.929  74.322  1.00 15.83 LIG 0.04  C 
BRANCH 26 27
ATOM     27  CG  LEU D 343      20.958  34.236  74.369  1.00 14.86 LIG-0.02  C 
ATOM     28  CD1 LEU D 343      21.712  33.298  73.439  1.00 12.95 LIG 0.01  C 
ATOM     29  CD2 LEU D 343      21.209  35.719  73.991  1.00 12.95 LIG 0.01  C 
ENDBRANCH 26 27
ENDBRANCH 15 26
ENDBRANCH 12 15
ENDBRANCH 10 11
BRANCH 10 30
ATOM     30  CB  HIS D 342      18.168  35.119  79.952  1.00 12.90 LIG 0.10  C 
BRANCH 30 31
ATOM     31  CG  HIS D 342      18.469  34.551  81.300  1.00 12.99 LIG 0.06  A 
ATOM     32  CD2 HIS D 342      19.112  35.099  82.360  1.00 12.88 LIG 0.14  A 
ATOM     33 NE2  HIS D 342      19.125  34.156  83.357  1.00 14.80 LIG-0.25  NA
ATOM     34  CE1 HIS D 342      18.521  33.066  82.929  1.00 13.21 LIG 0.23  A 
ATOM     35 ND1  HIS D 342      18.121  33.274  81.687  1.00 14.49 LIG-0.24  NA
ENDBRANCH 30 31
ENDBRANCH 10 30
ENDBRANCH 8 10
ENDBRANCH 5 6
BRANCH 5 36
ATOM     36  CB  THR D 341      23.263  37.616  78.218  1.00 12.70 LIG 0.15  C 
ATOM     37  CG2 THR D 341      22.796  39.084  78.193  1.00 14.15 LIG 0.04  C 
BRANCH 36 38
ATOM     38 OG1  THR D 341      24.694  37.555  78.284  1.00 14.08 LIG-0.39  OA
ATOM     39 HG1  THR D 341      24.927  36.829  78.636  1.00 14.08 LIG 0.21  HD
ENDBRANCH 36 38
ENDBRANCH 5 36
ENDBRANCH 3 5
BRANCH 1 40
ATOM     40  CA  TRP D 340      25.313  35.882  81.988  1.00 18.72 LIG 0.18  C 
BRANCH 40 41
ATOM     41  CB  TRP D 340      24.653  35.273  83.225  1.00 19.00 LIG 0.07  C 
BRANCH 41 42
ATOM     42  CG  TRP D 340      25.291  34.026  83.726  1.00 19.22 LIG-0.03  A 
ATOM     43  CD2 TRP D 340      25.525  32.836  82.977  1.00 20.18 LIG-0.00  A 
ATOM     44  CE3 TRP D 340      25.294  32.469  81.645  1.00 18.70 LIG 0.01  A 
ATOM     45  CE2 TRP D 340      26.112  31.897  83.855  1.00 18.84 LIG 0.04  A 
ATOM     46  CZ3 TRP D 340      25.651  31.187  81.235  1.00 20.55 LIG 0.00  A 
ATOM     47  CH2 TRP D 340      26.241  30.281  82.136  1.00 19.52 LIG 0.00  A 
ATOM     48  CZ2 TRP D 340      26.475  30.613  83.445  1.00 19.79 LIG 0.03  A 
ATOM     49  NE1 TRP D 340      26.232  32.496  85.083  1.00 21.77 LIG-0.36  N 
ATOM     50  CD1 TRP D 340      25.720  33.772  84.996  1.00 20.48 LIG 0.10  A 
ATOM     51 HE1  TRP D 340      26.570  32.137  85.788  1.00 21.77 LIG 0.17  HD
ENDBRANCH 41 42
ENDBRANCH 40 41
BRANCH 40 52
ATOM     52  N   TRP D 340      26.494  36.664  82.370  1.00 22.23 LIG-0.35  N 
ATOM     53  C   ASP D 339      27.218  37.353  81.489  1.00 26.49 LIG 0.24  C 
ATOM     54 O    ASP D 339      26.952  37.398  80.275  1.00 27.22 LIG-0.27  OA
ATOM     55 H    TRP D 340      26.673  36.637  83.210  1.00 22.23 LIG 0.16  HD
BRANCH 53 56
ATOM     56  CA  ASP D 339      28.431  38.106  82.046  1.00 29.46 LIG 0.19  C 
BRANCH 56 57
ATOM     57  CB  ASP D 339      29.716  37.402  81.601  1.00 30.27 LIG 0.15  C 
BRANCH 57 58
ATOM     58  CG  ASP D 339      30.157  37.790  80.187  1.00 32.94 LIG 0.17  C 
ATOM     59 OD1  ASP D 339      31.373  37.707  79.913  1.00 36.53 LIG-0.65  OA
ATOM     60 OD2  ASP D 339      29.302  38.190  79.357  1.00 35.99 LIG-0.65  OA
ENDBRANCH 57 58
ENDBRANCH 56 57
BRANCH 56 61
ATOM     61  N   ASP D 339      28.390  38.168  83.504  1.00 31.22 LIG-0.34  N 
ATOM     62  C   ASP D 338      27.524  38.915  84.186  1.00 32.92 LIG 0.26  C 
ATOM     63 O    ASP D 338      26.539  39.460  83.676  1.00 33.60 LIG-0.27  OA
ATOM     64 H    ASP D 339      28.982  37.673  83.884  1.00 31.22 LIG 0.16  HD
BRANCH 62 65
ATOM     65  CA  ASP D 338      27.800  39.041  85.684  1.00 33.82 LIG 0.41  C 
ATOM     66  N   ASP D 338      26.574  38.717  86.482  1.00 34.02 LIG 0.61  N 
BRANCH 65 67
ATOM     67  CB  ASP D 338      28.967  38.126  86.087  1.00 34.49 LIG 0.16  C 
BRANCH 67 68
ATOM     68  CG  ASP D 338      28.562  36.661  86.195  1.00 35.92 LIG 0.17  C 
ATOM     69 OD2  ASP D 338      29.293  35.894  86.852  1.00 39.23 LIG-0.65  OA
ATOM     70 OD1  ASP D 338      27.521  36.266  85.616  1.00 38.97 LIG-0.65  OA
ENDBRANCH 67 68
ENDBRANCH 65 67
ENDBRANCH 62 65
ENDBRANCH 56 61
ENDBRANCH 53 56
ENDBRANCH 40 52
ENDBRANCH 1 40
TORSDOF 27
ENDMDL
MODEL 13
USER: ADFR SOLUTION from run 8
USER: SCORE 22.126981 LL:  -5.226 LR: -18.352 RR:   0.000 FEB: -10.298
USER: RMSD 3.572014
USER: SEED 101092
USER: STATUS no improvement in best in 6 clusters for 5 generations
USER: GENES 29
USER: genes 0 Translation |==|  0.54538 0.55680 0.53001
USER: genes 1 Rotation |==|  0.40016 0.58740 0.43029 0.97700
USER: genes 2 Torsion [C]-N--CA-[CB] |==|  0.23887
USER: genes 3 Torsion [N]-CA--C-[N] |==|  0.35675
USER: genes 4 Torsion [C]-N--CA-[C] |==|  0.77457
USER: genes 5 Torsion [N]-CA--C-[N] |==|  0.38966
USER: genes 6 Torsion [C]-N--CA-[C] |==|  0.67778
USER: genes 7 Torsion [N]-CA--C-[N] |==|  0.28378
USER: genes 8 Torsion [C]-N--CA-[C] |==|  0.55619
USER: genes 9 Torsion [N]-CA--C-[O] |==|  0.10287
USER: genes 10 Torsion [N]-CA--CB-[OG] |==|  0.79231
USER: genes 11 Torsion [CA]-CB--OG-[HG] |==|  0.03880
USER: genes 12 Torsion [N]-CA--CB-[CG] |==|  0.81109
USER: genes 13 Torsion [CA]-CB--CG-[CD2] |==|  0.81895
USER: genes 14 Torsion [N]-CA--CB-[CG] |==|  0.81908
USER: genes 15 Torsion [CA]-CB--CG-[CD2] |==|  0.24337
USER: genes 16 Torsion [N]-CA--CB-[OG1] |==|  0.02103
USER: genes 17 Torsion [CA]-CB--OG1-[HG1] |==|  0.05625
USER: genes 18 Torsion [N]-C--CA-[N] |==|  0.37522
USER: genes 19 Torsion [C]-CA--CB-[CG] |==|  0.42228
USER: genes 20 Torsion [CA]-CB--CG-[CD2] |==|  0.85439
USER: genes 21 Torsion [C]-CA--N-[C] |==|  0.82878
USER: genes 22 Torsion [N]-C--CA-[N] |==|  0.89447
USER: genes 23 Torsion [C]-CA--CB-[CG] |==|  0.23744
USER: genes 24 Torsion [CA]-CB--CG-[OD1] |==|  0.47185
USER: genes 25 Torsion [C]-CA--N-[C] |==|  0.82349
USER: genes 26 Torsion [N]-C--CA-[N] |==|  0.09303
USER: genes 27 Torsion [C]-CA--CB-[CG] |==|  0.82652
USER: genes 28 Torsion [CA]-CB--CG-[OD2] |==|  0.48155
ROOT
ATOM      1  C   TRP D 340      24.279  37.011  80.918  1.00 16.52 LIG 0.24  C 
ATOM      2 O    TRP D 340      23.950  38.152  81.251  1.00 16.60 LIG-0.27  OA
ATOM      3  N   THR D 341      23.715  36.357  79.911  1.00 13.22 LIG-0.34  N 
ATOM      4 H    THR D 341      23.953  35.565  79.676  1.00 13.22 LIG 0.16  HD
ENDROOT
BRANCH 3 5
ATOM      5  CA  THR D 341      22.637  36.904  79.100  1.00 12.53 LIG 0.20  C 
BRANCH 5 6
ATOM      6  C   THR D 341      21.766  35.775  78.551  1.00 12.10 LIG 0.24  C 
ATOM      7 O    THR D 341      22.264  34.808  77.979  1.00 10.92 LIG-0.27  OA
ATOM      8  N   HIS D 342      20.458  35.885  78.752  1.00 12.26 LIG-0.35  N 
ATOM      9 H    HIS D 342      20.087  36.533  79.177  1.00 12.26 LIG 0.16  HD
BRANCH 8 10
ATOM     10  CA  HIS D 342      19.529  34.879  78.247  1.00 12.78 LIG 0.18  C 
BRANCH 10 11
ATOM     11  C   HIS D 342      19.258  35.146  76.781  1.00 14.51 LIG 0.24  C 
ATOM     12  N   LEU D 343      19.177  34.086  75.982  1.00 15.48 LIG-0.35  N 
ATOM     13 H    LEU D 343      19.202  33.273  76.261  1.00 15.48 LIG 0.16  HD
ATOM     14 O    HIS D 342      19.108  36.313  76.377  1.00 16.02 LIG-0.27  OA
BRANCH 12 15
ATOM     15  CA  LEU D 343      19.034  34.220  74.530  1.00 16.72 LIG 0.18  C 
BRANCH 15 16
ATOM     16  C   LEU D 343      17.719  33.671  73.982  1.00 19.19 LIG 0.24  C 
ATOM     17  N   SER D 344      16.769  34.570  73.678  1.00 21.37 LIG-0.34  N 
ATOM     18 H    SER D 344      16.795  35.387  73.946  1.00 21.37 LIG 0.16  HD
ATOM     19 O    LEU D 343      17.575  32.469  73.831  1.00 19.56 LIG-0.27  OA
BRANCH 17 20
ATOM     20  CA  SER D 344      15.582  34.255  72.850  1.00 23.14 LIG 0.19  C 
BRANCH 20 21
ATOM     21  C   SER D 344      14.963  35.532  72.265  1.00 24.18 LIG 0.22  C 
ATOM     22 O    SER D 344      15.677  36.478  71.886  1.00 25.35 LIG-0.29  OA
ENDBRANCH 20 21
BRANCH 20 23
ATOM     23  CB  SER D 344      14.517  33.508  73.655  1.00 23.66 LIG 0.20  C 
BRANCH 23 24
ATOM     24 OG   SER D 344      14.893  32.147  73.875  1.00 25.03 LIG-0.40  OA
ATOM     25 HG   SER D 344      15.707  32.048  73.693  1.00 25.03 LIG 0.21  HD
ENDBRANCH 23 24
ENDBRANCH 20 23
ENDBRANCH 17 20
ENDBRANCH 15 16
BRANCH 15 26
ATOM     26  CB  LEU D 343      20.186  33.502  73.805  1.00 15.83 LIG 0.04  C 
BRANCH 26 27
ATOM     27  CG  LEU D 343      21.568  34.103  73.963  1.00 14.86 LIG-0.02  C 
ATOM     28  CD1 LEU D 343      22.610  33.175  73.358  1.00 12.95 LIG 0.01  C 
ATOM     29  CD2 LEU D 343      21.619  35.505  73.305  1.00 12.95 LIG 0.01  C 
ENDBRANCH 26 27
ENDBRANCH 15 26
ENDBRANCH 12 15
ENDBRANCH 10 11
BRANCH 10 30
ATOM     30  CB  HIS D 342      18.208  34.936  79.028  1.00 12.90 LIG 0.10  C 
BRANCH 30 31
ATOM     31  CG  HIS D 342      18.345  34.567  80.469  1.00 12.99 LIG 0.06  A 
ATOM     32  CD2 HIS D 342      18.649  35.332  81.545  1.00 12.88 LIG 0.14  A 
ATOM     33 NE2  HIS D 342      18.651  34.506  82.641  1.00 14.80 LIG-0.25  NA
ATOM     34  CE1 HIS D 342      18.366  33.278  82.257  1.00 13.21 LIG 0.23  A 
ATOM     35 ND1  HIS D 342      18.183  33.285  80.949  1.00 14.49 LIG-0.24  NA
ENDBRANCH 30 31
ENDBRANCH 10 30
ENDBRANCH 8 10
ENDBRANCH 5 6
BRANCH 5 36
ATOM     36  CB  THR D 341      23.205  37.756  77.941  1.00 12.70 LIG 0.15  C 
ATOM     37  CG2 THR D 341      22.829  39.242  78.095  1.00 14.15 LIG 0.04  C 
BRANCH 36 38
ATOM     38 OG1  THR D 341      24.631  37.610  77.907  1.00 14.08 LIG-0.39  OA
ATOM     39 HG1  THR D 341      24.851  36.908  78.313  1.00 14.08 LIG 0.21  HD
ENDBRANCH 36 38
ENDBRANCH 5 36
ENDBRANCH 3 5
BRANCH 1 40
ATOM     40  CA  TRP D 340      25.345  36.250  81.699  1.00 18.72 LIG 0.18  C 
BRANCH 40 41
ATOM     41  CB  TRP D 340      24.723  35.786  83.016  1.00 19.00 LIG 0.07  C 
BRANCH 41 42
ATOM     42  CG  TRP D 340      25.319  34.548  83.588  1.00 19.22 LIG-0.03  A 
ATOM     43  CD2 TRP D 340      25.500  33.306  82.912  1.00 20.18 LIG-0.00  A 
ATOM     44  CE3 TRP D 340      25.243  32.868  81.608  1.00 18.70 LIG 0.01  A 
ATOM     45  CE2 TRP D 340      26.061  32.402  83.842  1.00 18.84 LIG 0.04  A 
ATOM     46  CZ3 TRP D 340      25.546  31.550  81.274  1.00 20.55 LIG 0.00  A 
ATOM     47  CH2 TRP D 340      26.111  30.679  82.225  1.00 19.52 LIG 0.00  A 
ATOM     48  CZ2 TRP D 340      26.371  31.082  83.509  1.00 19.79 LIG 0.03  A 
ATOM     49  NE1 TRP D 340      26.216  33.070  85.030  1.00 21.77 LIG-0.36  N 
ATOM     50  CD1 TRP D 340      25.752  34.357  84.868  1.00 20.48 LIG 0.10  A 
ATOM     51 HE1  TRP D 340      26.547  32.742  85.753  1.00 21.77 LIG 0.17  HD
ENDBRANCH 41 42
ENDBRANCH 40 41
BRANCH 40 52
ATOM     52  N   TRP D 340      26.528  37.079  81.955  1.00 22.23 LIG-0.35  N 
ATOM     53  C   ASP D 339      27.280  37.583  80.977  1.00 26.49 LIG 0.24  C 
ATOM     54 O    ASP D 339      27.041  37.402  79.771  1.00 27.22 LIG-0.27  OA
ATOM     55 H    TRP D 340      26.689  37.208  82.789  1.00 22.23 LIG 0.16  HD
BRANCH 53 56
ATOM     56  CA  ASP D 339      28.491  38.416  81.411  1.00 29.46 LIG 0.19  C 
BRANCH 56 57
ATOM     57  CB  ASP D 339      29.661  37.483  81.737  1.00 30.27 LIG 0.15  C 
BRANCH 57 58
ATOM     58  CG  ASP D 339      30.486  37.100  80.504  1.00 32.94 LIG 0.17  C 
ATOM     59 OD1  ASP D 339      31.568  36.504  80.691  1.00 36.53 LIG-0.65  OA
ATOM     60 OD2  ASP D 339      30.069  37.404  79.359  1.00 35.99 LIG-0.65  OA
ENDBRANCH 57 58
ENDBRANCH 56 57
BRANCH 56 61
ATOM     61  N   ASP D 339      28.180  39.231  82.582  1.00 31.22 LIG-0.34  N 
ATOM     62  C   ASP D 338      27.266  40.200  82.583  1.00 32.92 LIG 0.26  C 
ATOM     63 O    ASP D 338      26.446  40.371  81.674  1.00 33.60 LIG-0.27  OA
ATOM     64 H    ASP D 339      28.644  39.025  83.276  1.00 31.22 LIG 0.16  HD
BRANCH 62 65
ATOM     65  CA  ASP D 338      27.262  41.100  83.819  1.00 33.82 LIG 0.41  C 
ATOM     66  N   ASP D 338      28.650  41.275  84.356  1.00 34.02 LIG 0.61  N 
BRANCH 65 67
ATOM     67  CB  ASP D 338      26.636  42.462  83.481  1.00 34.49 LIG 0.16  C 
BRANCH 67 68
ATOM     68  CG  ASP D 338      27.420  43.230  82.424  1.00 35.92 LIG 0.17  C 
ATOM     69 OD2  ASP D 338      26.934  44.290  81.983  1.00 39.23 LIG-0.65  OA
ATOM     70 OD1  ASP D 338      28.518  42.775  82.021  1.00 38.97 LIG-0.65  OA
ENDBRANCH 67 68
ENDBRANCH 65 67
ENDBRANCH 62 65
ENDBRANCH 56 61
ENDBRANCH 53 56
ENDBRANCH 40 52
ENDBRANCH 1 40
TORSDOF 27
ENDMDL
MODEL 14
USER: ADFR SOLUTION from run 82
USER: SCORE 22.257828 LL:  -5.637 LR: -18.278 RR:   0.000 FEB: -10.224
USER: RMSD 2.951926
USER: SEED 81
USER: STATUS no improvement in best in 5 clusters for 5 generations
USER: GENES 29
USER: genes 0 Translation |==|  0.53450 0.50705 0.56165
USER: genes 1 Rotation |==|  0.64223 0.48823 0.66956 0.94820
USER: genes 2 Torsion [C]-N--CA-[CB] |==|  0.51729
USER: genes 3 Torsion [N]-CA--C-[N] |==|  0.26303
USER: genes 4 Torsion [C]-N--CA-[C] |==|  0.78259
USER: genes 5 Torsion [N]-CA--C-[N] |==|  0.22564
USER: genes 6 Torsion [C]-N--CA-[C] |==|  0.80074
USER: genes 7 Torsion [N]-CA--C-[N] |==|  0.45177
USER: genes 8 Torsion [C]-N--CA-[C] |==|  0.52406
USER: genes 9 Torsion [N]-CA--C-[O] |==|  0.01140
USER: genes 10 Torsion [N]-CA--CB-[OG] |==|  0.07116
USER: genes 11 Torsion [CA]-CB--OG-[HG] |==|  0.68560
USER: genes 12 Torsion [N]-CA--CB-[CG] |==|  0.90016
USER: genes 13 Torsion [CA]-CB--CG-[CD2] |==|  0.73616
USER: genes 14 Torsion [N]-CA--CB-[CG] |==|  0.95295
USER: genes 15 Torsion [CA]-CB--CG-[CD2] |==|  0.68682
USER: genes 16 Torsion [N]-CA--CB-[OG1] |==|  0.03438
USER: genes 17 Torsion [CA]-CB--OG1-[HG1] |==|  0.09626
USER: genes 18 Torsion [N]-C--CA-[N] |==|  0.22529
USER: genes 19 Torsion [C]-CA--CB-[CG] |==|  0.25489
USER: genes 20 Torsion [CA]-CB--CG-[CD2] |==|  0.39253
USER: genes 21 Torsion [C]-CA--N-[C] |==|  0.78751
USER: genes 22 Torsion [N]-C--CA-[N] |==|  0.06502
USER: genes 23 Torsion [C]-CA--CB-[CG] |==|  0.34419
USER: genes 24 Torsion [CA]-CB--CG-[OD1] |==|  0.01040
USER: genes 25 Torsion [C]-CA--N-[C] |==|  0.67272
USER: genes 26 Torsion [N]-C--CA-[N] |==|  0.42509
USER: genes 27 Torsion [C]-CA--CB-[CG] |==|  0.22488
USER: genes 28 Torsion [CA]-CB--CG-[OD2] |==|  0.66053
ROOT
ATOM      1  C   TRP D 340      23.977  36.040  81.772  1.00 16.52 LIG 0.24  C 
ATOM      2 O    TRP D 340      22.969  35.784  82.435  1.00 16.60 LIG-0.27  OA
ATOM      3  N   THR D 341      23.932  36.565  80.555  1.00 13.22 LIG-0.34  N 
ATOM      4 H    THR D 341      24.637  36.752  80.099  1.00 13.22 LIG 0.16  HD
ENDROOT
BRANCH 3 5
ATOM      5  CA  THR D 341      22.693  36.882  79.860  1.00 12.53 LIG 0.20  C 
BRANCH 5 6
ATOM      6  C   THR D 341      21.761  35.671  79.865  1.00 12.10 LIG 0.24  C 
ATOM      7 O    THR D 341      21.871  34.780  79.024  1.00 10.92 LIG-0.27  OA
ATOM      8  N   HIS D 342      20.857  35.623  80.836  1.00 12.26 LIG-0.35  N 
ATOM      9 H    HIS D 342      20.781  36.214  81.455  1.00 12.26 LIG 0.16  HD
BRANCH 8 10
ATOM     10  CA  HIS D 342      19.898  34.526  80.921  1.00 12.78 LIG 0.18  C 
BRANCH 10 11
ATOM     11  C   HIS D 342      18.793  34.755  79.913  1.00 14.51 LIG 0.24  C 
ATOM     12  N   LEU D 343      19.044  34.402  78.655  1.00 15.48 LIG-0.35  N 
ATOM     13 H    LEU D 343      19.761  33.998  78.406  1.00 15.48 LIG 0.16  HD
ATOM     14 O    HIS D 342      17.705  35.237  80.276  1.00 16.02 LIG-0.27  OA
BRANCH 12 15
ATOM     15  CA  LEU D 343      18.101  34.680  77.569  1.00 16.72 LIG 0.18  C 
BRANCH 15 16
ATOM     16  C   LEU D 343      16.842  33.816  77.604  1.00 19.19 LIG 0.24  C 
ATOM     17  N   SER D 344      15.795  34.246  76.881  1.00 21.37 LIG-0.34  N 
ATOM     18 H    SER D 344      15.737  35.046  76.570  1.00 21.37 LIG 0.16  HD
ATOM     19 O    LEU D 343      16.826  32.787  78.259  1.00 19.56 LIG-0.27  OA
BRANCH 17 20
ATOM     20  CA  SER D 344      14.632  33.394  76.542  1.00 23.14 LIG 0.19  C 
BRANCH 20 21
ATOM     21  C   SER D 344      13.709  34.094  75.536  1.00 24.18 LIG 0.22  C 
ATOM     22 O    SER D 344      14.009  35.199  75.049  1.00 25.35 LIG-0.29  OA
ENDBRANCH 20 21
BRANCH 20 23
ATOM     23  CB  SER D 344      13.823  33.024  77.787  1.00 23.66 LIG 0.20  C 
BRANCH 23 24
ATOM     24 OG   SER D 344      13.988  33.997  78.820  1.00 25.03 LIG-0.40  OA
ATOM     25 HG   SER D 344      14.399  33.653  79.467  1.00 25.03 LIG 0.21  HD
ENDBRANCH 23 24
ENDBRANCH 20 23
ENDBRANCH 17 20
ENDBRANCH 15 16
BRANCH 15 26
ATOM     26  CB  LEU D 343      18.776  34.477  76.201  1.00 15.83 LIG 0.04  C 
BRANCH 26 27
ATOM     27  CG  LEU D 343      20.235  34.874  76.098  1.00 14.86 LIG-0.02  C 
ATOM     28  CD1 LEU D 343      20.981  33.885  75.215  1.00 12.95 LIG 0.01  C 
ATOM     29  CD2 LEU D 343      20.359  36.318  75.548  1.00 12.95 LIG 0.01  C 
ENDBRANCH 26 27
ENDBRANCH 15 26
ENDBRANCH 12 15
ENDBRANCH 10 11
BRANCH 10 30
ATOM     30  CB  HIS D 342      19.294  34.457  82.332  1.00 12.90 LIG 0.10  C 
BRANCH 30 31
ATOM     31  CG  HIS D 342      20.076  35.211  83.359  1.00 12.99 LIG 0.06  A 
ATOM     32  CD2 HIS D 342      20.785  34.764  84.423  1.00 12.88 LIG 0.14  A 
ATOM     33 NE2  HIS D 342      21.310  35.866  85.050  1.00 14.80 LIG-0.25  NA
ATOM     34  CE1 HIS D 342      20.936  36.951  84.402  1.00 13.21 LIG 0.23  A 
ATOM     35 ND1  HIS D 342      20.183  36.585  83.381  1.00 14.49 LIG-0.24  NA
ENDBRANCH 30 31
ENDBRANCH 10 30
ENDBRANCH 8 10
ENDBRANCH 5 6
BRANCH 5 36
ATOM     36  CB  THR D 341      22.981  37.332  78.409  1.00 12.70 LIG 0.15  C 
ATOM     37  CG2 THR D 341      22.712  38.837  78.220  1.00 14.15 LIG 0.04  C 
BRANCH 36 38
ATOM     38 OG1  THR D 341      24.346  37.031  78.087  1.00 14.08 LIG-0.39  OA
ATOM     39 HG1  THR D 341      24.573  36.319  78.469  1.00 14.08 LIG 0.21  HD
ENDBRANCH 36 38
ENDBRANCH 5 36
ENDBRANCH 3 5
BRANCH 1 40
ATOM     40  CA  TRP D 340      25.365  35.710  82.310  1.00 18.72 LIG 0.18  C 
BRANCH 40 41
ATOM     41  CB  TRP D 340      25.210  34.644  83.393  1.00 19.00 LIG 0.07  C 
BRANCH 41 42
ATOM     42  CG  TRP D 340      25.319  33.240  82.910  1.00 19.22 LIG-0.03  A 
ATOM     43  CD2 TRP D 340      25.958  32.160  83.587  1.00 20.18 LIG-0.00  A 
ATOM     44  CE3 TRP D 340      26.607  32.040  84.821  1.00 18.70 LIG 0.01  A 
ATOM     45  CE2 TRP D 340      25.859  31.025  82.750  1.00 18.84 LIG 0.04  A 
ATOM     46  CZ3 TRP D 340      27.136  30.802  85.180  1.00 20.55 LIG 0.00  A 
ATOM     47  CH2 TRP D 340      27.012  29.692  84.325  1.00 19.52 LIG 0.00  A 
ATOM     48  CZ2 TRP D 340      26.384  29.783  83.110  1.00 19.79 LIG 0.03  A 
ATOM     49  NE1 TRP D 340      25.184  31.402  81.617  1.00 21.77 LIG-0.36  N 
ATOM     50  CD1 TRP D 340      24.878  32.741  81.718  1.00 20.48 LIG 0.10  A 
ATOM     51 HE1  TRP D 340      24.986  30.890  80.956  1.00 21.77 LIG 0.17  HD
ENDBRANCH 41 42
ENDBRANCH 40 41
BRANCH 40 52
ATOM     52  N   TRP D 340      26.035  36.898  82.853  1.00 22.23 LIG-0.35  N 
ATOM     53  C   ASP D 339      26.584  37.833  82.079  1.00 26.49 LIG 0.24  C 
ATOM     54 O    ASP D 339      26.569  37.784  80.836  1.00 27.22 LIG-0.27  OA
ATOM     55 H    TRP D 340      26.039  36.933  83.711  1.00 22.23 LIG 0.16  HD
BRANCH 53 56
ATOM     56  CA  ASP D 339      27.260  39.004  82.801  1.00 29.46 LIG 0.19  C 
BRANCH 56 57
ATOM     57  CB  ASP D 339      28.495  39.445  82.011  1.00 30.27 LIG 0.15  C 
BRANCH 57 58
ATOM     58  CG  ASP D 339      28.467  40.928  81.629  1.00 32.94 LIG 0.17  C 
ATOM     59 OD1  ASP D 339      27.513  41.619  82.047  1.00 36.53 LIG-0.65  OA
ATOM     60 OD2  ASP D 339      29.378  41.401  80.905  1.00 35.99 LIG-0.65  OA
ENDBRANCH 57 58
ENDBRANCH 56 57
BRANCH 56 61
ATOM     61  N   ASP D 339      27.657  38.630  84.155  1.00 31.22 LIG-0.34  N 
ATOM     62  C   ASP D 338      27.175  39.213  85.251  1.00 32.92 LIG 0.26  C 
ATOM     63 O    ASP D 338      26.199  39.970  85.253  1.00 33.60 LIG-0.27  OA
ATOM     64 H    ASP D 339      28.236  37.995  84.179  1.00 31.22 LIG 0.16  HD
BRANCH 62 65
ATOM     65  CA  ASP D 338      27.894  38.861  86.554  1.00 33.82 LIG 0.41  C 
ATOM     66  N   ASP D 338      27.760  39.969  87.554  1.00 34.02 LIG 0.61  N 
BRANCH 65 67
ATOM     67  CB  ASP D 338      27.342  37.545  87.125  1.00 34.49 LIG 0.16  C 
BRANCH 67 68
ATOM     68  CG  ASP D 338      27.940  36.312  86.460  1.00 35.92 LIG 0.17  C 
ATOM     69 OD2  ASP D 338      27.165  35.502  85.914  1.00 39.23 LIG-0.65  OA
ATOM     70 OD1  ASP D 338      29.183  36.140  86.486  1.00 38.97 LIG-0.65  OA
ENDBRANCH 67 68
ENDBRANCH 65 67
ENDBRANCH 62 65
ENDBRANCH 56 61
ENDBRANCH 53 56
ENDBRANCH 40 52
ENDBRANCH 1 40
TORSDOF 27
ENDMDL
MODEL 15
USER: ADFR SOLUTION from run 161
USER: SCORE 22.079784 LL:  -5.387 LR: -18.204 RR:   0.000 FEB: -10.150
USER: RMSD 2.970607
USER: SEED 160
USER: STATUS no improvement in best in 8 clusters for 5 generations
USER: GENES 29
USER: genes 0 Translation |==|  0.54234 0.54177 0.54375
USER: genes 1 Rotation |==|  0.45114 0.56894 0.44853 0.99011
USER: genes 2 Torsion [C]-N--CA-[CB] |==|  0.26863
USER: genes 3 Torsion [N]-CA--C-[N] |==|  0.34013
USER: genes 4 Torsion [C]-N--CA-[C] |==|  0.80214
USER: genes 5 Torsion [N]-CA--C-[N] |==|  0.38781
USER: genes 6 Torsion [C]-N--CA-[C] |==|  0.69831
USER: genes 7 Torsion [N]-CA--C-[N] |==|  0.28317
USER: genes 8 Torsion [C]-N--CA-[C] |==|  0.60359
USER: genes 9 Torsion [N]-CA--C-[O] |==|  0.63167
USER: genes 10 Torsion [N]-CA--CB-[OG] |==|  0.13020
USER: genes 11 Torsion [CA]-CB--OG-[HG] |==|  0.38729
USER: genes 12 Torsion [N]-CA--CB-[CG] |==|  0.78252
USER: genes 13 Torsion [CA]-CB--CG-[CD2] |==|  0.82712
USER: genes 14 Torsion [N]-CA--CB-[CG] |==|  0.45274
USER: genes 15 Torsion [CA]-CB--CG-[CD2] |==|  0.15973
USER: genes 16 Torsion [N]-CA--CB-[OG1] |==|  0.04102
USER: genes 17 Torsion [CA]-CB--OG1-[HG1] |==|  0.09548
USER: genes 18 Torsion [N]-C--CA-[N] |==|  0.35595
USER: genes 19 Torsion [C]-CA--CB-[CG] |==|  0.43653
USER: genes 20 Torsion [CA]-CB--CG-[CD2] |==|  0.84634
USER: genes 21 Torsion [C]-CA--N-[C] |==|  0.84405
USER: genes 22 Torsion [N]-C--CA-[N] |==|  0.96357
USER: genes 23 Torsion [C]-CA--CB-[CG] |==|  0.21672
USER: genes 24 Torsion [CA]-CB--CG-[OD1] |==|  0.42137
USER: genes 25 Torsion [C]-CA--N-[C] |==|  0.79688
USER: genes 26 Torsion [N]-C--CA-[N] |==|  0.65429
USER: genes 27 Torsion [C]-CA--CB-[CG] |==|  0.78441
USER: genes 28 Torsion [CA]-CB--CG-[OD2] |==|  0.54031
ROOT
ATOM      1  C   TRP D 340      24.195  36.718  81.289  1.00 16.52 LIG 0.24  C 
ATOM      2 O    TRP D 340      23.764  37.748  81.813  1.00 16.60 LIG-0.27  OA
ATOM      3  N   THR D 341      23.764  36.263  80.120  1.00 13.22 LIG-0.34  N 
ATOM      4 H    THR D 341      24.073  35.550  79.752  1.00 13.22 LIG 0.16  HD
ENDROOT
BRANCH 3 5
ATOM      5  CA  THR D 341      22.727  36.917  79.334  1.00 12.53 LIG 0.20  C 
BRANCH 5 6
ATOM      6  C   THR D 341      21.815  35.873  78.692  1.00 12.10 LIG 0.24  C 
ATOM      7 O    THR D 341      22.271  34.989  77.969  1.00 10.92 LIG-0.27  OA
ATOM      8  N   HIS D 342      20.522  35.958  78.981  1.00 12.26 LIG-0.35  N 
ATOM      9 H    HIS D 342      20.182  36.545  79.509  1.00 12.26 LIG 0.16  HD
BRANCH 8 10
ATOM     10  CA  HIS D 342      19.556  35.030  78.402  1.00 12.78 LIG 0.18  C 
BRANCH 10 11
ATOM     11  C   HIS D 342      19.390  35.343  76.930  1.00 14.51 LIG 0.24  C 
ATOM     12  N   LEU D 343      19.295  34.306  76.102  1.00 15.48 LIG-0.35  N 
ATOM     13 H    LEU D 343      19.255  33.488  76.362  1.00 15.48 LIG 0.16  HD
ATOM     14 O    HIS D 342      19.332  36.525  76.545  1.00 16.02 LIG-0.27  OA
BRANCH 12 15
ATOM     15  CA  LEU D 343      19.247  34.478  74.648  1.00 16.72 LIG 0.18  C 
BRANCH 15 16
ATOM     16  C   LEU D 343      17.880  34.189  74.032  1.00 19.19 LIG 0.24  C 
ATOM     17  N   SER D 344      17.128  35.253  73.707  1.00 21.37 LIG-0.34  N 
ATOM     18 H    SER D 344      17.290  36.047  73.993  1.00 21.37 LIG 0.16  HD
ATOM     19 O    LEU D 343      17.524  33.037  73.849  1.00 19.56 LIG-0.27  OA
BRANCH 17 20
ATOM     20  CA  SER D 344      15.942  35.174  72.822  1.00 23.14 LIG 0.19  C 
BRANCH 20 21
ATOM     21  C   SER D 344      15.843  36.412  71.921  1.00 24.18 LIG 0.22  C 
ATOM     22 O    SER D 344      14.770  37.028  71.790  1.00 25.35 LIG-0.29  OA
ENDBRANCH 20 21
BRANCH 20 23
ATOM     23  CB  SER D 344      14.648  35.037  73.627  1.00 23.66 LIG 0.20  C 
BRANCH 23 24
ATOM     24 OG   SER D 344      14.603  35.979  74.701  1.00 25.03 LIG-0.40  OA
ATOM     25 HG   SER D 344      13.827  36.294  74.765  1.00 25.03 LIG 0.21  HD
ENDBRANCH 23 24
ENDBRANCH 20 23
ENDBRANCH 17 20
ENDBRANCH 15 16
BRANCH 15 26
ATOM     26  CB  LEU D 343      20.278  33.565  73.962  1.00 15.83 LIG 0.04  C 
BRANCH 26 27
ATOM     27  CG  LEU D 343      21.721  34.029  73.988  1.00 14.86 LIG-0.02  C 
ATOM     28  CD1 LEU D 343      22.620  32.962  73.383  1.00 12.95 LIG 0.01  C 
ATOM     29  CD2 LEU D 343      21.864  35.375  73.233  1.00 12.95 LIG 0.01  C 
ENDBRANCH 26 27
ENDBRANCH 15 26
ENDBRANCH 12 15
ENDBRANCH 10 11
BRANCH 10 30
ATOM     30  CB  HIS D 342      18.199  35.166  79.108  1.00 12.90 LIG 0.10  C 
BRANCH 30 31
ATOM     31  CG  HIS D 342      17.061  34.570  78.346  1.00 12.99 LIG 0.06  A 
ATOM     32  CD2 HIS D 342      16.875  33.306  77.894  1.00 12.88 LIG 0.14  A 
ATOM     33 NE2  HIS D 342      15.664  33.282  77.249  1.00 14.80 LIG-0.25  NA
ATOM     34  CE1 HIS D 342      15.126  34.484  77.294  1.00 13.21 LIG 0.23  A 
ATOM     35 ND1  HIS D 342      15.952  35.283  77.944  1.00 14.49 LIG-0.24  NA
ENDBRANCH 30 31
ENDBRANCH 10 30
ENDBRANCH 8 10
ENDBRANCH 5 6
BRANCH 5 36
ATOM     36  CB  THR D 341      23.356  37.823  78.249  1.00 12.70 LIG 0.15  C 
ATOM     37  CG2 THR D 341      23.199  39.315  78.598  1.00 14.15 LIG 0.04  C 
BRANCH 36 38
ATOM     38 OG1  THR D 341      24.744  37.492  78.108  1.00 14.08 LIG-0.39  OA
ATOM     39 HG1  THR D 341      24.849  36.669  78.231  1.00 14.08 LIG 0.21  HD
ENDBRANCH 36 38
ENDBRANCH 5 36
ENDBRANCH 3 5
BRANCH 1 40
ATOM     40  CA  TRP D 340      25.235  35.861  82.000  1.00 18.72 LIG 0.18  C 
BRANCH 40 41
ATOM     41  CB  TRP D 340      24.575  35.240  83.231  1.00 19.00 LIG 0.07  C 
BRANCH 41 42
ATOM     42  CG  TRP D 340      25.227  34.000  83.734  1.00 19.22 LIG-0.03  A 
ATOM     43  CD2 TRP D 340      25.486  32.817  82.982  1.00 20.18 LIG-0.00  A 
ATOM     44  CE3 TRP D 340      25.274  32.452  81.647  1.00 18.70 LIG 0.01  A 
ATOM     45  CE2 TRP D 340      26.078  31.884  83.863  1.00 18.84 LIG 0.04  A 
ATOM     46  CZ3 TRP D 340      25.654  31.177  81.235  1.00 20.55 LIG 0.00  A 
ATOM     47  CH2 TRP D 340      26.248  30.277  82.138  1.00 19.52 LIG 0.00  A 
ATOM     48  CZ2 TRP D 340      26.464  30.607  83.451  1.00 19.79 LIG 0.03  A 
ATOM     49  NE1 TRP D 340      26.177  32.479  85.094  1.00 21.77 LIG-0.36  N 
ATOM     50  CD1 TRP D 340      25.647  33.748  85.007  1.00 20.48 LIG 0.10  A 
ATOM     51 HE1  TRP D 340      26.512  32.122  85.801  1.00 21.77 LIG 0.17  HD
ENDBRANCH 41 42
ENDBRANCH 40 41
BRANCH 40 52
ATOM     52  N   TRP D 340      26.412  36.646  82.391  1.00 22.23 LIG-0.35  N 
ATOM     53  C   ASP D 339      27.132  37.350  81.518  1.00 26.49 LIG 0.24  C 
ATOM     54 O    ASP D 339      26.864  37.409  80.306  1.00 27.22 LIG-0.27  OA
ATOM     55 H    TRP D 340      26.592  36.608  83.231  1.00 22.23 LIG 0.16  HD
BRANCH 53 56
ATOM     56  CA  ASP D 339      28.340  38.103  82.084  1.00 29.46 LIG 0.19  C 
BRANCH 56 57
ATOM     57  CB  ASP D 339      29.629  37.409  81.634  1.00 30.27 LIG 0.15  C 
BRANCH 57 58
ATOM     58  CG  ASP D 339      30.011  37.729  80.186  1.00 32.94 LIG 0.17  C 
ATOM     59 OD1  ASP D 339      31.222  37.696  79.882  1.00 36.53 LIG-0.65  OA
ATOM     60 OD2  ASP D 339      29.114  38.027  79.358  1.00 35.99 LIG-0.65  OA
ENDBRANCH 57 58
ENDBRANCH 56 57
BRANCH 56 61
ATOM     61  N   ASP D 339      28.298  38.151  83.543  1.00 31.22 LIG-0.34  N 
ATOM     62  C   ASP D 338      27.454  38.919  84.230  1.00 32.92 LIG 0.26  C 
ATOM     63 O    ASP D 338      26.489  39.502  83.724  1.00 33.60 LIG-0.27  OA
ATOM     64 H    ASP D 339      28.872  37.633  83.919  1.00 31.22 LIG 0.16  HD
BRANCH 62 65
ATOM     65  CA  ASP D 338      27.730  39.020  85.730  1.00 33.82 LIG 0.41  C 
ATOM     66  N   ASP D 338      26.523  38.622  86.523  1.00 34.02 LIG 0.61  N 
BRANCH 65 67
ATOM     67  CB  ASP D 338      28.938  38.148  86.107  1.00 34.49 LIG 0.16  C 
BRANCH 67 68
ATOM     68  CG  ASP D 338      28.596  36.665  86.191  1.00 35.92 LIG 0.17  C 
ATOM     69 OD2  ASP D 338      29.410  35.903  86.749  1.00 39.23 LIG-0.65  OA
ATOM     70 OD1  ASP D 338      27.521  36.252  85.693  1.00 38.97 LIG-0.65  OA
ENDBRANCH 67 68
ENDBRANCH 65 67
ENDBRANCH 62 65
ENDBRANCH 56 61
ENDBRANCH 53 56
ENDBRANCH 40 52
ENDBRANCH 1 40
TORSDOF 27
ENDMDL
MODEL 16
USER: ADFR SOLUTION from run 8
USER: SCORE 21.755397 LL:  -4.951 LR: -18.122 RR:   0.000 FEB: -10.068
USER: RMSD 4.016558
USER: SEED 101092
USER: STATUS no improvement in best in 6 clusters for 5 generations
USER: GENES 29
USER: genes 0 Translation |==|  0.54557 0.55508 0.53136
USER: genes 1 Rotation |==|  0.38929 0.59324 0.42649 0.97291
USER: genes 2 Torsion [C]-N--CA-[CB] |==|  0.26352
USER: genes 3 Torsion [N]-CA--C-[N] |==|  0.29899
USER: genes 4 Torsion [C]-N--CA-[C] |==|  0.77862
USER: genes 5 Torsion [N]-CA--C-[N] |==|  0.39584
USER: genes 6 Torsion [C]-N--CA-[C] |==|  0.73029
USER: genes 7 Torsion [N]-CA--C-[N] |==|  0.98653
USER: genes 8 Torsion [C]-N--CA-[C] |==|  0.64460
USER: genes 9 Torsion [N]-CA--C-[O] |==|  0.73231
USER: genes 10 Torsion [N]-CA--CB-[OG] |==|  0.19537
USER: genes 11 Torsion [CA]-CB--OG-[HG] |==|  0.94082
USER: genes 12 Torsion [N]-CA--CB-[CG] |==|  0.74701
USER: genes 13 Torsion [CA]-CB--CG-[CD2] |==|  0.53170
USER: genes 14 Torsion [N]-CA--CB-[CG] |==|  0.85668
USER: genes 15 Torsion [CA]-CB--CG-[CD2] |==|  0.62948
USER: genes 16 Torsion [N]-CA--CB-[OG1] |==|  0.97280
USER: genes 17 Torsion [CA]-CB--OG1-[HG1] |==|  0.08027
USER: genes 18 Torsion [N]-C--CA-[N] |==|  0.38415
USER: genes 19 Torsion [C]-CA--CB-[CG] |==|  0.42140
USER: genes 20 Torsion [CA]-CB--CG-[CD2] |==|  0.85279
USER: genes 21 Torsion [C]-CA--N-[C] |==|  0.82861
USER: genes 22 Torsion [N]-C--CA-[N] |==|  0.89452
USER: genes 23 Torsion [C]-CA--CB-[CG] |==|  0.23747
USER: genes 24 Torsion [CA]-CB--CG-[OD1] |==|  0.47184
USER: genes 25 Torsion [C]-CA--N-[C] |==|  0.82346
USER: genes 26 Torsion [N]-C--CA-[N] |==|  0.09305
USER: genes 27 Torsion [C]-CA--CB-[CG] |==|  0.82703
USER: genes 28 Torsion [CA]-CB--CG-[OD2] |==|  0.48290
ROOT
ATOM      1  C   TRP D 340      24.285  36.977  80.955  1.00 16.52 LIG 0.24  C 
ATOM      2 O    TRP D 340      23.980  38.136  81.246  1.00 16.60 LIG-0.27  OA
ATOM      3  N   THR D 341      23.683  36.288  79.994  1.00 13.22 LIG-0.34  N 
ATOM      4 H    THR D 341      23.904  35.483  79.787  1.00 13.22 LIG 0.16  HD
ENDROOT
BRANCH 3 5
ATOM      5  CA  THR D 341      22.590  36.814  79.189  1.00 12.53 LIG 0.20  C 
BRANCH 5 6
ATOM      6  C   THR D 341      21.571  35.713  78.900  1.00 12.10 LIG 0.24  C 
ATOM      7 O    THR D 341      21.832  34.792  78.129  1.00 10.92 LIG-0.27  OA
ATOM      8  N   HIS D 342      20.413  35.793  79.544  1.00 12.26 LIG-0.35  N 
ATOM      9 H    HIS D 342      20.217  36.407  80.113  1.00 12.26 LIG 0.16  HD
BRANCH 8 10
ATOM     10  CA  HIS D 342      19.357  34.811  79.323  1.00 12.78 LIG 0.18  C 
BRANCH 10 11
ATOM     11  C   HIS D 342      18.625  35.150  78.042  1.00 14.51 LIG 0.24  C 
ATOM     12  N   LEU D 343      18.232  34.128  77.286  1.00 15.48 LIG-0.35  N 
ATOM     13 H    LEU D 343      18.311  33.304  77.517  1.00 15.48 LIG 0.16  HD
ATOM     14 O    HIS D 342      18.402  36.337  77.745  1.00 16.02 LIG-0.27  OA
BRANCH 12 15
ATOM     15  CA  LEU D 343      17.619  34.329  75.970  1.00 16.72 LIG 0.18  C 
BRANCH 15 16
ATOM     16  C   LEU D 343      16.093  34.288  75.983  1.00 19.19 LIG 0.24  C 
ATOM     17  N   SER D 344      15.507  33.978  77.152  1.00 21.37 LIG-0.34  N 
ATOM     18 H    SER D 344      15.934  33.629  77.811  1.00 21.37 LIG 0.16  HD
ATOM     19 O    LEU D 343      15.467  34.540  74.967  1.00 19.56 LIG-0.27  OA
BRANCH 17 20
ATOM     20  CA  SER D 344      14.070  34.205  77.429  1.00 23.14 LIG 0.19  C 
BRANCH 20 21
ATOM     21  C   SER D 344      13.877  34.989  78.735  1.00 24.18 LIG 0.22  C 
ATOM     22 O    SER D 344      13.640  34.404  79.807  1.00 25.35 LIG-0.29  OA
ENDBRANCH 20 21
BRANCH 20 23
ATOM     23  CB  SER D 344      13.300  32.885  77.521  1.00 23.66 LIG 0.20  C 
BRANCH 23 24
ATOM     24 OG   SER D 344      13.648  32.163  78.704  1.00 25.03 LIG-0.40  OA
ATOM     25 HG   SER D 344      14.396  32.426  78.983  1.00 25.03 LIG 0.21  HD
ENDBRANCH 23 24
ENDBRANCH 20 23
ENDBRANCH 17 20
ENDBRANCH 15 16
BRANCH 15 26
ATOM     26  CB  LEU D 343      18.113  33.263  74.976  1.00 15.83 LIG 0.04  C 
BRANCH 26 27
ATOM     27  CG  LEU D 343      19.344  33.610  74.163  1.00 14.86 LIG-0.02  C 
ATOM     28  CD1 LEU D 343      20.564  33.668  75.068  1.00 12.95 LIG 0.01  C 
ATOM     29  CD2 LEU D 343      19.541  32.577  73.024  1.00 12.95 LIG 0.01  C 
ENDBRANCH 26 27
ENDBRANCH 15 26
ENDBRANCH 12 15
ENDBRANCH 10 11
BRANCH 10 30
ATOM     30  CB  HIS D 342      18.364  34.825  80.496  1.00 12.90 LIG 0.10  C 
BRANCH 30 31
ATOM     31  CG  HIS D 342      19.014  34.701  81.835  1.00 12.99 LIG 0.06  A 
ATOM     32  CD2 HIS D 342      18.700  33.914  82.893  1.00 12.88 LIG 0.14  A 
ATOM     33 NE2  HIS D 342      19.610  34.186  83.883  1.00 14.80 LIG-0.25  NA
ATOM     34  CE1 HIS D 342      20.450  35.109  83.457  1.00 13.21 LIG 0.23  A 
ATOM     35 ND1  HIS D 342      20.108  35.443  82.226  1.00 14.49 LIG-0.24  NA
ENDBRANCH 30 31
ENDBRANCH 10 30
ENDBRANCH 8 10
ENDBRANCH 5 6
BRANCH 5 36
ATOM     36  CB  THR D 341      23.125  37.413  77.867  1.00 12.70 LIG 0.15  C 
ATOM     37  CG2 THR D 341      22.541  38.813  77.604  1.00 14.15 LIG 0.04  C 
BRANCH 36 38
ATOM     38 OG1  THR D 341      24.556  37.479  77.927  1.00 14.08 LIG-0.39  OA
ATOM     39 HG1  THR D 341      24.844  36.867  78.426  1.00 14.08 LIG 0.21  HD
ENDBRANCH 36 38
ENDBRANCH 5 36
ENDBRANCH 3 5
BRANCH 1 40
ATOM     40  CA  TRP D 340      25.361  36.236  81.739  1.00 18.72 LIG 0.18  C 
BRANCH 40 41
ATOM     41  CB  TRP D 340      24.748  35.770  83.058  1.00 19.00 LIG 0.07  C 
BRANCH 41 42
ATOM     42  CG  TRP D 340      25.358  34.539  83.632  1.00 19.22 LIG-0.03  A 
ATOM     43  CD2 TRP D 340      25.539  33.294  82.962  1.00 20.18 LIG-0.00  A 
ATOM     44  CE3 TRP D 340      25.271  32.845  81.663  1.00 18.70 LIG 0.01  A 
ATOM     45  CE2 TRP D 340      26.116  32.399  83.892  1.00 18.84 LIG 0.04  A 
ATOM     46  CZ3 TRP D 340      25.579  31.527  81.335  1.00 20.55 LIG 0.00  A 
ATOM     47  CH2 TRP D 340      26.159  30.666  82.286  1.00 19.52 LIG 0.00  A 
ATOM     48  CZ2 TRP D 340      26.430  31.079  83.564  1.00 19.79 LIG 0.03  A 
ATOM     49  NE1 TRP D 340      26.279  33.076  85.074  1.00 21.77 LIG-0.36  N 
ATOM     50  CD1 TRP D 340      25.805  34.359  84.909  1.00 20.48 LIG 0.10  A 
ATOM     51 HE1  TRP D 340      26.620  32.755  85.795  1.00 21.77 LIG 0.17  HD
ENDBRANCH 41 42
ENDBRANCH 40 41
BRANCH 40 52
ATOM     52  N   TRP D 340      26.532  37.084  81.990  1.00 22.23 LIG-0.35  N 
ATOM     53  C   ASP D 339      27.277  37.594  81.009  1.00 26.49 LIG 0.24  C 
ATOM     54 O    ASP D 339      27.040  37.403  79.804  1.00 27.22 LIG-0.27  OA
ATOM     55 H    TRP D 340      26.691  37.221  82.823  1.00 22.23 LIG 0.16  HD
BRANCH 53 56
ATOM     56  CA  ASP D 339      28.476  38.447  81.439  1.00 29.46 LIG 0.19  C 
BRANCH 56 57
ATOM     57  CB  ASP D 339      29.659  37.534  81.769  1.00 30.27 LIG 0.15  C 
BRANCH 57 58
ATOM     58  CG  ASP D 339      30.490  37.157  80.539  1.00 32.94 LIG 0.17  C 
ATOM     59 OD1  ASP D 339      31.581  36.578  80.728  1.00 36.53 LIG-0.65  OA
ATOM     60 OD2  ASP D 339      30.069  37.448  79.391  1.00 35.99 LIG-0.65  OA
ENDBRANCH 57 58
ENDBRANCH 56 57
BRANCH 56 61
ATOM     61  N   ASP D 339      28.152  39.263  82.605  1.00 31.22 LIG-0.34  N 
ATOM     62  C   ASP D 338      27.224  40.219  82.601  1.00 32.92 LIG 0.26  C 
ATOM     63 O    ASP D 338      26.402  40.373  81.691  1.00 33.60 LIG-0.27  OA
ATOM     64 H    ASP D 339      28.619  39.068  83.300  1.00 31.22 LIG 0.16  HD
BRANCH 62 65
ATOM     65  CA  ASP D 338      27.207  41.125  83.832  1.00 33.82 LIG 0.41  C 
ATOM     66  N   ASP D 338      28.592  41.324  84.368  1.00 34.02 LIG 0.61  N 
BRANCH 65 67
ATOM     67  CB  ASP D 338      26.560  42.476  83.487  1.00 34.49 LIG 0.16  C 
BRANCH 67 68
ATOM     68  CG  ASP D 338      27.331  43.248  82.423  1.00 35.92 LIG 0.17  C 
ATOM     69 OD2  ASP D 338      26.833  44.303  81.983  1.00 39.23 LIG-0.65  OA
ATOM     70 OD1  ASP D 338      28.429  42.802  82.013  1.00 38.97 LIG-0.65  OA
ENDBRANCH 67 68
ENDBRANCH 65 67
ENDBRANCH 62 65
ENDBRANCH 56 61
ENDBRANCH 53 56
ENDBRANCH 40 52
ENDBRANCH 1 40
TORSDOF 27
ENDMDL
MODEL 17
USER: ADFR SOLUTION from run 17
USER: SCORE 21.179237 LL:  -5.699 LR: -17.986 RR:   0.000 FEB:  -9.932
USER: RMSD 3.667696
USER: SEED 16
USER: STATUS no improvement in best in 4 clusters for 5 generations
USER: GENES 29
USER: genes 0 Translation |==|  0.54544 0.53708 0.55662
USER: genes 1 Rotation |==|  0.45842 0.59781 0.49184 0.98851
USER: genes 2 Torsion [C]-N--CA-[CB] |==|  0.34100
USER: genes 3 Torsion [N]-CA--C-[N] |==|  0.26447
USER: genes 4 Torsion [C]-N--CA-[C] |==|  0.80510
USER: genes 5 Torsion [N]-CA--C-[N] |==|  0.25373
USER: genes 6 Torsion [C]-N--CA-[C] |==|  0.75130
USER: genes 7 Torsion [N]-CA--C-[N] |==|  0.41687
USER: genes 8 Torsion [C]-N--CA-[C] |==|  0.50550
USER: genes 9 Torsion [N]-CA--C-[O] |==|  0.10191
USER: genes 10 Torsion [N]-CA--CB-[OG] |==|  0.05055
USER: genes 11 Torsion [CA]-CB--OG-[HG] |==|  0.81100
USER: genes 12 Torsion [N]-CA--CB-[CG] |==|  0.91557
USER: genes 13 Torsion [CA]-CB--CG-[CD2] |==|  0.76235
USER: genes 14 Torsion [N]-CA--CB-[CG] |==|  0.87221
USER: genes 15 Torsion [CA]-CB--CG-[CD2] |==|  0.50182
USER: genes 16 Torsion [N]-CA--CB-[OG1] |==|  0.97298
USER: genes 17 Torsion [CA]-CB--OG1-[HG1] |==|  0.09635
USER: genes 18 Torsion [N]-C--CA-[N] |==|  0.39076
USER: genes 19 Torsion [C]-CA--CB-[CG] |==|  0.29942
USER: genes 20 Torsion [CA]-CB--CG-[CD2] |==|  0.36172
USER: genes 21 Torsion [C]-CA--N-[C] |==|  0.73410
USER: genes 22 Torsion [N]-C--CA-[N] |==|  0.87298
USER: genes 23 Torsion [C]-CA--CB-[CG] |==|  0.74062
USER: genes 24 Torsion [CA]-CB--CG-[OD1] |==|  0.80066
USER: genes 25 Torsion [C]-CA--N-[C] |==|  0.84278
USER: genes 26 Torsion [N]-C--CA-[N] |==|  0.86684
USER: genes 27 Torsion [C]-CA--CB-[CG] |==|  0.16227
USER: genes 28 Torsion [CA]-CB--CG-[OD2] |==|  0.76729
ROOT
ATOM      1  C   TRP D 340      24.281  36.626  81.637  1.00 16.52 LIG 0.24  C 
ATOM      2 O    TRP D 340      23.775  37.546  82.283  1.00 16.60 LIG-0.27  OA
ATOM      3  N   THR D 341      23.772  36.173  80.499  1.00 13.22 LIG-0.34  N 
ATOM      4 H    THR D 341      24.132  35.537  80.045  1.00 13.22 LIG 0.16  HD
ENDROOT
BRANCH 3 5
ATOM      5  CA  THR D 341      22.555  36.697  79.896  1.00 12.53 LIG 0.20  C 
BRANCH 5 6
ATOM      6  C   THR D 341      21.468  35.623  79.883  1.00 12.10 LIG 0.24  C 
ATOM      7 O    THR D 341      21.420  34.778  78.991  1.00 10.92 LIG-0.27  OA
ATOM      8  N   HIS D 342      20.608  35.638  80.893  1.00 12.26 LIG-0.35  N 
ATOM      9 H    HIS D 342      20.639  36.196  81.547  1.00 12.26 LIG 0.16  HD
BRANCH 8 10
ATOM     10  CA  HIS D 342      19.513  34.675  80.968  1.00 12.78 LIG 0.18  C 
BRANCH 10 11
ATOM     11  C   HIS D 342      18.499  34.995  79.890  1.00 14.51 LIG 0.24  C 
ATOM     12  N   LEU D 343      18.656  34.387  78.717  1.00 15.48 LIG-0.35  N 
ATOM     13 H    LEU D 343      19.251  33.785  78.567  1.00 15.48 LIG 0.16  HD
ATOM     14 O    HIS D 342      17.564  35.782  80.126  1.00 16.02 LIG-0.27  OA
BRANCH 12 15
ATOM     15  CA  LEU D 343      17.811  34.701  77.563  1.00 16.72 LIG 0.18  C 
BRANCH 15 16
ATOM     16  C   LEU D 343      16.545  33.853  77.471  1.00 19.19 LIG 0.24  C 
ATOM     17  N   SER D 344      15.476  34.424  76.892  1.00 21.37 LIG-0.34  N 
ATOM     18 H    SER D 344      15.415  35.270  76.753  1.00 21.37 LIG 0.16  HD
ATOM     19 O    LEU D 343      16.541  32.712  77.903  1.00 19.56 LIG-0.27  OA
BRANCH 17 20
ATOM     20  CA  SER D 344      14.292  33.662  76.433  1.00 23.14 LIG 0.19  C 
BRANCH 20 21
ATOM     21  C   SER D 344      13.262  34.589  75.771  1.00 24.18 LIG 0.22  C 
ATOM     22 O    SER D 344      13.620  35.553  75.072  1.00 25.35 LIG-0.29  OA
ENDBRANCH 20 21
BRANCH 20 23
ATOM     23  CB  SER D 344      13.621  32.915  77.587  1.00 23.66 LIG 0.20  C 
BRANCH 23 24
ATOM     24 OG   SER D 344      14.020  33.447  78.852  1.00 25.03 LIG-0.40  OA
ATOM     25 HG   SER D 344      14.833  33.278  78.983  1.00 25.03 LIG 0.21  HD
ENDBRANCH 23 24
ENDBRANCH 20 23
ENDBRANCH 17 20
ENDBRANCH 15 16
BRANCH 15 26
ATOM     26  CB  LEU D 343      18.597  34.522  76.252  1.00 15.83 LIG 0.04  C 
BRANCH 26 27
ATOM     27  CG  LEU D 343      20.089  34.778  76.315  1.00 14.86 LIG-0.02  C 
ATOM     28  CD1 LEU D 343      20.804  33.942  75.265  1.00 12.95 LIG 0.01  C 
ATOM     29  CD2 LEU D 343      20.381  36.289  76.119  1.00 12.95 LIG 0.01  C 
ENDBRANCH 26 27
ENDBRANCH 15 26
ENDBRANCH 12 15
ENDBRANCH 10 11
BRANCH 10 30
ATOM     30  CB  HIS D 342      18.835  34.748  82.344  1.00 12.90 LIG 0.10  C 
BRANCH 30 31
ATOM     31  CG  HIS D 342      19.795  34.780  83.488  1.00 12.99 LIG 0.06  A 
ATOM     32  CD2 HIS D 342      19.569  34.830  84.823  1.00 12.88 LIG 0.14  A 
ATOM     33 NE2  HIS D 342      20.794  34.845  85.440  1.00 14.80 LIG-0.25  NA
ATOM     34  CE1 HIS D 342      21.741  34.811  84.524  1.00 13.21 LIG 0.23  A 
ATOM     35 ND1  HIS D 342      21.165  34.778  83.335  1.00 14.49 LIG-0.24  NA
ENDBRANCH 30 31
ENDBRANCH 10 30
ENDBRANCH 8 10
ENDBRANCH 5 6
BRANCH 5 36
ATOM     36  CB  THR D 341      22.831  37.200  78.460  1.00 12.70 LIG 0.15  C 
ATOM     37  CG2 THR D 341      22.246  38.607  78.232  1.00 14.15 LIG 0.04  C 
BRANCH 36 38
ATOM     38 OG1  THR D 341      24.246  37.211  78.230  1.00 14.08 LIG-0.39  OA
ATOM     39 HG1  THR D 341      24.601  36.567  78.637  1.00 14.08 LIG 0.21  HD
ENDBRANCH 36 38
ENDBRANCH 5 36
ENDBRANCH 3 5
BRANCH 1 40
ATOM     40  CA  TRP D 340      25.522  35.906  82.151  1.00 18.72 LIG 0.18  C 
BRANCH 40 41
ATOM     41  CB  TRP D 340      25.077  34.888  83.200  1.00 19.00 LIG 0.07  C 
BRANCH 41 42
ATOM     42  CG  TRP D 340      25.153  33.467  82.764  1.00 19.22 LIG-0.03  A 
ATOM     43  CD2 TRP D 340      25.762  32.395  83.480  1.00 20.18 LIG-0.00  A 
ATOM     44  CE3 TRP D 340      26.403  32.300  84.721  1.00 18.70 LIG 0.01  A 
ATOM     45  CE2 TRP D 340      25.636  31.235  82.682  1.00 18.84 LIG 0.04  A 
ATOM     46  CZ3 TRP D 340      26.899  31.062  85.124  1.00 20.55 LIG 0.00  A 
ATOM     47  CH2 TRP D 340      26.750  29.927  84.305  1.00 19.52 LIG 0.00  A 
ATOM     48  CZ2 TRP D 340      26.128  29.992  83.085  1.00 19.79 LIG 0.03  A 
ATOM     49  NE1 TRP D 340      24.976  31.590  81.534  1.00 21.77 LIG-0.36  N 
ATOM     50  CD1 TRP D 340      24.704  32.940  81.588  1.00 20.48 LIG 0.10  A 
ATOM     51 HE1  TRP D 340      24.767  31.061  80.889  1.00 21.77 LIG 0.17  HD
ENDBRANCH 41 42
ENDBRANCH 40 41
BRANCH 40 52
ATOM     52  N   TRP D 340      26.496  36.842  82.725  1.00 22.23 LIG-0.35  N 
ATOM     53  C   ASP D 339      27.522  37.332  82.031  1.00 26.49 LIG 0.24  C 
ATOM     54 O    ASP D 339      27.738  37.045  80.841  1.00 27.22 LIG-0.27  OA
ATOM     55 H    TRP D 340      26.341  37.044  83.546  1.00 22.23 LIG 0.16  HD
BRANCH 53 56
ATOM     56  CA  ASP D 339      28.457  38.287  82.781  1.00 29.46 LIG 0.19  C 
BRANCH 56 57
ATOM     57  CB  ASP D 339      29.349  37.484  83.732  1.00 30.27 LIG 0.15  C 
BRANCH 57 58
ATOM     58  CG  ASP D 339      28.776  37.379  85.149  1.00 32.94 LIG 0.17  C 
ATOM     59 OD1  ASP D 339      28.789  38.406  85.860  1.00 36.53 LIG-0.65  OA
ATOM     60 OD2  ASP D 339      28.330  36.278  85.559  1.00 35.99 LIG-0.65  OA
ENDBRANCH 57 58
ENDBRANCH 56 57
BRANCH 56 61
ATOM     61  N   ASP D 339      27.701  39.276  83.543  1.00 31.22 LIG-0.34  N 
ATOM     62  C   ASP D 338      26.802  40.095  83.000  1.00 32.92 LIG 0.26  C 
ATOM     63 O    ASP D 338      26.362  39.966  81.852  1.00 33.60 LIG-0.27  OA
ATOM     64 H    ASP D 339      27.890  39.280  84.382  1.00 31.22 LIG 0.16  HD
BRANCH 62 65
ATOM     65  CA  ASP D 338      26.304  41.221  83.906  1.00 33.82 LIG 0.41  C 
ATOM     66  N   ASP D 338      25.919  40.690  85.253  1.00 34.02 LIG 0.61  N 
BRANCH 65 67
ATOM     67  CB  ASP D 338      27.381  42.309  84.040  1.00 34.49 LIG 0.16  C 
BRANCH 67 68
ATOM     68  CG  ASP D 338      27.787  42.910  82.700  1.00 35.92 LIG 0.17  C 
ATOM     69 OD2  ASP D 338      28.647  42.313  82.022  1.00 39.23 LIG-0.65  OA
ATOM     70 OD1  ASP D 338      27.261  43.984  82.321  1.00 38.97 LIG-0.65  OA
ENDBRANCH 67 68
ENDBRANCH 65 67
ENDBRANCH 62 65
ENDBRANCH 56 61
ENDBRANCH 53 56
ENDBRANCH 40 52
ENDBRANCH 1 40
TORSDOF 27
ENDMDL
MODEL 18
USER: ADFR SOLUTION from run 91
USER: SCORE 21.650960 LL:  -5.431 LR: -17.744 RR:   0.000 FEB:  -9.689
USER: RMSD 3.433827
USER: SEED 90
USER: STATUS 1 or 2 clusters left
USER: GENES 29
USER: genes 0 Translation |==|  0.54058 0.54377 0.54482
USER: genes 1 Rotation |==|  0.45404 0.56392 0.45519 0.99172
USER: genes 2 Torsion [C]-N--CA-[CB] |==|  0.27215
USER: genes 3 Torsion [N]-CA--C-[N] |==|  0.31646
USER: genes 4 Torsion [C]-N--CA-[C] |==|  0.80771
USER: genes 5 Torsion [N]-CA--C-[N] |==|  0.35710
USER: genes 6 Torsion [C]-N--CA-[C] |==|  0.73378
USER: genes 7 Torsion [N]-CA--C-[N] |==|  0.32049
USER: genes 8 Torsion [C]-N--CA-[C] |==|  0.53895
USER: genes 9 Torsion [N]-CA--C-[O] |==|  0.47639
USER: genes 10 Torsion [N]-CA--CB-[OG] |==|  0.77493
USER: genes 11 Torsion [CA]-CB--OG-[HG] |==|  0.33991
USER: genes 12 Torsion [N]-CA--CB-[CG] |==|  0.78138
USER: genes 13 Torsion [CA]-CB--CG-[CD2] |==|  0.81923
USER: genes 14 Torsion [N]-CA--CB-[CG] |==|  0.41763
USER: genes 15 Torsion [CA]-CB--CG-[CD2] |==|  0.72402
USER: genes 16 Torsion [N]-CA--CB-[OG1] |==|  0.01790
USER: genes 17 Torsion [CA]-CB--OG1-[HG1] |==|  0.05079
USER: genes 18 Torsion [N]-C--CA-[N] |==|  0.36762
USER: genes 19 Torsion [C]-CA--CB-[CG] |==|  0.44370
USER: genes 20 Torsion [CA]-CB--CG-[CD2] |==|  0.82422
USER: genes 21 Torsion [C]-CA--N-[C] |==|  0.82243
USER: genes 22 Torsion [N]-C--CA-[N] |==|  0.40001
USER: genes 23 Torsion [C]-CA--CB-[CG] |==|  0.60778
USER: genes 24 Torsion [CA]-CB--CG-[OD1] |==|  0.35575
USER: genes 25 Torsion [C]-CA--N-[C] |==|  0.66806
USER: genes 26 Torsion [N]-C--CA-[N] |==|  0.73594
USER: genes 27 Torsion [C]-CA--CB-[CG] |==|  0.74173
USER: genes 28 Torsion [CA]-CB--CG-[OD2] |==|  0.20295
ROOT
ATOM      1  C   TRP D 340      24.146  36.757  81.318  1.00 16.52 LIG 0.24  C 
ATOM      2 O    TRP D 340      23.677  37.767  81.847  1.00 16.60 LIG-0.27  OA
ATOM      3  N   THR D 341      23.750  36.307  80.134  1.00 13.22 LIG-0.34  N 
ATOM      4 H    THR D 341      24.085  35.607  79.764  1.00 13.22 LIG 0.16  HD
ENDROOT
BRANCH 3 5
ATOM      5  CA  THR D 341      22.711  36.943  79.338  1.00 12.53 LIG 0.20  C 
BRANCH 5 6
ATOM      6  C   THR D 341      21.821  35.885  78.690  1.00 12.10 LIG 0.24  C 
ATOM      7 O    THR D 341      22.268  35.103  77.853  1.00 10.92 LIG-0.27  OA
ATOM      8  N   HIS D 342      20.559  35.840  79.099  1.00 12.26 LIG-0.35  N 
ATOM      9 H    HIS D 342      20.229  36.352  79.706  1.00 12.26 LIG 0.16  HD
BRANCH 8 10
ATOM     10  CA  HIS D 342      19.613  34.886  78.528  1.00 12.78 LIG 0.18  C 
BRANCH 10 11
ATOM     11  C   HIS D 342      19.321  35.276  77.095  1.00 14.51 LIG 0.24  C 
ATOM     12  N   LEU D 343      19.453  34.325  76.174  1.00 15.48 LIG-0.35  N 
ATOM     13 H    LEU D 343      19.626  33.502  76.358  1.00 15.48 LIG 0.16  HD
ATOM     14 O    HIS D 342      18.961  36.436  76.823  1.00 16.02 LIG-0.27  OA
BRANCH 12 15
ATOM     15  CA  LEU D 343      19.313  34.606  74.744  1.00 16.72 LIG 0.18  C 
BRANCH 15 16
ATOM     16  C   LEU D 343      17.919  34.321  74.189  1.00 19.19 LIG 0.24  C 
ATOM     17  N   SER D 344      17.224  35.376  73.732  1.00 21.37 LIG-0.34  N 
ATOM     18 H    SER D 344      17.439  36.190  73.908  1.00 21.37 LIG 0.16  HD
ATOM     19 O    LEU D 343      17.492  33.179  74.167  1.00 19.56 LIG-0.27  OA
BRANCH 17 20
ATOM     20  CA  SER D 344      16.018  35.252  72.881  1.00 23.14 LIG 0.19  C 
BRANCH 20 21
ATOM     21  C   SER D 344      15.654  36.599  72.241  1.00 24.18 LIG 0.22  C 
ATOM     22 O    SER D 344      14.770  36.679  71.370  1.00 25.35 LIG-0.29  OA
ENDBRANCH 20 21
BRANCH 20 23
ATOM     23  CB  SER D 344      14.817  34.737  73.677  1.00 23.66 LIG 0.20  C 
BRANCH 23 24
ATOM     24 OG   SER D 344      14.863  33.316  73.823  1.00 25.03 LIG-0.40  OA
ATOM     25 HG   SER D 344      14.857  33.117  74.639  1.00 25.03 LIG 0.21  HD
ENDBRANCH 23 24
ENDBRANCH 20 23
ENDBRANCH 17 20
ENDBRANCH 15 16
BRANCH 15 26
ATOM     26  CB  LEU D 343      20.324  33.781  73.929  1.00 15.83 LIG 0.04  C 
BRANCH 26 27
ATOM     27  CG  LEU D 343      21.751  34.293  73.899  1.00 14.86 LIG-0.02  C 
ATOM     28  CD1 LEU D 343      22.654  33.273  73.223  1.00 12.95 LIG 0.01  C 
ATOM     29  CD2 LEU D 343      21.813  35.662  73.174  1.00 12.95 LIG 0.01  C 
ENDBRANCH 26 27
ENDBRANCH 15 26
ENDBRANCH 12 15
ENDBRANCH 10 11
BRANCH 10 30
ATOM     30  CB  HIS D 342      18.304  34.889  79.334  1.00 12.90 LIG 0.10  C 
BRANCH 30 31
ATOM     31  CG  HIS D 342      17.098  34.547  78.522  1.00 12.99 LIG 0.06  A 
ATOM     32  CD2 HIS D 342      16.160  35.350  77.962  1.00 12.88 LIG 0.14  A 
ATOM     33 NE2  HIS D 342      15.260  34.535  77.324  1.00 14.80 LIG-0.25  NA
ATOM     34  CE1 HIS D 342      15.622  33.278  77.487  1.00 13.21 LIG 0.23  A 
ATOM     35 ND1  HIS D 342      16.725  33.256  78.213  1.00 14.49 LIG-0.24  NA
ENDBRANCH 30 31
ENDBRANCH 10 30
ENDBRANCH 8 10
ENDBRANCH 5 6
BRANCH 5 36
ATOM     36  CB  THR D 341      23.335  37.856  78.257  1.00 12.70 LIG 0.15  C 
ATOM     37  CG2 THR D 341      22.977  39.336  78.490  1.00 14.15 LIG 0.04  C 
BRANCH 36 38
ATOM     38 OG1  THR D 341      24.759  37.686  78.264  1.00 14.08 LIG-0.39  OA
ATOM     39 HG1  THR D 341      24.954  36.970  78.657  1.00 14.08 LIG 0.21  HD
ENDBRANCH 36 38
ENDBRANCH 5 36
ENDBRANCH 3 5
BRANCH 1 40
ATOM     40  CA  TRP D 340      25.196  35.918  82.038  1.00 18.72 LIG 0.18  C 
BRANCH 40 41
ATOM     41  CB  TRP D 340      24.506  35.180  83.184  1.00 19.00 LIG 0.07  C 
BRANCH 41 42
ATOM     42  CG  TRP D 340      25.235  33.985  83.689  1.00 19.22 LIG-0.03  A 
ATOM     43  CD2 TRP D 340      25.528  32.800  82.952  1.00 20.18 LIG-0.00  A 
ATOM     44  CE3 TRP D 340      25.291  32.397  81.633  1.00 18.70 LIG 0.01  A 
ATOM     45  CE2 TRP D 340      26.195  31.916  83.830  1.00 18.84 LIG 0.04  A 
ATOM     46  CZ3 TRP D 340      25.720  31.133  81.233  1.00 20.55 LIG 0.00  A 
ATOM     47  CH2 TRP D 340      26.388  30.283  82.133  1.00 19.52 LIG 0.00  A 
ATOM     48  CZ2 TRP D 340      26.631  30.651  83.431  1.00 19.79 LIG 0.03  A 
ATOM     49  NE1 TRP D 340      26.305  32.542  85.046  1.00 21.77 LIG-0.36  N 
ATOM     50  CD1 TRP D 340      25.710  33.781  84.952  1.00 20.48 LIG 0.10  A 
ATOM     51 HE1  TRP D 340      26.681  32.217  85.747  1.00 21.77 LIG 0.17  HD
ENDBRANCH 41 42
ENDBRANCH 40 41
BRANCH 40 52
ATOM     52  N   TRP D 340      26.296  36.745  82.548  1.00 22.23 LIG-0.35  N 
ATOM     53  C   ASP D 339      27.114  37.429  81.750  1.00 26.49 LIG 0.24  C 
ATOM     54 O    ASP D 339      27.012  37.433  80.511  1.00 27.22 LIG-0.27  OA
ATOM     55 H    TRP D 340      26.362  36.745  83.405  1.00 22.23 LIG 0.16  HD
BRANCH 53 56
ATOM     56  CA  ASP D 339      28.223  38.232  82.439  1.00 29.46 LIG 0.19  C 
BRANCH 56 57
ATOM     57  CB  ASP D 339      27.758  39.677  82.636  1.00 30.27 LIG 0.15  C 
BRANCH 57 58
ATOM     58  CG  ASP D 339      28.869  40.704  82.399  1.00 32.94 LIG 0.17  C 
ATOM     59 OD1  ASP D 339      28.635  41.643  81.608  1.00 36.53 LIG-0.65  OA
ATOM     60 OD2  ASP D 339      29.973  40.571  82.983  1.00 35.99 LIG-0.65  OA
ENDBRANCH 57 58
ENDBRANCH 56 57
BRANCH 56 61
ATOM     61  N   ASP D 339      29.451  38.220  81.650  1.00 31.22 LIG-0.34  N 
ATOM     62  C   ASP D 338      30.607  37.726  82.092  1.00 32.92 LIG 0.26  C 
ATOM     63 O    ASP D 338      30.713  37.042  83.116  1.00 33.60 LIG-0.27  OA
ATOM     64 H    ASP D 339      29.359  38.564  80.867  1.00 31.22 LIG 0.16  HD
BRANCH 62 65
ATOM     65  CA  ASP D 338      31.828  38.031  81.225  1.00 33.82 LIG 0.41  C 
ATOM     66  N   ASP D 338      32.103  36.905  80.276  1.00 34.02 LIG 0.61  N 
BRANCH 65 67
ATOM     67  CB  ASP D 338      31.619  39.347  80.459  1.00 34.49 LIG 0.16  C 
BRANCH 67 68
ATOM     68  CG  ASP D 338      31.027  39.138  79.070  1.00 35.92 LIG 0.17  C 
ATOM     69 OD2  ASP D 338      29.825  38.820  78.983  1.00 39.23 LIG-0.65  OA
ATOM     70 OD1  ASP D 338      31.760  39.278  78.062  1.00 38.97 LIG-0.65  OA
ENDBRANCH 67 68
ENDBRANCH 65 67
ENDBRANCH 62 65
ENDBRANCH 56 61
ENDBRANCH 53 56
ENDBRANCH 40 52
ENDBRANCH 1 40
TORSDOF 27
ENDMDL
MODEL 19
USER: ADFR SOLUTION from run 161
USER: SCORE 21.335659 LL:  -4.917 LR: -17.719 RR:   0.000 FEB:  -9.665
USER: RMSD 4.042387
USER: SEED 160
USER: STATUS no improvement in best in 8 clusters for 5 generations
USER: GENES 29
USER: genes 0 Translation |==|  0.55489 0.54208 0.55651
USER: genes 1 Rotation |==|  0.46758 0.60524 0.46810 0.98668
USER: genes 2 Torsion [C]-N--CA-[CB] |==|  0.25223
USER: genes 3 Torsion [N]-CA--C-[N] |==|  0.37619
USER: genes 4 Torsion [C]-N--CA-[C] |==|  0.79646
USER: genes 5 Torsion [N]-CA--C-[N] |==|  0.42355
USER: genes 6 Torsion [C]-N--CA-[C] |==|  0.86111
USER: genes 7 Torsion [N]-CA--C-[N] |==|  0.36164
USER: genes 8 Torsion [C]-N--CA-[C] |==|  0.51613
USER: genes 9 Torsion [N]-CA--C-[O] |==|  0.90676
USER: genes 10 Torsion [N]-CA--CB-[OG] |==|  0.12447
USER: genes 11 Torsion [CA]-CB--OG-[HG] |==|  0.50546
USER: genes 12 Torsion [N]-CA--CB-[CG] |==|  0.73140
USER: genes 13 Torsion [CA]-CB--CG-[CD2] |==|  0.89817
USER: genes 14 Torsion [N]-CA--CB-[CG] |==|  0.46064
USER: genes 15 Torsion [CA]-CB--CG-[CD2] |==|  0.17189
USER: genes 16 Torsion [N]-CA--CB-[OG1] |==|  0.05856
USER: genes 17 Torsion [CA]-CB--OG1-[HG1] |==|  0.03007
USER: genes 18 Torsion [N]-C--CA-[N] |==|  0.39110
USER: genes 19 Torsion [C]-CA--CB-[CG] |==|  0.31171
USER: genes 20 Torsion [CA]-CB--CG-[CD2] |==|  0.35141
USER: genes 21 Torsion [C]-CA--N-[C] |==|  0.78637
USER: genes 22 Torsion [N]-C--CA-[N] |==|  0.43872
USER: genes 23 Torsion [C]-CA--CB-[CG] |==|  0.81341
USER: genes 24 Torsion [CA]-CB--CG-[OD1] |==|  0.76202
USER: genes 25 Torsion [C]-CA--N-[C] |==|  0.72145
USER: genes 26 Torsion [N]-C--CA-[N] |==|  0.64201
USER: genes 27 Torsion [C]-CA--CB-[CG] |==|  0.77519
USER: genes 28 Torsion [CA]-CB--CG-[OD2] |==|  0.72627
ROOT
ATOM      1  C   TRP D 340      24.543  36.724  81.634  1.00 16.52 LIG 0.24  C 
ATOM      2 O    TRP D 340      24.148  37.679  82.306  1.00 16.60 LIG-0.27  OA
ATOM      3  N   THR D 341      23.966  36.346  80.501  1.00 13.22 LIG-0.34  N 
ATOM      4 H    THR D 341      24.250  35.685  80.029  1.00 13.22 LIG 0.16  HD
ENDROOT
BRANCH 3 5
ATOM      5  CA  THR D 341      22.797  37.002  79.934  1.00 12.53 LIG 0.20  C 
BRANCH 5 6
ATOM      6  C   THR D 341      21.921  35.984  79.207  1.00 12.10 LIG 0.24  C 
ATOM      7 O    THR D 341      22.415  35.124  78.480  1.00 10.92 LIG-0.27  OA
ATOM      8  N   HIS D 342      20.614  36.061  79.428  1.00 12.26 LIG-0.35  N 
ATOM      9 H    HIS D 342      20.246  36.630  79.957  1.00 12.26 LIG 0.16  HD
BRANCH 8 10
ATOM     10  CA  HIS D 342      19.681  35.156  78.765  1.00 12.78 LIG 0.18  C 
BRANCH 10 11
ATOM     11  C   HIS D 342      19.556  35.552  77.309  1.00 14.51 LIG 0.24  C 
ATOM     12  N   LEU D 343      19.240  34.588  76.448  1.00 15.48 LIG-0.35  N 
ATOM     13 H    LEU D 343      19.040  33.785  76.682  1.00 15.48 LIG 0.16  HD
ATOM     14 O    HIS D 342      19.733  36.735  76.966  1.00 16.02 LIG-0.27  OA
BRANCH 12 15
ATOM     15  CA  LEU D 343      19.204  34.821  75.003  1.00 16.72 LIG 0.18  C 
BRANCH 15 16
ATOM     16  C   LEU D 343      18.397  36.050  74.592  1.00 19.19 LIG 0.24  C 
ATOM     17  N   SER D 344      18.993  36.910  73.750  1.00 21.37 LIG-0.34  N 
ATOM     18 H    SER D 344      19.838  36.902  73.593  1.00 21.37 LIG 0.16  HD
ATOM     19 O    LEU D 343      17.264  36.207  75.017  1.00 19.56 LIG-0.27  OA
BRANCH 17 20
ATOM     20  CA  SER D 344      18.263  37.962  73.005  1.00 23.14 LIG 0.19  C 
BRANCH 20 21
ATOM     21  C   SER D 344      19.192  38.687  72.021  1.00 24.18 LIG 0.22  C 
ATOM     22 O    SER D 344      20.393  38.869  72.286  1.00 25.35 LIG-0.29  OA
ENDBRANCH 20 21
BRANCH 20 23
ATOM     23  CB  SER D 344      17.637  38.990  73.949  1.00 23.66 LIG 0.20  C 
BRANCH 23 24
ATOM     24 OG   SER D 344      18.556  39.383  74.971  1.00 25.03 LIG-0.40  OA
ATOM     25 HG   SER D 344      18.181  39.926  75.491  1.00 25.03 LIG 0.21  HD
ENDBRANCH 23 24
ENDBRANCH 20 23
ENDBRANCH 17 20
ENDBRANCH 15 16
BRANCH 15 26
ATOM     26  CB  LEU D 343      18.615  33.602  74.273  1.00 15.83 LIG 0.04  C 
BRANCH 26 27
ATOM     27  CG  LEU D 343      19.605  32.610  73.697  1.00 14.86 LIG-0.02  C 
ATOM     28  CD1 LEU D 343      18.937  31.778  72.613  1.00 12.95 LIG 0.01  C 
ATOM     29  CD2 LEU D 343      20.847  33.355  73.143  1.00 12.95 LIG 0.01  C 
ENDBRANCH 26 27
ENDBRANCH 15 26
ENDBRANCH 12 15
ENDBRANCH 10 11
BRANCH 10 30
ATOM     30  CB  HIS D 342      18.300  35.233  79.433  1.00 12.90 LIG 0.10  C 
BRANCH 30 31
ATOM     31  CG  HIS D 342      17.207  34.607  78.630  1.00 12.99 LIG 0.06  A 
ATOM     32  CD2 HIS D 342      17.041  33.325  78.223  1.00 12.88 LIG 0.14  A 
ATOM     33 NE2  HIS D 342      15.871  33.276  77.508  1.00 14.80 LIG-0.25  NA
ATOM     34  CE1 HIS D 342      15.337  34.481  77.469  1.00 13.21 LIG 0.23  A 
ATOM     35 ND1  HIS D 342      16.128  35.306  78.133  1.00 14.49 LIG-0.24  NA
ENDBRANCH 30 31
ENDBRANCH 10 30
ENDBRANCH 8 10
ENDBRANCH 5 6
BRANCH 5 36
ATOM     36  CB  THR D 341      23.221  38.133  78.968  1.00 12.70 LIG 0.15  C 
ATOM     37  CG2 THR D 341      23.114  39.517  79.636  1.00 14.15 LIG 0.04  C 
BRANCH 36 38
ATOM     38 OG1  THR D 341      24.567  37.898  78.533  1.00 14.08 LIG-0.39  OA
ATOM     39 HG1  THR D 341      24.806  37.127  78.765  1.00 14.08 LIG 0.21  HD
ENDBRANCH 36 38
ENDBRANCH 5 36
ENDBRANCH 3 5
BRANCH 1 40
ATOM     40  CA  TRP D 340      25.715  35.871  82.108  1.00 18.72 LIG 0.18  C 
BRANCH 40 41
ATOM     41  CB  TRP D 340      25.189  34.883  83.148  1.00 19.00 LIG 0.07  C 
BRANCH 41 42
ATOM     42  CG  TRP D 340      25.208  33.457  82.722  1.00 19.22 LIG-0.03  A 
ATOM     43  CD2 TRP D 340      25.807  32.372  83.427  1.00 20.18 LIG-0.00  A 
ATOM     44  CE3 TRP D 340      26.484  32.267  84.647  1.00 18.70 LIG 0.01  A 
ATOM     45  CE2 TRP D 340      25.620  31.211  82.643  1.00 18.84 LIG 0.04  A 
ATOM     46  CZ3 TRP D 340      26.955  31.018  85.044  1.00 20.55 LIG 0.00  A 
ATOM     47  CH2 TRP D 340      26.745  29.882  84.241  1.00 19.52 LIG 0.00  A 
ATOM     48  CZ2 TRP D 340      26.087  29.957  83.040  1.00 19.79 LIG 0.03  A 
ATOM     49  NE1 TRP D 340      24.934  31.578  81.513  1.00 21.77 LIG-0.36  N 
ATOM     50  CD1 TRP D 340      24.705  32.935  81.566  1.00 20.48 LIG 0.10  A 
ATOM     51 HE1  TRP D 340      24.689  31.051  80.880  1.00 21.77 LIG 0.17  HD
ENDBRANCH 41 42
ENDBRANCH 40 41
BRANCH 40 52
ATOM     52  N   TRP D 340      26.789  36.692  82.677  1.00 22.23 LIG-0.35  N 
ATOM     53  C   ASP D 339      27.641  37.388  81.925  1.00 26.49 LIG 0.24  C 
ATOM     54 O    ASP D 339      27.594  37.409  80.683  1.00 27.22 LIG-0.27  OA
ATOM     55 H    TRP D 340      26.817  36.682  83.536  1.00 22.23 LIG 0.16  HD
BRANCH 53 56
ATOM     56  CA  ASP D 339      28.717  38.184  82.674  1.00 29.46 LIG 0.19  C 
BRANCH 56 57
ATOM     57  CB  ASP D 339      28.120  39.502  83.173  1.00 30.27 LIG 0.15  C 
BRANCH 57 58
ATOM     58  CG  ASP D 339      27.749  40.462  82.039  1.00 32.94 LIG 0.17  C 
ATOM     59 OD1  ASP D 339      28.645  41.212  81.595  1.00 36.53 LIG-0.65  OA
ATOM     60 OD2  ASP D 339      26.571  40.483  81.602  1.00 35.99 LIG-0.65  OA
ENDBRANCH 57 58
ENDBRANCH 56 57
BRANCH 56 61
ATOM     61  N   ASP D 339      29.861  38.464  81.811  1.00 31.22 LIG-0.34  N 
ATOM     62  C   ASP D 338      30.996  37.768  81.843  1.00 32.92 LIG 0.26  C 
ATOM     63 O    ASP D 338      31.126  36.695  82.442  1.00 33.60 LIG-0.27  OA
ATOM     64 H    ASP D 339      29.733  39.126  81.277  1.00 31.22 LIG 0.16  HD
BRANCH 62 65
ATOM     65  CA  ASP D 338      32.158  38.367  81.051  1.00 33.82 LIG 0.41  C 
ATOM     66  N   ASP D 338      32.759  37.347  80.132  1.00 34.02 LIG 0.61  N 
BRANCH 65 67
ATOM     67  CB  ASP D 338      31.683  39.596  80.260  1.00 34.49 LIG 0.16  C 
BRANCH 67 68
ATOM     68  CG  ASP D 338      30.981  39.229  78.959  1.00 35.92 LIG 0.17  C 
ATOM     69 OD2  ASP D 338      31.638  39.277  77.900  1.00 39.23 LIG-0.65  OA
ATOM     70 OD1  ASP D 338      29.770  38.902  78.984  1.00 38.97 LIG-0.65  OA
ENDBRANCH 67 68
ENDBRANCH 65 67
ENDBRANCH 62 65
ENDBRANCH 56 61
ENDBRANCH 53 56
ENDBRANCH 40 52
ENDBRANCH 1 40
TORSDOF 27
ENDMDL
MODEL 20
USER: ADFR SOLUTION from run 10
USER: SCORE 21.903050 LL:  -5.628 LR: -17.676 RR:   0.000 FEB:  -9.622
USER: RMSD 3.721589
USER: SEED 474955
USER: STATUS no improvement in best in 8 clusters for 5 generations
USER: GENES 29
USER: genes 0 Translation |==|  0.54767 0.50976 0.55733
USER: genes 1 Rotation |==|  0.66819 0.46376 0.65207 0.94415
USER: genes 2 Torsion [C]-N--CA-[CB] |==|  0.50062
USER: genes 3 Torsion [N]-CA--C-[N] |==|  0.38908
USER: genes 4 Torsion [C]-N--CA-[C] |==|  0.76191
USER: genes 5 Torsion [N]-CA--C-[N] |==|  0.26249
USER: genes 6 Torsion [C]-N--CA-[C] |==|  0.84243
USER: genes 7 Torsion [N]-CA--C-[N] |==|  0.93207
USER: genes 8 Torsion [C]-N--CA-[C] |==|  0.53361
USER: genes 9 Torsion [N]-CA--C-[O] |==|  0.07016
USER: genes 10 Torsion [N]-CA--CB-[OG] |==|  0.73475
USER: genes 11 Torsion [CA]-CB--OG-[HG] |==|  0.47238
USER: genes 12 Torsion [N]-CA--CB-[CG] |==|  0.66668
USER: genes 13 Torsion [CA]-CB--CG-[CD2] |==|  0.84259
USER: genes 14 Torsion [N]-CA--CB-[CG] |==|  0.77147
USER: genes 15 Torsion [CA]-CB--CG-[CD2] |==|  0.71162
USER: genes 16 Torsion [N]-CA--CB-[OG1] |==|  0.08572
USER: genes 17 Torsion [CA]-CB--OG1-[HG1] |==|  0.07491
USER: genes 18 Torsion [N]-C--CA-[N] |==|  0.20254
USER: genes 19 Torsion [C]-CA--CB-[CG] |==|  0.27194
USER: genes 20 Torsion [CA]-CB--CG-[CD2] |==|  0.38143
USER: genes 21 Torsion [C]-CA--N-[C] |==|  0.73391
USER: genes 22 Torsion [N]-C--CA-[N] |==|  0.86719
USER: genes 23 Torsion [C]-CA--CB-[CG] |==|  0.75727
USER: genes 24 Torsion [CA]-CB--CG-[OD1] |==|  0.79864
USER: genes 25 Torsion [C]-CA--N-[C] |==|  0.81862
USER: genes 26 Torsion [N]-C--CA-[N] |==|  0.08202
USER: genes 27 Torsion [C]-CA--CB-[CG] |==|  0.80355
USER: genes 28 Torsion [CA]-CB--CG-[OD2] |==|  0.53052
ROOT
ATOM      1  C   TRP D 340      24.343  36.093  81.656  1.00 16.52 LIG 0.24  C 
ATOM      2 O    TRP D 340      23.293  35.839  82.250  1.00 16.60 LIG-0.27  OA
ATOM      3  N   THR D 341      24.387  36.775  80.519  1.00 13.22 LIG-0.34  N 
ATOM      4 H    THR D 341      25.122  36.959  80.112  1.00 13.22 LIG 0.16  HD
ENDROOT
BRANCH 3 5
ATOM      5  CA  THR D 341      23.204  37.283  79.838  1.00 12.53 LIG 0.20  C 
BRANCH 5 6
ATOM      6  C   THR D 341      22.244  36.138  79.524  1.00 12.10 LIG 0.24  C 
ATOM      7 O    THR D 341      22.661  35.039  79.162  1.00 10.92 LIG-0.27  OA
ATOM      8  N   HIS D 342      20.951  36.386  79.690  1.00 12.26 LIG-0.35  N 
ATOM      9 H    HIS D 342      20.634  37.134  79.974  1.00 12.26 LIG 0.16  HD
BRANCH 8 10
ATOM     10  CA  HIS D 342      19.942  35.373  79.393  1.00 12.78 LIG 0.18  C 
BRANCH 10 11
ATOM     11  C   HIS D 342      19.596  35.436  77.921  1.00 14.51 LIG 0.24  C 
ATOM     12  N   LEU D 343      20.253  34.608  77.113  1.00 15.48 LIG-0.35  N 
ATOM     13 H    LEU D 343      20.802  34.006  77.389  1.00 15.48 LIG 0.16  HD
ATOM     14 O    HIS D 342      18.722  36.224  77.517  1.00 16.02 LIG-0.27  OA
BRANCH 12 15
ATOM     15  CA  LEU D 343      20.092  34.655  75.658  1.00 16.72 LIG 0.18  C 
BRANCH 15 16
ATOM     16  C   LEU D 343      18.649  34.484  75.188  1.00 19.19 LIG 0.24  C 
ATOM     17  N   SER D 344      17.817  33.832  76.017  1.00 21.37 LIG-0.34  N 
ATOM     18 H    SER D 344      18.092  33.360  76.680  1.00 21.37 LIG 0.16  HD
ATOM     19 O    LEU D 343      18.300  34.939  74.111  1.00 19.56 LIG-0.27  OA
BRANCH 17 20
ATOM     20  CA  SER D 344      16.343  33.857  75.878  1.00 23.14 LIG 0.19  C 
BRANCH 20 21
ATOM     21  C   SER D 344      15.662  33.278  77.126  1.00 24.18 LIG 0.22  C 
ATOM     22 O    SER D 344      16.228  33.293  78.233  1.00 25.35 LIG-0.29  OA
ENDBRANCH 20 21
BRANCH 20 23
ATOM     23  CB  SER D 344      15.880  33.073  74.649  1.00 23.66 LIG 0.20  C 
BRANCH 23 24
ATOM     24 OG   SER D 344      15.689  33.935  73.525  1.00 25.03 LIG-0.40  OA
ATOM     25 HG   SER D 344      15.569  33.473  72.834  1.00 25.03 LIG 0.21  HD
ENDBRANCH 23 24
ENDBRANCH 20 23
ENDBRANCH 17 20
ENDBRANCH 15 16
BRANCH 15 26
ATOM     26  CB  LEU D 343      20.941  33.563  74.984  1.00 15.83 LIG 0.04  C 
BRANCH 26 27
ATOM     27  CG  LEU D 343      21.997  34.032  74.003  1.00 14.86 LIG-0.02  C 
ATOM     28  CD1 LEU D 343      22.734  32.836  73.422  1.00 12.95 LIG 0.01  C 
ATOM     29  CD2 LEU D 343      21.346  34.885  72.884  1.00 12.95 LIG 0.01  C 
ENDBRANCH 26 27
ENDBRANCH 15 26
ENDBRANCH 12 15
ENDBRANCH 10 11
BRANCH 10 30
ATOM     30  CB  HIS D 342      18.676  35.625  80.226  1.00 12.90 LIG 0.10  C 
BRANCH 30 31
ATOM     31  CG  HIS D 342      18.754  35.088  81.618  1.00 12.99 LIG 0.06  A 
ATOM     32  CD2 HIS D 342      18.192  33.983  82.165  1.00 12.88 LIG 0.14  A 
ATOM     33 NE2  HIS D 342      18.573  33.946  83.482  1.00 14.80 LIG-0.25  NA
ATOM     34  CE1 HIS D 342      19.336  34.989  83.742  1.00 13.21 LIG 0.23  A 
ATOM     35 ND1  HIS D 342      19.456  35.700  82.634  1.00 14.49 LIG-0.24  NA
ENDBRANCH 30 31
ENDBRANCH 10 30
ENDBRANCH 8 10
ENDBRANCH 5 6
BRANCH 5 36
ATOM     36  CB  THR D 341      23.599  38.026  78.540  1.00 12.70 LIG 0.15  C 
ATOM     37  CG2 THR D 341      23.825  39.528  78.795  1.00 14.15 LIG 0.04  C 
BRANCH 36 38
ATOM     38 OG1  THR D 341      24.790  37.432  78.004  1.00 14.08 LIG-0.39  OA
ATOM     39 HG1  THR D 341      24.834  36.629  78.243  1.00 14.08 LIG 0.21  HD
ENDBRANCH 36 38
ENDBRANCH 5 36
ENDBRANCH 3 5
BRANCH 1 40
ATOM     40  CA  TRP D 340      25.678  35.580  82.183  1.00 18.72 LIG 0.18  C 
BRANCH 40 41
ATOM     41  CB  TRP D 340      25.390  34.537  83.262  1.00 19.00 LIG 0.07  C 
BRANCH 41 42
ATOM     42  CG  TRP D 340      25.451  33.124  82.800  1.00 19.22 LIG-0.03  A 
ATOM     43  CD2 TRP D 340      26.051  32.033  83.494  1.00 20.18 LIG-0.00  A 
ATOM     44  CE3 TRP D 340      26.694  31.908  84.731  1.00 18.70 LIG 0.01  A 
ATOM     45  CE2 TRP D 340      25.913  30.889  82.674  1.00 18.84 LIG 0.04  A 
ATOM     46  CZ3 TRP D 340      27.179  30.658  85.109  1.00 20.55 LIG 0.00  A 
ATOM     47  CH2 TRP D 340      27.017  29.541  84.270  1.00 19.52 LIG 0.00  A 
ATOM     48  CZ2 TRP D 340      26.394  29.635  83.053  1.00 19.79 LIG 0.03  A 
ATOM     49  NE1 TRP D 340      25.253  31.273  81.534  1.00 21.77 LIG-0.36  N 
ATOM     50  CD1 TRP D 340      24.994  32.623  81.615  1.00 20.48 LIG 0.10  A 
ATOM     51 HE1  TRP D 340      25.038  30.758  80.880  1.00 21.77 LIG 0.17  HD
ENDBRANCH 41 42
ENDBRANCH 40 41
BRANCH 40 52
ATOM     52  N   TRP D 340      26.503  36.665  82.726  1.00 22.23 LIG-0.35  N 
ATOM     53  C   ASP D 339      27.446  37.280  82.013  1.00 26.49 LIG 0.24  C 
ATOM     54 O    ASP D 339      27.701  36.994  80.830  1.00 27.22 LIG-0.27  OA
ATOM     55 H    TRP D 340      26.321  36.866  83.541  1.00 22.23 LIG 0.16  HD
BRANCH 53 56
ATOM     56  CA  ASP D 339      28.230  38.384  82.731  1.00 29.46 LIG 0.19  C 
BRANCH 56 57
ATOM     57  CB  ASP D 339      29.194  37.751  83.738  1.00 30.27 LIG 0.15  C 
BRANCH 57 58
ATOM     58  CG  ASP D 339      28.557  37.506  85.109  1.00 32.94 LIG 0.17  C 
ATOM     59 OD1  ASP D 339      28.331  38.499  85.832  1.00 36.53 LIG-0.65  OA
ATOM     60 OD2  ASP D 339      28.295  36.332  85.472  1.00 35.99 LIG-0.65  OA
ENDBRANCH 57 58
ENDBRANCH 56 57
BRANCH 56 61
ATOM     61  N   ASP D 339      27.333  39.301  83.428  1.00 31.22 LIG-0.34  N 
ATOM     62  C   ASP D 338      26.462  40.094  82.806  1.00 32.92 LIG 0.26  C 
ATOM     63 O    ASP D 338      26.170  39.988  81.610  1.00 33.60 LIG-0.27  OA
ATOM     64 H    ASP D 339      27.420  39.281  84.283  1.00 31.22 LIG 0.16  HD
BRANCH 62 65
ATOM     65  CA  ASP D 338      25.796  41.155  83.682  1.00 33.82 LIG 0.41  C 
ATOM     66  N   ASP D 338      26.701  41.567  84.802  1.00 34.02 LIG 0.61  N 
BRANCH 65 67
ATOM     67  CB  ASP D 338      25.397  42.371  82.831  1.00 34.49 LIG 0.16  C 
BRANCH 67 68
ATOM     68  CG  ASP D 338      26.597  43.183  82.358  1.00 35.92 LIG 0.17  C 
ATOM     69 OD2  ASP D 338      26.387  44.298  81.841  1.00 39.23 LIG-0.65  OA
ATOM     70 OD1  ASP D 338      27.751  42.709  82.489  1.00 38.97 LIG-0.65  OA
ENDBRANCH 67 68
ENDBRANCH 65 67
ENDBRANCH 62 65
ENDBRANCH 56 61
ENDBRANCH 53 56
ENDBRANCH 40 52
ENDBRANCH 1 40
TORSDOF 27
ENDMDL
MODEL 21
USER: ADFR SOLUTION from run 166
USER: SCORE 20.667028 LL:  -5.352 LR: -17.479 RR:   0.000 FEB:  -9.425
USER: RMSD 3.778523
USER: SEED 165
USER: STATUS no improvement in best in 2 clusters for 5 generations
USER: GENES 29
USER: genes 0 Translation |==|  0.53233 0.53357 0.55439
USER: genes 1 Rotation |==|  0.46046 0.55800 0.50192 0.99504
USER: genes 2 Torsion [C]-N--CA-[CB] |==|  0.35383
USER: genes 3 Torsion [N]-CA--C-[N] |==|  0.50185
USER: genes 4 Torsion [C]-N--CA-[C] |==|  0.60335
USER: genes 5 Torsion [N]-CA--C-[N] |==|  0.41520
USER: genes 6 Torsion [C]-N--CA-[C] |==|  0.14366
USER: genes 7 Torsion [N]-CA--C-[N] |==|  0.11694
USER: genes 8 Torsion [C]-N--CA-[C] |==|  0.55581
USER: genes 9 Torsion [N]-CA--C-[O] |==|  0.54372
USER: genes 10 Torsion [N]-CA--CB-[OG] |==|  0.05396
USER: genes 11 Torsion [CA]-CB--OG-[HG] |==|  0.39553
USER: genes 12 Torsion [N]-CA--CB-[CG] |==|  0.80328
USER: genes 13 Torsion [CA]-CB--CG-[CD2] |==|  0.72609
USER: genes 14 Torsion [N]-CA--CB-[CG] |==|  0.79254
USER: genes 15 Torsion [CA]-CB--CG-[CD2] |==|  0.23251
USER: genes 16 Torsion [N]-CA--CB-[OG1] |==|  0.93200
USER: genes 17 Torsion [CA]-CB--OG1-[HG1] |==|  0.09386
USER: genes 18 Torsion [N]-C--CA-[N] |==|  0.33567
USER: genes 19 Torsion [C]-CA--CB-[CG] |==|  0.41047
USER: genes 20 Torsion [CA]-CB--CG-[CD2] |==|  0.85383
USER: genes 21 Torsion [C]-CA--N-[C] |==|  0.79500
USER: genes 22 Torsion [N]-C--CA-[N] |==|  0.38122
USER: genes 23 Torsion [C]-CA--CB-[CG] |==|  0.61120
USER: genes 24 Torsion [CA]-CB--CG-[OD1] |==|  0.63856
USER: genes 25 Torsion [C]-CA--N-[C] |==|  0.66361
USER: genes 26 Torsion [N]-C--CA-[N] |==|  0.14097
USER: genes 27 Torsion [C]-CA--CB-[CG] |==|  0.39421
USER: genes 28 Torsion [CA]-CB--CG-[OD2] |==|  0.41265
ROOT
ATOM      1  C   TRP D 340      23.917  36.558  81.577  1.00 16.52 LIG 0.24  C 
ATOM      2 O    TRP D 340      23.268  37.438  82.146  1.00 16.60 LIG-0.27  OA
ATOM      3  N   THR D 341      23.617  36.102  80.368  1.00 13.22 LIG-0.34  N 
ATOM      4 H    THR D 341      24.077  35.494  79.969  1.00 13.22 LIG 0.16  HD
ENDROOT
BRANCH 3 5
ATOM      5  CA  THR D 341      22.484  36.576  79.587  1.00 12.53 LIG 0.20  C 
BRANCH 5 6
ATOM      6  C   THR D 341      21.418  35.485  79.487  1.00 12.10 LIG 0.24  C 
ATOM      7 O    THR D 341      21.561  34.403  80.054  1.00 10.92 LIG-0.27  OA
ATOM      8  N   HIS D 342      20.330  35.781  78.787  1.00 12.26 LIG-0.35  N 
ATOM      9 H    HIS D 342      20.190  36.541  78.409  1.00 12.26 LIG 0.16  HD
BRANCH 8 10
ATOM     10  CA  HIS D 342      19.261  34.805  78.604  1.00 12.78 LIG 0.18  C 
BRANCH 10 11
ATOM     11  C   HIS D 342      18.697  34.945  77.206  1.00 14.51 LIG 0.24  C 
ATOM     12  N   LEU D 343      18.214  33.842  76.640  1.00 15.48 LIG-0.35  N 
ATOM     13 H    LEU D 343      18.145  33.087  77.045  1.00 15.48 LIG 0.16  HD
ATOM     14 O    HIS D 342      18.686  36.055  76.645  1.00 16.02 LIG-0.27  OA
BRANCH 12 15
ATOM     15  CA  LEU D 343      17.749  33.825  75.251  1.00 16.72 LIG 0.18  C 
BRANCH 15 16
ATOM     16  C   LEU D 343      18.757  34.385  74.251  1.00 19.19 LIG 0.24  C 
ATOM     17  N   SER D 344      20.041  34.029  74.424  1.00 21.37 LIG-0.34  N 
ATOM     18 H    SER D 344      20.334  33.674  75.151  1.00 21.37 LIG 0.16  HD
ATOM     19 O    LEU D 343      18.381  35.110  73.345  1.00 19.56 LIG-0.27  OA
BRANCH 17 20
ATOM     20  CA  SER D 344      21.084  34.205  73.388  1.00 23.14 LIG 0.19  C 
BRANCH 20 21
ATOM     21  C   SER D 344      22.287  33.290  73.654  1.00 24.18 LIG 0.22  C 
ATOM     22 O    SER D 344      23.378  33.480  73.088  1.00 25.35 LIG-0.29  OA
ENDBRANCH 20 21
BRANCH 20 23
ATOM     23  CB  SER D 344      21.567  35.656  73.318  1.00 23.66 LIG 0.20  C 
BRANCH 23 24
ATOM     24 OG   SER D 344      21.250  36.367  74.516  1.00 25.03 LIG-0.40  OA
ATOM     25 HG   SER D 344      21.878  36.891  74.706  1.00 25.03 LIG 0.21  HD
ENDBRANCH 23 24
ENDBRANCH 20 23
ENDBRANCH 17 20
ENDBRANCH 15 16
BRANCH 15 26
ATOM     26  CB  LEU D 343      16.444  34.629  75.107  1.00 15.83 LIG 0.04  C 
BRANCH 26 27
ATOM     27  CG  LEU D 343      15.199  34.019  75.720  1.00 14.86 LIG-0.02  C 
ATOM     28  CD1 LEU D 343      14.382  35.096  76.416  1.00 12.95 LIG 0.01  C 
ATOM     29  CD2 LEU D 343      14.364  33.301  74.629  1.00 12.95 LIG 0.01  C 
ENDBRANCH 26 27
ENDBRANCH 15 26
ENDBRANCH 12 15
ENDBRANCH 10 11
BRANCH 10 30
ATOM     30  CB  HIS D 342      18.143  35.043  79.630  1.00 12.90 LIG 0.10  C 
BRANCH 30 31
ATOM     31  CG  HIS D 342      18.491  34.598  81.013  1.00 12.99 LIG 0.06  A 
ATOM     32  CD2 HIS D 342      19.181  35.232  81.991  1.00 12.88 LIG 0.14  A 
ATOM     33 NE2  HIS D 342      19.224  34.385  83.070  1.00 14.80 LIG-0.25  NA
ATOM     34  CE1 HIS D 342      18.591  33.269  82.769  1.00 13.21 LIG 0.23  A 
ATOM     35 ND1  HIS D 342      18.144  33.367  81.530  1.00 14.49 LIG-0.24  NA
ENDBRANCH 30 31
ENDBRANCH 10 30
ENDBRANCH 8 10
ENDBRANCH 5 6
BRANCH 5 36
ATOM     36  CB  THR D 341      22.939  37.013  78.175  1.00 12.70 LIG 0.15  C 
ATOM     37  CG2 THR D 341      22.104  38.198  77.653  1.00 14.15 LIG 0.04  C 
BRANCH 36 38
ATOM     38 OG1  THR D 341      24.327  37.369  78.219  1.00 14.08 LIG-0.39  OA
ATOM     39 HG1  THR D 341      24.723  36.882  78.777  1.00 14.08 LIG 0.21  HD
ENDBRANCH 36 38
ENDBRANCH 5 36
ENDBRANCH 3 5
BRANCH 1 40
ATOM     40  CA  TRP D 340      25.099  35.891  82.271  1.00 18.72 LIG 0.18  C 
BRANCH 40 41
ATOM     41  CB  TRP D 340      24.581  35.218  83.542  1.00 19.00 LIG 0.07  C 
BRANCH 41 42
ATOM     42  CG  TRP D 340      25.302  33.976  83.931  1.00 19.22 LIG-0.03  A 
ATOM     43  CD2 TRP D 340      25.547  32.844  83.099  1.00 20.18 LIG-0.00  A 
ATOM     44  CE3 TRP D 340      25.258  32.545  81.762  1.00 18.70 LIG 0.01  A 
ATOM     45  CE2 TRP D 340      26.224  31.885  83.886  1.00 18.84 LIG 0.04  A 
ATOM     46  CZ3 TRP D 340      25.648  31.308  81.255  1.00 20.55 LIG 0.00  A 
ATOM     47  CH2 TRP D 340      26.328  30.380  82.066  1.00 19.52 LIG 0.00  A 
ATOM     48  CZ2 TRP D 340      26.620  30.646  83.379  1.00 19.79 LIG 0.03  A 
ATOM     49  NE1 TRP D 340      26.386  32.416  85.140  1.00 21.77 LIG-0.36  N 
ATOM     50  CD1 TRP D 340      25.814  33.669  85.159  1.00 20.48 LIG 0.10  A 
ATOM     51 HE1  TRP D 340      26.779  32.033  85.802  1.00 21.77 LIG 0.17  HD
ENDBRANCH 41 42
ENDBRANCH 40 41
BRANCH 40 52
ATOM     52  N   TRP D 340      26.155  36.857  82.596  1.00 22.23 LIG-0.35  N 
ATOM     53  C   ASP D 339      26.962  37.380  81.674  1.00 26.49 LIG 0.24  C 
ATOM     54 O    ASP D 339      26.886  37.103  80.465  1.00 27.22 LIG-0.27  OA
ATOM     55 H    TRP D 340      26.203  37.052  83.432  1.00 22.23 LIG 0.16  HD
BRANCH 53 56
ATOM     56  CA  ASP D 339      28.024  38.363  82.179  1.00 29.46 LIG 0.19  C 
BRANCH 56 57
ATOM     57  CB  ASP D 339      27.571  39.796  81.886  1.00 30.27 LIG 0.15  C 
BRANCH 57 58
ATOM     58  CG  ASP D 339      28.711  40.703  81.415  1.00 32.94 LIG 0.17  C 
ATOM     59 OD1  ASP D 339      28.849  41.808  81.983  1.00 36.53 LIG-0.65  OA
ATOM     60 OD2  ASP D 339      29.456  40.328  80.475  1.00 35.99 LIG-0.65  OA
ENDBRANCH 57 58
ENDBRANCH 56 57
BRANCH 56 61
ATOM     61  N   ASP D 339      29.314  38.122  81.538  1.00 31.22 LIG-0.34  N 
ATOM     62  C   ASP D 338      30.426  37.825  82.209  1.00 32.92 LIG 0.26  C 
ATOM     63 O    ASP D 338      30.443  37.516  83.406  1.00 33.60 LIG-0.27  OA
ATOM     64 H    ASP D 339      29.288  38.189  80.681  1.00 31.22 LIG 0.16  HD
BRANCH 62 65
ATOM     65  CA  ASP D 338      31.716  37.857  81.391  1.00 33.82 LIG 0.41  C 
ATOM     66  N   ASP D 338      31.836  39.143  80.631  1.00 34.02 LIG 0.61  N 
BRANCH 65 67
ATOM     67  CB  ASP D 338      32.932  37.656  82.310  1.00 34.49 LIG 0.16  C 
BRANCH 67 68
ATOM     68  CG  ASP D 338      34.021  36.799  81.675  1.00 35.92 LIG 0.17  C 
ATOM     69 OD2  ASP D 338      35.207  37.028  81.985  1.00 39.23 LIG-0.65  OA
ATOM     70 OD1  ASP D 338      33.700  35.903  80.858  1.00 38.97 LIG-0.65  OA
ENDBRANCH 67 68
ENDBRANCH 65 67
ENDBRANCH 62 65
ENDBRANCH 56 61
ENDBRANCH 53 56
ENDBRANCH 40 52
ENDBRANCH 1 40
TORSDOF 27
ENDMDL
