MODEL 1
USER: ADFR SOLUTION from run 28
USER: SCORE 18.510880 LL:  -4.146 LR: -16.040 RR:   0.000 FEB:  -9.179
USER: RMSD 1.267142
USER: SEED 27
USER: STATUS no improvement in best in 1 clusters for 5 generations
USER: GENES 25
USER: genes 0 Translation |==|  0.54949 0.42331 0.49985
USER: genes 1 Rotation |==|  0.50671 0.51874 0.48639 0.99942
USER: genes 2 Torsion [N]-C--CA-[N] |==|  0.36932
USER: genes 3 Torsion [C]-CA--N-[C] |==|  0.61816
USER: genes 4 Torsion [N]-C--CA-[N] |==|  0.39030
USER: genes 5 Torsion [C]-CA--N-[C] |==|  0.75234
USER: genes 6 Torsion [N]-C--CA-[CB] |==|  0.75772
USER: genes 7 Torsion [N]-C--CA-[N] |==|  0.34920
USER: genes 8 Torsion [C]-CA--CB-[CG2] |==|  0.32537
USER: genes 9 Torsion [CA]-CB--OG1-[HG1] |==|  0.15008
USER: genes 10 Torsion [C]-CA--CB-[CG2] |==|  0.23206
USER: genes 11 Torsion [CA]-CB--CG1-[CD1] |==|  0.46357
USER: genes 12 Torsion [C]-N--CA-[CB] |==|  0.27444
USER: genes 13 Torsion [N]-CA--CB-[CG] |==|  0.13873
USER: genes 14 Torsion [CA]-CB--CG-[CD] |==|  0.24854
USER: genes 15 Torsion [CB]-CG--CD-[OE2] |==|  0.80248
USER: genes 16 Torsion [N]-CA--C-[N] |==|  0.45405
USER: genes 17 Torsion [C]-N--CA-[C] |==|  0.76585
USER: genes 18 Torsion [N]-CA--CB-[CG] |==|  0.50441
USER: genes 19 Torsion [CA]-CB--CG-[CD] |==|  0.41183
USER: genes 20 Torsion [CB]-CG--CD-[OE1] |==|  0.94591
USER: genes 21 Torsion [N]-CA--C-[N] |==|  0.26681
USER: genes 22 Torsion [C]-N--CA-[C] |==|  0.76985
USER: genes 23 Torsion [N]-CA--C-[O] |==|  0.09156
USER: genes 24 Torsion [N]-CA--CB-[CG1] |==|  0.22010
ROOT
ATOM      1  C   ILE C 637       3.491   4.816  91.714  1.00 71.80 LIG 0.24  C 
ATOM      2 O    ILE C 637       4.486   4.563  91.033  1.00 71.76 LIG-0.27  OA
ATOM      3  N   GLU C 638       3.552   5.242  92.975  1.00 72.25 LIG-0.35  N 
ATOM      4 H    GLU C 638       2.852   5.424  93.441  1.00 72.25 LIG 0.16  HD
ENDROOT
BRANCH 1 5
ATOM      5  CA  ILE C 637       2.082   4.659  91.131  1.00 71.40 LIG 0.18  C 
BRANCH 5 6
ATOM      6  N   ILE C 637       1.989   5.267  89.800  1.00 71.04 LIG-0.35  N 
ATOM      7 H    ILE C 637       2.663   5.112  89.289  1.00 71.04 LIG 0.16  HD
ATOM      8  C   THR C 636       0.933   5.997  89.441  1.00 70.97 LIG 0.24  C 
ATOM      9 O    THR C 636      -0.047   6.166  90.173  1.00 70.72 LIG-0.27  OA
BRANCH 8 10
ATOM     10  CA  THR C 636       0.968   6.626  88.044  1.00 71.02 LIG 0.20  C 
BRANCH 10 11
ATOM     11  N   THR C 636      -0.373   6.537  87.441  1.00 70.97 LIG-0.34  N 
ATOM     12  C   PRO C 635      -0.785   5.495  86.715  1.00 71.03 LIG 0.24  C 
ATOM     13 O    PRO C 635      -0.040   4.575  86.357  1.00 70.76 LIG-0.27  OA
ATOM     14 H    THR C 636      -0.868   7.222  87.601  1.00 70.97 LIG 0.16  HD
BRANCH 12 15
ATOM     15  CA  PRO C 635      -2.270   5.487  86.316  1.00 71.21 LIG 0.18  C 
ATOM     16  N   PRO C 635      -2.568   4.664  85.129  1.00 71.31 LIG-0.34  N 
ATOM     17  CD  PRO C 635      -3.536   3.591  85.431  1.00 71.36 LIG 0.13  C 
ATOM     18  C   GLY C 634      -2.082   4.941  83.901  1.00 71.43 LIG 0.25  C 
ATOM     19  CG  PRO C 635      -4.154   4.033  86.722  1.00 71.49 LIG 0.02  C 
ATOM     20  CB  PRO C 635      -3.105   4.828  87.426  1.00 71.24 LIG 0.04  C 
ATOM     21 O    GLY C 634      -1.392   5.938  83.661  1.00 71.42 LIG-0.27  OA
BRANCH 18 22
ATOM     22  CA  GLY C 634      -2.424   3.967  82.786  1.00 71.52 LIG 0.47  C 
ATOM     23  N   GLY C 634      -3.058   4.639  81.612  1.00 71.59 LIG 0.61  N 
ENDBRANCH 18 22
ENDBRANCH 12 15
ENDBRANCH 10 11
BRANCH 10 24
ATOM     24  CB  THR C 636       1.466   8.104  88.160  1.00 71.07 LIG 0.15  C 
ATOM     25  CG2 THR C 636       2.788   8.315  87.411  1.00 70.82 LIG 0.04  C 
BRANCH 24 26
ATOM     26 OG1  THR C 636       0.478   8.999  87.633  1.00 71.09 LIG-0.39  OA
ATOM     27 HG1  THR C 636      -0.259   8.857  88.011  1.00 71.09 LIG 0.21  HD
ENDBRANCH 24 26
ENDBRANCH 10 24
ENDBRANCH 8 10
ENDBRANCH 5 6
BRANCH 5 28
ATOM     28  CB  ILE C 637       1.635   3.156  91.138  1.00 71.49 LIG 0.01  C 
ATOM     29  CG2 ILE C 637       1.060   2.765  92.517  1.00 71.22 LIG 0.01  C 
BRANCH 28 30
ATOM     30  CG1 ILE C 637       0.618   2.877  90.014  1.00 71.24 LIG 0.00  C 
ATOM     31  CD1 ILE C 637       0.344   1.403  89.717  1.00 71.20 LIG 0.01  C 
ENDBRANCH 28 30
ENDBRANCH 5 28
ENDBRANCH 1 5
BRANCH 3 32
ATOM     32  CA  GLU C 638       4.807   5.449  93.707  1.00 72.93 LIG 0.18  C 
BRANCH 32 33
ATOM     33  CB  GLU C 638       5.198   6.936  93.696  1.00 72.95 LIG 0.04  C 
BRANCH 33 34
ATOM     34  CG  GLU C 638       4.069   7.893  94.114  1.00 74.36 LIG 0.12  C 
BRANCH 34 35
ATOM     35  CD  GLU C 638       4.027   8.162  95.611  1.00 76.05 LIG 0.17  C 
ATOM     36 OE2  GLU C 638       3.651   7.242  96.372  1.00 76.25 LIG-0.65  OA
ATOM     37 OE1  GLU C 638       4.355   9.295  96.027  1.00 76.85 LIG-0.65  OA
ENDBRANCH 34 35
ENDBRANCH 33 34
ENDBRANCH 32 33
BRANCH 32 38
ATOM     38  C   GLU C 638       4.653   4.959  95.154  1.00 72.91 LIG 0.24  C 
ATOM     39 O    GLU C 638       3.528   4.781  95.625  1.00 72.88 LIG-0.27  OA
ATOM     40  N   GLU C 639       5.765   4.755  95.862  1.00 73.09 LIG-0.35  N 
ATOM     41 H    GLU C 639       6.563   4.854  95.557  1.00 73.09 LIG 0.16  HD
BRANCH 40 42
ATOM     42  CA  GLU C 639       5.686   4.328  97.268  1.00 73.29 LIG 0.18  C 
BRANCH 42 43
ATOM     43  CB  GLU C 639       6.897   3.478  97.677  1.00 73.41 LIG 0.04  C 
BRANCH 43 44
ATOM     44  CG  GLU C 639       6.819   2.987  99.133  1.00 73.70 LIG 0.12  C 
BRANCH 44 45
ATOM     45  CD  GLU C 639       7.474   1.639  99.370  1.00 74.11 LIG 0.17  C 
ATOM     46 OE1  GLU C 639       7.681   0.875  98.401  1.00 74.46 LIG-0.65  OA
ATOM     47 OE2  GLU C 639       7.776   1.342 100.544  1.00 74.46 LIG-0.65  OA
ENDBRANCH 44 45
ENDBRANCH 43 44
ENDBRANCH 42 43
BRANCH 42 48
ATOM     48  C   GLU C 639       5.502   5.504  98.225  1.00 73.41 LIG 0.24  C 
ATOM     49  N   VAL C 640       4.251   5.776  98.596  1.00 73.52 LIG-0.35  N 
ATOM     50 H    VAL C 640       3.570   5.316  98.340  1.00 73.52 LIG 0.16  HD
ATOM     51 O    GLU C 639       6.478   6.147  98.614  1.00 73.53 LIG-0.27  OA
BRANCH 49 52
ATOM     52  CA  VAL C 640       3.915   6.892  99.482  1.00 73.62 LIG 0.17  C 
BRANCH 52 53
ATOM     53  C   VAL C 640       4.109   6.508 100.953  1.00 73.72 LIG 0.22  C 
ATOM     54 O    VAL C 640       4.996   5.721 101.295  1.00 73.67 LIG-0.29  OA
ENDBRANCH 52 53
BRANCH 52 55
ATOM     55  CB  VAL C 640       2.464   7.404  99.229  1.00 73.60 LIG 0.01  C 
ATOM     56  CG1 VAL C 640       1.427   6.504  99.900  1.00 73.34 LIG 0.01  C 
ATOM     57  CG2 VAL C 640       2.314   8.843  99.698  1.00 74.00 LIG 0.01  C 
ENDBRANCH 52 55
ENDBRANCH 49 52
ENDBRANCH 42 48
ENDBRANCH 40 42
ENDBRANCH 32 38
ENDBRANCH 3 32
TORSDOF 23
ENDMDL
MODEL 2
USER: ADFR SOLUTION from run 199
USER: SCORE 18.964504 LL:  -4.680 LR: -15.752 RR:   0.000 FEB:  -8.891
USER: RMSD 2.537211
USER: SEED 198
USER: STATUS no improvement in best in 4 clusters for 5 generations
USER: GENES 25
USER: genes 0 Translation |==|  0.52043 0.38501 0.53247
USER: genes 1 Rotation |==|  0.29458 0.49312 0.38066 0.93990
USER: genes 2 Torsion [N]-C--CA-[N] |==|  0.27962
USER: genes 3 Torsion [C]-CA--N-[C] |==|  0.69130
USER: genes 4 Torsion [N]-C--CA-[N] |==|  0.23019
USER: genes 5 Torsion [C]-CA--N-[C] |==|  0.75749
USER: genes 6 Torsion [N]-C--CA-[CB] |==|  0.45038
USER: genes 7 Torsion [N]-C--CA-[N] |==|  0.61695
USER: genes 8 Torsion [C]-CA--CB-[CG2] |==|  0.35879
USER: genes 9 Torsion [CA]-CB--OG1-[HG1] |==|  0.31338
USER: genes 10 Torsion [C]-CA--CB-[CG2] |==|  0.26431
USER: genes 11 Torsion [CA]-CB--CG1-[CD1] |==|  0.23096
USER: genes 12 Torsion [C]-N--CA-[CB] |==|  0.47222
USER: genes 13 Torsion [N]-CA--CB-[CG] |==|  0.36787
USER: genes 14 Torsion [CA]-CB--CG-[CD] |==|  0.73627
USER: genes 15 Torsion [CB]-CG--CD-[OE2] |==|  0.73237
USER: genes 16 Torsion [N]-CA--C-[N] |==|  0.43157
USER: genes 17 Torsion [C]-N--CA-[C] |==|  0.75811
USER: genes 18 Torsion [N]-CA--CB-[CG] |==|  0.40771
USER: genes 19 Torsion [CA]-CB--CG-[CD] |==|  0.29694
USER: genes 20 Torsion [CB]-CG--CD-[OE1] |==|  0.10913
USER: genes 21 Torsion [N]-CA--C-[N] |==|  0.37557
USER: genes 22 Torsion [C]-N--CA-[C] |==|  0.56566
USER: genes 23 Torsion [N]-CA--C-[O] |==|  0.02478
USER: genes 24 Torsion [N]-CA--CB-[CG1] |==|  0.32644
ROOT
ATOM      1  C   ILE C 637       2.924   4.155  92.693  1.00 71.80 LIG 0.24  C 
ATOM      2 O    ILE C 637       3.665   3.170  92.683  1.00 71.76 LIG-0.27  OA
ATOM      3  N   GLU C 638       3.287   5.342  93.178  1.00 72.25 LIG-0.35  N 
ATOM      4 H    GLU C 638       2.766   6.027  93.174  1.00 72.25 LIG 0.16  HD
ENDROOT
BRANCH 1 5
ATOM      5  CA  ILE C 637       1.503   4.073  92.122  1.00 71.40 LIG 0.18  C 
BRANCH 5 6
ATOM      6  N   ILE C 637       1.515   4.153  90.659  1.00 71.04 LIG-0.35  N 
ATOM      7 H    ILE C 637       1.857   3.469  90.267  1.00 71.04 LIG 0.16  HD
ATOM      8  C   THR C 636       1.028   5.215  90.016  1.00 70.97 LIG 0.24  C 
ATOM      9 O    THR C 636       0.495   6.166  90.598  1.00 70.72 LIG-0.27  OA
BRANCH 8 10
ATOM     10  CA  THR C 636       1.140   5.211  88.489  1.00 71.02 LIG 0.20  C 
BRANCH 10 11
ATOM     11  N   THR C 636       0.020   4.437  87.925  1.00 70.97 LIG-0.34  N 
ATOM     12  C   PRO C 635       0.061   3.116  87.739  1.00 71.03 LIG 0.24  C 
ATOM     13 O    PRO C 635       1.084   2.436  87.885  1.00 70.76 LIG-0.27  OA
ATOM     14 H    THR C 636      -0.665   4.918  87.726  1.00 70.97 LIG 0.16  HD
BRANCH 12 15
ATOM     15  CA  PRO C 635      -1.256   2.448  87.312  1.00 71.21 LIG 0.18  C 
ATOM     16  N   PRO C 635      -1.958   3.149  86.220  1.00 71.31 LIG-0.34  N 
ATOM     17  CD  PRO C 635      -2.142   2.284  85.038  1.00 71.36 LIG 0.13  C 
ATOM     18  C   GLY C 634      -2.455   4.397  86.347  1.00 71.43 LIG 0.25  C 
ATOM     19  CG  PRO C 635      -1.921   0.905  85.577  1.00 71.49 LIG 0.02  C 
ATOM     20  CB  PRO C 635      -0.968   1.059  86.716  1.00 71.24 LIG 0.04  C 
ATOM     21 O    GLY C 634      -2.411   5.033  87.406  1.00 71.42 LIG-0.27  OA
BRANCH 18 22
ATOM     22  CA  GLY C 634      -3.098   5.014  85.116  1.00 71.52 LIG 0.47  C 
ATOM     23  N   GLY C 634      -2.724   6.449  84.933  1.00 71.59 LIG 0.61  N 
ENDBRANCH 18 22
ENDBRANCH 12 15
ENDBRANCH 10 11
BRANCH 10 24
ATOM     24  CB  THR C 636       1.154   6.688  87.972  1.00 71.07 LIG 0.15  C 
ATOM     25  CG2 THR C 636       2.330   6.940  87.018  1.00 70.82 LIG 0.04  C 
BRANCH 24 26
ATOM     26 OG1  THR C 636      -0.074   6.985  87.296  1.00 71.09 LIG-0.39  OA
ATOM     27 HG1  THR C 636      -0.507   7.552  87.738  1.00 71.09 LIG 0.21  HD
ENDBRANCH 24 26
ENDBRANCH 10 24
ENDBRANCH 8 10
ENDBRANCH 5 6
BRANCH 5 28
ATOM     28  CB  ILE C 637       0.759   2.797  92.649  1.00 71.49 LIG 0.01  C 
ATOM     29  CG2 ILE C 637      -0.099   3.139  93.887  1.00 71.22 LIG 0.01  C 
BRANCH 28 30
ATOM     30  CG1 ILE C 637      -0.099   2.160  91.539  1.00 71.24 LIG 0.00  C 
ATOM     31  CD1 ILE C 637       0.641   1.229  90.579  1.00 71.20 LIG 0.01  C 
ENDBRANCH 28 30
ENDBRANCH 5 28
ENDBRANCH 1 5
BRANCH 3 32
ATOM     32  CA  GLU C 638       4.602   5.616  93.769  1.00 72.93 LIG 0.18  C 
BRANCH 32 33
ATOM     33  CB  GLU C 638       4.785   7.125  93.999  1.00 72.95 LIG 0.04  C 
BRANCH 33 34
ATOM     34  CG  GLU C 638       5.317   7.495  95.394  1.00 74.36 LIG 0.12  C 
BRANCH 34 35
ATOM     35  CD  GLU C 638       4.218   7.843  96.389  1.00 76.05 LIG 0.17  C 
ATOM     36 OE2  GLU C 638       3.931   9.048  96.563  1.00 76.25 LIG-0.65  OA
ATOM     37 OE1  GLU C 638       3.651   6.914  97.006  1.00 76.85 LIG-0.65  OA
ENDBRANCH 34 35
ENDBRANCH 33 34
ENDBRANCH 32 33
BRANCH 32 38
ATOM     38  C   GLU C 638       4.743   4.862  95.099  1.00 72.91 LIG 0.24  C 
ATOM     39 O    GLU C 638       3.736   4.557  95.741  1.00 72.88 LIG-0.27  OA
ATOM     40  N   GLU C 639       5.975   4.573  95.522  1.00 73.09 LIG-0.35  N 
ATOM     41 H    GLU C 639       6.695   4.757  95.089  1.00 73.09 LIG 0.16  HD
BRANCH 40 42
ATOM     42  CA  GLU C 639       6.181   3.892  96.809  1.00 73.29 LIG 0.18  C 
BRANCH 42 43
ATOM     43  CB  GLU C 639       7.411   2.975  96.781  1.00 73.41 LIG 0.04  C 
BRANCH 43 44
ATOM     44  CG  GLU C 639       8.133   2.899  98.137  1.00 73.70 LIG 0.12  C 
BRANCH 44 45
ATOM     45  CD  GLU C 639       7.937   1.588  98.874  1.00 74.11 LIG 0.17  C 
ATOM     46 OE1  GLU C 639       7.932   0.514  98.232  1.00 74.46 LIG-0.65  OA
ATOM     47 OE2  GLU C 639       7.777   1.639 100.111  1.00 74.46 LIG-0.65  OA
ENDBRANCH 44 45
ENDBRANCH 43 44
ENDBRANCH 42 43
BRANCH 42 48
ATOM     48  C   GLU C 639       6.262   4.869  97.980  1.00 73.41 LIG 0.24  C 
ATOM     49  N   VAL C 640       5.570   4.543  99.072  1.00 73.52 LIG-0.35  N 
ATOM     50 H    VAL C 640       5.112   3.818  99.145  1.00 73.52 LIG 0.16  HD
ATOM     51 O    GLU C 639       6.937   5.894  97.888  1.00 73.53 LIG-0.27  OA
BRANCH 49 52
ATOM     52  CA  VAL C 640       5.523   5.396 100.261  1.00 73.62 LIG 0.17  C 
BRANCH 52 53
ATOM     53  C   VAL C 640       5.185   4.580 101.514  1.00 73.72 LIG 0.22  C 
ATOM     54 O    VAL C 640       5.151   3.347 101.482  1.00 73.67 LIG-0.29  OA
ENDBRANCH 52 53
BRANCH 52 55
ATOM     55  CB  VAL C 640       4.519   6.575 100.078  1.00 73.60 LIG 0.01  C 
ATOM     56  CG1 VAL C 640       3.378   6.501 101.093  1.00 73.34 LIG 0.01  C 
ATOM     57  CG2 VAL C 640       5.239   7.911 100.172  1.00 74.00 LIG 0.01  C 
ENDBRANCH 52 55
ENDBRANCH 49 52
ENDBRANCH 42 48
ENDBRANCH 40 42
ENDBRANCH 32 38
ENDBRANCH 3 32
TORSDOF 23
ENDMDL
MODEL 3
USER: ADFR SOLUTION from run 114
USER: SCORE 17.143162 LL:  -4.308 LR: -14.675 RR:   0.000 FEB:  -7.814
USER: RMSD 2.676879
USER: SEED 113
USER: STATUS 1 or 2 clusters left
USER: GENES 25
USER: genes 0 Translation |==|  0.55419 0.42035 0.51838
USER: genes 1 Rotation |==|  0.47988 0.51672 0.47791 0.99883
USER: genes 2 Torsion [N]-C--CA-[N] |==|  0.38466
USER: genes 3 Torsion [C]-CA--N-[C] |==|  0.64838
USER: genes 4 Torsion [N]-C--CA-[N] |==|  0.21361
USER: genes 5 Torsion [C]-CA--N-[C] |==|  0.80167
USER: genes 6 Torsion [N]-C--CA-[CB] |==|  0.74830
USER: genes 7 Torsion [N]-C--CA-[N] |==|  0.79830
USER: genes 8 Torsion [C]-CA--CB-[CG2] |==|  0.26963
USER: genes 9 Torsion [CA]-CB--OG1-[HG1] |==|  0.37677
USER: genes 10 Torsion [C]-CA--CB-[CG2] |==|  0.29110
USER: genes 11 Torsion [CA]-CB--CG1-[CD1] |==|  0.58532
USER: genes 12 Torsion [C]-N--CA-[CB] |==|  0.25434
USER: genes 13 Torsion [N]-CA--CB-[CG] |==|  0.26832
USER: genes 14 Torsion [CA]-CB--CG-[CD] |==|  0.69408
USER: genes 15 Torsion [CB]-CG--CD-[OE2] |==|  0.70450
USER: genes 16 Torsion [N]-CA--C-[N] |==|  0.38455
USER: genes 17 Torsion [C]-N--CA-[C] |==|  0.84871
USER: genes 18 Torsion [N]-CA--CB-[CG] |==|  0.61808
USER: genes 19 Torsion [CA]-CB--CG-[CD] |==|  0.44165
USER: genes 20 Torsion [CB]-CG--CD-[OE1] |==|  0.88351
USER: genes 21 Torsion [N]-CA--C-[N] |==|  0.33895
USER: genes 22 Torsion [C]-N--CA-[C] |==|  0.69650
USER: genes 23 Torsion [N]-CA--C-[O] |==|  0.06139
USER: genes 24 Torsion [N]-CA--CB-[CG1] |==|  0.12819
ROOT
ATOM      1  C   ILE C 637       3.583   4.765  92.270  1.00 71.80 LIG 0.24  C 
ATOM      2 O    ILE C 637       4.572   4.410  91.627  1.00 71.76 LIG-0.27  OA
ATOM      3  N   GLU C 638       3.653   5.323  93.478  1.00 72.25 LIG-0.35  N 
ATOM      4 H    GLU C 638       2.957   5.575  93.917  1.00 72.25 LIG 0.16  HD
ENDROOT
BRANCH 1 5
ATOM      5  CA  ILE C 637       2.171   4.588  91.698  1.00 71.40 LIG 0.18  C 
BRANCH 5 6
ATOM      6  N   ILE C 637       2.131   4.927  90.273  1.00 71.04 LIG-0.35  N 
ATOM      7 H    ILE C 637       2.711   4.513  89.791  1.00 71.04 LIG 0.16  HD
ATOM      8  C   THR C 636       1.255   5.810  89.792  1.00 70.97 LIG 0.24  C 
ATOM      9 O    THR C 636       0.398   6.355  90.495  1.00 70.72 LIG-0.27  OA
BRANCH 8 10
ATOM     10  CA  THR C 636       1.339   6.124  88.296  1.00 71.02 LIG 0.20  C 
BRANCH 10 11
ATOM     11  N   THR C 636       0.735   5.017  87.535  1.00 70.97 LIG-0.34  N 
ATOM     12  C   PRO C 635       1.303   3.815  87.412  1.00 71.03 LIG 0.24  C 
ATOM     13 O    PRO C 635       2.449   3.558  87.798  1.00 70.76 LIG-0.27  OA
ATOM     14 H    THR C 636      -0.021   5.217  87.177  1.00 70.97 LIG 0.16  HD
BRANCH 12 15
ATOM     15  CA  PRO C 635       0.452   2.726  86.738  1.00 71.21 LIG 0.18  C 
ATOM     16  N   PRO C 635       1.242   1.666  86.084  1.00 71.31 LIG-0.34  N 
ATOM     17  CD  PRO C 635       0.948   0.333  86.645  1.00 71.36 LIG 0.13  C 
ATOM     18  C   GLY C 634       2.054   1.897  85.032  1.00 71.43 LIG 0.25  C 
ATOM     19  CG  PRO C 635      -0.351   0.536  87.363  1.00 71.49 LIG 0.02  C 
ATOM     20  CB  PRO C 635      -0.356   1.963  87.802  1.00 71.24 LIG 0.04  C 
ATOM     21 O    GLY C 634       2.159   3.006  84.495  1.00 71.42 LIG-0.27  OA
BRANCH 18 22
ATOM     22  CA  GLY C 634       2.853   0.718  84.502  1.00 71.52 LIG 0.47  C 
ATOM     23  N   GLY C 634       3.970   0.327  85.414  1.00 71.59 LIG 0.61  N 
ENDBRANCH 18 22
ENDBRANCH 12 15
ENDBRANCH 10 11
BRANCH 10 24
ATOM     24  CB  THR C 636       0.625   7.488  88.018  1.00 71.07 LIG 0.15  C 
ATOM     25  CG2 THR C 636       1.627   8.649  87.959  1.00 70.82 LIG 0.04  C 
BRANCH 24 26
ATOM     26 OG1  THR C 636      -0.095   7.424  86.780  1.00 71.09 LIG-0.39  OA
ATOM     27 HG1  THR C 636      -0.855   7.766  86.880  1.00 71.09 LIG 0.21  HD
ENDBRANCH 24 26
ENDBRANCH 10 24
ENDBRANCH 8 10
ENDBRANCH 5 6
BRANCH 5 28
ATOM     28  CB  ILE C 637       1.624   3.147  91.989  1.00 71.49 LIG 0.01  C 
ATOM     29  CG2 ILE C 637       0.574   3.181  93.122  1.00 71.22 LIG 0.01  C 
BRANCH 28 30
ATOM     30  CG1 ILE C 637       1.041   2.509  90.713  1.00 71.24 LIG 0.00  C 
ATOM     31  CD1 ILE C 637      -0.111   1.528  90.928  1.00 71.20 LIG 0.01  C 
ENDBRANCH 28 30
ENDBRANCH 5 28
ENDBRANCH 1 5
BRANCH 3 32
ATOM     32  CA  GLU C 638       4.911   5.571  94.191  1.00 72.93 LIG 0.18  C 
BRANCH 32 33
ATOM     33  CB  GLU C 638       5.441   6.980  93.875  1.00 72.95 LIG 0.04  C 
BRANCH 33 34
ATOM     34  CG  GLU C 638       5.073   8.046  94.922  1.00 74.36 LIG 0.12  C 
BRANCH 34 35
ATOM     35  CD  GLU C 638       4.060   9.064  94.417  1.00 76.05 LIG 0.17  C 
ATOM     36 OE2  GLU C 638       4.459  10.219  94.148  1.00 76.25 LIG-0.65  OA
ATOM     37 OE1  GLU C 638       2.864   8.716  94.303  1.00 76.85 LIG-0.65  OA
ENDBRANCH 34 35
ENDBRANCH 33 34
ENDBRANCH 32 33
BRANCH 32 38
ATOM     38  C   GLU C 638       4.691   5.421  95.703  1.00 72.91 LIG 0.24  C 
ATOM     39 O    GLU C 638       3.678   5.889  96.226  1.00 72.88 LIG-0.27  OA
ATOM     40  N   GLU C 639       5.632   4.788  96.408  1.00 73.09 LIG-0.35  N 
ATOM     41 H    GLU C 639       6.340   4.437  96.070  1.00 73.09 LIG 0.16  HD
BRANCH 40 42
ATOM     42  CA  GLU C 639       5.504   4.649  97.866  1.00 73.29 LIG 0.18  C 
BRANCH 42 43
ATOM     43  CB  GLU C 639       6.693   3.894  98.476  1.00 73.41 LIG 0.04  C 
BRANCH 43 44
ATOM     44  CG  GLU C 639       6.268   2.871  99.544  1.00 73.70 LIG 0.12  C 
BRANCH 44 45
ATOM     45  CD  GLU C 639       7.292   1.782  99.803  1.00 74.11 LIG 0.17  C 
ATOM     46 OE1  GLU C 639       7.892   1.257  98.839  1.00 74.46 LIG-0.65  OA
ATOM     47 OE2  GLU C 639       7.490   1.446 100.989  1.00 74.46 LIG-0.65  OA
ENDBRANCH 44 45
ENDBRANCH 43 44
ENDBRANCH 42 43
BRANCH 42 48
ATOM     48  C   GLU C 639       5.301   5.992  98.565  1.00 73.41 LIG 0.24  C 
ATOM     49  N   VAL C 640       4.194   6.117  99.299  1.00 73.52 LIG-0.35  N 
ATOM     50 H    VAL C 640       3.621   5.483  99.404  1.00 73.52 LIG 0.16  HD
ATOM     51 O    GLU C 639       6.131   6.891  98.437  1.00 73.53 LIG-0.27  OA
BRANCH 49 52
ATOM     52  CA  VAL C 640       3.846   7.354  99.999  1.00 73.62 LIG 0.17  C 
BRANCH 52 53
ATOM     53  C   VAL C 640       3.995   7.191 101.516  1.00 73.72 LIG 0.22  C 
ATOM     54 O    VAL C 640       4.722   6.316 101.995  1.00 73.67 LIG-0.29  OA
ENDBRANCH 52 53
BRANCH 52 55
ATOM     55  CB  VAL C 640       2.409   7.834  99.630  1.00 73.60 LIG 0.01  C 
ATOM     56  CG1 VAL C 640       1.405   6.683  99.678  1.00 73.34 LIG 0.01  C 
ATOM     57  CG2 VAL C 640       1.973   8.969 100.543  1.00 74.00 LIG 0.01  C 
ENDBRANCH 52 55
ENDBRANCH 49 52
ENDBRANCH 42 48
ENDBRANCH 40 42
ENDBRANCH 32 38
ENDBRANCH 3 32
TORSDOF 23
ENDMDL
MODEL 4
USER: ADFR SOLUTION from run 199
USER: SCORE 17.585116 LL:  -4.330 LR: -14.458 RR:   0.000 FEB:  -7.597
USER: RMSD 2.642601
USER: SEED 198
USER: STATUS no improvement in best in 4 clusters for 5 generations
USER: GENES 25
USER: genes 0 Translation |==|  0.54303 0.41902 0.51748
USER: genes 1 Rotation |==|  0.35352 0.48828 0.40733 0.96885
USER: genes 2 Torsion [N]-C--CA-[N] |==|  0.27922
USER: genes 3 Torsion [C]-CA--N-[C] |==|  0.64991
USER: genes 4 Torsion [N]-C--CA-[N] |==|  0.37779
USER: genes 5 Torsion [C]-CA--N-[C] |==|  0.71325
USER: genes 6 Torsion [N]-C--CA-[CB] |==|  0.77143
USER: genes 7 Torsion [N]-C--CA-[N] |==|  0.39712
USER: genes 8 Torsion [C]-CA--CB-[CG2] |==|  0.32532
USER: genes 9 Torsion [CA]-CB--OG1-[HG1] |==|  0.25461
USER: genes 10 Torsion [C]-CA--CB-[CG2] |==|  0.27239
USER: genes 11 Torsion [CA]-CB--CG1-[CD1] |==|  0.49381
USER: genes 12 Torsion [C]-N--CA-[CB] |==|  0.50605
USER: genes 13 Torsion [N]-CA--CB-[CG] |==|  0.37086
USER: genes 14 Torsion [CA]-CB--CG-[CD] |==|  0.71162
USER: genes 15 Torsion [CB]-CG--CD-[OE2] |==|  0.74556
USER: genes 16 Torsion [N]-CA--C-[N] |==|  0.40177
USER: genes 17 Torsion [C]-N--CA-[C] |==|  0.73187
USER: genes 18 Torsion [N]-CA--CB-[CG] |==|  0.47378
USER: genes 19 Torsion [CA]-CB--CG-[CD] |==|  0.27281
USER: genes 20 Torsion [CB]-CG--CD-[OE1] |==|  0.15244
USER: genes 21 Torsion [N]-CA--C-[N] |==|  0.33381
USER: genes 22 Torsion [C]-N--CA-[C] |==|  0.62312
USER: genes 23 Torsion [N]-CA--C-[O] |==|  0.09774
USER: genes 24 Torsion [N]-CA--CB-[CG1] |==|  0.39569
ROOT
ATOM      1  C   ILE C 637       3.365   4.742  92.243  1.00 71.80 LIG 0.24  C 
ATOM      2 O    ILE C 637       4.231   3.893  92.026  1.00 71.76 LIG-0.27  OA
ATOM      3  N   GLU C 638       3.559   5.808  93.019  1.00 72.25 LIG-0.35  N 
ATOM      4 H    GLU C 638       2.951   6.400  93.159  1.00 72.25 LIG 0.16  HD
ENDROOT
BRANCH 1 5
ATOM      5  CA  ILE C 637       1.974   4.623  91.608  1.00 71.40 LIG 0.18  C 
BRANCH 5 6
ATOM      6  N   ILE C 637       1.991   5.068  90.211  1.00 71.04 LIG-0.35  N 
ATOM      7 H    ILE C 637       2.580   4.680  89.720  1.00 71.04 LIG 0.16  HD
ATOM      8  C   THR C 636       1.148   6.002  89.768  1.00 70.97 LIG 0.24  C 
ATOM      9 O    THR C 636       0.276   6.510  90.480  1.00 70.72 LIG-0.27  OA
BRANCH 8 10
ATOM     10  CA  THR C 636       1.290   6.424  88.303  1.00 71.02 LIG 0.20  C 
BRANCH 10 11
ATOM     11  N   THR C 636      -0.048   6.515  87.695  1.00 70.97 LIG-0.34  N 
ATOM     12  C   PRO C 635      -0.547   5.587  86.875  1.00 71.03 LIG 0.24  C 
ATOM     13 O    PRO C 635       0.114   4.639  86.433  1.00 70.76 LIG-0.27  OA
ATOM     14 H    THR C 636      -0.480   7.224  87.918  1.00 70.97 LIG 0.16  HD
BRANCH 12 15
ATOM     15  CA  PRO C 635      -2.023   5.752  86.477  1.00 71.21 LIG 0.18  C 
ATOM     16  N   PRO C 635      -2.413   4.979  85.283  1.00 71.31 LIG-0.34  N 
ATOM     17  CD  PRO C 635      -3.496   4.021  85.575  1.00 71.36 LIG 0.13  C 
ATOM     18  C   GLY C 634      -1.898   5.211  84.057  1.00 71.43 LIG 0.25  C 
ATOM     19  CG  PRO C 635      -4.060   4.517  86.870  1.00 71.49 LIG 0.02  C 
ATOM     20  CB  PRO C 635      -2.928   5.180  87.582  1.00 71.24 LIG 0.04  C 
ATOM     21 O    GLY C 634      -1.100   6.126  83.826  1.00 71.42 LIG-0.27  OA
BRANCH 18 22
ATOM     22  CA  GLY C 634      -2.349   4.293  82.933  1.00 71.52 LIG 0.47  C 
ATOM     23  N   GLY C 634      -2.511   5.014  81.635  1.00 71.59 LIG 0.61  N 
ENDBRANCH 18 22
ENDBRANCH 12 15
ENDBRANCH 10 11
BRANCH 10 24
ATOM     24  CB  THR C 636       2.062   7.783  88.235  1.00 71.07 LIG 0.15  C 
ATOM     25  CG2 THR C 636       3.394   7.639  87.487  1.00 70.82 LIG 0.04  C 
BRANCH 24 26
ATOM     26 OG1  THR C 636       1.259   8.773  87.579  1.00 71.09 LIG-0.39  OA
ATOM     27 HG1  THR C 636       0.810   9.193  88.151  1.00 71.09 LIG 0.21  HD
ENDBRANCH 24 26
ENDBRANCH 10 24
ENDBRANCH 8 10
ENDBRANCH 5 6
BRANCH 5 28
ATOM     28  CB  ILE C 637       1.405   3.171  91.770  1.00 71.49 LIG 0.01  C 
ATOM     29  CG2 ILE C 637       0.438   3.096  92.973  1.00 71.22 LIG 0.01  C 
BRANCH 28 30
ATOM     30  CG1 ILE C 637       0.716   2.700  90.474  1.00 71.24 LIG 0.00  C 
ATOM     31  CD1 ILE C 637       0.167   1.274  90.495  1.00 71.20 LIG 0.01  C 
ENDBRANCH 28 30
ENDBRANCH 5 28
ENDBRANCH 1 5
BRANCH 3 32
ATOM     32  CA  GLU C 638       4.818   6.092  93.717  1.00 72.93 LIG 0.18  C 
BRANCH 32 33
ATOM     33  CB  GLU C 638       4.687   7.367  94.566  1.00 72.95 LIG 0.04  C 
BRANCH 33 34
ATOM     34  CG  GLU C 638       5.236   7.236  95.997  1.00 74.36 LIG 0.12  C 
BRANCH 34 35
ATOM     35  CD  GLU C 638       4.148   7.089  97.052  1.00 76.05 LIG 0.17  C 
ATOM     36 OE2  GLU C 638       3.706   8.123  97.601  1.00 76.25 LIG-0.65  OA
ATOM     37 OE1  GLU C 638       3.744   5.941  97.342  1.00 76.85 LIG-0.65  OA
ENDBRANCH 34 35
ENDBRANCH 33 34
ENDBRANCH 32 33
BRANCH 32 38
ATOM     38  C   GLU C 638       5.199   4.903  94.610  1.00 72.91 LIG 0.24  C 
ATOM     39 O    GLU C 638       4.318   4.264  95.189  1.00 72.88 LIG-0.27  OA
ATOM     40  N   GLU C 639       6.495   4.612  94.738  1.00 73.09 LIG-0.35  N 
ATOM     41 H    GLU C 639       7.130   5.028  94.335  1.00 73.09 LIG 0.16  HD
BRANCH 40 42
ATOM     42  CA  GLU C 639       6.930   3.514  95.615  1.00 73.29 LIG 0.18  C 
BRANCH 42 43
ATOM     43  CB  GLU C 639       8.044   2.676  94.973  1.00 73.41 LIG 0.04  C 
BRANCH 43 44
ATOM     44  CG  GLU C 639       8.676   1.670  95.951  1.00 73.70 LIG 0.12  C 
BRANCH 44 45
ATOM     45  CD  GLU C 639       8.130   0.260  95.831  1.00 74.11 LIG 0.17  C 
ATOM     46 OE1  GLU C 639       8.152  -0.318  94.722  1.00 74.46 LIG-0.65  OA
ATOM     47 OE2  GLU C 639       7.667  -0.270  96.862  1.00 74.46 LIG-0.65  OA
ENDBRANCH 44 45
ENDBRANCH 43 44
ENDBRANCH 42 43
BRANCH 42 48
ATOM     48  C   GLU C 639       7.350   4.003  96.999  1.00 73.41 LIG 0.24  C 
ATOM     49  N   VAL C 640       6.667   3.512  98.034  1.00 73.52 LIG-0.35  N 
ATOM     50 H    VAL C 640       6.034   2.935  97.953  1.00 73.52 LIG 0.16  HD
ATOM     51 O    GLU C 639       8.273   4.809  97.119  1.00 73.53 LIG-0.27  OA
BRANCH 49 52
ATOM     52  CA  VAL C 640       6.932   3.913  99.416  1.00 73.62 LIG 0.17  C 
BRANCH 52 53
ATOM     53  C   VAL C 640       6.956   2.697 100.349  1.00 73.72 LIG 0.22  C 
ATOM     54 O    VAL C 640       7.401   1.610  99.970  1.00 73.67 LIG-0.29  OA
ENDBRANCH 52 53
BRANCH 52 55
ATOM     55  CB  VAL C 640       5.901   4.973  99.912  1.00 73.60 LIG 0.01  C 
ATOM     56  CG1 VAL C 640       5.527   4.748 101.376  1.00 73.34 LIG 0.01  C 
ATOM     57  CG2 VAL C 640       6.436   6.380  99.701  1.00 74.00 LIG 0.01  C 
ENDBRANCH 52 55
ENDBRANCH 49 52
ENDBRANCH 42 48
ENDBRANCH 40 42
ENDBRANCH 32 38
ENDBRANCH 3 32
TORSDOF 23
ENDMDL
MODEL 5
USER: ADFR SOLUTION from run 37
USER: SCORE 16.898393 LL:  -4.390 LR: -14.126 RR:   0.000 FEB:  -7.265
USER: RMSD 2.163021
USER: SEED 36
USER: STATUS 1 or 2 clusters left
USER: GENES 25
USER: genes 0 Translation |==|  0.53546 0.41497 0.50798
USER: genes 1 Rotation |==|  0.48781 0.53453 0.47220 0.99788
USER: genes 2 Torsion [N]-C--CA-[N] |==|  0.38654
USER: genes 3 Torsion [C]-CA--N-[C] |==|  0.68829
USER: genes 4 Torsion [N]-C--CA-[N] |==|  0.32909
USER: genes 5 Torsion [C]-CA--N-[C] |==|  0.61855
USER: genes 6 Torsion [N]-C--CA-[CB] |==|  0.85271
USER: genes 7 Torsion [N]-C--CA-[N] |==|  0.65745
USER: genes 8 Torsion [C]-CA--CB-[CG2] |==|  0.39430
USER: genes 9 Torsion [CA]-CB--OG1-[HG1] |==|  0.00007
USER: genes 10 Torsion [C]-CA--CB-[CG2] |==|  0.26591
USER: genes 11 Torsion [CA]-CB--CG1-[CD1] |==|  0.28753
USER: genes 12 Torsion [C]-N--CA-[CB] |==|  0.24880
USER: genes 13 Torsion [N]-CA--CB-[CG] |==|  0.03240
USER: genes 14 Torsion [CA]-CB--CG-[CD] |==|  0.25474
USER: genes 15 Torsion [CB]-CG--CD-[OE2] |==|  0.59626
USER: genes 16 Torsion [N]-CA--C-[N] |==|  0.37347
USER: genes 17 Torsion [C]-N--CA-[C] |==|  0.85976
USER: genes 18 Torsion [N]-CA--CB-[CG] |==|  0.54681
USER: genes 19 Torsion [CA]-CB--CG-[CD] |==|  0.44556
USER: genes 20 Torsion [CB]-CG--CD-[OE1] |==|  0.43370
USER: genes 21 Torsion [N]-CA--C-[N] |==|  0.91648
USER: genes 22 Torsion [C]-N--CA-[C] |==|  0.78284
USER: genes 23 Torsion [N]-CA--C-[O] |==|  0.12134
USER: genes 24 Torsion [N]-CA--CB-[CG1] |==|  0.80817
ROOT
ATOM      1  C   ILE C 637       3.217   4.672  91.958  1.00 71.80 LIG 0.24  C 
ATOM      2 O    ILE C 637       4.150   4.315  91.236  1.00 71.76 LIG-0.27  OA
ATOM      3  N   GLU C 638       3.386   5.186  93.176  1.00 72.25 LIG-0.35  N 
ATOM      4 H    GLU C 638       2.729   5.441  93.670  1.00 72.25 LIG 0.16  HD
ENDROOT
BRANCH 1 5
ATOM      5  CA  ILE C 637       1.765   4.551  91.480  1.00 71.40 LIG 0.18  C 
BRANCH 5 6
ATOM      6  N   ILE C 637       1.640   4.926  90.068  1.00 71.04 LIG-0.35  N 
ATOM      7 H    ILE C 637       2.021   4.384  89.520  1.00 71.04 LIG 0.16  HD
ATOM      8  C   THR C 636       0.982   6.024  89.695  1.00 70.97 LIG 0.24  C 
ATOM      9 O    THR C 636       0.399   6.761  90.496  1.00 70.72 LIG-0.27  OA
BRANCH 8 10
ATOM     10  CA  THR C 636       0.960   6.343  88.198  1.00 71.02 LIG 0.20  C 
BRANCH 10 11
ATOM     11  N   THR C 636      -0.434   6.330  87.722  1.00 70.97 LIG-0.34  N 
ATOM     12  C   PRO C 635      -0.813   5.770  86.571  1.00 71.03 LIG 0.24  C 
ATOM     13 O    PRO C 635      -0.019   5.338  85.727  1.00 70.76 LIG-0.27  OA
ATOM     14 H    THR C 636      -0.984   6.718  88.258  1.00 70.97 LIG 0.16  HD
BRANCH 12 15
ATOM     15  CA  PRO C 635      -2.328   5.689  86.319  1.00 71.21 LIG 0.18  C 
ATOM     16  N   PRO C 635      -2.701   4.834  85.177  1.00 71.31 LIG-0.34  N 
ATOM     17  CD  PRO C 635      -3.585   3.724  85.585  1.00 71.36 LIG 0.13  C 
ATOM     18  C   GLY C 634      -2.350   5.112  83.904  1.00 71.43 LIG 0.25  C 
ATOM     19  CG  PRO C 635      -4.095   4.159  86.924  1.00 71.49 LIG 0.02  C 
ATOM     20  CB  PRO C 635      -3.020   5.011  87.513  1.00 71.24 LIG 0.04  C 
ATOM     21 O    GLY C 634      -1.734   6.135  83.586  1.00 71.42 LIG-0.27  OA
BRANCH 18 22
ATOM     22  CA  GLY C 634      -2.754   4.105  82.840  1.00 71.52 LIG 0.47  C 
ATOM     23  N   GLY C 634      -1.586   3.597  82.059  1.00 71.59 LIG 0.61  N 
ENDBRANCH 18 22
ENDBRANCH 12 15
ENDBRANCH 10 11
BRANCH 10 24
ATOM     24  CB  THR C 636       1.652   7.725  87.957  1.00 71.07 LIG 0.15  C 
ATOM     25  CG2 THR C 636       2.487   7.722  86.669  1.00 70.82 LIG 0.04  C 
BRANCH 24 26
ATOM     26 OG1  THR C 636       0.666   8.762  87.877  1.00 71.09 LIG-0.39  OA
ATOM     27 HG1  THR C 636      -0.099   8.429  87.975  1.00 71.09 LIG 0.21  HD
ENDBRANCH 24 26
ENDBRANCH 10 24
ENDBRANCH 8 10
ENDBRANCH 5 6
BRANCH 5 28
ATOM     28  CB  ILE C 637       1.194   3.121  91.776  1.00 71.49 LIG 0.01  C 
ATOM     29  CG2 ILE C 637       0.408   3.113  93.106  1.00 71.22 LIG 0.01  C 
BRANCH 28 30
ATOM     30  CG1 ILE C 637       0.316   2.625  90.610  1.00 71.24 LIG 0.00  C 
ATOM     31  CD1 ILE C 637       0.958   1.588  89.690  1.00 71.20 LIG 0.01  C 
ENDBRANCH 28 30
ENDBRANCH 5 28
ENDBRANCH 1 5
BRANCH 3 32
ATOM     32  CA  GLU C 638       4.696   5.377  93.808  1.00 72.93 LIG 0.18  C 
BRANCH 32 33
ATOM     33  CB  GLU C 638       5.265   6.763  93.462  1.00 72.95 LIG 0.04  C 
BRANCH 33 34
ATOM     34  CG  GLU C 638       4.254   7.717  92.801  1.00 74.36 LIG 0.12  C 
BRANCH 34 35
ATOM     35  CD  GLU C 638       3.507   8.591  93.798  1.00 76.05 LIG 0.17  C 
ATOM     36 OE2  GLU C 638       2.314   8.883  93.558  1.00 76.25 LIG-0.65  OA
ATOM     37 OE1  GLU C 638       4.114   8.998  94.813  1.00 76.85 LIG-0.65  OA
ENDBRANCH 34 35
ENDBRANCH 33 34
ENDBRANCH 32 33
BRANCH 32 38
ATOM     38  C   GLU C 638       4.567   5.229  95.330  1.00 72.91 LIG 0.24  C 
ATOM     39 O    GLU C 638       3.651   5.799  95.927  1.00 72.88 LIG-0.27  OA
ATOM     40  N   GLU C 639       5.477   4.485  95.962  1.00 73.09 LIG-0.35  N 
ATOM     41 H    GLU C 639       6.117   4.062  95.572  1.00 73.09 LIG 0.16  HD
BRANCH 40 42
ATOM     42  CA  GLU C 639       5.436   4.339  97.425  1.00 73.29 LIG 0.18  C 
BRANCH 42 43
ATOM     43  CB  GLU C 639       6.628   3.529  97.953  1.00 73.41 LIG 0.04  C 
BRANCH 43 44
ATOM     44  CG  GLU C 639       6.412   3.009  99.385  1.00 73.70 LIG 0.12  C 
BRANCH 44 45
ATOM     45  CD  GLU C 639       7.312   1.850  99.767  1.00 74.11 LIG 0.17  C 
ATOM     46 OE1  GLU C 639       7.562   1.634 100.974  1.00 74.46 LIG-0.65  OA
ATOM     47 OE2  GLU C 639       7.778   1.152  98.843  1.00 74.46 LIG-0.65  OA
ENDBRANCH 44 45
ENDBRANCH 43 44
ENDBRANCH 42 43
BRANCH 42 48
ATOM     48  C   GLU C 639       5.336   5.683  98.143  1.00 73.41 LIG 0.24  C 
ATOM     49  N   VAL C 640       5.897   6.726  97.530  1.00 73.52 LIG-0.35  N 
ATOM     50 H    VAL C 640       6.282   6.673  96.762  1.00 73.52 LIG 0.16  HD
ATOM     51 O    GLU C 639       4.762   5.766  99.229  1.00 73.53 LIG-0.27  OA
BRANCH 49 52
ATOM     52  CA  VAL C 640       5.910   8.070  98.110  1.00 73.62 LIG 0.17  C 
BRANCH 52 53
ATOM     53  C   VAL C 640       4.553   8.761  97.933  1.00 73.72 LIG 0.22  C 
ATOM     54 O    VAL C 640       3.498   8.157  98.140  1.00 73.67 LIG-0.29  OA
ENDBRANCH 52 53
BRANCH 52 55
ATOM     55  CB  VAL C 640       7.058   8.939  97.512  1.00 73.60 LIG 0.01  C 
ATOM     56  CG1 VAL C 640       8.431   8.439  97.962  1.00 73.34 LIG 0.01  C 
ATOM     57  CG2 VAL C 640       6.968   8.975  95.994  1.00 74.00 LIG 0.01  C 
ENDBRANCH 52 55
ENDBRANCH 49 52
ENDBRANCH 42 48
ENDBRANCH 40 42
ENDBRANCH 32 38
ENDBRANCH 3 32
TORSDOF 23
ENDMDL
