MODEL 1
USER: ADFR SOLUTION from run 113
USER: SCORE 20.307162 LL:  -4.391 LR: -16.406 RR:   0.000 FEB:  -9.843
USER: RMSD 1.574294
USER: SEED 112
USER: STATUS no improvement in best in 2 clusters for 5 generations
USER: GENES 24
USER: genes 0 Translation |==|  0.48624 0.50751 0.49320
USER: genes 1 Rotation |==|  0.45487 0.66336 0.36156 0.94956
USER: genes 2 Torsion [C]-N--CA-[C] |==|  0.81090
USER: genes 3 Torsion [N]-CA--C-[N] |==|  0.38686
USER: genes 4 Torsion [C]-N--CA-[C] |==|  0.75698
USER: genes 5 Torsion [N]-CA--C-[N] |==|  0.35732
USER: genes 6 Torsion [C]-N--CA-[CB] |==|  0.18135
USER: genes 7 Torsion [N]-CA--C-[OXT] |==|  0.54073
USER: genes 8 Torsion [N]-CA--CB-[CG] |==|  0.16884
USER: genes 9 Torsion [CA]-CB--CG-[CD1] |==|  0.32849
USER: genes 10 Torsion [N]-CA--CB-[OG] |==|  0.59767
USER: genes 11 Torsion [CA]-CB--OG-[HG] |==|  0.00186
USER: genes 12 Torsion [N]-CA--CB-[CG] |==|  0.64054
USER: genes 13 Torsion [CA]-CB--CG-[CD] |==|  0.22608
USER: genes 14 Torsion [CB]-CG--CD-[OE2] |==|  0.84638
USER: genes 15 Torsion [N]-C--CA-[N] |==|  0.21427
USER: genes 16 Torsion [C]-CA--N-[C] |==|  0.75725
USER: genes 17 Torsion [N]-C--CA-[N] |==|  0.93341
USER: genes 18 Torsion [C]-CA--CB-[CG2] |==|  0.86723
USER: genes 19 Torsion [CA]-CB--CG1-[CD1] |==|  0.17777
USER: genes 20 Torsion [C]-CA--N-[C] |==|  0.72820
USER: genes 21 Torsion [C]-CA--CB-[CG] |==|  0.45910
USER: genes 22 Torsion [CA]-CB--CG-[CD2] |==|  0.76932
USER: genes 23 Torsion [CE2]-CZ--OH-[HH] |==|  0.95826
ROOT
ATOM      1  C   TYR B   2      21.033  14.001  37.109  1.00 34.05 LIG 0.24  C 
ATOM      2 O    TYR B   2      21.843  13.252  36.568  1.00 39.10 LIG-0.27  OA
ATOM      3  N   GLU B   3      20.521  13.820  38.318  1.00 35.19 LIG-0.35  N 
ATOM      4 H    GLU B   3      19.999  14.391  38.692  1.00 35.19 LIG 0.16  HD
ENDROOT
BRANCH 3 5
ATOM      5  CA  GLU B   3      20.779  12.637  39.150  1.00 40.21 LIG 0.18  C 
BRANCH 5 6
ATOM      6  C   GLU B   3      20.125  11.444  38.501  1.00 33.75 LIG 0.24  C 
ATOM      7 O    GLU B   3      19.017  11.566  38.002  1.00 31.69 LIG-0.27  OA
ATOM      8  N   SER B   4      20.788  10.273  38.491  1.00 29.90 LIG-0.34  N 
ATOM      9 H    SER B   4      21.604  10.173  38.744  1.00 29.90 LIG 0.16  HD
BRANCH 8 10
ATOM     10  CA  SER B   4      20.136   9.051  38.031  1.00 28.06 LIG 0.20  C 
BRANCH 10 11
ATOM     11  C   SER B   4      19.413   8.409  39.222  1.00 33.99 LIG 0.24  C 
ATOM     12  N   LEU B   5      18.140   8.099  39.031  1.00 32.03 LIG-0.34  N 
ATOM     13 H    LEU B   5      17.757   8.143  38.263  1.00 32.03 LIG 0.16  HD
ATOM     14 O    SER B   4      20.009   8.228  40.297  1.00 35.03 LIG-0.27  OA
BRANCH 12 15
ATOM     15  CA  LEU B   5      17.238   7.645  40.114  1.00 33.34 LIG 0.18  C 
BRANCH 15 16
ATOM     16  C   LEU B   5      15.871   7.217  39.601  1.00 39.47 LIG 0.20  C 
ATOM     17 O    LEU B   5      15.698   7.085  38.377  1.00 29.87 LIG-0.65  OA
ATOM     18 OXT  LEU B   5      14.895   7.064  40.389  1.00 38.97 LIG-0.65  OA
ENDBRANCH 15 16
BRANCH 15 19
ATOM     19  CB  LEU B   5      17.027   8.758  41.133  1.00 34.52 LIG 0.04  C 
BRANCH 19 20
ATOM     20  CG  LEU B   5      16.395  10.036  40.615  1.00 35.74 LIG-0.02  C 
ATOM     21  CD1 LEU B   5      15.061  10.269  41.340  1.00 34.91 LIG 0.01  C 
ATOM     22  CD2 LEU B   5      17.351  11.203  40.803  1.00 32.02 LIG 0.01  C 
ENDBRANCH 19 20
ENDBRANCH 15 19
ENDBRANCH 12 15
ENDBRANCH 10 11
BRANCH 10 23
ATOM     23  CB  SER B   4      21.134   8.051  37.425  1.00 31.79 LIG 0.20  C 
BRANCH 23 24
ATOM     24 OG   SER B   4      20.540   7.351  36.347  1.00 32.94 LIG-0.40  OA
ATOM     25 HG   SER B   4      19.753   7.624  36.236  1.00 32.94 LIG 0.21  HD
ENDBRANCH 23 24
ENDBRANCH 10 23
ENDBRANCH 8 10
ENDBRANCH 5 6
BRANCH 5 26
ATOM     26  CB  GLU B   3      20.149  12.827  40.527  1.00 42.52 LIG 0.04  C 
BRANCH 26 27
ATOM     27  CG  GLU B   3      21.125  12.550  41.671  1.00 61.90 LIG 0.12  C 
BRANCH 27 28
ATOM     28  CD  GLU B   3      22.023  13.726  41.953  1.00 67.28 LIG 0.17  C 
ATOM     29 OE1  GLU B   3      22.029  14.195  43.117  1.00 80.18 LIG-0.65  OA
ATOM     30 OE2  GLU B   3      22.701  14.190  41.005  1.00 64.56 LIG-0.65  OA
ENDBRANCH 27 28
ENDBRANCH 26 27
ENDBRANCH 5 26
ENDBRANCH 3 5
BRANCH 1 31
ATOM     31  CA  TYR B   2      20.573  15.259  36.386  1.00 27.59 LIG 0.18  C 
BRANCH 31 32
ATOM     32  N   TYR B   2      21.268  16.425  36.922  1.00 28.42 LIG-0.35  N 
ATOM     33 H    TYR B   2      21.988  16.635  36.503  1.00 28.42 LIG 0.16  HD
ATOM     34  C   ILE B   1      20.801  17.081  37.968  1.00 34.57 LIG 0.24  C 
ATOM     35 O    ILE B   1      19.770  16.741  38.585  1.00 35.77 LIG-0.27  OA
BRANCH 34 36
ATOM     36  CA  ILE B   1      21.572  18.311  38.371  1.00 36.91 LIG 0.18  C 
BRANCH 36 37
ATOM     37  CB  ILE B   1      20.899  19.511  37.712  1.00 38.00 LIG 0.01  C 
ATOM     38  CG2 ILE B   1      20.642  19.218  36.222  1.00 37.47 LIG 0.01  C 
BRANCH 37 39
ATOM     39  CG1 ILE B   1      19.588  19.815  38.441  1.00 43.59 LIG 0.00  C 
ATOM     40  CD1 ILE B   1      19.770  20.237  39.877  1.00 39.71 LIG 0.01  C 
ENDBRANCH 37 39
ENDBRANCH 36 37
BRANCH 36 41
ATOM     41  N   ILE B   1      22.997  18.281  37.919  1.00 36.86 LIG-0.35  N 
ATOM     42 H    ILE B   1      23.101  18.525  37.101  1.00 36.86 LIG 0.16  HD
ATOM     43  C   ACE B   0      24.034  17.906  38.717  1.00 40.91 LIG 0.21  C 
ATOM     44 O    ACE B   0      23.885  17.558  39.877  1.00 40.13 LIG-0.27  OA
ATOM     45  CH3 ACE B   0      25.420  17.916  38.099  1.00 36.31 LIG 0.12  C 
ENDBRANCH 36 41
ENDBRANCH 34 36
ENDBRANCH 31 32
BRANCH 31 46
ATOM     46  CB  TYR B   2      20.824  15.123  34.902  1.00 30.42 LIG 0.07  C 
BRANCH 46 47
ATOM     47  CG  TYR B   2      20.094  16.154  34.030  1.00 30.81 LIG-0.06  A 
ATOM     48  CD2 TYR B   2      18.766  15.986  33.637  1.00 30.26 LIG 0.01  A 
ATOM     49  CE2 TYR B   2      18.130  16.953  32.815  1.00 27.61 LIG 0.04  A 
ATOM     50  CZ  TYR B   2      18.842  18.079  32.433  1.00 28.62 LIG 0.07  A 
ATOM     51  CE1 TYR B   2      20.145  18.246  32.820  1.00 33.56 LIG 0.04  A 
ATOM     52  CD1 TYR B   2      20.756  17.285  33.614  1.00 35.64 LIG 0.01  A 
BRANCH 50 53
ATOM     53 OH   TYR B   2      18.302  19.064  31.621  1.00 30.95 LIG-0.36  OA
ATOM     54 HH   TYR B   2      17.604  18.774  31.255  1.00 30.95 LIG 0.22  HD
ENDBRANCH 50 53
ENDBRANCH 46 47
ENDBRANCH 31 46
ENDBRANCH 1 31
TORSDOF 22
ENDMDL
MODEL 2
USER: ADFR SOLUTION from run 134
USER: SCORE 19.620328 LL:  -4.561 LR: -15.487 RR:   0.000 FEB:  -8.924
USER: RMSD 2.395359
USER: SEED 133
USER: STATUS no improvement in best in 2 clusters for 5 generations
USER: GENES 24
USER: genes 0 Translation |==|  0.47509 0.49208 0.47399
USER: genes 1 Rotation |==|  0.43096 0.69318 0.35815 0.93335
USER: genes 2 Torsion [C]-N--CA-[C] |==|  0.81383
USER: genes 3 Torsion [N]-CA--C-[N] |==|  0.38849
USER: genes 4 Torsion [C]-N--CA-[C] |==|  0.80662
USER: genes 5 Torsion [N]-CA--C-[N] |==|  0.34298
USER: genes 6 Torsion [C]-N--CA-[CB] |==|  0.26480
USER: genes 7 Torsion [N]-CA--C-[OXT] |==|  0.46487
USER: genes 8 Torsion [N]-CA--CB-[CG] |==|  0.73051
USER: genes 9 Torsion [CA]-CB--CG-[CD1] |==|  0.33733
USER: genes 10 Torsion [N]-CA--CB-[OG] |==|  0.61031
USER: genes 11 Torsion [CA]-CB--OG-[HG] |==|  0.89601
USER: genes 12 Torsion [N]-CA--CB-[CG] |==|  0.63922
USER: genes 13 Torsion [CA]-CB--CG-[CD] |==|  0.28774
USER: genes 14 Torsion [CB]-CG--CD-[OE2] |==|  0.77453
USER: genes 15 Torsion [N]-C--CA-[N] |==|  0.21942
USER: genes 16 Torsion [C]-CA--N-[C] |==|  0.78170
USER: genes 17 Torsion [N]-C--CA-[N] |==|  0.45393
USER: genes 18 Torsion [C]-CA--CB-[CG2] |==|  0.91153
USER: genes 19 Torsion [CA]-CB--CG1-[CD1] |==|  0.71885
USER: genes 20 Torsion [C]-CA--N-[C] |==|  0.80545
USER: genes 21 Torsion [C]-CA--CB-[CG] |==|  0.50704
USER: genes 22 Torsion [CA]-CB--CG-[CD2] |==|  0.78175
USER: genes 23 Torsion [CE2]-CZ--OH-[HH] |==|  0.90729
ROOT
ATOM      1  C   TYR B   2      20.840  13.619  36.706  1.00 34.05 LIG 0.24  C 
ATOM      2 O    TYR B   2      21.554  12.826  36.096  1.00 39.10 LIG-0.27  OA
ATOM      3  N   GLU B   3      20.519  13.521  37.988  1.00 35.19 LIG-0.35  N 
ATOM      4 H    GLU B   3      20.064  14.122  38.400  1.00 35.19 LIG 0.16  HD
ENDROOT
BRANCH 3 5
ATOM      5  CA  GLU B   3      20.897  12.389  38.844  1.00 40.21 LIG 0.18  C 
BRANCH 5 6
ATOM      6  C   GLU B   3      20.164  11.161  38.364  1.00 33.75 LIG 0.24  C 
ATOM      7 O    GLU B   3      19.000  11.260  38.007  1.00 31.69 LIG-0.27  OA
ATOM      8  N   SER B   4      20.822   9.987  38.342  1.00 29.90 LIG-0.34  N 
ATOM      9 H    SER B   4      21.665   9.899  38.492  1.00 29.90 LIG 0.16  HD
BRANCH 8 10
ATOM     10  CA  SER B   4      20.117   8.743  38.050  1.00 28.06 LIG 0.20  C 
BRANCH 10 11
ATOM     11  C   SER B   4      19.194   8.420  39.233  1.00 33.99 LIG 0.24  C 
ATOM     12  N   LEU B   5      17.911   8.269  38.944  1.00 32.03 LIG-0.34  N 
ATOM     13 H    LEU B   5      17.612   8.239  38.139  1.00 32.03 LIG 0.16  HD
ATOM     14 O    SER B   4      19.653   8.338  40.385  1.00 35.03 LIG-0.27  OA
BRANCH 12 15
ATOM     15  CA  LEU B   5      16.853   8.137  39.972  1.00 33.34 LIG 0.18  C 
BRANCH 15 16
ATOM     16  C   LEU B   5      15.748   7.176  39.558  1.00 39.47 LIG 0.20  C 
ATOM     17 O    LEU B   5      15.643   6.854  38.362  1.00 29.87 LIG-0.65  OA
ATOM     18 OXT  LEU B   5      14.895   6.761  40.393  1.00 38.97 LIG-0.65  OA
ENDBRANCH 15 16
BRANCH 15 19
ATOM     19  CB  LEU B   5      16.213   9.491  40.255  1.00 34.52 LIG 0.04  C 
BRANCH 19 20
ATOM     20  CG  LEU B   5      16.740  10.248  41.458  1.00 35.74 LIG-0.02  C 
ATOM     21  CD1 LEU B   5      17.276  11.612  41.001  1.00 34.91 LIG 0.01  C 
ATOM     22  CD2 LEU B   5      15.643  10.393  42.502  1.00 32.02 LIG 0.01  C 
ENDBRANCH 19 20
ENDBRANCH 15 19
ENDBRANCH 12 15
ENDBRANCH 10 11
BRANCH 10 23
ATOM     23  CB  SER B   4      21.081   7.572  37.805  1.00 31.79 LIG 0.20  C 
BRANCH 23 24
ATOM     24 OG   SER B   4      20.611   6.759  36.745  1.00 32.94 LIG-0.40  OA
ATOM     25 HG   SER B   4      19.773   6.707  36.782  1.00 32.94 LIG 0.21  HD
ENDBRANCH 23 24
ENDBRANCH 10 23
ENDBRANCH 8 10
ENDBRANCH 5 6
BRANCH 5 26
ATOM     26  CB  GLU B   3      20.463  12.662  40.281  1.00 42.52 LIG 0.04  C 
BRANCH 26 27
ATOM     27  CG  GLU B   3      21.586  12.439  41.294  1.00 61.90 LIG 0.12  C 
BRANCH 27 28
ATOM     28  CD  GLU B   3      22.179  13.734  41.784  1.00 67.28 LIG 0.17  C 
ATOM     29 OE1  GLU B   3      21.773  14.190  42.879  1.00 80.18 LIG-0.65  OA
ATOM     30 OE2  GLU B   3      23.034  14.301  41.061  1.00 64.56 LIG-0.65  OA
ENDBRANCH 27 28
ENDBRANCH 26 27
ENDBRANCH 5 26
ENDBRANCH 3 5
BRANCH 1 31
ATOM     31  CA  TYR B   2      20.281  14.836  35.983  1.00 27.59 LIG 0.18  C 
BRANCH 31 32
ATOM     32  N   TYR B   2      21.082  16.015  36.296  1.00 28.42 LIG-0.35  N 
ATOM     33 H    TYR B   2      21.640  16.241  35.682  1.00 28.42 LIG 0.16  HD
ATOM     34  C   ILE B   1      20.937  16.658  37.439  1.00 34.57 LIG 0.24  C 
ATOM     35 O    ILE B   1      20.145  16.296  38.333  1.00 35.77 LIG-0.27  OA
BRANCH 34 36
ATOM     36  CA  ILE B   1      21.770  17.904  37.603  1.00 36.91 LIG 0.18  C 
BRANCH 36 37
ATOM     37  CB  ILE B   1      23.191  17.465  37.941  1.00 38.00 LIG 0.01  C 
ATOM     38  CG2 ILE B   1      23.160  16.153  38.747  1.00 37.47 LIG 0.01  C 
BRANCH 37 39
ATOM     39  CG1 ILE B   1      23.984  17.289  36.644  1.00 43.59 LIG 0.00  C 
ATOM     40  CD1 ILE B   1      24.132  15.855  36.206  1.00 39.71 LIG 0.01  C 
ENDBRANCH 37 39
ENDBRANCH 36 37
BRANCH 36 41
ATOM     41  N   ILE B   1      21.288  18.786  38.710  1.00 36.86 LIG-0.35  N 
ATOM     42 H    ILE B   1      21.818  18.805  39.387  1.00 36.86 LIG 0.16  HD
ATOM     43  C   ACE B   0      20.127  19.496  38.660  1.00 40.91 LIG 0.21  C 
ATOM     44 O    ACE B   0      19.376  19.468  37.699  1.00 40.13 LIG-0.27  OA
ATOM     45  CH3 ACE B   0      19.776  20.333  39.876  1.00 36.31 LIG 0.12  C 
ENDBRANCH 36 41
ENDBRANCH 34 36
ENDBRANCH 31 32
BRANCH 31 46
ATOM     46  CB  TYR B   2      20.258  14.587  34.493  1.00 30.42 LIG 0.07  C 
BRANCH 46 47
ATOM     47  CG  TYR B   2      19.769  15.773  33.649  1.00 30.81 LIG-0.06  A 
ATOM     48  CD2 TYR B   2      18.415  16.082  33.519  1.00 30.26 LIG 0.01  A 
ATOM     49  CE2 TYR B   2      18.000  17.177  32.717  1.00 27.61 LIG 0.04  A 
ATOM     50  CZ  TYR B   2      18.964  17.948  32.088  1.00 28.62 LIG 0.07  A 
ATOM     51  CE1 TYR B   2      20.293  17.648  32.216  1.00 33.56 LIG 0.04  A 
ATOM     52  CD1 TYR B   2      20.682  16.566  32.995  1.00 35.64 LIG 0.01  A 
BRANCH 50 53
ATOM     53 OH   TYR B   2      18.645  19.026  31.276  1.00 30.95 LIG-0.36  OA
ATOM     54 HH   TYR B   2      17.923  18.870  30.875  1.00 30.95 LIG 0.22  HD
ENDBRANCH 50 53
ENDBRANCH 46 47
ENDBRANCH 31 46
ENDBRANCH 1 31
TORSDOF 22
ENDMDL
MODEL 3
USER: ADFR SOLUTION from run 132
USER: SCORE 18.785389 LL:  -4.553 LR: -15.293 RR:   0.000 FEB:  -8.731
USER: RMSD 2.878621
USER: SEED 131
USER: STATUS no improvement in best in 2 clusters for 5 generations
USER: GENES 24
USER: genes 0 Translation |==|  0.49169 0.57024 0.58516
USER: genes 1 Rotation |==|  0.56971 0.48119 0.51475 0.99454
USER: genes 2 Torsion [C]-N--CA-[C] |==|  0.63975
USER: genes 3 Torsion [N]-CA--C-[N] |==|  0.43956
USER: genes 4 Torsion [C]-N--CA-[C] |==|  0.71252
USER: genes 5 Torsion [N]-CA--C-[N] |==|  0.39266
USER: genes 6 Torsion [C]-N--CA-[CB] |==|  0.18488
USER: genes 7 Torsion [N]-CA--C-[OXT] |==|  0.55596
USER: genes 8 Torsion [N]-CA--CB-[CG] |==|  0.08572
USER: genes 9 Torsion [CA]-CB--CG-[CD1] |==|  0.31725
USER: genes 10 Torsion [N]-CA--CB-[OG] |==|  0.70617
USER: genes 11 Torsion [CA]-CB--OG-[HG] |==|  0.95246
USER: genes 12 Torsion [N]-CA--CB-[CG] |==|  0.63684
USER: genes 13 Torsion [CA]-CB--CG-[CD] |==|  0.28105
USER: genes 14 Torsion [CB]-CG--CD-[OE2] |==|  0.79961
USER: genes 15 Torsion [N]-C--CA-[N] |==|  0.40472
USER: genes 16 Torsion [C]-CA--N-[C] |==|  0.63183
USER: genes 17 Torsion [N]-C--CA-[N] |==|  0.89342
USER: genes 18 Torsion [C]-CA--CB-[CG2] |==|  0.03584
USER: genes 19 Torsion [CA]-CB--CG1-[CD1] |==|  0.31006
USER: genes 20 Torsion [C]-CA--N-[C] |==|  0.59444
USER: genes 21 Torsion [C]-CA--CB-[CG] |==|  0.99071
USER: genes 22 Torsion [CA]-CB--CG-[CD2] |==|  0.75889
USER: genes 23 Torsion [CE2]-CZ--OH-[HH] |==|  0.05277
ROOT
ATOM      1  C   TYR B   2      21.127  15.553  39.040  1.00 34.05 LIG 0.24  C 
ATOM      2 O    TYR B   2      22.340  15.502  39.228  1.00 39.10 LIG-0.27  OA
ATOM      3  N   GLU B   3      20.272  14.585  39.335  1.00 35.19 LIG-0.35  N 
ATOM      4 H    GLU B   3      19.421  14.672  39.244  1.00 35.19 LIG 0.16  HD
ENDROOT
BRANCH 3 5
ATOM      5  CA  GLU B   3      20.670  13.265  39.843  1.00 40.21 LIG 0.18  C 
BRANCH 5 6
ATOM      6  C   GLU B   3      19.993  12.207  39.008  1.00 33.75 LIG 0.24  C 
ATOM      7 O    GLU B   3      18.987  12.494  38.378  1.00 31.69 LIG-0.27  OA
ATOM      8  N   SER B   4      20.525  10.971  38.982  1.00 29.90 LIG-0.34  N 
ATOM      9 H    SER B   4      21.281  10.759  39.333  1.00 29.90 LIG 0.16  HD
BRANCH 8 10
ATOM     10  CA  SER B   4      19.820   9.871  38.332  1.00 28.06 LIG 0.20  C 
BRANCH 10 11
ATOM     11  C   SER B   4      19.190   8.989  39.418  1.00 33.99 LIG 0.24  C 
ATOM     12  N   LEU B   5      17.986   8.505  39.148  1.00 32.03 LIG-0.34  N 
ATOM     13 H    LEU B   5      17.616   8.576  38.375  1.00 32.03 LIG 0.16  HD
ATOM     14 O    SER B   4      19.788   8.782  40.487  1.00 35.03 LIG-0.27  OA
BRANCH 12 15
ATOM     15  CA  LEU B   5      17.151   7.792  40.141  1.00 33.34 LIG 0.18  C 
BRANCH 15 16
ATOM     16  C   LEU B   5      15.896   7.188  39.528  1.00 39.47 LIG 0.20  C 
ATOM     17 O    LEU B   5      15.826   7.062  38.293  1.00 29.87 LIG-0.65  OA
ATOM     18 OXT  LEU B   5      14.901   6.882  40.244  1.00 38.97 LIG-0.65  OA
ENDBRANCH 15 16
BRANCH 15 19
ATOM     19  CB  LEU B   5      16.719   8.741  41.252  1.00 34.52 LIG 0.04  C 
BRANCH 19 20
ATOM     20  CG  LEU B   5      16.534  10.195  40.864  1.00 35.74 LIG-0.02  C 
ATOM     21  CD1 LEU B   5      15.052  10.571  41.005  1.00 34.91 LIG 0.01  C 
ATOM     22  CD2 LEU B   5      17.425  11.079  41.723  1.00 32.02 LIG 0.01  C 
ENDBRANCH 19 20
ENDBRANCH 15 19
ENDBRANCH 12 15
ENDBRANCH 10 11
BRANCH 10 23
ATOM     23  CB  SER B   4      20.752   9.025  37.448  1.00 31.79 LIG 0.20  C 
BRANCH 23 24
ATOM     24 OG   SER B   4      20.514   9.296  36.079  1.00 32.94 LIG-0.40  OA
ATOM     25 HG   SER B   4      19.770   9.678  35.994  1.00 32.94 LIG 0.21  HD
ENDBRANCH 23 24
ENDBRANCH 10 23
ENDBRANCH 8 10
ENDBRANCH 5 6
BRANCH 5 26
ATOM     26  CB  GLU B   3      20.193  13.102  41.283  1.00 42.52 LIG 0.04  C 
BRANCH 26 27
ATOM     27  CG  GLU B   3      21.294  12.609  42.222  1.00 61.90 LIG 0.12  C 
BRANCH 27 28
ATOM     28  CD  GLU B   3      21.887  13.724  43.044  1.00 67.28 LIG 0.17  C 
ATOM     29 OE1  GLU B   3      21.592  13.777  44.262  1.00 80.18 LIG-0.65  OA
ATOM     30 OE2  GLU B   3      22.627  14.554  42.463  1.00 64.56 LIG-0.65  OA
ENDBRANCH 27 28
ENDBRANCH 26 27
ENDBRANCH 5 26
ENDBRANCH 3 5
BRANCH 1 31
ATOM     31  CA  TYR B   2      20.509  16.814  38.452  1.00 27.59 LIG 0.18  C 
BRANCH 31 32
ATOM     32  N   TYR B   2      21.250  17.989  38.900  1.00 28.42 LIG-0.35  N 
ATOM     33 H    TYR B   2      22.104  17.922  38.828  1.00 28.42 LIG 0.16  HD
ATOM     34  C   ILE B   1      20.628  19.053  39.372  1.00 34.57 LIG 0.24  C 
ATOM     35 O    ILE B   1      19.388  19.121  39.500  1.00 35.77 LIG-0.27  OA
BRANCH 34 36
ATOM     36  CA  ILE B   1      21.506  20.225  39.726  1.00 36.91 LIG 0.18  C 
BRANCH 36 37
ATOM     37  CB  ILE B   1      21.825  20.967  38.432  1.00 38.00 LIG 0.01  C 
ATOM     38  CG2 ILE B   1      20.904  20.473  37.301  1.00 37.47 LIG 0.01  C 
BRANCH 37 39
ATOM     39  CG1 ILE B   1      21.652  22.470  38.659  1.00 43.59 LIG 0.00  C 
ATOM     40  CD1 ILE B   1      22.943  23.248  38.621  1.00 39.71 LIG 0.01  C 
ENDBRANCH 37 39
ENDBRANCH 36 37
BRANCH 36 41
ATOM     41  N   ILE B   1      22.801  19.817  40.351  1.00 36.86 LIG-0.35  N 
ATOM     42 H    ILE B   1      23.110  19.075  40.043  1.00 36.86 LIG 0.16  HD
ATOM     43  C   ACE B   0      23.438  20.540  41.312  1.00 40.91 LIG 0.21  C 
ATOM     44 O    ACE B   0      22.999  21.590  41.750  1.00 40.13 LIG-0.27  OA
ATOM     45  CH3 ACE B   0      24.739  19.976  41.853  1.00 36.31 LIG 0.12  C 
ENDBRANCH 36 41
ENDBRANCH 34 36
ENDBRANCH 31 32
BRANCH 31 46
ATOM     46  CB  TYR B   2      20.501  16.731  36.943  1.00 30.42 LIG 0.07  C 
BRANCH 46 47
ATOM     47  CG  TYR B   2      21.169  15.475  36.365  1.00 30.81 LIG-0.06  A 
ATOM     48  CD2 TYR B   2      22.539  15.415  36.109  1.00 30.26 LIG 0.01  A 
ATOM     49  CE2 TYR B   2      23.118  14.242  35.558  1.00 27.61 LIG 0.04  A 
ATOM     50  CZ  TYR B   2      22.303  13.150  35.303  1.00 28.62 LIG 0.07  A 
ATOM     51  CE1 TYR B   2      20.959  13.207  35.555  1.00 33.56 LIG 0.04  A 
ATOM     52  CD1 TYR B   2      20.406  14.366  36.084  1.00 35.64 LIG 0.01  A 
BRANCH 50 53
ATOM     53 OH   TYR B   2      22.785  11.972  34.753  1.00 30.95 LIG-0.36  OA
ATOM     54 HH   TYR B   2      23.618  11.937  34.852  1.00 30.95 LIG 0.22  HD
ENDBRANCH 50 53
ENDBRANCH 46 47
ENDBRANCH 31 46
ENDBRANCH 1 31
TORSDOF 22
ENDMDL
