MODEL 1
USER: ADFR SOLUTION from run 3
USER: SCORE 10.056515 LL:  -1.109 LR:  -8.948 RR:   0.000 FEB:  -7.755
USER: RMSD 2.209706
USER: SEED 149230
USER: STATUS 1 or 2 clusters left
USER: GENES 6
USER: genes 0 Translation |==|  0.35785 0.46519 0.45170
USER: genes 1 Rotation |==|  0.50480 0.59655 0.60056 0.98015
USER: genes 2 Torsion [N]-CA--C-[O] |==|  0.01933
USER: genes 3 Torsion [N]-CA--C-[O] |==|  0.90796
USER: genes 4 Torsion [N]-C--CA-[N] |==|  0.35891
USER: genes 5 Torsion [C]-CA--N-[H1] |==|  0.25862
ROOT
ATOM      1  C   ALA E   1    -108.309  67.644  -9.841  0.79 25.31 LIG 0.25  C 
ATOM      2 O    ALA E   1    -108.052  67.728 -11.033  0.79 21.55 LIG-0.27  OA
ATOM      3  N   PRO E   2    -108.772  68.693  -9.127  0.79 27.56 LIG-0.34  N 
ATOM      4  CA  PRO E   2    -108.710  70.081  -9.637  0.79 29.17 LIG 0.18  C 
ATOM      5  CB  PRO E   2    -109.604  70.864  -8.659  0.79 31.66 LIG 0.04  C 
ATOM      6  CG  PRO E   2    -110.412  69.838  -7.924  0.79 31.87 LIG 0.02  C 
ATOM      7  CD  PRO E   2    -109.552  68.593  -7.885  0.79 37.64 LIG 0.13  C 
ENDROOT
BRANCH 4 8
ATOM      8  C   PRO E   2    -107.283  70.647  -9.552  0.79 31.28 LIG 0.24  C 
ATOM      9 O    PRO E   2    -106.378  69.886  -9.221  0.79 33.48 LIG-0.27  OA
ATOM     10  N   PRO E   3    -107.082  71.957  -9.806  0.79 31.99 LIG-0.34  N 
ATOM     11  CA  PRO E   3    -105.702  72.463  -9.827  0.79 36.13 LIG 0.17  C 
ATOM     12  CD  PRO E   3    -108.051  73.058  -9.889  0.79 37.75 LIG 0.13  C 
ATOM     13  CB  PRO E   3    -105.841  73.894 -10.386  0.79 39.82 LIG 0.04  C 
ATOM     14  CG  PRO E   3    -107.303  74.087 -10.717  0.79 32.33 LIG 0.02  C 
BRANCH 11 15
ATOM     15  C   PRO E   3    -105.130  72.531  -8.421  0.79 38.04 LIG 0.22  C 
ATOM     16 O    PRO E   3    -105.936  72.794  -7.531  0.79 39.77 LIG-0.29  OA
ENDBRANCH 11 15
ENDBRANCH 4 8
BRANCH 1 17
ATOM     17  CA  ALA E   1    -108.119  66.302  -9.108  0.79 27.80 LIG 0.27  C 
ATOM     18  CB  ALA E   1    -106.622  65.993  -8.956  0.79 29.16 LIG 0.05  C 
BRANCH 17 19
ATOM     19  N   ALA E   1    -108.771  65.218  -9.839  0.79 20.73 LIG-0.07  N 
ATOM     20 H1   ALA E   1    -108.184  64.833 -10.386  0.79 20.73 LIG 0.28  HD
ATOM     21 H2   ALA E   1    -109.078  64.614  -9.262  0.79 20.73 LIG 0.28  HD
ATOM     22 H3   ALA E   1    -109.449  65.545 -10.313  0.79 20.73 LIG 0.28  HD
ENDBRANCH 17 19
ENDBRANCH 1 17
TORSDOF 4
ENDMDL
MODEL 2
USER: ADFR SOLUTION from run 32
USER: SCORE 9.578205 LL:  -1.288 LR:  -8.290 RR:   0.000 FEB:  -7.097
USER: RMSD 0.364710
USER: SEED 31
USER: STATUS 1 or 2 clusters left
USER: GENES 6
USER: genes 0 Translation |==|  0.37194 0.43841 0.45950
USER: genes 1 Rotation |==|  0.49406 0.50601 0.48105 0.99957
USER: genes 2 Torsion [N]-CA--C-[O] |==|  0.95536
USER: genes 3 Torsion [N]-CA--C-[O] |==|  0.80686
USER: genes 4 Torsion [N]-C--CA-[N] |==|  0.46357
USER: genes 5 Torsion [C]-CA--N-[H1] |==|  0.41693
ROOT
ATOM      1  C   ALA E   1    -108.098  67.202  -9.747  0.79 25.31 LIG 0.25  C 
ATOM      2 O    ALA E   1    -107.447  66.992 -10.761  0.79 21.55 LIG-0.27  OA
ATOM      3  N   PRO E   2    -108.235  68.439  -9.223  0.79 27.56 LIG-0.34  N 
ATOM      4  CA  PRO E   2    -107.376  69.570  -9.636  0.79 29.17 LIG 0.18  C 
ATOM      5  CB  PRO E   2    -108.079  70.797  -9.030  0.79 31.66 LIG 0.04  C 
ATOM      6  CG  PRO E   2    -109.462  70.346  -8.669  0.79 31.87 LIG 0.02  C 
ATOM      7  CD  PRO E   2    -109.340  68.871  -8.353  0.79 37.64 LIG 0.13  C 
ENDROOT
BRANCH 4 8
ATOM      8  C   PRO E   2    -105.971  69.461  -9.022  0.79 31.28 LIG 0.24  C 
ATOM      9 O    PRO E   2    -105.810  68.693  -8.077  0.79 33.48 LIG-0.27  OA
ATOM     10  N   PRO E   3    -104.980  70.234  -9.512  0.79 31.99 LIG-0.34  N 
ATOM     11  CA  PRO E   3    -103.618  70.045  -8.991  0.79 36.13 LIG 0.17  C 
ATOM     12  CD  PRO E   3    -105.052  71.414 -10.386  0.79 37.75 LIG 0.13  C 
ATOM     13  CB  PRO E   3    -102.739  70.889  -9.935  0.79 39.82 LIG 0.04  C 
ATOM     14  CG  PRO E   3    -103.661  71.456 -10.991  0.79 32.33 LIG 0.02  C 
BRANCH 11 15
ATOM     15  C   PRO E   3    -103.501  70.593  -7.578  0.79 38.04 LIG 0.22  C 
ATOM     16 O    PRO E   3    -103.558  71.816  -7.475  0.79 39.77 LIG-0.29  OA
ENDBRANCH 11 15
ENDBRANCH 4 8
BRANCH 1 17
ATOM     17  CA  ALA E   1    -108.803  66.034  -9.032  0.79 27.80 LIG 0.27  C 
ATOM     18  CB  ALA E   1    -108.090  65.717  -7.710  0.79 29.16 LIG 0.05  C 
BRANCH 17 19
ATOM     19  N   ALA E   1    -108.816  64.843  -9.879  0.79 20.73 LIG-0.07  N 
ATOM     20 H1   ALA E   1    -108.807  64.115  -9.368  0.79 20.73 LIG 0.28  HD
ATOM     21 H2   ALA E   1    -109.552  64.843 -10.381  0.79 20.73 LIG 0.28  HD
ATOM     22 H3   ALA E   1    -108.099  64.845 -10.406  0.79 20.73 LIG 0.28  HD
ENDBRANCH 17 19
ENDBRANCH 1 17
TORSDOF 4
ENDMDL
MODEL 3
USER: ADFR SOLUTION from run 5
USER: SCORE 8.855054 LL:  -1.250 LR:  -7.605 RR:   0.000 FEB:  -6.412
USER: RMSD 3.756606
USER: SEED 23488
USER: STATUS no improvement in best in 4 clusters for 5 generations
USER: GENES 6
USER: genes 0 Translation |==|  0.37791 0.45673 0.56814
USER: genes 1 Rotation |==|  0.72391 0.91367 0.53691 0.66546
USER: genes 2 Torsion [N]-CA--C-[O] |==|  0.83721
USER: genes 3 Torsion [N]-CA--C-[O] |==|  0.53042
USER: genes 4 Torsion [N]-C--CA-[N] |==|  0.44233
USER: genes 5 Torsion [C]-CA--N-[H1] |==|  0.32049
ROOT
ATOM      1  C   ALA E   1    -108.008  67.504  -8.443  0.79 25.31 LIG 0.25  C 
ATOM      2 O    ALA E   1    -108.978  68.143  -8.059  0.79 21.55 LIG-0.27  OA
ATOM      3  N   PRO E   2    -106.742  67.928  -8.243  0.79 27.56 LIG-0.34  N 
ATOM      4  CA  PRO E   2    -106.430  69.315  -7.833  0.79 29.17 LIG 0.18  C 
ATOM      5  CB  PRO E   2    -104.946  69.249  -7.435  0.79 31.66 LIG 0.04  C 
ATOM      6  CG  PRO E   2    -104.627  67.794  -7.262  0.79 31.87 LIG 0.02  C 
ATOM      7  CD  PRO E   2    -105.555  67.060  -8.206  0.79 37.64 LIG 0.13  C 
ENDROOT
BRANCH 4 8
ATOM      8  C   PRO E   2    -106.576  70.294  -9.009  0.79 31.28 LIG 0.24  C 
ATOM      9 O    PRO E   2    -105.892  70.100 -10.011  0.79 33.48 LIG-0.27  OA
ATOM     10  N   PRO E   3    -107.414  71.344  -8.888  0.79 31.99 LIG-0.34  N 
ATOM     11  CA  PRO E   3    -107.626  72.212 -10.056  0.79 36.13 LIG 0.17  C 
ATOM     12  CD  PRO E   3    -108.044  71.911  -7.687  0.79 37.75 LIG 0.13  C 
ATOM     13  CB  PRO E   3    -108.802  73.117  -9.636  0.79 39.82 LIG 0.04  C 
ATOM     14  CG  PRO E   3    -109.235  72.652  -8.264  0.79 32.33 LIG 0.02  C 
BRANCH 11 15
ATOM     15  C   PRO E   3    -106.402  73.073 -10.317  0.79 38.04 LIG 0.22  C 
ATOM     16 O    PRO E   3    -106.552  73.977 -11.136  0.79 39.77 LIG-0.29  OA
ENDBRANCH 11 15
ENDBRANCH 4 8
BRANCH 1 17
ATOM     17  CA  ALA E   1    -108.212  66.163  -9.172  0.79 27.80 LIG 0.27  C 
ATOM     18  CB  ALA E   1    -108.052  66.357 -10.688  0.79 29.16 LIG 0.05  C 
BRANCH 17 19
ATOM     19  N   ALA E   1    -109.537  65.616  -8.886  0.79 20.73 LIG-0.07  N 
ATOM     20 H1   ALA E   1    -110.016  65.590  -9.636  0.79 20.73 LIG 0.28  HD
ATOM     21 H2   ALA E   1    -109.455  64.793  -8.559  0.79 20.73 LIG 0.28  HD
ATOM     22 H3   ALA E   1    -109.949  66.132  -8.289  0.79 20.73 LIG 0.28  HD
ENDBRANCH 17 19
ENDBRANCH 1 17
TORSDOF 4
ENDMDL
MODEL 4
USER: ADFR SOLUTION from run 6
USER: SCORE 8.925458 LL:  -1.405 LR:  -7.520 RR:   0.000 FEB:  -6.327
USER: RMSD 2.613766
USER: SEED 205269
USER: STATUS no improvement in best in 3 clusters for 5 generations
USER: GENES 6
USER: genes 0 Translation |==|  0.36072 0.44110 0.45987
USER: genes 1 Rotation |==|  0.49737 0.52455 0.50523 0.99936
USER: genes 2 Torsion [N]-CA--C-[O] |==|  0.34172
USER: genes 3 Torsion [N]-CA--C-[O] |==|  0.94063
USER: genes 4 Torsion [N]-C--CA-[N] |==|  0.45740
USER: genes 5 Torsion [C]-CA--N-[H1] |==|  0.77041
ROOT
ATOM      1  C   ALA E   1    -108.266  67.246  -9.743  0.79 25.31 LIG 0.25  C 
ATOM      2 O    ALA E   1    -107.677  67.114 -10.806  0.79 21.55 LIG-0.27  OA
ATOM      3  N   PRO E   2    -108.480  68.457  -9.184  0.79 27.56 LIG-0.34  N 
ATOM      4  CA  PRO E   2    -107.766  69.672  -9.636  0.79 29.17 LIG 0.18  C 
ATOM      5  CB  PRO E   2    -108.534  70.817  -8.955  0.79 31.66 LIG 0.04  C 
ATOM      6  CG  PRO E   2    -109.837  70.230  -8.502  0.79 31.87 LIG 0.02  C 
ATOM      7  CD  PRO E   2    -109.552  68.769  -8.227  0.79 37.64 LIG 0.13  C 
ENDROOT
BRANCH 4 8
ATOM      8  C   PRO E   2    -106.314  69.689  -9.130  0.79 31.28 LIG 0.24  C 
ATOM      9 O    PRO E   2    -105.413  69.777  -9.960  0.79 33.48 LIG-0.27  OA
ATOM     10  N   PRO E   3    -106.080  69.570  -7.806  0.79 31.99 LIG-0.34  N 
ATOM     11  CA  PRO E   3    -104.697  69.696  -7.324  0.79 36.13 LIG 0.17  C 
ATOM     12  CD  PRO E   3    -106.979  69.135  -6.728  0.79 37.75 LIG 0.13  C 
ATOM     13  CB  PRO E   3    -104.844  69.762  -5.791  0.79 39.82 LIG 0.04  C 
ATOM     14  CG  PRO E   3    -106.327  69.740  -5.499  0.79 32.33 LIG 0.02  C 
BRANCH 11 15
ATOM     15  C   PRO E   3    -103.883  68.467  -7.694  0.79 38.04 LIG 0.22  C 
ATOM     16 O    PRO E   3    -104.533  67.451  -7.933  0.79 39.77 LIG-0.29  OA
ENDBRANCH 11 15
ENDBRANCH 4 8
BRANCH 1 17
ATOM     17  CA  ALA E   1    -108.802  66.006  -9.002  0.79 27.80 LIG 0.27  C 
ATOM     18  CB  ALA E   1    -107.930  65.709  -7.773  0.79 29.16 LIG 0.05  C 
BRANCH 17 19
ATOM     19  N   ALA E   1    -108.815  64.843  -9.887  0.79 20.73 LIG-0.07  N 
ATOM     20 H1   ALA E   1    -109.552  64.858 -10.386  0.79 20.73 LIG 0.28  HD
ATOM     21 H2   ALA E   1    -108.099  64.863 -10.415  0.79 20.73 LIG 0.28  HD
ATOM     22 H3   ALA E   1    -108.802  64.099  -9.399  0.79 20.73 LIG 0.28  HD
ENDBRANCH 17 19
ENDBRANCH 1 17
TORSDOF 4
ENDMDL
MODEL 5
USER: ADFR SOLUTION from run 54
USER: SCORE 8.086384 LL:  -0.893 LR:  -7.193 RR:   0.000 FEB:  -6.000
USER: RMSD 2.421423
USER: SEED 53
USER: STATUS no improvement in best in 5 clusters for 5 generations
USER: GENES 6
USER: genes 0 Translation |==|  0.35247 0.48438 0.44764
USER: genes 1 Rotation |==|  0.50776 0.62127 0.63514 0.96580
USER: genes 2 Torsion [N]-CA--C-[O] |==|  0.40496
USER: genes 3 Torsion [N]-CA--C-[O] |==|  0.52825
USER: genes 4 Torsion [N]-C--CA-[N] |==|  0.35298
USER: genes 5 Torsion [C]-CA--N-[H1] |==|  0.27373
ROOT
ATOM      1  C   ALA E   1    -108.390  67.960  -9.889  0.79 25.31 LIG 0.25  C 
ATOM      2 O    ALA E   1    -108.278  68.094 -11.100  0.79 21.55 LIG-0.27  OA
ATOM      3  N   PRO E   2    -108.916  68.925  -9.104  0.79 27.56 LIG-0.34  N 
ATOM      4  CA  PRO E   2    -109.107  70.313  -9.580  0.79 29.17 LIG 0.18  C 
ATOM      5  CB  PRO E   2    -109.992  70.948  -8.494  0.79 31.66 LIG 0.04  C 
ATOM      6  CG  PRO E   2    -110.563  69.809  -7.705  0.79 31.87 LIG 0.02  C 
ATOM      7  CD  PRO E   2    -109.536  68.700  -7.789  0.79 37.64 LIG 0.13  C 
ENDROOT
BRANCH 4 8
ATOM      8  C   PRO E   2    -107.774  71.076  -9.632  0.79 31.28 LIG 0.24  C 
ATOM      9 O    PRO E   2    -107.617  71.906 -10.524  0.79 33.48 LIG-0.27  OA
ATOM     10  N   PRO E   3    -106.816  70.784  -8.728  0.79 31.99 LIG-0.34  N 
ATOM     11  CA  PRO E   3    -105.588  71.593  -8.720  0.79 36.13 LIG 0.17  C 
ATOM     12  CD  PRO E   3    -106.695  69.630  -7.826  0.79 37.75 LIG 0.13  C 
ATOM     13  CB  PRO E   3    -104.863  71.153  -7.432  0.79 39.82 LIG 0.04  C 
ATOM     14  CG  PRO E   3    -105.772  70.159  -6.745  0.79 32.33 LIG 0.02  C 
BRANCH 11 15
ATOM     15  C   PRO E   3    -104.717  71.262  -9.920  0.79 38.04 LIG 0.22  C 
ATOM     16 O    PRO E   3    -103.584  71.739  -9.904  0.79 39.77 LIG-0.29  OA
ENDBRANCH 11 15
ENDBRANCH 4 8
BRANCH 1 17
ATOM     17  CA  ALA E   1    -107.933  66.652  -9.216  0.79 27.80 LIG 0.27  C 
ATOM     18  CB  ALA E   1    -106.403  66.534  -9.278  0.79 29.16 LIG 0.05  C 
BRANCH 17 19
ATOM     19  N   ALA E   1    -108.541  65.496  -9.871  0.79 20.73 LIG-0.07  N 
ATOM     20 H1   ALA E   1    -107.961  65.141 -10.446  0.79 20.73 LIG 0.28  HD
ATOM     21 H2   ALA E   1    -108.759  64.888  -9.259  0.79 20.73 LIG 0.28  HD
ATOM     22 H3   ALA E   1    -109.273  65.752 -10.308  0.79 20.73 LIG 0.28  HD
ENDBRANCH 17 19
ENDBRANCH 1 17
TORSDOF 4
ENDMDL
