MODEL 1
USER: ADFR SOLUTION from run 39
USER: SCORE 23.114231 LL:  -4.534 LR: -19.149 RR:   0.000 FEB: -12.885
USER: RMSD 2.052063
USER: SEED 38
USER: STATUS no improvement in best in 2 clusters for 5 generations
USER: GENES 23
USER: genes 0 Translation |==|  0.56923 0.50861 0.48588
USER: genes 1 Rotation |==|  0.52932 0.51613 0.50559 0.99885
USER: genes 2 Torsion [C]-CA--N-[C] |==|  0.69713
USER: genes 3 Torsion [N]-C--CA-[CB] |==|  0.71391
USER: genes 4 Torsion [N]-C--CA-[N] |==|  0.36684
USER: genes 5 Torsion [C]-CA--N-[C] |==|  0.64269
USER: genes 6 Torsion [N]-C--CA-[N] |==|  0.44068
USER: genes 7 Torsion [C]-CA--N-[H3] |==|  0.02936
USER: genes 8 Torsion [C]-CA--CB-[CG2] |==|  0.40577
USER: genes 9 Torsion [CA]-CB--OG1-[HG1] |==|  0.02949
USER: genes 10 Torsion [N]-CA--C-[N] |==|  0.89938
USER: genes 11 Torsion [C]-N--CA-[CB] |==|  0.85556
USER: genes 12 Torsion [N]-CA--CB-[CG] |==|  0.74131
USER: genes 13 Torsion [CA]-CB--CG-[CD] |==|  0.97944
USER: genes 14 Torsion [CB]-CG--CD-[NE2] |==|  0.74516
USER: genes 15 Torsion [N]-CA--C-[N] |==|  0.88998
USER: genes 16 Torsion [C]-N--CA-[CB] |==|  0.55275
USER: genes 17 Torsion [N]-CA--C-[O] |==|  0.80222
USER: genes 18 Torsion [N]-CA--CB-[CG] |==|  0.86850
USER: genes 19 Torsion [CA]-CB--CG-[CD] |==|  0.46973
USER: genes 20 Torsion [CB]-CG--CD-[OE2] |==|  0.55165
USER: genes 21 Torsion [N]-CA--CB-[CG] |==|  0.15286
USER: genes 22 Torsion [CA]-CB--CG-[CD2] |==|  0.73964
ROOT
ATOM      1  CA  PHE D   4      11.827 -11.972 -36.065  1.00 20.42 LIG 0.18  C 
ENDROOT
BRANCH 1 2
ATOM      2  N   PHE D   4      10.568 -12.216 -36.760  1.00 19.57 LIG-0.35  N 
ATOM      3 H    PHE D   4       9.918 -12.466 -36.256  1.00 19.57 LIG 0.16  HD
ATOM      4  C   PRO D   3      10.482 -12.052 -38.066  1.00 20.09 LIG 0.24  C 
ATOM      5 O    PRO D   3      11.344 -11.443 -38.721  1.00 21.30 LIG-0.27  OA
BRANCH 4 6
ATOM      6  CA  PRO D   3       9.243 -12.643 -38.733  1.00 18.08 LIG 0.18  C 
ATOM      7  CB  PRO D   3       9.541 -13.945 -39.461  1.00 20.04 LIG 0.04  C 
ATOM      8  CG  PRO D   3       9.484 -13.593 -40.914  1.00 21.57 LIG 0.02  C 
ATOM      9  CD  PRO D   3       8.611 -12.430 -41.101  1.00 18.25 LIG 0.13  C 
ATOM     10  N   PRO D   3       8.645 -11.792 -39.767  1.00 17.53 LIG-0.34  N 
ATOM     11  C   THR D   2       8.016 -10.675 -39.411  1.00 17.82 LIG 0.24  C 
ATOM     12 O    THR D   2       7.933 -10.338 -38.228  1.00 17.76 LIG-0.27  OA
BRANCH 11 13
ATOM     13  CA  THR D   2       7.366  -9.863 -40.523  1.00 18.92 LIG 0.20  C 
BRANCH 13 14
ATOM     14  N   THR D   2       6.005  -9.499 -40.163  1.00 17.98 LIG-0.34  N 
ATOM     15  C   ALA D   1       4.972  -9.728 -40.968  1.00 18.22 LIG 0.25  C 
ATOM     16 O    ALA D   1       5.090 -10.254 -42.091  1.00 17.84 LIG-0.27  OA
ATOM     17 H    THR D   2       5.934  -9.127 -39.392  1.00 17.98 LIG 0.16  HD
BRANCH 15 18
ATOM     18  CA  ALA D   1       3.610  -9.297 -40.443  1.00 17.93 LIG 0.27  C 
ATOM     19  CB  ALA D   1       3.040 -10.342 -39.450  1.00 19.43 LIG 0.05  C 
BRANCH 18 20
ATOM     20  N   ALA D   1       2.665  -9.127 -41.603  1.00 19.30 LIG-0.07  N 
ATOM     21 H3   ALA D   1       3.038  -9.456 -42.341  1.00 19.30 LIG 0.28  HD
ATOM     22 H2   ALA D   1       2.490  -8.262 -41.721  1.00 19.30 LIG 0.28  HD
ATOM     23 H1   ALA D   1       1.907  -9.562 -41.434  1.00 19.30 LIG 0.28  HD
ENDBRANCH 18 20
ENDBRANCH 15 18
ENDBRANCH 13 14
BRANCH 13 24
ATOM     24  CB  THR D   2       8.199  -8.603 -40.793  1.00 21.41 LIG 0.15  C 
ATOM     25  CG2 THR D   2       8.148  -8.245 -42.270  1.00 25.14 LIG 0.04  C 
BRANCH 24 26
ATOM     26 OG1  THR D   2       7.642  -7.507 -40.059  1.00 26.95 LIG-0.39  OA
ATOM     27 HG1  THR D   2       7.068  -7.795 -39.519  1.00 26.95 LIG 0.21  HD
ENDBRANCH 24 26
ENDBRANCH 13 24
ENDBRANCH 11 13
ENDBRANCH 4 6
ENDBRANCH 1 2
BRANCH 1 28
ATOM     28  C   PHE D   4      12.426 -13.296 -35.599  1.00 22.48 LIG 0.24  C 
ATOM     29 O    PHE D   4      13.651 -13.469 -35.588  1.00 22.33 LIG-0.27  OA
ATOM     30  N   GLN D   5      11.565 -14.225 -35.189  1.00 24.26 LIG-0.35  N 
ATOM     31 H    GLN D   5      10.720 -14.205 -35.349  1.00 24.26 LIG 0.16  HD
BRANCH 30 32
ATOM     32  CA  GLN D   5      12.015 -15.385 -34.409  1.00 25.91 LIG 0.18  C 
BRANCH 32 33
ATOM     33  CB  GLN D   5      13.179 -16.101 -35.101  1.00 26.73 LIG 0.04  C 
BRANCH 33 34
ATOM     34  CG  GLN D   5      12.786 -17.269 -36.025  1.00 26.03 LIG 0.10  C 
BRANCH 34 35
ATOM     35  CD  GLN D   5      11.305 -17.647 -35.970  1.00 27.76 LIG 0.21  C 
ATOM     36  NE2 GLN D   5      10.979 -18.609 -35.075  1.00 30.48 LIG-0.37  N 
ATOM     37 22HE GLN D   5      10.165 -18.880 -35.013  1.00 30.48 LIG 0.16  HD
ATOM     38 21HE GLN D   5      11.585 -18.949 -34.568  1.00 30.48 LIG 0.16  HD
ATOM     39 OE1  GLN D   5      10.451 -17.122 -36.731  1.00 30.83 LIG-0.27  OA
ENDBRANCH 34 35
ENDBRANCH 33 34
ENDBRANCH 32 33
BRANCH 32 40
ATOM     40  C   GLN D   5      12.469 -15.050 -33.003  1.00 27.22 LIG 0.24  C 
ATOM     41  N   GLU D   6      13.164 -13.932 -32.880  1.00 28.14 LIG-0.34  N 
ATOM     42 H    GLU D   6      13.243 -13.345 -33.503  1.00 28.14 LIG 0.16  HD
ATOM     43 O    GLN D   5      12.222 -15.801 -32.059  1.00 29.15 LIG-0.27  OA
BRANCH 41 44
ATOM     44  CA  GLU D   6      13.864 -13.601 -31.656  1.00 27.71 LIG 0.19  C 
BRANCH 44 45
ATOM     45  C   GLU D   6      13.083 -14.005 -30.392  1.00 28.68 LIG 0.20  C 
ATOM     46 O    GLU D   6      12.042 -13.367 -30.063  1.00 28.16 LIG-0.65  OA
ATOM     47 OXT  GLU D   6      13.540 -14.953 -29.720  1.00 19.61 LIG-0.65  OA
ENDBRANCH 44 45
BRANCH 44 48
ATOM     48  CB  GLU D   6      14.142 -12.097 -31.673  1.00 27.67 LIG 0.05  C 
BRANCH 48 49
ATOM     49  CG  GLU D   6      14.739 -11.620 -33.031  1.00 29.50 LIG 0.12  C 
BRANCH 49 50
ATOM     50  CD  GLU D   6      14.770 -10.090 -33.151  1.00 27.58 LIG 0.17  C 
ATOM     51 OE2  GLU D   6      14.884  -9.507 -34.269  1.00 34.29 LIG-0.65  OA
ATOM     52 OE1  GLU D   6      14.665  -9.450 -32.083  1.00 35.41 LIG-0.65  OA
ENDBRANCH 49 50
ENDBRANCH 48 49
ENDBRANCH 44 48
ENDBRANCH 41 44
ENDBRANCH 32 40
ENDBRANCH 30 32
ENDBRANCH 1 28
BRANCH 1 53
ATOM     53  CB  PHE D   4      11.622 -10.997 -34.893  1.00 18.89 LIG 0.07  C 
BRANCH 53 54
ATOM     54  CG  PHE D   4      10.559 -11.427 -33.908  1.00 17.25 LIG-0.06  A 
ATOM     55  CD2 PHE D   4       9.247 -10.977 -34.035  1.00 16.93 LIG 0.01  A 
ATOM     56  CE2 PHE D   4       8.289 -11.374 -33.144  1.00 15.87 LIG 0.00  A 
ATOM     57  CZ  PHE D   4       8.603 -12.231 -32.108  1.00 16.57 LIG 0.00  A 
ATOM     58  CE1 PHE D   4       9.905 -12.692 -31.964  1.00 17.16 LIG 0.00  A 
ATOM     59  CD1 PHE D   4      10.870 -12.283 -32.865  1.00 17.60 LIG 0.01  A 
ENDBRANCH 53 54
ENDBRANCH 1 53
TORSDOF 21
ENDMDL
MODEL 2
USER: ADFR SOLUTION from run 14
USER: SCORE 21.030335 LL:  -4.074 LR: -18.911 RR:   0.000 FEB: -12.646
USER: RMSD 3.022255
USER: SEED 379293
USER: STATUS no improvement in best in 2 clusters for 5 generations
USER: GENES 23
USER: genes 0 Translation |==|  0.57155 0.49039 0.45884
USER: genes 1 Rotation |==|  0.46896 0.50001 0.46367 0.99771
USER: genes 2 Torsion [C]-CA--N-[C] |==|  0.56673
USER: genes 3 Torsion [N]-C--CA-[CB] |==|  0.77128
USER: genes 4 Torsion [N]-C--CA-[N] |==|  0.39841
USER: genes 5 Torsion [C]-CA--N-[C] |==|  0.69118
USER: genes 6 Torsion [N]-C--CA-[N] |==|  0.28477
USER: genes 7 Torsion [C]-CA--N-[H3] |==|  0.17648
USER: genes 8 Torsion [C]-CA--CB-[CG2] |==|  0.57134
USER: genes 9 Torsion [CA]-CB--OG1-[HG1] |==|  0.46791
USER: genes 10 Torsion [N]-CA--C-[N] |==|  0.94814
USER: genes 11 Torsion [C]-N--CA-[CB] |==|  0.81600
USER: genes 12 Torsion [N]-CA--CB-[CG] |==|  0.60773
USER: genes 13 Torsion [CA]-CB--CG-[CD] |==|  0.70827
USER: genes 14 Torsion [CB]-CG--CD-[NE2] |==|  0.34201
USER: genes 15 Torsion [N]-CA--C-[N] |==|  0.76670
USER: genes 16 Torsion [C]-N--CA-[CB] |==|  0.84512
USER: genes 17 Torsion [N]-CA--C-[O] |==|  0.99192
USER: genes 18 Torsion [N]-CA--CB-[CG] |==|  0.49823
USER: genes 19 Torsion [CA]-CB--CG-[CD] |==|  0.64695
USER: genes 20 Torsion [CB]-CG--CD-[OE2] |==|  0.26926
USER: genes 21 Torsion [N]-CA--CB-[CG] |==|  0.19251
USER: genes 22 Torsion [CA]-CB--CG-[CD2] |==|  0.79129
ROOT
ATOM      1  CA  PHE D   4      11.882 -12.300 -36.633  1.00 20.42 LIG 0.18  C 
ENDROOT
BRANCH 1 2
ATOM      2  N   PHE D   4      10.627 -12.511 -37.344  1.00 19.57 LIG-0.35  N 
ATOM      3 H    PHE D   4      10.107 -13.100 -36.995  1.00 19.57 LIG 0.16  HD
ATOM      4  C   PRO D   3      10.353 -11.826 -38.437  1.00 20.09 LIG 0.24  C 
ATOM      5 O    PRO D   3      10.987 -10.808 -38.764  1.00 21.30 LIG-0.27  OA
BRANCH 4 6
ATOM      6  CA  PRO D   3       9.191 -12.346 -39.279  1.00 18.08 LIG 0.18  C 
ATOM      7  CB  PRO D   3       9.605 -13.483 -40.200  1.00 20.04 LIG 0.04  C 
ATOM      8  CG  PRO D   3       9.613 -12.882 -41.571  1.00 21.57 LIG 0.02  C 
ATOM      9  CD  PRO D   3       8.686 -11.746 -41.611  1.00 18.25 LIG 0.13  C 
ATOM     10  N   PRO D   3       8.606 -11.354 -40.187  1.00 17.53 LIG-0.34  N 
ATOM     11  C   THR D   2       7.894 -10.347 -39.684  1.00 17.82 LIG 0.24  C 
ATOM     12 O    THR D   2       7.724 -10.230 -38.469  1.00 17.76 LIG-0.27  OA
BRANCH 11 13
ATOM     13  CA  THR D   2       7.264  -9.383 -40.680  1.00 18.92 LIG 0.20  C 
BRANCH 13 14
ATOM     14  N   THR D   2       5.959  -8.943 -40.211  1.00 17.98 LIG-0.34  N 
ATOM     15  C   ALA D   1       4.831  -9.305 -40.811  1.00 18.22 LIG 0.25  C 
ATOM     16 O    ALA D   1       4.802 -10.031 -41.823  1.00 17.84 LIG-0.27  OA
ATOM     17 H    THR D   2       5.988  -8.434 -39.519  1.00 17.98 LIG 0.16  HD
BRANCH 15 18
ATOM     18  CA  ALA D   1       3.546  -8.769 -40.195  1.00 17.93 LIG 0.27  C 
ATOM     19  CB  ALA D   1       2.464  -9.876 -40.114  1.00 19.43 LIG 0.05  C 
BRANCH 18 20
ATOM     20  N   ALA D   1       3.040  -7.621 -41.028  1.00 19.30 LIG-0.07  N 
ATOM     21 H3   ALA D   1       2.830  -7.915 -41.842  1.00 19.30 LIG 0.28  HD
ATOM     22 H2   ALA D   1       3.673  -6.998 -41.092  1.00 19.30 LIG 0.28  HD
ATOM     23 H1   ALA D   1       2.318  -7.272 -40.643  1.00 19.30 LIG 0.28  HD
ENDBRANCH 18 20
ENDBRANCH 15 18
ENDBRANCH 13 14
BRANCH 13 24
ATOM     24  CB  THR D   2       8.190  -8.175 -40.881  1.00 21.41 LIG 0.15  C 
ATOM     25  CG2 THR D   2       7.385  -6.962 -41.317  1.00 25.14 LIG 0.04  C 
BRANCH 24 26
ATOM     26 OG1  THR D   2       8.821  -7.856 -39.636  1.00 26.95 LIG-0.39  OA
ATOM     27 HG1  THR D   2       9.440  -7.305 -39.770  1.00 26.95 LIG 0.21  HD
ENDBRANCH 24 26
ENDBRANCH 13 24
ENDBRANCH 11 13
ENDBRANCH 4 6
ENDBRANCH 1 2
BRANCH 1 28
ATOM     28  C   PHE D   4      12.233 -13.544 -35.820  1.00 22.48 LIG 0.24  C 
ATOM     29 O    PHE D   4      13.383 -13.725 -35.402  1.00 22.33 LIG-0.27  OA
ATOM     30  N   GLN D   5      11.237 -14.392 -35.576  1.00 24.26 LIG-0.35  N 
ATOM     31 H    GLN D   5      10.485 -14.389 -35.994  1.00 24.26 LIG 0.16  HD
BRANCH 30 32
ATOM     32  CA  GLN D   5      11.357 -15.424 -34.539  1.00 25.91 LIG 0.18  C 
BRANCH 32 33
ATOM     33  CB  GLN D   5      12.424 -16.461 -34.909  1.00 26.73 LIG 0.04  C 
BRANCH 33 34
ATOM     34  CG  GLN D   5      12.085 -17.920 -34.553  1.00 26.03 LIG 0.10  C 
BRANCH 34 35
ATOM     35  CD  GLN D   5      12.837 -18.465 -33.338  1.00 27.76 LIG 0.21  C 
ATOM     36  NE2 GLN D   5      12.064 -18.936 -32.332  1.00 30.48 LIG-0.37  N 
ATOM     37 22HE GLN D   5      12.428 -19.235 -31.613  1.00 30.48 LIG 0.16  HD
ATOM     38 21HE GLN D   5      11.207 -18.936 -32.412  1.00 30.48 LIG 0.16  HD
ATOM     39 OE1  GLN D   5      14.094 -18.446 -33.264  1.00 30.83 LIG-0.27  OA
ENDBRANCH 34 35
ENDBRANCH 33 34
ENDBRANCH 32 33
BRANCH 32 40
ATOM     40  C   GLN D   5      11.712 -14.889 -33.167  1.00 27.22 LIG 0.24  C 
ATOM     41  N   GLU D   6      13.001 -14.690 -32.949  1.00 28.14 LIG-0.34  N 
ATOM     42 H    GLU D   6      13.601 -14.713 -33.565  1.00 28.14 LIG 0.16  HD
ATOM     43 O    GLN D   5      10.843 -14.691 -32.317  1.00 29.15 LIG-0.27  OA
BRANCH 41 44
ATOM     44  CA  GLU D   6      13.515 -14.411 -31.624  1.00 27.71 LIG 0.19  C 
BRANCH 44 45
ATOM     45  C   GLU D   6      13.381 -15.607 -30.664  1.00 28.68 LIG 0.20  C 
ATOM     46 O    GLU D   6      12.813 -16.668 -31.054  1.00 28.16 LIG-0.65  OA
ATOM     47 OXT  GLU D   6      13.831 -15.462 -29.509  1.00 19.61 LIG-0.65  OA
ENDBRANCH 44 45
BRANCH 44 48
ATOM     48  CB  GLU D   6      12.769 -13.188 -31.086  1.00 27.67 LIG 0.05  C 
BRANCH 48 49
ATOM     49  CG  GLU D   6      13.229 -12.799 -29.649  1.00 29.50 LIG 0.12  C 
BRANCH 49 50
ATOM     50  CD  GLU D   6      12.053 -12.678 -28.671  1.00 27.58 LIG 0.17  C 
ATOM     51 OE2  GLU D   6      11.721 -13.627 -27.901  1.00 34.29 LIG-0.65  OA
ATOM     52 OE1  GLU D   6      11.447 -11.586 -28.668  1.00 35.41 LIG-0.65  OA
ENDBRANCH 49 50
ENDBRANCH 48 49
ENDBRANCH 44 48
ENDBRANCH 41 44
ENDBRANCH 32 40
ENDBRANCH 30 32
ENDBRANCH 1 28
BRANCH 1 53
ATOM     53  CB  PHE D   4      11.802 -11.046 -35.746  1.00 18.89 LIG 0.07  C 
BRANCH 53 54
ATOM     54  CG  PHE D   4      10.878 -11.185 -34.557  1.00 17.25 LIG-0.06  A 
ATOM     55  CD2 PHE D   4       9.495 -11.143 -34.722  1.00 16.93 LIG 0.01  A 
ATOM     56  CE2 PHE D   4       8.666 -11.276 -33.644  1.00 15.87 LIG 0.00  A 
ATOM     57  CZ  PHE D   4       9.180 -11.460 -32.377  1.00 16.57 LIG 0.00  A 
ATOM     58  CE1 PHE D   4      10.556 -11.506 -32.191  1.00 17.16 LIG 0.00  A 
ATOM     59  CD1 PHE D   4      11.390 -11.367 -33.284  1.00 17.60 LIG 0.01  A 
ENDBRANCH 53 54
ENDBRANCH 1 53
TORSDOF 21
ENDMDL
MODEL 3
USER: ADFR SOLUTION from run 44
USER: SCORE 22.130841 LL:  -4.754 LR: -18.066 RR:   0.000 FEB: -11.801
USER: RMSD 2.755376
USER: SEED 43
USER: STATUS no improvement in best in 2 clusters for 5 generations
USER: GENES 23
USER: genes 0 Translation |==|  0.56338 0.52090 0.49146
USER: genes 1 Rotation |==|  0.49907 0.49559 0.52274 0.99946
USER: genes 2 Torsion [C]-CA--N-[C] |==|  0.65308
USER: genes 3 Torsion [N]-C--CA-[CB] |==|  0.73754
USER: genes 4 Torsion [N]-C--CA-[N] |==|  0.41518
USER: genes 5 Torsion [C]-CA--N-[C] |==|  0.62064
USER: genes 6 Torsion [N]-C--CA-[N] |==|  0.48302
USER: genes 7 Torsion [C]-CA--N-[H3] |==|  0.27246
USER: genes 8 Torsion [C]-CA--CB-[CG2] |==|  0.41512
USER: genes 9 Torsion [CA]-CB--OG1-[HG1] |==|  0.97306
USER: genes 10 Torsion [N]-CA--C-[N] |==|  0.88083
USER: genes 11 Torsion [C]-N--CA-[CB] |==|  0.85273
USER: genes 12 Torsion [N]-CA--CB-[CG] |==|  0.82553
USER: genes 13 Torsion [CA]-CB--CG-[CD] |==|  0.91706
USER: genes 14 Torsion [CB]-CG--CD-[NE2] |==|  0.82864
USER: genes 15 Torsion [N]-CA--C-[N] |==|  0.86792
USER: genes 16 Torsion [C]-N--CA-[CB] |==|  0.20595
USER: genes 17 Torsion [N]-CA--C-[O] |==|  0.08304
USER: genes 18 Torsion [N]-CA--CB-[CG] |==|  0.62797
USER: genes 19 Torsion [CA]-CB--CG-[CD] |==|  0.17090
USER: genes 20 Torsion [CB]-CG--CD-[OE2] |==|  0.75364
USER: genes 21 Torsion [N]-CA--CB-[CG] |==|  0.19221
USER: genes 22 Torsion [CA]-CB--CG-[CD2] |==|  0.77806
ROOT
ATOM      1  CA  PHE D   4      11.686 -11.751 -35.948  1.00 20.42 LIG 0.18  C 
ENDROOT
BRANCH 1 2
ATOM      2  N   PHE D   4      10.514 -12.163 -36.711  1.00 19.57 LIG-0.35  N 
ATOM      3 H    PHE D   4       9.923 -12.597 -36.262  1.00 19.57 LIG 0.16  HD
ATOM      4  C   PRO D   3      10.412 -11.871 -37.993  1.00 20.09 LIG 0.24  C 
ATOM      5 O    PRO D   3      11.140 -11.028 -38.546  1.00 21.30 LIG-0.27  OA
BRANCH 4 6
ATOM      6  CA  PRO D   3       9.330 -12.620 -38.766  1.00 18.08 LIG 0.18  C 
ATOM      7  CB  PRO D   3       9.866 -13.865 -39.456  1.00 20.04 LIG 0.04  C 
ATOM      8  CG  PRO D   3       9.894 -13.515 -40.911  1.00 21.57 LIG 0.02  C 
ATOM      9  CD  PRO D   3       8.892 -12.479 -41.182  1.00 18.25 LIG 0.13  C 
ATOM     10  N   PRO D   3       8.718 -11.852 -39.855  1.00 17.53 LIG-0.34  N 
ATOM     11  C   THR D   2       7.915 -10.831 -39.563  1.00 17.82 LIG 0.24  C 
ATOM     12 O    THR D   2       7.681 -10.517 -38.394  1.00 17.76 LIG-0.27  OA
BRANCH 11 13
ATOM     13  CA  THR D   2       7.264 -10.109 -40.734  1.00 18.92 LIG 0.20  C 
BRANCH 13 14
ATOM     14  N   THR D   2       5.967  -9.573 -40.349  1.00 17.98 LIG-0.34  N 
ATOM     15  C   ALA D   1       4.898  -9.670 -41.132  1.00 18.22 LIG 0.25  C 
ATOM     16 O    ALA D   1       4.925 -10.208 -42.255  1.00 17.84 LIG-0.27  OA
ATOM     17 H    THR D   2       5.959  -9.194 -39.578  1.00 17.98 LIG 0.16  HD
BRANCH 15 18
ATOM     18  CA  ALA D   1       3.613  -9.068 -40.583  1.00 17.93 LIG 0.27  C 
ATOM     19  CB  ALA D   1       3.137  -9.829 -39.319  1.00 19.43 LIG 0.05  C 
BRANCH 18 20
ATOM     20  N   ALA D   1       2.546  -9.127 -41.644  1.00 19.30 LIG-0.07  N 
ATOM     21 H3   ALA D   1       2.026  -9.836 -41.504  1.00 19.30 LIG 0.28  HD
ATOM     22 H2   ALA D   1       2.928  -9.194 -42.446  1.00 19.30 LIG 0.28  HD
ATOM     23 H1   ALA D   1       2.053  -8.387 -41.611  1.00 19.30 LIG 0.28  HD
ENDBRANCH 18 20
ENDBRANCH 15 18
ENDBRANCH 13 14
BRANCH 13 24
ATOM     24  CB  THR D   2       8.183  -8.977 -41.214  1.00 21.41 LIG 0.15  C 
ATOM     25  CG2 THR D   2       8.001  -8.750 -42.706  1.00 25.14 LIG 0.04  C 
BRANCH 24 26
ATOM     26 OG1  THR D   2       7.826  -7.766 -40.541  1.00 26.95 LIG-0.39  OA
ATOM     27 HG1  THR D   2       7.108  -7.879 -40.122  1.00 26.95 LIG 0.21  HD
ENDBRANCH 24 26
ENDBRANCH 13 24
ENDBRANCH 11 13
ENDBRANCH 4 6
ENDBRANCH 1 2
BRANCH 1 28
ATOM     28  C   PHE D   4      12.322 -12.966 -35.277  1.00 22.48 LIG 0.24  C 
ATOM     29 O    PHE D   4      13.551 -13.107 -35.253  1.00 22.33 LIG-0.27  OA
ATOM     30  N   GLN D   5      11.487 -13.834 -34.711  1.00 24.26 LIG-0.35  N 
ATOM     31 H    GLN D   5      10.641 -13.861 -34.862  1.00 24.26 LIG 0.16  HD
BRANCH 30 32
ATOM     32  CA  GLN D   5      11.971 -14.839 -33.756  1.00 25.91 LIG 0.18  C 
BRANCH 32 33
ATOM     33  CB  GLN D   5      13.132 -15.650 -34.345  1.00 26.73 LIG 0.04  C 
BRANCH 33 34
ATOM     34  CG  GLN D   5      12.792 -16.485 -35.592  1.00 26.03 LIG 0.10  C 
BRANCH 34 35
ATOM     35  CD  GLN D   5      11.343 -16.970 -35.653  1.00 27.76 LIG 0.21  C 
ATOM     36  NE2 GLN D   5      10.957 -17.790 -34.648  1.00 30.48 LIG-0.37  N 
ATOM     37 22HE GLN D   5      10.160 -18.114 -34.639  1.00 30.48 LIG 0.16  HD
ATOM     38 21HE GLN D   5      11.508 -17.988 -34.017  1.00 30.48 LIG 0.16  HD
ATOM     39 OE1  GLN D   5      10.570 -16.656 -36.595  1.00 30.83 LIG-0.27  OA
ENDBRANCH 34 35
ENDBRANCH 33 34
ENDBRANCH 32 33
BRANCH 32 40
ATOM     40  C   GLN D   5      12.451 -14.265 -32.439  1.00 27.22 LIG 0.24  C 
ATOM     41  N   GLU D   6      13.267 -13.229 -32.532  1.00 28.14 LIG-0.34  N 
ATOM     42 H    GLU D   6      13.416 -12.800 -33.262  1.00 28.14 LIG 0.16  HD
ATOM     43 O    GLN D   5      12.114 -14.767 -31.366  1.00 29.15 LIG-0.27  OA
BRANCH 41 44
ATOM     44  CA  GLU D   6      13.991 -12.724 -31.384  1.00 27.71 LIG 0.19  C 
BRANCH 44 45
ATOM     45  C   GLU D   6      14.540 -11.302 -31.599  1.00 28.68 LIG 0.20  C 
ATOM     46 O    GLU D   6      13.928 -10.498 -32.362  1.00 28.16 LIG-0.65  OA
ATOM     47 OXT  GLU D   6      15.602 -11.008 -31.012  1.00 19.61 LIG-0.65  OA
ENDBRANCH 44 45
BRANCH 44 48
ATOM     48  CB  GLU D   6      15.121 -13.709 -31.079  1.00 27.67 LIG 0.05  C 
BRANCH 48 49
ATOM     49  CG  GLU D   6      15.217 -14.049 -29.561  1.00 29.50 LIG 0.12  C 
BRANCH 49 50
ATOM     50  CD  GLU D   6      13.943 -14.721 -29.031  1.00 27.58 LIG 0.17  C 
ATOM     51 OE2  GLU D   6      12.969 -14.049 -28.580  1.00 34.29 LIG-0.65  OA
ATOM     52 OE1  GLU D   6      13.915 -15.968 -29.080  1.00 35.41 LIG-0.65  OA
ENDBRANCH 49 50
ENDBRANCH 48 49
ENDBRANCH 44 48
ENDBRANCH 41 44
ENDBRANCH 32 40
ENDBRANCH 30 32
ENDBRANCH 1 28
BRANCH 1 53
ATOM     53  CB  PHE D   4      11.315 -10.665 -34.923  1.00 18.89 LIG 0.07  C 
BRANCH 53 54
ATOM     54  CG  PHE D   4      10.451 -11.158 -33.784  1.00 17.25 LIG-0.06  A 
ATOM     55  CD2 PHE D   4       9.078 -11.325 -33.953  1.00 16.93 LIG 0.01  A 
ATOM     56  CE2 PHE D   4       8.304 -11.776 -32.922  1.00 15.87 LIG 0.00  A 
ATOM     57  CZ  PHE D   4       8.866 -12.079 -31.699  1.00 16.57 LIG 0.00  A 
ATOM     58  CE1 PHE D   4      10.232 -11.921 -31.509  1.00 17.16 LIG 0.00  A 
ATOM     59  CD1 PHE D   4      11.011 -11.460 -32.555  1.00 17.60 LIG 0.01  A 
ENDBRANCH 53 54
ENDBRANCH 1 53
TORSDOF 21
ENDMDL
MODEL 4
USER: ADFR SOLUTION from run 22
USER: SCORE 20.578067 LL:  -4.530 LR: -17.708 RR:   0.000 FEB: -11.444
USER: RMSD 2.684134
USER: SEED 21
USER: STATUS no improvement in best in 2 clusters for 5 generations
USER: GENES 23
USER: genes 0 Translation |==|  0.56544 0.50252 0.48284
USER: genes 1 Rotation |==|  0.50808 0.49909 0.53036 0.99901
USER: genes 2 Torsion [C]-CA--N-[C] |==|  0.56238
USER: genes 3 Torsion [N]-C--CA-[CB] |==|  0.83487
USER: genes 4 Torsion [N]-C--CA-[N] |==|  0.41682
USER: genes 5 Torsion [C]-CA--N-[C] |==|  0.67443
USER: genes 6 Torsion [N]-C--CA-[N] |==|  0.47279
USER: genes 7 Torsion [C]-CA--N-[H3] |==|  0.64798
USER: genes 8 Torsion [C]-CA--CB-[CG2] |==|  0.92956
USER: genes 9 Torsion [CA]-CB--OG1-[HG1] |==|  0.44405
USER: genes 10 Torsion [N]-CA--C-[N] |==|  0.48702
USER: genes 11 Torsion [C]-N--CA-[CB] |==|  0.36115
USER: genes 12 Torsion [N]-CA--CB-[CG] |==|  0.03908
USER: genes 13 Torsion [CA]-CB--CG-[CD] |==|  0.16934
USER: genes 14 Torsion [CB]-CG--CD-[NE2] |==|  0.22041
USER: genes 15 Torsion [N]-CA--C-[N] |==|  0.94022
USER: genes 16 Torsion [C]-N--CA-[CB] |==|  0.47183
USER: genes 17 Torsion [N]-CA--C-[O] |==|  0.49990
USER: genes 18 Torsion [N]-CA--CB-[CG] |==|  0.15017
USER: genes 19 Torsion [CA]-CB--CG-[CD] |==|  0.34951
USER: genes 20 Torsion [CB]-CG--CD-[OE2] |==|  0.76014
USER: genes 21 Torsion [N]-CA--CB-[CG] |==|  0.18081
USER: genes 22 Torsion [CA]-CB--CG-[CD2] |==|  0.67641
ROOT
ATOM      1  CA  PHE D   4      11.736 -12.082 -36.129  1.00 20.42 LIG 0.18  C 
ENDROOT
BRANCH 1 2
ATOM      2  N   PHE D   4      10.564 -12.504 -36.888  1.00 19.57 LIG-0.35  N 
ATOM      3 H    PHE D   4      10.238 -13.265 -36.659  1.00 19.57 LIG 0.16  HD
ATOM      4  C   PRO D   3      10.077 -11.740 -37.847  1.00 20.09 LIG 0.24  C 
ATOM      5 O    PRO D   3      10.396 -10.546 -37.977  1.00 21.30 LIG-0.27  OA
BRANCH 4 6
ATOM      6  CA  PRO D   3       9.076 -12.406 -38.788  1.00 18.08 LIG 0.18  C 
ATOM      7  CB  PRO D   3       9.668 -13.606 -39.511  1.00 20.04 LIG 0.04  C 
ATOM      8  CG  PRO D   3       9.859 -13.146 -40.923  1.00 21.57 LIG 0.02  C 
ATOM      9  CD  PRO D   3       8.905 -12.073 -41.219  1.00 18.25 LIG 0.13  C 
ATOM     10  N   PRO D   3       8.596 -11.544 -39.873  1.00 17.53 LIG-0.34  N 
ATOM     11  C   THR D   2       7.778 -10.533 -39.591  1.00 17.82 LIG 0.24  C 
ATOM     12 O    THR D   2       7.422 -10.303 -38.433  1.00 17.76 LIG-0.27  OA
BRANCH 11 13
ATOM     13  CA  THR D   2       7.268  -9.709 -40.765  1.00 18.92 LIG 0.20  C 
BRANCH 13 14
ATOM     14  N   THR D   2       5.950  -9.166 -40.476  1.00 17.98 LIG-0.34  N 
ATOM     15  C   ALA D   1       4.876  -9.494 -41.186  1.00 18.22 LIG 0.25  C 
ATOM     16 O    ALA D   1       4.915 -10.273 -42.157  1.00 17.84 LIG-0.27  OA
ATOM     17 H    THR D   2       5.933  -8.622 -39.812  1.00 17.98 LIG 0.16  HD
BRANCH 15 18
ATOM     18  CA  ALA D   1       3.567  -8.848 -40.753  1.00 17.93 LIG 0.27  C 
ATOM     19  CB  ALA D   1       3.108  -9.392 -39.376  1.00 19.43 LIG 0.05  C 
BRANCH 18 20
ATOM     20  N   ALA D   1       2.511  -9.127 -41.789  1.00 19.30 LIG-0.07  N 
ATOM     21 H3   ALA D   1       2.139  -8.361 -42.048  1.00 19.30 LIG 0.28  HD
ATOM     22 H2   ALA D   1       1.886  -9.657 -41.442  1.00 19.30 LIG 0.28  HD
ATOM     23 H1   ALA D   1       2.883  -9.528 -42.491  1.00 19.30 LIG 0.28  HD
ENDBRANCH 18 20
ENDBRANCH 15 18
ENDBRANCH 13 14
BRANCH 13 24
ATOM     24  CB  THR D   2       8.256  -8.573 -41.064  1.00 21.41 LIG 0.15  C 
ATOM     25  CG2 THR D   2       9.045  -8.220 -39.814  1.00 25.14 LIG 0.04  C 
BRANCH 24 26
ATOM     26 OG1  THR D   2       9.187  -9.010 -42.059  1.00 26.95 LIG-0.39  OA
ATOM     27 HG1  THR D   2       9.542  -8.343 -42.423  1.00 26.95 LIG 0.21  HD
ENDBRANCH 24 26
ENDBRANCH 13 24
ENDBRANCH 11 13
ENDBRANCH 4 6
ENDBRANCH 1 2
BRANCH 1 28
ATOM     28  C   PHE D   4      12.419 -13.299 -35.511  1.00 22.48 LIG 0.24  C 
ATOM     29 O    PHE D   4      11.931 -14.430 -35.634  1.00 22.33 LIG-0.27  OA
ATOM     30  N   GLN D   5      13.561 -13.074 -34.867  1.00 24.26 LIG-0.35  N 
ATOM     31 H    GLN D   5      13.829 -12.297 -34.614  1.00 24.26 LIG 0.16  HD
BRANCH 30 32
ATOM     32  CA  GLN D   5      14.474 -14.176 -34.535  1.00 25.91 LIG 0.18  C 
BRANCH 32 33
ATOM     33  CB  GLN D   5      15.908 -13.859 -34.973  1.00 26.73 LIG 0.04  C 
BRANCH 33 34
ATOM     34  CG  GLN D   5      16.182 -12.388 -35.338  1.00 26.03 LIG 0.10  C 
BRANCH 34 35
ATOM     35  CD  GLN D   5      15.952 -11.399 -34.194  1.00 27.76 LIG 0.21  C 
ATOM     36  NE2 GLN D   5      16.948 -11.319 -33.280  1.00 30.48 LIG-0.37  N 
ATOM     37 22HE GLN D   5      16.867 -10.797 -32.602  1.00 30.48 LIG 0.16  HD
ATOM     38 21HE GLN D   5      17.661 -11.790 -33.378  1.00 30.48 LIG 0.16  HD
ATOM     39 OE1  GLN D   5      14.892 -10.729 -34.090  1.00 30.83 LIG-0.27  OA
ENDBRANCH 34 35
ENDBRANCH 33 34
ENDBRANCH 32 33
BRANCH 32 40
ATOM     40  C   GLN D   5      14.523 -14.519 -33.060  1.00 27.22 LIG 0.24  C 
ATOM     41  N   GLU D   6      14.126 -13.561 -32.239  1.00 28.14 LIG-0.34  N 
ATOM     42 H    GLU D   6      13.728 -12.844 -32.496  1.00 28.14 LIG 0.16  HD
ATOM     43 O    GLN D   5      14.938 -15.612 -32.675  1.00 29.15 LIG-0.27  OA
BRANCH 41 44
ATOM     44  CA  GLU D   6      14.336 -13.649 -30.809  1.00 27.71 LIG 0.19  C 
BRANCH 44 45
ATOM     45  C   GLU D   6      13.509 -14.767 -30.149  1.00 28.68 LIG 0.20  C 
ATOM     46 O    GLU D   6      13.593 -14.961 -28.902  1.00 28.16 LIG-0.65  OA
ATOM     47 OXT  GLU D   6      12.792 -15.462 -30.899  1.00 19.61 LIG-0.65  OA
ENDBRANCH 44 45
BRANCH 44 48
ATOM     48  CB  GLU D   6      13.996 -12.285 -30.205  1.00 27.67 LIG 0.05  C 
BRANCH 48 49
ATOM     49  CG  GLU D   6      12.569 -11.801 -30.600  1.00 29.50 LIG 0.12  C 
BRANCH 49 50
ATOM     50  CD  GLU D   6      11.713 -11.445 -29.377  1.00 27.58 LIG 0.17  C 
ATOM     51 OE2  GLU D   6      11.036 -12.316 -28.755  1.00 34.29 LIG-0.65  OA
ATOM     52 OE1  GLU D   6      11.731 -10.248 -29.020  1.00 35.41 LIG-0.65  OA
ENDBRANCH 49 50
ENDBRANCH 48 49
ENDBRANCH 44 48
ENDBRANCH 41 44
ENDBRANCH 32 40
ENDBRANCH 30 32
ENDBRANCH 1 28
BRANCH 1 53
ATOM     53  CB  PHE D   4      11.348 -11.045 -35.061  1.00 18.89 LIG 0.07  C 
BRANCH 53 54
ATOM     54  CG  PHE D   4      10.438 -11.580 -33.979  1.00 17.25 LIG-0.06  A 
ATOM     55  CD2 PHE D   4       9.150 -11.072 -33.817  1.00 16.93 LIG 0.01  A 
ATOM     56  CE2 PHE D   4       8.330 -11.563 -32.841  1.00 15.87 LIG 0.00  A 
ATOM     57  CZ  PHE D   4       8.758 -12.574 -32.004  1.00 16.57 LIG 0.00  A 
ATOM     58  CE1 PHE D   4      10.036 -13.096 -32.150  1.00 17.16 LIG 0.00  A 
ATOM     59  CD1 PHE D   4      10.864 -12.591 -33.136  1.00 17.60 LIG 0.01  A 
ENDBRANCH 53 54
ENDBRANCH 1 53
TORSDOF 21
ENDMDL
MODEL 5
USER: ADFR SOLUTION from run 168
USER: SCORE 20.470314 LL:  -4.418 LR: -17.611 RR:   0.000 FEB: -11.347
USER: RMSD 3.369830
USER: SEED 167
USER: STATUS no improvement in best in 3 clusters for 5 generations
USER: GENES 23
USER: genes 0 Translation |==|  0.51285 0.54781 0.52413
USER: genes 1 Rotation |==|  0.55544 0.40515 0.58056 0.98108
USER: genes 2 Torsion [C]-CA--N-[C] |==|  0.71780
USER: genes 3 Torsion [N]-C--CA-[CB] |==|  0.65498
USER: genes 4 Torsion [N]-C--CA-[N] |==|  0.45694
USER: genes 5 Torsion [C]-CA--N-[C] |==|  0.64949
USER: genes 6 Torsion [N]-C--CA-[N] |==|  0.43796
USER: genes 7 Torsion [C]-CA--N-[H3] |==|  0.68643
USER: genes 8 Torsion [C]-CA--CB-[CG2] |==|  0.36707
USER: genes 9 Torsion [CA]-CB--OG1-[HG1] |==|  0.14373
USER: genes 10 Torsion [N]-CA--C-[N] |==|  0.41633
USER: genes 11 Torsion [C]-N--CA-[CB] |==|  0.38230
USER: genes 12 Torsion [N]-CA--CB-[CG] |==|  0.05270
USER: genes 13 Torsion [CA]-CB--CG-[CD] |==|  0.23924
USER: genes 14 Torsion [CB]-CG--CD-[NE2] |==|  0.19340
USER: genes 15 Torsion [N]-CA--C-[N] |==|  0.85009
USER: genes 16 Torsion [C]-N--CA-[CB] |==|  0.26750
USER: genes 17 Torsion [N]-CA--C-[O] |==|  0.80943
USER: genes 18 Torsion [N]-CA--CB-[CG] |==|  0.65184
USER: genes 19 Torsion [CA]-CB--CG-[CD] |==|  0.99055
USER: genes 20 Torsion [CB]-CG--CD-[OE2] |==|  0.24414
USER: genes 21 Torsion [N]-CA--CB-[CG] |==|  0.33462
USER: genes 22 Torsion [CA]-CB--CG-[CD2] |==|  0.72035
ROOT
ATOM      1  CA  PHE D   4      10.473 -11.266 -35.262  1.00 20.42 LIG 0.18  C 
ENDROOT
BRANCH 1 2
ATOM      2  N   PHE D   4       9.757 -11.667 -36.467  1.00 19.57 LIG-0.35  N 
ATOM      3 H    PHE D   4       9.005 -12.061 -36.329  1.00 19.57 LIG 0.16  HD
ATOM      4  C   PRO D   3      10.263 -11.421 -37.660  1.00 20.09 LIG 0.24  C 
ATOM      5 O    PRO D   3      11.203 -10.627 -37.836  1.00 21.30 LIG-0.27  OA
BRANCH 4 6
ATOM      6  CA  PRO D   3       9.615 -12.161 -38.827  1.00 18.08 LIG 0.18  C 
ATOM      7  CB  PRO D   3      10.621 -12.968 -39.633  1.00 20.04 LIG 0.04  C 
ATOM      8  CG  PRO D   3      10.780 -12.212 -40.914  1.00 21.57 LIG 0.02  C 
ATOM      9  CD  PRO D   3       9.565 -11.435 -41.177  1.00 18.25 LIG 0.13  C 
ATOM     10  N   PRO D   3       8.984 -11.290 -39.824  1.00 17.53 LIG-0.34  N 
ATOM     11  C   THR D   2       7.865 -10.642 -39.511  1.00 17.82 LIG 0.24  C 
ATOM     12 O    THR D   2       7.352 -10.755 -38.395  1.00 17.76 LIG-0.27  OA
BRANCH 11 13
ATOM     13  CA  THR D   2       7.226  -9.799 -40.606  1.00 18.92 LIG 0.20  C 
BRANCH 13 14
ATOM     14  N   THR D   2       5.857  -9.455 -40.254  1.00 17.98 LIG-0.34  N 
ATOM     15  C   ALA D   1       4.832  -9.708 -41.061  1.00 18.22 LIG 0.25  C 
ATOM     16 O    ALA D   1       4.963 -10.239 -42.179  1.00 17.84 LIG-0.27  OA
ATOM     17 H    THR D   2       5.776  -9.078 -39.486  1.00 17.98 LIG 0.16  HD
BRANCH 15 18
ATOM     18  CA  ALA D   1       3.460  -9.295 -40.545  1.00 17.93 LIG 0.27  C 
ATOM     19  CB  ALA D   1       2.893 -10.354 -39.566  1.00 19.43 LIG 0.05  C 
BRANCH 18 20
ATOM     20  N   ALA D   1       2.524  -9.127 -41.712  1.00 19.30 LIG-0.07  N 
ATOM     21 H3   ALA D   1       2.301  -8.269 -41.794  1.00 19.30 LIG 0.28  HD
ATOM     22 H2   ALA D   1       1.789  -9.612 -41.577  1.00 19.30 LIG 0.28  HD
ATOM     23 H1   ALA D   1       2.926  -9.401 -42.457  1.00 19.30 LIG 0.28  HD
ENDBRANCH 18 20
ENDBRANCH 15 18
ENDBRANCH 13 14
BRANCH 13 24
ATOM     24  CB  THR D   2       8.054  -8.525 -40.822  1.00 21.41 LIG 0.15  C 
ATOM     25  CG2 THR D   2       8.310  -8.310 -42.305  1.00 25.14 LIG 0.04  C 
BRANCH 24 26
ATOM     26 OG1  THR D   2       7.315  -7.398 -40.339  1.00 26.95 LIG-0.39  OA
ATOM     27 HG1  THR D   2       7.061  -7.546 -39.553  1.00 26.95 LIG 0.21  HD
ENDBRANCH 24 26
ENDBRANCH 13 24
ENDBRANCH 11 13
ENDBRANCH 4 6
ENDBRANCH 1 2
BRANCH 1 28
ATOM     28  C   PHE D   4      11.173 -12.477 -34.649  1.00 22.48 LIG 0.24  C 
ATOM     29 O    PHE D   4      10.713 -13.616 -34.795  1.00 22.33 LIG-0.27  OA
ATOM     30  N   GLN D   5      12.299 -12.236 -33.982  1.00 24.26 LIG-0.35  N 
ATOM     31 H    GLN D   5      12.545 -11.457 -33.714  1.00 24.26 LIG 0.16  HD
BRANCH 30 32
ATOM     32  CA  GLN D   5      13.230 -13.322 -33.649  1.00 25.91 LIG 0.18  C 
BRANCH 32 33
ATOM     33  CB  GLN D   5      14.684 -12.897 -33.883  1.00 26.73 LIG 0.04  C 
BRANCH 33 34
ATOM     34  CG  GLN D   5      14.929 -11.378 -33.957  1.00 26.03 LIG 0.10  C 
BRANCH 34 35
ATOM     35  CD  GLN D   5      15.149 -10.707 -32.601  1.00 27.76 LIG 0.21  C 
ATOM     36  NE2 GLN D   5      16.312 -11.010 -31.978  1.00 30.48 LIG-0.37  N 
ATOM     37 22HE GLN D   5      16.483 -10.681 -31.202  1.00 30.48 LIG 0.16  HD
ATOM     38 21HE GLN D   5      16.880 -11.533 -32.358  1.00 30.48 LIG 0.16  HD
ATOM     39 OE1  GLN D   5      14.290  -9.948 -32.081  1.00 30.83 LIG-0.27  OA
ENDBRANCH 34 35
ENDBRANCH 33 34
ENDBRANCH 32 33
BRANCH 32 40
ATOM     40  C   GLN D   5      13.131 -13.807 -32.217  1.00 27.22 LIG 0.24  C 
ATOM     41  N   GLU D   6      13.248 -12.873 -31.290  1.00 28.14 LIG-0.34  N 
ATOM     42 H    GLU D   6      13.234 -12.029 -31.454  1.00 28.14 LIG 0.16  HD
ATOM     43 O    GLN D   5      12.985 -15.003 -31.961  1.00 29.15 LIG-0.27  OA
BRANCH 41 44
ATOM     44  CA  GLU D   6      13.412 -13.206 -29.890  1.00 27.71 LIG 0.19  C 
BRANCH 44 45
ATOM     45  C   GLU D   6      12.626 -12.269 -28.954  1.00 28.68 LIG 0.20  C 
ATOM     46 O    GLU D   6      12.976 -11.060 -28.834  1.00 28.16 LIG-0.65  OA
ATOM     47 OXT  GLU D   6      11.669 -12.766 -28.325  1.00 19.61 LIG-0.65  OA
ENDBRANCH 44 45
BRANCH 44 48
ATOM     48  CB  GLU D   6      14.908 -13.167 -29.576  1.00 27.67 LIG 0.05  C 
BRANCH 48 49
ATOM     49  CG  GLU D   6      15.417 -14.498 -28.945  1.00 29.50 LIG 0.12  C 
BRANCH 49 50
ATOM     50  CD  GLU D   6      14.282 -15.504 -28.709  1.00 27.58 LIG 0.17  C 
ATOM     51 OE2  GLU D   6      13.917 -16.324 -29.603  1.00 34.29 LIG-0.65  OA
ATOM     52 OE1  GLU D   6      13.746 -15.478 -27.582  1.00 35.41 LIG-0.65  OA
ENDBRANCH 49 50
ENDBRANCH 48 49
ENDBRANCH 44 48
ENDBRANCH 41 44
ENDBRANCH 32 40
ENDBRANCH 30 32
ENDBRANCH 1 28
BRANCH 1 53
ATOM     53  CB  PHE D   4       9.520 -10.593 -34.260  1.00 18.89 LIG 0.07  C 
BRANCH 53 54
ATOM     54  CG  PHE D   4       9.435 -11.290 -32.921  1.00 17.25 LIG-0.06  A 
ATOM     55  CD2 PHE D   4       8.362 -12.127 -32.621  1.00 16.93 LIG 0.01  A 
ATOM     56  CE2 PHE D   4       8.294 -12.759 -31.411  1.00 15.87 LIG 0.00  A 
ATOM     57  CZ  PHE D   4       9.287 -12.586 -30.469  1.00 16.57 LIG 0.00  A 
ATOM     58  CE1 PHE D   4      10.366 -11.757 -30.748  1.00 17.16 LIG 0.00  A 
ATOM     59  CD1 PHE D   4      10.428 -11.117 -31.972  1.00 17.60 LIG 0.01  A 
ENDBRANCH 53 54
ENDBRANCH 1 53
TORSDOF 21
ENDMDL
