MODEL 1
USER: ADFR SOLUTION from run 70
USER: SCORE 12.184975 LL:  -2.384 LR: -11.899 RR:   0.000 FEB:  -8.319
USER: RMSD 3.147258
USER: SEED 69
USER: STATUS no improvement in best in 2 clusters for 5 generations
USER: GENES 14
USER: genes 0 Translation |==|  0.58098 0.57697 0.49107
USER: genes 1 Rotation |==|  0.49373 0.44099 0.56557 0.99212
USER: genes 2 Torsion [N]-C--CA-[N] |==|  0.42778
USER: genes 3 Torsion [C]-CA--N-[C] |==|  0.57270
USER: genes 4 Torsion [N]-C--CA-[N] |==|  0.04045
USER: genes 5 Torsion [C]-CA--N-[C] |==|  0.76933
USER: genes 6 Torsion [N]-C--CA-[N] |==|  0.06154
USER: genes 7 Torsion [C]-CA--N-[H1] |==|  0.82495
USER: genes 8 Torsion [C]-N--CA-[CB] |==|  0.27371
USER: genes 9 Torsion [N]-CA--C-[N] |==|  0.52053
USER: genes 10 Torsion [C]-N--CA-[CB] |==|  0.89471
USER: genes 11 Torsion [N]-CA--C-[N] |==|  0.82785
USER: genes 12 Torsion [C]-N--CA-[C] |==|  0.15601
USER: genes 13 Torsion [N]-CA--C-[O] |==|  0.19114
ROOT
ATOM      1  C   ALA B   3      -1.392  19.973   3.825  1.00 25.24 LIG 0.24  C 
ATOM      2 O    ALA B   3      -2.285  20.072   2.979  1.00 26.05 LIG-0.27  OA
ATOM      3  N   ALA B   4      -1.524  19.294   4.955  1.00 24.29 LIG-0.35  N 
ATOM      4 H    ALA B   4      -0.899  19.230   5.543  1.00 24.29 LIG 0.16  HD
ENDROOT
BRANCH 1 5
ATOM      5  CA  ALA B   3      -0.019  20.620   3.611  1.00 25.23 LIG 0.17  C 
ATOM      6  CB  ALA B   3       0.065  21.955   4.330  1.00 24.91 LIG 0.04  C 
BRANCH 5 7
ATOM      7  N   ALA B   3       0.239  20.785   2.187  1.00 25.90 LIG-0.35  N 
ATOM      8  C   ALA B   2       1.477  20.827   1.697  1.00 26.37 LIG 0.24  C 
ATOM      9 O    ALA B   2       2.472  20.695   2.396  1.00 26.80 LIG-0.27  OA
ATOM     10 H    ALA B   3      -0.470  20.852   1.704  1.00 25.90 LIG 0.16  HD
BRANCH 8 11
ATOM     11  CA  ALA B   2       1.609  21.069   0.194  1.00 27.29 LIG 0.17  C 
ATOM     12  CB  ALA B   2       2.714  22.101  -0.084  1.00 27.31 LIG 0.04  C 
BRANCH 11 13
ATOM     13  N   ALA B   2       0.331  21.547  -0.333  1.00 27.95 LIG-0.35  N 
ATOM     14  C   ALA B   1      -0.673  20.732  -0.668  1.00 29.40 LIG 0.25  C 
ATOM     15 O    ALA B   1      -0.574  19.502  -0.710  1.00 29.69 LIG-0.27  OA
ATOM     16 H    ALA B   2       0.287  22.402  -0.407  1.00 27.95 LIG 0.16  HD
BRANCH 14 17
ATOM     17  CA  ALA B   1      -1.996  21.397  -1.051  1.00 29.88 LIG 0.27  C 
ATOM     18  CB  ALA B   1      -2.690  20.575  -2.121  1.00 30.40 LIG 0.05  C 
BRANCH 17 19
ATOM     19  N   ALA B   1      -1.857  22.825  -1.502  1.00 30.41 LIG-0.07  N 
ATOM     20 H3   ALA B   1      -2.652  23.137  -1.751  1.00 30.41 LIG 0.28  HD
ATOM     21 H2   ALA B   1      -1.295  22.866  -2.190  1.00 30.41 LIG 0.28  HD
ATOM     22 H1   ALA B   1      -1.541  23.319  -0.832  1.00 30.41 LIG 0.28  HD
ENDBRANCH 17 19
ENDBRANCH 14 17
ENDBRANCH 11 13
ENDBRANCH 8 11
ENDBRANCH 5 7
ENDBRANCH 1 5
BRANCH 3 23
ATOM     23  CA  ALA B   4      -2.740  18.590   5.314  1.00 23.83 LIG 0.17  C 
ATOM     24  CB  ALA B   4      -2.607  17.088   4.981  1.00 23.27 LIG 0.04  C 
BRANCH 23 25
ATOM     25  C   ALA B   4      -2.964  18.759   6.799  1.00 23.25 LIG 0.24  C 
ATOM     26  N   ALA B   5      -3.957  18.041   7.296  1.00 23.30 LIG-0.35  N 
ATOM     27 H    ALA B   5      -4.563  17.660   6.819  1.00 23.30 LIG 0.16  HD
ATOM     28 O    ALA B   4      -2.230  19.490   7.481  1.00 21.74 LIG-0.27  OA
BRANCH 26 29
ATOM     29  CA  ALA B   5      -4.102  17.834   8.734  1.00 23.99 LIG 0.17  C 
ATOM     30  CB  ALA B   5      -2.738  17.660   9.372  1.00 22.76 LIG 0.04  C 
BRANCH 29 31
ATOM     31  C   ALA B   5      -4.817  19.041   9.325  1.00 24.51 LIG 0.24  C 
ATOM     32 O    ALA B   5      -5.892  18.901   9.911  1.00 24.66 LIG-0.27  OA
ATOM     33  N   ALA B   6      -4.207  20.214   9.213  1.00 25.65 LIG-0.35  N 
ATOM     34 H    ALA B   6      -3.408  20.311   8.909  1.00 25.65 LIG 0.16  HD
BRANCH 33 35
ATOM     35  CA  ALA B   6      -4.857  21.462   9.605  1.00 26.64 LIG 0.16  C 
ATOM     36  CB  ALA B   6      -6.026  21.822   8.673  1.00 27.39 LIG 0.04  C 
BRANCH 35 37
ATOM     37  C   ALA B   6      -5.326  21.444  11.038  1.00 26.89 LIG 0.22  C 
ATOM     38 O    ALA B   6      -4.482  21.443  11.942  1.00 29.04 LIG-0.29  OA
ENDBRANCH 35 37
ENDBRANCH 33 35
ENDBRANCH 29 31
ENDBRANCH 26 29
ENDBRANCH 23 25
ENDBRANCH 3 23
TORSDOF 12
ENDMDL
MODEL 2
USER: ADFR SOLUTION from run 77
USER: SCORE 10.983392 LL:  -2.485 LR: -11.337 RR:   0.000 FEB:  -7.757
USER: RMSD 3.674150
USER: SEED 76
USER: STATUS no improvement in best in 3 clusters for 5 generations
USER: GENES 14
USER: genes 0 Translation |==|  0.57594 0.59030 0.50446
USER: genes 1 Rotation |==|  0.61769 0.47633 0.45510 0.98329
USER: genes 2 Torsion [N]-C--CA-[N] |==|  0.46928
USER: genes 3 Torsion [C]-CA--N-[C] |==|  0.55221
USER: genes 4 Torsion [N]-C--CA-[N] |==|  0.71480
USER: genes 5 Torsion [C]-CA--N-[C] |==|  0.77147
USER: genes 6 Torsion [N]-C--CA-[N] |==|  0.13083
USER: genes 7 Torsion [C]-CA--N-[H1] |==|  0.15402
USER: genes 8 Torsion [C]-N--CA-[CB] |==|  0.43449
USER: genes 9 Torsion [N]-CA--C-[N] |==|  0.37697
USER: genes 10 Torsion [C]-N--CA-[CB] |==|  0.53189
USER: genes 11 Torsion [N]-CA--C-[N] |==|  0.31286
USER: genes 12 Torsion [C]-N--CA-[C] |==|  0.62384
USER: genes 13 Torsion [N]-CA--C-[O] |==|  0.99620
ROOT
ATOM      1  C   ALA B   3      -1.468  20.172   4.146  1.00 25.24 LIG 0.24  C 
ATOM      2 O    ALA B   3      -2.314  20.967   3.727  1.00 26.05 LIG-0.27  OA
ATOM      3  N   ALA B   4      -1.764  19.077   4.830  1.00 24.29 LIG-0.35  N 
ATOM      4 H    ALA B   4      -1.170  18.528   5.122  1.00 24.29 LIG 0.16  HD
ENDROOT
BRANCH 1 5
ATOM      5  CA  ALA B   3       0.026  20.385   3.875  1.00 25.23 LIG 0.17  C 
ATOM      6  CB  ALA B   3       0.769  20.692   5.163  1.00 24.91 LIG 0.04  C 
BRANCH 5 7
ATOM      7  N   ALA B   3       0.209  21.459   2.907  1.00 25.90 LIG-0.35  N 
ATOM      8  C   ALA B   2       1.345  21.605   2.226  1.00 26.37 LIG 0.24  C 
ATOM      9 O    ALA B   2       2.290  20.835   2.338  1.00 26.80 LIG-0.27  OA
ATOM     10 H    ALA B   3      -0.471  21.978   2.820  1.00 25.90 LIG 0.16  HD
BRANCH 8 11
ATOM     11  CA  ALA B   2       1.430  22.809   1.290  1.00 27.29 LIG 0.17  C 
ATOM     12  CB  ALA B   2       0.367  23.853   1.667  1.00 27.31 LIG 0.04  C 
BRANCH 11 13
ATOM     13  N   ALA B   2       1.231  22.364  -0.089  1.00 27.95 LIG-0.35  N 
ATOM     14  C   ALA B   1       2.206  21.841  -0.838  1.00 29.40 LIG 0.25  C 
ATOM     15 O    ALA B   1       3.393  21.817  -0.499  1.00 29.69 LIG-0.27  OA
ATOM     16 H    ALA B   2       0.427  22.472  -0.374  1.00 27.95 LIG 0.16  HD
BRANCH 14 17
ATOM     17  CA  ALA B   1       1.798  21.279  -2.200  1.00 29.88 LIG 0.27  C 
ATOM     18  CB  ALA B   1       3.037  20.927  -3.000  1.00 30.40 LIG 0.05  C 
BRANCH 17 19
ATOM     19  N   ALA B   1       0.908  22.193  -2.998  1.00 30.41 LIG-0.07  N 
ATOM     20 H3   ALA B   1       0.132  22.295  -2.575  1.00 30.41 LIG 0.28  HD
ATOM     21 H2   ALA B   1       0.763  21.839  -3.801  1.00 30.41 LIG 0.28  HD
ATOM     22 H1   ALA B   1       1.302  22.986  -3.090  1.00 30.41 LIG 0.28  HD
ENDBRANCH 17 19
ENDBRANCH 14 17
ENDBRANCH 11 13
ENDBRANCH 8 11
ENDBRANCH 5 7
ENDBRANCH 1 5
BRANCH 3 23
ATOM     23  CA  ALA B   4      -3.125  18.694   5.154  1.00 23.83 LIG 0.17  C 
ATOM     24  CB  ALA B   4      -3.208  17.173   5.404  1.00 23.27 LIG 0.04  C 
BRANCH 23 25
ATOM     25  C   ALA B   4      -3.539  19.434   6.405  1.00 23.25 LIG 0.24  C 
ATOM     26  N   ALA B   5      -4.752  19.960   6.363  1.00 23.30 LIG-0.35  N 
ATOM     27 H    ALA B   5      -5.208  20.063   5.641  1.00 23.30 LIG 0.16  HD
ATOM     28 O    ALA B   4      -2.796  19.490   7.395  1.00 21.74 LIG-0.27  OA
BRANCH 26 29
ATOM     29  CA  ALA B   5      -5.427  20.416   7.574  1.00 23.99 LIG 0.17  C 
ATOM     30  CB  ALA B   5      -6.885  20.704   7.277  1.00 22.76 LIG 0.04  C 
BRANCH 29 31
ATOM     31  C   ALA B   5      -5.303  19.331   8.634  1.00 24.51 LIG 0.24  C 
ATOM     32 O    ALA B   5      -5.848  18.237   8.471  1.00 24.66 LIG-0.27  OA
ATOM     33  N   ALA B   6      -4.556  19.610   9.694  1.00 25.65 LIG-0.35  N 
ATOM     34 H    ALA B   6      -4.080  20.323   9.770  1.00 25.65 LIG 0.16  HD
BRANCH 33 35
ATOM     35  CA  ALA B   6      -4.482  18.712  10.844  1.00 26.64 LIG 0.16  C 
ATOM     36  CB  ALA B   6      -3.209  17.848  10.820  1.00 27.39 LIG 0.04  C 
BRANCH 35 37
ATOM     37  C   ALA B   6      -4.583  19.445  12.158  1.00 26.89 LIG 0.22  C 
ATOM     38 O    ALA B   6      -4.687  20.677  12.146  1.00 29.04 LIG-0.29  OA
ENDBRANCH 35 37
ENDBRANCH 33 35
ENDBRANCH 29 31
ENDBRANCH 26 29
ENDBRANCH 23 25
ENDBRANCH 3 23
TORSDOF 12
ENDMDL
MODEL 3
USER: ADFR SOLUTION from run 154
USER: SCORE 11.484248 LL:  -2.345 LR: -11.272 RR:   0.000 FEB:  -7.692
USER: RMSD 3.563620
USER: SEED 153
USER: STATUS no improvement in best in 2 clusters for 5 generations
USER: GENES 14
USER: genes 0 Translation |==|  0.55190 0.56673 0.51285
USER: genes 1 Rotation |==|  0.58622 0.51536 0.48664 0.99209
USER: genes 2 Torsion [N]-C--CA-[N] |==|  0.40865
USER: genes 3 Torsion [C]-CA--N-[C] |==|  0.84498
USER: genes 4 Torsion [N]-C--CA-[N] |==|  0.09669
USER: genes 5 Torsion [C]-CA--N-[C] |==|  0.12105
USER: genes 6 Torsion [N]-C--CA-[N] |==|  0.05220
USER: genes 7 Torsion [C]-CA--N-[H1] |==|  0.72225
USER: genes 8 Torsion [C]-N--CA-[CB] |==|  0.45681
USER: genes 9 Torsion [N]-CA--C-[N] |==|  0.32545
USER: genes 10 Torsion [C]-N--CA-[CB] |==|  0.52781
USER: genes 11 Torsion [N]-CA--C-[N] |==|  0.27663
USER: genes 12 Torsion [C]-N--CA-[C] |==|  0.64036
USER: genes 13 Torsion [N]-CA--C-[O] |==|  0.97171
ROOT
ATOM      1  C   ALA B   3      -1.829  19.819   4.347  1.00 25.24 LIG 0.24  C 
ATOM      2 O    ALA B   3      -2.838  20.418   3.968  1.00 26.05 LIG-0.27  OA
ATOM      3  N   ALA B   4      -1.856  18.792   5.184  1.00 24.29 LIG-0.35  N 
ATOM      4 H    ALA B   4      -1.148  18.379   5.447  1.00 24.29 LIG 0.16  HD
ENDROOT
BRANCH 1 5
ATOM      5  CA  ALA B   3      -0.435  20.211   3.844  1.00 25.23 LIG 0.17  C 
ATOM      6  CB  ALA B   3       0.199  21.242   4.761  1.00 24.91 LIG 0.04  C 
BRANCH 5 7
ATOM      7  N   ALA B   3      -0.521  20.719   2.481  1.00 25.90 LIG-0.35  N 
ATOM      8  C   ALA B   2      -1.068  20.006   1.498  1.00 26.37 LIG 0.24  C 
ATOM      9 O    ALA B   2      -1.563  18.900   1.676  1.00 26.80 LIG-0.27  OA
ATOM     10 H    ALA B   3      -0.193  21.507   2.375  1.00 25.90 LIG 0.16  HD
BRANCH 8 11
ATOM     11  CA  ALA B   2      -1.039  20.628   0.104  1.00 27.29 LIG 0.17  C 
ATOM     12  CB  ALA B   2      -1.128  19.533  -0.971  1.00 27.31 LIG 0.04  C 
BRANCH 11 13
ATOM     13  N   ALA B   2       0.198  21.392  -0.058  1.00 27.95 LIG-0.35  N 
ATOM     14  C   ALA B   1       1.393  20.945   0.339  1.00 29.40 LIG 0.25  C 
ATOM     15 O    ALA B   1       1.553  19.921   1.010  1.00 29.69 LIG-0.27  OA
ATOM     16 H    ALA B   2       0.084  22.157  -0.434  1.00 27.95 LIG 0.16  HD
BRANCH 14 17
ATOM     17  CA  ALA B   1       2.605  21.793  -0.046  1.00 29.88 LIG 0.27  C 
ATOM     18  CB  ALA B   1       3.620  21.777   1.081  1.00 30.40 LIG 0.05  C 
BRANCH 17 19
ATOM     19  N   ALA B   1       2.268  23.210  -0.421  1.00 30.41 LIG-0.07  N 
ATOM     20 H3   ALA B   1       2.882  23.760  -0.086  1.00 30.41 LIG 0.28  HD
ATOM     21 H2   ALA B   1       1.469  23.422  -0.092  1.00 30.41 LIG 0.28  HD
ATOM     22 H1   ALA B   1       2.253  23.287  -1.308  1.00 30.41 LIG 0.28  HD
ENDBRANCH 17 19
ENDBRANCH 14 17
ENDBRANCH 11 13
ENDBRANCH 8 11
ENDBRANCH 5 7
ENDBRANCH 1 5
BRANCH 3 23
ATOM     23  CA  ALA B   4      -3.085  18.259   5.739  1.00 23.83 LIG 0.17  C 
ATOM     24  CB  ALA B   4      -2.837  16.862   6.347  1.00 23.27 LIG 0.04  C 
BRANCH 23 25
ATOM     25  C   ALA B   4      -3.563  19.202   6.819  1.00 23.25 LIG 0.24  C 
ATOM     26  N   ALA B   5      -4.734  19.769   6.583  1.00 23.30 LIG-0.35  N 
ATOM     27 H    ALA B   5      -5.118  19.780   5.813  1.00 23.30 LIG 0.16  HD
ATOM     28 O    ALA B   4      -2.907  19.377   7.857  1.00 21.74 LIG-0.27  OA
BRANCH 26 29
ATOM     29  CA  ALA B   5      -5.485  20.437   7.642  1.00 23.99 LIG 0.17  C 
ATOM     30  CB  ALA B   5      -6.880  20.773   7.154  1.00 22.76 LIG 0.04  C 
BRANCH 29 31
ATOM     31  C   ALA B   5      -5.550  19.509   8.846  1.00 24.51 LIG 0.24  C 
ATOM     32 O    ALA B   5      -6.347  18.569   8.865  1.00 24.66 LIG-0.27  OA
ATOM     33  N   ALA B   6      -4.690  19.742   9.829  1.00 25.65 LIG-0.35  N 
ATOM     34 H    ALA B   6      -4.055  20.320   9.783  1.00 25.65 LIG 0.16  HD
BRANCH 33 35
ATOM     35  CA  ALA B   6      -4.753  19.018  11.097  1.00 26.64 LIG 0.16  C 
ATOM     36  CB  ALA B   6      -3.631  17.973  11.222  1.00 27.39 LIG 0.04  C 
BRANCH 35 37
ATOM     37  C   ALA B   6      -4.736  19.939  12.290  1.00 26.89 LIG 0.22  C 
ATOM     38 O    ALA B   6      -4.482  21.136  12.115  1.00 29.04 LIG-0.29  OA
ENDBRANCH 35 37
ENDBRANCH 33 35
ENDBRANCH 29 31
ENDBRANCH 26 29
ENDBRANCH 23 25
ENDBRANCH 3 23
TORSDOF 12
ENDMDL
MODEL 4
USER: ADFR SOLUTION from run 2
USER: SCORE 11.236309 LL:  -2.319 LR: -10.602 RR:   0.000 FEB:  -7.023
USER: RMSD 3.267524
USER: SEED 651118
USER: STATUS no improvement in best in 5 clusters for 5 generations
USER: GENES 14
USER: genes 0 Translation |==|  0.57061 0.60681 0.43375
USER: genes 1 Rotation |==|  0.50210 0.36071 0.70849 0.93258
USER: genes 2 Torsion [N]-C--CA-[N] |==|  0.34383
USER: genes 3 Torsion [C]-CA--N-[C] |==|  0.83925
USER: genes 4 Torsion [N]-C--CA-[N] |==|  0.88326
USER: genes 5 Torsion [C]-CA--N-[C] |==|  0.63395
USER: genes 6 Torsion [N]-C--CA-[N] |==|  0.18886
USER: genes 7 Torsion [C]-CA--N-[H1] |==|  0.60837
USER: genes 8 Torsion [C]-N--CA-[CB] |==|  0.25094
USER: genes 9 Torsion [N]-CA--C-[N] |==|  0.99098
USER: genes 10 Torsion [C]-N--CA-[CB] |==|  0.87745
USER: genes 11 Torsion [N]-CA--C-[N] |==|  0.41646
USER: genes 12 Torsion [C]-N--CA-[C] |==|  0.61329
USER: genes 13 Torsion [N]-CA--C-[O] |==|  0.93188
ROOT
ATOM      1  C   ALA B   3      -1.548  20.420   2.449  1.00 25.24 LIG 0.24  C 
ATOM      2 O    ALA B   3      -2.023  20.086   1.361  1.00 26.05 LIG-0.27  OA
ATOM      3  N   ALA B   4      -1.616  19.672   3.541  1.00 24.29 LIG-0.35  N 
ATOM      4 H    ALA B   4      -1.285  19.911   4.298  1.00 24.29 LIG 0.16  HD
ENDROOT
BRANCH 1 5
ATOM      5  CA  ALA B   3      -0.799  21.747   2.616  1.00 25.23 LIG 0.17  C 
ATOM      6  CB  ALA B   3      -1.747  22.924   2.462  1.00 24.91 LIG 0.04  C 
BRANCH 5 7
ATOM      7  N   ALA B   3       0.287  21.833   1.649  1.00 25.90 LIG-0.35  N 
ATOM      8  C   ALA B   2       1.255  20.918   1.597  1.00 26.37 LIG 0.24  C 
ATOM      9 O    ALA B   2       1.279  19.935   2.325  1.00 26.80 LIG-0.27  OA
ATOM     10 H    ALA B   3       0.245  22.515   1.127  1.00 25.90 LIG 0.16  HD
BRANCH 8 11
ATOM     11  CA  ALA B   2       2.368  21.159   0.579  1.00 27.29 LIG 0.17  C 
ATOM     12  CB  ALA B   2       3.369  22.193   1.120  1.00 27.31 LIG 0.04  C 
BRANCH 11 13
ATOM     13  N   ALA B   2       1.783  21.633  -0.675  1.00 27.95 LIG-0.35  N 
ATOM     14  C   ALA B   1       2.098  21.124  -1.869  1.00 29.40 LIG 0.25  C 
ATOM     15 O    ALA B   1       3.013  20.315  -2.049  1.00 29.69 LIG-0.27  OA
ATOM     16 H    ALA B   2       1.217  22.272  -0.571  1.00 27.95 LIG 0.16  HD
BRANCH 14 17
ATOM     17  CA  ALA B   1       1.281  21.619  -3.063  1.00 29.88 LIG 0.27  C 
ATOM     18  CB  ALA B   1       1.553  20.740  -4.268  1.00 30.40 LIG 0.05  C 
BRANCH 17 19
ATOM     19  N   ALA B   1       1.518  23.064  -3.409  1.00 30.41 LIG-0.07  N 
ATOM     20 H3   ALA B   1       2.092  23.117  -4.088  1.00 30.41 LIG 0.28  HD
ATOM     21 H2   ALA B   1       1.855  23.487  -2.703  1.00 30.41 LIG 0.28  HD
ATOM     22 H1   ALA B   1       0.747  23.444  -3.642  1.00 30.41 LIG 0.28  HD
ENDBRANCH 17 19
ENDBRANCH 14 17
ENDBRANCH 11 13
ENDBRANCH 8 11
ENDBRANCH 5 7
ENDBRANCH 1 5
BRANCH 3 23
ATOM     23  CA  ALA B   4      -2.258  18.371   3.566  1.00 23.83 LIG 0.17  C 
ATOM     24  CB  ALA B   4      -1.235  17.264   3.233  1.00 23.27 LIG 0.04  C 
BRANCH 23 25
ATOM     25  C   ALA B   4      -2.813  18.145   4.953  1.00 23.25 LIG 0.24  C 
ATOM     26  N   ALA B   5      -2.546  19.106   5.821  1.00 23.30 LIG-0.35  N 
ATOM     27 H    ALA B   5      -1.949  19.713   5.699  1.00 23.30 LIG 0.16  HD
ATOM     28 O    ALA B   4      -3.500  17.147   5.215  1.00 21.74 LIG-0.27  OA
BRANCH 26 29
ATOM     29  CA  ALA B   5      -3.264  19.209   7.088  1.00 23.99 LIG 0.17  C 
ATOM     30  CB  ALA B   5      -4.748  18.999   6.860  1.00 22.76 LIG 0.04  C 
BRANCH 29 31
ATOM     31  C   ALA B   5      -2.717  18.156   8.041  1.00 24.51 LIG 0.24  C 
ATOM     32 O    ALA B   5      -2.232  17.111   7.601  1.00 24.66 LIG-0.27  OA
ATOM     33  N   ALA B   6      -2.753  18.442   9.335  1.00 25.65 LIG-0.35  N 
ATOM     34 H    ALA B   6      -2.983  19.209   9.650  1.00 25.65 LIG 0.16  HD
BRANCH 33 35
ATOM     35  CA  ALA B   6      -2.397  17.457  10.353  1.00 26.64 LIG 0.16  C 
ATOM     36  CB  ALA B   6      -0.935  17.599  10.809  1.00 27.39 LIG 0.04  C 
BRANCH 35 37
ATOM     37  C   ALA B   6      -3.316  17.502  11.548  1.00 26.89 LIG 0.22  C 
ATOM     38 O    ALA B   6      -3.918  18.553  11.797  1.00 29.04 LIG-0.29  OA
ENDBRANCH 35 37
ENDBRANCH 33 35
ENDBRANCH 29 31
ENDBRANCH 26 29
ENDBRANCH 23 25
ENDBRANCH 3 23
TORSDOF 12
ENDMDL
MODEL 5
USER: ADFR SOLUTION from run 77
USER: SCORE 11.463663 LL:  -2.448 LR: -10.571 RR:   0.000 FEB:  -6.991
USER: RMSD 2.289537
USER: SEED 76
USER: STATUS no improvement in best in 3 clusters for 5 generations
USER: GENES 14
USER: genes 0 Translation |==|  0.63702 0.62698 0.47447
USER: genes 1 Rotation |==|  0.72483 0.56475 0.42867 0.93609
USER: genes 2 Torsion [N]-C--CA-[N] |==|  0.22393
USER: genes 3 Torsion [C]-CA--N-[C] |==|  0.56988
USER: genes 4 Torsion [N]-C--CA-[N] |==|  0.05915
USER: genes 5 Torsion [C]-CA--N-[C] |==|  0.74909
USER: genes 6 Torsion [N]-C--CA-[N] |==|  0.90687
USER: genes 7 Torsion [C]-CA--N-[H1] |==|  0.32312
USER: genes 8 Torsion [C]-N--CA-[CB] |==|  0.48337
USER: genes 9 Torsion [N]-CA--C-[N] |==|  0.44022
USER: genes 10 Torsion [C]-N--CA-[CB] |==|  0.51709
USER: genes 11 Torsion [N]-CA--C-[N] |==|  0.45813
USER: genes 12 Torsion [C]-N--CA-[C] |==|  0.66549
USER: genes 13 Torsion [N]-CA--C-[O] |==|  0.95694
ROOT
ATOM      1  C   ALA B   3      -0.552  20.723   3.426  1.00 25.24 LIG 0.24  C 
ATOM      2 O    ALA B   3      -1.406  21.564   3.715  1.00 26.05 LIG-0.27  OA
ATOM      3  N   ALA B   4      -0.730  19.417   3.567  1.00 24.29 LIG-0.35  N 
ATOM      4 H    ALA B   4      -0.129  18.835   3.366  1.00 24.29 LIG 0.16  HD
ENDROOT
BRANCH 1 5
ATOM      5  CA  ALA B   3       0.804  21.134   2.841  1.00 25.23 LIG 0.17  C 
ATOM      6  CB  ALA B   3       1.149  22.561   3.232  1.00 24.91 LIG 0.04  C 
BRANCH 5 7
ATOM      7  N   ALA B   3       0.786  20.990   1.391  1.00 25.90 LIG-0.35  N 
ATOM      8  C   ALA B   2       1.902  20.797   0.690  1.00 26.37 LIG 0.24  C 
ATOM      9 O    ALA B   2       3.004  20.693   1.212  1.00 26.80 LIG-0.27  OA
ATOM     10 H    ALA B   3       0.002  21.040   1.039  1.00 25.90 LIG 0.16  HD
BRANCH 8 11
ATOM     11  CA  ALA B   2       1.752  20.725  -0.829  1.00 27.29 LIG 0.17  C 
ATOM     12  CB  ALA B   2       2.944  21.411  -1.515  1.00 27.31 LIG 0.04  C 
BRANCH 11 13
ATOM     13  N   ALA B   2       0.502  21.377  -1.222  1.00 27.95 LIG-0.35  N 
ATOM     14  C   ALA B   1      -0.661  20.728  -1.325  1.00 29.40 LIG 0.25  C 
ATOM     15 O    ALA B   1      -0.771  19.501  -1.247  1.00 29.69 LIG-0.27  OA
ATOM     16 H    ALA B   2       0.587  22.217  -1.380  1.00 27.95 LIG 0.16  HD
BRANCH 14 17
ATOM     17  CA  ALA B   1      -1.901  21.582  -1.591  1.00 29.88 LIG 0.27  C 
ATOM     18  CB  ALA B   1      -2.121  21.714  -3.085  1.00 30.40 LIG 0.05  C 
BRANCH 17 19
ATOM     19  N   ALA B   1      -1.857  22.942  -0.950  1.00 30.41 LIG-0.07  N 
ATOM     20 H3   ALA B   1      -1.117  23.017  -0.460  1.00 30.41 LIG 0.28  HD
ATOM     21 H2   ALA B   1      -2.569  23.048  -0.427  1.00 30.41 LIG 0.28  HD
ATOM     22 H1   ALA B   1      -1.859  23.569  -1.582  1.00 30.41 LIG 0.28  HD
ENDBRANCH 17 19
ENDBRANCH 14 17
ENDBRANCH 11 13
ENDBRANCH 8 11
ENDBRANCH 5 7
ENDBRANCH 1 5
BRANCH 3 23
ATOM     23  CA  ALA B   4      -1.960  18.840   4.075  1.00 23.83 LIG 0.17  C 
ATOM     24  CB  ALA B   4      -1.908  17.300   3.978  1.00 23.27 LIG 0.04  C 
BRANCH 23 25
ATOM     25  C   ALA B   4      -2.112  19.249   5.522  1.00 23.25 LIG 0.24  C 
ATOM     26  N   ALA B   5      -3.349  19.192   5.988  1.00 23.30 LIG-0.35  N 
ATOM     27 H    ALA B   5      -4.048  19.127   5.491  1.00 23.30 LIG 0.16  HD
ATOM     28 O    ALA B   4      -1.129  19.568   6.207  1.00 21.74 LIG-0.27  OA
BRANCH 26 29
ATOM     29  CA  ALA B   5      -3.626  19.235   7.420  1.00 23.99 LIG 0.17  C 
ATOM     30  CB  ALA B   5      -5.102  19.000   7.669  1.00 22.76 LIG 0.04  C 
BRANCH 29 31
ATOM     31  C   ALA B   5      -2.792  18.162   8.106  1.00 24.51 LIG 0.24  C 
ATOM     32 O    ALA B   5      -2.232  17.289   7.439  1.00 24.66 LIG-0.27  OA
ATOM     33  N   ALA B   6      -2.673  18.247   9.424  1.00 25.65 LIG-0.35  N 
ATOM     34 H    ALA B   6      -2.963  18.910   9.890  1.00 25.65 LIG 0.16  HD
BRANCH 33 35
ATOM     35  CA  ALA B   6      -2.027  17.198  10.209  1.00 26.64 LIG 0.16  C 
ATOM     36  CB  ALA B   6      -0.735  17.693  10.882  1.00 27.39 LIG 0.04  C 
BRANCH 35 37
ATOM     37  C   ALA B   6      -2.948  16.597  11.241  1.00 26.89 LIG 0.22  C 
ATOM     38 O    ALA B   6      -3.990  17.197  11.530  1.00 29.04 LIG-0.29  OA
ENDBRANCH 35 37
ENDBRANCH 33 35
ENDBRANCH 29 31
ENDBRANCH 26 29
ENDBRANCH 23 25
ENDBRANCH 3 23
TORSDOF 12
ENDMDL
MODEL 6
USER: ADFR SOLUTION from run 185
USER: SCORE 10.593810 LL:  -2.452 LR: -10.560 RR:   0.000 FEB:  -6.980
USER: RMSD 3.593724
USER: SEED 184
USER: STATUS no improvement in best in 7 clusters for 5 generations
USER: GENES 14
USER: genes 0 Translation |==|  0.53445 0.61275 0.48450
USER: genes 1 Rotation |==|  0.64090 0.42730 0.42421 0.96810
USER: genes 2 Torsion [N]-C--CA-[N] |==|  0.45358
USER: genes 3 Torsion [C]-CA--N-[C] |==|  0.58750
USER: genes 4 Torsion [N]-C--CA-[N] |==|  0.71740
USER: genes 5 Torsion [C]-CA--N-[C] |==|  0.71102
USER: genes 6 Torsion [N]-C--CA-[N] |==|  0.19173
USER: genes 7 Torsion [C]-CA--N-[H1] |==|  0.74937
USER: genes 8 Torsion [C]-N--CA-[CB] |==|  0.26466
USER: genes 9 Torsion [N]-CA--C-[N] |==|  0.82979
USER: genes 10 Torsion [C]-N--CA-[CB] |==|  0.50574
USER: genes 11 Torsion [N]-CA--C-[N] |==|  0.40726
USER: genes 12 Torsion [C]-N--CA-[C] |==|  0.80553
USER: genes 13 Torsion [N]-CA--C-[O] |==|  0.45788
ROOT
ATOM      1  C   ALA B   3      -2.090  20.509   3.667  1.00 25.24 LIG 0.24  C 
ATOM      2 O    ALA B   3      -2.713  21.468   3.203  1.00 26.05 LIG-0.27  OA
ATOM      3  N   ALA B   4      -2.672  19.432   4.174  1.00 24.29 LIG-0.35  N 
ATOM      4 H    ALA B   4      -2.233  18.768   4.499  1.00 24.29 LIG 0.16  HD
ENDROOT
BRANCH 1 5
ATOM      5  CA  ALA B   3      -0.557  20.480   3.666  1.00 25.23 LIG 0.17  C 
ATOM      6  CB  ALA B   3      -0.014  20.693   5.068  1.00 24.91 LIG 0.04  C 
BRANCH 5 7
ATOM      7  N   ALA B   3      -0.040  21.493   2.755  1.00 25.90 LIG-0.35  N 
ATOM      8  C   ALA B   2       1.104  21.324   2.094  1.00 26.37 LIG 0.24  C 
ATOM      9 O    ALA B   2       1.775  20.304   2.176  1.00 26.80 LIG-0.27  OA
ATOM     10 H    ALA B   3      -0.533  22.194   2.688  1.00 25.90 LIG 0.16  HD
BRANCH 8 11
ATOM     11  CA  ALA B   2       1.566  22.489   1.220  1.00 27.29 LIG 0.17  C 
ATOM     12  CB  ALA B   2       0.869  23.789   1.653  1.00 27.31 LIG 0.04  C 
BRANCH 11 13
ATOM     13  N   ALA B   2       1.258  22.195  -0.180  1.00 27.95 LIG-0.35  N 
ATOM     14  C   ALA B   1       2.179  21.815  -1.068  1.00 29.40 LIG 0.25  C 
ATOM     15 O    ALA B   1       3.393  21.818  -0.841  1.00 29.69 LIG-0.27  OA
ATOM     16 H    ALA B   2       0.426  22.291  -0.376  1.00 27.95 LIG 0.16  HD
BRANCH 14 17
ATOM     17  CA  ALA B   1       1.670  21.393  -2.447  1.00 29.88 LIG 0.27  C 
ATOM     18  CB  ALA B   1       2.778  20.695  -3.210  1.00 30.40 LIG 0.05  C 
BRANCH 17 19
ATOM     19  N   ALA B   1       1.108  22.523  -3.265  1.00 30.41 LIG-0.07  N 
ATOM     20 H3   ALA B   1       1.236  22.356  -4.130  1.00 30.41 LIG 0.28  HD
ATOM     21 H2   ALA B   1       1.518  23.281  -3.046  1.00 30.41 LIG 0.28  HD
ATOM     22 H1   ALA B   1       0.236  22.601  -3.105  1.00 30.41 LIG 0.28  HD
ENDBRANCH 17 19
ENDBRANCH 14 17
ENDBRANCH 11 13
ENDBRANCH 8 11
ENDBRANCH 5 7
ENDBRANCH 1 5
BRANCH 3 23
ATOM     23  CA  ALA B   4      -4.112  19.267   4.230  1.00 23.83 LIG 0.17  C 
ATOM     24  CB  ALA B   4      -4.607  18.464   3.009  1.00 23.27 LIG 0.04  C 
BRANCH 23 25
ATOM     25  C   ALA B   4      -4.453  18.519   5.498  1.00 23.25 LIG 0.24  C 
ATOM     26  N   ALA B   5      -3.933  17.305   5.583  1.00 23.30 LIG-0.35  N 
ATOM     27 H    ALA B   5      -3.599  16.877   4.917  1.00 23.30 LIG 0.16  HD
ATOM     28 O    ALA B   4      -5.133  19.044   6.392  1.00 21.74 LIG-0.27  OA
BRANCH 26 29
ATOM     29  CA  ALA B   5      -3.888  16.584   6.851  1.00 23.99 LIG 0.17  C 
ATOM     30  CB  ALA B   5      -3.197  15.248   6.662  1.00 22.76 LIG 0.04  C 
BRANCH 29 31
ATOM     31  C   ALA B   5      -3.135  17.434   7.864  1.00 24.51 LIG 0.24  C 
ATOM     32 O    ALA B   5      -2.232  18.187   7.495  1.00 24.66 LIG-0.27  OA
ATOM     33  N   ALA B   6      -3.529  17.350   9.128  1.00 25.65 LIG-0.35  N 
ATOM     34 H    ALA B   6      -4.227  16.917   9.385  1.00 25.65 LIG 0.16  HD
BRANCH 33 35
ATOM     35  CA  ALA B   6      -2.793  17.999  10.210  1.00 26.64 LIG 0.16  C 
ATOM     36  CB  ALA B   6      -3.615  18.068  11.509  1.00 27.39 LIG 0.04  C 
BRANCH 35 37
ATOM     37  C   ALA B   6      -1.461  17.345  10.477  1.00 26.89 LIG 0.22  C 
ATOM     38 O    ALA B   6      -0.625  17.951  11.157  1.00 29.04 LIG-0.29  OA
ENDBRANCH 35 37
ENDBRANCH 33 35
ENDBRANCH 29 31
ENDBRANCH 26 29
ENDBRANCH 23 25
ENDBRANCH 3 23
TORSDOF 12
ENDMDL
MODEL 7
USER: ADFR SOLUTION from run 50
USER: SCORE 10.526980 LL:  -2.338 LR: -10.300 RR:   0.000 FEB:  -6.721
USER: RMSD 3.556773
USER: SEED 49
USER: STATUS no improvement in best in 4 clusters for 5 generations
USER: GENES 14
USER: genes 0 Translation |==|  0.57567 0.57421 0.48533
USER: genes 1 Rotation |==|  0.58595 0.41760 0.50622 0.98558
USER: genes 2 Torsion [N]-C--CA-[N] |==|  0.48228
USER: genes 3 Torsion [C]-CA--N-[C] |==|  0.58689
USER: genes 4 Torsion [N]-C--CA-[N] |==|  0.75100
USER: genes 5 Torsion [C]-CA--N-[C] |==|  0.73492
USER: genes 6 Torsion [N]-C--CA-[N] |==|  0.16666
USER: genes 7 Torsion [C]-CA--N-[H1] |==|  0.78114
USER: genes 8 Torsion [C]-N--CA-[CB] |==|  0.27220
USER: genes 9 Torsion [N]-CA--C-[N] |==|  0.01436
USER: genes 10 Torsion [C]-N--CA-[CB] |==|  0.80385
USER: genes 11 Torsion [N]-CA--C-[N] |==|  0.19151
USER: genes 12 Torsion [C]-N--CA-[C] |==|  0.56160
USER: genes 13 Torsion [N]-CA--C-[O] |==|  0.80410
ROOT
ATOM      1  C   ALA B   3      -1.472  19.931   3.687  1.00 25.24 LIG 0.24  C 
ATOM      2 O    ALA B   3      -2.259  20.520   2.941  1.00 26.05 LIG-0.27  OA
ATOM      3  N   ALA B   4      -1.815  18.906   4.453  1.00 24.29 LIG-0.35  N 
ATOM      4 H    ALA B   4      -1.262  18.501   4.974  1.00 24.29 LIG 0.16  HD
ENDROOT
BRANCH 1 5
ATOM      5  CA  ALA B   3       0.005  20.335   3.764  1.00 25.23 LIG 0.17  C 
ATOM      6  CB  ALA B   3       0.359  20.819   5.159  1.00 24.91 LIG 0.04  C 
BRANCH 5 7
ATOM      7  N   ALA B   3       0.292  21.365   2.774  1.00 25.90 LIG-0.35  N 
ATOM      8  C   ALA B   2       1.487  21.469   2.194  1.00 26.37 LIG 0.24  C 
ATOM      9 O    ALA B   2       2.406  20.693   2.423  1.00 26.80 LIG-0.27  OA
ATOM     10 H    ALA B   3      -0.369  21.888   2.605  1.00 25.90 LIG 0.16  HD
BRANCH 8 11
ATOM     11  CA  ALA B   2       1.676  22.632   1.222  1.00 27.29 LIG 0.17  C 
ATOM     12  CB  ALA B   2       0.824  23.835   1.658  1.00 27.31 LIG 0.04  C 
BRANCH 11 13
ATOM     13  N   ALA B   2       1.293  22.204  -0.123  1.00 27.95 LIG-0.35  N 
ATOM     14  C   ALA B   1       2.169  21.756  -1.027  1.00 29.40 LIG 0.25  C 
ATOM     15 O    ALA B   1       3.393  21.796  -0.874  1.00 29.69 LIG-0.27  OA
ATOM     16 H    ALA B   2       0.450  22.270  -0.278  1.00 27.95 LIG 0.16  HD
BRANCH 14 17
ATOM     17  CA  ALA B   1       1.588  21.199  -2.327  1.00 29.88 LIG 0.27  C 
ATOM     18  CB  ALA B   1       2.705  20.644  -3.189  1.00 30.40 LIG 0.05  C 
BRANCH 17 19
ATOM     19  N   ALA B   1       0.773  22.193  -3.109  1.00 30.41 LIG-0.07  N 
ATOM     20 H3   ALA B   1       0.697  21.917  -3.952  1.00 30.41 LIG 0.28  HD
ATOM     21 H2   ALA B   1       1.177  22.986  -3.093  1.00 30.41 LIG 0.28  HD
ATOM     22 H1   ALA B   1      -0.036  22.265  -2.746  1.00 30.41 LIG 0.28  HD
ENDBRANCH 17 19
ENDBRANCH 14 17
ENDBRANCH 11 13
ENDBRANCH 8 11
ENDBRANCH 5 7
ENDBRANCH 1 5
BRANCH 3 23
ATOM     23  CA  ALA B   4      -3.159  18.363   4.489  1.00 23.83 LIG 0.17  C 
ATOM     24  CB  ALA B   4      -3.260  17.122   3.578  1.00 23.27 LIG 0.04  C 
BRANCH 23 25
ATOM     25  C   ALA B   4      -3.473  17.970   5.914  1.00 23.25 LIG 0.24  C 
ATOM     26  N   ALA B   5      -2.542  18.293   6.796  1.00 23.30 LIG-0.35  N 
ATOM     27 H    ALA B   5      -1.739  18.522   6.588  1.00 23.30 LIG 0.16  HD
ATOM     28 O    ALA B   4      -4.547  17.427   6.210  1.00 21.74 LIG-0.27  OA
BRANCH 26 29
ATOM     29  CA  ALA B   5      -2.816  18.285   8.230  1.00 23.99 LIG 0.17  C 
ATOM     30  CB  ALA B   5      -3.742  19.432   8.586  1.00 22.76 LIG 0.04  C 
BRANCH 29 31
ATOM     31  C   ALA B   5      -3.455  16.952   8.592  1.00 24.51 LIG 0.24  C 
ATOM     32 O    ALA B   5      -4.648  16.897   8.898  1.00 24.66 LIG-0.27  OA
ATOM     33  N   ALA B   6      -2.682  15.877   8.517  1.00 25.65 LIG-0.35  N 
ATOM     34 H    ALA B   6      -1.883  15.882   8.198  1.00 25.65 LIG 0.16  HD
BRANCH 33 35
ATOM     35  CA  ALA B   6      -3.135  14.567   8.981  1.00 26.64 LIG 0.16  C 
ATOM     36  CB  ALA B   6      -4.089  13.898   7.976  1.00 27.39 LIG 0.04  C 
BRANCH 35 37
ATOM     37  C   ALA B   6      -1.991  13.640   9.303  1.00 26.89 LIG 0.22  C 
ATOM     38 O    ALA B   6      -1.308  13.192   8.374  1.00 29.04 LIG-0.29  OA
ENDBRANCH 35 37
ENDBRANCH 33 35
ENDBRANCH 29 31
ENDBRANCH 26 29
ENDBRANCH 23 25
ENDBRANCH 3 23
TORSDOF 12
ENDMDL
MODEL 8
USER: ADFR SOLUTION from run 23
USER: SCORE 10.318103 LL:  -2.507 LR: -10.302 RR:   0.000 FEB:  -6.723
USER: RMSD 3.712795
USER: SEED 22
USER: STATUS no improvement in best in 6 clusters for 5 generations
USER: GENES 14
USER: genes 0 Translation |==|  0.57700 0.66514 0.46802
USER: genes 1 Rotation |==|  0.58128 0.36299 0.43001 0.96875
USER: genes 2 Torsion [N]-C--CA-[N] |==|  0.40641
USER: genes 3 Torsion [C]-CA--N-[C] |==|  0.73603
USER: genes 4 Torsion [N]-C--CA-[N] |==|  0.76766
USER: genes 5 Torsion [C]-CA--N-[C] |==|  0.68450
USER: genes 6 Torsion [N]-C--CA-[N] |==|  0.94321
USER: genes 7 Torsion [C]-CA--N-[H1] |==|  0.34080
USER: genes 8 Torsion [C]-N--CA-[CB] |==|  0.23729
USER: genes 9 Torsion [N]-CA--C-[N] |==|  0.87356
USER: genes 10 Torsion [C]-N--CA-[CB] |==|  0.51118
USER: genes 11 Torsion [N]-CA--C-[N] |==|  0.27942
USER: genes 12 Torsion [C]-N--CA-[C] |==|  0.72491
USER: genes 13 Torsion [N]-CA--C-[O] |==|  0.45582
ROOT
ATOM      1  C   ALA B   3      -1.452  21.295   3.271  1.00 25.24 LIG 0.24  C 
ATOM      2 O    ALA B   3      -1.860  22.125   2.455  1.00 26.05 LIG-0.27  OA
ATOM      3  N   ALA B   4      -2.239  20.430   3.895  1.00 24.29 LIG-0.35  N 
ATOM      4 H    ALA B   4      -1.949  19.855   4.465  1.00 24.29 LIG 0.16  HD
ENDROOT
BRANCH 1 5
ATOM      5  CA  ALA B   3       0.038  21.182   3.614  1.00 25.23 LIG 0.17  C 
ATOM      6  CB  ALA B   3       0.393  22.086   4.781  1.00 24.91 LIG 0.04  C 
BRANCH 5 7
ATOM      7  N   ALA B   3       0.844  21.511   2.446  1.00 25.90 LIG-0.35  N 
ATOM      8  C   ALA B   2       1.305  20.570   1.622  1.00 26.37 LIG 0.24  C 
ATOM      9 O    ALA B   2       1.057  19.381   1.768  1.00 26.80 LIG-0.27  OA
ATOM     10 H    ALA B   3       0.991  22.352   2.341  1.00 25.90 LIG 0.16  HD
BRANCH 8 11
ATOM     11  CA  ALA B   2       2.191  21.044   0.472  1.00 27.29 LIG 0.17  C 
ATOM     12  CB  ALA B   2       3.100  22.193   0.937  1.00 27.31 LIG 0.04  C 
BRANCH 11 13
ATOM     13  N   ALA B   2       1.347  21.489  -0.637  1.00 27.95 LIG-0.35  N 
ATOM     14  C   ALA B   1       1.296  20.862  -1.816  1.00 29.40 LIG 0.25  C 
ATOM     15 O    ALA B   1       2.057  19.944  -2.138  1.00 29.69 LIG-0.27  OA
ATOM     16 H    ALA B   2       0.886  22.192  -0.459  1.00 27.95 LIG 0.16  HD
BRANCH 14 17
ATOM     17  CA  ALA B   1       0.246  21.357  -2.811  1.00 29.88 LIG 0.27  C 
ATOM     18  CB  ALA B   1       0.915  22.191  -3.887  1.00 30.40 LIG 0.05  C 
BRANCH 17 19
ATOM     19  N   ALA B   1      -0.880  22.130  -2.181  1.00 30.41 LIG-0.07  N 
ATOM     20 H3   ALA B   1      -0.733  22.210  -1.307  1.00 30.41 LIG 0.28  HD
ATOM     21 H2   ALA B   1      -1.647  21.698  -2.313  1.00 30.41 LIG 0.28  HD
ATOM     22 H1   ALA B   1      -0.928  22.939  -2.549  1.00 30.41 LIG 0.28  HD
ENDBRANCH 17 19
ENDBRANCH 14 17
ENDBRANCH 11 13
ENDBRANCH 8 11
ENDBRANCH 5 7
ENDBRANCH 1 5
BRANCH 3 23
ATOM     23  CA  ALA B   4      -3.671  20.367   3.674  1.00 23.83 LIG 0.17  C 
ATOM     24  CB  ALA B   4      -3.986  19.476   2.453  1.00 23.27 LIG 0.04  C 
BRANCH 23 25
ATOM     25  C   ALA B   4      -4.314  19.777   4.908  1.00 23.25 LIG 0.24  C 
ATOM     26  N   ALA B   5      -3.708  18.705   5.391  1.00 23.30 LIG-0.35  N 
ATOM     27 H    ALA B   5      -3.124  18.245   4.958  1.00 23.30 LIG 0.16  HD
ATOM     28 O    ALA B   4      -5.307  20.304   5.431  1.00 21.74 LIG-0.27  OA
BRANCH 26 29
ATOM     29  CA  ALA B   5      -3.991  18.211   6.735  1.00 23.99 LIG 0.17  C 
ATOM     30  CB  ALA B   5      -3.086  17.038   7.057  1.00 22.76 LIG 0.04  C 
BRANCH 29 31
ATOM     31  C   ALA B   5      -3.766  19.345   7.725  1.00 24.51 LIG 0.24  C 
ATOM     32 O    ALA B   5      -2.622  19.663   8.057  1.00 24.66 LIG-0.27  OA
ATOM     33  N   ALA B   6      -4.844  19.982   8.162  1.00 25.65 LIG-0.35  N 
ATOM     34 H    ALA B   6      -5.637  19.848   7.856  1.00 25.65 LIG 0.16  HD
BRANCH 33 35
ATOM     35  CA  ALA B   6      -4.770  20.984   9.223  1.00 26.64 LIG 0.16  C 
ATOM     36  CB  ALA B   6      -5.620  22.226   8.903  1.00 27.39 LIG 0.04  C 
BRANCH 35 37
ATOM     37  C   ALA B   6      -5.155  20.429  10.571  1.00 26.89 LIG 0.22  C 
ATOM     38 O    ALA B   6      -4.857  21.068  11.586  1.00 29.04 LIG-0.29  OA
ENDBRANCH 35 37
ENDBRANCH 33 35
ENDBRANCH 29 31
ENDBRANCH 26 29
ENDBRANCH 23 25
ENDBRANCH 3 23
TORSDOF 12
ENDMDL
MODEL 9
USER: ADFR SOLUTION from run 96
USER: SCORE 10.881576 LL:  -2.283 LR: -10.276 RR:   0.000 FEB:  -6.697
USER: RMSD 3.539472
USER: SEED 95
USER: STATUS no improvement in best in 5 clusters for 5 generations
USER: GENES 14
USER: genes 0 Translation |==|  0.55818 0.56690 0.48886
USER: genes 1 Rotation |==|  0.69351 0.60794 0.46079 0.94650
USER: genes 2 Torsion [N]-C--CA-[N] |==|  0.20805
USER: genes 3 Torsion [C]-CA--N-[C] |==|  0.77720
USER: genes 4 Torsion [N]-C--CA-[N] |==|  0.19338
USER: genes 5 Torsion [C]-CA--N-[C] |==|  0.56357
USER: genes 6 Torsion [N]-C--CA-[N] |==|  0.79396
USER: genes 7 Torsion [C]-CA--N-[H1] |==|  0.84112
USER: genes 8 Torsion [C]-N--CA-[CB] |==|  0.48349
USER: genes 9 Torsion [N]-CA--C-[N] |==|  0.46601
USER: genes 10 Torsion [C]-N--CA-[CB] |==|  0.86111
USER: genes 11 Torsion [N]-CA--C-[N] |==|  0.31138
USER: genes 12 Torsion [C]-N--CA-[C] |==|  0.74082
USER: genes 13 Torsion [N]-CA--C-[O] |==|  0.36097
ROOT
ATOM      1  C   ALA B   3      -1.734  19.821   3.772  1.00 25.24 LIG 0.24  C 
ATOM      2 O    ALA B   3      -2.718  20.493   4.092  1.00 26.05 LIG-0.27  OA
ATOM      3  N   ALA B   4      -1.614  18.527   4.029  1.00 24.29 LIG-0.35  N 
ATOM      4 H    ALA B   4      -0.924  18.064   3.806  1.00 24.29 LIG 0.16  HD
ENDROOT
BRANCH 1 5
ATOM      5  CA  ALA B   3      -0.561  20.444   3.006  1.00 25.23 LIG 0.17  C 
ATOM      6  CB  ALA B   3      -0.577  21.958   3.134  1.00 24.91 LIG 0.04  C 
BRANCH 5 7
ATOM      7  N   ALA B   3      -0.611  20.046   1.606  1.00 25.90 LIG-0.35  N 
ATOM      8  C   ALA B   2      -0.170  18.858   1.196  1.00 26.37 LIG 0.24  C 
ATOM      9 O    ALA B   2       0.271  18.013   1.964  1.00 26.80 LIG-0.27  OA
ATOM     10 H    ALA B   3      -0.947  20.640   1.081  1.00 25.90 LIG 0.16  HD
BRANCH 8 11
ATOM     11  CA  ALA B   2      -0.221  18.591  -0.307  1.00 27.29 LIG 0.17  C 
ATOM     12  CB  ALA B   2       0.062  17.108  -0.594  1.00 27.31 LIG 0.04  C 
BRANCH 11 13
ATOM     13  N   ALA B   2       0.769  19.431  -0.981  1.00 27.95 LIG-0.35  N 
ATOM     14  C   ALA B   1       0.687  19.768  -2.271  1.00 29.40 LIG 0.25  C 
ATOM     15 O    ALA B   1      -0.139  19.289  -3.054  1.00 29.69 LIG-0.27  OA
ATOM     16 H    ALA B   2       1.410  19.688  -0.468  1.00 27.95 LIG 0.16  HD
BRANCH 14 17
ATOM     17  CA  ALA B   1       1.713  20.780  -2.782  1.00 29.88 LIG 0.27  C 
ATOM     18  CB  ALA B   1       3.107  20.347  -2.372  1.00 30.40 LIG 0.05  C 
BRANCH 17 19
ATOM     19  N   ALA B   1       1.455  22.193  -2.335  1.00 30.41 LIG-0.07  N 
ATOM     20 H3   ALA B   1       2.061  22.735  -2.697  1.00 30.41 LIG 0.28  HD
ATOM     21 H2   ALA B   1       1.510  22.238  -1.448  1.00 30.41 LIG 0.28  HD
ATOM     22 H1   ALA B   1       0.641  22.443  -2.595  1.00 30.41 LIG 0.28  HD
ENDBRANCH 17 19
ENDBRANCH 14 17
ENDBRANCH 11 13
ENDBRANCH 8 11
ENDBRANCH 5 7
ENDBRANCH 1 5
BRANCH 3 23
ATOM     23  CA  ALA B   4      -2.636  17.761   4.716  1.00 23.83 LIG 0.17  C 
ATOM     24  CB  ALA B   4      -2.264  16.264   4.730  1.00 23.27 LIG 0.04  C 
BRANCH 23 25
ATOM     25  C   ALA B   4      -2.735  18.270   6.135  1.00 23.25 LIG 0.24  C 
ATOM     26  N   ALA B   5      -3.793  17.844   6.805  1.00 23.30 LIG-0.35  N 
ATOM     27 H    ALA B   5      -4.480  17.477   6.439  1.00 23.30 LIG 0.16  HD
ATOM     28 O    ALA B   4      -1.855  18.995   6.621  1.00 21.74 LIG-0.27  OA
BRANCH 26 29
ATOM     29  CA  ALA B   5      -3.875  17.967   8.257  1.00 23.99 LIG 0.17  C 
ATOM     30  CB  ALA B   5      -2.613  17.423   8.895  1.00 22.76 LIG 0.04  C 
BRANCH 29 31
ATOM     31  C   ALA B   5      -4.059  19.437   8.607  1.00 24.51 LIG 0.24  C 
ATOM     32 O    ALA B   5      -3.162  20.249   8.371  1.00 24.66 LIG-0.27  OA
ATOM     33  N   ALA B   6      -5.228  19.788   9.126  1.00 25.65 LIG-0.35  N 
ATOM     34 H    ALA B   6      -5.902  19.257   9.192  1.00 25.65 LIG 0.16  HD
BRANCH 33 35
ATOM     35  CA  ALA B   6      -5.471  21.134   9.640  1.00 26.64 LIG 0.16  C 
ATOM     36  CB  ALA B   6      -6.894  21.625   9.323  1.00 27.39 LIG 0.04  C 
BRANCH 35 37
ATOM     37  C   ALA B   6      -5.203  21.246  11.119  1.00 26.89 LIG 0.22  C 
ATOM     38 O    ALA B   6      -4.484  22.165  11.527  1.00 29.04 LIG-0.29  OA
ENDBRANCH 35 37
ENDBRANCH 33 35
ENDBRANCH 29 31
ENDBRANCH 26 29
ENDBRANCH 23 25
ENDBRANCH 3 23
TORSDOF 12
ENDMDL
MODEL 10
USER: ADFR SOLUTION from run 93
USER: SCORE 10.434224 LL:  -2.722 LR: -10.148 RR:   0.000 FEB:  -6.568
USER: RMSD 2.480867
USER: SEED 92
USER: STATUS 1 or 2 clusters left
USER: GENES 14
USER: genes 0 Translation |==|  0.57976 0.59551 0.50569
USER: genes 1 Rotation |==|  0.60374 0.48907 0.50352 0.98899
USER: genes 2 Torsion [N]-C--CA-[N] |==|  0.38095
USER: genes 3 Torsion [C]-CA--N-[C] |==|  0.71544
USER: genes 4 Torsion [N]-C--CA-[N] |==|  0.92167
USER: genes 5 Torsion [C]-CA--N-[C] |==|  0.83889
USER: genes 6 Torsion [N]-C--CA-[N] |==|  0.16743
USER: genes 7 Torsion [C]-CA--N-[H1] |==|  0.53093
USER: genes 8 Torsion [C]-N--CA-[CB] |==|  0.42501
USER: genes 9 Torsion [N]-CA--C-[N] |==|  0.33546
USER: genes 10 Torsion [C]-N--CA-[CB] |==|  0.54689
USER: genes 11 Torsion [N]-CA--C-[N] |==|  0.32279
USER: genes 12 Torsion [C]-N--CA-[C] |==|  0.62664
USER: genes 13 Torsion [N]-CA--C-[O] |==|  0.96365
ROOT
ATOM      1  C   ALA B   3      -1.411  20.251   4.175  1.00 25.24 LIG 0.24  C 
ATOM      2 O    ALA B   3      -2.399  20.833   3.721  1.00 26.05 LIG-0.27  OA
ATOM      3  N   ALA B   4      -1.482  19.165   4.931  1.00 24.29 LIG-0.35  N 
ATOM      4 H    ALA B   4      -0.790  18.764   5.248  1.00 24.29 LIG 0.16  HD
ENDROOT
BRANCH 1 5
ATOM      5  CA  ALA B   3       0.011  20.736   3.867  1.00 25.23 LIG 0.17  C 
ATOM      6  CB  ALA B   3       0.391  21.896   4.770  1.00 24.91 LIG 0.04  C 
BRANCH 5 7
ATOM      7  N   ALA B   3       0.114  21.120   2.466  1.00 25.90 LIG-0.35  N 
ATOM      8  C   ALA B   2       0.693  20.332   1.562  1.00 26.37 LIG 0.24  C 
ATOM      9 O    ALA B   2       1.143  19.227   1.835  1.00 26.80 LIG-0.27  OA
ATOM     10 H    ALA B   3      -0.228  21.888   2.283  1.00 25.90 LIG 0.16  HD
BRANCH 8 11
ATOM     11  CA  ALA B   2       0.793  20.881   0.140  1.00 27.29 LIG 0.17  C 
ATOM     12  CB  ALA B   2       2.141  21.591  -0.064  1.00 27.31 LIG 0.04  C 
BRANCH 11 13
ATOM     13  N   ALA B   2      -0.308  21.816  -0.096  1.00 27.95 LIG-0.35  N 
ATOM     14  C   ALA B   1      -1.595  21.476   0.024  1.00 29.40 LIG 0.25  C 
ATOM     15 O    ALA B   1      -1.985  20.318   0.196  1.00 29.69 LIG-0.27  OA
ATOM     16 H    ALA B   2      -0.049  22.604  -0.319  1.00 27.95 LIG 0.16  HD
BRANCH 14 17
ATOM     17  CA  ALA B   1      -2.616  22.607  -0.099  1.00 29.88 LIG 0.27  C 
ATOM     18  CB  ALA B   1      -4.009  22.070   0.168  1.00 30.40 LIG 0.05  C 
BRANCH 17 19
ATOM     19  N   ALA B   1      -2.581  23.323  -1.422  1.00 30.41 LIG-0.07  N 
ATOM     20 H3   ALA B   1      -2.904  22.790  -2.057  1.00 30.41 LIG 0.28  HD
ATOM     21 H2   ALA B   1      -1.742  23.543  -1.619  1.00 30.41 LIG 0.28  HD
ATOM     22 H1   ALA B   1      -3.077  24.061  -1.374  1.00 30.41 LIG 0.28  HD
ENDBRANCH 17 19
ENDBRANCH 14 17
ENDBRANCH 11 13
ENDBRANCH 8 11
ENDBRANCH 5 7
ENDBRANCH 1 5
BRANCH 3 23
ATOM     23  CA  ALA B   4      -2.739  18.543   5.301  1.00 23.83 LIG 0.17  C 
ATOM     24  CB  ALA B   4      -2.534  17.036   5.563  1.00 23.27 LIG 0.04  C 
BRANCH 23 25
ATOM     25  C   ALA B   4      -3.245  19.210   6.559  1.00 23.25 LIG 0.24  C 
ATOM     26  N   ALA B   5      -4.434  19.779   6.445  1.00 23.30 LIG-0.35  N 
ATOM     27 H    ALA B   5      -4.818  19.947   5.694  1.00 23.30 LIG 0.16  HD
ATOM     28 O    ALA B   4      -2.595  19.172   7.613  1.00 21.74 LIG-0.27  OA
BRANCH 26 29
ATOM     29  CA  ALA B   5      -5.204  20.175   7.620  1.00 23.99 LIG 0.17  C 
ATOM     30  CB  ALA B   5      -6.652  20.405   7.237  1.00 22.76 LIG 0.04  C 
BRANCH 29 31
ATOM     31  C   ALA B   5      -5.097  19.071   8.663  1.00 24.51 LIG 0.24  C 
ATOM     32 O    ALA B   5      -5.521  17.940   8.416  1.00 24.66 LIG-0.27  OA
ATOM     33  N   ALA B   6      -4.496  19.380   9.804  1.00 25.65 LIG-0.35  N 
ATOM     34 H    ALA B   6      -4.095  20.128   9.948  1.00 25.65 LIG 0.16  HD
BRANCH 33 35
ATOM     35  CA  ALA B   6      -4.464  18.455  10.934  1.00 26.64 LIG 0.16  C 
ATOM     36  CB  ALA B   6      -3.115  17.723  11.044  1.00 27.39 LIG 0.04  C 
BRANCH 35 37
ATOM     37  C   ALA B   6      -4.794  19.128  12.242  1.00 26.89 LIG 0.22  C 
ATOM     38 O    ALA B   6      -4.807  20.364  12.289  1.00 29.04 LIG-0.29  OA
ENDBRANCH 35 37
ENDBRANCH 33 35
ENDBRANCH 29 31
ENDBRANCH 26 29
ENDBRANCH 23 25
ENDBRANCH 3 23
TORSDOF 12
ENDMDL
MODEL 11
USER: ADFR SOLUTION from run 115
USER: SCORE 11.066544 LL:  -2.329 LR: -10.148 RR:   0.000 FEB:  -6.568
USER: RMSD 3.265821
USER: SEED 114
USER: STATUS no improvement in best in 7 clusters for 5 generations
USER: GENES 14
USER: genes 0 Translation |==|  0.48371 0.58719 0.45075
USER: genes 1 Rotation |==|  0.37473 0.35921 0.84279 0.81142
USER: genes 2 Torsion [N]-C--CA-[N] |==|  0.32825
USER: genes 3 Torsion [C]-CA--N-[C] |==|  0.80358
USER: genes 4 Torsion [N]-C--CA-[N] |==|  0.95097
USER: genes 5 Torsion [C]-CA--N-[C] |==|  0.71262
USER: genes 6 Torsion [N]-C--CA-[N] |==|  0.02097
USER: genes 7 Torsion [C]-CA--N-[H1] |==|  0.57477
USER: genes 8 Torsion [C]-N--CA-[CB] |==|  0.11713
USER: genes 9 Torsion [N]-CA--C-[N] |==|  0.17777
USER: genes 10 Torsion [C]-N--CA-[CB] |==|  0.53928
USER: genes 11 Torsion [N]-CA--C-[N] |==|  0.29877
USER: genes 12 Torsion [C]-N--CA-[C] |==|  0.50768
USER: genes 13 Torsion [N]-CA--C-[O] |==|  0.92536
ROOT
ATOM      1  C   ALA B   3      -2.851  20.126   2.857  1.00 25.24 LIG 0.24  C 
ATOM      2 O    ALA B   3      -2.592  19.147   2.153  1.00 26.05 LIG-0.27  OA
ATOM      3  N   ALA B   4      -3.147  20.045   4.146  1.00 24.29 LIG-0.35  N 
ATOM      4 H    ALA B   4      -3.330  20.731   4.632  1.00 24.29 LIG 0.16  HD
ENDROOT
BRANCH 1 5
ATOM      5  CA  ALA B   3      -2.823  21.548   2.284  1.00 25.23 LIG 0.17  C 
ATOM      6  CB  ALA B   3      -3.852  21.704   1.179  1.00 24.91 LIG 0.04  C 
BRANCH 5 7
ATOM      7  N   ALA B   3      -1.488  21.860   1.791  1.00 25.90 LIG-0.35  N 
ATOM      8  C   ALA B   2      -0.461  22.052   2.617  1.00 26.37 LIG 0.24  C 
ATOM      9 O    ALA B   2      -0.557  21.947   3.833  1.00 26.80 LIG-0.27  OA
ATOM     10 H    ALA B   3      -1.428  21.907   0.934  1.00 25.90 LIG 0.16  HD
BRANCH 8 11
ATOM     11  CA  ALA B   2       0.871  22.436   1.974  1.00 27.29 LIG 0.17  C 
ATOM     12  CB  ALA B   2       1.139  23.938   2.161  1.00 27.31 LIG 0.04  C 
BRANCH 11 13
ATOM     13  N   ALA B   2       0.833  22.105   0.550  1.00 27.95 LIG-0.35  N 
ATOM     14  C   ALA B   1       1.447  21.040   0.029  1.00 29.40 LIG 0.25  C 
ATOM     15 O    ALA B   1       2.224  20.319   0.662  1.00 29.69 LIG-0.27  OA
ATOM     16 H    ALA B   2       0.377  22.662   0.079  1.00 27.95 LIG 0.16  HD
BRANCH 14 17
ATOM     17  CA  ALA B   1       1.178  20.747  -1.448  1.00 29.88 LIG 0.27  C 
ATOM     18  CB  ALA B   1       2.490  20.504  -2.168  1.00 30.40 LIG 0.05  C 
BRANCH 17 19
ATOM     19  N   ALA B   1       0.389  21.818  -2.151  1.00 30.41 LIG-0.07  N 
ATOM     20 H3   ALA B   1       0.944  22.442  -2.458  1.00 30.41 LIG 0.28  HD
ATOM     21 H2   ALA B   1      -0.184  22.187  -1.581  1.00 30.41 LIG 0.28  HD
ATOM     22 H1   ALA B   1      -0.059  21.459  -2.831  1.00 30.41 LIG 0.28  HD
ENDBRANCH 17 19
ENDBRANCH 14 17
ENDBRANCH 11 13
ENDBRANCH 8 11
ENDBRANCH 5 7
ENDBRANCH 1 5
BRANCH 3 23
ATOM     23  CA  ALA B   4      -3.191  18.787   4.868  1.00 23.83 LIG 0.17  C 
ATOM     24  CB  ALA B   4      -2.001  17.893   4.457  1.00 23.27 LIG 0.04  C 
BRANCH 23 25
ATOM     25  C   ALA B   4      -3.110  19.087   6.346  1.00 23.25 LIG 0.24  C 
ATOM     26  N   ALA B   5      -4.131  19.776   6.829  1.00 23.30 LIG-0.35  N 
ATOM     27 H    ALA B   5      -4.699  20.200   6.343  1.00 23.30 LIG 0.16  HD
ATOM     28 O    ALA B   4      -2.170  18.669   7.037  1.00 21.74 LIG-0.27  OA
BRANCH 26 29
ATOM     29  CA  ALA B   5      -4.375  19.870   8.265  1.00 23.99 LIG 0.17  C 
ATOM     30  CB  ALA B   5      -5.770  20.408   8.519  1.00 22.76 LIG 0.04  C 
BRANCH 29 31
ATOM     31  C   ALA B   5      -4.220  18.483   8.873  1.00 24.51 LIG 0.24  C 
ATOM     32 O    ALA B   5      -5.056  17.607   8.643  1.00 24.66 LIG-0.27  OA
ATOM     33  N   ALA B   6      -3.137  18.269   9.609  1.00 25.65 LIG-0.35  N 
ATOM     34 H    ALA B   6      -2.491  18.832   9.685  1.00 25.65 LIG 0.16  HD
BRANCH 33 35
ATOM     35  CA  ALA B   6      -2.951  17.032  10.364  1.00 26.64 LIG 0.16  C 
ATOM     36  CB  ALA B   6      -2.990  15.790   9.457  1.00 27.39 LIG 0.04  C 
BRANCH 35 37
ATOM     37  C   ALA B   6      -1.681  17.038  11.177  1.00 26.89 LIG 0.22  C 
ATOM     38 O    ALA B   6      -0.732  17.732  10.796  1.00 29.04 LIG-0.29  OA
ENDBRANCH 35 37
ENDBRANCH 33 35
ENDBRANCH 29 31
ENDBRANCH 26 29
ENDBRANCH 23 25
ENDBRANCH 3 23
TORSDOF 12
ENDMDL
MODEL 12
USER: ADFR SOLUTION from run 81
USER: SCORE 10.569972 LL:  -2.312 LR: -10.019 RR:   0.000 FEB:  -6.440
USER: RMSD 2.665700
USER: SEED 80
USER: STATUS no improvement in best in 5 clusters for 5 generations
USER: GENES 14
USER: genes 0 Translation |==|  0.58313 0.59405 0.47406
USER: genes 1 Rotation |==|  0.67369 0.59372 0.43312 0.95451
USER: genes 2 Torsion [N]-C--CA-[N] |==|  0.33946
USER: genes 3 Torsion [C]-CA--N-[C] |==|  0.83946
USER: genes 4 Torsion [N]-C--CA-[N] |==|  0.15555
USER: genes 5 Torsion [C]-CA--N-[C] |==|  0.19913
USER: genes 6 Torsion [N]-C--CA-[N] |==|  0.02545
USER: genes 7 Torsion [C]-CA--N-[H1] |==|  0.49915
USER: genes 8 Torsion [C]-N--CA-[CB] |==|  0.47856
USER: genes 9 Torsion [N]-CA--C-[N] |==|  0.44508
USER: genes 10 Torsion [C]-N--CA-[CB] |==|  0.48688
USER: genes 11 Torsion [N]-CA--C-[N] |==|  0.50296
USER: genes 12 Torsion [C]-N--CA-[C] |==|  0.54726
USER: genes 13 Torsion [N]-CA--C-[O] |==|  0.64196
ROOT
ATOM      1  C   ALA B   3      -1.360  20.229   3.417  1.00 25.24 LIG 0.24  C 
ATOM      2 O    ALA B   3      -2.272  21.028   3.647  1.00 26.05 LIG-0.27  OA
ATOM      3  N   ALA B   4      -1.372  18.966   3.818  1.00 24.29 LIG-0.35  N 
ATOM      4 H    ALA B   4      -0.732  18.414   3.657  1.00 24.29 LIG 0.16  HD
ENDROOT
BRANCH 1 5
ATOM      5  CA  ALA B   3      -0.127  20.641   2.604  1.00 25.23 LIG 0.17  C 
ATOM      6  CB  ALA B   3       0.686  21.684   3.351  1.00 24.91 LIG 0.04  C 
BRANCH 5 7
ATOM      7  N   ALA B   3      -0.536  21.146   1.300  1.00 25.90 LIG-0.35  N 
ATOM      8  C   ALA B   2      -1.252  20.407   0.453  1.00 26.37 LIG 0.24  C 
ATOM      9 O    ALA B   2      -1.643  19.280   0.723  1.00 26.80 LIG-0.27  OA
ATOM     10 H    ALA B   3      -0.275  21.949   1.133  1.00 25.90 LIG 0.16  HD
BRANCH 8 11
ATOM     11  CA  ALA B   2      -1.559  21.032  -0.907  1.00 27.29 LIG 0.17  C 
ATOM     12  CB  ALA B   2      -2.328  20.034  -1.789  1.00 27.31 LIG 0.04  C 
BRANCH 11 13
ATOM     13  N   ALA B   2      -0.306  21.416  -1.556  1.00 27.95 LIG-0.35  N 
ATOM     14  C   ALA B   1       0.560  20.531  -2.058  1.00 29.40 LIG 0.25  C 
ATOM     15 O    ALA B   1       0.467  19.311  -1.893  1.00 29.69 LIG-0.27  OA
ATOM     16 H    ALA B   2      -0.179  22.266  -1.585  1.00 27.95 LIG 0.16  HD
BRANCH 14 17
ATOM     17  CA  ALA B   1       1.742  21.099  -2.844  1.00 29.88 LIG 0.27  C 
ATOM     18  CB  ALA B   1       3.026  20.432  -2.391  1.00 30.40 LIG 0.05  C 
BRANCH 17 19
ATOM     19  N   ALA B   1       1.875  22.595  -2.756  1.00 30.41 LIG-0.07  N 
ATOM     20 H3   ALA B   1       1.982  22.834  -1.905  1.00 30.41 LIG 0.28  HD
ATOM     21 H2   ALA B   1       1.141  22.978  -3.081  1.00 30.41 LIG 0.28  HD
ATOM     22 H1   ALA B   1       2.581  22.859  -3.229  1.00 30.41 LIG 0.28  HD
ENDBRANCH 17 19
ENDBRANCH 14 17
ENDBRANCH 11 13
ENDBRANCH 8 11
ENDBRANCH 5 7
ENDBRANCH 1 5
BRANCH 3 23
ATOM     23  CA  ALA B   4      -2.469  18.388   4.570  1.00 23.83 LIG 0.17  C 
ATOM     24  CB  ALA B   4      -2.273  16.864   4.717  1.00 23.27 LIG 0.04  C 
BRANCH 23 25
ATOM     25  C   ALA B   4      -2.493  19.028   5.939  1.00 23.25 LIG 0.24  C 
ATOM     26  N   ALA B   5      -3.644  18.921   6.582  1.00 23.30 LIG-0.35  N 
ATOM     27 H    ALA B   5      -4.385  18.695   6.208  1.00 23.30 LIG 0.16  HD
ATOM     28 O    ALA B   4      -1.483  19.567   6.414  1.00 21.74 LIG-0.27  OA
BRANCH 26 29
ATOM     29  CA  ALA B   5      -3.744  19.187   8.013  1.00 23.99 LIG 0.17  C 
ATOM     30  CB  ALA B   5      -5.192  19.101   8.455  1.00 22.76 LIG 0.04  C 
BRANCH 29 31
ATOM     31  C   ALA B   5      -2.898  18.162   8.755  1.00 24.51 LIG 0.24  C 
ATOM     32 O    ALA B   5      -2.232  17.335   8.129  1.00 24.66 LIG-0.27  OA
ATOM     33  N   ALA B   6      -2.888  18.239  10.079  1.00 25.65 LIG-0.35  N 
ATOM     34 H    ALA B   6      -3.256  18.876  10.525  1.00 25.65 LIG 0.16  HD
BRANCH 33 35
ATOM     35  CA  ALA B   6      -2.238  17.224  10.906  1.00 26.64 LIG 0.16  C 
ATOM     36  CB  ALA B   6      -0.704  17.313  10.828  1.00 27.39 LIG 0.04  C 
BRANCH 35 37
ATOM     37  C   ALA B   6      -2.686  17.277  12.345  1.00 26.89 LIG 0.22  C 
ATOM     38 O    ALA B   6      -1.828  17.317  13.234  1.00 29.04 LIG-0.29  OA
ENDBRANCH 35 37
ENDBRANCH 33 35
ENDBRANCH 29 31
ENDBRANCH 26 29
ENDBRANCH 23 25
ENDBRANCH 3 23
TORSDOF 12
ENDMDL
