MODEL 1
USER: ADFR SOLUTION from run 136
USER: SCORE 15.202430 LL:  -2.392 LR: -15.433 RR:   0.000 FEB: -10.362
USER: RMSD 3.965890
USER: SEED 135
USER: STATUS no improvement in best in 3 clusters for 5 generations
USER: GENES 19
USER: genes 0 Translation |==|  0.51557 0.41177 0.49039
USER: genes 1 Rotation |==|  0.43448 0.49215 0.59198 0.98702
USER: genes 2 Torsion [CB]-CA--N-[C] |==|  0.45655
USER: genes 3 Torsion [N]-C--CA-[N] |==|  0.33351
USER: genes 4 Torsion [C]-CA--N-[C] |==|  0.81066
USER: genes 5 Torsion [N]-C--CA-[N] |==|  0.84346
USER: genes 6 Torsion [C]-CA--N-[H2] |==|  0.02231
USER: genes 7 Torsion [C]-CA--CB-[CG] |==|  0.48293
USER: genes 8 Torsion [CA]-CB--CG-[ND1] |==|  0.88204
USER: genes 9 Torsion [N]-CA--C-[N] |==|  0.48704
USER: genes 10 Torsion [C]-N--CA-[CB] |==|  0.88278
USER: genes 11 Torsion [N]-CA--CB-[CG] |==|  0.70370
USER: genes 12 Torsion [CA]-CB--CG-[CD] |==|  0.59959
USER: genes 13 Torsion [CB]-CG--CD-[CE] |==|  0.64835
USER: genes 14 Torsion [CG]-CD--CE-[NZ] |==|  0.07295
USER: genes 15 Torsion [CD]-CE--NZ-[HZ3] |==|  0.79521
USER: genes 16 Torsion [N]-CA--C-[N] |==|  0.57463
USER: genes 17 Torsion [C]-N--CA-[C] |==|  0.52738
USER: genes 18 Torsion [N]-CA--C-[O] |==|  0.84449
ROOT
ATOM      1  CA  ALA B   3      -3.389  18.441   4.079  1.00 28.39 LIG 0.17  C 
ATOM      2  CB  ALA B   3      -3.262  16.955   3.937  1.00 28.72 LIG 0.04  C 
ENDROOT
BRANCH 1 3
ATOM      3  N   ALA B   3      -2.222  19.066   3.493  1.00 28.60 LIG-0.35  N 
ATOM      4 H    ALA B   3      -1.561  18.533   3.356  1.00 28.60 LIG 0.16  HD
ATOM      5  C   HIS B   2      -2.211  20.356   3.207  1.00 29.32 LIG 0.24  C 
ATOM      6 O    HIS B   2      -3.107  21.145   3.545  1.00 29.97 LIG-0.27  OA
BRANCH 5 7
ATOM      7  CA  HIS B   2      -1.008  20.822   2.433  1.00 29.29 LIG 0.18  C 
BRANCH 7 8
ATOM      8  N   HIS B   2      -1.440  21.395   1.159  1.00 29.97 LIG-0.35  N 
ATOM      9 H    HIS B   2      -1.323  22.244   1.085  1.00 29.97 LIG 0.16  HD
ATOM     10  C   ALA B   1      -1.966  20.626   0.216  1.00 30.05 LIG 0.25  C 
ATOM     11 O    ALA B   1      -2.165  19.428   0.379  1.00 29.42 LIG-0.27  OA
BRANCH 10 12
ATOM     12  CA  ALA B   1      -2.309  21.298  -1.111  1.00 30.09 LIG 0.27  C 
ATOM     13  CB  ALA B   1      -1.032  21.758  -1.781  1.00 30.26 LIG 0.05  C 
BRANCH 12 14
ATOM     14  N   ALA B   1      -3.238  22.456  -0.940  1.00 30.65 LIG-0.07  N 
ATOM     15 H3   ALA B   1      -2.898  23.172  -1.345  1.00 30.65 LIG 0.28  HD
ATOM     16 H2   ALA B   1      -3.341  22.628  -0.073  1.00 30.65 LIG 0.28  HD
ATOM     17 H1   ALA B   1      -4.028  22.260  -1.299  1.00 30.65 LIG 0.28  HD
ENDBRANCH 12 14
ENDBRANCH 10 12
ENDBRANCH 7 8
BRANCH 7 18
ATOM     18  CB  HIS B   2      -0.243  21.836   3.226  1.00 29.38 LIG 0.10  C 
BRANCH 18 19
ATOM     19  CG  HIS B   2       1.033  22.229   2.582  1.00 27.68 LIG 0.06  A 
ATOM     20 ND1  HIS B   2       1.879  21.314   1.989  1.00 26.38 LIG-0.24  NA
ATOM     21  CE1 HIS B   2       2.926  21.950   1.498  1.00 23.03 LIG 0.23  A 
ATOM     22 NE2  HIS B   2       2.784  23.241   1.747  1.00 28.18 LIG-0.25  NA
ATOM     23  CD2 HIS B   2       1.610  23.440   2.427  1.00 26.32 LIG 0.14  A 
ENDBRANCH 18 19
ENDBRANCH 7 18
ENDBRANCH 5 7
ENDBRANCH 1 3
BRANCH 1 24
ATOM     24  C   ALA B   3      -3.522  18.822   5.540  1.00 28.01 LIG 0.24  C 
ATOM     25  N   LYS B   4      -4.619  18.378   6.151  1.00 28.43 LIG-0.35  N 
ATOM     26 H    LYS B   4      -5.203  17.866   5.780  1.00 28.43 LIG 0.16  HD
ATOM     27 O    ALA B   3      -2.629  19.467   6.098  1.00 26.29 LIG-0.27  OA
BRANCH 25 28
ATOM     28  CA  LYS B   4      -4.924  18.742   7.556  1.00 29.37 LIG 0.18  C 
BRANCH 28 29
ATOM     29  CB  LYS B   4      -3.703  18.699   8.487  1.00 28.49 LIG 0.04  C 
BRANCH 29 30
ATOM     30  CG  LYS B   4      -3.601  17.568   9.473  1.00 28.80 LIG 0.00  C 
BRANCH 30 31
ATOM     31  CD  LYS B   4      -2.992  17.957  10.806  1.00 27.51 LIG 0.03  C 
BRANCH 31 32
ATOM     32  CE  LYS B   4      -1.851  17.059  11.143  1.00 28.58 LIG 0.23  C 
BRANCH 32 33
ATOM     33  NZ  LYS B   4      -1.222  16.486   9.920  1.00 30.35 LIG-0.08  N 
ATOM     34 HZ2  LYS B   4      -0.437  16.122  10.131  1.00 30.35 LIG 0.27  HD
ATOM     35 HZ1  LYS B   4      -1.097  17.131   9.320  1.00 30.35 LIG 0.27  HD
ATOM     36 HZ3  LYS B   4      -1.754  15.861   9.576  1.00 30.35 LIG 0.27  HD
ENDBRANCH 32 33
ENDBRANCH 31 32
ENDBRANCH 30 31
ENDBRANCH 29 30
ENDBRANCH 28 29
BRANCH 28 37
ATOM     37  C   LYS B   4      -5.443  20.155   7.557  1.00 30.22 LIG 0.24  C 
ATOM     38 O    LYS B   4      -6.015  20.611   6.554  1.00 31.21 LIG-0.27  OA
ATOM     39  N   ALA B   5      -5.265  20.862   8.666  1.00 31.43 LIG-0.35  N 
ATOM     40 H    ALA B   5      -4.884  20.561   9.375  1.00 31.43 LIG 0.16  HD
BRANCH 39 41
ATOM     41  CA  ALA B   5      -5.716  22.239   8.758  1.00 32.08 LIG 0.16  C 
ATOM     42  CB  ALA B   5      -7.247  22.296   8.716  1.00 32.99 LIG 0.04  C 
BRANCH 41 43
ATOM     43  C   ALA B   5      -5.216  22.941  10.000  1.00 32.46 LIG 0.22  C 
ATOM     44 O    ALA B   5      -5.452  22.456  11.117  1.00 34.27 LIG-0.29  OA
ENDBRANCH 41 43
ENDBRANCH 39 41
ENDBRANCH 28 37
ENDBRANCH 25 28
ENDBRANCH 1 24
TORSDOF 17
ENDMDL
MODEL 2
USER: ADFR SOLUTION from run 174
USER: SCORE 15.477400 LL:  -2.569 LR: -15.016 RR:   0.000 FEB:  -9.945
USER: RMSD 1.726770
USER: SEED 173
USER: STATUS no improvement in best in 1 clusters for 5 generations
USER: GENES 19
USER: genes 0 Translation |==|  0.51139 0.42877 0.49585
USER: genes 1 Rotation |==|  0.36958 0.46193 0.59157 0.97239
USER: genes 2 Torsion [CB]-CA--N-[C] |==|  0.47225
USER: genes 3 Torsion [N]-C--CA-[N] |==|  0.35457
USER: genes 4 Torsion [C]-CA--N-[C] |==|  0.68920
USER: genes 5 Torsion [N]-C--CA-[N] |==|  0.88912
USER: genes 6 Torsion [C]-CA--N-[H2] |==|  0.72132
USER: genes 7 Torsion [C]-CA--CB-[CG] |==|  0.51046
USER: genes 8 Torsion [CA]-CB--CG-[ND1] |==|  0.88069
USER: genes 9 Torsion [N]-CA--C-[N] |==|  0.37778
USER: genes 10 Torsion [C]-N--CA-[CB] |==|  0.45691
USER: genes 11 Torsion [N]-CA--CB-[CG] |==|  0.56094
USER: genes 12 Torsion [CA]-CB--CG-[CD] |==|  0.48361
USER: genes 13 Torsion [CB]-CG--CD-[CE] |==|  0.06723
USER: genes 14 Torsion [CG]-CD--CE-[NZ] |==|  0.74719
USER: genes 15 Torsion [CD]-CE--NZ-[HZ3] |==|  0.13409
USER: genes 16 Torsion [N]-CA--C-[N] |==|  0.36536
USER: genes 17 Torsion [C]-N--CA-[C] |==|  0.61247
USER: genes 18 Torsion [N]-CA--C-[O] |==|  0.98145
ROOT
ATOM      1  CA  ALA B   3      -3.477  18.709   4.202  1.00 28.39 LIG 0.17  C 
ATOM      2  CB  ALA B   3      -3.327  17.237   4.439  1.00 28.72 LIG 0.04  C 
ENDROOT
BRANCH 1 3
ATOM      3  N   ALA B   3      -2.229  19.226   3.682  1.00 28.60 LIG-0.35  N 
ATOM      4 H    ALA B   3      -1.570  18.674   3.715  1.00 28.60 LIG 0.16  HD
ATOM      5  C   HIS B   2      -2.147  20.456   3.204  1.00 29.32 LIG 0.24  C 
ATOM      6 O    HIS B   2      -3.058  21.294   3.298  1.00 29.97 LIG-0.27  OA
BRANCH 5 7
ATOM      7  CA  HIS B   2      -0.844  20.786   2.529  1.00 29.29 LIG 0.18  C 
BRANCH 7 8
ATOM      8  N   HIS B   2      -1.108  21.327   1.196  1.00 29.97 LIG-0.35  N 
ATOM      9 H    HIS B   2      -1.486  22.099   1.187  1.00 29.97 LIG 0.16  HD
ATOM     10  C   ALA B   1      -0.773  20.643   0.111  1.00 30.05 LIG 0.25  C 
ATOM     11 O    ALA B   1      -0.284  19.521   0.165  1.00 29.42 LIG-0.27  OA
BRANCH 10 12
ATOM     12  CA  ALA B   1      -1.012  21.323  -1.235  1.00 30.09 LIG 0.27  C 
ATOM     13  CB  ALA B   1       0.142  22.257  -1.532  1.00 30.26 LIG 0.05  C 
BRANCH 12 14
ATOM     14  N   ALA B   1      -2.299  22.081  -1.270  1.00 30.65 LIG-0.07  N 
ATOM     15 H3   ALA B   1      -2.569  22.247  -0.438  1.00 30.65 LIG 0.28  HD
ATOM     16 H2   ALA B   1      -2.917  21.598  -1.691  1.00 30.65 LIG 0.28  HD
ATOM     17 H1   ALA B   1      -2.180  22.850  -1.701  1.00 30.65 LIG 0.28  HD
ENDBRANCH 12 14
ENDBRANCH 10 12
ENDBRANCH 7 8
BRANCH 7 18
ATOM     18  CB  HIS B   2      -0.073  21.775   3.347  1.00 29.38 LIG 0.10  C 
BRANCH 18 19
ATOM     19  CG  HIS B   2       1.183  22.211   2.692  1.00 27.68 LIG 0.06  A 
ATOM     20 ND1  HIS B   2       2.031  21.331   2.051  1.00 26.38 LIG-0.24  NA
ATOM     21  CE1 HIS B   2       3.059  22.001   1.563  1.00 23.03 LIG 0.23  A 
ATOM     22 NE2  HIS B   2       2.902  23.280   1.860  1.00 28.18 LIG-0.25  NA
ATOM     23  CD2 HIS B   2       1.739  23.435   2.569  1.00 26.32 LIG 0.14  A 
ENDBRANCH 18 19
ENDBRANCH 7 18
ENDBRANCH 5 7
ENDBRANCH 1 3
BRANCH 1 24
ATOM     24  C   ALA B   3      -3.853  19.415   5.489  1.00 28.01 LIG 0.24  C 
ATOM     25  N   LYS B   4      -5.131  19.775   5.595  1.00 28.43 LIG-0.35  N 
ATOM     26 H    LYS B   4      -5.733  19.587   5.010  1.00 28.43 LIG 0.16  HD
ATOM     27 O    ALA B   3      -3.007  19.589   6.373  1.00 26.29 LIG-0.27  OA
BRANCH 25 28
ATOM     28  CA  LYS B   4      -5.624  20.547   6.760  1.00 29.37 LIG 0.18  C 
BRANCH 28 29
ATOM     29  CB  LYS B   4      -7.003  21.189   6.541  1.00 28.49 LIG 0.04  C 
BRANCH 29 30
ATOM     30  CG  LYS B   4      -7.382  22.366   7.397  1.00 28.80 LIG 0.00  C 
BRANCH 30 31
ATOM     31  CD  LYS B   4      -8.697  23.016   7.013  1.00 27.51 LIG 0.03  C 
BRANCH 31 32
ATOM     32  CE  LYS B   4      -9.574  22.044   6.300  1.00 28.58 LIG 0.23  C 
BRANCH 32 33
ATOM     33  NZ  LYS B   4      -9.367  22.096   4.825  1.00 30.35 LIG-0.08  N 
ATOM     34 HZ2  LYS B   4      -9.712  22.851   4.502  1.00 30.35 LIG 0.27  HD
ATOM     35 HZ1  LYS B   4      -9.769  21.400   4.443  1.00 30.35 LIG 0.27  HD
ATOM     36 HZ3  LYS B   4      -8.496  22.069   4.646  1.00 30.35 LIG 0.27  HD
ENDBRANCH 32 33
ENDBRANCH 31 32
ENDBRANCH 30 31
ENDBRANCH 29 30
ENDBRANCH 28 29
BRANCH 28 37
ATOM     37  C   LYS B   4      -5.748  19.594   7.919  1.00 30.22 LIG 0.24  C 
ATOM     38 O    LYS B   4      -6.321  18.503   7.770  1.00 31.21 LIG-0.27  OA
ATOM     39  N   ALA B   5      -5.217  19.975   9.073  1.00 31.43 LIG-0.35  N 
ATOM     40 H    ALA B   5      -4.804  20.720   9.193  1.00 31.43 LIG 0.16  HD
BRANCH 39 41
ATOM     41  CA  ALA B   5      -5.300  19.131  10.252  1.00 32.08 LIG 0.16  C 
ATOM     42  CB  ALA B   5      -4.004  18.331  10.420  1.00 32.99 LIG 0.04  C 
BRANCH 41 43
ATOM     43  C   ALA B   5      -5.582  19.912  11.516  1.00 32.46 LIG 0.22  C 
ATOM     44 O    ALA B   5      -5.591  21.152  11.484  1.00 34.27 LIG-0.29  OA
ENDBRANCH 41 43
ENDBRANCH 39 41
ENDBRANCH 28 37
ENDBRANCH 25 28
ENDBRANCH 1 24
TORSDOF 17
ENDMDL
MODEL 3
USER: ADFR SOLUTION from run 112
USER: SCORE 14.613306 LL:  -2.477 LR: -14.201 RR:   0.000 FEB:  -9.130
USER: RMSD 1.890105
USER: SEED 111
USER: STATUS no improvement in best in 4 clusters for 5 generations
USER: GENES 19
USER: genes 0 Translation |==|  0.51558 0.50298 0.47262
USER: genes 1 Rotation |==|  0.51089 0.52099 0.46006 0.99784
USER: genes 2 Torsion [CB]-CA--N-[C] |==|  0.27183
USER: genes 3 Torsion [N]-C--CA-[N] |==|  0.54285
USER: genes 4 Torsion [C]-CA--N-[C] |==|  0.58605
USER: genes 5 Torsion [N]-C--CA-[N] |==|  0.18053
USER: genes 6 Torsion [C]-CA--N-[H2] |==|  0.86061
USER: genes 7 Torsion [C]-CA--CB-[CG] |==|  0.66838
USER: genes 8 Torsion [CA]-CB--CG-[ND1] |==|  0.71526
USER: genes 9 Torsion [N]-CA--C-[N] |==|  0.48507
USER: genes 10 Torsion [C]-N--CA-[CB] |==|  0.51127
USER: genes 11 Torsion [N]-CA--CB-[CG] |==|  0.83333
USER: genes 12 Torsion [CA]-CB--CG-[CD] |==|  0.26739
USER: genes 13 Torsion [CB]-CG--CD-[CE] |==|  0.49399
USER: genes 14 Torsion [CG]-CD--CE-[NZ] |==|  0.39860
USER: genes 15 Torsion [CD]-CE--NZ-[HZ3] |==|  0.22564
USER: genes 16 Torsion [N]-CA--C-[N] |==|  0.46260
USER: genes 17 Torsion [C]-N--CA-[C] |==|  0.77999
USER: genes 18 Torsion [N]-CA--C-[O] |==|  0.96999
ROOT
ATOM      1  CA  ALA B   3      -3.389  19.878   3.679  1.00 28.39 LIG 0.17  C 
ATOM      2  CB  ALA B   3      -4.058  18.645   3.150  1.00 28.72 LIG 0.04  C 
ENDROOT
BRANCH 1 3
ATOM      3  N   ALA B   3      -2.078  19.991   3.076  1.00 28.60 LIG-0.35  N 
ATOM      4 H    ALA B   3      -1.468  19.516   3.452  1.00 28.60 LIG 0.16  HD
ATOM      5  C   HIS B   2      -1.875  20.773   2.030  1.00 29.32 LIG 0.24  C 
ATOM      6 O    HIS B   2      -2.719  21.567   1.588  1.00 29.97 LIG-0.27  OA
BRANCH 5 7
ATOM      7  CA  HIS B   2      -0.516  20.644   1.398  1.00 29.29 LIG 0.18  C 
BRANCH 7 8
ATOM      8  N   HIS B   2      -0.277  21.784   0.514  1.00 29.97 LIG-0.35  N 
ATOM      9 H    HIS B   2      -0.659  22.515   0.757  1.00 29.97 LIG 0.16  HD
ATOM     10  C   ALA B   1       0.477  21.654  -0.568  1.00 30.05 LIG 0.25  C 
ATOM     11 O    ALA B   1       0.961  20.581  -0.908  1.00 29.42 LIG-0.27  OA
BRANCH 10 12
ATOM     12  CA  ALA B   1       0.737  22.918  -1.383  1.00 30.09 LIG 0.27  C 
ATOM     13  CB  ALA B   1       1.460  22.546  -2.661  1.00 30.26 LIG 0.05  C 
BRANCH 12 14
ATOM     14  N   ALA B   1       1.534  23.930  -0.627  1.00 30.65 LIG-0.07  N 
ATOM     15 H3   ALA B   1       2.369  23.637  -0.526  1.00 30.65 LIG 0.28  HD
ATOM     16 H2   ALA B   1       1.167  24.059   0.174  1.00 30.65 LIG 0.28  HD
ATOM     17 H1   ALA B   1       1.542  24.698  -1.076  1.00 30.65 LIG 0.28  HD
ENDBRANCH 12 14
ENDBRANCH 10 12
ENDBRANCH 7 8
BRANCH 7 18
ATOM     18  CB  HIS B   2       0.543  20.575   2.455  1.00 29.38 LIG 0.10  C 
BRANCH 18 19
ATOM     19  CG  HIS B   2       1.523  21.683   2.363  1.00 27.68 LIG 0.06  A 
ATOM     20 ND1  HIS B   2       2.784  21.518   1.828  1.00 26.38 LIG-0.24  NA
ATOM     21  CE1 HIS B   2       3.427  22.670   1.874  1.00 23.03 LIG 0.23  A 
ATOM     22 NE2  HIS B   2       2.625  23.573   2.413  1.00 28.18 LIG-0.25  NA
ATOM     23  CD2 HIS B   2       1.431  22.979   2.731  1.00 26.32 LIG 0.14  A 
ENDBRANCH 18 19
ENDBRANCH 7 18
ENDBRANCH 5 7
ENDBRANCH 1 3
BRANCH 1 24
ATOM     24  C   ALA B   3      -3.278  19.811   5.189  1.00 28.01 LIG 0.24  C 
ATOM     25  N   LYS B   4      -4.434  19.818   5.850  1.00 28.43 LIG-0.35  N 
ATOM     26 H    LYS B   4      -5.206  19.809   5.470  1.00 28.43 LIG 0.16  HD
ATOM     27 O    ALA B   3      -2.170  19.716   5.728  1.00 26.29 LIG-0.27  OA
BRANCH 25 28
ATOM     28  CA  LYS B   4      -4.478  19.842   7.333  1.00 29.37 LIG 0.18  C 
BRANCH 28 29
ATOM     29  CB  LYS B   4      -5.898  19.747   7.913  1.00 28.49 LIG 0.04  C 
BRANCH 29 30
ATOM     30  CG  LYS B   4      -6.887  20.819   7.546  1.00 28.80 LIG 0.00  C 
BRANCH 30 31
ATOM     31  CD  LYS B   4      -7.797  20.455   6.389  1.00 27.51 LIG 0.03  C 
BRANCH 31 32
ATOM     32  CE  LYS B   4      -8.776  21.548   6.127  1.00 28.58 LIG 0.23  C 
BRANCH 32 33
ATOM     33  NZ  LYS B   4      -9.046  21.707   4.670  1.00 30.35 LIG-0.08  N 
ATOM     34 HZ2  LYS B   4      -8.290  21.595   4.214  1.00 30.35 LIG 0.27  HD
ATOM     35 HZ1  LYS B   4      -9.368  22.521   4.514  1.00 30.35 LIG 0.27  HD
ATOM     36 HZ3  LYS B   4      -9.641  21.098   4.410  1.00 30.35 LIG 0.27  HD
ENDBRANCH 32 33
ENDBRANCH 31 32
ENDBRANCH 30 31
ENDBRANCH 29 30
ENDBRANCH 28 29
BRANCH 28 37
ATOM     37  C   LYS B   4      -3.706  18.649   7.830  1.00 30.22 LIG 0.24  C 
ATOM     38 O    LYS B   4      -3.387  17.741   7.047  1.00 31.21 LIG-0.27  OA
ATOM     39  N   ALA B   5      -3.390  18.630   9.119  1.00 31.43 LIG-0.35  N 
ATOM     40 H    ALA B   5      -3.589  19.255   9.675  1.00 31.43 LIG 0.16  HD
BRANCH 39 41
ATOM     41  CA  ALA B   5      -2.661  17.515   9.696  1.00 32.08 LIG 0.16  C 
ATOM     42  CB  ALA B   5      -1.961  17.954  10.986  1.00 32.99 LIG 0.04  C 
BRANCH 41 43
ATOM     43  C   ALA B   5      -3.542  16.319   9.978  1.00 32.46 LIG 0.22  C 
ATOM     44 O    ALA B   5      -4.775  16.433   9.905  1.00 34.27 LIG-0.29  OA
ENDBRANCH 41 43
ENDBRANCH 39 41
ENDBRANCH 28 37
ENDBRANCH 25 28
ENDBRANCH 1 24
TORSDOF 17
ENDMDL
MODEL 4
USER: ADFR SOLUTION from run 121
USER: SCORE 14.339481 LL:  -2.685 LR: -14.174 RR:   0.000 FEB:  -9.103
USER: RMSD 1.920415
USER: SEED 120
USER: STATUS no improvement in best in 2 clusters for 5 generations
USER: GENES 19
USER: genes 0 Translation |==|  0.49673 0.46322 0.50473
USER: genes 1 Rotation |==|  0.48390 0.49536 0.51754 0.99941
USER: genes 2 Torsion [CB]-CA--N-[C] |==|  0.35931
USER: genes 3 Torsion [N]-C--CA-[N] |==|  0.37556
USER: genes 4 Torsion [C]-CA--N-[C] |==|  0.65631
USER: genes 5 Torsion [N]-C--CA-[N] |==|  0.89894
USER: genes 6 Torsion [C]-CA--N-[H2] |==|  0.68654
USER: genes 7 Torsion [C]-CA--CB-[CG] |==|  0.53380
USER: genes 8 Torsion [CA]-CB--CG-[ND1] |==|  0.84799
USER: genes 9 Torsion [N]-CA--C-[N] |==|  0.36324
USER: genes 10 Torsion [C]-N--CA-[CB] |==|  0.52831
USER: genes 11 Torsion [N]-CA--CB-[CG] |==|  0.65638
USER: genes 12 Torsion [CA]-CB--CG-[CD] |==|  0.81115
USER: genes 13 Torsion [CB]-CG--CD-[CE] |==|  0.90943
USER: genes 14 Torsion [CG]-CD--CE-[NZ] |==|  0.37141
USER: genes 15 Torsion [CD]-CE--NZ-[HZ3] |==|  0.07790
USER: genes 16 Torsion [N]-CA--C-[N] |==|  0.28336
USER: genes 17 Torsion [C]-N--CA-[C] |==|  0.49074
USER: genes 18 Torsion [N]-CA--C-[O] |==|  0.13896
ROOT
ATOM      1  CA  ALA B   3      -3.785  19.252   4.401  1.00 28.39 LIG 0.17  C 
ATOM      2  CB  ALA B   3      -4.097  17.852   3.965  1.00 28.72 LIG 0.04  C 
ENDROOT
BRANCH 1 3
ATOM      3  N   ALA B   3      -2.474  19.612   3.904  1.00 28.60 LIG-0.35  N 
ATOM      4 H    ALA B   3      -1.855  19.041   4.076  1.00 28.60 LIG 0.16  HD
ATOM      5  C   HIS B   2      -2.284  20.739   3.240  1.00 29.32 LIG 0.24  C 
ATOM      6 O    HIS B   2      -3.145  21.626   3.126  1.00 29.97 LIG-0.27  OA
BRANCH 5 7
ATOM      7  CA  HIS B   2      -0.920  20.888   2.623  1.00 29.29 LIG 0.18  C 
BRANCH 7 8
ATOM      8  N   HIS B   2      -1.054  21.387   1.255  1.00 29.97 LIG-0.35  N 
ATOM      9 H    HIS B   2      -1.486  22.127   1.181  1.00 29.97 LIG 0.16  HD
ATOM     10  C   ALA B   1      -0.534  20.715   0.237  1.00 30.05 LIG 0.25  C 
ATOM     11 O    ALA B   1       0.028  19.636   0.379  1.00 29.42 LIG-0.27  OA
BRANCH 10 12
ATOM     12  CA  ALA B   1      -0.653  21.355  -1.144  1.00 30.09 LIG 0.27  C 
ATOM     13  CB  ALA B   1       0.505  22.308  -1.351  1.00 30.26 LIG 0.05  C 
BRANCH 12 14
ATOM     14  N   ALA B   1      -1.946  22.081  -1.326  1.00 30.65 LIG-0.07  N 
ATOM     15 H3   ALA B   1      -2.387  22.102  -0.553  1.00 30.65 LIG 0.28  HD
ATOM     16 H2   ALA B   1      -2.438  21.661  -1.937  1.00 30.65 LIG 0.28  HD
ATOM     17 H1   ALA B   1      -1.784  22.913  -1.597  1.00 30.65 LIG 0.28  HD
ENDBRANCH 12 14
ENDBRANCH 10 12
ENDBRANCH 7 8
BRANCH 7 18
ATOM     18  CB  HIS B   2      -0.082  21.824   3.438  1.00 29.38 LIG 0.10  C 
BRANCH 18 19
ATOM     19  CG  HIS B   2       1.160  22.239   2.744  1.00 27.68 LIG 0.06  A 
ATOM     20 ND1  HIS B   2       2.071  21.331   2.245  1.00 26.38 LIG-0.24  NA
ATOM     21  CE1 HIS B   2       3.068  21.987   1.680  1.00 23.03 LIG 0.23  A 
ATOM     22 NE2  HIS B   2       2.831  23.283   1.790  1.00 28.18 LIG-0.25  NA
ATOM     23  CD2 HIS B   2       1.646  23.466   2.455  1.00 26.32 LIG 0.14  A 
ENDBRANCH 18 19
ENDBRANCH 7 18
ENDBRANCH 5 7
ENDBRANCH 1 3
BRANCH 1 24
ATOM     24  C   ALA B   3      -3.829  19.354   5.913  1.00 28.01 LIG 0.24  C 
ATOM     25  N   LYS B   4      -4.860  20.033   6.412  1.00 28.43 LIG-0.35  N 
ATOM     26 H    LYS B   4      -5.499  20.357   5.936  1.00 28.43 LIG 0.16  HD
ATOM     27 O    ALA B   3      -2.966  18.796   6.600  1.00 26.29 LIG-0.27  OA
BRANCH 25 28
ATOM     28  CA  LYS B   4      -4.988  20.287   7.868  1.00 29.37 LIG 0.18  C 
BRANCH 28 29
ATOM     29  CB  LYS B   4      -6.352  20.862   8.280  1.00 28.49 LIG 0.04  C 
BRANCH 29 30
ATOM     30  CG  LYS B   4      -6.375  22.167   9.029  1.00 28.80 LIG 0.00  C 
BRANCH 30 31
ATOM     31  CD  LYS B   4      -5.799  22.090  10.429  1.00 27.51 LIG 0.03  C 
BRANCH 31 32
ATOM     32  CE  LYS B   4      -6.061  20.751  11.031  1.00 28.58 LIG 0.23  C 
BRANCH 32 33
ATOM     33  NZ  LYS B   4      -4.841  20.192  11.678  1.00 30.35 LIG-0.08  N 
ATOM     34 HZ2  LYS B   4      -4.397  19.690  11.092  1.00 30.35 LIG 0.27  HD
ATOM     35 HZ1  LYS B   4      -5.077  19.694  12.377  1.00 30.35 LIG 0.27  HD
ATOM     36 HZ3  LYS B   4      -4.318  20.858  11.953  1.00 30.35 LIG 0.27  HD
ENDBRANCH 32 33
ENDBRANCH 31 32
ENDBRANCH 30 31
ENDBRANCH 29 30
ENDBRANCH 28 29
BRANCH 28 37
ATOM     37  C   LYS B   4      -4.821  18.969   8.576  1.00 30.22 LIG 0.24  C 
ATOM     38 O    LYS B   4      -5.755  18.153   8.605  1.00 31.21 LIG-0.27  OA
ATOM     39  N   ALA B   5      -3.645  18.735   9.145  1.00 31.43 LIG-0.35  N 
ATOM     40 H    ALA B   5      -2.981  19.280   9.124  1.00 31.43 LIG 0.16  HD
BRANCH 39 41
ATOM     41  CA  ALA B   5      -3.393  17.499   9.865  1.00 32.08 LIG 0.16  C 
ATOM     42  CB  ALA B   5      -3.717  16.295   8.975  1.00 32.99 LIG 0.04  C 
BRANCH 41 43
ATOM     43  C   ALA B   5      -1.971  17.390  10.369  1.00 32.46 LIG 0.22  C 
ATOM     44 O    ALA B   5      -1.471  18.331  11.005  1.00 34.27 LIG-0.29  OA
ENDBRANCH 41 43
ENDBRANCH 39 41
ENDBRANCH 28 37
ENDBRANCH 25 28
ENDBRANCH 1 24
TORSDOF 17
ENDMDL
