MODEL 1
USER: ADFR SOLUTION from run 58
USER: SCORE 14.266801 LL:  -2.936 LR: -13.230 RR:   0.000 FEB:  -8.457
USER: RMSD 2.649543
USER: SEED 57
USER: STATUS no improvement in best in 3 clusters for 5 generations
USER: GENES 18
USER: genes 0 Translation |==|  0.48573 0.50975 0.48326
USER: genes 1 Rotation |==|  0.59436 0.59662 0.45458 0.97927
USER: genes 2 Torsion [N]-C--CA-[N] |==|  0.47689
USER: genes 3 Torsion [C]-CA--N-[C] |==|  0.80492
USER: genes 4 Torsion [N]-C--CA-[N] |==|  0.88840
USER: genes 5 Torsion [C]-CA--CB-[OG] |==|  0.88790
USER: genes 6 Torsion [CA]-CB--OG-[HG] |==|  0.79533
USER: genes 7 Torsion [C]-CA--N-[H1] |==|  0.12210
USER: genes 8 Torsion [C]-CA--CB-[CG] |==|  0.53503
USER: genes 9 Torsion [CA]-CB--CG-[CD1] |==|  0.81930
USER: genes 10 Torsion [C]-N--CA-[CB] |==|  0.39610
USER: genes 11 Torsion [N]-CA--C-[N] |==|  0.31341
USER: genes 12 Torsion [C]-N--CA-[C] |==|  0.78614
USER: genes 13 Torsion [N]-CA--C-[N] |==|  0.39627
USER: genes 14 Torsion [C]-N--CA-[C] |==|  0.59422
USER: genes 15 Torsion [N]-CA--C-[O] |==|  0.01196
USER: genes 16 Torsion [N]-CA--CB-[CG] |==|  0.58716
USER: genes 17 Torsion [CA]-CB--CG-[OD1] |==|  0.83888
ROOT
ATOM      1  C   PHE B   2      -2.630  19.876   4.199  1.00 26.65 LIG 0.24  C 
ATOM      2 O    PHE B   2      -3.650  20.503   4.193  1.00 26.69 LIG-0.27  OA
ATOM      3  N   ALA B   3      -2.377  18.865   4.997  1.00 26.24 LIG-0.35  N 
ATOM      4 H    ALA B   3      -1.626  18.451   5.045  1.00 26.24 LIG 0.16  HD
ENDROOT
BRANCH 1 5
ATOM      5  CA  PHE B   2      -1.499  20.190   3.285  1.00 26.41 LIG 0.18  C 
BRANCH 5 6
ATOM      6  N   PHE B   2      -1.846  21.158   2.297  1.00 26.57 LIG-0.35  N 
ATOM      7  C   SER B   1      -2.680  20.821   1.336  1.00 27.36 LIG 0.25  C 
ATOM      8 O    SER B   1      -3.159  19.724   1.212  1.00 27.79 LIG-0.27  OA
ATOM      9 H    PHE B   2      -1.480  21.931   2.389  1.00 26.57 LIG 0.16  HD
BRANCH 7 10
ATOM     10  CA  SER B   1      -2.984  21.850   0.306  1.00 27.82 LIG 0.30  C 
BRANCH 10 11
ATOM     11  CB  SER B   1      -1.931  21.981  -0.766  1.00 27.59 LIG 0.21  C 
BRANCH 11 12
ATOM     12 OG   SER B   1      -0.640  21.890  -0.207  1.00 28.50 LIG-0.40  OA
ATOM     13 HG   SER B   1      -0.464  22.599   0.208  1.00 28.50 LIG 0.21  HD
ENDBRANCH 11 12
ENDBRANCH 10 11
BRANCH 10 14
ATOM     14  N   SER B   1      -3.102  23.076   1.046  1.00 28.84 LIG-0.06  N 
ATOM     15 H3   SER B   1      -3.885  23.094   1.470  1.00 28.84 LIG 0.28  HD
ATOM     16 H2   SER B   1      -3.052  23.767   0.487  1.00 28.84 LIG 0.28  HD
ATOM     17 H1   SER B   1      -2.442  23.128   1.640  1.00 28.84 LIG 0.28  HD
ENDBRANCH 10 14
ENDBRANCH 7 10
ENDBRANCH 5 6
BRANCH 5 18
ATOM     18  CB  PHE B   2      -0.342  20.622   4.109  1.00 26.01 LIG 0.07  C 
BRANCH 18 19
ATOM     19  CG  PHE B   2       0.704  21.220   3.336  1.00 24.17 LIG-0.06  A 
ATOM     20  CD1 PHE B   2       1.391  20.480   2.421  1.00 21.37 LIG 0.01  A 
ATOM     21  CE1 PHE B   2       2.318  21.021   1.746  1.00 18.48 LIG 0.00  A 
ATOM     22  CZ  PHE B   2       2.613  22.276   1.914  1.00 20.70 LIG 0.00  A 
ATOM     23  CE2 PHE B   2       1.963  23.035   2.726  1.00 22.44 LIG 0.00  A 
ATOM     24  CD2 PHE B   2       1.001  22.524   3.467  1.00 23.60 LIG 0.01  A 
ENDBRANCH 18 19
ENDBRANCH 5 18
ENDBRANCH 1 5
BRANCH 3 25
ATOM     25  CA  ALA B   3      -3.387  18.387   5.862  1.00 26.83 LIG 0.17  C 
ATOM     26  CB  ALA B   3      -3.316  16.888   5.967  1.00 26.24 LIG 0.04  C 
BRANCH 25 27
ATOM     27  C   ALA B   3      -3.195  19.018   7.219  1.00 26.95 LIG 0.24  C 
ATOM     28  N   ASN B   4      -4.139  19.855   7.583  1.00 27.94 LIG-0.35  N 
ATOM     29 H    ASN B   4      -4.732  20.189   7.056  1.00 27.94 LIG 0.16  HD
ATOM     30 O    ALA B   3      -2.265  18.753   7.875  1.00 26.45 LIG-0.27  OA
BRANCH 28 31
ATOM     31  CA  ASN B   4      -4.227  20.274   8.954  1.00 28.42 LIG 0.18  C 
BRANCH 31 32
ATOM     32  C   ASN B   4      -4.848  19.155   9.754  1.00 28.91 LIG 0.24  C 
ATOM     33 O    ASN B   4      -5.715  18.466   9.293  1.00 29.45 LIG-0.27  OA
ATOM     34  N   GLY B   5      -4.386  18.956  10.962  1.00 28.92 LIG-0.35  N 
ATOM     35 H    GLY B   5      -3.728  19.386  11.312  1.00 28.92 LIG 0.16  HD
BRANCH 34 36
ATOM     36  CA  GLY B   5      -4.977  17.971  11.798  1.00 29.35 LIG 0.21  C 
BRANCH 36 37
ATOM     37  C   GLY B   5      -4.997  18.292  13.247  1.00 28.99 LIG 0.21  C 
ATOM     38 O    GLY B   5      -4.601  19.355  13.597  1.00 30.45 LIG-0.29  OA
ENDBRANCH 36 37
ENDBRANCH 34 36
ENDBRANCH 31 32
BRANCH 31 39
ATOM     39  CB  ASN B   4      -5.067  21.543   9.086  1.00 28.79 LIG 0.14  C 
BRANCH 39 40
ATOM     40  CG  ASN B   4      -4.624  22.407  10.211  1.00 30.59 LIG 0.22  C 
ATOM     41  ND2 ASN B   4      -4.221  23.627   9.921  1.00 33.19 LIG-0.37  N 
ATOM     42 22HD ASN B   4      -4.250  23.908   9.109  1.00 33.19 LIG 0.16  HD
ATOM     43 21HD ASN B   4      -3.928  24.143  10.544  1.00 33.19 LIG 0.16  HD
ATOM     44 OD1  ASN B   4      -4.602  21.972  11.328  1.00 34.60 LIG-0.27  OA
ENDBRANCH 39 40
ENDBRANCH 31 39
ENDBRANCH 28 31
ENDBRANCH 25 27
ENDBRANCH 3 25
TORSDOF 16
ENDMDL
MODEL 2
USER: ADFR SOLUTION from run 171
USER: SCORE 14.264659 LL:  -2.638 LR: -13.142 RR:   0.000 FEB:  -8.369
USER: RMSD 3.975073
USER: SEED 170
USER: STATUS no improvement in best in 4 clusters for 5 generations
USER: GENES 18
USER: genes 0 Translation |==|  0.51809 0.52248 0.48821
USER: genes 1 Rotation |==|  0.76623 0.79018 0.19606 0.55033
USER: genes 2 Torsion [N]-C--CA-[N] |==|  0.64287
USER: genes 3 Torsion [C]-CA--N-[C] |==|  0.73521
USER: genes 4 Torsion [N]-C--CA-[N] |==|  0.36318
USER: genes 5 Torsion [C]-CA--CB-[OG] |==|  0.43629
USER: genes 6 Torsion [CA]-CB--OG-[HG] |==|  0.16651
USER: genes 7 Torsion [C]-CA--N-[H1] |==|  0.66975
USER: genes 8 Torsion [C]-CA--CB-[CG] |==|  0.49793
USER: genes 9 Torsion [CA]-CB--CG-[CD1] |==|  0.82551
USER: genes 10 Torsion [C]-N--CA-[CB] |==|  0.83313
USER: genes 11 Torsion [N]-CA--C-[N] |==|  0.18461
USER: genes 12 Torsion [C]-N--CA-[C] |==|  0.81735
USER: genes 13 Torsion [N]-CA--C-[N] |==|  0.40739
USER: genes 14 Torsion [C]-N--CA-[C] |==|  0.57226
USER: genes 15 Torsion [N]-CA--C-[O] |==|  0.01178
USER: genes 16 Torsion [N]-CA--CB-[CG] |==|  0.59951
USER: genes 17 Torsion [CA]-CB--CG-[OD1] |==|  0.43141
ROOT
ATOM      1  C   PHE B   2      -1.999  20.067   4.314  1.00 26.65 LIG 0.24  C 
ATOM      2 O    PHE B   2      -1.039  19.965   5.022  1.00 26.69 LIG-0.27  OA
ATOM      3  N   ALA B   3      -3.066  19.306   4.384  1.00 26.24 LIG-0.35  N 
ATOM      4 H    ALA B   3      -3.732  19.338   3.841  1.00 26.24 LIG 0.16  HD
ENDROOT
BRANCH 1 5
ATOM      5  CA  PHE B   2      -2.087  21.089   3.237  1.00 26.41 LIG 0.18  C 
BRANCH 5 6
ATOM      6  N   PHE B   2      -0.946  21.082   2.382  1.00 26.57 LIG-0.35  N 
ATOM      7  C   SER B   1       0.039  21.922   2.623  1.00 27.36 LIG 0.25  C 
ATOM      8 O    SER B   1       0.034  22.729   3.515  1.00 27.79 LIG-0.27  OA
ATOM      9 H    PHE B   2      -0.966  20.513   1.737  1.00 26.57 LIG 0.16  HD
BRANCH 7 10
ATOM     10  CA  SER B   1       1.192  21.907   1.684  1.00 27.82 LIG 0.30  C 
BRANCH 10 11
ATOM     11  CB  SER B   1       2.453  21.314   2.263  1.00 27.59 LIG 0.21  C 
BRANCH 11 12
ATOM     12 OG   SER B   1       3.302  20.855   1.236  1.00 28.50 LIG-0.40  OA
ATOM     13 HG   SER B   1       3.508  21.497   0.735  1.00 28.50 LIG 0.21  HD
ENDBRANCH 11 12
ENDBRANCH 10 11
BRANCH 10 14
ATOM     14  N   SER B   1       1.398  23.288   1.344  1.00 28.84 LIG-0.06  N 
ATOM     15 H3   SER B   1       2.224  23.531   1.572  1.00 28.84 LIG 0.28  HD
ATOM     16 H2   SER B   1       0.810  23.793   1.782  1.00 28.84 LIG 0.28  HD
ATOM     17 H1   SER B   1       1.288  23.398   0.468  1.00 28.84 LIG 0.28  HD
ENDBRANCH 10 14
ENDBRANCH 7 10
ENDBRANCH 5 6
BRANCH 5 18
ATOM     18  CB  PHE B   2      -3.349  20.866   2.487  1.00 26.01 LIG 0.07  C 
BRANCH 18 19
ATOM     19  CG  PHE B   2      -3.546  21.811   1.428  1.00 24.17 LIG-0.06  A 
ATOM     20  CD1 PHE B   2      -3.681  23.137   1.709  1.00 21.37 LIG 0.01  A 
ATOM     21  CE1 PHE B   2      -3.860  23.962   0.763  1.00 18.48 LIG 0.00  A 
ATOM     22  CZ  PHE B   2      -3.907  23.555  -0.471  1.00 20.70 LIG 0.00  A 
ATOM     23  CE2 PHE B   2      -3.734  22.322  -0.798  1.00 22.44 LIG 0.00  A 
ATOM     24  CD2 PHE B   2      -3.562  21.416   0.144  1.00 23.60 LIG 0.01  A 
ENDBRANCH 18 19
ENDBRANCH 5 18
ENDBRANCH 1 5
BRANCH 3 25
ATOM     25  CA  ALA B   3      -3.174  18.346   5.415  1.00 26.83 LIG 0.17  C 
ATOM     26  CB  ALA B   3      -2.041  17.360   5.330  1.00 26.24 LIG 0.04  C 
BRANCH 25 27
ATOM     27  C   ALA B   3      -3.147  19.063   6.743  1.00 26.95 LIG 0.24  C 
ATOM     28  N   ASN B   4      -4.183  19.836   6.979  1.00 27.94 LIG-0.35  N 
ATOM     29 H    ASN B   4      -4.754  20.090   6.388  1.00 27.94 LIG 0.16  HD
ATOM     30 O    ALA B   3      -2.258  18.912   7.486  1.00 26.45 LIG-0.27  OA
BRANCH 28 31
ATOM     31  CA  ASN B   4      -4.420  20.318   8.312  1.00 28.42 LIG 0.18  C 
BRANCH 31 32
ATOM     32  C   ASN B   4      -4.749  19.138   9.193  1.00 28.91 LIG 0.24  C 
ATOM     33 O    ASN B   4      -5.328  18.181   8.763  1.00 29.45 LIG-0.27  OA
ATOM     34  N   GLY B   5      -4.356  19.197  10.440  1.00 28.92 LIG-0.35  N 
ATOM     35 H    GLY B   5      -3.889  19.836  10.778  1.00 28.92 LIG 0.16  HD
BRANCH 34 36
ATOM     36  CA  GLY B   5      -4.700  18.157  11.345  1.00 29.35 LIG 0.21  C 
BRANCH 36 37
ATOM     37  C   GLY B   5      -4.762  18.549  12.775  1.00 28.99 LIG 0.21  C 
ATOM     38 O    GLY B   5      -4.602  19.691  13.057  1.00 30.45 LIG-0.29  OA
ENDBRANCH 36 37
ENDBRANCH 34 36
ENDBRANCH 31 32
BRANCH 31 39
ATOM     39  CB  ASN B   4      -5.567  21.327   8.333  1.00 28.79 LIG 0.14  C 
BRANCH 39 40
ATOM     40  CG  ASN B   4      -5.350  22.419   9.316  1.00 30.59 LIG 0.22  C 
ATOM     41  ND2 ASN B   4      -4.597  22.155  10.365  1.00 33.19 LIG-0.37  N 
ATOM     42 22HD ASN B   4      -4.227  21.384  10.446  1.00 33.19 LIG 0.16  HD
ATOM     43 21HD ASN B   4      -4.477  22.755  10.970  1.00 33.19 LIG 0.16  HD
ATOM     44 OD1  ASN B   4      -5.887  23.479   9.162  1.00 34.60 LIG-0.27  OA
ENDBRANCH 39 40
ENDBRANCH 31 39
ENDBRANCH 28 31
ENDBRANCH 25 27
ENDBRANCH 3 25
TORSDOF 16
ENDMDL
MODEL 3
USER: ADFR SOLUTION from run 61
USER: SCORE 14.196459 LL:  -2.774 LR: -12.425 RR:   0.000 FEB:  -7.652
USER: RMSD 2.039798
USER: SEED 60
USER: STATUS no improvement in best in 2 clusters for 5 generations
USER: GENES 18
USER: genes 0 Translation |==|  0.52011 0.53229 0.45469
USER: genes 1 Rotation |==|  0.65866 0.62576 0.45128 0.95458
USER: genes 2 Torsion [N]-C--CA-[N] |==|  0.40911
USER: genes 3 Torsion [C]-CA--N-[C] |==|  0.82320
USER: genes 4 Torsion [N]-C--CA-[N] |==|  0.87818
USER: genes 5 Torsion [C]-CA--CB-[OG] |==|  0.54829
USER: genes 6 Torsion [CA]-CB--OG-[HG] |==|  0.48957
USER: genes 7 Torsion [C]-CA--N-[H1] |==|  0.71704
USER: genes 8 Torsion [C]-CA--CB-[CG] |==|  0.44779
USER: genes 9 Torsion [CA]-CB--CG-[CD1] |==|  0.92639
USER: genes 10 Torsion [C]-N--CA-[CB] |==|  0.45556
USER: genes 11 Torsion [N]-CA--C-[N] |==|  0.39671
USER: genes 12 Torsion [C]-N--CA-[C] |==|  0.79446
USER: genes 13 Torsion [N]-CA--C-[N] |==|  0.33647
USER: genes 14 Torsion [C]-N--CA-[C] |==|  0.39053
USER: genes 15 Torsion [N]-CA--C-[O] |==|  0.53701
USER: genes 16 Torsion [N]-CA--CB-[CG] |==|  0.69177
USER: genes 17 Torsion [CA]-CB--CG-[OD1] |==|  0.33352
ROOT
ATOM      1  C   PHE B   2      -1.960  20.214   3.535  1.00 26.65 LIG 0.24  C 
ATOM      2 O    PHE B   2      -2.933  20.853   3.814  1.00 26.69 LIG-0.27  OA
ATOM      3  N   ALA B   3      -1.692  19.016   3.999  1.00 26.24 LIG-0.35  N 
ATOM      4 H    ALA B   3      -0.967  18.579   3.847  1.00 26.24 LIG 0.16  HD
ENDROOT
BRANCH 1 5
ATOM      5  CA  PHE B   2      -0.910  20.727   2.614  1.00 26.41 LIG 0.18  C 
BRANCH 5 6
ATOM      6  N   PHE B   2      -1.443  21.562   1.588  1.00 26.57 LIG-0.35  N 
ATOM      7  C   SER B   1      -2.280  21.044   0.712  1.00 27.36 LIG 0.25  C 
ATOM      8 O    SER B   1      -2.612  19.888   0.699  1.00 27.79 LIG-0.27  OA
ATOM      9 H    PHE B   2      -1.180  22.381   1.599  1.00 26.57 LIG 0.16  HD
BRANCH 7 10
ATOM     10  CA  SER B   1      -2.781  21.941  -0.363  1.00 27.82 LIG 0.30  C 
BRANCH 10 11
ATOM     11  CB  SER B   1      -1.787  22.193  -1.469  1.00 27.59 LIG 0.21  C 
BRANCH 11 12
ATOM     12 OG   SER B   1      -2.158  23.327  -2.221  1.00 28.50 LIG-0.40  OA
ATOM     13 HG   SER B   1      -1.570  23.484  -2.800  1.00 28.50 LIG 0.21  HD
ENDBRANCH 11 12
ENDBRANCH 10 11
BRANCH 10 14
ATOM     14  N   SER B   1      -3.102  23.168   0.312  1.00 28.84 LIG-0.06  N 
ATOM     15 H3   SER B   1      -2.829  23.858  -0.179  1.00 28.84 LIG 0.28  HD
ATOM     16 H2   SER B   1      -2.695  23.188   1.103  1.00 28.84 LIG 0.28  HD
ATOM     17 H1   SER B   1      -3.982  23.220   0.431  1.00 28.84 LIG 0.28  HD
ENDBRANCH 10 14
ENDBRANCH 7 10
ENDBRANCH 5 6
BRANCH 5 18
ATOM     18  CB  PHE B   2       0.118  21.426   3.425  1.00 26.01 LIG 0.07  C 
BRANCH 18 19
ATOM     19  CG  PHE B   2       1.363  21.585   2.735  1.00 24.17 LIG-0.06  A 
ATOM     20  CD1 PHE B   2       1.720  20.711   1.753  1.00 21.37 LIG 0.01  A 
ATOM     21  CE1 PHE B   2       2.827  20.861   1.154  1.00 18.48 LIG 0.00  A 
ATOM     22  CZ  PHE B   2       3.619  21.845   1.462  1.00 20.70 LIG 0.00  A 
ATOM     23  CE2 PHE B   2       3.310  22.730   2.344  1.00 22.44 LIG 0.00  A 
ATOM     24  CD2 PHE B   2       2.180  22.616   3.013  1.00 23.60 LIG 0.01  A 
ENDBRANCH 18 19
ENDBRANCH 5 18
ENDBRANCH 1 5
BRANCH 3 25
ATOM     25  CA  ALA B   3      -2.636  18.355   4.815  1.00 26.83 LIG 0.17  C 
ATOM     26  CB  ALA B   3      -2.311  16.889   4.905  1.00 26.24 LIG 0.04  C 
BRANCH 25 27
ATOM     27  C   ALA B   3      -2.610  18.984   6.186  1.00 26.95 LIG 0.24  C 
ATOM     28  N   ASN B   4      -3.779  19.084   6.776  1.00 27.94 LIG-0.35  N 
ATOM     29 H    ASN B   4      -4.539  18.989   6.384  1.00 27.94 LIG 0.16  HD
ATOM     30 O    ALA B   3      -1.603  19.338   6.661  1.00 26.45 LIG-0.27  OA
BRANCH 28 31
ATOM     31  CA  ASN B   4      -3.843  19.374   8.181  1.00 28.42 LIG 0.18  C 
BRANCH 31 32
ATOM     32  C   ASN B   4      -3.445  18.133   8.942  1.00 28.91 LIG 0.24  C 
ATOM     33 O    ASN B   4      -4.035  17.099   8.800  1.00 29.45 LIG-0.27  OA
ATOM     34  N   GLY B   5      -2.417  18.230   9.745  1.00 28.92 LIG-0.35  N 
ATOM     35 H    GLY B   5      -1.929  18.933   9.836  1.00 28.92 LIG 0.16  HD
BRANCH 34 36
ATOM     36  CA  GLY B   5      -2.035  17.123  10.550  1.00 29.35 LIG 0.21  C 
BRANCH 36 37
ATOM     37  C   GLY B   5      -0.573  16.905  10.685  1.00 28.99 LIG 0.21  C 
ATOM     38 O    GLY B   5      -0.193  15.875  11.136  1.00 30.45 LIG-0.29  OA
ENDBRANCH 36 37
ENDBRANCH 34 36
ENDBRANCH 31 32
BRANCH 31 39
ATOM     39  CB  ASN B   4      -5.250  19.810   8.587  1.00 28.79 LIG 0.14  C 
BRANCH 39 40
ATOM     40  CG  ASN B   4      -5.317  21.245   8.965  1.00 30.59 LIG 0.22  C 
ATOM     41  ND2 ASN B   4      -4.608  21.636  10.004  1.00 33.19 LIG-0.37  N 
ATOM     42 22HD ASN B   4      -4.105  21.075  10.418  1.00 33.19 LIG 0.16  HD
ATOM     43 21HD ASN B   4      -4.649  22.453  10.270  1.00 33.19 LIG 0.16  HD
ATOM     44 OD1  ASN B   4      -6.033  21.992   8.359  1.00 34.60 LIG-0.27  OA
ENDBRANCH 39 40
ENDBRANCH 31 39
ENDBRANCH 28 31
ENDBRANCH 25 27
ENDBRANCH 3 25
TORSDOF 16
ENDMDL
MODEL 4
USER: ADFR SOLUTION from run 115
USER: SCORE 13.392959 LL:  -3.133 LR: -12.265 RR:   0.000 FEB:  -7.492
USER: RMSD 2.217019
USER: SEED 114
USER: STATUS no improvement in best in 4 clusters for 5 generations
USER: GENES 18
USER: genes 0 Translation |==|  0.54947 0.51461 0.41881
USER: genes 1 Rotation |==|  0.58771 0.53093 0.41922 0.98459
USER: genes 2 Torsion [N]-C--CA-[N] |==|  0.50511
USER: genes 3 Torsion [C]-CA--N-[C] |==|  0.58193
USER: genes 4 Torsion [N]-C--CA-[N] |==|  0.16753
USER: genes 5 Torsion [C]-CA--CB-[OG] |==|  0.77480
USER: genes 6 Torsion [CA]-CB--OG-[HG] |==|  0.27330
USER: genes 7 Torsion [C]-CA--N-[H1] |==|  0.17602
USER: genes 8 Torsion [C]-CA--CB-[CG] |==|  0.64339
USER: genes 9 Torsion [CA]-CB--CG-[CD1] |==|  0.73180
USER: genes 10 Torsion [C]-N--CA-[CB] |==|  0.36078
USER: genes 11 Torsion [N]-CA--C-[N] |==|  0.44728
USER: genes 12 Torsion [C]-N--CA-[C] |==|  0.81787
USER: genes 13 Torsion [N]-CA--C-[N] |==|  0.38909
USER: genes 14 Torsion [C]-N--CA-[C] |==|  0.45076
USER: genes 15 Torsion [N]-CA--C-[O] |==|  0.04033
USER: genes 16 Torsion [N]-CA--CB-[CG] |==|  0.64279
USER: genes 17 Torsion [CA]-CB--CG-[OD1] |==|  0.32058
ROOT
ATOM      1  C   PHE B   2      -1.387  19.949   2.700  1.00 26.65 LIG 0.24  C 
ATOM      2 O    PHE B   2      -2.247  20.734   2.421  1.00 26.69 LIG-0.27  OA
ATOM      3  N   ALA B   3      -1.506  18.995   3.594  1.00 26.24 LIG-0.35  N 
ATOM      4 H    ALA B   3      -0.872  18.468   3.839  1.00 26.24 LIG 0.16  HD
ENDROOT
BRANCH 1 5
ATOM      5  CA  PHE B   2      -0.047  19.977   2.056  1.00 26.41 LIG 0.18  C 
BRANCH 5 6
ATOM      6  N   PHE B   2       0.087  21.041   1.117  1.00 26.57 LIG-0.35  N 
ATOM      7  C   SER B   1       0.895  20.889   0.088  1.00 27.36 LIG 0.25  C 
ATOM      8 O    SER B   1       1.561  19.907  -0.106  1.00 27.79 LIG-0.27  OA
ATOM      9 H    PHE B   2      -0.381  21.744   1.281  1.00 26.57 LIG 0.16  HD
BRANCH 7 10
ATOM     10  CA  SER B   1       1.033  22.039  -0.845  1.00 27.82 LIG 0.30  C 
BRANCH 10 11
ATOM     11  CB  SER B   1       1.954  21.780  -2.010  1.00 27.59 LIG 0.21  C 
BRANCH 11 12
ATOM     12 OG   SER B   1       3.300  21.950  -1.627  1.00 28.50 LIG-0.40  OA
ATOM     13 HG   SER B   1       3.641  21.201  -1.459  1.00 28.50 LIG 0.21  HD
ENDBRANCH 11 12
ENDBRANCH 10 11
BRANCH 10 14
ATOM     14  N   SER B   1       1.545  23.105  -0.029  1.00 28.84 LIG-0.06  N 
ATOM     15 H3   SER B   1       0.994  23.246   0.656  1.00 28.84 LIG 0.28  HD
ATOM     16 H2   SER B   1       1.608  23.848  -0.515  1.00 28.84 LIG 0.28  HD
ATOM     17 H1   SER B   1       2.350  22.883   0.280  1.00 28.84 LIG 0.28  HD
ENDBRANCH 10 14
ENDBRANCH 7 10
ENDBRANCH 5 6
BRANCH 5 18
ATOM     18  CB  PHE B   2       0.981  20.042   3.125  1.00 26.01 LIG 0.07  C 
BRANCH 18 19
ATOM     19  CG  PHE B   2       1.923  21.103   2.932  1.00 24.17 LIG-0.06  A 
ATOM     20  CD1 PHE B   2       3.124  20.855   2.338  1.00 21.37 LIG 0.01  A 
ATOM     21  CE1 PHE B   2       3.951  21.803   2.178  1.00 18.48 LIG 0.00  A 
ATOM     22  CZ  PHE B   2       3.660  23.009   2.567  1.00 20.70 LIG 0.00  A 
ATOM     23  CE2 PHE B   2       2.521  23.310   3.087  1.00 22.44 LIG 0.00  A 
ATOM     24  CD2 PHE B   2       1.629  22.363   3.295  1.00 23.60 LIG 0.01  A 
ENDBRANCH 18 19
ENDBRANCH 5 18
ENDBRANCH 1 5
BRANCH 3 25
ATOM     25  CA  ALA B   3      -2.749  18.781   4.229  1.00 26.83 LIG 0.17  C 
ATOM     26  CB  ALA B   3      -3.126  17.326   4.159  1.00 26.24 LIG 0.04  C 
BRANCH 25 27
ATOM     27  C   ALA B   3      -2.638  19.227   5.666  1.00 26.95 LIG 0.24  C 
ATOM     28  N   ASN B   4      -3.782  19.457   6.269  1.00 27.94 LIG-0.35  N 
ATOM     29 H    ASN B   4      -4.540  19.542   5.871  1.00 27.94 LIG 0.16  HD
ATOM     30 O    ALA B   3      -1.593  19.342   6.176  1.00 26.45 LIG-0.27  OA
BRANCH 28 31
ATOM     31  CA  ASN B   4      -3.818  19.582   7.699  1.00 28.42 LIG 0.18  C 
BRANCH 31 32
ATOM     32  C   ASN B   4      -3.446  18.251   8.304  1.00 28.91 LIG 0.24  C 
ATOM     33 O    ASN B   4      -3.825  17.221   7.822  1.00 29.45 LIG-0.27  OA
ATOM     34  N   GLY B   5      -2.677  18.270   9.362  1.00 28.92 LIG-0.35  N 
ATOM     35 H    GLY B   5      -2.335  18.980   9.707  1.00 28.92 LIG 0.16  HD
BRANCH 34 36
ATOM     36  CA  GLY B   5      -2.351  17.058  10.027  1.00 29.35 LIG 0.21  C 
BRANCH 36 37
ATOM     37  C   GLY B   5      -1.178  17.123  10.935  1.00 28.99 LIG 0.21  C 
ATOM     38 O    GLY B   5      -0.763  18.190  11.249  1.00 30.45 LIG-0.29  OA
ENDBRANCH 36 37
ENDBRANCH 34 36
ENDBRANCH 31 32
BRANCH 31 39
ATOM     39  CB  ASN B   4      -5.206  20.007   8.176  1.00 28.79 LIG 0.14  C 
BRANCH 39 40
ATOM     40  CG  ASN B   4      -5.165  21.184   9.081  1.00 30.59 LIG 0.22  C 
ATOM     41  ND2 ASN B   4      -4.602  21.027  10.262  1.00 33.19 LIG-0.37  N 
ATOM     42 22HD ASN B   4      -4.248  20.272  10.473  1.00 33.19 LIG 0.16  HD
ATOM     43 21HD ASN B   4      -4.589  21.678  10.823  1.00 33.19 LIG 0.16  HD
ATOM     44 OD1  ASN B   4      -5.671  22.217   8.744  1.00 34.60 LIG-0.27  OA
ENDBRANCH 39 40
ENDBRANCH 31 39
ENDBRANCH 28 31
ENDBRANCH 25 27
ENDBRANCH 3 25
TORSDOF 16
ENDMDL
MODEL 5
USER: ADFR SOLUTION from run 153
USER: SCORE 13.708384 LL:  -3.134 LR: -12.244 RR:   0.000 FEB:  -7.471
USER: RMSD 4.293938
USER: SEED 152
USER: STATUS no improvement in best in 4 clusters for 5 generations
USER: GENES 18
USER: genes 0 Translation |==|  0.55986 0.41708 0.43555
USER: genes 1 Rotation |==|  0.43779 0.33299 0.69936 0.92248
USER: genes 2 Torsion [N]-C--CA-[N] |==|  0.51591
USER: genes 3 Torsion [C]-CA--N-[C] |==|  0.60728
USER: genes 4 Torsion [N]-C--CA-[N] |==|  0.23343
USER: genes 5 Torsion [C]-CA--CB-[OG] |==|  0.05807
USER: genes 6 Torsion [CA]-CB--OG-[HG] |==|  0.54630
USER: genes 7 Torsion [C]-CA--N-[H1] |==|  0.68634
USER: genes 8 Torsion [C]-CA--CB-[CG] |==|  0.81833
USER: genes 9 Torsion [CA]-CB--CG-[CD1] |==|  0.75542
USER: genes 10 Torsion [C]-N--CA-[CB] |==|  0.25454
USER: genes 11 Torsion [N]-CA--C-[N] |==|  0.85762
USER: genes 12 Torsion [C]-N--CA-[C] |==|  0.68520
USER: genes 13 Torsion [N]-CA--C-[N] |==|  0.43877
USER: genes 14 Torsion [C]-N--CA-[C] |==|  0.57845
USER: genes 15 Torsion [N]-CA--C-[O] |==|  0.26602
USER: genes 16 Torsion [N]-CA--CB-[CG] |==|  0.30010
USER: genes 17 Torsion [CA]-CB--CG-[OD1] |==|  0.76309
ROOT
ATOM      1  C   PHE B   2      -1.185  18.486   3.090  1.00 26.65 LIG 0.24  C 
ATOM      2 O    PHE B   2      -1.430  17.979   2.033  1.00 26.69 LIG-0.27  OA
ATOM      3  N   ALA B   3      -1.602  18.038   4.250  1.00 26.24 LIG-0.35  N 
ATOM      4 H    ALA B   3      -1.477  18.431   5.005  1.00 26.24 LIG 0.16  HD
ENDROOT
BRANCH 1 5
ATOM      5  CA  PHE B   2      -0.367  19.724   3.206  1.00 26.41 LIG 0.18  C 
BRANCH 5 6
ATOM      6  N   PHE B   2      -0.028  20.277   1.937  1.00 26.57 LIG-0.35  N 
ATOM      7  C   SER B   1       1.171  20.795   1.765  1.00 27.36 LIG 0.25  C 
ATOM      8 O    SER B   1       2.007  20.860   2.627  1.00 27.79 LIG-0.27  OA
ATOM      9 H    PHE B   2      -0.644  20.240   1.337  1.00 26.57 LIG 0.16  HD
BRANCH 7 10
ATOM     10  CA  SER B   1       1.469  21.395   0.437  1.00 27.82 LIG 0.30  C 
BRANCH 10 11
ATOM     11  CB  SER B   1       2.936  21.427   0.089  1.00 27.59 LIG 0.21  C 
BRANCH 11 12
ATOM     12 OG   SER B   1       3.648  20.480   0.853  1.00 28.50 LIG-0.40  OA
ATOM     13 HG   SER B   1       4.469  20.657   0.824  1.00 28.50 LIG 0.21  HD
ENDBRANCH 11 12
ENDBRANCH 10 11
BRANCH 10 14
ATOM     14  N   SER B   1       0.944  22.730   0.520  1.00 28.84 LIG-0.06  N 
ATOM     15 H3   SER B   1       1.577  23.313   0.294  1.00 28.84 LIG 0.28  HD
ATOM     16 H2   SER B   1       0.675  22.893   1.352  1.00 28.84 LIG 0.28  HD
ATOM     17 H1   SER B   1       0.253  22.812  -0.036  1.00 28.84 LIG 0.28  HD
ENDBRANCH 10 14
ENDBRANCH 7 10
ENDBRANCH 5 6
BRANCH 5 18
ATOM     18  CB  PHE B   2      -1.107  20.690   4.057  1.00 26.01 LIG 0.07  C 
BRANCH 18 19
ATOM     19  CG  PHE B   2      -2.330  21.138   3.463  1.00 24.17 LIG-0.06  A 
ATOM     20  CD1 PHE B   2      -2.335  22.220   2.634  1.00 21.37 LIG 0.01  A 
ATOM     21  CE1 PHE B   2      -3.425  22.609   2.119  1.00 18.48 LIG 0.00  A 
ATOM     22  CZ  PHE B   2      -4.536  21.980   2.366  1.00 20.70 LIG 0.00  A 
ATOM     23  CE2 PHE B   2      -4.582  20.922   3.098  1.00 22.44 LIG 0.00  A 
ATOM     24  CD2 PHE B   2      -3.483  20.481   3.676  1.00 23.60 LIG 0.01  A 
ENDBRANCH 18 19
ENDBRANCH 5 18
ENDBRANCH 1 5
BRANCH 3 25
ATOM     25  CA  ALA B   3      -2.314  16.819   4.315  1.00 26.83 LIG 0.17  C 
ATOM     26  CB  ALA B   3      -1.367  15.673   4.543  1.00 26.24 LIG 0.04  C 
BRANCH 25 27
ATOM     27  C   ALA B   3      -3.314  16.907   5.441  1.00 26.95 LIG 0.24  C 
ATOM     28  N   ASN B   4      -2.821  17.292   6.596  1.00 27.94 LIG-0.35  N 
ATOM     29 H    ASN B   4      -1.982  17.321   6.789  1.00 27.94 LIG 0.16  HD
ATOM     30 O    ALA B   3      -4.440  16.652   5.262  1.00 26.45 LIG-0.27  OA
BRANCH 28 31
ATOM     31  CA  ASN B   4      -3.709  17.706   7.646  1.00 28.42 LIG 0.18  C 
BRANCH 31 32
ATOM     32  C   ASN B   4      -3.500  19.180   7.893  1.00 28.91 LIG 0.24  C 
ATOM     33 O    ASN B   4      -2.488  19.730   7.560  1.00 29.45 LIG-0.27  OA
ATOM     34  N   GLY B   5      -4.477  19.834   8.467  1.00 28.92 LIG-0.35  N 
ATOM     35 H    GLY B   5      -5.241  19.495   8.671  1.00 28.92 LIG 0.16  HD
BRANCH 34 36
ATOM     36  CA  GLY B   5      -4.317  21.206   8.800  1.00 29.35 LIG 0.21  C 
BRANCH 36 37
ATOM     37  C   GLY B   5      -5.117  21.679   9.957  1.00 28.99 LIG 0.21  C 
ATOM     38 O    GLY B   5      -4.602  21.710  11.027  1.00 30.45 LIG-0.29  OA
ENDBRANCH 36 37
ENDBRANCH 34 36
ENDBRANCH 31 32
BRANCH 31 39
ATOM     39  CB  ASN B   4      -3.448  16.916   8.927  1.00 28.79 LIG 0.14  C 
BRANCH 39 40
ATOM     40  CG  ASN B   4      -2.794  17.734   9.980  1.00 30.59 LIG 0.22  C 
ATOM     41  ND2 ASN B   4      -3.573  18.346  10.849  1.00 33.19 LIG-0.37  N 
ATOM     42 22HD ASN B   4      -4.425  18.240  10.813  1.00 33.19 LIG 0.16  HD
ATOM     43 21HD ASN B   4      -3.229  18.853  11.452  1.00 33.19 LIG 0.16  HD
ATOM     44 OD1  ASN B   4      -1.601  17.853   9.992  1.00 34.60 LIG-0.27  OA
ENDBRANCH 39 40
ENDBRANCH 31 39
ENDBRANCH 28 31
ENDBRANCH 25 27
ENDBRANCH 3 25
TORSDOF 16
ENDMDL
MODEL 6
USER: ADFR SOLUTION from run 47
USER: SCORE 14.036351 LL:  -2.867 LR: -12.096 RR:   0.000 FEB:  -7.324
USER: RMSD 2.775672
USER: SEED 46
USER: STATUS no improvement in best in 3 clusters for 5 generations
USER: GENES 18
USER: genes 0 Translation |==|  0.48141 0.49838 0.49084
USER: genes 1 Rotation |==|  0.56876 0.58087 0.44856 0.98589
USER: genes 2 Torsion [N]-C--CA-[N] |==|  0.47089
USER: genes 3 Torsion [C]-CA--N-[C] |==|  0.64765
USER: genes 4 Torsion [N]-C--CA-[N] |==|  0.00243
USER: genes 5 Torsion [C]-CA--CB-[OG] |==|  0.85211
USER: genes 6 Torsion [CA]-CB--OG-[HG] |==|  0.81689
USER: genes 7 Torsion [C]-CA--N-[H1] |==|  0.48926
USER: genes 8 Torsion [C]-CA--CB-[CG] |==|  0.56284
USER: genes 9 Torsion [CA]-CB--CG-[CD1] |==|  0.78175
USER: genes 10 Torsion [C]-N--CA-[CB] |==|  0.50556
USER: genes 11 Torsion [N]-CA--C-[N] |==|  0.28538
USER: genes 12 Torsion [C]-N--CA-[C] |==|  0.84730
USER: genes 13 Torsion [N]-CA--C-[N] |==|  0.35914
USER: genes 14 Torsion [C]-N--CA-[C] |==|  0.30321
USER: genes 15 Torsion [N]-CA--C-[O] |==|  0.19809
USER: genes 16 Torsion [N]-CA--CB-[CG] |==|  0.56977
USER: genes 17 Torsion [CA]-CB--CG-[OD1] |==|  0.95090
ROOT
ATOM      1  C   PHE B   2      -2.715  19.706   4.375  1.00 26.65 LIG 0.24  C 
ATOM      2 O    PHE B   2      -3.723  20.338   4.245  1.00 26.69 LIG-0.27  OA
ATOM      3  N   ALA B   3      -2.518  18.790   5.295  1.00 26.24 LIG-0.35  N 
ATOM      4 H    ALA B   3      -1.777  18.376   5.428  1.00 26.24 LIG 0.16  HD
ENDROOT
BRANCH 1 5
ATOM      5  CA  PHE B   2      -1.534  19.902   3.492  1.00 26.41 LIG 0.18  C 
BRANCH 5 6
ATOM      6  N   PHE B   2      -1.828  20.716   2.358  1.00 26.57 LIG-0.35  N 
ATOM      7  C   SER B   1      -1.540  20.264   1.155  1.00 27.36 LIG 0.25  C 
ATOM      8 O    SER B   1      -1.012  19.205   0.941  1.00 27.79 LIG-0.27  OA
ATOM      9 H    PHE B   2      -2.187  21.478   2.530  1.00 26.57 LIG 0.16  HD
BRANCH 7 10
ATOM     10  CA  SER B   1      -1.829  21.161   0.004  1.00 27.82 LIG 0.30  C 
BRANCH 10 11
ATOM     11  CB  SER B   1      -0.623  21.487  -0.841  1.00 27.59 LIG 0.21  C 
BRANCH 11 12
ATOM     12 OG   SER B   1       0.422  21.992  -0.042  1.00 28.50 LIG-0.40  OA
ATOM     13 HG   SER B   1       0.195  22.733   0.283  1.00 28.50 LIG 0.21  HD
ENDBRANCH 11 12
ENDBRANCH 10 11
BRANCH 10 14
ATOM     14  N   SER B   1      -2.359  22.355   0.603  1.00 28.84 LIG-0.06  N 
ATOM     15 H3   SER B   1      -1.777  22.675   1.195  1.00 28.84 LIG 0.28  HD
ATOM     16 H2   SER B   1      -3.126  22.166   1.013  1.00 28.84 LIG 0.28  HD
ATOM     17 H1   SER B   1      -2.504  22.965  -0.029  1.00 28.84 LIG 0.28  HD
ENDBRANCH 10 14
ENDBRANCH 7 10
ENDBRANCH 5 6
BRANCH 5 18
ATOM     18  CB  PHE B   2      -0.430  20.463   4.311  1.00 26.01 LIG 0.07  C 
BRANCH 18 19
ATOM     19  CG  PHE B   2       0.547  21.162   3.531  1.00 24.17 LIG-0.06  A 
ATOM     20  CD1 PHE B   2       1.490  20.471   2.831  1.00 21.37 LIG 0.01  A 
ATOM     21  CE1 PHE B   2       2.351  21.103   2.149  1.00 18.48 LIG 0.00  A 
ATOM     22  CZ  PHE B   2       2.338  22.402   2.104  1.00 20.70 LIG 0.00  A 
ATOM     23  CE2 PHE B   2       1.440  23.104   2.702  1.00 22.44 LIG 0.00  A 
ATOM     24  CD2 PHE B   2       0.529  22.503   3.442  1.00 23.60 LIG 0.01  A 
ENDBRANCH 18 19
ENDBRANCH 5 18
ENDBRANCH 1 5
BRANCH 3 25
ATOM     25  CA  ALA B   3      -3.578  18.423   6.154  1.00 26.83 LIG 0.17  C 
ATOM     26  CB  ALA B   3      -3.109  17.398   7.151  1.00 26.24 LIG 0.04  C 
BRANCH 25 27
ATOM     27  C   ALA B   3      -4.070  19.660   6.864  1.00 26.95 LIG 0.24  C 
ATOM     28  N   ASN B   4      -5.190  20.162   6.397  1.00 27.94 LIG-0.35  N 
ATOM     29 H    ASN B   4      -5.547  19.954   5.642  1.00 27.94 LIG 0.16  HD
ATOM     30 O    ALA B   3      -3.476  20.107   7.765  1.00 26.45 LIG-0.27  OA
BRANCH 28 31
ATOM     31  CA  ASN B   4      -5.908  21.136   7.171  1.00 28.42 LIG 0.18  C 
BRANCH 31 32
ATOM     32  C   ASN B   4      -6.177  20.556   8.537  1.00 28.91 LIG 0.24  C 
ATOM     33 O    ASN B   4      -6.653  19.463   8.667  1.00 29.45 LIG-0.27  OA
ATOM     34  N   GLY B   5      -5.848  21.286   9.571  1.00 28.92 LIG-0.35  N 
ATOM     35 H    GLY B   5      -5.452  22.049   9.528  1.00 28.92 LIG 0.16  HD
BRANCH 34 36
ATOM     36  CA  GLY B   5      -6.144  20.834  10.886  1.00 29.35 LIG 0.21  C 
BRANCH 36 37
ATOM     37  C   GLY B   5      -4.973  20.415  11.695  1.00 28.99 LIG 0.21  C 
ATOM     38 O    GLY B   5      -4.227  21.251  12.088  1.00 30.45 LIG-0.29  OA
ENDBRANCH 36 37
ENDBRANCH 34 36
ENDBRANCH 31 32
BRANCH 31 39
ATOM     39  CB  ASN B   4      -7.224  21.513   6.491  1.00 28.79 LIG 0.14  C 
BRANCH 39 40
ATOM     40  CG  ASN B   4      -7.700  22.865   6.878  1.00 30.59 LIG 0.22  C 
ATOM     41  ND2 ASN B   4      -8.569  23.457   6.083  1.00 33.19 LIG-0.37  N 
ATOM     42 22HD ASN B   4      -8.864  23.047   5.387  1.00 33.19 LIG 0.16  HD
ATOM     43 21HD ASN B   4      -8.842  24.253   6.260  1.00 33.19 LIG 0.16  HD
ATOM     44 OD1  ASN B   4      -7.262  23.398   7.858  1.00 34.60 LIG-0.27  OA
ENDBRANCH 39 40
ENDBRANCH 31 39
ENDBRANCH 28 31
ENDBRANCH 25 27
ENDBRANCH 3 25
TORSDOF 16
ENDMDL
MODEL 7
USER: ADFR SOLUTION from run 145
USER: SCORE 13.564338 LL:  -3.059 LR: -11.907 RR:   0.000 FEB:  -7.134
USER: RMSD 4.045784
USER: SEED 144
USER: STATUS no improvement in best in 2 clusters for 5 generations
USER: GENES 18
USER: genes 0 Translation |==|  0.52888 0.36007 0.42609
USER: genes 1 Rotation |==|  0.33067 0.48669 0.53676 0.96883
USER: genes 2 Torsion [N]-C--CA-[N] |==|  0.86667
USER: genes 3 Torsion [C]-CA--N-[C] |==|  0.81453
USER: genes 4 Torsion [N]-C--CA-[N] |==|  0.48906
USER: genes 5 Torsion [C]-CA--CB-[OG] |==|  0.97870
USER: genes 6 Torsion [CA]-CB--OG-[HG] |==|  0.17592
USER: genes 7 Torsion [C]-CA--N-[H1] |==|  0.90179
USER: genes 8 Torsion [C]-CA--CB-[CG] |==|  0.34628
USER: genes 9 Torsion [CA]-CB--CG-[CD1] |==|  0.45582
USER: genes 10 Torsion [C]-N--CA-[CB] |==|  0.23032
USER: genes 11 Torsion [N]-CA--C-[N] |==|  0.41362
USER: genes 12 Torsion [C]-N--CA-[C] |==|  0.77782
USER: genes 13 Torsion [N]-CA--C-[N] |==|  0.32934
USER: genes 14 Torsion [C]-N--CA-[C] |==|  0.69325
USER: genes 15 Torsion [N]-CA--C-[O] |==|  0.01390
USER: genes 16 Torsion [N]-CA--CB-[CG] |==|  0.57290
USER: genes 17 Torsion [CA]-CB--CG-[OD1] |==|  0.41783
ROOT
ATOM      1  C   PHE B   2      -1.789  17.631   2.870  1.00 26.65 LIG 0.24  C 
ATOM      2 O    PHE B   2      -2.743  17.342   2.207  1.00 26.69 LIG-0.27  OA
ATOM      3  N   ALA B   3      -1.825  17.914   4.151  1.00 26.24 LIG-0.35  N 
ATOM      4 H    ALA B   3      -1.152  18.179   4.616  1.00 26.24 LIG 0.16  HD
ENDROOT
BRANCH 1 5
ATOM      5  CA  PHE B   2      -0.419  17.715   2.295  1.00 26.41 LIG 0.18  C 
BRANCH 5 6
ATOM      6  N   PHE B   2       0.254  18.918   2.661  1.00 26.57 LIG-0.35  N 
ATOM      7  C   SER B   1      -0.197  20.068   2.205  1.00 27.36 LIG 0.25  C 
ATOM      8 O    SER B   1      -1.139  20.176   1.465  1.00 27.79 LIG-0.27  OA
ATOM      9 H    PHE B   2       0.937  18.821   3.174  1.00 26.57 LIG 0.16  HD
BRANCH 7 10
ATOM     10  CA  SER B   1       0.558  21.293   2.580  1.00 27.82 LIG 0.30  C 
BRANCH 10 11
ATOM     11  CB  SER B   1       0.575  21.579   4.060  1.00 27.59 LIG 0.21  C 
BRANCH 11 12
ATOM     12 OG   SER B   1      -0.288  20.700   4.745  1.00 28.50 LIG-0.40  OA
ATOM     13 HG   SER B   1      -0.013  19.911   4.656  1.00 28.50 LIG 0.21  HD
ENDBRANCH 11 12
ENDBRANCH 10 11
BRANCH 10 14
ATOM     14  N   SER B   1      -0.103  22.354   1.871  1.00 28.84 LIG-0.06  N 
ATOM     15 H3   SER B   1       0.466  23.028   1.748  1.00 28.84 LIG 0.28  HD
ATOM     16 H2   SER B   1      -0.801  22.638   2.344  1.00 28.84 LIG 0.28  HD
ATOM     17 H1   SER B   1      -0.382  22.054   1.081  1.00 28.84 LIG 0.28  HD
ENDBRANCH 10 14
ENDBRANCH 7 10
ENDBRANCH 5 6
BRANCH 5 18
ATOM     18  CB  PHE B   2       0.333  16.505   2.711  1.00 26.01 LIG 0.07  C 
BRANCH 18 19
ATOM     19  CG  PHE B   2       0.878  15.777   1.604  1.00 24.17 LIG-0.06  A 
ATOM     20  CD1 PHE B   2       1.850  14.844   1.807  1.00 21.37 LIG 0.01  A 
ATOM     21  CE1 PHE B   2       2.326  14.210   0.818  1.00 18.48 LIG 0.00  A 
ATOM     22  CZ  PHE B   2       1.890  14.437  -0.386  1.00 20.70 LIG 0.00  A 
ATOM     23  CE2 PHE B   2       0.938  15.268  -0.630  1.00 22.44 LIG 0.00  A 
ATOM     24  CD2 PHE B   2       0.416  15.969   0.357  1.00 23.60 LIG 0.01  A 
ENDBRANCH 18 19
ENDBRANCH 5 18
ENDBRANCH 1 5
BRANCH 3 25
ATOM     25  CA  ALA B   3      -3.039  17.790   4.861  1.00 26.83 LIG 0.17  C 
ATOM     26  CB  ALA B   3      -3.253  16.361   5.281  1.00 26.24 LIG 0.04  C 
BRANCH 25 27
ATOM     27  C   ALA B   3      -2.982  18.690   6.071  1.00 26.95 LIG 0.24  C 
ATOM     28  N   ASN B   4      -4.137  19.183   6.454  1.00 27.94 LIG-0.35  N 
ATOM     29 H    ASN B   4      -4.857  19.176   5.983  1.00 27.94 LIG 0.16  HD
ATOM     30 O    ALA B   3      -1.967  18.904   6.608  1.00 26.45 LIG-0.27  OA
BRANCH 28 31
ATOM     31  CA  ASN B   4      -4.255  19.789   7.751  1.00 28.42 LIG 0.18  C 
BRANCH 31 32
ATOM     32  C   ASN B   4      -4.404  18.694   8.778  1.00 28.91 LIG 0.24  C 
ATOM     33 O    ASN B   4      -5.323  17.925   8.739  1.00 29.45 LIG-0.27  OA
ATOM     34  N   GLY B   5      -3.477  18.607   9.697  1.00 28.92 LIG-0.35  N 
ATOM     35 H    GLY B   5      -2.772  19.098   9.730  1.00 28.92 LIG 0.16  HD
BRANCH 34 36
ATOM     36  CA  GLY B   5      -3.596  17.648  10.739  1.00 29.35 LIG 0.21  C 
BRANCH 36 37
ATOM     37  C   GLY B   5      -3.861  18.203  12.090  1.00 28.99 LIG 0.21  C 
ATOM     38 O    GLY B   5      -4.044  19.372  12.197  1.00 30.45 LIG-0.29  OA
ENDBRANCH 36 37
ENDBRANCH 34 36
ENDBRANCH 31 32
BRANCH 31 39
ATOM     39  CB  ASN B   4      -5.458  20.730   7.808  1.00 28.79 LIG 0.14  C 
BRANCH 39 40
ATOM     40  CG  ASN B   4      -5.295  21.807   8.818  1.00 30.59 LIG 0.22  C 
ATOM     41  ND2 ASN B   4      -4.600  21.528   9.901  1.00 33.19 LIG-0.37  N 
ATOM     42 22HD ASN B   4      -4.234  20.755   9.990  1.00 33.19 LIG 0.16  HD
ATOM     43 21HD ASN B   4      -4.512  22.118  10.521  1.00 33.19 LIG 0.16  HD
ATOM     44 OD1  ASN B   4      -5.823  22.870   8.651  1.00 34.60 LIG-0.27  OA
ENDBRANCH 39 40
ENDBRANCH 31 39
ENDBRANCH 28 31
ENDBRANCH 25 27
ENDBRANCH 3 25
TORSDOF 16
ENDMDL
MODEL 8
USER: ADFR SOLUTION from run 29
USER: SCORE 12.892895 LL:  -2.791 LR: -11.883 RR:   0.000 FEB:  -7.110
USER: RMSD 2.875937
USER: SEED 28
USER: STATUS no improvement in best in 4 clusters for 5 generations
USER: GENES 18
USER: genes 0 Translation |==|  0.52026 0.52008 0.48406
USER: genes 1 Rotation |==|  0.58973 0.53898 0.43162 0.98554
USER: genes 2 Torsion [N]-C--CA-[N] |==|  0.13165
USER: genes 3 Torsion [C]-CA--N-[C] |==|  0.14955
USER: genes 4 Torsion [N]-C--CA-[N] |==|  0.95848
USER: genes 5 Torsion [C]-CA--CB-[OG] |==|  0.80021
USER: genes 6 Torsion [CA]-CB--OG-[HG] |==|  0.09252
USER: genes 7 Torsion [C]-CA--N-[H1] |==|  0.48451
USER: genes 8 Torsion [C]-CA--CB-[CG] |==|  0.47113
USER: genes 9 Torsion [CA]-CB--CG-[CD1] |==|  0.79198
USER: genes 10 Torsion [C]-N--CA-[CB] |==|  0.36778
USER: genes 11 Torsion [N]-CA--C-[N] |==|  0.33865
USER: genes 12 Torsion [C]-N--CA-[C] |==|  0.80562
USER: genes 13 Torsion [N]-CA--C-[N] |==|  0.39524
USER: genes 14 Torsion [C]-N--CA-[C] |==|  0.58746
USER: genes 15 Torsion [N]-CA--C-[O] |==|  0.06450
USER: genes 16 Torsion [N]-CA--CB-[CG] |==|  0.60143
USER: genes 17 Torsion [CA]-CB--CG-[OD1] |==|  0.85276
ROOT
ATOM      1  C   PHE B   2      -1.957  20.031   4.217  1.00 26.65 LIG 0.24  C 
ATOM      2 O    PHE B   2      -2.864  20.772   3.968  1.00 26.69 LIG-0.27  OA
ATOM      3  N   ALA B   3      -2.005  19.059   5.098  1.00 26.24 LIG-0.35  N 
ATOM      4 H    ALA B   3      -1.339  18.563   5.322  1.00 26.24 LIG 0.16  HD
ENDROOT
BRANCH 1 5
ATOM      5  CA  PHE B   2      -0.634  20.140   3.546  1.00 26.41 LIG 0.18  C 
BRANCH 5 6
ATOM      6  N   PHE B   2      -0.147  18.881   3.088  1.00 26.57 LIG-0.35  N 
ATOM      7  C   SER B   1      -0.911  18.145   2.308  1.00 27.36 LIG 0.25  C 
ATOM      8 O    SER B   1      -2.024  18.453   1.969  1.00 27.79 LIG-0.27  OA
ATOM      9 H    PHE B   2       0.642  18.667   3.355  1.00 26.57 LIG 0.16  HD
BRANCH 7 10
ATOM     10  CA  SER B   1      -0.379  16.822   1.885  1.00 27.82 LIG 0.30  C 
BRANCH 10 11
ATOM     11  CB  SER B   1      -1.020  15.648   2.582  1.00 27.59 LIG 0.21  C 
BRANCH 11 12
ATOM     12 OG   SER B   1      -0.601  15.579   3.926  1.00 28.50 LIG-0.40  OA
ATOM     13 HG   SER B   1      -0.477  16.355   4.221  1.00 28.50 LIG 0.21  HD
ENDBRANCH 11 12
ENDBRANCH 10 11
BRANCH 10 14
ATOM     14  N   SER B   1       1.023  16.883   2.193  1.00 28.84 LIG-0.06  N 
ATOM     15 H3   SER B   1       1.131  17.101   3.049  1.00 28.84 LIG 0.28  HD
ATOM     16 H2   SER B   1       1.413  17.497   1.680  1.00 28.84 LIG 0.28  HD
ATOM     17 H1   SER B   1       1.395  16.090   2.039  1.00 28.84 LIG 0.28  HD
ENDBRANCH 10 14
ENDBRANCH 7 10
ENDBRANCH 5 6
BRANCH 5 18
ATOM     18  CB  PHE B   2      -0.753  21.128   2.444  1.00 26.01 LIG 0.07  C 
BRANCH 18 19
ATOM     19  CG  PHE B   2       0.512  21.492   1.878  1.00 24.17 LIG-0.06  A 
ATOM     20  CD1 PHE B   2       1.351  22.326   2.553  1.00 21.37 LIG 0.01  A 
ATOM     21  CE1 PHE B   2       2.466  22.643   2.039  1.00 18.48 LIG 0.00  A 
ATOM     22  CZ  PHE B   2       2.817  22.173   0.878  1.00 20.70 LIG 0.00  A 
ATOM     23  CE2 PHE B   2       2.087  21.342   0.221  1.00 22.44 LIG 0.00  A 
ATOM     24  CD2 PHE B   2       0.910  20.989   0.697  1.00 23.60 LIG 0.01  A 
ENDBRANCH 18 19
ENDBRANCH 5 18
ENDBRANCH 1 5
BRANCH 3 25
ATOM     25  CA  ALA B   3      -3.221  18.769   5.755  1.00 26.83 LIG 0.17  C 
ATOM     26  CB  ALA B   3      -3.490  17.289   5.723  1.00 26.24 LIG 0.04  C 
BRANCH 25 27
ATOM     27  C   ALA B   3      -3.125  19.255   7.179  1.00 26.95 LIG 0.24  C 
ATOM     28  N   ASN B   4      -4.040  20.128   7.533  1.00 27.94 LIG-0.35  N 
ATOM     29 H    ASN B   4      -4.551  20.556   6.988  1.00 27.94 LIG 0.16  HD
ATOM     30 O    ALA B   3      -2.289  18.857   7.892  1.00 26.45 LIG-0.27  OA
BRANCH 28 31
ATOM     31  CA  ASN B   4      -4.240  20.425   8.925  1.00 28.42 LIG 0.18  C 
BRANCH 31 32
ATOM     32  C   ASN B   4      -4.862  19.219   9.584  1.00 28.91 LIG 0.24  C 
ATOM     33 O    ASN B   4      -5.669  18.542   9.010  1.00 29.45 LIG-0.27  OA
ATOM     34  N   GLY B   5      -4.468  18.932  10.798  1.00 28.92 LIG-0.35  N 
ATOM     35 H    GLY B   5      -3.852  19.353  11.226  1.00 28.92 LIG 0.16  HD
BRANCH 34 36
ATOM     36  CA  GLY B   5      -5.069  17.857  11.506  1.00 29.35 LIG 0.21  C 
BRANCH 36 37
ATOM     37  C   GLY B   5      -5.141  18.024  12.979  1.00 28.99 LIG 0.21  C 
ATOM     38 O    GLY B   5      -5.109  19.123  13.427  1.00 30.45 LIG-0.29  OA
ENDBRANCH 36 37
ENDBRANCH 34 36
ENDBRANCH 31 32
BRANCH 31 39
ATOM     39  CB  ASN B   4      -5.142  21.645   9.101  1.00 28.79 LIG 0.14  C 
BRANCH 39 40
ATOM     40  CG  ASN B   4      -4.739  22.493  10.252  1.00 30.59 LIG 0.22  C 
ATOM     41  ND2 ASN B   4      -4.497  23.766  10.016  1.00 33.19 LIG-0.37  N 
ATOM     42 22HD ASN B   4      -4.605  24.086   9.225  1.00 33.19 LIG 0.16  HD
ATOM     43 21HD ASN B   4      -4.231  24.279  10.653  1.00 33.19 LIG 0.16  HD
ATOM     44 OD1  ASN B   4      -4.602  22.004  11.338  1.00 34.60 LIG-0.27  OA
ENDBRANCH 39 40
ENDBRANCH 31 39
ENDBRANCH 28 31
ENDBRANCH 25 27
ENDBRANCH 3 25
TORSDOF 16
ENDMDL
MODEL 9
USER: ADFR SOLUTION from run 89
USER: SCORE 13.842743 LL:  -3.006 LR: -11.802 RR:   0.000 FEB:  -7.029
USER: RMSD 4.585645
USER: SEED 88
USER: STATUS no improvement in best in 5 clusters for 5 generations
USER: GENES 18
USER: genes 0 Translation |==|  0.53186 0.52018 0.42276
USER: genes 1 Rotation |==|  0.29360 0.32733 0.87443 0.69336
USER: genes 2 Torsion [N]-C--CA-[N] |==|  0.46661
USER: genes 3 Torsion [C]-CA--N-[C] |==|  0.79793
USER: genes 4 Torsion [N]-C--CA-[N] |==|  0.33333
USER: genes 5 Torsion [C]-CA--CB-[OG] |==|  0.67001
USER: genes 6 Torsion [CA]-CB--OG-[HG] |==|  0.59691
USER: genes 7 Torsion [C]-CA--N-[H1] |==|  0.30248
USER: genes 8 Torsion [C]-CA--CB-[CG] |==|  0.44441
USER: genes 9 Torsion [CA]-CB--CG-[CD1] |==|  0.34284
USER: genes 10 Torsion [C]-N--CA-[CB] |==|  0.21221
USER: genes 11 Torsion [N]-CA--C-[N] |==|  0.53525
USER: genes 12 Torsion [C]-N--CA-[C] |==|  0.78548
USER: genes 13 Torsion [N]-CA--C-[N] |==|  0.44909
USER: genes 14 Torsion [C]-N--CA-[C] |==|  0.75783
USER: genes 15 Torsion [N]-CA--C-[O] |==|  0.43814
USER: genes 16 Torsion [N]-CA--CB-[CG] |==|  0.17724
USER: genes 17 Torsion [CA]-CB--CG-[OD1] |==|  0.30370
ROOT
ATOM      1  C   PHE B   2      -1.731  20.033   2.792  1.00 26.65 LIG 0.24  C 
ATOM      2 O    PHE B   2      -0.940  19.150   2.622  1.00 26.69 LIG-0.27  OA
ATOM      3  N   ALA B   3      -2.592  20.086   3.781  1.00 26.24 LIG-0.35  N 
ATOM      4 H    ALA B   3      -3.199  20.688   3.874  1.00 26.24 LIG 0.16  HD
ENDROOT
BRANCH 1 5
ATOM      5  CA  PHE B   2      -1.836  21.194   1.868  1.00 26.41 LIG 0.18  C 
BRANCH 5 6
ATOM      6  N   PHE B   2      -0.736  21.276   0.965  1.00 26.57 LIG-0.35  N 
ATOM      7  C   SER B   1       0.439  21.656   1.421  1.00 27.36 LIG 0.25  C 
ATOM      8 O    SER B   1       0.649  21.971   2.562  1.00 27.79 LIG-0.27  OA
ATOM      9 H    PHE B   2      -0.908  21.066   0.148  1.00 26.57 LIG 0.16  HD
BRANCH 7 10
ATOM     10  CA  SER B   1       1.549  21.765   0.437  1.00 27.82 LIG 0.30  C 
BRANCH 10 11
ATOM     11  CB  SER B   1       2.718  20.856   0.722  1.00 27.59 LIG 0.21  C 
BRANCH 11 12
ATOM     12 OG   SER B   1       3.889  21.609   0.942  1.00 28.50 LIG-0.40  OA
ATOM     13 HG   SER B   1       4.552  21.193   0.636  1.00 28.50 LIG 0.21  HD
ENDBRANCH 11 12
ENDBRANCH 10 11
BRANCH 10 14
ATOM     14  N   SER B   1       1.955  23.141   0.503  1.00 28.84 LIG-0.06  N 
ATOM     15 H3   SER B   1       1.359  23.605   0.973  1.00 28.84 LIG 0.28  HD
ATOM     16 H2   SER B   1       2.008  23.476  -0.320  1.00 28.84 LIG 0.28  HD
ATOM     17 H1   SER B   1       2.751  23.197   0.897  1.00 28.84 LIG 0.28  HD
ENDBRANCH 10 14
ENDBRANCH 7 10
ENDBRANCH 5 6
BRANCH 5 18
ATOM     18  CB  PHE B   2      -3.137  21.105   1.159  1.00 26.01 LIG 0.07  C 
BRANCH 18 19
ATOM     19  CG  PHE B   2      -3.558  22.356   0.603  1.00 24.17 LIG-0.06  A 
ATOM     20  CD1 PHE B   2      -3.826  22.460  -0.729  1.00 21.37 LIG 0.01  A 
ATOM     21  CE1 PHE B   2      -4.193  23.575  -1.209  1.00 18.48 LIG 0.00  A 
ATOM     22  CZ  PHE B   2      -4.325  24.616  -0.440  1.00 20.70 LIG 0.00  A 
ATOM     23  CE2 PHE B   2      -4.136  24.562   0.832  1.00 22.44 LIG 0.00  A 
ATOM     24  CD2 PHE B   2      -3.735  23.435   1.384  1.00 23.60 LIG 0.01  A 
ENDBRANCH 18 19
ENDBRANCH 5 18
ENDBRANCH 1 5
BRANCH 3 25
ATOM     25  CA  ALA B   3      -2.556  19.102   4.794  1.00 26.83 LIG 0.17  C 
ATOM     26  CB  ALA B   3      -1.412  19.366   5.736  1.00 26.24 LIG 0.04  C 
BRANCH 25 27
ATOM     27  C   ALA B   3      -3.867  19.133   5.540  1.00 26.95 LIG 0.24  C 
ATOM     28  N   ASN B   4      -3.883  18.460   6.667  1.00 27.94 LIG-0.35  N 
ATOM     29 H    ASN B   4      -3.290  17.885   6.907  1.00 27.94 LIG 0.16  HD
ATOM     30 O    ALA B   3      -4.780  19.730   5.120  1.00 26.45 LIG-0.27  OA
BRANCH 28 31
ATOM     31  CA  ASN B   4      -4.954  18.666   7.602  1.00 28.42 LIG 0.18  C 
BRANCH 31 32
ATOM     32  C   ASN B   4      -4.705  19.961   8.334  1.00 28.91 LIG 0.24  C 
ATOM     33 O    ASN B   4      -3.623  20.478   8.336  1.00 29.45 LIG-0.27  OA
ATOM     34  N   GLY B   5      -5.724  20.506   8.948  1.00 28.92 LIG-0.35  N 
ATOM     35 H    GLY B   5      -6.529  20.203   8.926  1.00 28.92 LIG 0.16  HD
BRANCH 34 36
ATOM     36  CA  GLY B   5      -5.543  21.685   9.720  1.00 29.35 LIG 0.21  C 
BRANCH 36 37
ATOM     37  C   GLY B   5      -5.146  21.467  11.134  1.00 28.99 LIG 0.21  C 
ATOM     38 O    GLY B   5      -4.600  22.350  11.711  1.00 30.45 LIG-0.29  OA
ENDBRANCH 36 37
ENDBRANCH 34 36
ENDBRANCH 31 32
BRANCH 31 39
ATOM     39  CB  ASN B   4      -5.043  17.509   8.597  1.00 28.79 LIG 0.14  C 
BRANCH 39 40
ATOM     40  CG  ASN B   4      -3.834  17.397   9.453  1.00 30.59 LIG 0.22  C 
ATOM     41  ND2 ASN B   4      -2.732  16.938   8.896  1.00 33.19 LIG-0.37  N 
ATOM     42 22HD ASN B   4      -2.721  16.745   8.058  1.00 33.19 LIG 0.16  HD
ATOM     43 21HD ASN B   4      -2.022  16.830   9.370  1.00 33.19 LIG 0.16  HD
ATOM     44 OD1  ASN B   4      -3.895  17.678  10.616  1.00 34.60 LIG-0.27  OA
ENDBRANCH 39 40
ENDBRANCH 31 39
ENDBRANCH 28 31
ENDBRANCH 25 27
ENDBRANCH 3 25
TORSDOF 16
ENDMDL
MODEL 10
USER: ADFR SOLUTION from run 150
USER: SCORE 13.703670 LL:  -2.970 LR: -11.694 RR:   0.000 FEB:  -6.921
USER: RMSD 4.519761
USER: SEED 149
USER: STATUS no improvement in best in 6 clusters for 5 generations
USER: GENES 18
USER: genes 0 Translation |==|  0.52059 0.54296 0.45030
USER: genes 1 Rotation |==|  0.34960 0.27675 0.77264 0.82126
USER: genes 2 Torsion [N]-C--CA-[N] |==|  0.47624
USER: genes 3 Torsion [C]-CA--N-[C] |==|  0.78612
USER: genes 4 Torsion [N]-C--CA-[N] |==|  0.17170
USER: genes 5 Torsion [C]-CA--CB-[OG] |==|  0.45768
USER: genes 6 Torsion [CA]-CB--OG-[HG] |==|  0.63108
USER: genes 7 Torsion [C]-CA--N-[H1] |==|  0.91719
USER: genes 8 Torsion [C]-CA--CB-[CG] |==|  0.87484
USER: genes 9 Torsion [CA]-CB--CG-[CD1] |==|  0.79866
USER: genes 10 Torsion [C]-N--CA-[CB] |==|  0.21543
USER: genes 11 Torsion [N]-CA--C-[N] |==|  0.58297
USER: genes 12 Torsion [C]-N--CA-[C] |==|  0.76022
USER: genes 13 Torsion [N]-CA--C-[N] |==|  0.43895
USER: genes 14 Torsion [C]-N--CA-[C] |==|  0.32568
USER: genes 15 Torsion [N]-CA--C-[O] |==|  0.53403
USER: genes 16 Torsion [N]-CA--CB-[CG] |==|  0.54875
USER: genes 17 Torsion [CA]-CB--CG-[OD1] |==|  0.70530
ROOT
ATOM      1  C   PHE B   2      -1.951  20.374   3.433  1.00 26.65 LIG 0.24  C 
ATOM      2 O    PHE B   2      -1.556  19.548   2.661  1.00 26.69 LIG-0.27  OA
ATOM      3  N   ALA B   3      -2.745  20.131   4.449  1.00 26.24 LIG-0.35  N 
ATOM      4 H    ALA B   3      -3.077  20.730   4.970  1.00 26.24 LIG 0.16  HD
ENDROOT
BRANCH 1 5
ATOM      5  CA  PHE B   2      -1.583  21.811   3.314  1.00 26.41 LIG 0.18  C 
BRANCH 5 6
ATOM      6  N   PHE B   2      -0.573  22.039   2.335  1.00 26.57 LIG-0.35  N 
ATOM      7  C   SER B   1       0.678  21.750   2.627  1.00 27.36 LIG 0.25  C 
ATOM      8 O    SER B   1       1.040  21.324   3.692  1.00 27.79 LIG-0.27  OA
ATOM      9 H    PHE B   2      -0.846  22.362   1.586  1.00 26.57 LIG 0.16  HD
BRANCH 7 10
ATOM     10  CA  SER B   1       1.704  22.039   1.590  1.00 27.82 LIG 0.30  C 
BRANCH 10 11
ATOM     11  CB  SER B   1       3.103  21.626   1.973  1.00 27.59 LIG 0.21  C 
BRANCH 11 12
ATOM     12 OG   SER B   1       3.942  21.605   0.841  1.00 28.50 LIG-0.40  OA
ATOM     13 HG   SER B   1       4.383  20.890   0.832  1.00 28.50 LIG 0.21  HD
ENDBRANCH 11 12
ENDBRANCH 10 11
BRANCH 10 14
ATOM     14  N   SER B   1       1.635  23.462   1.403  1.00 28.84 LIG-0.06  N 
ATOM     15 H3   SER B   1       1.857  23.663   0.564  1.00 28.84 LIG 0.28  HD
ATOM     16 H2   SER B   1       2.199  23.863   1.962  1.00 28.84 LIG 0.28  HD
ATOM     17 H1   SER B   1       0.807  23.743   1.565  1.00 28.84 LIG 0.28  HD
ENDBRANCH 10 14
ENDBRANCH 7 10
ENDBRANCH 5 6
BRANCH 5 18
ATOM     18  CB  PHE B   2      -2.819  22.584   3.033  1.00 26.01 LIG 0.07  C 
BRANCH 18 19
ATOM     19  CG  PHE B   2      -3.643  21.978   2.030  1.00 24.17 LIG-0.06  A 
ATOM     20  CD1 PHE B   2      -3.262  22.000   0.722  1.00 21.37 LIG 0.01  A 
ATOM     21  CE1 PHE B   2      -4.003  21.463  -0.155  1.00 18.48 LIG 0.00  A 
ATOM     22  CZ  PHE B   2      -5.118  20.885   0.183  1.00 20.70 LIG 0.00  A 
ATOM     23  CE2 PHE B   2      -5.501  20.789   1.408  1.00 22.44 LIG 0.00  A 
ATOM     24  CD2 PHE B   2      -4.781  21.344   2.362  1.00 23.60 LIG 0.01  A 
ENDBRANCH 18 19
ENDBRANCH 5 18
ENDBRANCH 1 5
BRANCH 3 25
ATOM     25  CA  ALA B   3      -3.110  18.800   4.749  1.00 26.83 LIG 0.17  C 
ATOM     26  CB  ALA B   3      -1.982  18.097   5.454  1.00 26.24 LIG 0.04  C 
BRANCH 25 27
ATOM     27  C   ALA B   3      -4.341  18.825   5.621  1.00 26.95 LIG 0.24  C 
ATOM     28  N   ASN B   4      -4.452  17.819   6.458  1.00 27.94 LIG-0.35  N 
ATOM     29 H    ASN B   4      -3.992  17.092   6.419  1.00 27.94 LIG 0.16  HD
ATOM     30 O    ALA B   3      -5.114  19.697   5.538  1.00 26.45 LIG-0.27  OA
BRANCH 28 31
ATOM     31  CA  ASN B   4      -5.399  17.891   7.535  1.00 28.42 LIG 0.18  C 
BRANCH 31 32
ATOM     32  C   ASN B   4      -4.741  18.585   8.702  1.00 28.91 LIG 0.24  C 
ATOM     33 O    ASN B   4      -3.547  18.644   8.799  1.00 29.45 LIG-0.27  OA
ATOM     34  N   GLY B   5      -5.528  19.136   9.590  1.00 28.92 LIG-0.35  N 
ATOM     35 H    GLY B   5      -6.385  19.169   9.533  1.00 28.92 LIG 0.16  HD
BRANCH 34 36
ATOM     36  CA  GLY B   5      -4.977  19.738  10.753  1.00 29.35 LIG 0.21  C 
BRANCH 36 37
ATOM     37  C   GLY B   5      -5.215  21.197  10.891  1.00 28.99 LIG 0.21  C 
ATOM     38 O    GLY B   5      -4.602  21.796  11.713  1.00 30.45 LIG-0.29  OA
ENDBRANCH 36 37
ENDBRANCH 34 36
ENDBRANCH 31 32
BRANCH 31 39
ATOM     39  CB  ASN B   4      -5.867  16.497   7.948  1.00 28.79 LIG 0.14  C 
BRANCH 39 40
ATOM     40  CG  ASN B   4      -7.120  16.526   8.744  1.00 30.59 LIG 0.22  C 
ATOM     41  ND2 ASN B   4      -8.237  16.830   8.113  1.00 33.19 LIG-0.37  N 
ATOM     42 22HD ASN B   4      -8.227  16.972   7.265  1.00 33.19 LIG 0.16  HD
ATOM     43 21HD ASN B   4      -8.976  16.887   8.549  1.00 33.19 LIG 0.16  HD
ATOM     44 OD1  ASN B   4      -7.086  16.320   9.924  1.00 34.60 LIG-0.27  OA
ENDBRANCH 39 40
ENDBRANCH 31 39
ENDBRANCH 28 31
ENDBRANCH 25 27
ENDBRANCH 3 25
TORSDOF 16
ENDMDL
MODEL 11
USER: ADFR SOLUTION from run 115
USER: SCORE 13.262138 LL:  -2.595 LR: -11.643 RR:   0.000 FEB:  -6.870
USER: RMSD 2.893602
USER: SEED 114
USER: STATUS no improvement in best in 4 clusters for 5 generations
USER: GENES 18
USER: genes 0 Translation |==|  0.53922 0.48471 0.42131
USER: genes 1 Rotation |==|  0.54771 0.49063 0.49572 0.99761
USER: genes 2 Torsion [N]-C--CA-[N] |==|  0.49087
USER: genes 3 Torsion [C]-CA--N-[C] |==|  0.59310
USER: genes 4 Torsion [N]-C--CA-[N] |==|  0.15827
USER: genes 5 Torsion [C]-CA--CB-[OG] |==|  0.80092
USER: genes 6 Torsion [CA]-CB--OG-[HG] |==|  0.27768
USER: genes 7 Torsion [C]-CA--N-[H1] |==|  0.22186
USER: genes 8 Torsion [C]-CA--CB-[CG] |==|  0.57450
USER: genes 9 Torsion [CA]-CB--CG-[CD1] |==|  0.78703
USER: genes 10 Torsion [C]-N--CA-[CB] |==|  0.48892
USER: genes 11 Torsion [N]-CA--C-[N] |==|  0.51587
USER: genes 12 Torsion [C]-N--CA-[C] |==|  0.74234
USER: genes 13 Torsion [N]-CA--C-[N] |==|  0.43083
USER: genes 14 Torsion [C]-N--CA-[C] |==|  0.45139
USER: genes 15 Torsion [N]-CA--C-[O] |==|  0.48880
USER: genes 16 Torsion [N]-CA--CB-[CG] |==|  0.56354
USER: genes 17 Torsion [CA]-CB--CG-[OD1] |==|  0.83758
ROOT
ATOM      1  C   PHE B   2      -1.587  19.501   2.758  1.00 26.65 LIG 0.24  C 
ATOM      2 O    PHE B   2      -2.547  19.946   2.198  1.00 26.69 LIG-0.27  OA
ATOM      3  N   ALA B   3      -1.632  18.691   3.791  1.00 26.24 LIG-0.35  N 
ATOM      4 H    ALA B   3      -0.946  18.416   4.232  1.00 26.24 LIG 0.16  HD
ENDROOT
BRANCH 1 5
ATOM      5  CA  PHE B   2      -0.198  19.834   2.343  1.00 26.41 LIG 0.18  C 
BRANCH 5 6
ATOM      6  N   PHE B   2      -0.158  20.653   1.176  1.00 26.57 LIG-0.35  N 
ATOM      7  C   SER B   1       0.835  20.504   0.324  1.00 27.36 LIG 0.25  C 
ATOM      8 O    SER B   1       1.743  19.730   0.476  1.00 27.79 LIG-0.27  OA
ATOM      9 H    PHE B   2      -0.804  21.215   1.093  1.00 26.57 LIG 0.16  HD
BRANCH 7 10
ATOM     10  CA  SER B   1       0.858  21.405  -0.859  1.00 27.82 LIG 0.30  C 
BRANCH 10 11
ATOM     11  CB  SER B   1       2.052  21.212  -1.759  1.00 27.59 LIG 0.21  C 
BRANCH 11 12
ATOM     12 OG   SER B   1       3.223  21.700  -1.143  1.00 28.50 LIG-0.40  OA
ATOM     13 HG   SER B   1       3.654  21.059  -0.813  1.00 28.50 LIG 0.21  HD
ENDBRANCH 11 12
ENDBRANCH 10 11
BRANCH 10 14
ATOM     14  N   SER B   1       0.859  22.730  -0.302  1.00 28.84 LIG-0.06  N 
ATOM     15 H3   SER B   1       0.309  22.760   0.397  1.00 28.84 LIG 0.28  HD
ATOM     16 H2   SER B   1       0.587  23.312  -0.918  1.00 28.84 LIG 0.28  HD
ATOM     17 H1   SER B   1       1.683  22.941  -0.039  1.00 28.84 LIG 0.28  HD
ENDBRANCH 10 14
ENDBRANCH 7 10
ENDBRANCH 5 6
BRANCH 5 18
ATOM     18  CB  PHE B   2       0.491  20.468   3.495  1.00 26.01 LIG 0.07  C 
BRANCH 18 19
ATOM     19  CG  PHE B   2       1.544  21.354   3.099  1.00 24.17 LIG-0.06  A 
ATOM     20  CD1 PHE B   2       2.741  20.855   2.681  1.00 21.37 LIG 0.01  A 
ATOM     21  CE1 PHE B   2       3.666  21.651   2.338  1.00 18.48 LIG 0.00  A 
ATOM     22  CZ  PHE B   2       3.480  22.938   2.373  1.00 20.70 LIG 0.00  A 
ATOM     23  CE2 PHE B   2       2.354  23.463   2.709  1.00 22.44 LIG 0.00  A 
ATOM     24  CD2 PHE B   2       1.361  22.686   3.093  1.00 23.60 LIG 0.01  A 
ENDBRANCH 18 19
ENDBRANCH 5 18
ENDBRANCH 1 5
BRANCH 3 25
ATOM     25  CA  ALA B   3      -2.878  18.209   4.248  1.00 26.83 LIG 0.17  C 
ATOM     26  CB  ALA B   3      -2.676  17.228   5.371  1.00 26.24 LIG 0.04  C 
BRANCH 25 27
ATOM     27  C   ALA B   3      -3.703  19.382   4.717  1.00 26.95 LIG 0.24  C 
ATOM     28  N   ASN B   4      -4.848  19.068   5.280  1.00 27.94 LIG-0.35  N 
ATOM     29 H    ASN B   4      -5.222  18.295   5.239  1.00 27.94 LIG 0.16  HD
ATOM     30 O    ALA B   3      -3.318  20.476   4.580  1.00 26.45 LIG-0.27  OA
BRANCH 28 31
ATOM     31  CA  ASN B   4      -5.565  20.060   6.032  1.00 28.42 LIG 0.18  C 
BRANCH 31 32
ATOM     32  C   ASN B   4      -5.159  19.945   7.481  1.00 28.91 LIG 0.24  C 
ATOM     33 O    ASN B   4      -4.722  18.922   7.925  1.00 29.45 LIG-0.27  OA
ATOM     34  N   GLY B   5      -5.286  21.016   8.223  1.00 28.92 LIG-0.35  N 
ATOM     35 H    GLY B   5      -5.539  21.785   7.935  1.00 28.92 LIG 0.16  HD
BRANCH 34 36
ATOM     36  CA  GLY B   5      -4.996  20.956   9.612  1.00 29.35 LIG 0.21  C 
BRANCH 36 37
ATOM     37  C   GLY B   5      -4.776  22.266  10.275  1.00 28.99 LIG 0.21  C 
ATOM     38 O    GLY B   5      -4.602  22.285  11.449  1.00 30.45 LIG-0.29  OA
ENDBRANCH 36 37
ENDBRANCH 34 36
ENDBRANCH 31 32
BRANCH 31 39
ATOM     39  CB  ASN B   4      -7.074  19.869   5.891  1.00 28.79 LIG 0.14  C 
BRANCH 39 40
ATOM     40  CG  ASN B   4      -7.837  21.113   6.166  1.00 30.59 LIG 0.22  C 
ATOM     41  ND2 ASN B   4      -8.578  21.603   5.193  1.00 33.19 LIG-0.37  N 
ATOM     42 22HD ASN B   4      -8.632  21.187   4.443  1.00 33.19 LIG 0.16  HD
ATOM     43 21HD ASN B   4      -9.007  22.339   5.308  1.00 33.19 LIG 0.16  HD
ATOM     44 OD1  ASN B   4      -7.731  21.659   7.229  1.00 34.60 LIG-0.27  OA
ENDBRANCH 39 40
ENDBRANCH 31 39
ENDBRANCH 28 31
ENDBRANCH 25 27
ENDBRANCH 3 25
TORSDOF 16
ENDMDL
MODEL 12
USER: ADFR SOLUTION from run 82
USER: SCORE 13.019564 LL:  -2.967 LR: -11.634 RR:   0.000 FEB:  -6.861
USER: RMSD 3.478109
USER: SEED 81
USER: STATUS no improvement in best in 3 clusters for 5 generations
USER: GENES 18
USER: genes 0 Translation |==|  0.50263 0.52427 0.48490
USER: genes 1 Rotation |==|  0.54711 0.56074 0.42223 0.98790
USER: genes 2 Torsion [N]-C--CA-[N] |==|  0.45955
USER: genes 3 Torsion [C]-CA--N-[C] |==|  0.65729
USER: genes 4 Torsion [N]-C--CA-[N] |==|  0.12881
USER: genes 5 Torsion [C]-CA--CB-[OG] |==|  0.68685
USER: genes 6 Torsion [CA]-CB--OG-[HG] |==|  0.49501
USER: genes 7 Torsion [C]-CA--N-[H1] |==|  0.48632
USER: genes 8 Torsion [C]-CA--CB-[CG] |==|  0.57440
USER: genes 9 Torsion [CA]-CB--CG-[CD1] |==|  0.83049
USER: genes 10 Torsion [C]-N--CA-[CB] |==|  0.15886
USER: genes 11 Torsion [N]-CA--C-[N] |==|  0.27680
USER: genes 12 Torsion [C]-N--CA-[C] |==|  0.69451
USER: genes 13 Torsion [N]-CA--C-[N] |==|  0.92412
USER: genes 14 Torsion [C]-N--CA-[C] |==|  0.44721
USER: genes 15 Torsion [N]-CA--C-[O] |==|  0.85778
USER: genes 16 Torsion [N]-CA--CB-[CG] |==|  0.54989
USER: genes 17 Torsion [CA]-CB--CG-[OD1] |==|  0.73993
ROOT
ATOM      1  C   PHE B   2      -2.301  20.094   4.237  1.00 26.65 LIG 0.24  C 
ATOM      2 O    PHE B   2      -3.232  20.801   3.978  1.00 26.69 LIG-0.27  OA
ATOM      3  N   ALA B   3      -2.245  19.273   5.260  1.00 26.24 LIG-0.35  N 
ATOM      4 H    ALA B   3      -1.557  18.808   5.482  1.00 26.24 LIG 0.16  HD
ENDROOT
BRANCH 1 5
ATOM      5  CA  PHE B   2      -1.063  20.076   3.412  1.00 26.41 LIG 0.18  C 
BRANCH 5 6
ATOM      6  N   PHE B   2      -1.243  20.700   2.142  1.00 26.57 LIG-0.35  N 
ATOM      7  C   SER B   1      -0.983  20.012   1.050  1.00 27.36 LIG 0.25  C 
ATOM      8 O    SER B   1      -0.571  18.883   1.046  1.00 27.79 LIG-0.27  OA
ATOM      9 H    PHE B   2      -1.519  21.514   2.163  1.00 26.57 LIG 0.16  HD
BRANCH 7 10
ATOM     10  CA  SER B   1      -1.148  20.714  -0.251  1.00 27.82 LIG 0.30  C 
BRANCH 10 11
ATOM     11  CB  SER B   1      -0.550  19.983  -1.427  1.00 27.59 LIG 0.21  C 
BRANCH 11 12
ATOM     12 OG   SER B   1       0.551  20.695  -1.946  1.00 28.50 LIG-0.40  OA
ATOM     13 HG   SER B   1       0.888  20.263  -2.584  1.00 28.50 LIG 0.21  HD
ENDBRANCH 11 12
ENDBRANCH 10 11
BRANCH 10 14
ATOM     14  N   SER B   1      -0.494  21.980  -0.063  1.00 28.84 LIG-0.06  N 
ATOM     15 H3   SER B   1       0.344  21.845   0.205  1.00 28.84 LIG 0.28  HD
ATOM     16 H2   SER B   1      -0.930  22.451   0.554  1.00 28.84 LIG 0.28  HD
ATOM     17 H1   SER B   1      -0.491  22.430  -0.830  1.00 28.84 LIG 0.28  HD
ENDBRANCH 10 14
ENDBRANCH 7 10
ENDBRANCH 5 6
BRANCH 5 18
ATOM     18  CB  PHE B   2       0.027  20.710   4.197  1.00 26.01 LIG 0.07  C 
BRANCH 18 19
ATOM     19  CG  PHE B   2       1.040  21.298   3.373  1.00 24.17 LIG-0.06  A 
ATOM     20  CD1 PHE B   2       1.760  20.525   2.513  1.00 21.37 LIG 0.01  A 
ATOM     21  CE1 PHE B   2       2.658  21.059   1.793  1.00 18.48 LIG 0.00  A 
ATOM     22  CZ  PHE B   2       2.891  22.336   1.864  1.00 20.70 LIG 0.00  A 
ATOM     23  CE2 PHE B   2       2.207  23.122   2.620  1.00 22.44 LIG 0.00  A 
ATOM     24  CD2 PHE B   2       1.273  22.621   3.404  1.00 23.60 LIG 0.01  A 
ENDBRANCH 18 19
ENDBRANCH 5 18
ENDBRANCH 1 5
BRANCH 3 25
ATOM     25  CA  ALA B   3      -3.379  19.108   6.087  1.00 26.83 LIG 0.17  C 
ATOM     26  CB  ALA B   3      -4.559  18.660   5.269  1.00 26.24 LIG 0.04  C 
BRANCH 25 27
ATOM     27  C   ALA B   3      -3.054  18.085   7.147  1.00 26.95 LIG 0.24  C 
ATOM     28  N   ASN B   4      -2.727  18.580   8.318  1.00 27.94 LIG-0.35  N 
ATOM     29 H    ASN B   4      -2.520  19.402   8.466  1.00 27.94 LIG 0.16  HD
ATOM     30 O    ALA B   3      -3.107  16.942   6.910  1.00 26.45 LIG-0.27  OA
BRANCH 28 31
ATOM     31  CA  ASN B   4      -2.701  17.722   9.470  1.00 28.42 LIG 0.18  C 
BRANCH 31 32
ATOM     32  C   ASN B   4      -3.850  18.099  10.372  1.00 28.91 LIG 0.24  C 
ATOM     33 O    ASN B   4      -4.340  17.303  11.122  1.00 29.45 LIG-0.27  OA
ATOM     34  N   GLY B   5      -4.273  19.336  10.314  1.00 28.92 LIG-0.35  N 
ATOM     35 H    GLY B   5      -3.917  19.954   9.834  1.00 28.92 LIG 0.16  HD
BRANCH 34 36
ATOM     36  CA  GLY B   5      -5.402  19.739  11.078  1.00 29.35 LIG 0.21  C 
BRANCH 36 37
ATOM     37  C   GLY B   5      -5.537  21.201  11.294  1.00 28.99 LIG 0.21  C 
ATOM     38 O    GLY B   5      -4.602  21.801  11.713  1.00 30.45 LIG-0.29  OA
ENDBRANCH 36 37
ENDBRANCH 34 36
ENDBRANCH 31 32
BRANCH 31 39
ATOM     39  CB  ASN B   4      -1.377  17.855  10.222  1.00 28.79 LIG 0.14  C 
BRANCH 39 40
ATOM     40  CG  ASN B   4      -1.125  16.717  11.142  1.00 30.59 LIG 0.22  C 
ATOM     41  ND2 ASN B   4      -0.585  15.628  10.632  1.00 33.19 LIG-0.37  N 
ATOM     42 22HD ASN B   4      -0.363  15.606   9.802  1.00 33.19 LIG 0.16  HD
ATOM     43 21HD ASN B   4      -0.455  14.939  11.130  1.00 33.19 LIG 0.16  HD
ATOM     44 OD1  ASN B   4      -1.451  16.793  12.293  1.00 34.60 LIG-0.27  OA
ENDBRANCH 39 40
ENDBRANCH 31 39
ENDBRANCH 28 31
ENDBRANCH 25 27
ENDBRANCH 3 25
TORSDOF 16
ENDMDL
MODEL 13
USER: ADFR SOLUTION from run 114
USER: SCORE 13.517445 LL:  -2.425 LR: -11.599 RR:   0.000 FEB:  -6.826
USER: RMSD 4.477527
USER: SEED 113
USER: STATUS no improvement in best in 2 clusters for 5 generations
USER: GENES 18
USER: genes 0 Translation |==|  0.41998 0.53720 0.45569
USER: genes 1 Rotation |==|  0.20156 0.32023 0.82652 0.64833
USER: genes 2 Torsion [N]-C--CA-[N] |==|  0.48477
USER: genes 3 Torsion [C]-CA--N-[C] |==|  0.73450
USER: genes 4 Torsion [N]-C--CA-[N] |==|  0.37304
USER: genes 5 Torsion [C]-CA--CB-[OG] |==|  0.04273
USER: genes 6 Torsion [CA]-CB--OG-[HG] |==|  0.39437
USER: genes 7 Torsion [C]-CA--N-[H1] |==|  0.70986
USER: genes 8 Torsion [C]-CA--CB-[CG] |==|  0.40241
USER: genes 9 Torsion [CA]-CB--CG-[CD1] |==|  0.56920
USER: genes 10 Torsion [C]-N--CA-[CB] |==|  0.85445
USER: genes 11 Torsion [N]-CA--C-[N] |==|  0.32222
USER: genes 12 Torsion [C]-N--CA-[C] |==|  0.81153
USER: genes 13 Torsion [N]-CA--C-[N] |==|  0.35855
USER: genes 14 Torsion [C]-N--CA-[C] |==|  0.45683
USER: genes 15 Torsion [N]-CA--C-[O] |==|  0.10445
USER: genes 16 Torsion [N]-CA--CB-[CG] |==|  0.60733
USER: genes 17 Torsion [CA]-CB--CG-[OD1] |==|  0.72131
ROOT
ATOM      1  C   PHE B   2      -3.912  20.288   3.558  1.00 26.65 LIG 0.24  C 
ATOM      2 O    PHE B   2      -3.196  19.370   3.838  1.00 26.69 LIG-0.27  OA
ATOM      3  N   ALA B   3      -5.098  20.499   4.080  1.00 26.24 LIG-0.35  N 
ATOM      4 H    ALA B   3      -5.639  21.123   3.839  1.00 26.24 LIG 0.16  HD
ENDROOT
BRANCH 1 5
ATOM      5  CA  PHE B   2      -3.532  21.313   2.549  1.00 26.41 LIG 0.18  C 
BRANCH 5 6
ATOM      6  N   PHE B   2      -2.196  21.149   2.079  1.00 26.57 LIG-0.35  N 
ATOM      7  C   SER B   1      -1.231  21.848   2.639  1.00 27.36 LIG 0.25  C 
ATOM      8 O    SER B   1      -1.402  22.651   3.517  1.00 27.79 LIG-0.27  OA
ATOM      9 H    PHE B   2      -2.094  20.586   1.437  1.00 26.57 LIG 0.16  HD
BRANCH 7 10
ATOM     10  CA  SER B   1       0.141  21.674   2.091  1.00 27.82 LIG 0.30  C 
BRANCH 10 11
ATOM     11  CB  SER B   1       1.053  20.845   2.961  1.00 27.59 LIG 0.21  C 
BRANCH 11 12
ATOM     12 OG   SER B   1       0.308  20.132   3.923  1.00 28.50 LIG-0.40  OA
ATOM     13 HG   SER B   1       0.644  19.369   4.028  1.00 28.50 LIG 0.21  HD
ENDBRANCH 11 12
ENDBRANCH 10 11
BRANCH 10 14
ATOM     14  N   SER B   1       0.650  23.011   1.963  1.00 28.84 LIG-0.06  N 
ATOM     15 H3   SER B   1       1.485  23.043   2.269  1.00 28.84 LIG 0.28  HD
ATOM     16 H2   SER B   1       0.141  23.570   2.434  1.00 28.84 LIG 0.28  HD
ATOM     17 H1   SER B   1       0.639  23.252   1.106  1.00 28.84 LIG 0.28  HD
ENDBRANCH 10 14
ENDBRANCH 7 10
ENDBRANCH 5 6
BRANCH 5 18
ATOM     18  CB  PHE B   2      -4.523  21.267   1.444  1.00 26.01 LIG 0.07  C 
BRANCH 18 19
ATOM     19  CG  PHE B   2      -4.797  22.557   0.883  1.00 24.17 LIG-0.06  A 
ATOM     20  CD1 PHE B   2      -5.982  22.795   0.256  1.00 21.37 LIG 0.01  A 
ATOM     21  CE1 PHE B   2      -6.209  23.939  -0.241  1.00 18.48 LIG 0.00  A 
ATOM     22  CZ  PHE B   2      -5.325  24.888  -0.149  1.00 20.70 LIG 0.00  A 
ATOM     23  CE2 PHE B   2      -4.211  24.735   0.477  1.00 22.44 LIG 0.00  A 
ATOM     24  CD2 PHE B   2      -3.912  23.561   0.998  1.00 23.60 LIG 0.01  A 
ENDBRANCH 18 19
ENDBRANCH 5 18
ENDBRANCH 1 5
BRANCH 3 25
ATOM     25  CA  ALA B   3      -5.564  19.664   5.119  1.00 26.83 LIG 0.17  C 
ATOM     26  CB  ALA B   3      -5.457  18.219   4.713  1.00 26.24 LIG 0.04  C 
BRANCH 25 27
ATOM     27  C   ALA B   3      -4.735  19.925   6.352  1.00 26.95 LIG 0.24  C 
ATOM     28  N   ASN B   4      -5.396  20.426   7.372  1.00 27.94 LIG-0.35  N 
ATOM     29 H    ASN B   4      -6.185  20.766   7.329  1.00 27.94 LIG 0.16  HD
ATOM     30 O    ALA B   3      -3.593  19.681   6.368  1.00 26.45 LIG-0.27  OA
BRANCH 28 31
ATOM     31  CA  ASN B   4      -4.794  20.427   8.676  1.00 28.42 LIG 0.18  C 
BRANCH 31 32
ATOM     32  C   ASN B   4      -4.681  18.999   9.150  1.00 28.91 LIG 0.24  C 
ATOM     33 O    ASN B   4      -5.619  18.253   9.109  1.00 29.45 LIG-0.27  OA
ATOM     34  N   GLY B   5      -3.512  18.605   9.586  1.00 28.92 LIG-0.35  N 
ATOM     35 H    GLY B   5      -2.799  19.086   9.579  1.00 28.92 LIG 0.16  HD
BRANCH 34 36
ATOM     36  CA  GLY B   5      -3.354  17.297  10.118  1.00 29.35 LIG 0.21  C 
BRANCH 36 37
ATOM     37  C   GLY B   5      -1.953  16.825  10.247  1.00 28.99 LIG 0.21  C 
ATOM     38 O    GLY B   5      -1.120  17.606  10.575  1.00 30.45 LIG-0.29  OA
ENDBRANCH 36 37
ENDBRANCH 34 36
ENDBRANCH 31 32
BRANCH 31 39
ATOM     39  CB  ASN B   4      -5.628  21.243   9.663  1.00 28.79 LIG 0.14  C 
BRANCH 39 40
ATOM     40  CG  ASN B   4      -4.791  22.032  10.603  1.00 30.59 LIG 0.22  C 
ATOM     41  ND2 ASN B   4      -4.241  23.139  10.148  1.00 33.19 LIG-0.37  N 
ATOM     42 22HD ASN B   4      -4.397  23.398   9.343  1.00 33.19 LIG 0.16  HD
ATOM     43 21HD ASN B   4      -3.725  23.604  10.656  1.00 33.19 LIG 0.16  HD
ATOM     44 OD1  ASN B   4      -4.602  21.632  11.717  1.00 34.60 LIG-0.27  OA
ENDBRANCH 39 40
ENDBRANCH 31 39
ENDBRANCH 28 31
ENDBRANCH 25 27
ENDBRANCH 3 25
TORSDOF 16
ENDMDL
