MODEL 1
USER: ADFR SOLUTION from run 66
USER: SCORE 10.504082 LL:  -2.468 LR: -10.263 RR:   0.000 FEB:  -6.087
USER: RMSD 3.795149
USER: SEED 65
USER: STATUS no improvement in best in 8 clusters for 5 generations
USER: GENES 16
USER: genes 0 Translation |==|  0.69002 0.47712 0.58829
USER: genes 1 Rotation |==|  0.45759 0.39394 0.51907 0.98640
USER: genes 2 Torsion [C]-N--CA-[CB] |==|  0.41262
USER: genes 3 Torsion [N]-CA--CB-[CG] |==|  0.85284
USER: genes 4 Torsion [CA]-CB--CG-[CD2] |==|  0.36821
USER: genes 5 Torsion [CE2]-CZ--OH-[HH] |==|  0.97414
USER: genes 6 Torsion [N]-CA--C-[N] |==|  0.46776
USER: genes 7 Torsion [C]-N--CA-[C] |==|  0.61580
USER: genes 8 Torsion [N]-CA--C-[O] |==|  0.15313
USER: genes 9 Torsion [N]-C--CA-[N] |==|  0.62839
USER: genes 10 Torsion [C]-CA--N-[C] |==|  0.65681
USER: genes 11 Torsion [N]-C--CA-[N] |==|  0.04792
USER: genes 12 Torsion [C]-CA--CB-[CG] |==|  0.24460
USER: genes 13 Torsion [CA]-CB--CG-[OD1] |==|  0.47263
USER: genes 14 Torsion [C]-CA--CB-[CG] |==|  0.37246
USER: genes 15 Torsion [CA]-CB--CG-[CD2] |==|  0.08856
ROOT
ATOM      1  C   LEU F 804      14.696 -12.019  34.224  1.00 42.60 LIG 0.24  C 
ATOM      2 O    LEU F 804      15.562 -11.823  35.084  1.00 42.72 LIG-0.27  OA
ATOM      3  N   TYR F 805      13.925 -11.047  33.734  1.00 41.09 LIG-0.35  N 
ATOM      4 H    TYR F 805      13.208 -11.191  33.280  1.00 41.09 LIG 0.16  HD
ENDROOT
BRANCH 3 5
ATOM      5  CA  TYR F 805      14.235  -9.618  33.929  1.00 40.08 LIG 0.18  C 
BRANCH 5 6
ATOM      6  CB  TYR F 805      13.738  -8.814  32.719  1.00 38.23 LIG 0.07  C 
BRANCH 6 7
ATOM      7  CG  TYR F 805      14.243  -9.354  31.404  1.00 36.43 LIG-0.06  A 
ATOM      8  CD2 TYR F 805      13.375  -9.547  30.335  1.00 35.39 LIG 0.01  A 
ATOM      9  CE2 TYR F 805      13.827 -10.062  29.119  1.00 33.62 LIG 0.04  A 
ATOM     10  CZ  TYR F 805      15.162 -10.381  28.968  1.00 33.40 LIG 0.07  A 
ATOM     11  CE1 TYR F 805      16.055 -10.195  30.018  1.00 31.77 LIG 0.04  A 
ATOM     12  CD1 TYR F 805      15.592  -9.684  31.230  1.00 33.46 LIG 0.01  A 
BRANCH 10 13
ATOM     13 OH   TYR F 805      15.596 -10.879  27.759  1.00 32.97 LIG-0.36  OA
ATOM     14 HH   TYR F 805      14.933 -11.049  27.271  1.00 32.97 LIG 0.22  HD
ENDBRANCH 10 13
ENDBRANCH 6 7
ENDBRANCH 5 6
BRANCH 5 15
ATOM     15  C   TYR F 805      13.661  -9.016  35.225  1.00 40.65 LIG 0.24  C 
ATOM     16 O    TYR F 805      12.841  -9.658  35.887  1.00 41.05 LIG-0.27  OA
ATOM     17  N   GLY F 806      14.086  -7.800  35.602  1.00 41.21 LIG-0.35  N 
ATOM     18 H    GLY F 806      13.744  -7.377  36.268  1.00 41.21 LIG 0.16  HD
BRANCH 17 19
ATOM     19  CA  GLY F 806      15.172  -7.049  34.935  1.00 41.66 LIG 0.21  C 
BRANCH 19 20
ATOM     20  C   GLY F 806      16.145  -6.331  35.860  1.00 41.93 LIG 0.21  C 
ATOM     21 O    GLY F 806      16.754  -6.938  36.755  1.00 42.62 LIG-0.29  OA
ENDBRANCH 19 20
ENDBRANCH 17 19
ENDBRANCH 5 15
ENDBRANCH 3 5
BRANCH 1 22
ATOM     22  CA  LEU F 804      14.471 -13.440  33.675  1.00 43.64 LIG 0.18  C 
BRANCH 22 23
ATOM     23  N   LEU F 804      14.399 -14.503  34.678  1.00 45.07 LIG-0.35  N 
ATOM     24  C   ASP F 803      15.205 -15.559  34.649  1.00 46.18 LIG 0.26  C 
ATOM     25 O    ASP F 803      16.124 -15.677  33.827  1.00 46.48 LIG-0.27  OA
ATOM     26 H    LEU F 804      13.795 -14.380  35.277  1.00 45.07 LIG 0.16  HD
BRANCH 24 27
ATOM     27  CA  ASP F 803      14.945 -16.643  35.709  1.00 46.88 LIG 0.41  C 
ATOM     28  N   ASP F 803      13.593 -16.524  36.324  1.00 47.04 LIG 0.61  N 
BRANCH 27 29
ATOM     29  CB  ASP F 803      15.113 -18.038  35.099  1.00 47.42 LIG 0.16  C 
BRANCH 29 30
ATOM     30  CG  ASP F 803      16.554 -18.545  35.169  1.00 48.96 LIG 0.17  C 
ATOM     31 OD1  ASP F 803      16.763 -19.745  34.871  1.00 50.04 LIG-0.65  OA
ATOM     32 OD2  ASP F 803      17.471 -17.761  35.521  1.00 49.91 LIG-0.65  OA
ENDBRANCH 29 30
ENDBRANCH 27 29
ENDBRANCH 24 27
ENDBRANCH 22 23
BRANCH 22 33
ATOM     33  CB  LEU F 804      13.216 -13.475  32.794  1.00 43.69 LIG 0.04  C 
BRANCH 33 34
ATOM     34  CG  LEU F 804      13.206 -14.173  31.421  1.00 43.67 LIG-0.02  C 
ATOM     35  CD2 LEU F 804      14.151 -15.357  31.440  1.00 43.56 LIG 0.01  C 
ATOM     36  CD1 LEU F 804      13.515 -13.242  30.250  1.00 44.06 LIG 0.01  C 
ENDBRANCH 33 34
ENDBRANCH 22 33
ENDBRANCH 1 22
TORSDOF 14
ENDMDL
MODEL 2
USER: ADFR SOLUTION from run 66
USER: SCORE 10.979352 LL:  -2.665 LR: -10.107 RR:   0.000 FEB:  -5.931
USER: RMSD 3.898893
USER: SEED 65
USER: STATUS no improvement in best in 8 clusters for 5 generations
USER: GENES 16
USER: genes 0 Translation |==|  0.62040 0.44689 0.51350
USER: genes 1 Rotation |==|  0.43568 0.51981 0.63624 0.97635
USER: genes 2 Torsion [C]-N--CA-[CB] |==|  0.25849
USER: genes 3 Torsion [N]-CA--CB-[CG] |==|  0.77575
USER: genes 4 Torsion [CA]-CB--CG-[CD2] |==|  0.34626
USER: genes 5 Torsion [CE2]-CZ--OH-[HH] |==|  0.42704
USER: genes 6 Torsion [N]-CA--C-[N] |==|  0.35081
USER: genes 7 Torsion [C]-N--CA-[C] |==|  0.82641
USER: genes 8 Torsion [N]-CA--C-[O] |==|  0.38953
USER: genes 9 Torsion [N]-C--CA-[N] |==|  0.72535
USER: genes 10 Torsion [C]-CA--N-[C] |==|  0.66687
USER: genes 11 Torsion [N]-C--CA-[N] |==|  0.00511
USER: genes 12 Torsion [C]-CA--CB-[CG] |==|  0.24883
USER: genes 13 Torsion [CA]-CB--CG-[OD1] |==|  0.56601
USER: genes 14 Torsion [C]-CA--CB-[CG] |==|  0.28311
USER: genes 15 Torsion [CA]-CB--CG-[CD2] |==|  0.26397
ROOT
ATOM      1  C   LEU F 804      13.652 -12.631  32.878  1.00 42.60 LIG 0.24  C 
ATOM      2 O    LEU F 804      14.633 -11.923  33.130  1.00 42.72 LIG-0.27  OA
ATOM      3  N   TYR F 805      12.412 -12.148  32.781  1.00 41.09 LIG-0.35  N 
ATOM      4 H    TYR F 805      11.707 -12.641  32.789  1.00 41.09 LIG 0.16  HD
ENDROOT
BRANCH 3 5
ATOM      5  CA  TYR F 805      12.134 -10.705  32.650  1.00 40.08 LIG 0.18  C 
BRANCH 5 6
ATOM      6  CB  TYR F 805      12.028 -10.335  31.165  1.00 38.23 LIG 0.07  C 
BRANCH 6 7
ATOM      7  CG  TYR F 805      13.372 -10.149  30.505  1.00 36.43 LIG-0.06  A 
ATOM      8  CD2 TYR F 805      13.711 -10.873  29.366  1.00 35.39 LIG 0.01  A 
ATOM      9  CE2 TYR F 805      14.957 -10.723  28.758  1.00 33.62 LIG 0.04  A 
ATOM     10  CZ  TYR F 805      15.873  -9.836  29.288  1.00 33.40 LIG 0.07  A 
ATOM     11  CE1 TYR F 805      15.562  -9.096  30.423  1.00 31.77 LIG 0.04  A 
ATOM     12  CD1 TYR F 805      14.315  -9.256  31.027  1.00 33.46 LIG 0.01  A 
BRANCH 10 13
ATOM     13 OH   TYR F 805      17.096  -9.691  28.670  1.00 32.97 LIG-0.36  OA
ATOM     14 HH   TYR F 805      17.403  -8.926  28.832  1.00 32.97 LIG 0.22  HD
ENDBRANCH 10 13
ENDBRANCH 6 7
ENDBRANCH 5 6
BRANCH 5 15
ATOM     15  C   TYR F 805      10.872 -10.232  33.396  1.00 40.65 LIG 0.24  C 
ATOM     16 O    TYR F 805       9.795 -10.799  33.195  1.00 41.05 LIG-0.27  OA
ATOM     17  N   GLY F 806      10.991  -9.212  34.259  1.00 41.21 LIG-0.35  N 
ATOM     18 H    GLY F 806      10.312  -8.850  34.643  1.00 41.21 LIG 0.16  HD
BRANCH 17 19
ATOM     19  CA  GLY F 806      12.276  -8.593  34.652  1.00 41.66 LIG 0.21  C 
BRANCH 19 20
ATOM     20  C   GLY F 806      13.259  -9.509  35.369  1.00 41.93 LIG 0.21  C 
ATOM     21 O    GLY F 806      14.476  -9.462  35.133  1.00 42.62 LIG-0.29  OA
ENDBRANCH 19 20
ENDBRANCH 17 19
ENDBRANCH 5 15
ENDBRANCH 3 5
BRANCH 1 22
ATOM     22  CA  LEU F 804      13.835 -14.145  32.664  1.00 43.64 LIG 0.18  C 
BRANCH 22 23
ATOM     23  N   LEU F 804      13.932 -14.950  33.882  1.00 45.07 LIG-0.35  N 
ATOM     24  C   ASP F 803      15.004 -15.686  34.160  1.00 46.18 LIG 0.26  C 
ATOM     25 O    ASP F 803      16.022 -15.677  33.456  1.00 46.48 LIG-0.27  OA
ATOM     26 H    LEU F 804      13.242 -14.901  34.392  1.00 45.07 LIG 0.16  HD
BRANCH 24 27
ATOM     27  CA  ASP F 803      14.920 -16.557  35.425  1.00 46.88 LIG 0.41  C 
ATOM     28  N   ASP F 803      13.599 -16.447  36.106  1.00 47.04 LIG 0.61  N 
BRANCH 27 29
ATOM     29  CB  ASP F 803      15.204 -18.023  35.084  1.00 47.42 LIG 0.16  C 
BRANCH 29 30
ATOM     30  CG  ASP F 803      16.689 -18.377  35.177  1.00 48.96 LIG 0.17  C 
ATOM     31 OD1  ASP F 803      17.096 -19.358  34.510  1.00 50.04 LIG-0.65  OA
ATOM     32 OD2  ASP F 803      17.445 -17.690  35.909  1.00 49.91 LIG-0.65  OA
ENDBRANCH 29 30
ENDBRANCH 27 29
ENDBRANCH 24 27
ENDBRANCH 22 23
BRANCH 22 33
ATOM     33  CB  LEU F 804      12.715 -14.694  31.770  1.00 43.69 LIG 0.04  C 
BRANCH 33 34
ATOM     34  CG  LEU F 804      12.942 -14.999  30.279  1.00 43.67 LIG-0.02  C 
ATOM     35  CD2 LEU F 804      13.285 -16.465  30.101  1.00 43.56 LIG 0.01  C 
ATOM     36  CD1 LEU F 804      13.988 -14.106  29.615  1.00 44.06 LIG 0.01  C 
ENDBRANCH 33 34
ENDBRANCH 22 33
ENDBRANCH 1 22
TORSDOF 14
ENDMDL
MODEL 3
USER: ADFR SOLUTION from run 61
USER: SCORE 10.142910 LL:  -2.805 LR:  -9.596 RR:   0.000 FEB:  -5.420
USER: RMSD 3.800487
USER: SEED 60
USER: STATUS no improvement in best in 3 clusters for 5 generations
USER: GENES 16
USER: genes 0 Translation |==|  0.65199 0.52660 0.57679
USER: genes 1 Rotation |==|  0.49278 0.37640 0.60130 0.97372
USER: genes 2 Torsion [C]-N--CA-[CB] |==|  0.27154
USER: genes 3 Torsion [N]-CA--CB-[CG] |==|  0.01066
USER: genes 4 Torsion [CA]-CB--CG-[CD2] |==|  0.24509
USER: genes 5 Torsion [CE2]-CZ--OH-[HH] |==|  0.97691
USER: genes 6 Torsion [N]-CA--C-[N] |==|  0.44668
USER: genes 7 Torsion [C]-N--CA-[C] |==|  0.31719
USER: genes 8 Torsion [N]-CA--C-[O] |==|  0.07527
USER: genes 9 Torsion [N]-C--CA-[N] |==|  0.66667
USER: genes 10 Torsion [C]-CA--N-[C] |==|  0.78453
USER: genes 11 Torsion [N]-C--CA-[N] |==|  0.87787
USER: genes 12 Torsion [C]-CA--CB-[CG] |==|  0.26777
USER: genes 13 Torsion [CA]-CB--CG-[OD1] |==|  0.44853
USER: genes 14 Torsion [C]-CA--CB-[CG] |==|  0.47168
USER: genes 15 Torsion [CA]-CB--CG-[CD2] |==|  0.55944
ROOT
ATOM      1  C   LEU F 804      14.126 -11.017  34.017  1.00 42.60 LIG 0.24  C 
ATOM      2 O    LEU F 804      14.837 -10.593  34.935  1.00 42.72 LIG-0.27  OA
ATOM      3  N   TYR F 805      13.077 -10.344  33.539  1.00 41.09 LIG-0.35  N 
ATOM      4 H    TYR F 805      12.474 -10.696  33.038  1.00 41.09 LIG 0.16  HD
ENDROOT
BRANCH 3 5
ATOM      5  CA  TYR F 805      12.856  -8.915  33.831  1.00 40.08 LIG 0.18  C 
BRANCH 5 6
ATOM      6  CB  TYR F 805      13.374  -8.065  32.663  1.00 38.23 LIG 0.07  C 
BRANCH 6 7
ATOM      7  CG  TYR F 805      13.877  -8.894  31.507  1.00 36.43 LIG-0.06  A 
ATOM      8  CD2 TYR F 805      13.010  -9.309  30.501  1.00 35.39 LIG 0.01  A 
ATOM      9  CE2 TYR F 805      13.460 -10.091  29.436  1.00 33.62 LIG 0.04  A 
ATOM     10  CZ  TYR F 805      14.790 -10.457  29.372  1.00 33.40 LIG 0.07  A 
ATOM     11  CE1 TYR F 805      15.681 -10.055  30.362  1.00 31.77 LIG 0.04  A 
ATOM     12  CD1 TYR F 805      15.220  -9.277  31.424  1.00 33.46 LIG 0.01  A 
BRANCH 10 13
ATOM     13 OH   TYR F 805      15.221 -11.221  28.310  1.00 32.97 LIG-0.36  OA
ATOM     14 HH   TYR F 805      14.559 -11.474  27.859  1.00 32.97 LIG 0.22  HD
ENDBRANCH 10 13
ENDBRANCH 6 7
ENDBRANCH 5 6
BRANCH 5 15
ATOM     15  C   TYR F 805      11.390  -8.549  34.132  1.00 40.65 LIG 0.24  C 
ATOM     16 O    TYR F 805      10.487  -9.314  33.786  1.00 41.05 LIG-0.27  OA
ATOM     17  N   GLY F 806      11.144  -7.399  34.777  1.00 41.21 LIG-0.35  N 
ATOM     18 H    GLY F 806      10.347  -7.100  34.901  1.00 41.21 LIG 0.16  HD
BRANCH 17 19
ATOM     19  CA  GLY F 806      12.187  -6.518  35.346  1.00 41.66 LIG 0.21  C 
BRANCH 19 20
ATOM     20  C   GLY F 806      12.321  -5.147  34.697  1.00 41.93 LIG 0.21  C 
ATOM     21 O    GLY F 806      11.359  -4.600  34.137  1.00 42.62 LIG-0.29  OA
ENDBRANCH 19 20
ENDBRANCH 17 19
ENDBRANCH 5 15
ENDBRANCH 3 5
BRANCH 1 22
ATOM     22  CA  LEU F 804      14.435 -12.383  33.377  1.00 43.64 LIG 0.18  C 
BRANCH 22 23
ATOM     23  N   LEU F 804      14.400 -13.530  34.284  1.00 45.07 LIG-0.35  N 
ATOM     24  C   ASP F 803      15.394 -13.798  35.125  1.00 46.18 LIG 0.26  C 
ATOM     25 O    ASP F 803      16.375 -13.055  35.260  1.00 46.48 LIG-0.27  OA
ATOM     26 H    LEU F 804      13.686 -14.006  34.222  1.00 45.07 LIG 0.16  HD
BRANCH 24 27
ATOM     27  CA  ASP F 803      15.260 -15.094  35.944  1.00 46.88 LIG 0.41  C 
ATOM     28  N   ASP F 803      13.889 -15.279  36.498  1.00 47.04 LIG 0.61  N 
BRANCH 27 29
ATOM     29  CB  ASP F 803      15.640 -16.308  35.089  1.00 47.42 LIG 0.16  C 
BRANCH 29 30
ATOM     30  CG  ASP F 803      17.090 -16.747  35.294  1.00 48.96 LIG 0.17  C 
ATOM     31 OD1  ASP F 803      17.402 -17.907  34.935  1.00 50.04 LIG-0.65  OA
ATOM     32 OD2  ASP F 803      17.912 -15.949  35.810  1.00 49.91 LIG-0.65  OA
ENDBRANCH 29 30
ENDBRANCH 27 29
ENDBRANCH 24 27
ENDBRANCH 22 23
BRANCH 22 33
ATOM     33  CB  LEU F 804      13.500 -12.636  32.188  1.00 43.69 LIG 0.04  C 
BRANCH 33 34
ATOM     34  CG  LEU F 804      13.722 -13.807  31.214  1.00 43.67 LIG-0.02  C 
ATOM     35  CD2 LEU F 804      13.021 -13.522  29.900  1.00 43.56 LIG 0.01  C 
ATOM     36  CD1 LEU F 804      13.307 -15.166  31.773  1.00 44.06 LIG 0.01  C 
ENDBRANCH 33 34
ENDBRANCH 22 33
ENDBRANCH 1 22
TORSDOF 14
ENDMDL
MODEL 4
USER: ADFR SOLUTION from run 66
USER: SCORE 10.186588 LL:  -2.599 LR:  -9.539 RR:   0.000 FEB:  -5.363
USER: RMSD 3.822746
USER: SEED 65
USER: STATUS no improvement in best in 8 clusters for 5 generations
USER: GENES 16
USER: genes 0 Translation |==|  0.68741 0.46662 0.57965
USER: genes 1 Rotation |==|  0.48352 0.43121 0.52267 0.99445
USER: genes 2 Torsion [C]-N--CA-[CB] |==|  0.38997
USER: genes 3 Torsion [N]-CA--CB-[CG] |==|  0.84840
USER: genes 4 Torsion [CA]-CB--CG-[CD2] |==|  0.34046
USER: genes 5 Torsion [CE2]-CZ--OH-[HH] |==|  0.96454
USER: genes 6 Torsion [N]-CA--C-[N] |==|  0.87478
USER: genes 7 Torsion [C]-N--CA-[C] |==|  0.76167
USER: genes 8 Torsion [N]-CA--C-[O] |==|  0.36055
USER: genes 9 Torsion [N]-C--CA-[N] |==|  0.66946
USER: genes 10 Torsion [C]-CA--N-[C] |==|  0.67435
USER: genes 11 Torsion [N]-C--CA-[N] |==|  0.05927
USER: genes 12 Torsion [C]-CA--CB-[CG] |==|  0.24450
USER: genes 13 Torsion [CA]-CB--CG-[OD1] |==|  0.47107
USER: genes 14 Torsion [C]-CA--CB-[CG] |==|  0.39045
USER: genes 15 Torsion [CA]-CB--CG-[CD2] |==|  0.08150
ROOT
ATOM      1  C   LEU F 804      14.657 -12.232  34.069  1.00 42.60 LIG 0.24  C 
ATOM      2 O    LEU F 804      15.644 -12.091  34.799  1.00 42.72 LIG-0.27  OA
ATOM      3  N   TYR F 805      13.804 -11.241  33.800  1.00 41.09 LIG-0.35  N 
ATOM      4 H    TYR F 805      13.027 -11.364  33.451  1.00 41.09 LIG 0.16  HD
ENDROOT
BRANCH 3 5
ATOM      5  CA  TYR F 805      14.120  -9.828  34.081  1.00 40.08 LIG 0.18  C 
BRANCH 5 6
ATOM      6  CB  TYR F 805      13.600  -8.948  32.937  1.00 38.23 LIG 0.07  C 
BRANCH 6 7
ATOM      7  CG  TYR F 805      14.109  -9.377  31.583  1.00 36.43 LIG-0.06  A 
ATOM      8  CD2 TYR F 805      13.223  -9.709  30.563  1.00 35.39 LIG 0.01  A 
ATOM      9  CE2 TYR F 805      13.682 -10.125  29.312  1.00 33.62 LIG 0.04  A 
ATOM     10  CZ  TYR F 805      15.040 -10.205  29.076  1.00 33.40 LIG 0.07  A 
ATOM     11  CE1 TYR F 805      15.951  -9.876  30.075  1.00 31.77 LIG 0.04  A 
ATOM     12  CD1 TYR F 805      15.482  -9.466  31.323  1.00 33.46 LIG 0.01  A 
BRANCH 10 13
ATOM     13 OH   TYR F 805      15.478 -10.607  27.833  1.00 32.97 LIG-0.36  OA
ATOM     14 HH   TYR F 805      14.835 -10.929  27.400  1.00 32.97 LIG 0.22  HD
ENDBRANCH 10 13
ENDBRANCH 6 7
ENDBRANCH 5 6
BRANCH 5 15
ATOM     15  C   TYR F 805      13.573  -9.311  35.425  1.00 40.65 LIG 0.24  C 
ATOM     16 O    TYR F 805      14.294  -8.629  36.157  1.00 41.05 LIG-0.27  OA
ATOM     17  N   GLY F 806      12.308  -9.616  35.754  1.00 41.21 LIG-0.35  N 
ATOM     18 H    GLY F 806      11.973  -9.428  36.523  1.00 41.21 LIG 0.16  HD
BRANCH 17 19
ATOM     19  CA  GLY F 806      11.351 -10.300  34.856  1.00 41.66 LIG 0.21  C 
BRANCH 19 20
ATOM     20  C   GLY F 806      10.577  -9.398  33.905  1.00 41.93 LIG 0.21  C 
ATOM     21 O    GLY F 806      10.513  -9.642  32.690  1.00 42.62 LIG-0.29  OA
ENDBRANCH 19 20
ENDBRANCH 17 19
ENDBRANCH 5 15
ENDBRANCH 3 5
BRANCH 1 22
ATOM     22  CA  LEU F 804      14.369 -13.602  33.427  1.00 43.64 LIG 0.18  C 
BRANCH 22 23
ATOM     23  N   LEU F 804      14.138 -14.703  34.362  1.00 45.07 LIG-0.35  N 
ATOM     24  C   ASP F 803      14.937 -15.763  34.417  1.00 46.18 LIG 0.26  C 
ATOM     25 O    ASP F 803      15.974 -15.855  33.747  1.00 46.48 LIG-0.27  OA
ATOM     26 H    LEU F 804      13.447 -14.600  34.863  1.00 45.07 LIG 0.16  HD
BRANCH 24 27
ATOM     27  CA  ASP F 803      14.511 -16.887  35.378  1.00 46.88 LIG 0.41  C 
ATOM     28  N   ASP F 803      13.057 -16.839  35.700  1.00 47.04 LIG 0.61  N 
BRANCH 27 29
ATOM     29  CB  ASP F 803      14.865 -18.256  34.789  1.00 47.42 LIG 0.16  C 
BRANCH 29 30
ATOM     30  CG  ASP F 803      16.282 -18.708  35.147  1.00 48.96 LIG 0.17  C 
ATOM     31 OD1  ASP F 803      16.598 -19.892  34.885  1.00 50.04 LIG-0.65  OA
ATOM     32 OD2  ASP F 803      17.073 -17.894  35.687  1.00 49.91 LIG-0.65  OA
ENDBRANCH 29 30
ENDBRANCH 27 29
ENDBRANCH 24 27
ENDBRANCH 22 23
BRANCH 22 33
ATOM     33  CB  LEU F 804      13.188 -13.493  32.454  1.00 43.69 LIG 0.04  C 
BRANCH 33 34
ATOM     34  CG  LEU F 804      13.173 -14.241  31.108  1.00 43.67 LIG-0.02  C 
ATOM     35  CD2 LEU F 804      13.983 -15.517  31.220  1.00 43.56 LIG 0.01  C 
ATOM     36  CD1 LEU F 804      13.640 -13.396  29.924  1.00 44.06 LIG 0.01  C 
ENDBRANCH 33 34
ENDBRANCH 22 33
ENDBRANCH 1 22
TORSDOF 14
ENDMDL
MODEL 5
USER: ADFR SOLUTION from run 75
USER: SCORE 11.759704 LL:  -3.487 LR:  -9.493 RR:   0.000 FEB:  -5.317
USER: RMSD 2.891395
USER: SEED 74
USER: STATUS no improvement in best in 5 clusters for 5 generations
USER: GENES 16
USER: genes 0 Translation |==|  0.59904 0.48732 0.50682
USER: genes 1 Rotation |==|  0.53318 0.46885 0.52178 0.99745
USER: genes 2 Torsion [C]-N--CA-[CB] |==|  0.27166
USER: genes 3 Torsion [N]-CA--CB-[CG] |==|  0.89297
USER: genes 4 Torsion [CA]-CB--CG-[CD2] |==|  0.26835
USER: genes 5 Torsion [CE2]-CZ--OH-[HH] |==|  0.97944
USER: genes 6 Torsion [N]-CA--C-[N] |==|  0.47557
USER: genes 7 Torsion [C]-N--CA-[C] |==|  0.80987
USER: genes 8 Torsion [N]-CA--C-[O] |==|  0.09291
USER: genes 9 Torsion [N]-C--CA-[N] |==|  0.94451
USER: genes 10 Torsion [C]-CA--N-[C] |==|  0.77549
USER: genes 11 Torsion [N]-C--CA-[N] |==|  0.92708
USER: genes 12 Torsion [C]-CA--CB-[CG] |==|  0.65362
USER: genes 13 Torsion [CA]-CB--CG-[OD1] |==|  0.16221
USER: genes 14 Torsion [C]-CA--CB-[CG] |==|  0.47298
USER: genes 15 Torsion [CA]-CB--CG-[CD2] |==|  0.23914
ROOT
ATOM      1  C   LEU F 804      13.332 -11.813  32.758  1.00 42.60 LIG 0.24  C 
ATOM      2 O    LEU F 804      14.422 -11.778  33.338  1.00 42.72 LIG-0.27  OA
ATOM      3  N   TYR F 805      12.443 -10.818  32.820  1.00 41.09 LIG-0.35  N 
ATOM      4 H    TYR F 805      11.621 -10.899  32.579  1.00 41.09 LIG 0.16  HD
ENDROOT
BRANCH 3 5
ATOM      5  CA  TYR F 805      12.796  -9.473  33.311  1.00 40.08 LIG 0.18  C 
BRANCH 5 6
ATOM      6  CB  TYR F 805      13.085  -8.550  32.121  1.00 38.23 LIG 0.07  C 
BRANCH 6 7
ATOM      7  CG  TYR F 805      13.826  -9.241  31.003  1.00 36.43 LIG-0.06  A 
ATOM      8  CD2 TYR F 805      13.141  -9.762  29.911  1.00 35.39 LIG 0.01  A 
ATOM      9  CE2 TYR F 805      13.814 -10.419  28.880  1.00 33.62 LIG 0.04  A 
ATOM     10  CZ  TYR F 805      15.188 -10.551  28.938  1.00 33.40 LIG 0.07  A 
ATOM     11  CE1 TYR F 805      15.901 -10.036  30.015  1.00 31.77 LIG 0.04  A 
ATOM     12  CD1 TYR F 805      15.218  -9.386  31.043  1.00 33.46 LIG 0.01  A 
BRANCH 10 13
ATOM     13 OH   TYR F 805      15.840 -11.193  27.908  1.00 32.97 LIG-0.36  OA
ATOM     14 HH   TYR F 805      15.275 -11.529  27.385  1.00 32.97 LIG 0.22  HD
ENDBRANCH 10 13
ENDBRANCH 6 7
ENDBRANCH 5 6
BRANCH 5 15
ATOM     15  C   TYR F 805      11.732  -8.832  34.222  1.00 40.65 LIG 0.24  C 
ATOM     16 O    TYR F 805      10.633  -9.376  34.355  1.00 41.05 LIG-0.27  OA
ATOM     17  N   GLY F 806      12.044  -7.692  34.857  1.00 41.21 LIG-0.35  N 
ATOM     18 H    GLY F 806      11.468  -7.244  35.312  1.00 41.21 LIG 0.16  HD
BRANCH 17 19
ATOM     19  CA  GLY F 806      13.388  -7.074  34.855  1.00 41.66 LIG 0.21  C 
BRANCH 19 20
ATOM     20  C   GLY F 806      14.468  -7.839  35.609  1.00 41.93 LIG 0.21  C 
ATOM     21 O    GLY F 806      14.471  -9.078  35.653  1.00 42.62 LIG-0.29  OA
ENDBRANCH 19 20
ENDBRANCH 17 19
ENDBRANCH 5 15
ENDBRANCH 3 5
BRANCH 1 22
ATOM     22  CA  LEU F 804      12.949 -13.047  31.920  1.00 43.64 LIG 0.18  C 
BRANCH 22 23
ATOM     23  N   LEU F 804      11.519 -13.215  31.658  1.00 45.07 LIG-0.35  N 
ATOM     24  C   ASP F 803      10.694 -13.747  32.553  1.00 46.18 LIG 0.26  C 
ATOM     25 O    ASP F 803      11.056 -14.058  33.695  1.00 46.48 LIG-0.27  OA
ATOM     26 H    LEU F 804      11.269 -12.941  30.882  1.00 45.07 LIG 0.16  HD
BRANCH 24 27
ATOM     27  CA  ASP F 803       9.238 -13.954  32.098  1.00 46.88 LIG 0.41  C 
ATOM     28  N   ASP F 803       8.838 -13.003  31.022  1.00 47.04 LIG 0.61  N 
BRANCH 27 29
ATOM     29  CB  ASP F 803       9.028 -15.393  31.618  1.00 47.42 LIG 0.16  C 
BRANCH 29 30
ATOM     30  CG  ASP F 803       8.470 -15.470  30.196  1.00 48.96 LIG 0.17  C 
ATOM     31 OD1  ASP F 803       9.136 -14.931  29.281  1.00 50.04 LIG-0.65  OA
ATOM     32 OD2  ASP F 803       7.378 -16.056  29.990  1.00 49.91 LIG-0.65  OA
ENDBRANCH 29 30
ENDBRANCH 27 29
ENDBRANCH 24 27
ENDBRANCH 22 23
BRANCH 22 33
ATOM     33  CB  LEU F 804      13.721 -13.048  30.594  1.00 43.69 LIG 0.04  C 
BRANCH 33 34
ATOM     34  CG  LEU F 804      13.712 -14.264  29.650  1.00 43.67 LIG-0.02  C 
ATOM     35  CD2 LEU F 804      12.509 -14.192  28.731  1.00 43.56 LIG 0.01  C 
ATOM     36  CD1 LEU F 804      13.772 -15.610  30.371  1.00 44.06 LIG 0.01  C 
ENDBRANCH 33 34
ENDBRANCH 22 33
ENDBRANCH 1 22
TORSDOF 14
ENDMDL
MODEL 6
USER: ADFR SOLUTION from run 189
USER: SCORE 10.928102 LL:  -2.993 LR:  -9.324 RR:   0.000 FEB:  -5.147
USER: RMSD 3.367170
USER: SEED 188
USER: STATUS no improvement in best in 3 clusters for 5 generations
USER: GENES 16
USER: genes 0 Translation |==|  0.59506 0.44601 0.53917
USER: genes 1 Rotation |==|  0.50022 0.47327 0.41863 0.99261
USER: genes 2 Torsion [C]-N--CA-[CB] |==|  0.36718
USER: genes 3 Torsion [N]-CA--CB-[CG] |==|  0.80868
USER: genes 4 Torsion [CA]-CB--CG-[CD2] |==|  0.32121
USER: genes 5 Torsion [CE2]-CZ--OH-[HH] |==|  0.92534
USER: genes 6 Torsion [N]-CA--C-[N] |==|  0.88197
USER: genes 7 Torsion [C]-N--CA-[C] |==|  0.62694
USER: genes 8 Torsion [N]-CA--C-[O] |==|  0.48320
USER: genes 9 Torsion [N]-C--CA-[N] |==|  0.04444
USER: genes 10 Torsion [C]-CA--N-[C] |==|  0.67353
USER: genes 11 Torsion [N]-C--CA-[N] |==|  0.05394
USER: genes 12 Torsion [C]-CA--CB-[CG] |==|  0.79425
USER: genes 13 Torsion [CA]-CB--CG-[OD1] |==|  0.44989
USER: genes 14 Torsion [C]-CA--CB-[CG] |==|  0.67584
USER: genes 15 Torsion [CA]-CB--CG-[CD2] |==|  0.53281
ROOT
ATOM      1  C   LEU F 804      13.272 -12.649  33.340  1.00 42.60 LIG 0.24  C 
ATOM      2 O    LEU F 804      14.315 -13.009  33.896  1.00 42.72 LIG-0.27  OA
ATOM      3  N   TYR F 805      12.868 -11.378  33.305  1.00 41.09 LIG-0.35  N 
ATOM      4 H    TYR F 805      12.071 -11.137  33.088  1.00 41.09 LIG 0.16  HD
ENDROOT
BRANCH 3 5
ATOM      5  CA  TYR F 805      13.763 -10.254  33.640  1.00 40.08 LIG 0.18  C 
BRANCH 5 6
ATOM      6  CB  TYR F 805      13.653  -9.169  32.561  1.00 38.23 LIG 0.07  C 
BRANCH 6 7
ATOM      7  CG  TYR F 805      14.232  -9.595  31.234  1.00 36.43 LIG-0.06  A 
ATOM      8  CD2 TYR F 805      13.419  -9.726  30.113  1.00 35.39 LIG 0.01  A 
ATOM      9  CE2 TYR F 805      13.940 -10.136  28.885  1.00 33.62 LIG 0.04  A 
ATOM     10  CZ  TYR F 805      15.289 -10.412  28.774  1.00 33.40 LIG 0.07  A 
ATOM     11  CE1 TYR F 805      16.127 -10.286  29.877  1.00 31.77 LIG 0.04  A 
ATOM     12  CD1 TYR F 805      15.596  -9.880  31.100  1.00 33.46 LIG 0.01  A 
BRANCH 10 13
ATOM     13 OH   TYR F 805      15.791 -10.806  27.553  1.00 32.97 LIG-0.36  OA
ATOM     14 HH   TYR F 805      15.184 -11.179  27.108  1.00 32.97 LIG 0.22  HD
ENDBRANCH 10 13
ENDBRANCH 6 7
ENDBRANCH 5 6
BRANCH 5 15
ATOM     15  C   TYR F 805      13.512  -9.635  35.028  1.00 40.65 LIG 0.24  C 
ATOM     16 O    TYR F 805      14.469  -9.327  35.742  1.00 41.05 LIG-0.27  OA
ATOM     17  N   GLY F 806      12.242  -9.439  35.414  1.00 41.21 LIG-0.35  N 
ATOM     18 H    GLY F 806      12.035  -9.175  36.205  1.00 41.21 LIG 0.16  HD
BRANCH 17 19
ATOM     19  CA  GLY F 806      11.061  -9.648  34.546  1.00 41.66 LIG 0.21  C 
BRANCH 19 20
ATOM     20  C   GLY F 806      10.013  -8.544  34.580  1.00 41.93 LIG 0.21  C 
ATOM     21 O    GLY F 806       9.037  -8.556  33.815  1.00 42.62 LIG-0.29  OA
ENDBRANCH 19 20
ENDBRANCH 17 19
ENDBRANCH 5 15
ENDBRANCH 3 5
BRANCH 1 22
ATOM     22  CA  LEU F 804      12.373 -13.692  32.650  1.00 43.64 LIG 0.18  C 
BRANCH 22 23
ATOM     23  N   LEU F 804      11.374 -13.154  31.726  1.00 45.07 LIG-0.35  N 
ATOM     24  C   ASP F 803      10.070 -13.308  31.927  1.00 46.18 LIG 0.26  C 
ATOM     25 O    ASP F 803       9.608 -13.839  32.946  1.00 46.48 LIG-0.27  OA
ATOM     26 H    LEU F 804      11.707 -12.737  31.052  1.00 45.07 LIG 0.16  HD
BRANCH 24 27
ATOM     27  CA  ASP F 803       9.143 -12.777  30.819  1.00 46.88 LIG 0.41  C 
ATOM     28  N   ASP F 803       9.853 -12.600  29.521  1.00 47.04 LIG 0.61  N 
BRANCH 27 29
ATOM     29  CB  ASP F 803       7.946 -13.714  30.629  1.00 47.42 LIG 0.16  C 
BRANCH 29 30
ATOM     30  CG  ASP F 803       8.318 -15.013  29.913  1.00 48.96 LIG 0.17  C 
ATOM     31 OD1  ASP F 803       7.524 -15.979  30.010  1.00 50.04 LIG-0.65  OA
ATOM     32 OD2  ASP F 803       9.391 -15.077  29.262  1.00 49.91 LIG-0.65  OA
ENDBRANCH 29 30
ENDBRANCH 27 29
ENDBRANCH 24 27
ENDBRANCH 22 23
BRANCH 22 33
ATOM     33  CB  LEU F 804      13.233 -14.739  31.929  1.00 43.69 LIG 0.04  C 
BRANCH 33 34
ATOM     34  CG  LEU F 804      13.187 -14.916  30.401  1.00 43.67 LIG-0.02  C 
ATOM     35  CD2 LEU F 804      13.904 -16.193  30.010  1.00 43.56 LIG 0.01  C 
ATOM     36  CD1 LEU F 804      13.731 -13.721  29.621  1.00 44.06 LIG 0.01  C 
ENDBRANCH 33 34
ENDBRANCH 22 33
ENDBRANCH 1 22
TORSDOF 14
ENDMDL
MODEL 7
USER: ADFR SOLUTION from run 161
USER: SCORE 10.608770 LL:  -2.769 LR:  -9.164 RR:   0.000 FEB:  -4.988
USER: RMSD 3.918782
USER: SEED 160
USER: STATUS no improvement in best in 5 clusters for 5 generations
USER: GENES 16
USER: genes 0 Translation |==|  0.66503 0.51771 0.54441
USER: genes 1 Rotation |==|  0.47158 0.59209 0.51209 0.99048
USER: genes 2 Torsion [C]-N--CA-[CB] |==|  0.27764
USER: genes 3 Torsion [N]-CA--CB-[CG] |==|  0.83733
USER: genes 4 Torsion [CA]-CB--CG-[CD2] |==|  0.36517
USER: genes 5 Torsion [CE2]-CZ--OH-[HH] |==|  0.94985
USER: genes 6 Torsion [N]-CA--C-[N] |==|  0.43889
USER: genes 7 Torsion [C]-N--CA-[C] |==|  0.66108
USER: genes 8 Torsion [N]-CA--C-[O] |==|  0.08687
USER: genes 9 Torsion [N]-C--CA-[N] |==|  0.25363
USER: genes 10 Torsion [C]-CA--N-[C] |==|  0.75987
USER: genes 11 Torsion [N]-C--CA-[N] |==|  0.88849
USER: genes 12 Torsion [C]-CA--CB-[CG] |==|  0.31571
USER: genes 13 Torsion [CA]-CB--CG-[OD1] |==|  0.57699
USER: genes 14 Torsion [C]-CA--CB-[CG] |==|  0.51514
USER: genes 15 Torsion [CA]-CB--CG-[CD2] |==|  0.52553
ROOT
ATOM      1  C   LEU F 804      14.322 -11.197  33.434  1.00 42.60 LIG 0.24  C 
ATOM      2 O    LEU F 804      15.554 -11.110  33.418  1.00 42.72 LIG-0.27  OA
ATOM      3  N   TYR F 805      13.521 -10.149  33.639  1.00 41.09 LIG-0.35  N 
ATOM      4 H    TYR F 805      12.686 -10.219  33.834  1.00 41.09 LIG 0.16  HD
ENDROOT
BRANCH 3 5
ATOM      5  CA  TYR F 805      14.003  -8.758  33.550  1.00 40.08 LIG 0.18  C 
BRANCH 5 6
ATOM      6  CB  TYR F 805      13.617  -8.167  32.187  1.00 38.23 LIG 0.07  C 
BRANCH 6 7
ATOM      7  CG  TYR F 805      14.176  -8.949  31.024  1.00 36.43 LIG-0.06  A 
ATOM      8  CD2 TYR F 805      13.360  -9.321  29.960  1.00 35.39 LIG 0.01  A 
ATOM      9  CE2 TYR F 805      13.862 -10.059  28.888  1.00 33.62 LIG 0.04  A 
ATOM     10  CZ  TYR F 805      15.193 -10.426  28.875  1.00 33.40 LIG 0.07  A 
ATOM     11  CE1 TYR F 805      16.034 -10.065  29.923  1.00 31.77 LIG 0.04  A 
ATOM     12  CD1 TYR F 805      15.522  -9.331  30.992  1.00 33.46 LIG 0.01  A 
BRANCH 10 13
ATOM     13 OH   TYR F 805      15.676 -11.146  27.805  1.00 32.97 LIG-0.36  OA
ATOM     14 HH   TYR F 805      15.035 -11.491  27.387  1.00 32.97 LIG 0.22  HD
ENDBRANCH 10 13
ENDBRANCH 6 7
ENDBRANCH 5 6
BRANCH 5 15
ATOM     15  C   TYR F 805      13.498  -7.838  34.678  1.00 40.65 LIG 0.24  C 
ATOM     16 O    TYR F 805      12.480  -8.142  35.305  1.00 41.05 LIG-0.27  OA
ATOM     17  N   GLY F 806      14.198  -6.727  34.951  1.00 41.21 LIG-0.35  N 
ATOM     18 H    GLY F 806      13.925  -6.134  35.511  1.00 41.21 LIG 0.16  HD
BRANCH 17 19
ATOM     19  CA  GLY F 806      15.502  -6.387  34.339  1.00 41.66 LIG 0.21  C 
BRANCH 19 20
ATOM     20  C   GLY F 806      16.654  -6.178  35.311  1.00 41.93 LIG 0.21  C 
ATOM     21 O    GLY F 806      16.714  -6.794  36.386  1.00 42.62 LIG-0.29  OA
ENDBRANCH 19 20
ENDBRANCH 17 19
ENDBRANCH 5 15
ENDBRANCH 3 5
BRANCH 1 22
ATOM     22  CA  LEU F 804      13.647 -12.564  33.215  1.00 43.64 LIG 0.18  C 
BRANCH 22 23
ATOM     23  N   LEU F 804      13.361 -12.913  31.824  1.00 45.07 LIG-0.35  N 
ATOM     24  C   ASP F 803      12.240 -12.538  31.217  1.00 46.18 LIG 0.26  C 
ATOM     25 O    ASP F 803      11.403 -11.800  31.754  1.00 46.48 LIG-0.27  OA
ATOM     26 H    LEU F 804      13.977 -13.377  31.443  1.00 45.07 LIG 0.16  HD
BRANCH 24 27
ATOM     27  CA  ASP F 803      12.032 -13.065  29.786  1.00 46.88 LIG 0.41  C 
ATOM     28  N   ASP F 803      13.289 -13.054  28.987  1.00 47.04 LIG 0.61  N 
BRANCH 27 29
ATOM     29  CB  ASP F 803      11.453 -14.483  29.819  1.00 47.42 LIG 0.16  C 
BRANCH 29 30
ATOM     30  CG  ASP F 803      10.031 -14.556  29.260  1.00 48.96 LIG 0.17  C 
ATOM     31 OD1  ASP F 803       9.282 -15.463  29.693  1.00 50.04 LIG-0.65  OA
ATOM     32 OD2  ASP F 803       9.662 -13.722  28.395  1.00 49.91 LIG-0.65  OA
ENDBRANCH 29 30
ENDBRANCH 27 29
ENDBRANCH 24 27
ENDBRANCH 22 23
BRANCH 22 33
ATOM     33  CB  LEU F 804      14.480 -13.677  33.866  1.00 43.69 LIG 0.04  C 
BRANCH 33 34
ATOM     34  CG  LEU F 804      14.117 -15.164  33.704  1.00 43.67 LIG-0.02  C 
ATOM     35  CD2 LEU F 804      14.971 -16.005  34.632  1.00 43.56 LIG 0.01  C 
ATOM     36  CD1 LEU F 804      14.205 -15.671  32.266  1.00 44.06 LIG 0.01  C 
ENDBRANCH 33 34
ENDBRANCH 22 33
ENDBRANCH 1 22
TORSDOF 14
ENDMDL
MODEL 8
USER: ADFR SOLUTION from run 104
USER: SCORE 9.941131 LL:  -2.972 LR:  -8.928 RR:   0.000 FEB:  -4.752
USER: RMSD 2.904613
USER: SEED 103
USER: STATUS no improvement in best in 7 clusters for 5 generations
USER: GENES 16
USER: genes 0 Translation |==|  0.65006 0.42943 0.54519
USER: genes 1 Rotation |==|  0.49794 0.34647 0.45405 0.97362
USER: genes 2 Torsion [C]-N--CA-[CB] |==|  0.42695
USER: genes 3 Torsion [N]-CA--CB-[CG] |==|  0.86521
USER: genes 4 Torsion [CA]-CB--CG-[CD2] |==|  0.32690
USER: genes 5 Torsion [CE2]-CZ--OH-[HH] |==|  0.90687
USER: genes 6 Torsion [N]-CA--C-[N] |==|  0.88579
USER: genes 7 Torsion [C]-N--CA-[C] |==|  0.76493
USER: genes 8 Torsion [N]-CA--C-[O] |==|  0.35482
USER: genes 9 Torsion [N]-C--CA-[N] |==|  0.70317
USER: genes 10 Torsion [C]-CA--N-[C] |==|  0.69442
USER: genes 11 Torsion [N]-C--CA-[N] |==|  0.92707
USER: genes 12 Torsion [C]-CA--CB-[CG] |==|  0.47971
USER: genes 13 Torsion [CA]-CB--CG-[OD1] |==|  0.20597
USER: genes 14 Torsion [C]-CA--CB-[CG] |==|  0.39768
USER: genes 15 Torsion [CA]-CB--CG-[CD2] |==|  0.44249
ROOT
ATOM      1  C   LEU F 804      14.097 -12.985  33.448  1.00 42.60 LIG 0.24  C 
ATOM      2 O    LEU F 804      14.762 -13.151  34.477  1.00 42.72 LIG-0.27  OA
ATOM      3  N   TYR F 805      13.641 -11.791  33.063  1.00 41.09 LIG-0.35  N 
ATOM      4 H    TYR F 805      13.034 -11.685  32.462  1.00 41.09 LIG 0.16  HD
ENDROOT
BRANCH 3 5
ATOM      5  CA  TYR F 805      14.142 -10.530  33.639  1.00 40.08 LIG 0.18  C 
BRANCH 5 6
ATOM      6  CB  TYR F 805      13.965  -9.394  32.623  1.00 38.23 LIG 0.07  C 
BRANCH 6 7
ATOM      7  CG  TYR F 805      14.472  -9.748  31.246  1.00 36.43 LIG-0.06  A 
ATOM      8  CD2 TYR F 805      13.605  -9.790  30.159  1.00 35.39 LIG 0.01  A 
ATOM      9  CE2 TYR F 805      14.059 -10.134  28.885  1.00 33.62 LIG 0.04  A 
ATOM     10  CZ  TYR F 805      15.393 -10.433  28.694  1.00 33.40 LIG 0.07  A 
ATOM     11  CE1 TYR F 805      16.284 -10.396  29.761  1.00 31.77 LIG 0.04  A 
ATOM     12  CD1 TYR F 805      15.820 -10.056  31.031  1.00 33.46 LIG 0.01  A 
BRANCH 10 13
ATOM     13 OH   TYR F 805      15.828 -10.761  27.428  1.00 32.97 LIG-0.36  OA
ATOM     14 HH   TYR F 805      15.220 -11.172  27.021  1.00 32.97 LIG 0.22  HD
ENDBRANCH 10 13
ENDBRANCH 6 7
ENDBRANCH 5 6
BRANCH 5 15
ATOM     15  C   TYR F 805      13.486 -10.139  34.977  1.00 40.65 LIG 0.24  C 
ATOM     16 O    TYR F 805      14.178  -9.666  35.882  1.00 41.05 LIG-0.27  OA
ATOM     17  N   GLY F 806      12.163 -10.317  35.110  1.00 41.21 LIG-0.35  N 
ATOM     18 H    GLY F 806      11.753 -10.196  35.856  1.00 41.21 LIG 0.16  HD
BRANCH 17 19
ATOM     19  CA  GLY F 806      11.260 -10.737  34.015  1.00 41.66 LIG 0.21  C 
BRANCH 19 20
ATOM     20  C   GLY F 806      10.747  -9.620  33.116  1.00 41.93 LIG 0.21  C 
ATOM     21 O    GLY F 806      10.856  -9.682  31.882  1.00 42.62 LIG-0.29  OA
ENDBRANCH 19 20
ENDBRANCH 17 19
ENDBRANCH 5 15
ENDBRANCH 3 5
BRANCH 1 22
ATOM     22  CA  LEU F 804      13.759 -14.190  32.551  1.00 43.64 LIG 0.18  C 
BRANCH 22 23
ATOM     23  N   LEU F 804      12.751 -15.109  33.079  1.00 45.07 LIG-0.35  N 
ATOM     24  C   ASP F 803      13.057 -16.335  33.490  1.00 46.18 LIG 0.26  C 
ATOM     25 O    ASP F 803      14.221 -16.755  33.534  1.00 46.48 LIG-0.27  OA
ATOM     26 H    LEU F 804      11.955 -14.785  33.097  1.00 45.07 LIG 0.16  HD
BRANCH 24 27
ATOM     27  CA  ASP F 803      11.877 -17.222  33.924  1.00 46.88 LIG 0.41  C 
ATOM     28  N   ASP F 803      10.712 -16.425  34.402  1.00 47.04 LIG 0.61  N 
BRANCH 27 29
ATOM     29  CB  ASP F 803      11.441 -18.133  32.772  1.00 47.42 LIG 0.16  C 
BRANCH 29 30
ATOM     30  CG  ASP F 803      10.391 -19.162  33.193  1.00 48.96 LIG 0.17  C 
ATOM     31 OD1  ASP F 803       9.221 -18.753  33.385  1.00 50.04 LIG-0.65  OA
ATOM     32 OD2  ASP F 803      10.725 -20.365  33.337  1.00 49.91 LIG-0.65  OA
ENDBRANCH 29 30
ENDBRANCH 27 29
ENDBRANCH 24 27
ENDBRANCH 22 23
BRANCH 22 33
ATOM     33  CB  LEU F 804      13.342 -13.712  31.155  1.00 43.69 LIG 0.04  C 
BRANCH 33 34
ATOM     34  CG  LEU F 804      13.728 -14.486  29.882  1.00 43.67 LIG-0.02  C 
ATOM     35  CD2 LEU F 804      12.797 -14.106  28.747  1.00 43.56 LIG 0.01  C 
ATOM     36  CD1 LEU F 804      13.777 -16.001  30.068  1.00 44.06 LIG 0.01  C 
ENDBRANCH 33 34
ENDBRANCH 22 33
ENDBRANCH 1 22
TORSDOF 14
ENDMDL
MODEL 9
USER: ADFR SOLUTION from run 49
USER: SCORE 10.422433 LL:  -3.025 LR:  -8.818 RR:   0.000 FEB:  -4.641
USER: RMSD 2.799798
USER: SEED 48
USER: STATUS no improvement in best in 7 clusters for 5 generations
USER: GENES 16
USER: genes 0 Translation |==|  0.59883 0.42271 0.49045
USER: genes 1 Rotation |==|  0.48910 0.47948 0.60949 0.98731
USER: genes 2 Torsion [C]-N--CA-[CB] |==|  0.27657
USER: genes 3 Torsion [N]-CA--CB-[CG] |==|  0.77968
USER: genes 4 Torsion [CA]-CB--CG-[CD2] |==|  0.28791
USER: genes 5 Torsion [CE2]-CZ--OH-[HH] |==|  0.35969
USER: genes 6 Torsion [N]-CA--C-[N] |==|  0.40063
USER: genes 7 Torsion [C]-N--CA-[C] |==|  0.82510
USER: genes 8 Torsion [N]-CA--C-[O] |==|  0.46892
USER: genes 9 Torsion [N]-C--CA-[N] |==|  0.85778
USER: genes 10 Torsion [C]-CA--N-[C] |==|  0.75912
USER: genes 11 Torsion [N]-C--CA-[N] |==|  0.82549
USER: genes 12 Torsion [C]-CA--CB-[CG] |==|  0.46165
USER: genes 13 Torsion [CA]-CB--CG-[OD1] |==|  0.16343
USER: genes 14 Torsion [C]-CA--CB-[CG] |==|  0.57132
USER: genes 15 Torsion [CA]-CB--CG-[CD2] |==|  0.22269
ROOT
ATOM      1  C   LEU F 804      13.328 -13.121  32.463  1.00 42.60 LIG 0.24  C 
ATOM      2 O    LEU F 804      14.329 -12.611  32.979  1.00 42.72 LIG-0.27  OA
ATOM      3  N   TYR F 805      12.156 -12.490  32.371  1.00 41.09 LIG-0.35  N 
ATOM      4 H    TYR F 805      11.415 -12.886  32.186  1.00 41.09 LIG 0.16  HD
ENDROOT
BRANCH 3 5
ATOM      5  CA  TYR F 805      12.023 -11.036  32.582  1.00 40.08 LIG 0.18  C 
BRANCH 5 6
ATOM      6  CB  TYR F 805      11.968 -10.323  31.224  1.00 38.23 LIG 0.07  C 
BRANCH 6 7
ATOM      7  CG  TYR F 805      13.328 -10.152  30.592  1.00 36.43 LIG-0.06  A 
ATOM      8  CD2 TYR F 805      13.729 -10.968  29.539  1.00 35.39 LIG 0.01  A 
ATOM      9  CE2 TYR F 805      14.991 -10.831  28.959  1.00 33.62 LIG 0.04  A 
ATOM     10  CZ  TYR F 805      15.858  -9.865  29.430  1.00 33.40 LIG 0.07  A 
ATOM     11  CE1 TYR F 805      15.483  -9.032  30.478  1.00 31.77 LIG 0.04  A 
ATOM     12  CD1 TYR F 805      14.222  -9.180  31.055  1.00 33.46 LIG 0.01  A 
BRANCH 10 13
ATOM     13 OH   TYR F 805      17.096  -9.735  28.840  1.00 32.97 LIG-0.36  OA
ATOM     14 HH   TYR F 805      17.227  -8.930  28.638  1.00 32.97 LIG 0.22  HD
ENDBRANCH 10 13
ENDBRANCH 6 7
ENDBRANCH 5 6
BRANCH 5 15
ATOM     15  C   TYR F 805      10.805 -10.628  33.433  1.00 40.65 LIG 0.24  C 
ATOM     16 O    TYR F 805       9.754 -11.265  33.340  1.00 41.05 LIG-0.27  OA
ATOM     17  N   GLY F 806      10.936  -9.585  34.267  1.00 41.21 LIG-0.35  N 
ATOM     18 H    GLY F 806      10.273  -9.258  34.706  1.00 41.21 LIG 0.16  HD
BRANCH 17 19
ATOM     19  CA  GLY F 806      12.209  -8.878  34.531  1.00 41.66 LIG 0.21  C 
BRANCH 19 20
ATOM     20  C   GLY F 806      13.306  -9.713  35.178  1.00 41.93 LIG 0.21  C 
ATOM     21 O    GLY F 806      14.472  -9.297  35.260  1.00 42.62 LIG-0.29  OA
ENDBRANCH 19 20
ENDBRANCH 17 19
ENDBRANCH 5 15
ENDBRANCH 3 5
BRANCH 1 22
ATOM     22  CA  LEU F 804      13.404 -14.550  31.894  1.00 43.64 LIG 0.18  C 
BRANCH 22 23
ATOM     23  N   LEU F 804      12.365 -15.471  32.353  1.00 45.07 LIG-0.35  N 
ATOM     24  C   ASP F 803      12.490 -16.177  33.471  1.00 46.18 LIG 0.26  C 
ATOM     25 O    ASP F 803      13.449 -16.046  34.243  1.00 46.48 LIG-0.27  OA
ATOM     26 H    LEU F 804      11.677 -15.510  31.839  1.00 45.07 LIG 0.16  HD
BRANCH 24 27
ATOM     27  CA  ASP F 803      11.361 -17.179  33.773  1.00 46.88 LIG 0.41  C 
ATOM     28  N   ASP F 803      10.045 -16.509  33.971  1.00 47.04 LIG 0.61  N 
BRANCH 27 29
ATOM     29  CB  ASP F 803      11.250 -18.213  32.648  1.00 47.42 LIG 0.16  C 
BRANCH 29 30
ATOM     30  CG  ASP F 803      10.391 -19.418  33.033  1.00 48.96 LIG 0.17  C 
ATOM     31 OD1  ASP F 803       9.202 -19.203  33.366  1.00 50.04 LIG-0.65  OA
ATOM     32 OD2  ASP F 803      10.894 -20.570  33.008  1.00 49.91 LIG-0.65  OA
ENDBRANCH 29 30
ENDBRANCH 27 29
ENDBRANCH 24 27
ENDBRANCH 22 23
BRANCH 22 33
ATOM     33  CB  LEU F 804      13.418 -14.509  30.360  1.00 43.69 LIG 0.04  C 
BRANCH 33 34
ATOM     34  CG  LEU F 804      12.918 -15.692  29.511  1.00 43.67 LIG-0.02  C 
ATOM     35  CD2 LEU F 804      11.404 -15.665  29.434  1.00 43.56 LIG 0.01  C 
ATOM     36  CD1 LEU F 804      13.418 -17.054  29.989  1.00 44.06 LIG 0.01  C 
ENDBRANCH 33 34
ENDBRANCH 22 33
ENDBRANCH 1 22
TORSDOF 14
ENDMDL
MODEL 10
USER: ADFR SOLUTION from run 88
USER: SCORE 10.222652 LL:  -2.791 LR:  -8.783 RR:   0.000 FEB:  -4.607
USER: RMSD 3.984438
USER: SEED 87
USER: STATUS no improvement in best in 6 clusters for 5 generations
USER: GENES 16
USER: genes 0 Translation |==|  0.69070 0.53390 0.54985
USER: genes 1 Rotation |==|  0.41691 0.68116 0.52138 0.95806
USER: genes 2 Torsion [C]-N--CA-[CB] |==|  0.23757
USER: genes 3 Torsion [N]-CA--CB-[CG] |==|  0.82263
USER: genes 4 Torsion [CA]-CB--CG-[CD2] |==|  0.31352
USER: genes 5 Torsion [CE2]-CZ--OH-[HH] |==|  0.07271
USER: genes 6 Torsion [N]-CA--C-[N] |==|  0.40201
USER: genes 7 Torsion [C]-N--CA-[C] |==|  0.37219
USER: genes 8 Torsion [N]-CA--C-[O] |==|  0.97905
USER: genes 9 Torsion [N]-C--CA-[N] |==|  0.85055
USER: genes 10 Torsion [C]-CA--N-[C] |==|  0.72095
USER: genes 11 Torsion [N]-C--CA-[N] |==|  0.33666
USER: genes 12 Torsion [C]-CA--CB-[CG] |==|  0.06739
USER: genes 13 Torsion [CA]-CB--CG-[OD1] |==|  0.63918
USER: genes 14 Torsion [C]-CA--CB-[CG] |==|  0.36307
USER: genes 15 Torsion [CA]-CB--CG-[CD2] |==|  0.00979
ROOT
ATOM      1  C   LEU F 804      14.707 -10.870  33.532  1.00 42.60 LIG 0.24  C 
ATOM      2 O    LEU F 804      15.838 -10.768  33.046  1.00 42.72 LIG-0.27  OA
ATOM      3  N   TYR F 805      13.931  -9.816  33.795  1.00 41.09 LIG-0.35  N 
ATOM      4 H    TYR F 805      13.230  -9.853  34.293  1.00 41.09 LIG 0.16  HD
ENDROOT
BRANCH 3 5
ATOM      5  CA  TYR F 805      14.208  -8.474  33.248  1.00 40.08 LIG 0.18  C 
BRANCH 5 6
ATOM      6  CB  TYR F 805      13.590  -8.352  31.849  1.00 38.23 LIG 0.07  C 
BRANCH 6 7
ATOM      7  CG  TYR F 805      14.200  -9.302  30.849  1.00 36.43 LIG-0.06  A 
ATOM      8  CD2 TYR F 805      13.453 -10.346  30.313  1.00 35.39 LIG 0.01  A 
ATOM      9  CE2 TYR F 805      14.012 -11.241  29.401  1.00 33.62 LIG 0.04  A 
ATOM     10  CZ  TYR F 805      15.329 -11.089  29.014  1.00 33.40 LIG 0.07  A 
ATOM     11  CE1 TYR F 805      16.100 -10.053  29.530  1.00 31.77 LIG 0.04  A 
ATOM     12  CD1 TYR F 805      15.534  -9.166  30.444  1.00 33.46 LIG 0.01  A 
BRANCH 10 13
ATOM     13 OH   TYR F 805      15.864 -11.975  28.105  1.00 32.97 LIG-0.36  OA
ATOM     14 HH   TYR F 805      15.250 -12.290  27.626  1.00 32.97 LIG 0.22  HD
ENDBRANCH 10 13
ENDBRANCH 6 7
ENDBRANCH 5 6
BRANCH 5 15
ATOM     15  C   TYR F 805      13.720  -7.314  34.137  1.00 40.65 LIG 0.24  C 
ATOM     16 O    TYR F 805      12.680  -7.440  34.788  1.00 41.05 LIG-0.27  OA
ATOM     17  N   GLY F 806      14.458  -6.195  34.180  1.00 41.21 LIG-0.35  N 
ATOM     18 H    GLY F 806      14.198  -5.485  34.591  1.00 41.21 LIG 0.16  HD
BRANCH 17 19
ATOM     19  CA  GLY F 806      15.784  -6.041  33.542  1.00 41.66 LIG 0.21  C 
BRANCH 19 20
ATOM     20  C   GLY F 806      15.992  -4.758  32.750  1.00 41.93 LIG 0.21  C 
ATOM     21 O    GLY F 806      15.057  -3.970  32.539  1.00 42.62 LIG-0.29  OA
ENDBRANCH 19 20
ENDBRANCH 17 19
ENDBRANCH 5 15
ENDBRANCH 3 5
BRANCH 1 22
ATOM     22  CA  LEU F 804      14.138 -12.261  33.865  1.00 43.64 LIG 0.18  C 
BRANCH 22 23
ATOM     23  N   LEU F 804      13.666 -12.441  35.238  1.00 45.07 LIG-0.35  N 
ATOM     24  C   ASP F 803      14.394 -13.060  36.161  1.00 46.18 LIG 0.26  C 
ATOM     25 O    ASP F 803      15.549 -13.451  35.951  1.00 46.48 LIG-0.27  OA
ATOM     26 H    LEU F 804      12.885 -12.113  35.387  1.00 45.07 LIG 0.16  HD
BRANCH 24 27
ATOM     27  CA  ASP F 803      13.724 -13.262  37.532  1.00 46.88 LIG 0.41  C 
ATOM     28  N   ASP F 803      13.641 -14.699  37.918  1.00 47.04 LIG 0.61  N 
BRANCH 27 29
ATOM     29  CB  ASP F 803      14.475 -12.480  38.614  1.00 47.42 LIG 0.16  C 
BRANCH 29 30
ATOM     30  CG  ASP F 803      15.259 -11.293  38.052  1.00 48.96 LIG 0.17  C 
ATOM     31 OD1  ASP F 803      16.462 -11.181  38.384  1.00 50.04 LIG-0.65  OA
ATOM     32 OD2  ASP F 803      14.683 -10.476  37.290  1.00 49.91 LIG-0.65  OA
ENDBRANCH 29 30
ENDBRANCH 27 29
ENDBRANCH 24 27
ENDBRANCH 22 23
BRANCH 22 33
ATOM     33  CB  LEU F 804      13.019 -12.627  32.881  1.00 43.69 LIG 0.04  C 
BRANCH 33 34
ATOM     34  CG  LEU F 804      12.987 -13.983  32.154  1.00 43.67 LIG-0.02  C 
ATOM     35  CD2 LEU F 804      14.134 -14.851  32.635  1.00 43.56 LIG 0.01  C 
ATOM     36  CD1 LEU F 804      12.985 -13.871  30.631  1.00 44.06 LIG 0.01  C 
ENDBRANCH 33 34
ENDBRANCH 22 33
ENDBRANCH 1 22
TORSDOF 14
ENDMDL
MODEL 11
USER: ADFR SOLUTION from run 40
USER: SCORE 10.436014 LL:  -2.888 LR:  -8.697 RR:   0.000 FEB:  -4.521
USER: RMSD 4.718037
USER: SEED 39
USER: STATUS no improvement in best in 4 clusters for 5 generations
USER: GENES 16
USER: genes 0 Translation |==|  0.68760 0.52391 0.59860
USER: genes 1 Rotation |==|  0.35201 0.76317 0.52265 0.89791
USER: genes 2 Torsion [C]-N--CA-[CB] |==|  0.21160
USER: genes 3 Torsion [N]-CA--CB-[CG] |==|  0.72722
USER: genes 4 Torsion [CA]-CB--CG-[CD2] |==|  0.41833
USER: genes 5 Torsion [CE2]-CZ--OH-[HH] |==|  0.07241
USER: genes 6 Torsion [N]-CA--C-[N] |==|  0.35372
USER: genes 7 Torsion [C]-N--CA-[C] |==|  0.45928
USER: genes 8 Torsion [N]-CA--C-[O] |==|  0.90527
USER: genes 9 Torsion [N]-C--CA-[N] |==|  0.44965
USER: genes 10 Torsion [C]-CA--N-[C] |==|  0.61320
USER: genes 11 Torsion [N]-C--CA-[N] |==|  0.93134
USER: genes 12 Torsion [C]-CA--CB-[CG] |==|  0.61974
USER: genes 13 Torsion [CA]-CB--CG-[OD1] |==|  0.19632
USER: genes 14 Torsion [C]-CA--CB-[CG] |==|  0.67090
USER: genes 15 Torsion [CA]-CB--CG-[CD2] |==|  0.50060
ROOT
ATOM      1  C   LEU F 804      14.660 -11.072  34.410  1.00 42.60 LIG 0.24  C 
ATOM      2 O    LEU F 804      15.524 -11.119  33.527  1.00 42.72 LIG-0.27  OA
ATOM      3  N   TYR F 805      13.922  -9.986  34.648  1.00 41.09 LIG-0.35  N 
ATOM      4 H    TYR F 805      13.454  -9.875  35.361  1.00 41.09 LIG 0.16  HD
ENDROOT
BRANCH 3 5
ATOM      5  CA  TYR F 805      13.838  -8.863  33.695  1.00 40.08 LIG 0.18  C 
BRANCH 5 6
ATOM      6  CB  TYR F 805      12.924  -9.248  32.525  1.00 38.23 LIG 0.07  C 
BRANCH 6 7
ATOM      7  CG  TYR F 805      13.685  -9.717  31.309  1.00 36.43 LIG-0.06  A 
ATOM      8  CD2 TYR F 805      13.123 -10.637  30.430  1.00 35.39 LIG 0.01  A 
ATOM      9  CE2 TYR F 805      13.825 -11.091  29.313  1.00 33.62 LIG 0.04  A 
ATOM     10  CZ  TYR F 805      15.099 -10.618  29.068  1.00 33.40 LIG 0.07  A 
ATOM     11  CE1 TYR F 805      15.686  -9.696  29.928  1.00 31.77 LIG 0.04  A 
ATOM     12  CD1 TYR F 805      14.978  -9.251  31.044  1.00 33.46 LIG 0.01  A 
BRANCH 10 13
ATOM     13 OH   TYR F 805      15.775 -11.069  27.956  1.00 32.97 LIG-0.36  OA
ATOM     14 HH   TYR F 805      15.223 -11.306  27.369  1.00 32.97 LIG 0.22  HD
ENDBRANCH 10 13
ENDBRANCH 6 7
ENDBRANCH 5 6
BRANCH 5 15
ATOM     15  C   TYR F 805      13.357  -7.538  34.317  1.00 40.65 LIG 0.24  C 
ATOM     16 O    TYR F 805      12.314  -7.515  34.975  1.00 41.05 LIG-0.27  OA
ATOM     17  N   GLY F 806      14.106  -6.441  34.129  1.00 41.21 LIG-0.35  N 
ATOM     18 H    GLY F 806      13.850  -5.659  34.380  1.00 41.21 LIG 0.16  HD
BRANCH 17 19
ATOM     19  CA  GLY F 806      15.436  -6.435  33.481  1.00 41.66 LIG 0.21  C 
BRANCH 19 20
ATOM     20  C   GLY F 806      15.959  -5.070  33.056  1.00 41.93 LIG 0.21  C 
ATOM     21 O    GLY F 806      15.193  -4.181  32.654  1.00 42.62 LIG-0.29  OA
ENDBRANCH 19 20
ENDBRANCH 17 19
ENDBRANCH 5 15
ENDBRANCH 3 5
BRANCH 1 22
ATOM     22  CA  LEU F 804      14.402 -12.305  35.295  1.00 43.64 LIG 0.18  C 
BRANCH 22 23
ATOM     23  N   LEU F 804      14.902 -13.576  34.771  1.00 45.07 LIG-0.35  N 
ATOM     24  C   ASP F 803      14.204 -14.703  34.867  1.00 46.18 LIG 0.26  C 
ATOM     25 O    ASP F 803      13.056 -14.743  35.327  1.00 46.48 LIG-0.27  OA
ATOM     26 H    LEU F 804      15.676 -13.525  34.402  1.00 45.07 LIG 0.16  HD
BRANCH 24 27
ATOM     27  CA  ASP F 803      14.901 -15.979  34.362  1.00 46.88 LIG 0.41  C 
ATOM     28  N   ASP F 803      15.953 -15.689  33.347  1.00 47.04 LIG 0.61  N 
BRANCH 27 29
ATOM     29  CB  ASP F 803      15.515 -16.752  35.534  1.00 47.42 LIG 0.16  C 
BRANCH 29 30
ATOM     30  CG  ASP F 803      16.918 -17.277  35.228  1.00 48.96 LIG 0.17  C 
ATOM     31 OD1  ASP F 803      17.848 -16.440  35.146  1.00 50.04 LIG-0.65  OA
ATOM     32 OD2  ASP F 803      17.096 -18.511  35.067  1.00 49.91 LIG-0.65  OA
ENDBRANCH 29 30
ENDBRANCH 27 29
ENDBRANCH 24 27
ENDBRANCH 22 23
BRANCH 22 33
ATOM     33  CB  LEU F 804      14.961 -12.072  36.705  1.00 43.69 LIG 0.04  C 
BRANCH 33 34
ATOM     34  CG  LEU F 804      16.070 -12.960  37.297  1.00 43.67 LIG-0.02  C 
ATOM     35  CD2 LEU F 804      16.409 -12.493  38.698  1.00 43.56 LIG 0.01  C 
ATOM     36  CD1 LEU F 804      17.324 -13.047  36.429  1.00 44.06 LIG 0.01  C 
ENDBRANCH 33 34
ENDBRANCH 22 33
ENDBRANCH 1 22
TORSDOF 14
ENDMDL
MODEL 12
USER: ADFR SOLUTION from run 68
USER: SCORE 10.672388 LL:  -3.721 LR:  -8.560 RR:   0.000 FEB:  -4.384
USER: RMSD 4.333240
USER: SEED 67
USER: STATUS no improvement in best in 12 clusters for 5 generations
USER: GENES 16
USER: genes 0 Translation |==|  0.57080 0.42364 0.47515
USER: genes 1 Rotation |==|  0.31932 0.51792 0.58194 0.95861
USER: genes 2 Torsion [C]-N--CA-[CB] |==|  0.43950
USER: genes 3 Torsion [N]-CA--CB-[CG] |==|  0.78519
USER: genes 4 Torsion [CA]-CB--CG-[CD2] |==|  0.60688
USER: genes 5 Torsion [CE2]-CZ--OH-[HH] |==|  0.18292
USER: genes 6 Torsion [N]-CA--C-[N] |==|  0.29899
USER: genes 7 Torsion [C]-N--CA-[C] |==|  0.20540
USER: genes 8 Torsion [N]-CA--C-[O] |==|  0.95925
USER: genes 9 Torsion [N]-C--CA-[N] |==|  0.01658
USER: genes 10 Torsion [C]-CA--N-[C] |==|  0.77778
USER: genes 11 Torsion [N]-C--CA-[N] |==|  0.61116
USER: genes 12 Torsion [C]-CA--CB-[CG] |==|  0.69430
USER: genes 13 Torsion [CA]-CB--CG-[OD1] |==|  0.27205
USER: genes 14 Torsion [C]-CA--CB-[CG] |==|  0.79935
USER: genes 15 Torsion [CA]-CB--CG-[CD2] |==|  0.16546
ROOT
ATOM      1  C   LEU F 804      12.908 -13.102  32.188  1.00 42.60 LIG 0.24  C 
ATOM      2 O    LEU F 804      13.975 -12.487  32.294  1.00 42.72 LIG-0.27  OA
ATOM      3  N   TYR F 805      11.808 -12.565  31.656  1.00 41.09 LIG-0.35  N 
ATOM      4 H    TYR F 805      11.023 -12.906  31.739  1.00 41.09 LIG 0.16  HD
ENDROOT
BRANCH 3 5
ATOM      5  CA  TYR F 805      11.841 -11.319  30.866  1.00 40.08 LIG 0.18  C 
BRANCH 5 6
ATOM      6  CB  TYR F 805      10.600 -11.249  29.965  1.00 38.23 LIG 0.07  C 
BRANCH 6 7
ATOM      7  CG  TYR F 805      10.705 -12.131  28.745  1.00 36.43 LIG-0.06  A 
ATOM      8  CD2 TYR F 805      10.212 -11.705  27.516  1.00 35.39 LIG 0.01  A 
ATOM      9  CE2 TYR F 805      10.287 -12.519  26.386  1.00 33.62 LIG 0.04  A 
ATOM     10  CZ  TYR F 805      10.867 -13.768  26.481  1.00 33.40 LIG 0.07  A 
ATOM     11  CE1 TYR F 805      11.373 -14.220  27.696  1.00 31.77 LIG 0.04  A 
ATOM     12  CD1 TYR F 805      11.289 -13.401  28.821  1.00 33.46 LIG 0.01  A 
BRANCH 10 13
ATOM     13 OH   TYR F 805      10.944 -14.556  25.354  1.00 32.97 LIG-0.36  OA
ATOM     14 HH   TYR F 805      11.458 -14.197  24.795  1.00 32.97 LIG 0.22  HD
ENDBRANCH 10 13
ENDBRANCH 6 7
ENDBRANCH 5 6
BRANCH 5 15
ATOM     15  C   TYR F 805      11.943 -10.035  31.711  1.00 40.65 LIG 0.24  C 
ATOM     16 O    TYR F 805      10.971  -9.657  32.368  1.00 41.05 LIG-0.27  OA
ATOM     17  N   GLY F 806      13.108  -9.369  31.712  1.00 41.21 LIG-0.35  N 
ATOM     18 H    GLY F 806      13.203  -8.605  32.097  1.00 41.21 LIG 0.16  HD
BRANCH 17 19
ATOM     19  CA  GLY F 806      14.349  -9.851  31.068  1.00 41.66 LIG 0.21  C 
BRANCH 19 20
ATOM     20  C   GLY F 806      14.378  -9.774  29.548  1.00 41.93 LIG 0.21  C 
ATOM     21 O    GLY F 806      13.342  -9.593  28.890  1.00 42.62 LIG-0.29  OA
ENDBRANCH 19 20
ENDBRANCH 17 19
ENDBRANCH 5 15
ENDBRANCH 3 5
BRANCH 1 22
ATOM     22  CA  LEU F 804      12.810 -14.556  32.686  1.00 43.64 LIG 0.18  C 
BRANCH 22 23
ATOM     23  N   LEU F 804      11.549 -15.241  32.396  1.00 45.07 LIG-0.35  N 
ATOM     24  C   ASP F 803      10.458 -15.053  33.131  1.00 46.18 LIG 0.26  C 
ATOM     25 O    ASP F 803      10.405 -14.229  34.053  1.00 46.48 LIG-0.27  OA
ATOM     26 H    LEU F 804      11.583 -15.767  31.717  1.00 45.07 LIG 0.16  HD
BRANCH 24 27
ATOM     27  CA  ASP F 803       9.237 -15.917  32.768  1.00 46.88 LIG 0.41  C 
ATOM     28  N   ASP F 803       7.959 -15.155  32.841  1.00 47.04 LIG 0.61  N 
BRANCH 27 29
ATOM     29  CB  ASP F 803       9.404 -16.515  31.368  1.00 47.42 LIG 0.16  C 
BRANCH 29 30
ATOM     30  CG  ASP F 803       8.444 -15.905  30.345  1.00 48.96 LIG 0.17  C 
ATOM     31 OD1  ASP F 803       8.884 -14.993  29.606  1.00 50.04 LIG-0.65  OA
ATOM     32 OD2  ASP F 803       7.262 -16.326  30.277  1.00 49.91 LIG-0.65  OA
ENDBRANCH 29 30
ENDBRANCH 27 29
ENDBRANCH 24 27
ENDBRANCH 22 23
BRANCH 22 33
ATOM     33  CB  LEU F 804      13.983 -15.383  32.144  1.00 43.69 LIG 0.04  C 
BRANCH 33 34
ATOM     34  CG  LEU F 804      14.070 -15.797  30.664  1.00 43.67 LIG-0.02  C 
ATOM     35  CD2 LEU F 804      14.087 -14.562  29.785  1.00 43.56 LIG 0.01  C 
ATOM     36  CD1 LEU F 804      12.975 -16.767  30.225  1.00 44.06 LIG 0.01  C 
ENDBRANCH 33 34
ENDBRANCH 22 33
ENDBRANCH 1 22
TORSDOF 14
ENDMDL
MODEL 13
USER: ADFR SOLUTION from run 106
USER: SCORE 11.797399 LL:  -3.549 LR:  -8.553 RR:   0.000 FEB:  -4.377
USER: RMSD 3.635428
USER: SEED 105
USER: STATUS no improvement in best in 6 clusters for 5 generations
USER: GENES 16
USER: genes 0 Translation |==|  0.59151 0.49638 0.49438
USER: genes 1 Rotation |==|  0.48870 0.98315 0.61759 0.55109
USER: genes 2 Torsion [C]-N--CA-[CB] |==|  0.75969
USER: genes 3 Torsion [N]-CA--CB-[CG] |==|  0.01340
USER: genes 4 Torsion [CA]-CB--CG-[CD2] |==|  0.28059
USER: genes 5 Torsion [CE2]-CZ--OH-[HH] |==|  0.94168
USER: genes 6 Torsion [N]-CA--C-[N] |==|  0.23645
USER: genes 7 Torsion [C]-N--CA-[C] |==|  0.19915
USER: genes 8 Torsion [N]-CA--C-[O] |==|  0.76034
USER: genes 9 Torsion [N]-C--CA-[N] |==|  0.13889
USER: genes 10 Torsion [C]-CA--N-[C] |==|  0.15104
USER: genes 11 Torsion [N]-C--CA-[N] |==|  0.94377
USER: genes 12 Torsion [C]-CA--CB-[CG] |==|  0.79722
USER: genes 13 Torsion [CA]-CB--CG-[OD1] |==|  0.19646
USER: genes 14 Torsion [C]-CA--CB-[CG] |==|  0.28282
USER: genes 15 Torsion [CA]-CB--CG-[CD2] |==|  0.25140
ROOT
ATOM      1  C   LEU F 804      13.219 -11.629  32.534  1.00 42.60 LIG 0.24  C 
ATOM      2 O    LEU F 804      12.169 -11.420  31.915  1.00 42.72 LIG-0.27  OA
ATOM      3  N   TYR F 805      13.900 -10.665  33.157  1.00 41.09 LIG-0.35  N 
ATOM      4 H    TYR F 805      14.711 -10.756  33.430  1.00 41.09 LIG 0.16  HD
ENDROOT
BRANCH 3 5
ATOM      5  CA  TYR F 805      13.317  -9.340  33.436  1.00 40.08 LIG 0.18  C 
BRANCH 5 6
ATOM      6  CB  TYR F 805      13.521  -8.422  32.223  1.00 38.23 LIG 0.07  C 
BRANCH 6 7
ATOM      7  CG  TYR F 805      14.144  -9.130  31.045  1.00 36.43 LIG-0.06  A 
ATOM      8  CD2 TYR F 805      13.361  -9.552  29.976  1.00 35.39 LIG 0.01  A 
ATOM      9  CE2 TYR F 805      13.924 -10.224  28.889  1.00 33.62 LIG 0.04  A 
ATOM     10  CZ  TYR F 805      15.282 -10.470  28.868  1.00 33.40 LIG 0.07  A 
ATOM     11  CE1 TYR F 805      16.091 -10.056  29.921  1.00 31.77 LIG 0.04  A 
ATOM     12  CD1 TYR F 805      15.519  -9.390  31.004  1.00 33.46 LIG 0.01  A 
BRANCH 10 13
ATOM     13 OH   TYR F 805      15.824 -11.125  27.783  1.00 32.97 LIG-0.36  OA
ATOM     14 HH   TYR F 805      15.221 -11.551  27.383  1.00 32.97 LIG 0.22  HD
ENDBRANCH 10 13
ENDBRANCH 6 7
ENDBRANCH 5 6
BRANCH 5 15
ATOM     15  C   TYR F 805      11.825  -9.372  33.819  1.00 40.65 LIG 0.24  C 
ATOM     16 O    TYR F 805      10.967  -9.204  32.949  1.00 41.05 LIG-0.27  OA
ATOM     17  N   GLY F 806      11.505  -9.595  35.103  1.00 41.21 LIG-0.35  N 
ATOM     18 H    GLY F 806      10.697  -9.543  35.394  1.00 41.21 LIG 0.16  HD
BRANCH 17 19
ATOM     19  CA  GLY F 806      12.479  -9.950  36.159  1.00 41.66 LIG 0.21  C 
BRANCH 19 20
ATOM     20  C   GLY F 806      13.408  -8.829  36.605  1.00 41.93 LIG 0.21  C 
ATOM     21 O    GLY F 806      14.471  -8.595  36.011  1.00 42.62 LIG-0.29  OA
ENDBRANCH 19 20
ENDBRANCH 17 19
ENDBRANCH 5 15
ENDBRANCH 3 5
BRANCH 1 22
ATOM     22  CA  LEU F 804      13.794 -13.056  32.605  1.00 43.64 LIG 0.18  C 
BRANCH 22 23
ATOM     23  N   LEU F 804      14.151 -13.529  33.942  1.00 45.07 LIG-0.35  N 
ATOM     24  C   ASP F 803      13.285 -13.521  34.950  1.00 46.18 LIG 0.26  C 
ATOM     25 O    ASP F 803      12.099 -13.195  34.810  1.00 46.48 LIG-0.27  OA
ATOM     26 H    LEU F 804      14.962 -13.807  34.012  1.00 45.07 LIG 0.16  HD
BRANCH 24 27
ATOM     27  CA  ASP F 803      13.834 -13.953  36.321  1.00 46.88 LIG 0.41  C 
ATOM     28  N   ASP F 803      15.086 -14.752  36.207  1.00 47.04 LIG 0.61  N 
BRANCH 27 29
ATOM     29  CB  ASP F 803      14.082 -12.728  37.207  1.00 47.42 LIG 0.16  C 
BRANCH 29 30
ATOM     30  CG  ASP F 803      15.304 -11.919  36.772  1.00 48.96 LIG 0.17  C 
ATOM     31 OD1  ASP F 803      15.221 -11.270  35.702  1.00 50.04 LIG-0.65  OA
ATOM     32 OD2  ASP F 803      16.340 -11.931  37.483  1.00 49.91 LIG-0.65  OA
ENDBRANCH 29 30
ENDBRANCH 27 29
ENDBRANCH 24 27
ENDBRANCH 22 23
BRANCH 22 33
ATOM     33  CB  LEU F 804      12.830 -14.050  31.945  1.00 43.69 LIG 0.04  C 
BRANCH 33 34
ATOM     34  CG  LEU F 804      13.072 -14.598  30.527  1.00 43.67 LIG-0.02  C 
ATOM     35  CD2 LEU F 804      13.888 -15.873  30.601  1.00 43.56 LIG 0.01  C 
ATOM     36  CD1 LEU F 804      13.712 -13.591  29.574  1.00 44.06 LIG 0.01  C 
ENDBRANCH 33 34
ENDBRANCH 22 33
ENDBRANCH 1 22
TORSDOF 14
ENDMDL
MODEL 14
USER: ADFR SOLUTION from run 109
USER: SCORE 10.158539 LL:  -3.122 LR:  -8.533 RR:   0.000 FEB:  -4.357
USER: RMSD 4.747287
USER: SEED 108
USER: STATUS no improvement in best in 14 clusters for 5 generations
USER: GENES 16
USER: genes 0 Translation |==|  0.57576 0.48884 0.48758
USER: genes 1 Rotation |==|  0.53879 0.47107 0.50620 0.99761
USER: genes 2 Torsion [C]-N--CA-[CB] |==|  0.26284
USER: genes 3 Torsion [N]-CA--CB-[CG] |==|  0.87821
USER: genes 4 Torsion [CA]-CB--CG-[CD2] |==|  0.27734
USER: genes 5 Torsion [CE2]-CZ--OH-[HH] |==|  0.96643
USER: genes 6 Torsion [N]-CA--C-[N] |==|  0.44469
USER: genes 7 Torsion [C]-N--CA-[C] |==|  0.28078
USER: genes 8 Torsion [N]-CA--C-[O] |==|  0.74391
USER: genes 9 Torsion [N]-C--CA-[N] |==|  0.13442
USER: genes 10 Torsion [C]-CA--N-[C] |==|  0.61946
USER: genes 11 Torsion [N]-C--CA-[N] |==|  0.93896
USER: genes 12 Torsion [C]-CA--CB-[CG] |==|  0.44899
USER: genes 13 Torsion [CA]-CB--CG-[OD1] |==|  0.02428
USER: genes 14 Torsion [C]-CA--CB-[CG] |==|  0.60511
USER: genes 15 Torsion [CA]-CB--CG-[CD2] |==|  0.16170
ROOT
ATOM      1  C   LEU F 804      12.982 -11.782  32.411  1.00 42.60 LIG 0.24  C 
ATOM      2 O    LEU F 804      14.081 -11.828  32.976  1.00 42.72 LIG-0.27  OA
ATOM      3  N   TYR F 805      12.157 -10.738  32.512  1.00 41.09 LIG-0.35  N 
ATOM      4 H    TYR F 805      11.328 -10.763  32.282  1.00 41.09 LIG 0.16  HD
ENDROOT
BRANCH 3 5
ATOM      5  CA  TYR F 805      12.596  -9.430  33.032  1.00 40.08 LIG 0.18  C 
BRANCH 5 6
ATOM      6  CB  TYR F 805      12.999  -8.521  31.864  1.00 38.23 LIG 0.07  C 
BRANCH 6 7
ATOM      7  CG  TYR F 805      13.834  -9.229  30.825  1.00 36.43 LIG-0.06  A 
ATOM      8  CD2 TYR F 805      13.258  -9.698  29.649  1.00 35.39 LIG 0.01  A 
ATOM      9  CE2 TYR F 805      14.017 -10.370  28.690  1.00 33.62 LIG 0.04  A 
ATOM     10  CZ  TYR F 805      15.366 -10.570  28.904  1.00 33.40 LIG 0.07  A 
ATOM     11  CE1 TYR F 805      15.971 -10.109  30.069  1.00 31.77 LIG 0.04  A 
ATOM     12  CD1 TYR F 805      15.203  -9.443  31.023  1.00 33.46 LIG 0.01  A 
BRANCH 10 13
ATOM     13 OH   TYR F 805      16.104 -11.226  27.943  1.00 32.97 LIG-0.36  OA
ATOM     14 HH   TYR F 805      15.586 -11.579  27.385  1.00 32.97 LIG 0.22  HD
ENDBRANCH 10 13
ENDBRANCH 6 7
ENDBRANCH 5 6
BRANCH 5 15
ATOM     15  C   TYR F 805      11.553  -8.715  33.912  1.00 40.65 LIG 0.24  C 
ATOM     16 O    TYR F 805      10.366  -9.044  33.842  1.00 41.05 LIG-0.27  OA
ATOM     17  N   GLY F 806      11.979  -7.753  34.744  1.00 41.21 LIG-0.35  N 
ATOM     18 H    GLY F 806      11.438  -7.263  35.199  1.00 41.21 LIG 0.16  HD
BRANCH 17 19
ATOM     19  CA  GLY F 806      13.400  -7.418  34.980  1.00 41.66 LIG 0.21  C 
BRANCH 19 20
ATOM     20  C   GLY F 806      13.921  -6.190  34.247  1.00 41.93 LIG 0.21  C 
ATOM     21 O    GLY F 806      14.458  -6.282  33.133  1.00 42.62 LIG-0.29  OA
ENDBRANCH 19 20
ENDBRANCH 17 19
ENDBRANCH 5 15
ENDBRANCH 3 5
BRANCH 1 22
ATOM     22  CA  LEU F 804      12.515 -12.968  31.548  1.00 43.64 LIG 0.18  C 
BRANCH 22 23
ATOM     23  N   LEU F 804      11.999 -12.623  30.224  1.00 45.07 LIG-0.35  N 
ATOM     24  C   ASP F 803      10.905 -13.187  29.722  1.00 46.18 LIG 0.26  C 
ATOM     25 O    ASP F 803      10.202 -13.976  30.367  1.00 46.48 LIG-0.27  OA
ATOM     26 H    LEU F 804      12.463 -12.031  29.809  1.00 45.07 LIG 0.16  HD
BRANCH 24 27
ATOM     27  CA  ASP F 803      10.541 -12.799  28.278  1.00 46.88 LIG 0.41  C 
ATOM     28  N   ASP F 803      11.146 -11.501  27.868  1.00 47.04 LIG 0.61  N 
BRANCH 27 29
ATOM     29  CB  ASP F 803      10.974 -13.900  27.304  1.00 47.42 LIG 0.16  C 
BRANCH 29 30
ATOM     30  CG  ASP F 803      10.268 -13.806  25.951  1.00 48.96 LIG 0.17  C 
ATOM     31 OD1  ASP F 803       9.574 -12.786  25.727  1.00 50.04 LIG-0.65  OA
ATOM     32 OD2  ASP F 803      10.398 -14.738  25.118  1.00 49.91 LIG-0.65  OA
ENDBRANCH 29 30
ENDBRANCH 27 29
ENDBRANCH 24 27
ENDBRANCH 22 23
BRANCH 22 33
ATOM     33  CB  LEU F 804      13.641 -14.001  31.411  1.00 43.69 LIG 0.04  C 
BRANCH 33 34
ATOM     34  CG  LEU F 804      13.888 -14.765  30.098  1.00 43.67 LIG-0.02  C 
ATOM     35  CD2 LEU F 804      14.152 -13.782  28.974  1.00 43.56 LIG 0.01  C 
ATOM     36  CD1 LEU F 804      12.769 -15.736  29.725  1.00 44.06 LIG 0.01  C 
ENDBRANCH 33 34
ENDBRANCH 22 33
ENDBRANCH 1 22
TORSDOF 14
ENDMDL
MODEL 15
USER: ADFR SOLUTION from run 48
USER: SCORE 10.844592 LL:  -2.832 LR:  -8.515 RR:   0.000 FEB:  -4.339
USER: RMSD 4.076398
USER: SEED 47
USER: STATUS no improvement in best in 7 clusters for 5 generations
USER: GENES 16
USER: genes 0 Translation |==|  0.66867 0.54908 0.60495
USER: genes 1 Rotation |==|  0.34211 0.22191 0.52884 0.88328
USER: genes 2 Torsion [C]-N--CA-[CB] |==|  0.51667
USER: genes 3 Torsion [N]-CA--CB-[CG] |==|  0.89974
USER: genes 4 Torsion [CA]-CB--CG-[CD2] |==|  0.24801
USER: genes 5 Torsion [CE2]-CZ--OH-[HH] |==|  0.08058
USER: genes 6 Torsion [N]-CA--C-[N] |==|  0.40614
USER: genes 7 Torsion [C]-N--CA-[C] |==|  0.33664
USER: genes 8 Torsion [N]-CA--C-[O] |==|  0.97200
USER: genes 9 Torsion [N]-C--CA-[N] |==|  0.97216
USER: genes 10 Torsion [C]-CA--N-[C] |==|  0.80006
USER: genes 11 Torsion [N]-C--CA-[N] |==|  0.07231
USER: genes 12 Torsion [C]-CA--CB-[CG] |==|  0.49985
USER: genes 13 Torsion [CA]-CB--CG-[OD1] |==|  0.12919
USER: genes 14 Torsion [C]-CA--CB-[CG] |==|  0.45303
USER: genes 15 Torsion [CA]-CB--CG-[CD2] |==|  0.52126
ROOT
ATOM      1  C   LEU F 804      14.376 -10.562  34.524  1.00 42.60 LIG 0.24  C 
ATOM      2 O    LEU F 804      14.422  -9.867  35.545  1.00 42.72 LIG-0.27  OA
ATOM      3  N   TYR F 805      14.336 -10.046  33.294  1.00 41.09 LIG-0.35  N 
ATOM      4 H    TYR F 805      14.123 -10.498  32.595  1.00 41.09 LIG 0.16  HD
ENDROOT
BRANCH 3 5
ATOM      5  CA  TYR F 805      14.658  -8.633  33.020  1.00 40.08 LIG 0.18  C 
BRANCH 5 6
ATOM      6  CB  TYR F 805      14.375  -8.318  31.545  1.00 38.23 LIG 0.07  C 
BRANCH 6 7
ATOM      7  CG  TYR F 805      14.698  -9.467  30.623  1.00 36.43 LIG-0.06  A 
ATOM      8  CD2 TYR F 805      13.740 -10.431  30.326  1.00 35.39 LIG 0.01  A 
ATOM      9  CE2 TYR F 805      14.033 -11.508  29.488  1.00 33.62 LIG 0.04  A 
ATOM     10  CZ  TYR F 805      15.294 -11.621  28.937  1.00 33.40 LIG 0.07  A 
ATOM     11  CE1 TYR F 805      16.271 -10.671  29.212  1.00 31.77 LIG 0.04  A 
ATOM     12  CD1 TYR F 805      15.970  -9.600  30.054  1.00 33.46 LIG 0.01  A 
BRANCH 10 13
ATOM     13 OH   TYR F 805      15.565 -12.684  28.104  1.00 32.97 LIG-0.36  OA
ATOM     14 HH   TYR F 805      14.859 -12.924  27.717  1.00 32.97 LIG 0.22  HD
ENDBRANCH 10 13
ENDBRANCH 6 7
ENDBRANCH 5 6
BRANCH 5 15
ATOM     15  C   TYR F 805      13.914  -7.627  33.919  1.00 40.65 LIG 0.24  C 
ATOM     16 O    TYR F 805      12.771  -7.881  34.305  1.00 41.05 LIG-0.27  OA
ATOM     17  N   GLY F 806      14.549  -6.497  34.266  1.00 41.21 LIG-0.35  N 
ATOM     18 H    GLY F 806      14.160  -5.862  34.696  1.00 41.21 LIG 0.16  HD
BRANCH 17 19
ATOM     19  CA  GLY F 806      15.967  -6.205  33.960  1.00 41.66 LIG 0.21  C 
BRANCH 19 20
ATOM     20  C   GLY F 806      16.221  -4.954  33.131  1.00 41.93 LIG 0.21  C 
ATOM     21 O    GLY F 806      15.290  -4.337  32.589  1.00 42.62 LIG-0.29  OA
ENDBRANCH 19 20
ENDBRANCH 17 19
ENDBRANCH 5 15
ENDBRANCH 3 5
BRANCH 1 22
ATOM     22  CA  LEU F 804      14.360 -12.097  34.643  1.00 43.64 LIG 0.18  C 
BRANCH 22 23
ATOM     23  N   LEU F 804      14.073 -12.825  33.407  1.00 45.07 LIG-0.35  N 
ATOM     24  C   ASP F 803      12.861 -12.847  32.864  1.00 46.18 LIG 0.26  C 
ATOM     25 O    ASP F 803      11.914 -12.190  33.315  1.00 46.48 LIG-0.27  OA
ATOM     26 H    LEU F 804      14.753 -13.230  33.071  1.00 45.07 LIG 0.16  HD
BRANCH 24 27
ATOM     27  CA  ASP F 803      12.688 -13.737  31.620  1.00 46.88 LIG 0.41  C 
ATOM     28  N   ASP F 803      13.665 -14.862  31.586  1.00 47.04 LIG 0.61  N 
BRANCH 27 29
ATOM     29  CB  ASP F 803      11.261 -14.290  31.553  1.00 47.42 LIG 0.16  C 
BRANCH 29 30
ATOM     30  CG  ASP F 803      11.028 -15.184  30.334  1.00 48.96 LIG 0.17  C 
ATOM     31 OD1  ASP F 803      11.892 -16.055  30.078  1.00 50.04 LIG-0.65  OA
ATOM     32 OD2  ASP F 803       9.997 -15.020  29.634  1.00 49.91 LIG-0.65  OA
ENDBRANCH 29 30
ENDBRANCH 27 29
ENDBRANCH 24 27
ENDBRANCH 22 23
BRANCH 22 33
ATOM     33  CB  LEU F 804      15.681 -12.597  35.242  1.00 43.69 LIG 0.04  C 
BRANCH 33 34
ATOM     34  CG  LEU F 804      15.823 -14.012  35.831  1.00 43.67 LIG-0.02  C 
ATOM     35  CD2 LEU F 804      17.170 -14.152  36.512  1.00 43.56 LIG 0.01  C 
ATOM     36  CD1 LEU F 804      15.601 -15.132  34.816  1.00 44.06 LIG 0.01  C 
ENDBRANCH 33 34
ENDBRANCH 22 33
ENDBRANCH 1 22
TORSDOF 14
ENDMDL
MODEL 16
USER: ADFR SOLUTION from run 155
USER: SCORE 10.172202 LL:  -3.074 LR:  -8.507 RR:   0.000 FEB:  -4.331
USER: RMSD 5.187799
USER: SEED 154
USER: STATUS no improvement in best in 11 clusters for 5 generations
USER: GENES 16
USER: genes 0 Translation |==|  0.64480 0.57064 0.55511
USER: genes 1 Rotation |==|  0.63635 0.39178 0.59544 0.95890
USER: genes 2 Torsion [C]-N--CA-[CB] |==|  0.27778
USER: genes 3 Torsion [N]-CA--CB-[CG] |==|  0.76530
USER: genes 4 Torsion [CA]-CB--CG-[CD2] |==|  0.88072
USER: genes 5 Torsion [CE2]-CZ--OH-[HH] |==|  0.98344
USER: genes 6 Torsion [N]-CA--C-[N] |==|  0.25736
USER: genes 7 Torsion [C]-N--CA-[C] |==|  0.19010
USER: genes 8 Torsion [N]-CA--C-[O] |==|  0.68237
USER: genes 9 Torsion [N]-C--CA-[N] |==|  0.92128
USER: genes 10 Torsion [C]-CA--N-[C] |==|  0.76947
USER: genes 11 Torsion [N]-C--CA-[N] |==|  0.05726
USER: genes 12 Torsion [C]-CA--CB-[CG] |==|  0.58177
USER: genes 13 Torsion [CA]-CB--CG-[OD1] |==|  0.32298
USER: genes 14 Torsion [C]-CA--CB-[CG] |==|  0.59013
USER: genes 15 Torsion [CA]-CB--CG-[CD2] |==|  0.58789
ROOT
ATOM      1  C   LEU F 804      14.018 -10.126  33.627  1.00 42.60 LIG 0.24  C 
ATOM      2 O    LEU F 804      14.851 -10.109  34.539  1.00 42.72 LIG-0.27  OA
ATOM      3  N   TYR F 805      12.846  -9.490  33.701  1.00 41.09 LIG-0.35  N 
ATOM      4 H    TYR F 805      12.190  -9.638  33.164  1.00 41.09 LIG 0.16  HD
ENDROOT
BRANCH 3 5
ATOM      5  CA  TYR F 805      12.567  -8.464  34.722  1.00 40.08 LIG 0.18  C 
BRANCH 5 6
ATOM      6  CB  TYR F 805      12.730  -7.068  34.106  1.00 38.23 LIG 0.07  C 
BRANCH 6 7
ATOM      7  CG  TYR F 805      14.158  -6.582  34.113  1.00 36.43 LIG-0.06  A 
ATOM      8  CD2 TYR F 805      14.965  -6.762  35.232  1.00 35.39 LIG 0.01  A 
ATOM      9  CE2 TYR F 805      16.281  -6.300  35.256  1.00 33.62 LIG 0.04  A 
ATOM     10  CZ  TYR F 805      16.800  -5.658  34.149  1.00 33.40 LIG 0.07  A 
ATOM     11  CE1 TYR F 805      16.019  -5.468  33.014  1.00 31.77 LIG 0.04  A 
ATOM     12  CD1 TYR F 805      14.703  -5.928  33.002  1.00 33.46 LIG 0.01  A 
BRANCH 10 13
ATOM     13 OH   TYR F 805      18.105  -5.218  34.184  1.00 32.97 LIG-0.36  OA
ATOM     14 HH   TYR F 805      18.420  -5.335  34.954  1.00 32.97 LIG 0.22  HD
ENDBRANCH 10 13
ENDBRANCH 6 7
ENDBRANCH 5 6
BRANCH 5 15
ATOM     15  C   TYR F 805      11.179  -8.584  35.379  1.00 40.65 LIG 0.24  C 
ATOM     16 O    TYR F 805      10.204  -8.042  34.852  1.00 41.05 LIG-0.27  OA
ATOM     17  N   GLY F 806      11.073  -9.295  36.513  1.00 41.21 LIG-0.35  N 
ATOM     18 H    GLY F 806      10.346  -9.331  36.969  1.00 41.21 LIG 0.16  HD
BRANCH 17 19
ATOM     19  CA  GLY F 806      12.171 -10.088  37.109  1.00 41.66 LIG 0.21  C 
BRANCH 19 20
ATOM     20  C   GLY F 806      13.337  -9.286  37.670  1.00 41.93 LIG 0.21  C 
ATOM     21 O    GLY F 806      14.469  -9.354  37.169  1.00 42.62 LIG-0.29  OA
ENDBRANCH 19 20
ENDBRANCH 17 19
ENDBRANCH 5 15
ENDBRANCH 3 5
BRANCH 1 22
ATOM     22  CA  LEU F 804      14.313 -10.909  32.335  1.00 43.64 LIG 0.18  C 
BRANCH 22 23
ATOM     23  N   LEU F 804      13.142 -11.424  31.625  1.00 45.07 LIG-0.35  N 
ATOM     24  C   ASP F 803      12.555 -12.566  31.966  1.00 46.18 LIG 0.26  C 
ATOM     25 O    ASP F 803      12.901 -13.229  32.952  1.00 46.48 LIG-0.27  OA
ATOM     26 H    LEU F 804      12.875 -10.925  30.978  1.00 45.07 LIG 0.16  HD
BRANCH 24 27
ATOM     27  CA  ASP F 803      11.397 -13.031  31.065  1.00 46.88 LIG 0.41  C 
ATOM     28  N   ASP F 803      11.440 -12.403  29.714  1.00 47.04 LIG 0.61  N 
BRANCH 27 29
ATOM     29  CB  ASP F 803      11.408 -14.556  30.925  1.00 47.42 LIG 0.16  C 
BRANCH 29 30
ATOM     30  CG  ASP F 803      10.834 -15.034  29.591  1.00 48.96 LIG 0.17  C 
ATOM     31 OD1  ASP F 803      11.605 -15.639  28.809  1.00 50.04 LIG-0.65  OA
ATOM     32 OD2  ASP F 803       9.628 -14.808  29.318  1.00 49.91 LIG-0.65  OA
ENDBRANCH 29 30
ENDBRANCH 27 29
ENDBRANCH 24 27
ENDBRANCH 22 23
BRANCH 22 33
ATOM     33  CB  LEU F 804      15.162 -10.058  31.381  1.00 43.69 LIG 0.04  C 
BRANCH 33 34
ATOM     34  CG  LEU F 804      15.028 -10.173  29.852  1.00 43.67 LIG-0.02  C 
ATOM     35  CD2 LEU F 804      16.366  -9.894  29.197  1.00 43.56 LIG 0.01  C 
ATOM     36  CD1 LEU F 804      13.932  -9.291  29.257  1.00 44.06 LIG 0.01  C 
ENDBRANCH 33 34
ENDBRANCH 22 33
ENDBRANCH 1 22
TORSDOF 14
ENDMDL
MODEL 17
USER: ADFR SOLUTION from run 91
USER: SCORE 10.191630 LL:  -3.017 LR:  -8.498 RR:   0.000 FEB:  -4.322
USER: RMSD 3.878795
USER: SEED 90
USER: STATUS no improvement in best in 7 clusters for 5 generations
USER: GENES 16
USER: genes 0 Translation |==|  0.63813 0.52490 0.58533
USER: genes 1 Rotation |==|  0.40137 0.36100 0.50099 0.97005
USER: genes 2 Torsion [C]-N--CA-[CB] |==|  0.38434
USER: genes 3 Torsion [N]-CA--CB-[CG] |==|  0.89550
USER: genes 4 Torsion [CA]-CB--CG-[CD2] |==|  0.72466
USER: genes 5 Torsion [CE2]-CZ--OH-[HH] |==|  0.66314
USER: genes 6 Torsion [N]-CA--C-[N] |==|  0.89230
USER: genes 7 Torsion [C]-N--CA-[C] |==|  0.45530
USER: genes 8 Torsion [N]-CA--C-[O] |==|  0.23696
USER: genes 9 Torsion [N]-C--CA-[N] |==|  0.05556
USER: genes 10 Torsion [C]-CA--N-[C] |==|  0.72540
USER: genes 11 Torsion [N]-C--CA-[N] |==|  0.16116
USER: genes 12 Torsion [C]-CA--CB-[CG] |==|  0.58787
USER: genes 13 Torsion [CA]-CB--CG-[OD1] |==|  0.68429
USER: genes 14 Torsion [C]-CA--CB-[CG] |==|  0.48108
USER: genes 15 Torsion [CA]-CB--CG-[CD2] |==|  0.53942
ROOT
ATOM      1  C   LEU F 804      13.918 -11.052  34.171  1.00 42.60 LIG 0.24  C 
ATOM      2 O    LEU F 804      14.667 -10.755  35.108  1.00 42.72 LIG-0.27  OA
ATOM      3  N   TYR F 805      13.347 -10.140  33.380  1.00 41.09 LIG-0.35  N 
ATOM      4 H    TYR F 805      12.692 -10.314  32.850  1.00 41.09 LIG 0.16  HD
ENDROOT
BRANCH 3 5
ATOM      5  CA  TYR F 805      13.794  -8.735  33.343  1.00 40.08 LIG 0.18  C 
BRANCH 5 6
ATOM      6  CB  TYR F 805      13.817  -8.241  31.891  1.00 38.23 LIG 0.07  C 
BRANCH 6 7
ATOM      7  CG  TYR F 805      14.282  -9.295  30.916  1.00 36.43 LIG-0.06  A 
ATOM      8  CD2 TYR F 805      15.594  -9.307  30.454  1.00 35.39 LIG 0.01  A 
ATOM      9  CE2 TYR F 805      16.030 -10.265  29.539  1.00 33.62 LIG 0.04  A 
ATOM     10  CZ  TYR F 805      15.149 -11.225  29.084  1.00 33.40 LIG 0.07  A 
ATOM     11  CE1 TYR F 805      13.831 -11.242  29.530  1.00 31.77 LIG 0.04  A 
ATOM     12  CD1 TYR F 805      13.404 -10.277  30.442  1.00 33.46 LIG 0.01  A 
BRANCH 10 13
ATOM     13 OH   TYR F 805      15.597 -12.171  28.188  1.00 32.97 LIG-0.36  OA
ATOM     14 HH   TYR F 805      15.139 -12.130  27.485  1.00 32.97 LIG 0.22  HD
ENDBRANCH 10 13
ENDBRANCH 6 7
ENDBRANCH 5 6
BRANCH 5 15
ATOM     15  C   TYR F 805      12.949  -7.778  34.205  1.00 40.65 LIG 0.24  C 
ATOM     16 O    TYR F 805      13.501  -6.868  34.828  1.00 41.05 LIG-0.27  OA
ATOM     17  N   GLY F 806      11.621  -7.963  34.240  1.00 41.21 LIG-0.35  N 
ATOM     18 H    GLY F 806      11.106  -7.516  34.764  1.00 41.21 LIG 0.16  HD
BRANCH 17 19
ATOM     19  CA  GLY F 806      10.888  -8.937  33.402  1.00 41.66 LIG 0.21  C 
BRANCH 19 20
ATOM     20  C   GLY F 806       9.470  -9.262  33.851  1.00 41.93 LIG 0.21  C 
ATOM     21 O    GLY F 806       8.507  -8.556  33.514  1.00 42.62 LIG-0.29  OA
ENDBRANCH 19 20
ENDBRANCH 17 19
ENDBRANCH 5 15
ENDBRANCH 3 5
BRANCH 1 22
ATOM     22  CA  LEU F 804      13.606 -12.531  33.878  1.00 43.64 LIG 0.18  C 
BRANCH 22 23
ATOM     23  N   LEU F 804      13.108 -12.819  32.533  1.00 45.07 LIG-0.35  N 
ATOM     24  C   ASP F 803      11.814 -12.977  32.277  1.00 46.18 LIG 0.26  C 
ATOM     25 O    ASP F 803      10.937 -12.810  33.134  1.00 46.48 LIG-0.27  OA
ATOM     26 H    LEU F 804      13.723 -12.875  31.934  1.00 45.07 LIG 0.16  HD
BRANCH 24 27
ATOM     27  CA  ASP F 803      11.449 -13.375  30.836  1.00 46.88 LIG 0.41  C 
ATOM     28  N   ASP F 803      12.102 -14.647  30.415  1.00 47.04 LIG 0.61  N 
BRANCH 27 29
ATOM     29  CB  ASP F 803       9.930 -13.500  30.684  1.00 47.42 LIG 0.16  C 
BRANCH 29 30
ATOM     30  CG  ASP F 803       9.521 -14.557  29.658  1.00 48.96 LIG 0.17  C 
ATOM     31 OD1  ASP F 803       8.951 -14.164  28.613  1.00 50.04 LIG-0.65  OA
ATOM     32 OD2  ASP F 803       9.759 -15.769  29.889  1.00 49.91 LIG-0.65  OA
ENDBRANCH 29 30
ENDBRANCH 27 29
ENDBRANCH 24 27
ENDBRANCH 22 23
BRANCH 22 33
ATOM     33  CB  LEU F 804      14.836 -13.400  34.170  1.00 43.69 LIG 0.04  C 
BRANCH 33 34
ATOM     34  CG  LEU F 804      14.776 -14.937  34.117  1.00 43.67 LIG-0.02  C 
ATOM     35  CD2 LEU F 804      16.009 -15.523  34.778  1.00 43.56 LIG 0.01  C 
ATOM     36  CD1 LEU F 804      14.588 -15.502  32.710  1.00 44.06 LIG 0.01  C 
ENDBRANCH 33 34
ENDBRANCH 22 33
ENDBRANCH 1 22
TORSDOF 14
ENDMDL
MODEL 18
USER: ADFR SOLUTION from run 137
USER: SCORE 10.979971 LL:  -3.269 LR:  -8.376 RR:   0.000 FEB:  -4.200
USER: RMSD 3.586357
USER: SEED 136
USER: STATUS no improvement in best in 11 clusters for 5 generations
USER: GENES 16
USER: genes 0 Translation |==|  0.66450 0.52282 0.56882
USER: genes 1 Rotation |==|  0.44835 0.57361 0.48023 0.99145
USER: genes 2 Torsion [C]-N--CA-[CB] |==|  0.17776
USER: genes 3 Torsion [N]-CA--CB-[CG] |==|  0.08969
USER: genes 4 Torsion [CA]-CB--CG-[CD2] |==|  0.10850
USER: genes 5 Torsion [CE2]-CZ--OH-[HH] |==|  0.40592
USER: genes 6 Torsion [N]-CA--C-[N] |==|  0.11977
USER: genes 7 Torsion [C]-N--CA-[C] |==|  0.21367
USER: genes 8 Torsion [N]-CA--C-[O] |==|  0.75984
USER: genes 9 Torsion [N]-C--CA-[N] |==|  0.16970
USER: genes 10 Torsion [C]-CA--N-[C] |==|  0.61193
USER: genes 11 Torsion [N]-C--CA-[N] |==|  0.12282
USER: genes 12 Torsion [C]-CA--CB-[CG] |==|  0.56541
USER: genes 13 Torsion [CA]-CB--CG-[OD1] |==|  0.39646
USER: genes 14 Torsion [C]-CA--CB-[CG] |==|  0.54667
USER: genes 15 Torsion [CA]-CB--CG-[CD2] |==|  0.56355
ROOT
ATOM      1  C   LEU F 804      14.314 -11.094  33.874  1.00 42.60 LIG 0.24  C 
ATOM      2 O    LEU F 804      15.546 -11.131  33.956  1.00 42.72 LIG-0.27  OA
ATOM      3  N   TYR F 805      13.618  -9.955  33.893  1.00 41.09 LIG-0.35  N 
ATOM      4 H    TYR F 805      12.768  -9.919  34.019  1.00 41.09 LIG 0.16  HD
ENDROOT
BRANCH 3 5
ATOM      5  CA  TYR F 805      14.252  -8.638  33.696  1.00 40.08 LIG 0.18  C 
BRANCH 5 6
ATOM      6  CB  TYR F 805      14.843  -8.558  32.282  1.00 38.23 LIG 0.07  C 
BRANCH 6 7
ATOM      7  CG  TYR F 805      14.053  -9.346  31.267  1.00 36.43 LIG-0.06  A 
ATOM      8  CD2 TYR F 805      12.663  -9.369  31.310  1.00 35.39 LIG 0.01  A 
ATOM      9  CE2 TYR F 805      11.923 -10.108  30.387  1.00 33.62 LIG 0.04  A 
ATOM     10  CZ  TYR F 805      12.577 -10.827  29.406  1.00 33.40 LIG 0.07  A 
ATOM     11  CE1 TYR F 805      13.966 -10.821  29.335  1.00 31.77 LIG 0.04  A 
ATOM     12  CD1 TYR F 805      14.697 -10.082  30.265  1.00 33.46 LIG 0.01  A 
BRANCH 10 13
ATOM     13 OH   TYR F 805      11.832 -11.544  28.496  1.00 32.97 LIG-0.36  OA
ATOM     14 HH   TYR F 805      12.221 -11.541  27.751  1.00 32.97 LIG 0.22  HD
ENDBRANCH 10 13
ENDBRANCH 6 7
ENDBRANCH 5 6
BRANCH 5 15
ATOM     15  C   TYR F 805      13.314  -7.440  33.937  1.00 40.65 LIG 0.24  C 
ATOM     16 O    TYR F 805      13.323  -6.489  33.152  1.00 41.05 LIG-0.27  OA
ATOM     17  N   GLY F 806      12.499  -7.478  35.002  1.00 41.21 LIG-0.35  N 
ATOM     18 H    GLY F 806      12.013  -6.808  35.236  1.00 41.21 LIG 0.16  HD
BRANCH 17 19
ATOM     19  CA  GLY F 806      12.336  -8.649  35.891  1.00 41.66 LIG 0.21  C 
BRANCH 19 20
ATOM     20  C   GLY F 806      13.460  -8.882  36.891  1.00 41.93 LIG 0.21  C 
ATOM     21 O    GLY F 806      14.471  -9.533  36.588  1.00 42.62 LIG-0.29  OA
ENDBRANCH 19 20
ENDBRANCH 17 19
ENDBRANCH 5 15
ENDBRANCH 3 5
BRANCH 1 22
ATOM     22  CA  LEU F 804      13.515 -12.404  33.745  1.00 43.64 LIG 0.18  C 
BRANCH 22 23
ATOM     23  N   LEU F 804      12.719 -12.543  32.525  1.00 45.07 LIG-0.35  N 
ATOM     24  C   ASP F 803      11.499 -13.069  32.533  1.00 46.18 LIG 0.26  C 
ATOM     25 O    ASP F 803      10.918 -13.397  33.575  1.00 46.48 LIG-0.27  OA
ATOM     26 H    LEU F 804      13.111 -12.257  31.815  1.00 45.07 LIG 0.16  HD
BRANCH 24 27
ATOM     27  CA  ASP F 803      10.825 -13.244  31.160  1.00 46.88 LIG 0.41  C 
ATOM     28  N   ASP F 803      11.752 -13.808  30.139  1.00 47.04 LIG 0.61  N 
BRANCH 27 29
ATOM     29  CB  ASP F 803       9.587 -14.137  31.283  1.00 47.42 LIG 0.16  C 
BRANCH 29 30
ATOM     30  CG  ASP F 803       9.210 -14.814  29.964  1.00 48.96 LIG 0.17  C 
ATOM     31 OD1  ASP F 803       8.777 -15.989  30.017  1.00 50.04 LIG-0.65  OA
ATOM     32 OD2  ASP F 803       9.347 -14.186  28.885  1.00 49.91 LIG-0.65  OA
ENDBRANCH 29 30
ENDBRANCH 27 29
ENDBRANCH 24 27
ENDBRANCH 22 23
BRANCH 22 33
ATOM     33  CB  LEU F 804      14.449 -13.612  33.894  1.00 43.69 LIG 0.04  C 
BRANCH 33 34
ATOM     34  CG  LEU F 804      14.030 -15.023  33.443  1.00 43.67 LIG-0.02  C 
ATOM     35  CD2 LEU F 804      14.846 -16.062  34.186  1.00 43.56 LIG 0.01  C 
ATOM     36  CD1 LEU F 804      14.108 -15.241  31.933  1.00 44.06 LIG 0.01  C 
ENDBRANCH 33 34
ENDBRANCH 22 33
ENDBRANCH 1 22
TORSDOF 14
ENDMDL
