MODEL 1
USER: ADFR SOLUTION from run 190
USER: SCORE 17.376749 LL:  -4.378 LR: -14.969 RR:   0.000 FEB:  -8.407
USER: RMSD 4.171828
USER: SEED 189
USER: STATUS no improvement in best in 7 clusters for 5 generations
USER: GENES 24
USER: genes 0 Translation |==|  0.42169 0.41444 0.34404
USER: genes 1 Rotation |==|  0.38495 0.42787 0.52291 0.98066
USER: genes 2 Torsion [N]-C--CA-[N] |==|  0.04963
USER: genes 3 Torsion [C]-CA--N-[C] |==|  0.77773
USER: genes 4 Torsion [N]-C--CA-[N] |==|  0.95534
USER: genes 5 Torsion [C]-CA--CB-[CG] |==|  0.09041
USER: genes 6 Torsion [CA]-CB--CG-[CD] |==|  0.35069
USER: genes 7 Torsion [CB]-CG--CD-[NE] |==|  0.98080
USER: genes 8 Torsion [CG]-CD--NE-[CZ] |==|  0.63900
USER: genes 9 Torsion [C]-CA--N-[C] |==|  0.82608
USER: genes 10 Torsion [N]-C--CA-[N] |==|  0.43897
USER: genes 11 Torsion [C]-CA--N-[H2] |==|  0.04248
USER: genes 12 Torsion [C]-N--CA-[C] |==|  0.82742
USER: genes 13 Torsion [N]-CA--C-[N] |==|  0.39464
USER: genes 14 Torsion [C]-N--CA-[CB] |==|  0.34727
USER: genes 15 Torsion [N]-CA--CB-[CG2] |==|  0.95466
USER: genes 16 Torsion [N]-CA--C-[N] |==|  0.31898
USER: genes 17 Torsion [C]-N--CA-[C] |==|  0.69447
USER: genes 18 Torsion [N]-CA--C-[O] |==|  0.16103
USER: genes 19 Torsion [N]-CA--CB-[CG] |==|  0.46951
USER: genes 20 Torsion [CA]-CB--CG-[CD2] |==|  0.28523
USER: genes 21 Torsion [N]-CA--CB-[CG] |==|  0.22195
USER: genes 22 Torsion [CA]-CB--CG-[CD] |==|  0.80258
USER: genes 23 Torsion [CB]-CG--CD-[OE2] |==|  0.39640
ROOT
ATOM      1  C   ALA B   3     -16.546 -30.078  -8.438  1.00 17.17 LIG 0.24  C 
ATOM      2 O    ALA B   3     -17.023 -31.114  -8.903  1.00 18.54 LIG-0.27  OA
ATOM      3  N   GLU B   4     -16.266 -29.928  -7.146  1.00 17.89 LIG-0.35  N 
ATOM      4 H    GLU B   4     -15.933 -29.210  -6.810  1.00 17.89 LIG 0.16  HD
ENDROOT
BRANCH 1 5
ATOM      5  CA  ALA B   3     -16.245 -28.889  -9.350  1.00 15.99 LIG 0.17  C 
ATOM      6  CB  ALA B   3     -15.688 -29.381 -10.682  1.00 16.21 LIG 0.04  C 
BRANCH 5 7
ATOM      7  N   ALA B   3     -15.326 -27.925  -8.756  1.00 13.91 LIG-0.35  N 
ATOM      8  C   ARG B   2     -15.743 -27.022  -7.874  1.00 12.46 LIG 0.24  C 
ATOM      9 O    ARG B   2     -16.912 -26.948  -7.498  1.00 11.56 LIG-0.27  OA
ATOM     10 H    ALA B   3     -14.512 -27.996  -9.025  1.00 13.91 LIG 0.16  HD
BRANCH 8 11
ATOM     11  CA  ARG B   2     -14.695 -26.054  -7.333  1.00 12.24 LIG 0.18  C 
BRANCH 11 12
ATOM     12  CB  ARG B   2     -14.921 -24.663  -7.929  1.00 10.58 LIG 0.04  C 
BRANCH 12 13
ATOM     13  CG  ARG B   2     -16.378 -24.321  -8.211  1.00  9.71 LIG 0.02  C 
BRANCH 13 14
ATOM     14  CD  ARG B   2     -16.753 -23.009  -7.541  1.00  9.44 LIG 0.14  C 
BRANCH 14 15
ATOM     15  NE  ARG B   2     -15.688 -22.503  -6.677  1.00  9.23 LIG-0.23  N 
ATOM     16  CZ  ARG B   2     -15.861 -22.111  -5.421  1.00  9.20 LIG 0.67  C 
ATOM     17  NH1 ARG B   2     -17.067 -22.163  -4.869  1.00  7.63 LIG-0.23  N 
ATOM     18  NH2 ARG B   2     -14.830 -21.668  -4.713  1.00  9.31 LIG-0.23  N 
ATOM     19 1HH1 ARG B   2     -17.736 -22.450  -5.326  1.00  7.63 LIG 0.17  HD
ATOM     20 2HH1 ARG B   2     -17.180 -21.908  -4.056  1.00  7.63 LIG 0.17  HD
ATOM     21 2HH2 ARG B   2     -14.944 -21.414  -3.899  1.00  9.31 LIG 0.17  HD
ATOM     22 1HH2 ARG B   2     -14.048 -21.634  -5.068  1.00  9.31 LIG 0.17  HD
ATOM     23 HE   ARG B   2     -14.894 -22.456  -7.005  1.00  9.23 LIG 0.18  HD
ENDBRANCH 14 15
ENDBRANCH 13 14
ENDBRANCH 12 13
ENDBRANCH 11 12
BRANCH 11 24
ATOM     24  N   ARG B   2     -13.308 -26.449  -7.555  1.00 12.50 LIG-0.35  N 
ATOM     25  C   ALA B   1     -12.774 -27.551  -7.042  1.00 14.33 LIG 0.25  C 
ATOM     26 O    ALA B   1     -13.408 -28.359  -6.365  1.00 14.72 LIG-0.27  OA
ATOM     27 H    ARG B   2     -12.868 -25.900  -8.049  1.00 12.50 LIG 0.16  HD
BRANCH 25 28
ATOM     28  CA  ALA B   1     -11.299 -27.777  -7.358  1.00 14.93 LIG 0.27  C 
ATOM     29  CB  ALA B   1     -11.143 -28.346  -8.763  1.00 16.58 LIG 0.05  C 
BRANCH 28 30
ATOM     30  N   ALA B   1     -10.669 -28.687  -6.362  1.00 16.58 LIG-0.07  N 
ATOM     31 H3   ALA B   1     -10.166 -29.288  -6.785  1.00 16.58 LIG 0.28  HD
ATOM     32 H1   ALA B   1     -10.161 -28.213  -5.806  1.00 16.58 LIG 0.28  HD
ATOM     33 H2   ALA B   1     -11.303 -29.106  -5.900  1.00 16.58 LIG 0.28  HD
ENDBRANCH 28 30
ENDBRANCH 25 28
ENDBRANCH 11 24
ENDBRANCH 8 11
ENDBRANCH 5 7
ENDBRANCH 1 5
BRANCH 3 34
ATOM     34  CA  GLU B   4     -16.507 -30.990  -6.171  1.00 20.15 LIG 0.18  C 
BRANCH 34 35
ATOM     35  C   GLU B   4     -17.993 -31.331  -6.094  1.00 19.92 LIG 0.24  C 
ATOM     36  N   VAL B   5     -18.299 -32.615  -5.938  1.00 19.46 LIG-0.35  N 
ATOM     37 H    VAL B   5     -17.716 -33.245  -5.878  1.00 19.46 LIG 0.16  HD
ATOM     38 O    GLU B   4     -18.845 -30.446  -6.167  1.00 20.03 LIG-0.27  OA
BRANCH 36 39
ATOM     39  CA  VAL B   5     -19.686 -33.064  -5.851  1.00 20.09 LIG 0.18  C 
BRANCH 39 40
ATOM     40  CB  VAL B   5     -19.988 -34.154  -6.906  1.00 20.49 LIG 0.01  C 
ATOM     41  CG2 VAL B   5     -18.909 -34.162  -7.974  1.00 19.70 LIG 0.01  C 
ATOM     42  CG1 VAL B   5     -21.350 -33.909  -7.534  1.00 21.00 LIG 0.01  C 
ENDBRANCH 39 40
BRANCH 39 43
ATOM     43  C   VAL B   5     -20.003 -33.633  -4.470  1.00 20.75 LIG 0.24  C 
ATOM     44  N   HIS B   6     -20.892 -32.964  -3.741  1.00 20.78 LIG-0.35  N 
ATOM     45 H    HIS B   6     -21.278 -32.239  -3.998  1.00 20.78 LIG 0.16  HD
ATOM     46 O    VAL B   5     -19.446 -34.655  -4.070  1.00 21.91 LIG-0.27  OA
BRANCH 44 47
ATOM     47  CA  HIS B   6     -21.288 -33.425  -2.416  1.00 21.28 LIG 0.17  C 
BRANCH 47 48
ATOM     48  C   HIS B   6     -22.726 -33.930  -2.452  1.00 23.03 LIG 0.22  C 
ATOM     49 O    HIS B   6     -23.008 -34.856  -3.242  1.00 25.39 LIG-0.29  OA
ENDBRANCH 47 48
BRANCH 47 50
ATOM     50  CB  HIS B   6     -21.178 -32.297  -1.386  1.00 19.33 LIG 0.09  C 
BRANCH 50 51
ATOM     51  CG  HIS B   6     -21.812 -32.623  -0.068  1.00 17.39 LIG 0.06  A 
ATOM     52  CD2 HIS B   6     -21.269 -32.993   1.116  1.00 16.59 LIG 0.14  A 
ATOM     53 NE2  HIS B   6     -22.302 -33.135   2.011  1.00 16.70 LIG-0.25  NA
ATOM     54  CE1 HIS B   6     -23.440 -32.864   1.397  1.00 16.06 LIG 0.23  A 
ATOM     55 ND1  HIS B   6     -23.172 -32.552   0.141  1.00 16.09 LIG-0.24  NA
ENDBRANCH 50 51
ENDBRANCH 47 50
ENDBRANCH 44 47
ENDBRANCH 39 43
ENDBRANCH 36 39
ENDBRANCH 34 35
BRANCH 34 56
ATOM     56  CB  GLU B   4     -16.022 -30.557  -4.785  1.00 22.38 LIG 0.04  C 
BRANCH 56 57
ATOM     57  CG  GLU B   4     -16.977 -29.643  -4.038  1.00 27.64 LIG 0.12  C 
BRANCH 57 58
ATOM     58  CD  GLU B   4     -17.036 -28.254  -4.645  1.00 30.78 LIG 0.17  C 
ATOM     59 OE2  GLU B   4     -18.136 -27.661  -4.674  1.00 32.62 LIG-0.65  OA
ATOM     60 OE1  GLU B   4     -15.982 -27.757  -5.093  1.00 32.75 LIG-0.65  OA
ENDBRANCH 57 58
ENDBRANCH 56 57
ENDBRANCH 34 56
ENDBRANCH 3 34
TORSDOF 22
ENDMDL
MODEL 2
USER: ADFR SOLUTION from run 41
USER: SCORE 18.747426 LL:  -5.765 LR: -13.764 RR:   0.000 FEB:  -7.202
USER: RMSD 2.453398
USER: SEED 40
USER: STATUS no improvement in best in 5 clusters for 5 generations
USER: GENES 24
USER: genes 0 Translation |==|  0.42477 0.45579 0.25594
USER: genes 1 Rotation |==|  0.50342 0.50677 0.44067 0.99641
USER: genes 2 Torsion [N]-C--CA-[N] |==|  0.96358
USER: genes 3 Torsion [C]-CA--N-[C] |==|  0.80389
USER: genes 4 Torsion [N]-C--CA-[N] |==|  0.95608
USER: genes 5 Torsion [C]-CA--CB-[CG] |==|  0.12997
USER: genes 6 Torsion [CA]-CB--CG-[CD] |==|  0.50154
USER: genes 7 Torsion [CB]-CG--CD-[NE] |==|  0.84975
USER: genes 8 Torsion [CG]-CD--NE-[CZ] |==|  0.74538
USER: genes 9 Torsion [C]-CA--N-[C] |==|  0.78250
USER: genes 10 Torsion [N]-C--CA-[N] |==|  0.50904
USER: genes 11 Torsion [C]-CA--N-[H2] |==|  0.37811
USER: genes 12 Torsion [C]-N--CA-[C] |==|  0.62377
USER: genes 13 Torsion [N]-CA--C-[N] |==|  0.09370
USER: genes 14 Torsion [C]-N--CA-[CB] |==|  0.52222
USER: genes 15 Torsion [N]-CA--CB-[CG2] |==|  0.00455
USER: genes 16 Torsion [N]-CA--C-[N] |==|  0.46805
USER: genes 17 Torsion [C]-N--CA-[C] |==|  0.65870
USER: genes 18 Torsion [N]-CA--C-[O] |==|  0.37335
USER: genes 19 Torsion [N]-CA--CB-[CG] |==|  0.10711
USER: genes 20 Torsion [CA]-CB--CG-[CD2] |==|  0.80610
USER: genes 21 Torsion [N]-CA--CB-[CG] |==|  0.22055
USER: genes 22 Torsion [CA]-CB--CG-[CD] |==|  0.77672
USER: genes 23 Torsion [CB]-CG--CD-[OE2] |==|  0.47180
ROOT
ATOM      1  C   ALA B   3     -16.490 -29.117 -10.354  1.00 17.17 LIG 0.24  C 
ATOM      2 O    ALA B   3     -17.387 -29.612 -11.038  1.00 18.54 LIG-0.27  OA
ATOM      3  N   GLU B   4     -15.968 -29.729  -9.294  1.00 17.89 LIG-0.35  N 
ATOM      4 H    GLU B   4     -15.342 -29.393  -8.809  1.00 17.89 LIG 0.16  HD
ENDROOT
BRANCH 1 5
ATOM      5  CA  ALA B   3     -15.923 -27.741 -10.703  1.00 15.99 LIG 0.17  C 
ATOM      6  CB  ALA B   3     -15.118 -27.820 -11.995  1.00 16.21 LIG 0.04  C 
BRANCH 5 7
ATOM      7  N   ALA B   3     -15.100 -27.171  -9.642  1.00 13.91 LIG-0.35  N 
ATOM      8  C   ARG B   2     -15.635 -26.741  -8.503  1.00 12.46 LIG 0.24  C 
ATOM      9 O    ARG B   2     -16.842 -26.805  -8.268  1.00 11.56 LIG-0.27  OA
ATOM     10 H    ALA B   3     -14.260 -27.141  -9.821  1.00 13.91 LIG 0.16  HD
BRANCH 8 11
ATOM     11  CA  ARG B   2     -14.678 -26.149  -7.474  1.00 12.24 LIG 0.18  C 
BRANCH 11 12
ATOM     12  CB  ARG B   2     -14.869 -24.633  -7.405  1.00 10.58 LIG 0.04  C 
BRANCH 12 13
ATOM     13  CG  ARG B   2     -16.319 -24.177  -7.322  1.00  9.71 LIG 0.02  C 
BRANCH 13 14
ATOM     14  CD  ARG B   2     -16.396 -22.660  -7.272  1.00  9.44 LIG 0.14  C 
BRANCH 14 15
ATOM     15  NE  ARG B   2     -15.580 -22.098  -6.196  1.00  9.23 LIG-0.23  N 
ATOM     16  CZ  ARG B   2     -16.023 -21.846  -4.971  1.00  9.20 LIG 0.67  C 
ATOM     17  NH1 ARG B   2     -17.286 -22.104  -4.655  1.00  7.63 LIG-0.23  N 
ATOM     18  NH2 ARG B   2     -15.205 -21.338  -4.058  1.00  9.31 LIG-0.23  N 
ATOM     19 1HH1 ARG B   2     -17.817 -22.435  -5.245  1.00  7.63 LIG 0.17  HD
ATOM     20 2HH1 ARG B   2     -17.573 -21.941  -3.861  1.00  7.63 LIG 0.17  HD
ATOM     21 2HH2 ARG B   2     -15.493 -21.175  -3.265  1.00  9.31 LIG 0.17  HD
ATOM     22 1HH2 ARG B   2     -14.386 -21.171  -4.260  1.00  9.31 LIG 0.17  HD
ATOM     23 HE   ARG B   2     -14.757 -21.919  -6.369  1.00  9.23 LIG 0.18  HD
ENDBRANCH 14 15
ENDBRANCH 13 14
ENDBRANCH 12 13
ENDBRANCH 11 12
BRANCH 11 24
ATOM     24  N   ARG B   2     -13.266 -26.444  -7.694  1.00 12.50 LIG-0.35  N 
ATOM     25  C   ALA B   1     -12.708 -27.608  -7.383  1.00 14.33 LIG 0.25  C 
ATOM     26 O    ALA B   1     -13.337 -28.556  -6.918  1.00 14.72 LIG-0.27  OA
ATOM     27 H    ARG B   2     -12.828 -25.792  -8.044  1.00 12.50 LIG 0.16  HD
BRANCH 25 28
ATOM     28  CA  ALA B   1     -11.211 -27.714  -7.657  1.00 14.93 LIG 0.27  C 
ATOM     29  CB  ALA B   1     -10.915 -27.360  -9.109  1.00 16.58 LIG 0.05  C 
BRANCH 28 30
ATOM     30  N   ALA B   1     -10.704 -29.080  -7.348  1.00 16.58 LIG-0.07  N 
ATOM     31 H3   ALA B   1     -10.261 -29.064  -6.575  1.00 16.58 LIG 0.28  HD
ATOM     32 H1   ALA B   1     -11.390 -29.644  -7.285  1.00 16.58 LIG 0.28  HD
ATOM     33 H2   ALA B   1     -10.158 -29.348  -7.997  1.00 16.58 LIG 0.28  HD
ENDBRANCH 28 30
ENDBRANCH 25 28
ENDBRANCH 11 24
ENDBRANCH 8 11
ENDBRANCH 5 7
ENDBRANCH 1 5
BRANCH 3 34
ATOM     34  CA  GLU B   4     -16.423 -31.048  -8.858  1.00 20.15 LIG 0.18  C 
BRANCH 34 35
ATOM     35  C   GLU B   4     -16.610 -31.085  -7.343  1.00 19.92 LIG 0.24  C 
ATOM     36  N   VAL B   5     -17.027 -29.961  -6.769  1.00 19.46 LIG-0.35  N 
ATOM     37 H    VAL B   5     -17.193 -29.234  -7.199  1.00 19.46 LIG 0.16  HD
ATOM     38 O    GLU B   4     -16.389 -32.116  -6.708  1.00 20.03 LIG-0.27  OA
BRANCH 36 39
ATOM     39  CA  VAL B   5     -17.242 -29.874  -5.328  1.00 20.09 LIG 0.18  C 
BRANCH 39 40
ATOM     40  CB  VAL B   5     -17.912 -28.534  -4.941  1.00 20.49 LIG 0.01  C 
ATOM     41  CG2 VAL B   5     -18.189 -27.710  -6.186  1.00 19.70 LIG 0.01  C 
ATOM     42  CG1 VAL B   5     -17.020 -27.762  -3.984  1.00 21.00 LIG 0.01  C 
ENDBRANCH 39 40
BRANCH 39 43
ATOM     43  C   VAL B   5     -18.127 -31.013  -4.827  1.00 20.75 LIG 0.24  C 
ATOM     44  N   HIS B   6     -18.197 -31.175  -3.508  1.00 20.78 LIG-0.35  N 
ATOM     45 H    HIS B   6     -17.772 -30.689  -2.939  1.00 20.78 LIG 0.16  HD
ATOM     46 O    VAL B   5     -18.727 -31.737  -5.620  1.00 21.91 LIG-0.27  OA
BRANCH 44 47
ATOM     47  CA  HIS B   6     -19.027 -32.217  -2.914  1.00 21.28 LIG 0.17  C 
BRANCH 47 48
ATOM     48  C   HIS B   6     -20.030 -31.593  -1.950  1.00 23.03 LIG 0.22  C 
ATOM     49 O    HIS B   6     -21.219 -31.973  -2.006  1.00 25.39 LIG-0.29  OA
ENDBRANCH 47 48
BRANCH 47 50
ATOM     50  CB  HIS B   6     -18.171 -33.236  -2.157  1.00 19.33 LIG 0.09  C 
BRANCH 50 51
ATOM     51  CG  HIS B   6     -17.025 -32.621  -1.412  1.00 17.39 LIG 0.06  A 
ATOM     52  CD2 HIS B   6     -15.884 -32.040  -1.851  1.00 16.59 LIG 0.14  A 
ATOM     53 NE2  HIS B   6     -15.194 -31.611  -0.743  1.00 16.70 LIG-0.25  NA
ATOM     54  CE1 HIS B   6     -15.886 -31.920   0.339  1.00 16.06 LIG 0.23  A 
ATOM     55 ND1  HIS B   6     -16.996 -32.530  -0.037  1.00 16.09 LIG-0.24  NA
ENDBRANCH 50 51
ENDBRANCH 47 50
ENDBRANCH 44 47
ENDBRANCH 39 43
ENDBRANCH 36 39
ENDBRANCH 34 35
BRANCH 34 56
ATOM     56  CB  GLU B   4     -15.407 -32.119  -9.262  1.00 22.38 LIG 0.04  C 
BRANCH 56 57
ATOM     57  CG  GLU B   4     -14.194 -32.215  -8.354  1.00 27.64 LIG 0.12  C 
BRANCH 57 58
ATOM     58  CD  GLU B   4     -13.158 -31.152  -8.664  1.00 30.78 LIG 0.17  C 
ATOM     59 OE2  GLU B   4     -12.205 -30.997  -7.871  1.00 32.62 LIG-0.65  OA
ATOM     60 OE1  GLU B   4     -13.299 -30.471  -9.702  1.00 32.75 LIG-0.65  OA
ENDBRANCH 57 58
ENDBRANCH 56 57
ENDBRANCH 34 56
ENDBRANCH 3 34
TORSDOF 22
ENDMDL
MODEL 3
USER: ADFR SOLUTION from run 30
USER: SCORE 18.271665 LL:  -5.737 LR: -13.643 RR:   0.000 FEB:  -7.080
USER: RMSD 2.448882
USER: SEED 29
USER: STATUS no improvement in best in 4 clusters for 5 generations
USER: GENES 24
USER: genes 0 Translation |==|  0.41428 0.46419 0.26438
USER: genes 1 Rotation |==|  0.49483 0.54974 0.40862 0.98903
USER: genes 2 Torsion [N]-C--CA-[N] |==|  0.92400
USER: genes 3 Torsion [C]-CA--N-[C] |==|  0.83704
USER: genes 4 Torsion [N]-C--CA-[N] |==|  0.93381
USER: genes 5 Torsion [C]-CA--CB-[CG] |==|  0.17853
USER: genes 6 Torsion [CA]-CB--CG-[CD] |==|  0.44914
USER: genes 7 Torsion [CB]-CG--CD-[NE] |==|  0.68317
USER: genes 8 Torsion [CG]-CD--NE-[CZ] |==|  0.34605
USER: genes 9 Torsion [C]-CA--N-[C] |==|  0.80644
USER: genes 10 Torsion [N]-C--CA-[N] |==|  0.43670
USER: genes 11 Torsion [C]-CA--N-[H2] |==|  0.03050
USER: genes 12 Torsion [C]-N--CA-[C] |==|  0.72995
USER: genes 13 Torsion [N]-CA--C-[N] |==|  0.47682
USER: genes 14 Torsion [C]-N--CA-[CB] |==|  0.56111
USER: genes 15 Torsion [N]-CA--CB-[CG2] |==|  0.78181
USER: genes 16 Torsion [N]-CA--C-[N] |==|  0.83113
USER: genes 17 Torsion [C]-N--CA-[C] |==|  0.77793
USER: genes 18 Torsion [N]-CA--C-[O] |==|  0.16401
USER: genes 19 Torsion [N]-CA--CB-[CG] |==|  0.72175
USER: genes 20 Torsion [CA]-CB--CG-[CD2] |==|  0.70533
USER: genes 21 Torsion [N]-CA--CB-[CG] |==|  0.07380
USER: genes 22 Torsion [CA]-CB--CG-[CD] |==|  0.29624
USER: genes 23 Torsion [CB]-CG--CD-[OE2] |==|  0.98797
ROOT
ATOM      1  C   ALA B   3     -16.679 -28.922 -10.171  1.00 17.17 LIG 0.24  C 
ATOM      2 O    ALA B   3     -17.738 -29.299 -10.675  1.00 18.54 LIG-0.27  OA
ATOM      3  N   GLU B   4     -16.061 -29.592  -9.202  1.00 17.89 LIG-0.35  N 
ATOM      4 H    GLU B   4     -15.322 -29.339  -8.842  1.00 17.89 LIG 0.16  HD
ENDROOT
BRANCH 1 5
ATOM      5  CA  ALA B   3     -16.012 -27.632 -10.649  1.00 15.99 LIG 0.17  C 
ATOM      6  CB  ALA B   3     -15.166 -27.910 -11.887  1.00 16.21 LIG 0.04  C 
BRANCH 5 7
ATOM      7  N   ALA B   3     -15.194 -26.992  -9.625  1.00 13.91 LIG-0.35  N 
ATOM      8  C   ARG B   2     -15.712 -26.609  -8.462  1.00 12.46 LIG 0.24  C 
ATOM      9 O    ARG B   2     -16.896 -26.777  -8.173  1.00 11.56 LIG-0.27  OA
ATOM     10 H    ALA B   3     -14.368 -26.890  -9.842  1.00 13.91 LIG 0.16  HD
BRANCH 8 11
ATOM     11  CA  ARG B   2     -14.764 -25.936  -7.475  1.00 12.24 LIG 0.18  C 
BRANCH 11 12
ATOM     12  CB  ARG B   2     -14.946 -24.417  -7.540  1.00 10.58 LIG 0.04  C 
BRANCH 12 13
ATOM     13  CG  ARG B   2     -16.317 -23.922  -7.103  1.00  9.71 LIG 0.02  C 
BRANCH 13 14
ATOM     14  CD  ARG B   2     -16.264 -22.440  -6.771  1.00  9.44 LIG 0.14  C 
BRANCH 14 15
ATOM     15  NE  ARG B   2     -16.506 -22.179  -5.353  1.00  9.23 LIG-0.23  N 
ATOM     16  CZ  ARG B   2     -15.682 -21.505  -4.562  1.00  9.20 LIG 0.67  C 
ATOM     17  NH1 ARG B   2     -14.547 -21.015  -5.047  1.00  7.63 LIG-0.23  N 
ATOM     18  NH2 ARG B   2     -15.990 -21.316  -3.285  1.00  9.31 LIG-0.23  N 
ATOM     19 1HH1 ARG B   2     -14.347 -21.135  -5.874  1.00  7.63 LIG 0.17  HD
ATOM     20 2HH1 ARG B   2     -14.014 -20.578  -4.534  1.00  7.63 LIG 0.17  HD
ATOM     21 2HH2 ARG B   2     -15.454 -20.879  -2.773  1.00  9.31 LIG 0.17  HD
ATOM     22 1HH2 ARG B   2     -16.724 -21.632  -2.969  1.00  9.31 LIG 0.17  HD
ATOM     23 HE   ARG B   2     -17.232 -22.484  -5.008  1.00  9.23 LIG 0.18  HD
ENDBRANCH 14 15
ENDBRANCH 13 14
ENDBRANCH 12 13
ENDBRANCH 11 12
BRANCH 11 24
ATOM     24  N   ARG B   2     -13.351 -26.255  -7.651  1.00 12.50 LIG-0.35  N 
ATOM     25  C   ALA B   1     -12.837 -27.450  -7.386  1.00 14.33 LIG 0.25  C 
ATOM     26 O    ALA B   1     -13.509 -28.407  -7.006  1.00 14.72 LIG-0.27  OA
ATOM     27 H    ARG B   2     -12.882 -25.596  -7.942  1.00 12.50 LIG 0.16  HD
BRANCH 25 28
ATOM     28  CA  ALA B   1     -11.332 -27.582  -7.600  1.00 14.93 LIG 0.27  C 
ATOM     29  CB  ALA B   1     -11.027 -27.790  -9.079  1.00 16.58 LIG 0.05  C 
BRANCH 28 30
ATOM     30  N   ALA B   1     -10.771 -28.703  -6.798  1.00 16.58 LIG-0.07  N 
ATOM     31 H3   ALA B   1     -10.261 -29.215  -7.318  1.00 16.58 LIG 0.28  HD
ATOM     32 H1   ALA B   1     -10.281 -28.375  -6.131  1.00 16.58 LIG 0.28  HD
ATOM     33 H2   ALA B   1     -11.436 -29.191  -6.464  1.00 16.58 LIG 0.28  HD
ENDBRANCH 28 30
ENDBRANCH 25 28
ENDBRANCH 11 24
ENDBRANCH 8 11
ENDBRANCH 5 7
ENDBRANCH 1 5
BRANCH 3 34
ATOM     34  CA  GLU B   4     -16.596 -30.839  -8.658  1.00 20.15 LIG 0.18  C 
BRANCH 34 35
ATOM     35  C   GLU B   4     -17.379 -30.580  -7.373  1.00 19.92 LIG 0.24  C 
ATOM     36  N   VAL B   5     -18.058 -31.609  -6.876  1.00 19.46 LIG-0.35  N 
ATOM     37 H    VAL B   5     -18.077 -32.392  -7.233  1.00 19.46 LIG 0.16  HD
ATOM     38 O    GLU B   4     -17.361 -29.471  -6.839  1.00 20.03 LIG-0.27  OA
BRANCH 36 39
ATOM     39  CA  VAL B   5     -18.845 -31.483  -5.652  1.00 20.09 LIG 0.18  C 
BRANCH 39 40
ATOM     40  CB  VAL B   5     -19.075 -32.863  -4.991  1.00 20.49 LIG 0.01  C 
ATOM     41  CG2 VAL B   5     -20.181 -33.612  -5.714  1.00 19.70 LIG 0.01  C 
ATOM     42  CG1 VAL B   5     -19.428 -32.686  -3.524  1.00 21.00 LIG 0.01  C 
ENDBRANCH 39 40
BRANCH 39 43
ATOM     43  C   VAL B   5     -18.156 -30.575  -4.637  1.00 20.75 LIG 0.24  C 
ATOM     44  N   HIS B   6     -16.956 -30.961  -4.212  1.00 20.78 LIG-0.35  N 
ATOM     45 H    HIS B   6     -16.565 -31.684  -4.465  1.00 20.78 LIG 0.16  HD
ATOM     46 O    VAL B   5     -18.705 -29.547  -4.241  1.00 21.91 LIG-0.27  OA
BRANCH 44 47
ATOM     47  CA  HIS B   6     -16.194 -30.162  -3.259  1.00 21.28 LIG 0.17  C 
BRANCH 47 48
ATOM     48  C   HIS B   6     -15.506 -29.010  -3.982  1.00 23.03 LIG 0.22  C 
ATOM     49 O    HIS B   6     -16.218 -28.194  -4.606  1.00 25.39 LIG-0.29  OA
ENDBRANCH 47 48
BRANCH 47 50
ATOM     50  CB  HIS B   6     -15.136 -31.013  -2.550  1.00 19.33 LIG 0.09  C 
BRANCH 50 51
ATOM     51  CG  HIS B   6     -15.544 -31.457  -1.178  1.00 17.39 LIG 0.06  A 
ATOM     52  CD2 HIS B   6     -15.143 -31.046   0.048  1.00 16.59 LIG 0.14  A 
ATOM     53 NE2  HIS B   6     -15.863 -31.763   0.973  1.00 16.70 LIG-0.25  NA
ATOM     54  CE1 HIS B   6     -16.676 -32.586   0.336  1.00 16.06 LIG 0.23  A 
ATOM     55 ND1  HIS B   6     -16.503 -32.421  -0.964  1.00 16.09 LIG-0.24  NA
ENDBRANCH 50 51
ENDBRANCH 47 50
ENDBRANCH 44 47
ENDBRANCH 39 43
ENDBRANCH 36 39
ENDBRANCH 34 35
BRANCH 34 56
ATOM     56  CB  GLU B   4     -15.457 -31.819  -8.360  1.00 22.38 LIG 0.04  C 
BRANCH 56 57
ATOM     57  CG  GLU B   4     -14.120 -31.162  -8.067  1.00 27.64 LIG 0.12  C 
BRANCH 57 58
ATOM     58  CD  GLU B   4     -13.754 -31.235  -6.597  1.00 30.78 LIG 0.17  C 
ATOM     59 OE2  GLU B   4     -14.581 -31.724  -5.799  1.00 32.62 LIG-0.65  OA
ATOM     60 OE1  GLU B   4     -12.637 -30.802  -6.241  1.00 32.75 LIG-0.65  OA
ENDBRANCH 57 58
ENDBRANCH 56 57
ENDBRANCH 34 56
ENDBRANCH 3 34
TORSDOF 22
ENDMDL
MODEL 4
USER: ADFR SOLUTION from run 189
USER: SCORE 19.475897 LL:  -6.601 LR: -13.630 RR:   0.000 FEB:  -7.067
USER: RMSD 2.950676
USER: SEED 188
USER: STATUS no improvement in best in 3 clusters for 5 generations
USER: GENES 24
USER: genes 0 Translation |==|  0.43803 0.46150 0.23734
USER: genes 1 Rotation |==|  0.53749 0.50229 0.46255 0.99718
USER: genes 2 Torsion [N]-C--CA-[N] |==|  0.96659
USER: genes 3 Torsion [C]-CA--N-[C] |==|  0.79373
USER: genes 4 Torsion [N]-C--CA-[N] |==|  0.95276
USER: genes 5 Torsion [C]-CA--CB-[CG] |==|  0.16085
USER: genes 6 Torsion [CA]-CB--CG-[CD] |==|  0.51519
USER: genes 7 Torsion [CB]-CG--CD-[NE] |==|  0.67331
USER: genes 8 Torsion [CG]-CD--NE-[CZ] |==|  0.29152
USER: genes 9 Torsion [C]-CA--N-[C] |==|  0.77599
USER: genes 10 Torsion [N]-C--CA-[N] |==|  0.51245
USER: genes 11 Torsion [C]-CA--N-[H2] |==|  0.37220
USER: genes 12 Torsion [C]-N--CA-[C] |==|  0.71199
USER: genes 13 Torsion [N]-CA--C-[N] |==|  0.43761
USER: genes 14 Torsion [C]-N--CA-[CB] |==|  0.51111
USER: genes 15 Torsion [N]-CA--CB-[CG2] |==|  0.91804
USER: genes 16 Torsion [N]-CA--C-[N] |==|  0.39552
USER: genes 17 Torsion [C]-N--CA-[C] |==|  0.54044
USER: genes 18 Torsion [N]-CA--C-[O] |==|  0.16181
USER: genes 19 Torsion [N]-CA--CB-[CG] |==|  0.10179
USER: genes 20 Torsion [CA]-CB--CG-[CD2] |==|  0.07957
USER: genes 21 Torsion [N]-CA--CB-[CG] |==|  0.88837
USER: genes 22 Torsion [CA]-CB--CG-[CD] |==|  0.26339
USER: genes 23 Torsion [CB]-CG--CD-[OE2] |==|  0.68858
ROOT
ATOM      1  C   ALA B   3     -16.252 -28.984 -10.759  1.00 17.17 LIG 0.24  C 
ATOM      2 O    ALA B   3     -17.082 -29.455 -11.538  1.00 18.54 LIG-0.27  OA
ATOM      3  N   GLU B   4     -15.709 -29.689  -9.769  1.00 17.89 LIG-0.35  N 
ATOM      4 H    GLU B   4     -15.129 -29.371  -9.219  1.00 17.89 LIG 0.16  HD
ENDROOT
BRANCH 1 5
ATOM      5  CA  ALA B   3     -15.797 -27.532 -10.899  1.00 15.99 LIG 0.17  C 
ATOM      6  CB  ALA B   3     -14.973 -27.363 -12.171  1.00 16.21 LIG 0.04  C 
BRANCH 5 7
ATOM      7  N   ALA B   3     -15.036 -27.052  -9.751  1.00 13.91 LIG-0.35  N 
ATOM      8  C   ARG B   2     -15.630 -26.764  -8.596  1.00 12.46 LIG 0.24  C 
ATOM      9 O    ARG B   2     -16.841 -26.890  -8.420  1.00 11.56 LIG-0.27  OA
ATOM     10 H    ALA B   3     -14.191 -26.977  -9.890  1.00 13.91 LIG 0.16  HD
BRANCH 8 11
ATOM     11  CA  ARG B   2     -14.734 -26.255  -7.471  1.00 12.24 LIG 0.18  C 
BRANCH 11 12
ATOM     12  CB  ARG B   2     -14.961 -24.754  -7.271  1.00 10.58 LIG 0.04  C 
BRANCH 12 13
ATOM     13  CG  ARG B   2     -16.397 -24.365  -6.952  1.00  9.71 LIG 0.02  C 
BRANCH 13 14
ATOM     14  CD  ARG B   2     -16.538 -22.852  -6.906  1.00  9.44 LIG 0.14  C 
BRANCH 14 15
ATOM     15  NE  ARG B   2     -16.942 -22.372  -5.585  1.00  9.23 LIG-0.23  N 
ATOM     16  CZ  ARG B   2     -16.129 -21.774  -4.722  1.00  9.20 LIG 0.67  C 
ATOM     17  NH1 ARG B   2     -14.855 -21.578  -5.037  1.00  7.63 LIG-0.23  N 
ATOM     18  NH2 ARG B   2     -16.589 -21.370  -3.545  1.00  9.31 LIG-0.23  N 
ATOM     19 1HH1 ARG B   2     -14.556 -21.838  -5.799  1.00  7.63 LIG 0.17  HD
ATOM     20 2HH1 ARG B   2     -14.329 -21.190  -4.478  1.00  7.63 LIG 0.17  HD
ATOM     21 2HH2 ARG B   2     -16.062 -20.982  -2.988  1.00  9.31 LIG 0.17  HD
ATOM     22 1HH2 ARG B   2     -17.415 -21.495  -3.340  1.00  9.31 LIG 0.17  HD
ATOM     23 HE   ARG B   2     -17.761 -22.486  -5.351  1.00  9.23 LIG 0.18  HD
ENDBRANCH 14 15
ENDBRANCH 13 14
ENDBRANCH 12 13
ENDBRANCH 11 12
BRANCH 11 24
ATOM     24  N   ARG B   2     -13.307 -26.503  -7.649  1.00 12.50 LIG-0.35  N 
ATOM     25  C   ALA B   1     -12.733 -27.669  -7.378  1.00 14.33 LIG 0.25  C 
ATOM     26 O    ALA B   1     -13.355 -28.656  -6.989  1.00 14.72 LIG-0.27  OA
ATOM     27 H    ARG B   2     -12.873 -25.823  -7.946  1.00 12.50 LIG 0.16  HD
BRANCH 25 28
ATOM     28  CA  ALA B   1     -11.224 -27.725  -7.596  1.00 14.93 LIG 0.27  C 
ATOM     29  CB  ALA B   1     -10.877 -27.257  -9.004  1.00 16.58 LIG 0.05  C 
BRANCH 28 30
ATOM     30  N   ALA B   1     -10.699 -29.100  -7.368  1.00 16.58 LIG-0.07  N 
ATOM     31 H3   ALA B   1     -10.261 -29.126  -6.593  1.00 16.58 LIG 0.28  HD
ATOM     32 H1   ALA B   1     -11.376 -29.676  -7.345  1.00 16.58 LIG 0.28  HD
ATOM     33 H2   ALA B   1     -10.145 -29.319  -8.028  1.00 16.58 LIG 0.28  HD
ENDBRANCH 28 30
ENDBRANCH 25 28
ENDBRANCH 11 24
ENDBRANCH 8 11
ENDBRANCH 5 7
ENDBRANCH 1 5
BRANCH 3 34
ATOM     34  CA  GLU B   4     -16.059 -31.088  -9.530  1.00 20.15 LIG 0.18  C 
BRANCH 34 35
ATOM     35  C   GLU B   4     -16.999 -31.216  -8.333  1.00 19.92 LIG 0.24  C 
ATOM     36  N   VAL B   5     -17.746 -32.314  -8.281  1.00 19.46 LIG-0.35  N 
ATOM     37 H    VAL B   5     -17.726 -32.939  -8.872  1.00 19.46 LIG 0.16  HD
ATOM     38 O    GLU B   4     -17.038 -30.340  -7.469  1.00 20.03 LIG-0.27  OA
BRANCH 36 39
ATOM     39  CA  VAL B   5     -18.681 -32.549  -7.185  1.00 20.09 LIG 0.18  C 
BRANCH 39 40
ATOM     40  CB  VAL B   5     -19.351 -33.938  -7.308  1.00 20.49 LIG 0.01  C 
ATOM     41  CG2 VAL B   5     -19.450 -34.343  -8.768  1.00 19.70 LIG 0.01  C 
ATOM     42  CG1 VAL B   5     -20.731 -33.910  -6.672  1.00 21.00 LIG 0.01  C 
ENDBRANCH 39 40
BRANCH 39 43
ATOM     43  C   VAL B   5     -17.983 -32.472  -5.829  1.00 20.75 LIG 0.24  C 
ATOM     44  N   HIS B   6     -18.670 -31.912  -4.838  1.00 20.78 LIG-0.35  N 
ATOM     45 H    HIS B   6     -19.463 -31.588  -4.923  1.00 20.78 LIG 0.16  HD
ATOM     46 O    VAL B   5     -16.841 -32.906  -5.687  1.00 21.91 LIG-0.27  OA
BRANCH 44 47
ATOM     47  CA  HIS B   6     -18.112 -31.803  -3.494  1.00 21.28 LIG 0.17  C 
BRANCH 47 48
ATOM     48  C   HIS B   6     -19.217 -31.464  -2.501  1.00 23.03 LIG 0.22  C 
ATOM     49 O    HIS B   6     -20.189 -32.244  -2.408  1.00 25.39 LIG-0.29  OA
ENDBRANCH 47 48
BRANCH 47 50
ATOM     50  CB  HIS B   6     -17.033 -30.718  -3.434  1.00 19.33 LIG 0.09  C 
BRANCH 50 51
ATOM     51  CG  HIS B   6     -17.334 -29.525  -4.289  1.00 17.39 LIG 0.06  A 
ATOM     52  CD2 HIS B   6     -18.511 -28.984  -4.684  1.00 16.59 LIG 0.14  A 
ATOM     53 NE2  HIS B   6     -18.216 -27.870  -5.433  1.00 16.70 LIG-0.25  NA
ATOM     54  CE1 HIS B   6     -16.904 -27.733  -5.497  1.00 16.06 LIG 0.23  A 
ATOM     55 ND1  HIS B   6     -16.348 -28.719  -4.814  1.00 16.09 LIG-0.24  NA
ENDBRANCH 50 51
ENDBRANCH 47 50
ENDBRANCH 44 47
ENDBRANCH 39 43
ENDBRANCH 36 39
ENDBRANCH 34 35
BRANCH 34 56
ATOM     56  CB  GLU B   4     -14.797 -31.912  -9.265  1.00 22.38 LIG 0.04  C 
BRANCH 56 57
ATOM     57  CG  GLU B   4     -13.612 -31.554 -10.144  1.00 27.64 LIG 0.12  C 
BRANCH 57 58
ATOM     58  CD  GLU B   4     -12.682 -30.558  -9.477  1.00 30.78 LIG 0.17  C 
ATOM     59 OE2  GLU B   4     -12.602 -29.405  -9.951  1.00 32.62 LIG-0.65  OA
ATOM     60 OE1  GLU B   4     -12.030 -30.932  -8.479  1.00 32.75 LIG-0.65  OA
ENDBRANCH 57 58
ENDBRANCH 56 57
ENDBRANCH 34 56
ENDBRANCH 3 34
TORSDOF 22
ENDMDL
MODEL 5
USER: ADFR SOLUTION from run 29
USER: SCORE 19.303444 LL:  -6.535 LR: -13.469 RR:   0.000 FEB:  -6.906
USER: RMSD 3.618668
USER: SEED 28
USER: STATUS no improvement in best in 4 clusters for 5 generations
USER: GENES 24
USER: genes 0 Translation |==|  0.41240 0.47286 0.25969
USER: genes 1 Rotation |==|  0.52974 0.58134 0.44557 0.98943
USER: genes 2 Torsion [N]-C--CA-[N] |==|  0.93251
USER: genes 3 Torsion [C]-CA--N-[C] |==|  0.81300
USER: genes 4 Torsion [N]-C--CA-[N] |==|  0.92559
USER: genes 5 Torsion [C]-CA--CB-[CG] |==|  0.14902
USER: genes 6 Torsion [CA]-CB--CG-[CD] |==|  0.46494
USER: genes 7 Torsion [CB]-CG--CD-[NE] |==|  0.70688
USER: genes 8 Torsion [CG]-CD--NE-[CZ] |==|  0.34969
USER: genes 9 Torsion [C]-CA--N-[C] |==|  0.77928
USER: genes 10 Torsion [N]-C--CA-[N] |==|  0.46284
USER: genes 11 Torsion [C]-CA--N-[H2] |==|  0.71552
USER: genes 12 Torsion [C]-N--CA-[C] |==|  0.66783
USER: genes 13 Torsion [N]-CA--C-[N] |==|  0.01384
USER: genes 14 Torsion [C]-N--CA-[CB] |==|  0.51135
USER: genes 15 Torsion [N]-CA--CB-[CG2] |==|  0.55829
USER: genes 16 Torsion [N]-CA--C-[N] |==|  0.43333
USER: genes 17 Torsion [C]-N--CA-[C] |==|  0.49297
USER: genes 18 Torsion [N]-CA--C-[O] |==|  0.00569
USER: genes 19 Torsion [N]-CA--CB-[CG] |==|  0.51995
USER: genes 20 Torsion [CA]-CB--CG-[CD2] |==|  0.51928
USER: genes 21 Torsion [N]-CA--CB-[CG] |==|  0.24942
USER: genes 22 Torsion [CA]-CB--CG-[CD] |==|  0.79765
USER: genes 23 Torsion [CB]-CG--CD-[OE2] |==|  0.95277
ROOT
ATOM      1  C   ALA B   3     -16.713 -28.720 -10.273  1.00 17.17 LIG 0.24  C 
ATOM      2 O    ALA B   3     -17.767 -29.150 -10.742  1.00 18.54 LIG-0.27  OA
ATOM      3  N   GLU B   4     -15.916 -29.452  -9.498  1.00 17.89 LIG-0.35  N 
ATOM      4 H    GLU B   4     -15.178 -29.162  -9.165  1.00 17.89 LIG 0.16  HD
ENDROOT
BRANCH 1 5
ATOM      5  CA  ALA B   3     -16.262 -27.290 -10.568  1.00 15.99 LIG 0.17  C 
ATOM      6  CB  ALA B   3     -15.597 -27.224 -11.939  1.00 16.21 LIG 0.04  C 
BRANCH 5 7
ATOM      7  N   ALA B   3     -15.362 -26.748  -9.557  1.00 13.91 LIG-0.35  N 
ATOM      8  C   ARG B   2     -15.779 -26.497  -8.319  1.00 12.46 LIG 0.24  C 
ATOM      9 O    ARG B   2     -16.933 -26.711  -7.949  1.00 11.56 LIG-0.27  OA
ATOM     10 H    ALA B   3     -14.559 -26.611  -9.831  1.00 13.91 LIG 0.16  HD
BRANCH 8 11
ATOM     11  CA  ARG B   2     -14.753 -25.916  -7.352  1.00 12.24 LIG 0.18  C 
BRANCH 11 12
ATOM     12  CB  ARG B   2     -14.900 -24.394  -7.296  1.00 10.58 LIG 0.04  C 
BRANCH 12 13
ATOM     13  CG  ARG B   2     -16.306 -23.902  -6.979  1.00  9.71 LIG 0.02  C 
BRANCH 13 14
ATOM     14  CD  ARG B   2     -16.285 -22.420  -6.642  1.00  9.44 LIG 0.14  C 
BRANCH 14 15
ATOM     15  NE  ARG B   2     -16.453 -22.174  -5.211  1.00  9.23 LIG-0.23  N 
ATOM     16  CZ  ARG B   2     -15.621 -21.453  -4.470  1.00  9.20 LIG 0.67  C 
ATOM     17  NH1 ARG B   2     -14.549 -20.899  -5.023  1.00  7.63 LIG-0.23  N 
ATOM     18  NH2 ARG B   2     -15.859 -21.283  -3.176  1.00  9.31 LIG-0.23  N 
ATOM     19 1HH1 ARG B   2     -14.394 -21.008  -5.862  1.00  7.63 LIG 0.17  HD
ATOM     20 2HH1 ARG B   2     -14.010 -20.432  -4.543  1.00  7.63 LIG 0.17  HD
ATOM     21 2HH2 ARG B   2     -15.319 -20.815  -2.697  1.00  9.31 LIG 0.17  HD
ATOM     22 1HH2 ARG B   2     -16.553 -21.640  -2.816  1.00  9.31 LIG 0.17  HD
ATOM     23 HE   ARG B   2     -17.138 -22.521  -4.822  1.00  9.23 LIG 0.18  HD
ENDBRANCH 14 15
ENDBRANCH 13 14
ENDBRANCH 12 13
ENDBRANCH 11 12
BRANCH 11 24
ATOM     24  N   ARG B   2     -13.363 -26.251  -7.642  1.00 12.50 LIG-0.35  N 
ATOM     25  C   ALA B   1     -12.813 -27.417  -7.324  1.00 14.33 LIG 0.25  C 
ATOM     26 O    ALA B   1     -13.434 -28.334  -6.790  1.00 14.72 LIG-0.27  OA
ATOM     27 H    ARG B   2     -12.932 -25.622  -8.040  1.00 12.50 LIG 0.16  HD
BRANCH 25 28
ATOM     28  CA  ALA B   1     -11.337 -27.568  -7.680  1.00 14.93 LIG 0.27  C 
ATOM     29  CB  ALA B   1     -11.168 -27.680  -9.190  1.00 16.58 LIG 0.05  C 
BRANCH 28 30
ATOM     30  N   ALA B   1     -10.741 -28.755  -7.008  1.00 16.58 LIG-0.07  N 
ATOM     31 H3   ALA B   1     -11.391 -29.298  -6.733  1.00 16.58 LIG 0.28  HD
ATOM     32 H1   ALA B   1     -10.216 -29.188  -7.581  1.00 16.58 LIG 0.28  HD
ATOM     33 H2   ALA B   1     -10.261 -28.490  -6.308  1.00 16.58 LIG 0.28  HD
ENDBRANCH 28 30
ENDBRANCH 25 28
ENDBRANCH 11 24
ENDBRANCH 8 11
ENDBRANCH 5 7
ENDBRANCH 1 5
BRANCH 3 34
ATOM     34  CA  GLU B   4     -16.234 -30.833  -9.142  1.00 20.15 LIG 0.18  C 
BRANCH 34 35
ATOM     35  C   GLU B   4     -16.368 -30.988  -7.629  1.00 19.92 LIG 0.24  C 
ATOM     36  N   VAL B   5     -16.285 -29.874  -6.909  1.00 19.46 LIG-0.35  N 
ATOM     37 H    VAL B   5     -16.163 -29.091  -7.246  1.00 19.46 LIG 0.16  HD
ATOM     38 O    GLU B   4     -16.552 -32.096  -7.126  1.00 20.03 LIG-0.27  OA
BRANCH 36 39
ATOM     39  CA  VAL B   5     -16.398 -29.896  -5.454  1.00 20.09 LIG 0.18  C 
BRANCH 39 40
ATOM     40  CB  VAL B   5     -16.369 -28.464  -4.868  1.00 20.49 LIG 0.01  C 
ATOM     41  CG2 VAL B   5     -15.972 -28.506  -3.403  1.00 19.70 LIG 0.01  C 
ATOM     42  CG1 VAL B   5     -17.730 -27.807  -5.028  1.00 21.00 LIG 0.01  C 
ENDBRANCH 39 40
BRANCH 39 43
ATOM     43  C   VAL B   5     -17.693 -30.570  -5.006  1.00 20.75 LIG 0.24  C 
ATOM     44  N   HIS B   6     -17.699 -31.090  -3.781  1.00 20.78 LIG-0.35  N 
ATOM     45 H    HIS B   6     -17.024 -31.075  -3.248  1.00 20.78 LIG 0.16  HD
ATOM     46 O    VAL B   5     -18.664 -30.626  -5.758  1.00 21.91 LIG-0.27  OA
BRANCH 44 47
ATOM     47  CA  HIS B   6     -18.886 -31.740  -3.238  1.00 21.28 LIG 0.17  C 
BRANCH 47 48
ATOM     48  C   HIS B   6     -18.585 -32.292  -1.849  1.00 23.03 LIG 0.22  C 
ATOM     49 O    HIS B   6     -17.449 -32.094  -1.369  1.00 25.39 LIG-0.29  OA
ENDBRANCH 47 48
BRANCH 47 50
ATOM     50  CB  HIS B   6     -19.348 -32.886  -4.144  1.00 19.33 LIG 0.09  C 
BRANCH 50 51
ATOM     51  CG  HIS B   6     -20.658 -33.484  -3.733  1.00 17.39 LIG 0.06  A 
ATOM     52  CD2 HIS B   6     -21.325 -34.570  -4.191  1.00 16.59 LIG 0.14  A 
ATOM     53 NE2  HIS B   6     -22.469 -34.692  -3.438  1.00 16.70 LIG-0.25  NA
ATOM     54  CE1 HIS B   6     -22.503 -33.714  -2.551  1.00 16.06 LIG 0.23  A 
ATOM     55 ND1  HIS B   6     -21.422 -32.971  -2.708  1.00 16.09 LIG-0.24  NA
ENDBRANCH 50 51
ENDBRANCH 47 50
ENDBRANCH 44 47
ENDBRANCH 39 43
ENDBRANCH 36 39
ENDBRANCH 34 35
BRANCH 34 56
ATOM     56  CB  GLU B   4     -15.137 -31.775  -9.646  1.00 22.38 LIG 0.04  C 
BRANCH 56 57
ATOM     57  CG  GLU B   4     -14.005 -32.009  -8.662  1.00 27.64 LIG 0.12  C 
BRANCH 57 58
ATOM     58  CD  GLU B   4     -13.098 -30.801  -8.532  1.00 30.78 LIG 0.17  C 
ATOM     59 OE2  GLU B   4     -13.146 -29.919  -9.417  1.00 32.62 LIG-0.65  OA
ATOM     60 OE1  GLU B   4     -12.336 -30.733  -7.544  1.00 32.75 LIG-0.65  OA
ENDBRANCH 57 58
ENDBRANCH 56 57
ENDBRANCH 34 56
ENDBRANCH 3 34
TORSDOF 22
ENDMDL
MODEL 6
USER: ADFR SOLUTION from run 30
USER: SCORE 18.552512 LL:  -6.191 LR: -13.434 RR:   0.000 FEB:  -6.871
USER: RMSD 3.201891
USER: SEED 29
USER: STATUS no improvement in best in 4 clusters for 5 generations
USER: GENES 24
USER: genes 0 Translation |==|  0.43942 0.45155 0.24316
USER: genes 1 Rotation |==|  0.49593 0.56537 0.40225 0.98596
USER: genes 2 Torsion [N]-C--CA-[N] |==|  0.89187
USER: genes 3 Torsion [C]-CA--N-[C] |==|  0.84520
USER: genes 4 Torsion [N]-C--CA-[N] |==|  0.93301
USER: genes 5 Torsion [C]-CA--CB-[CG] |==|  0.11910
USER: genes 6 Torsion [CA]-CB--CG-[CD] |==|  0.38601
USER: genes 7 Torsion [CB]-CG--CD-[NE] |==|  0.98449
USER: genes 8 Torsion [CG]-CD--NE-[CZ] |==|  0.62922
USER: genes 9 Torsion [C]-CA--N-[C] |==|  0.82263
USER: genes 10 Torsion [N]-C--CA-[N] |==|  0.44700
USER: genes 11 Torsion [C]-CA--N-[H2] |==|  0.04559
USER: genes 12 Torsion [C]-N--CA-[C] |==|  0.76488
USER: genes 13 Torsion [N]-CA--C-[N] |==|  0.52222
USER: genes 14 Torsion [C]-N--CA-[CB] |==|  0.59583
USER: genes 15 Torsion [N]-CA--CB-[CG2] |==|  0.81073
USER: genes 16 Torsion [N]-CA--C-[N] |==|  0.81315
USER: genes 17 Torsion [C]-N--CA-[C] |==|  0.80261
USER: genes 18 Torsion [N]-CA--C-[O] |==|  0.28019
USER: genes 19 Torsion [N]-CA--CB-[CG] |==|  0.09968
USER: genes 20 Torsion [CA]-CB--CG-[CD2] |==|  0.78923
USER: genes 21 Torsion [N]-CA--CB-[CG] |==|  0.11610
USER: genes 22 Torsion [CA]-CB--CG-[CD] |==|  0.73301
USER: genes 23 Torsion [CB]-CG--CD-[OE2] |==|  0.05384
ROOT
ATOM      1  C   ALA B   3     -16.226 -29.215 -10.632  1.00 17.17 LIG 0.24  C 
ATOM      2 O    ALA B   3     -17.324 -29.556 -11.075  1.00 18.54 LIG-0.27  OA
ATOM      3  N   GLU B   4     -15.570 -29.917  -9.711  1.00 17.89 LIG-0.35  N 
ATOM      4 H    GLU B   4     -14.803 -29.689  -9.395  1.00 17.89 LIG 0.16  HD
ENDROOT
BRANCH 1 5
ATOM      5  CA  ALA B   3     -15.553 -27.939 -11.135  1.00 15.99 LIG 0.17  C 
ATOM      6  CB  ALA B   3     -14.568 -28.272 -12.251  1.00 16.21 LIG 0.04  C 
BRANCH 5 7
ATOM      7  N   ALA B   3     -14.873 -27.193 -10.082  1.00 13.91 LIG-0.35  N 
ATOM      8  C   ARG B   2     -15.514 -26.797  -8.987  1.00 12.46 LIG 0.24  C 
ATOM      9 O    ARG B   2     -16.704 -27.039  -8.787  1.00 11.56 LIG-0.27  OA
ATOM     10 H    ALA B   3     -14.041 -27.039 -10.236  1.00 13.91 LIG 0.16  HD
BRANCH 8 11
ATOM     11  CA  ARG B   2     -14.704 -26.009  -7.962  1.00 12.24 LIG 0.18  C 
BRANCH 11 12
ATOM     12  CB  ARG B   2     -14.982 -24.513  -8.125  1.00 10.58 LIG 0.04  C 
BRANCH 12 13
ATOM     13  CG  ARG B   2     -16.446 -24.158  -8.342  1.00  9.71 LIG 0.02  C 
BRANCH 13 14
ATOM     14  CD  ARG B   2     -16.812 -22.914  -7.548  1.00  9.44 LIG 0.14  C 
BRANCH 14 15
ATOM     15  NE  ARG B   2     -15.718 -22.461  -6.691  1.00  9.23 LIG-0.23  N 
ATOM     16  CZ  ARG B   2     -15.857 -22.115  -5.417  1.00  9.20 LIG 0.67  C 
ATOM     17  NH1 ARG B   2     -17.051 -22.166  -4.840  1.00  7.63 LIG-0.23  N 
ATOM     18  NH2 ARG B   2     -14.801 -21.719  -4.716  1.00  9.31 LIG-0.23  N 
ATOM     19 1HH1 ARG B   2     -17.735 -22.424  -5.293  1.00  7.63 LIG 0.17  HD
ATOM     20 2HH1 ARG B   2     -17.140 -21.942  -4.015  1.00  7.63 LIG 0.17  HD
ATOM     21 2HH2 ARG B   2     -14.893 -21.495  -3.891  1.00  9.31 LIG 0.17  HD
ATOM     22 1HH2 ARG B   2     -14.027 -21.686  -5.087  1.00  9.31 LIG 0.17  HD
ATOM     23 HE   ARG B   2     -14.932 -22.416  -7.035  1.00  9.23 LIG 0.18  HD
ENDBRANCH 14 15
ENDBRANCH 13 14
ENDBRANCH 12 13
ENDBRANCH 11 12
BRANCH 11 24
ATOM     24  N   ARG B   2     -13.263 -26.235  -8.000  1.00 12.50 LIG-0.35  N 
ATOM     25  C   ALA B   1     -12.703 -27.409  -7.736  1.00 14.33 LIG 0.25  C 
ATOM     26 O    ALA B   1     -13.348 -28.422  -7.472  1.00 14.72 LIG-0.27  OA
ATOM     27 H    ARG B   2     -12.810 -25.535  -8.211  1.00 12.50 LIG 0.16  HD
BRANCH 25 28
ATOM     28  CA  ALA B   1     -11.179 -27.439  -7.794  1.00 14.93 LIG 0.27  C 
ATOM     29  CB  ALA B   1     -10.707 -27.461  -9.243  1.00 16.58 LIG 0.05  C 
BRANCH 28 30
ATOM     30  N   ALA B   1     -10.636 -28.616  -7.061  1.00 16.58 LIG-0.07  N 
ATOM     31 H3   ALA B   1      -9.987 -28.992  -7.541  1.00 16.58 LIG 0.28  HD
ATOM     32 H1   ALA B   1     -10.310 -28.352  -6.276  1.00 16.58 LIG 0.28  HD
ATOM     33 H2   ALA B   1     -11.286 -29.208  -6.927  1.00 16.58 LIG 0.28  HD
ENDBRANCH 28 30
ENDBRANCH 25 28
ENDBRANCH 11 24
ENDBRANCH 8 11
ENDBRANCH 5 7
ENDBRANCH 1 5
BRANCH 3 34
ATOM     34  CA  GLU B   4     -16.106 -31.155  -9.151  1.00 20.15 LIG 0.18  C 
BRANCH 34 35
ATOM     35  C   GLU B   4     -17.058 -30.862  -7.994  1.00 19.92 LIG 0.24  C 
ATOM     36  N   VAL B   5     -17.483 -31.910  -7.296  1.00 19.46 LIG-0.35  N 
ATOM     37 H    VAL B   5     -17.254 -32.723  -7.459  1.00 19.46 LIG 0.16  HD
ATOM     38 O    GLU B   4     -17.393 -29.706  -7.735  1.00 20.03 LIG-0.27  OA
BRANCH 36 39
ATOM     39  CA  VAL B   5     -18.396 -31.755  -6.167  1.00 20.09 LIG 0.18  C 
BRANCH 39 40
ATOM     40  CB  VAL B   5     -18.099 -32.794  -5.060  1.00 20.49 LIG 0.01  C 
ATOM     41  CG2 VAL B   5     -18.448 -34.190  -5.545  1.00 19.70 LIG 0.01  C 
ATOM     42  CG1 VAL B   5     -18.886 -32.459  -3.805  1.00 21.00 LIG 0.01  C 
ENDBRANCH 39 40
BRANCH 39 43
ATOM     43  C   VAL B   5     -18.293 -30.360  -5.554  1.00 20.75 LIG 0.24  C 
ATOM     44  N   HIS B   6     -17.149 -30.062  -4.944  1.00 20.78 LIG-0.35  N 
ATOM     45 H    HIS B   6     -16.487 -30.606  -4.868  1.00 20.78 LIG 0.16  HD
ATOM     46 O    VAL B   5     -19.235 -29.572  -5.627  1.00 21.91 LIG-0.27  OA
BRANCH 44 47
ATOM     47  CA  HIS B   6     -16.930 -28.752  -4.340  1.00 21.28 LIG 0.17  C 
BRANCH 47 48
ATOM     48  C   HIS B   6     -16.770 -27.700  -5.431  1.00 23.03 LIG 0.22  C 
ATOM     49 O    HIS B   6     -17.750 -26.972  -5.698  1.00 25.39 LIG-0.29  OA
ENDBRANCH 47 48
BRANCH 47 50
ATOM     50  CB  HIS B   6     -15.676 -28.757  -3.461  1.00 19.33 LIG 0.09  C 
BRANCH 50 51
ATOM     51  CG  HIS B   6     -14.569 -29.612  -3.998  1.00 17.39 LIG 0.06  A 
ATOM     52  CD2 HIS B   6     -14.407 -30.956  -4.011  1.00 16.59 LIG 0.14  A 
ATOM     53 NE2  HIS B   6     -13.224 -31.217  -4.661  1.00 16.70 LIG-0.25  NA
ATOM     54  CE1 HIS B   6     -12.679 -30.072  -5.032  1.00 16.06 LIG 0.23  A 
ATOM     55 ND1  HIS B   6     -13.471 -29.088  -4.644  1.00 16.09 LIG-0.24  NA
ENDBRANCH 50 51
ENDBRANCH 47 50
ENDBRANCH 44 47
ENDBRANCH 39 43
ENDBRANCH 36 39
ENDBRANCH 34 35
BRANCH 34 56
ATOM     56  CB  GLU B   4     -14.966 -32.045  -8.647  1.00 22.38 LIG 0.04  C 
BRANCH 56 57
ATOM     57  CG  GLU B   4     -13.867 -31.305  -7.907  1.00 27.64 LIG 0.12  C 
BRANCH 57 58
ATOM     58  CD  GLU B   4     -12.697 -30.963  -8.809  1.00 30.78 LIG 0.17  C 
ATOM     59 OE2  GLU B   4     -12.876 -30.961 -10.046  1.00 32.62 LIG-0.65  OA
ATOM     60 OE1  GLU B   4     -11.597 -30.697  -8.280  1.00 32.75 LIG-0.65  OA
ENDBRANCH 57 58
ENDBRANCH 56 57
ENDBRANCH 34 56
ENDBRANCH 3 34
TORSDOF 22
ENDMDL
MODEL 7
USER: ADFR SOLUTION from run 116
USER: SCORE 18.277240 LL:  -5.903 LR: -13.307 RR:   0.000 FEB:  -6.744
USER: RMSD 2.851405
USER: SEED 115
USER: STATUS no improvement in best in 6 clusters for 5 generations
USER: GENES 24
USER: genes 0 Translation |==|  0.41481 0.46259 0.26340
USER: genes 1 Rotation |==|  0.52510 0.57426 0.46074 0.99225
USER: genes 2 Torsion [N]-C--CA-[N] |==|  0.94071
USER: genes 3 Torsion [C]-CA--N-[C] |==|  0.81829
USER: genes 4 Torsion [N]-C--CA-[N] |==|  0.90842
USER: genes 5 Torsion [C]-CA--CB-[CG] |==|  0.12749
USER: genes 6 Torsion [CA]-CB--CG-[CD] |==|  0.47077
USER: genes 7 Torsion [CB]-CG--CD-[NE] |==|  0.70116
USER: genes 8 Torsion [CG]-CD--NE-[CZ] |==|  0.30763
USER: genes 9 Torsion [C]-CA--N-[C] |==|  0.77242
USER: genes 10 Torsion [N]-C--CA-[N] |==|  0.46008
USER: genes 11 Torsion [C]-CA--N-[H2] |==|  0.03512
USER: genes 12 Torsion [C]-N--CA-[C] |==|  0.76700
USER: genes 13 Torsion [N]-CA--C-[N] |==|  0.42028
USER: genes 14 Torsion [C]-N--CA-[CB] |==|  0.51111
USER: genes 15 Torsion [N]-CA--CB-[CG2] |==|  0.90544
USER: genes 16 Torsion [N]-CA--C-[N] |==|  0.33398
USER: genes 17 Torsion [C]-N--CA-[C] |==|  0.14173
USER: genes 18 Torsion [N]-CA--C-[O] |==|  0.44011
USER: genes 19 Torsion [N]-CA--CB-[CG] |==|  0.85187
USER: genes 20 Torsion [CA]-CB--CG-[CD2] |==|  0.79572
USER: genes 21 Torsion [N]-CA--CB-[CG] |==|  0.20570
USER: genes 22 Torsion [CA]-CB--CG-[CD] |==|  0.62038
USER: genes 23 Torsion [CB]-CG--CD-[OE2] |==|  0.53363
ROOT
ATOM      1  C   ALA B   3     -16.669 -28.959 -10.192  1.00 17.17 LIG 0.24  C 
ATOM      2 O    ALA B   3     -17.680 -29.459 -10.688  1.00 18.54 LIG-0.27  OA
ATOM      3  N   GLU B   4     -15.853 -29.631  -9.384  1.00 17.89 LIG-0.35  N 
ATOM      4 H    GLU B   4     -15.145 -29.293  -9.032  1.00 17.89 LIG 0.16  HD
ENDROOT
BRANCH 1 5
ATOM      5  CA  ALA B   3     -16.299 -27.507 -10.492  1.00 15.99 LIG 0.17  C 
ATOM      6  CB  ALA B   3     -15.662 -27.405 -11.874  1.00 16.21 LIG 0.04  C 
BRANCH 5 7
ATOM      7  N   ALA B   3     -15.411 -26.921  -9.495  1.00 13.91 LIG-0.35  N 
ATOM      8  C   ARG B   2     -15.807 -26.727  -8.240  1.00 12.46 LIG 0.24  C 
ATOM      9 O    ARG B   2     -16.929 -27.035  -7.841  1.00 11.56 LIG-0.27  OA
ATOM     10 H    ALA B   3     -14.629 -26.718  -9.790  1.00 13.91 LIG 0.16  HD
BRANCH 8 11
ATOM     11  CA  ARG B   2     -14.796 -26.092  -7.291  1.00 12.24 LIG 0.18  C 
BRANCH 11 12
ATOM     12  CB  ARG B   2     -14.955 -24.570  -7.313  1.00 10.58 LIG 0.04  C 
BRANCH 12 13
ATOM     13  CG  ARG B   2     -16.393 -24.078  -7.223  1.00  9.71 LIG 0.02  C 
BRANCH 13 14
ATOM     14  CD  ARG B   2     -16.427 -22.577  -6.993  1.00  9.44 LIG 0.14  C 
BRANCH 14 15
ATOM     15  NE  ARG B   2     -16.835 -22.233  -5.632  1.00  9.23 LIG-0.23  N 
ATOM     16  CZ  ARG B   2     -16.031 -21.704  -4.717  1.00  9.20 LIG 0.67  C 
ATOM     17  NH1 ARG B   2     -14.762 -21.453  -5.014  1.00  7.63 LIG-0.23  N 
ATOM     18  NH2 ARG B   2     -16.495 -21.423  -3.506  1.00  9.31 LIG-0.23  N 
ATOM     19 1HH1 ARG B   2     -14.460 -21.634  -5.798  1.00  7.63 LIG 0.17  HD
ATOM     20 2HH1 ARG B   2     -14.242 -21.111  -4.421  1.00  7.63 LIG 0.17  HD
ATOM     21 2HH2 ARG B   2     -15.973 -21.080  -2.915  1.00  9.31 LIG 0.17  HD
ATOM     22 1HH2 ARG B   2     -17.317 -21.583  -3.313  1.00  9.31 LIG 0.17  HD
ATOM     23 HE   ARG B   2     -17.651 -22.384  -5.408  1.00  9.23 LIG 0.18  HD
ENDBRANCH 14 15
ENDBRANCH 13 14
ENDBRANCH 12 13
ENDBRANCH 11 12
BRANCH 11 24
ATOM     24  N   ARG B   2     -13.400 -26.430  -7.547  1.00 12.50 LIG-0.35  N 
ATOM     25  C   ALA B   1     -12.835 -27.554  -7.123  1.00 14.33 LIG 0.25  C 
ATOM     26 O    ALA B   1     -13.443 -28.428  -6.509  1.00 14.72 LIG-0.27  OA
ATOM     27 H    ARG B   2     -12.978 -25.833  -7.999  1.00 12.50 LIG 0.16  HD
BRANCH 25 28
ATOM     28  CA  ALA B   1     -11.356 -27.714  -7.460  1.00 14.93 LIG 0.27  C 
ATOM     29  CB  ALA B   1     -11.181 -27.984  -8.950  1.00 16.58 LIG 0.05  C 
BRANCH 28 30
ATOM     30  N   ALA B   1     -10.738 -28.811  -6.664  1.00 16.58 LIG-0.07  N 
ATOM     31 H3   ALA B   1     -10.261 -29.336  -7.202  1.00 16.58 LIG 0.28  HD
ATOM     32 H1   ALA B   1     -10.207 -28.463  -6.041  1.00 16.58 LIG 0.28  HD
ATOM     33 H2   ALA B   1     -11.378 -29.291  -6.274  1.00 16.58 LIG 0.28  HD
ENDBRANCH 28 30
ENDBRANCH 25 28
ENDBRANCH 11 24
ENDBRANCH 8 11
ENDBRANCH 5 7
ENDBRANCH 1 5
BRANCH 3 34
ATOM     34  CA  GLU B   4     -16.097 -31.025  -9.020  1.00 20.15 LIG 0.18  C 
BRANCH 34 35
ATOM     35  C   GLU B   4     -17.073 -31.120  -7.850  1.00 19.92 LIG 0.24  C 
ATOM     36  N   VAL B   5     -17.821 -32.217  -7.789  1.00 19.46 LIG-0.35  N 
ATOM     37 H    VAL B   5     -17.782 -32.858  -8.361  1.00 19.46 LIG 0.16  HD
ATOM     38 O    GLU B   4     -17.140 -30.219  -7.014  1.00 20.03 LIG-0.27  OA
BRANCH 36 39
ATOM     39  CA  VAL B   5     -18.791 -32.421  -6.717  1.00 20.09 LIG 0.18  C 
BRANCH 39 40
ATOM     40  CB  VAL B   5     -19.456 -33.814  -6.821  1.00 20.49 LIG 0.01  C 
ATOM     41  CG2 VAL B   5     -19.611 -34.212  -8.278  1.00 19.70 LIG 0.01  C 
ATOM     42  CG1 VAL B   5     -20.809 -33.798  -6.130  1.00 21.00 LIG 0.01  C 
ENDBRANCH 39 40
BRANCH 39 43
ATOM     43  C   VAL B   5     -18.135 -32.305  -5.343  1.00 20.75 LIG 0.24  C 
ATOM     44  N   HIS B   6     -18.609 -31.358  -4.536  1.00 20.78 LIG-0.35  N 
ATOM     45 H    HIS B   6     -19.241 -30.815  -4.749  1.00 20.78 LIG 0.16  HD
ATOM     46 O    VAL B   5     -17.212 -33.053  -5.023  1.00 21.91 LIG-0.27  OA
BRANCH 44 47
ATOM     47  CA  HIS B   6     -18.074 -31.169  -3.193  1.00 21.28 LIG 0.17  C 
BRANCH 47 48
ATOM     48  C   HIS B   6     -16.554 -31.062  -3.250  1.00 23.03 LIG 0.22  C 
ATOM     49 O    HIS B   6     -15.964 -30.504  -2.301  1.00 25.39 LIG-0.29  OA
ENDBRANCH 47 48
BRANCH 47 50
ATOM     50  CB  HIS B   6     -18.461 -32.335  -2.278  1.00 19.33 LIG 0.09  C 
BRANCH 50 51
ATOM     51  CG  HIS B   6     -19.933 -32.613  -2.251  1.00 17.39 LIG 0.06  A 
ATOM     52  CD2 HIS B   6     -20.957 -31.942  -1.673  1.00 16.59 LIG 0.14  A 
ATOM     53 NE2  HIS B   6     -22.113 -32.614  -1.989  1.00 16.70 LIG-0.25  NA
ATOM     54  CE1 HIS B   6     -21.809 -33.663  -2.732  1.00 16.06 LIG 0.23  A 
ATOM     55 ND1  HIS B   6     -20.499 -33.685  -2.906  1.00 16.09 LIG-0.24  NA
ENDBRANCH 50 51
ENDBRANCH 47 50
ENDBRANCH 44 47
ENDBRANCH 39 43
ENDBRANCH 36 39
ENDBRANCH 34 35
BRANCH 34 56
ATOM     56  CB  GLU B   4     -14.783 -31.708  -8.631  1.00 22.38 LIG 0.04  C 
BRANCH 56 57
ATOM     57  CG  GLU B   4     -14.239 -31.304  -7.272  1.00 27.64 LIG 0.12  C 
BRANCH 57 58
ATOM     58  CD  GLU B   4     -12.743 -31.059  -7.301  1.00 30.78 LIG 0.17  C 
ATOM     59 OE2  GLU B   4     -12.135 -30.947  -6.215  1.00 32.62 LIG-0.65  OA
ATOM     60 OE1  GLU B   4     -12.176 -30.979  -8.411  1.00 32.75 LIG-0.65  OA
ENDBRANCH 57 58
ENDBRANCH 56 57
ENDBRANCH 34 56
ENDBRANCH 3 34
TORSDOF 22
ENDMDL
MODEL 8
USER: ADFR SOLUTION from run 61
USER: SCORE 19.343245 LL:  -7.275 LR: -13.266 RR:   0.000 FEB:  -6.703
USER: RMSD 4.006006
USER: SEED 60
USER: STATUS no improvement in best in 6 clusters for 5 generations
USER: GENES 24
USER: genes 0 Translation |==|  0.44044 0.45769 0.24837
USER: genes 1 Rotation |==|  0.52831 0.57972 0.51837 0.99245
USER: genes 2 Torsion [N]-C--CA-[N] |==|  0.95225
USER: genes 3 Torsion [C]-CA--N-[C] |==|  0.81917
USER: genes 4 Torsion [N]-C--CA-[N] |==|  0.88095
USER: genes 5 Torsion [C]-CA--CB-[CG] |==|  0.18051
USER: genes 6 Torsion [CA]-CB--CG-[CD] |==|  0.45966
USER: genes 7 Torsion [CB]-CG--CD-[NE] |==|  0.65260
USER: genes 8 Torsion [CG]-CD--NE-[CZ] |==|  0.30556
USER: genes 9 Torsion [C]-CA--N-[C] |==|  0.84191
USER: genes 10 Torsion [N]-C--CA-[N] |==|  0.48640
USER: genes 11 Torsion [C]-CA--N-[H2] |==|  0.73299
USER: genes 12 Torsion [C]-N--CA-[C] |==|  0.63380
USER: genes 13 Torsion [N]-CA--C-[N] |==|  0.78496
USER: genes 14 Torsion [C]-N--CA-[CB] |==|  0.52412
USER: genes 15 Torsion [N]-CA--CB-[CG2] |==|  0.64187
USER: genes 16 Torsion [N]-CA--C-[N] |==|  0.38889
USER: genes 17 Torsion [C]-N--CA-[C] |==|  0.54421
USER: genes 18 Torsion [N]-CA--C-[O] |==|  0.34575
USER: genes 19 Torsion [N]-CA--CB-[CG] |==|  0.74501
USER: genes 20 Torsion [CA]-CB--CG-[CD2] |==|  0.90758
USER: genes 21 Torsion [N]-CA--CB-[CG] |==|  0.01183
USER: genes 22 Torsion [CA]-CB--CG-[CD] |==|  0.27048
USER: genes 23 Torsion [CB]-CG--CD-[OE2] |==|  0.49574
ROOT
ATOM      1  C   ALA B   3     -16.208 -29.073 -10.519  1.00 17.17 LIG 0.24  C 
ATOM      2 O    ALA B   3     -17.088 -29.763 -11.036  1.00 18.54 LIG-0.27  OA
ATOM      3  N   GLU B   4     -15.251 -29.581  -9.747  1.00 17.89 LIG-0.35  N 
ATOM      4 H    GLU B   4     -14.632 -29.110  -9.381  1.00 17.89 LIG 0.16  HD
ENDROOT
BRANCH 1 5
ATOM      5  CA  ALA B   3     -16.177 -27.562 -10.748  1.00 15.99 LIG 0.17  C 
ATOM      6  CB  ALA B   3     -15.696 -27.258 -12.163  1.00 16.21 LIG 0.04  C 
BRANCH 5 7
ATOM      7  N   ALA B   3     -15.350 -26.849  -9.782  1.00 13.91 LIG-0.35  N 
ATOM      8  C   ARG B   2     -15.666 -26.812  -8.491  1.00 12.46 LIG 0.24  C 
ATOM      9 O    ARG B   2     -16.657 -27.378  -8.031  1.00 11.56 LIG-0.27  OA
ATOM     10 H    ALA B   3     -14.658 -26.466 -10.119  1.00 13.91 LIG 0.16  HD
BRANCH 8 11
ATOM     11  CA  ARG B   2     -14.735 -26.022  -7.577  1.00 12.24 LIG 0.18  C 
BRANCH 11 12
ATOM     12  CB  ARG B   2     -15.063 -24.530  -7.673  1.00 10.58 LIG 0.04  C 
BRANCH 12 13
ATOM     13  CG  ARG B   2     -16.444 -24.148  -7.158  1.00  9.71 LIG 0.02  C 
BRANCH 13 14
ATOM     14  CD  ARG B   2     -16.539 -22.644  -6.961  1.00  9.44 LIG 0.14  C 
BRANCH 14 15
ATOM     15  NE  ARG B   2     -16.950 -22.287  -5.605  1.00  9.23 LIG-0.23  N 
ATOM     16  CZ  ARG B   2     -16.158 -21.716  -4.705  1.00  9.20 LIG 0.67  C 
ATOM     17  NH1 ARG B   2     -14.899 -21.434  -5.013  1.00  7.63 LIG-0.23  N 
ATOM     18  NH2 ARG B   2     -16.624 -21.426  -3.497  1.00  9.31 LIG-0.23  N 
ATOM     19 1HH1 ARG B   2     -14.596 -21.620  -5.796  1.00  7.63 LIG 0.17  HD
ATOM     20 2HH1 ARG B   2     -14.386 -21.064  -4.430  1.00  7.63 LIG 0.17  HD
ATOM     21 2HH2 ARG B   2     -16.110 -21.056  -2.915  1.00  9.31 LIG 0.17  HD
ATOM     22 1HH2 ARG B   2     -17.440 -21.607  -3.296  1.00  9.31 LIG 0.17  HD
ATOM     23 HE   ARG B   2     -17.761 -22.458  -5.373  1.00  9.23 LIG 0.18  HD
ENDBRANCH 14 15
ENDBRANCH 13 14
ENDBRANCH 12 13
ENDBRANCH 11 12
BRANCH 11 24
ATOM     24  N   ARG B   2     -13.309 -26.214  -7.822  1.00 12.50 LIG-0.35  N 
ATOM     25  C   ALA B   1     -12.719 -27.403  -7.790  1.00 14.33 LIG 0.25  C 
ATOM     26 O    ALA B   1     -13.325 -28.454  -7.589  1.00 14.72 LIG-0.27  OA
ATOM     27 H    ARG B   2     -12.887 -25.484  -7.989  1.00 12.50 LIG 0.16  HD
BRANCH 25 28
ATOM     28  CA  ALA B   1     -11.214 -27.397  -8.038  1.00 14.93 LIG 0.27  C 
ATOM     29  CB  ALA B   1     -10.913 -26.874  -9.438  1.00 16.58 LIG 0.05  C 
BRANCH 28 30
ATOM     30  N   ALA B   1     -10.636 -28.759  -7.865  1.00 16.58 LIG-0.07  N 
ATOM     31 H3   ALA B   1     -11.271 -29.370  -7.991  1.00 16.58 LIG 0.28  HD
ATOM     32 H1   ALA B   1      -9.984 -28.882  -8.459  1.00 16.58 LIG 0.28  HD
ATOM     33 H2   ALA B   1     -10.307 -28.839  -7.043  1.00 16.58 LIG 0.28  HD
ENDBRANCH 28 30
ENDBRANCH 25 28
ENDBRANCH 11 24
ENDBRANCH 8 11
ENDBRANCH 5 7
ENDBRANCH 1 5
BRANCH 3 34
ATOM     34  CA  GLU B   4     -15.170 -31.011  -9.452  1.00 20.15 LIG 0.18  C 
BRANCH 34 35
ATOM     35  C   GLU B   4     -14.979 -31.247  -7.955  1.00 19.92 LIG 0.24  C 
ATOM     36  N   VAL B   5     -13.756 -31.046  -7.475  1.00 19.46 LIG-0.35  N 
ATOM     37 H    VAL B   5     -13.086 -30.797  -7.953  1.00 19.46 LIG 0.16  HD
ATOM     38 O    GLU B   4     -15.925 -31.596  -7.250  1.00 20.03 LIG-0.27  OA
BRANCH 36 39
ATOM     39  CA  VAL B   5     -13.452 -31.240  -6.060  1.00 20.09 LIG 0.18  C 
BRANCH 39 40
ATOM     40  CB  VAL B   5     -12.028 -30.738  -5.720  1.00 20.49 LIG 0.01  C 
ATOM     41  CG2 VAL B   5     -11.258 -31.815  -4.976  1.00 19.70 LIG 0.01  C 
ATOM     42  CG1 VAL B   5     -12.108 -29.472  -4.884  1.00 21.00 LIG 0.01  C 
ENDBRANCH 39 40
BRANCH 39 43
ATOM     43  C   VAL B   5     -14.446 -30.500  -5.169  1.00 20.75 LIG 0.24  C 
ATOM     44  N   HIS B   6     -14.846 -31.134  -4.070  1.00 20.78 LIG-0.35  N 
ATOM     45 H    HIS B   6     -14.588 -31.924  -3.848  1.00 20.78 LIG 0.16  HD
ATOM     46 O    VAL B   5     -14.849 -29.379  -5.476  1.00 21.91 LIG-0.27  OA
BRANCH 44 47
ATOM     47  CA  HIS B   6     -15.778 -30.516  -3.133  1.00 21.28 LIG 0.17  C 
BRANCH 47 48
ATOM     48  C   HIS B   6     -15.755 -31.268  -1.808  1.00 23.03 LIG 0.22  C 
ATOM     49 O    HIS B   6     -15.511 -30.623  -0.766  1.00 25.39 LIG-0.29  OA
ENDBRANCH 47 48
BRANCH 47 50
ATOM     50  CB  HIS B   6     -17.205 -30.527  -3.691  1.00 19.33 LIG 0.09  C 
BRANCH 50 51
ATOM     51  CG  HIS B   6     -17.557 -29.290  -4.460  1.00 17.39 LIG 0.06  A 
ATOM     52  CD2 HIS B   6     -17.175 -28.001  -4.302  1.00 16.59 LIG 0.14  A 
ATOM     53 NE2  HIS B   6     -17.767 -27.275  -5.307  1.00 16.70 LIG-0.25  NA
ATOM     54  CE1 HIS B   6     -18.489 -28.089  -6.055  1.00 16.06 LIG 0.23  A 
ATOM     55 ND1  HIS B   6     -18.380 -29.312  -5.565  1.00 16.09 LIG-0.24  NA
ENDBRANCH 50 51
ENDBRANCH 47 50
ENDBRANCH 44 47
ENDBRANCH 39 43
ENDBRANCH 36 39
ENDBRANCH 34 35
BRANCH 34 56
ATOM     56  CB  GLU B   4     -14.000 -31.643 -10.210  1.00 22.38 LIG 0.04  C 
BRANCH 56 57
ATOM     57  CG  GLU B   4     -13.148 -30.658 -10.993  1.00 27.64 LIG 0.12  C 
BRANCH 57 58
ATOM     58  CD  GLU B   4     -11.904 -30.244 -10.232  1.00 30.78 LIG 0.17  C 
ATOM     59 OE2  GLU B   4     -11.102 -29.457 -10.780  1.00 32.62 LIG-0.65  OA
ATOM     60 OE1  GLU B   4     -11.727 -30.706  -9.085  1.00 32.75 LIG-0.65  OA
ENDBRANCH 57 58
ENDBRANCH 56 57
ENDBRANCH 34 56
ENDBRANCH 3 34
TORSDOF 22
ENDMDL
MODEL 9
USER: ADFR SOLUTION from run 134
USER: SCORE 16.526791 LL:  -5.133 LR: -13.186 RR:   0.000 FEB:  -6.624
USER: RMSD 2.862407
USER: SEED 133
USER: STATUS no improvement in best in 6 clusters for 5 generations
USER: GENES 24
USER: genes 0 Translation |==|  0.42651 0.41466 0.31502
USER: genes 1 Rotation |==|  0.43918 0.47124 0.52727 0.99470
USER: genes 2 Torsion [N]-C--CA-[N] |==|  0.02727
USER: genes 3 Torsion [C]-CA--N-[C] |==|  0.78569
USER: genes 4 Torsion [N]-C--CA-[N] |==|  0.93096
USER: genes 5 Torsion [C]-CA--CB-[CG] |==|  0.13571
USER: genes 6 Torsion [CA]-CB--CG-[CD] |==|  0.43458
USER: genes 7 Torsion [CB]-CG--CD-[NE] |==|  0.88554
USER: genes 8 Torsion [CG]-CD--NE-[CZ] |==|  0.72217
USER: genes 9 Torsion [C]-CA--N-[C] |==|  0.84200
USER: genes 10 Torsion [N]-C--CA-[N] |==|  0.39402
USER: genes 11 Torsion [C]-CA--N-[H2] |==|  0.71003
USER: genes 12 Torsion [C]-N--CA-[C] |==|  0.80712
USER: genes 13 Torsion [N]-CA--C-[N] |==|  0.36104
USER: genes 14 Torsion [C]-N--CA-[CB] |==|  0.43906
USER: genes 15 Torsion [N]-CA--CB-[CG2] |==|  0.90932
USER: genes 16 Torsion [N]-CA--C-[N] |==|  0.28002
USER: genes 17 Torsion [C]-N--CA-[C] |==|  0.66891
USER: genes 18 Torsion [N]-CA--C-[O] |==|  0.16209
USER: genes 19 Torsion [N]-CA--CB-[CG] |==|  0.76935
USER: genes 20 Torsion [CA]-CB--CG-[CD2] |==|  0.06442
USER: genes 21 Torsion [N]-CA--CB-[CG] |==|  0.21761
USER: genes 22 Torsion [CA]-CB--CG-[CD] |==|  0.62534
USER: genes 23 Torsion [CB]-CG--CD-[OE2] |==|  0.46844
ROOT
ATOM      1  C   ALA B   3     -16.459 -30.073  -9.069  1.00 17.17 LIG 0.24  C 
ATOM      2 O    ALA B   3     -17.030 -31.002  -9.643  1.00 18.54 LIG-0.27  OA
ATOM      3  N   GLU B   4     -15.940 -30.188  -7.849  1.00 17.89 LIG-0.35  N 
ATOM      4 H    GLU B   4     -15.539 -29.547  -7.439  1.00 17.89 LIG 0.16  HD
ENDROOT
BRANCH 1 5
ATOM      5  CA  ALA B   3     -16.317 -28.713  -9.752  1.00 15.99 LIG 0.17  C 
ATOM      6  CB  ALA B   3     -15.832 -28.897 -11.186  1.00 16.21 LIG 0.04  C 
BRANCH 5 7
ATOM      7  N   ALA B   3     -15.427 -27.802  -9.043  1.00 13.91 LIG-0.35  N 
ATOM      8  C   ARG B   2     -15.820 -27.162  -7.945  1.00 12.46 LIG 0.24  C 
ATOM      9 O    ARG B   2     -16.940 -27.302  -7.457  1.00 11.56 LIG-0.27  OA
ATOM     10 H    ALA B   3     -14.646 -27.721  -9.394  1.00 13.91 LIG 0.16  HD
BRANCH 8 11
ATOM     11  CA  ARG B   2     -14.808 -26.221  -7.298  1.00 12.24 LIG 0.18  C 
BRANCH 11 12
ATOM     12  CB  ARG B   2     -15.098 -24.780  -7.723  1.00 10.58 LIG 0.04  C 
BRANCH 12 13
ATOM     13  CG  ARG B   2     -16.553 -24.356  -7.579  1.00  9.71 LIG 0.02  C 
BRANCH 13 14
ATOM     14  CD  ARG B   2     -16.654 -22.844  -7.454  1.00  9.44 LIG 0.14  C 
BRANCH 14 15
ATOM     15  NE  ARG B   2     -15.611 -22.288  -6.594  1.00  9.23 LIG-0.23  N 
ATOM     16  CZ  ARG B   2     -15.789 -21.941  -5.325  1.00  9.20 LIG 0.67  C 
ATOM     17  NH1 ARG B   2     -16.979 -22.090  -4.757  1.00  7.63 LIG-0.23  N 
ATOM     18  NH2 ARG B   2     -14.778 -21.446  -4.622  1.00  9.31 LIG-0.23  N 
ATOM     19 1HH1 ARG B   2     -17.635 -22.412  -5.211  1.00  7.63 LIG 0.17  HD
ATOM     20 2HH1 ARG B   2     -17.094 -21.865  -3.935  1.00  7.63 LIG 0.17  HD
ATOM     21 2HH2 ARG B   2     -14.896 -21.222  -3.800  1.00  9.31 LIG 0.17  HD
ATOM     22 1HH2 ARG B   2     -14.007 -21.350  -4.988  1.00  9.31 LIG 0.17  HD
ATOM     23 HE   ARG B   2     -14.828 -22.178  -6.933  1.00  9.23 LIG 0.18  HD
ENDBRANCH 14 15
ENDBRANCH 13 14
ENDBRANCH 12 13
ENDBRANCH 11 12
BRANCH 11 24
ATOM     24  N   ARG B   2     -13.408 -26.527  -7.572  1.00 12.50 LIG-0.35  N 
ATOM     25  C   ALA B   1     -12.852 -27.701  -7.296  1.00 14.33 LIG 0.25  C 
ATOM     26 O    ALA B   1     -13.473 -28.649  -6.819  1.00 14.72 LIG-0.27  OA
ATOM     27 H    ARG B   2     -12.976 -25.876  -7.931  1.00 12.50 LIG 0.16  HD
BRANCH 25 28
ATOM     28  CA  ALA B   1     -11.367 -27.819  -7.625  1.00 14.93 LIG 0.27  C 
ATOM     29  CB  ALA B   1     -11.180 -28.457  -8.997  1.00 16.58 LIG 0.05  C 
BRANCH 28 30
ATOM     30  N   ALA B   1     -10.648 -28.612  -6.589  1.00 16.58 LIG-0.07  N 
ATOM     31 H3   ALA B   1     -11.239 -29.058  -6.094  1.00 16.58 LIG 0.28  HD
ATOM     32 H1   ALA B   1     -10.097 -29.188  -6.985  1.00 16.58 LIG 0.28  HD
ATOM     33 H2   ALA B   1     -10.180 -28.064  -6.068  1.00 16.58 LIG 0.28  HD
ENDBRANCH 28 30
ENDBRANCH 25 28
ENDBRANCH 11 24
ENDBRANCH 8 11
ENDBRANCH 5 7
ENDBRANCH 1 5
BRANCH 3 34
ATOM     34  CA  GLU B   4     -16.009 -31.436  -7.091  1.00 20.15 LIG 0.18  C 
BRANCH 34 35
ATOM     35  C   GLU B   4     -17.443 -31.730  -6.657  1.00 19.92 LIG 0.24  C 
ATOM     36  N   VAL B   5     -17.904 -32.949  -6.920  1.00 19.46 LIG-0.35  N 
ATOM     37 H    VAL B   5     -17.445 -33.563  -7.312  1.00 19.46 LIG 0.16  HD
ATOM     38 O    GLU B   4     -18.115 -30.871  -6.086  1.00 20.03 LIG-0.27  OA
BRANCH 36 39
ATOM     39  CA  VAL B   5     -19.259 -33.347  -6.553  1.00 20.09 LIG 0.18  C 
BRANCH 39 40
ATOM     40  CB  VAL B   5     -19.742 -34.544  -7.408  1.00 20.49 LIG 0.01  C 
ATOM     41  CG2 VAL B   5     -19.140 -34.469  -8.800  1.00 19.70 LIG 0.01  C 
ATOM     42  CG1 VAL B   5     -21.259 -34.549  -7.488  1.00 21.00 LIG 0.01  C 
ENDBRANCH 39 40
BRANCH 39 43
ATOM     43  C   VAL B   5     -19.344 -33.745  -5.082  1.00 20.75 LIG 0.24  C 
ATOM     44  N   HIS B   6     -19.843 -32.836  -4.248  1.00 20.78 LIG-0.35  N 
ATOM     45 H    HIS B   6     -20.102 -32.052  -4.489  1.00 20.78 LIG 0.16  HD
ATOM     46 O    VAL B   5     -18.958 -34.852  -4.707  1.00 21.91 LIG-0.27  OA
BRANCH 44 47
ATOM     47  CA  HIS B   6     -19.992 -33.112  -2.824  1.00 21.28 LIG 0.17  C 
BRANCH 47 48
ATOM     48  C   HIS B   6     -21.460 -33.013  -2.428  1.00 23.03 LIG 0.22  C 
ATOM     49 O    HIS B   6     -22.280 -33.756  -3.008  1.00 25.39 LIG-0.29  OA
ENDBRANCH 47 48
BRANCH 47 50
ATOM     50  CB  HIS B   6     -19.178 -32.122  -1.985  1.00 19.33 LIG 0.09  C 
BRANCH 50 51
ATOM     51  CG  HIS B   6     -17.734 -32.497  -1.846  1.00 17.39 LIG 0.06  A 
ATOM     52  CD2 HIS B   6     -16.937 -33.274  -2.616  1.00 16.59 LIG 0.14  A 
ATOM     53 NE2  HIS B   6     -15.684 -33.256  -2.052  1.00 16.70 LIG-0.25  NA
ATOM     54  CE1 HIS B   6     -15.712 -32.496  -0.972  1.00 16.06 LIG 0.23  A 
ATOM     55 ND1  HIS B   6     -16.938 -32.025  -0.825  1.00 16.09 LIG-0.24  NA
ENDBRANCH 50 51
ENDBRANCH 47 50
ENDBRANCH 44 47
ENDBRANCH 39 43
ENDBRANCH 36 39
ENDBRANCH 34 35
BRANCH 34 56
ATOM     56  CB  GLU B   4     -15.118 -31.351  -5.849  1.00 22.38 LIG 0.04  C 
BRANCH 56 57
ATOM     57  CG  GLU B   4     -15.717 -30.566  -4.695  1.00 27.64 LIG 0.12  C 
BRANCH 57 58
ATOM     58  CD  GLU B   4     -14.719 -29.609  -4.072  1.00 30.78 LIG 0.17  C 
ATOM     59 OE2  GLU B   4     -15.136 -28.754  -3.262  1.00 32.62 LIG-0.65  OA
ATOM     60 OE1  GLU B   4     -13.516 -29.712  -4.394  1.00 32.75 LIG-0.65  OA
ENDBRANCH 57 58
ENDBRANCH 56 57
ENDBRANCH 34 56
ENDBRANCH 3 34
TORSDOF 22
ENDMDL
MODEL 10
USER: ADFR SOLUTION from run 32
USER: SCORE 18.732722 LL:  -6.231 LR: -13.182 RR:   0.000 FEB:  -6.620
USER: RMSD 2.066516
USER: SEED 31
USER: STATUS no improvement in best in 10 clusters for 5 generations
USER: GENES 24
USER: genes 0 Translation |==|  0.45049 0.41283 0.29264
USER: genes 1 Rotation |==|  0.46392 0.59573 0.45205 0.98707
USER: genes 2 Torsion [N]-C--CA-[N] |==|  0.89800
USER: genes 3 Torsion [C]-CA--N-[C] |==|  0.83441
USER: genes 4 Torsion [N]-C--CA-[N] |==|  0.89986
USER: genes 5 Torsion [C]-CA--CB-[CG] |==|  0.17989
USER: genes 6 Torsion [CA]-CB--CG-[CD] |==|  0.43392
USER: genes 7 Torsion [CB]-CG--CD-[NE] |==|  0.86934
USER: genes 8 Torsion [CG]-CD--NE-[CZ] |==|  0.71488
USER: genes 9 Torsion [C]-CA--N-[C] |==|  0.82197
USER: genes 10 Torsion [N]-C--CA-[N] |==|  0.46780
USER: genes 11 Torsion [C]-CA--N-[H2] |==|  0.98409
USER: genes 12 Torsion [C]-N--CA-[C] |==|  0.75245
USER: genes 13 Torsion [N]-CA--C-[N] |==|  0.90054
USER: genes 14 Torsion [C]-N--CA-[CB] |==|  0.84437
USER: genes 15 Torsion [N]-CA--CB-[CG2] |==|  0.65339
USER: genes 16 Torsion [N]-CA--C-[N] |==|  0.45337
USER: genes 17 Torsion [C]-N--CA-[C] |==|  0.74884
USER: genes 18 Torsion [N]-CA--C-[O] |==|  0.41682
USER: genes 19 Torsion [N]-CA--CB-[CG] |==|  0.49407
USER: genes 20 Torsion [CA]-CB--CG-[CD2] |==|  0.68471
USER: genes 21 Torsion [N]-CA--CB-[CG] |==|  0.28068
USER: genes 22 Torsion [CA]-CB--CG-[CD] |==|  0.70387
USER: genes 23 Torsion [CB]-CG--CD-[OE2] |==|  0.44577
ROOT
ATOM      1  C   ALA B   3     -16.027 -30.116  -9.556  1.00 17.17 LIG 0.24  C 
ATOM      2 O    ALA B   3     -17.076 -30.710  -9.807  1.00 18.54 LIG-0.27  OA
ATOM      3  N   GLU B   4     -15.118 -30.584  -8.705  1.00 17.89 LIG-0.35  N 
ATOM      4 H    GLU B   4     -14.382 -30.178  -8.521  1.00 17.89 LIG 0.16  HD
ENDROOT
BRANCH 1 5
ATOM      5  CA  ALA B   3     -15.717 -28.779 -10.228  1.00 15.99 LIG 0.17  C 
ATOM      6  CB  ALA B   3     -14.889 -29.008 -11.489  1.00 16.21 LIG 0.04  C 
BRANCH 5 7
ATOM      7  N   ALA B   3     -15.030 -27.838  -9.351  1.00 13.91 LIG-0.35  N 
ATOM      8  C   ARG B   2     -15.577 -27.426  -8.211  1.00 12.46 LIG 0.24  C 
ATOM      9 O    ARG B   2     -16.678 -27.814  -7.822  1.00 11.56 LIG-0.27  OA
ATOM     10 H    ALA B   3     -14.260 -27.583  -9.635  1.00 13.91 LIG 0.16  HD
BRANCH 8 11
ATOM     11  CA  ARG B   2     -14.773 -26.428  -7.384  1.00 12.24 LIG 0.18  C 
BRANCH 11 12
ATOM     12  CB  ARG B   2     -15.090 -25.003  -7.843  1.00 10.58 LIG 0.04  C 
BRANCH 12 13
ATOM     13  CG  ARG B   2     -16.528 -24.563  -7.605  1.00  9.71 LIG 0.02  C 
BRANCH 13 14
ATOM     14  CD  ARG B   2     -16.613 -23.048  -7.529  1.00  9.44 LIG 0.14  C 
BRANCH 14 15
ATOM     15  NE  ARG B   2     -15.584 -22.478  -6.660  1.00  9.23 LIG-0.23  N 
ATOM     16  CZ  ARG B   2     -15.801 -22.044  -5.424  1.00  9.20 LIG 0.67  C 
ATOM     17  NH1 ARG B   2     -17.018 -22.111  -4.900  1.00  7.63 LIG-0.23  N 
ATOM     18  NH2 ARG B   2     -14.801 -21.545  -4.709  1.00  9.31 LIG-0.23  N 
ATOM     19 1HH1 ARG B   2     -17.667 -22.436  -5.362  1.00  7.63 LIG 0.17  HD
ATOM     20 2HH1 ARG B   2     -17.158 -21.830  -4.100  1.00  7.63 LIG 0.17  HD
ATOM     21 2HH2 ARG B   2     -14.942 -21.264  -3.908  1.00  9.31 LIG 0.17  HD
ATOM     22 1HH2 ARG B   2     -14.011 -21.501  -5.046  1.00  9.31 LIG 0.17  HD
ATOM     23 HE   ARG B   2     -14.785 -22.419  -6.970  1.00  9.23 LIG 0.18  HD
ENDBRANCH 14 15
ENDBRANCH 13 14
ENDBRANCH 12 13
ENDBRANCH 11 12
BRANCH 11 24
ATOM     24  N   ARG B   2     -13.327 -26.625  -7.401  1.00 12.50 LIG-0.35  N 
ATOM     25  C   ALA B   1     -12.734 -27.706  -6.909  1.00 14.33 LIG 0.25  C 
ATOM     26 O    ALA B   1     -13.349 -28.656  -6.428  1.00 14.72 LIG-0.27  OA
ATOM     27 H    ARG B   2     -12.895 -25.974  -7.761  1.00 12.50 LIG 0.16  HD
BRANCH 25 28
ATOM     28  CA  ALA B   1     -11.211 -27.714  -6.989  1.00 14.93 LIG 0.27  C 
ATOM     29  CB  ALA B   1     -10.760 -27.842  -8.439  1.00 16.58 LIG 0.05  C 
BRANCH 28 30
ATOM     30  N   ALA B   1     -10.636 -28.820  -6.173  1.00 16.58 LIG-0.07  N 
ATOM     31 H3   ALA B   1     -10.238 -29.409  -6.709  1.00 16.58 LIG 0.28  HD
ATOM     32 H1   ALA B   1     -10.040 -28.488  -5.602  1.00 16.58 LIG 0.28  HD
ATOM     33 H2   ALA B   1     -11.286 -29.224  -5.721  1.00 16.58 LIG 0.28  HD
ENDBRANCH 28 30
ENDBRANCH 25 28
ENDBRANCH 11 24
ENDBRANCH 8 11
ENDBRANCH 5 7
ENDBRANCH 1 5
BRANCH 3 34
ATOM     34  CA  GLU B   4     -15.296 -31.851  -7.998  1.00 20.15 LIG 0.18  C 
BRANCH 34 35
ATOM     35  C   GLU B   4     -16.028 -31.638  -6.676  1.00 19.92 LIG 0.24  C 
ATOM     36  N   VAL B   5     -15.753 -30.515  -6.020  1.00 19.46 LIG-0.35  N 
ATOM     37 H    VAL B   5     -15.199 -29.918  -6.298  1.00 19.46 LIG 0.16  HD
ATOM     38 O    GLU B   4     -16.833 -32.472  -6.262  1.00 20.03 LIG-0.27  OA
BRANCH 36 39
ATOM     39  CA  VAL B   5     -16.391 -30.200  -4.745  1.00 20.09 LIG 0.18  C 
BRANCH 39 40
ATOM     40  CB  VAL B   5     -17.933 -30.217  -4.871  1.00 20.49 LIG 0.01  C 
ATOM     41  CG2 VAL B   5     -18.511 -28.893  -4.402  1.00 19.70 LIG 0.01  C 
ATOM     42  CG1 VAL B   5     -18.511 -31.363  -4.059  1.00 21.00 LIG 0.01  C 
ENDBRANCH 39 40
BRANCH 39 43
ATOM     43  C   VAL B   5     -15.989 -31.196  -3.660  1.00 20.75 LIG 0.24  C 
ATOM     44  N   HIS B   6     -16.218 -30.829  -2.402  1.00 20.78 LIG-0.35  N 
ATOM     45 H    HIS B   6     -16.562 -30.073  -2.175  1.00 20.78 LIG 0.16  HD
ATOM     46 O    VAL B   5     -15.474 -32.273  -3.957  1.00 21.91 LIG-0.27  OA
BRANCH 44 47
ATOM     47  CA  HIS B   6     -15.895 -31.707  -1.283  1.00 21.28 LIG 0.17  C 
BRANCH 47 48
ATOM     48  C   HIS B   6     -17.095 -32.586  -0.951  1.00 23.03 LIG 0.22  C 
ATOM     49 O    HIS B   6     -16.882 -33.720  -0.472  1.00 25.39 LIG-0.29  OA
ENDBRANCH 47 48
BRANCH 47 50
ATOM     50  CB  HIS B   6     -15.508 -30.897  -0.043  1.00 19.33 LIG 0.09  C 
BRANCH 50 51
ATOM     51  CG  HIS B   6     -15.212 -31.743   1.158  1.00 17.39 LIG 0.06  A 
ATOM     52  CD2 HIS B   6     -15.857 -31.868   2.342  1.00 16.59 LIG 0.14  A 
ATOM     53 NE2  HIS B   6     -15.179 -32.811   3.077  1.00 16.70 LIG-0.25  NA
ATOM     54  CE1 HIS B   6     -14.152 -33.247   2.370  1.00 16.06 LIG 0.23  A 
ATOM     55 ND1  HIS B   6     -14.149 -32.618   1.207  1.00 16.09 LIG-0.24  NA
ENDBRANCH 50 51
ENDBRANCH 47 50
ENDBRANCH 44 47
ENDBRANCH 39 43
ENDBRANCH 36 39
ENDBRANCH 34 35
BRANCH 34 56
ATOM     56  CB  GLU B   4     -13.936 -32.497  -7.718  1.00 22.38 LIG 0.04  C 
BRANCH 56 57
ATOM     57  CG  GLU B   4     -13.431 -32.315  -6.298  1.00 27.64 LIG 0.12  C 
BRANCH 57 58
ATOM     58  CD  GLU B   4     -12.293 -31.316  -6.218  1.00 30.78 LIG 0.17  C 
ATOM     59 OE2  GLU B   4     -12.031 -30.795  -5.112  1.00 32.62 LIG-0.65  OA
ATOM     60 OE1  GLU B   4     -11.660 -31.051  -7.262  1.00 32.75 LIG-0.65  OA
ENDBRANCH 57 58
ENDBRANCH 56 57
ENDBRANCH 34 56
ENDBRANCH 3 34
TORSDOF 22
ENDMDL
MODEL 11
USER: ADFR SOLUTION from run 152
USER: SCORE 18.958955 LL:  -6.591 LR: -13.093 RR:   0.000 FEB:  -6.531
USER: RMSD 2.902690
USER: SEED 151
USER: STATUS no improvement in best in 9 clusters for 5 generations
USER: GENES 24
USER: genes 0 Translation |==|  0.45167 0.48568 0.21389
USER: genes 1 Rotation |==|  0.58035 0.58211 0.47315 0.98588
USER: genes 2 Torsion [N]-C--CA-[N] |==|  0.91061
USER: genes 3 Torsion [C]-CA--N-[C] |==|  0.84621
USER: genes 4 Torsion [N]-C--CA-[N] |==|  0.88412
USER: genes 5 Torsion [C]-CA--CB-[CG] |==|  0.05446
USER: genes 6 Torsion [CA]-CB--CG-[CD] |==|  0.43748
USER: genes 7 Torsion [CB]-CG--CD-[NE] |==|  0.05209
USER: genes 8 Torsion [CG]-CD--NE-[CZ] |==|  0.62801
USER: genes 9 Torsion [C]-CA--N-[C] |==|  0.79595
USER: genes 10 Torsion [N]-C--CA-[N] |==|  0.53360
USER: genes 11 Torsion [C]-CA--N-[H2] |==|  0.71549
USER: genes 12 Torsion [C]-N--CA-[C] |==|  0.69003
USER: genes 13 Torsion [N]-CA--C-[N] |==|  0.22798
USER: genes 14 Torsion [C]-N--CA-[CB] |==|  0.86667
USER: genes 15 Torsion [N]-CA--CB-[CG2] |==|  0.81984
USER: genes 16 Torsion [N]-CA--C-[N] |==|  0.37677
USER: genes 17 Torsion [C]-N--CA-[C] |==|  0.20600
USER: genes 18 Torsion [N]-CA--C-[O] |==|  0.10643
USER: genes 19 Torsion [N]-CA--CB-[CG] |==|  0.77199
USER: genes 20 Torsion [CA]-CB--CG-[CD2] |==|  0.10650
USER: genes 21 Torsion [N]-CA--CB-[CG] |==|  0.98350
USER: genes 22 Torsion [CA]-CB--CG-[CD] |==|  0.22213
USER: genes 23 Torsion [CB]-CG--CD-[OE2] |==|  0.62724
ROOT
ATOM      1  C   ALA B   3     -16.006 -28.422 -11.269  1.00 17.17 LIG 0.24  C 
ATOM      2 O    ALA B   3     -17.018 -28.814 -11.852  1.00 18.54 LIG-0.27  OA
ATOM      3  N   GLU B   4     -15.168 -29.246 -10.645  1.00 17.89 LIG-0.35  N 
ATOM      4 H    GLU B   4     -14.459 -28.984 -10.234  1.00 17.89 LIG 0.16  HD
ENDROOT
BRANCH 1 5
ATOM      5  CA  ALA B   3     -15.660 -26.934 -11.236  1.00 15.99 LIG 0.17  C 
ATOM      6  CB  ALA B   3     -14.812 -26.567 -12.449  1.00 16.21 LIG 0.04  C 
BRANCH 5 7
ATOM      7  N   ALA B   3     -14.976 -26.528 -10.014  1.00 13.91 LIG-0.35  N 
ATOM      8  C   ARG B   2     -15.502 -26.758  -8.814  1.00 12.46 LIG 0.24  C 
ATOM      9 O    ARG B   2     -16.581 -27.330  -8.658  1.00 11.56 LIG-0.27  OA
ATOM     10 H    ALA B   3     -14.222 -26.136 -10.141  1.00 13.91 LIG 0.16  HD
BRANCH 8 11
ATOM     11  CA  ARG B   2     -14.704 -26.274  -7.608  1.00 12.24 LIG 0.18  C 
BRANCH 11 12
ATOM     12  CB  ARG B   2     -14.967 -24.783  -7.380  1.00 10.58 LIG 0.04  C 
BRANCH 12 13
ATOM     13  CG  ARG B   2     -16.238 -24.255  -8.032  1.00  9.71 LIG 0.02  C 
BRANCH 13 14
ATOM     14  CD  ARG B   2     -16.706 -22.990  -7.332  1.00  9.44 LIG 0.14  C 
BRANCH 14 15
ATOM     15  NE  ARG B   2     -15.643 -22.366  -6.545  1.00  9.23 LIG-0.23  N 
ATOM     16  CZ  ARG B   2     -15.790 -21.922  -5.303  1.00  9.20 LIG 0.67  C 
ATOM     17  NH1 ARG B   2     -16.964 -22.029  -4.694  1.00  7.63 LIG-0.23  N 
ATOM     18  NH2 ARG B   2     -14.763 -21.372  -4.667  1.00  9.31 LIG-0.23  N 
ATOM     19 1HH1 ARG B   2     -17.630 -22.386  -5.104  1.00  7.63 LIG 0.17  HD
ATOM     20 2HH1 ARG B   2     -17.059 -21.741  -3.889  1.00  7.63 LIG 0.17  HD
ATOM     21 2HH2 ARG B   2     -14.860 -21.084  -3.862  1.00  9.31 LIG 0.17  HD
ATOM     22 1HH2 ARG B   2     -14.002 -21.303  -5.059  1.00  9.31 LIG 0.17  HD
ATOM     23 HE   ARG B   2     -14.870 -22.281  -6.912  1.00  9.23 LIG 0.18  HD
ENDBRANCH 14 15
ENDBRANCH 13 14
ENDBRANCH 12 13
ENDBRANCH 11 12
BRANCH 11 24
ATOM     24  N   ARG B   2     -13.264 -26.498  -7.683  1.00 12.50 LIG-0.35  N 
ATOM     25  C   ALA B   1     -12.705 -27.694  -7.540  1.00 14.33 LIG 0.25  C 
ATOM     26 O    ALA B   1     -13.351 -28.726  -7.369  1.00 14.72 LIG-0.27  OA
ATOM     27 H    ARG B   2     -12.810 -25.782  -7.828  1.00 12.50 LIG 0.16  HD
BRANCH 25 28
ATOM     28  CA  ALA B   1     -11.182 -27.722  -7.616  1.00 14.93 LIG 0.27  C 
ATOM     29  CB  ALA B   1     -10.698 -26.885  -8.794  1.00 16.58 LIG 0.05  C 
BRANCH 28 30
ATOM     30  N   ALA B   1     -10.676 -29.117  -7.736  1.00 16.58 LIG-0.07  N 
ATOM     31 H3   ALA B   1     -11.339 -29.653  -7.995  1.00 16.58 LIG 0.28  HD
ATOM     32 H1   ALA B   1     -10.021 -29.145  -8.338  1.00 16.58 LIG 0.28  HD
ATOM     33 H2   ALA B   1     -10.366 -29.390  -6.948  1.00 16.58 LIG 0.28  HD
ENDBRANCH 28 30
ENDBRANCH 25 28
ENDBRANCH 11 24
ENDBRANCH 8 11
ENDBRANCH 5 7
ENDBRANCH 1 5
BRANCH 3 34
ATOM     34  CA  GLU B   4     -15.386 -30.691 -10.605  1.00 20.15 LIG 0.18  C 
BRANCH 34 35
ATOM     35  C   GLU B   4     -15.726 -31.150  -9.189  1.00 19.92 LIG 0.24  C 
ATOM     36  N   VAL B   5     -16.991 -31.007  -8.807  1.00 19.46 LIG-0.35  N 
ATOM     37 H    VAL B   5     -17.610 -30.678  -9.306  1.00 19.46 LIG 0.16  HD
ATOM     38 O    GLU B   4     -14.859 -31.633  -8.460  1.00 20.03 LIG-0.27  OA
BRANCH 36 39
ATOM     39  CA  VAL B   5     -17.437 -31.411  -7.477  1.00 20.09 LIG 0.18  C 
BRANCH 39 40
ATOM     40  CB  VAL B   5     -16.933 -32.831  -7.125  1.00 20.49 LIG 0.01  C 
ATOM     41  CG2 VAL B   5     -17.559 -33.854  -8.056  1.00 19.70 LIG 0.01  C 
ATOM     42  CG1 VAL B   5     -17.266 -33.159  -5.679  1.00 21.00 LIG 0.01  C 
ENDBRANCH 39 40
BRANCH 39 43
ATOM     43  C   VAL B   5     -16.936 -30.446  -6.405  1.00 20.75 LIG 0.24  C 
ATOM     44  N   HIS B   6     -17.818 -30.075  -5.480  1.00 20.78 LIG-0.35  N 
ATOM     45 H    HIS B   6     -18.638 -30.336  -5.464  1.00 20.78 LIG 0.16  HD
ATOM     46 O    VAL B   5     -15.775 -30.039  -6.419  1.00 21.91 LIG-0.27  OA
BRANCH 44 47
ATOM     47  CA  HIS B   6     -17.447 -29.174  -4.395  1.00 21.28 LIG 0.17  C 
BRANCH 47 48
ATOM     48  C   HIS B   6     -17.310 -27.752  -4.927  1.00 23.03 LIG 0.22  C 
ATOM     49 O    HIS B   6     -18.123 -27.365  -5.794  1.00 25.39 LIG-0.29  OA
ENDBRANCH 47 48
BRANCH 47 50
ATOM     50  CB  HIS B   6     -16.122 -29.600  -3.756  1.00 19.33 LIG 0.09  C 
BRANCH 50 51
ATOM     51  CG  HIS B   6     -16.269 -30.695  -2.744  1.00 17.39 LIG 0.06  A 
ATOM     52  CD2 HIS B   6     -17.064 -31.791  -2.725  1.00 16.59 LIG 0.14  A 
ATOM     53 NE2  HIS B   6     -16.772 -32.484  -1.574  1.00 16.70 LIG-0.25  NA
ATOM     54  CE1 HIS B   6     -15.833 -31.835  -0.910  1.00 16.06 LIG 0.23  A 
ATOM     55 ND1  HIS B   6     -15.511 -30.752  -1.595  1.00 16.09 LIG-0.24  NA
ENDBRANCH 50 51
ENDBRANCH 47 50
ENDBRANCH 44 47
ENDBRANCH 39 43
ENDBRANCH 36 39
ENDBRANCH 34 35
BRANCH 34 56
ATOM     56  CB  GLU B   4     -14.132 -31.429 -11.082  1.00 22.38 LIG 0.04  C 
BRANCH 56 57
ATOM     57  CG  GLU B   4     -13.031 -30.527 -11.611  1.00 27.64 LIG 0.12  C 
BRANCH 57 58
ATOM     58  CD  GLU B   4     -12.217 -29.900 -10.496  1.00 30.78 LIG 0.17  C 
ATOM     59 OE2  GLU B   4     -11.958 -28.679 -10.559  1.00 32.62 LIG-0.65  OA
ATOM     60 OE1  GLU B   4     -11.835 -30.629  -9.557  1.00 32.75 LIG-0.65  OA
ENDBRANCH 57 58
ENDBRANCH 56 57
ENDBRANCH 34 56
ENDBRANCH 3 34
TORSDOF 22
ENDMDL
MODEL 12
USER: ADFR SOLUTION from run 7
USER: SCORE 17.634957 LL:  -5.756 LR: -13.014 RR:   0.000 FEB:  -6.452
USER: RMSD 1.634655
USER: SEED 153602
USER: STATUS 1 or 2 clusters left
USER: GENES 24
USER: genes 0 Translation |==|  0.42233 0.45503 0.26376
USER: genes 1 Rotation |==|  0.51500 0.50523 0.47744 0.99924
USER: genes 2 Torsion [N]-C--CA-[N] |==|  0.98889
USER: genes 3 Torsion [C]-CA--N-[C] |==|  0.79346
USER: genes 4 Torsion [N]-C--CA-[N] |==|  0.94014
USER: genes 5 Torsion [C]-CA--CB-[CG] |==|  0.11689
USER: genes 6 Torsion [CA]-CB--CG-[CD] |==|  0.48794
USER: genes 7 Torsion [CB]-CG--CD-[NE] |==|  0.69889
USER: genes 8 Torsion [CG]-CD--NE-[CZ] |==|  0.30523
USER: genes 9 Torsion [C]-CA--N-[C] |==|  0.77488
USER: genes 10 Torsion [N]-C--CA-[N] |==|  0.51686
USER: genes 11 Torsion [C]-CA--N-[H2] |==|  0.72962
USER: genes 12 Torsion [C]-N--CA-[C] |==|  0.72943
USER: genes 13 Torsion [N]-CA--C-[N] |==|  0.43221
USER: genes 14 Torsion [C]-N--CA-[CB] |==|  0.46914
USER: genes 15 Torsion [N]-CA--CB-[CG2] |==|  0.04105
USER: genes 16 Torsion [N]-CA--C-[N] |==|  0.43376
USER: genes 17 Torsion [C]-N--CA-[C] |==|  0.50725
USER: genes 18 Torsion [N]-CA--C-[O] |==|  0.07199
USER: genes 19 Torsion [N]-CA--CB-[CG] |==|  0.54662
USER: genes 20 Torsion [CA]-CB--CG-[CD2] |==|  0.48444
USER: genes 21 Torsion [N]-CA--CB-[CG] |==|  0.83250
USER: genes 22 Torsion [CA]-CB--CG-[CD] |==|  0.29423
USER: genes 23 Torsion [CB]-CG--CD-[OE2] |==|  0.71516
ROOT
ATOM      1  C   ALA B   3     -16.534 -29.135 -10.184  1.00 17.17 LIG 0.24  C 
ATOM      2 O    ALA B   3     -17.342 -29.722 -10.905  1.00 18.54 LIG-0.27  OA
ATOM      3  N   GLU B   4     -15.938 -29.714  -9.145  1.00 17.89 LIG-0.35  N 
ATOM      4 H    GLU B   4     -15.373 -29.314  -8.635  1.00 17.89 LIG 0.16  HD
ENDROOT
BRANCH 1 5
ATOM      5  CA  ALA B   3     -16.172 -27.676 -10.460  1.00 15.99 LIG 0.17  C 
ATOM      6  CB  ALA B   3     -15.551 -27.545 -11.847  1.00 16.21 LIG 0.04  C 
BRANCH 5 7
ATOM      7  N   ALA B   3     -15.274 -27.106  -9.461  1.00 13.91 LIG-0.35  N 
ATOM      8  C   ARG B   2     -15.706 -26.776  -8.247  1.00 12.46 LIG 0.24  C 
ATOM      9 O    ARG B   2     -16.872 -26.937  -7.889  1.00 11.56 LIG-0.27  OA
ATOM     10 H    ALA B   3     -14.462 -27.007  -9.727  1.00 13.91 LIG 0.16  HD
BRANCH 8 11
ATOM     11  CA  ARG B   2     -14.680 -26.174  -7.293  1.00 12.24 LIG 0.18  C 
BRANCH 11 12
ATOM     12  CB  ARG B   2     -14.870 -24.657  -7.223  1.00 10.58 LIG 0.04  C 
BRANCH 12 13
ATOM     13  CG  ARG B   2     -16.320 -24.199  -7.155  1.00  9.71 LIG 0.02  C 
BRANCH 13 14
ATOM     14  CD  ARG B   2     -16.393 -22.691  -6.981  1.00  9.44 LIG 0.14  C 
BRANCH 14 15
ATOM     15  NE  ARG B   2     -16.832 -22.308  -5.640  1.00  9.23 LIG-0.23  N 
ATOM     16  CZ  ARG B   2     -16.052 -21.741  -4.728  1.00  9.20 LIG 0.67  C 
ATOM     17  NH1 ARG B   2     -14.780 -21.488  -5.007  1.00  7.63 LIG-0.23  N 
ATOM     18  NH2 ARG B   2     -16.543 -21.425  -3.536  1.00  9.31 LIG-0.23  N 
ATOM     19 1HH1 ARG B   2     -14.461 -21.691  -5.779  1.00  7.63 LIG 0.17  HD
ATOM     20 2HH1 ARG B   2     -14.275 -21.121  -4.416  1.00  7.63 LIG 0.17  HD
ATOM     21 2HH2 ARG B   2     -16.036 -21.058  -2.946  1.00  9.31 LIG 0.17  HD
ATOM     22 1HH2 ARG B   2     -17.367 -21.588  -3.354  1.00  9.31 LIG 0.17  HD
ATOM     23 HE   ARG B   2     -17.651 -22.460  -5.428  1.00  9.23 LIG 0.18  HD
ENDBRANCH 14 15
ENDBRANCH 13 14
ENDBRANCH 12 13
ENDBRANCH 11 12
BRANCH 11 24
ATOM     24  N   ARG B   2     -13.286 -26.466  -7.609  1.00 12.50 LIG-0.35  N 
ATOM     25  C   ALA B   1     -12.690 -27.607  -7.282  1.00 14.33 LIG 0.25  C 
ATOM     26 O    ALA B   1     -13.266 -28.534  -6.717  1.00 14.72 LIG-0.27  OA
ATOM     27 H    ARG B   2     -12.886 -25.831  -8.028  1.00 12.50 LIG 0.16  HD
BRANCH 25 28
ATOM     28  CA  ALA B   1     -11.218 -27.714  -7.669  1.00 14.93 LIG 0.27  C 
ATOM     29  CB  ALA B   1     -11.034 -27.370  -9.142  1.00 16.58 LIG 0.05  C 
BRANCH 28 30
ATOM     30  N   ALA B   1     -10.687 -29.077  -7.391  1.00 16.58 LIG-0.07  N 
ATOM     31 H3   ALA B   1     -11.361 -29.659  -7.366  1.00 16.58 LIG 0.28  HD
ATOM     32 H1   ALA B   1     -10.117 -29.311  -8.033  1.00 16.58 LIG 0.28  HD
ATOM     33 H2   ALA B   1     -10.267 -29.078  -6.607  1.00 16.58 LIG 0.28  HD
ENDBRANCH 28 30
ENDBRANCH 25 28
ENDBRANCH 11 24
ENDBRANCH 8 11
ENDBRANCH 5 7
ENDBRANCH 1 5
BRANCH 3 34
ATOM     34  CA  GLU B   4     -16.199 -31.105  -8.777  1.00 20.15 LIG 0.18  C 
BRANCH 34 35
ATOM     35  C   GLU B   4     -17.235 -31.186  -7.659  1.00 19.92 LIG 0.24  C 
ATOM     36  N   VAL B   5     -17.923 -32.320  -7.570  1.00 19.46 LIG-0.35  N 
ATOM     37 H    VAL B   5     -17.816 -32.991  -8.097  1.00 19.46 LIG 0.16  HD
ATOM     38 O    GLU B   4     -17.400 -30.242  -6.886  1.00 20.03 LIG-0.27  OA
BRANCH 36 39
ATOM     39  CA  VAL B   5     -18.941 -32.515  -6.541  1.00 20.09 LIG 0.18  C 
BRANCH 39 40
ATOM     40  CB  VAL B   5     -19.779 -33.786  -6.818  1.00 20.49 LIG 0.01  C 
ATOM     41  CG2 VAL B   5     -19.087 -34.654  -7.854  1.00 19.70 LIG 0.01  C 
ATOM     42  CG1 VAL B   5     -21.169 -33.401  -7.295  1.00 21.00 LIG 0.01  C 
ENDBRANCH 39 40
BRANCH 39 43
ATOM     43  C   VAL B   5     -18.314 -32.647  -5.155  1.00 20.75 LIG 0.24  C 
ATOM     44  N   HIS B   6     -19.092 -32.342  -4.120  1.00 20.78 LIG-0.35  N 
ATOM     45 H    HIS B   6     -19.905 -32.070  -4.192  1.00 20.78 LIG 0.16  HD
ATOM     46 O    VAL B   5     -17.146 -33.012  -5.027  1.00 21.91 LIG-0.27  OA
BRANCH 44 47
ATOM     47  CA  HIS B   6     -18.608 -32.451  -2.748  1.00 21.28 LIG 0.17  C 
BRANCH 47 48
ATOM     48  C   HIS B   6     -19.728 -32.101  -1.775  1.00 23.03 LIG 0.22  C 
ATOM     49 O    HIS B   6     -20.908 -32.267  -2.149  1.00 25.39 LIG-0.29  OA
ENDBRANCH 47 48
BRANCH 47 50
ATOM     50  CB  HIS B   6     -17.423 -31.511  -2.508  1.00 19.33 LIG 0.09  C 
BRANCH 50 51
ATOM     51  CG  HIS B   6     -16.632 -31.844  -1.280  1.00 17.39 LIG 0.06  A 
ATOM     52  CD2 HIS B   6     -15.480 -31.325  -0.793  1.00 16.59 LIG 0.14  A 
ATOM     53 NE2  HIS B   6     -15.210 -31.974   0.388  1.00 16.70 LIG-0.25  NA
ATOM     54  CE1 HIS B   6     -16.161 -32.862   0.616  1.00 16.06 LIG 0.23  A 
ATOM     55 ND1  HIS B   6     -17.032 -32.804  -0.376  1.00 16.09 LIG-0.24  NA
ENDBRANCH 50 51
ENDBRANCH 47 50
ENDBRANCH 44 47
ENDBRANCH 39 43
ENDBRANCH 36 39
ENDBRANCH 34 35
BRANCH 34 56
ATOM     56  CB  GLU B   4     -14.906 -31.781  -8.312  1.00 22.38 LIG 0.04  C 
BRANCH 56 57
ATOM     57  CG  GLU B   4     -13.802 -31.818  -9.353  1.00 27.64 LIG 0.12  C 
BRANCH 57 58
ATOM     58  CD  GLU B   4     -12.694 -30.828  -9.053  1.00 30.78 LIG 0.17  C 
ATOM     59 OE2  GLU B   4     -12.655 -29.760  -9.701  1.00 32.62 LIG-0.65  OA
ATOM     60 OE1  GLU B   4     -11.862 -31.118  -8.167  1.00 32.75 LIG-0.65  OA
ENDBRANCH 57 58
ENDBRANCH 56 57
ENDBRANCH 34 56
ENDBRANCH 3 34
TORSDOF 22
ENDMDL
