MODEL 1
USER: ADFR SOLUTION from run 4
USER: SCORE 18.197267 LL:  -3.028 LR: -15.669 RR:   0.000 FEB: -11.493
USER: RMSD 0.973574
USER: SEED 921244
USER: STATUS 1 or 2 clusters left
USER: GENES 16
USER: genes 0 Translation |==|  0.52412 0.52489 0.52215
USER: genes 1 Rotation |==|  0.50752 0.49072 0.42339 0.99395
USER: genes 2 Torsion [N]-C--CA-[N] |==|  0.26827
USER: genes 3 Torsion [C]-CA--N-[C] |==|  0.58339
USER: genes 4 Torsion [N]-C--CA-[CB] |==|  0.68747
USER: genes 5 Torsion [C]-CA--CB-[CG] |==|  0.25882
USER: genes 6 Torsion [CA]-CB--CG-[CD1] |==|  0.87151
USER: genes 7 Torsion [CE2]-CZ--OH-[HH] |==|  0.07859
USER: genes 8 Torsion [C]-N--CA-[C] |==|  0.79109
USER: genes 9 Torsion [N]-CA--CB-[CG2] |==|  0.52178
USER: genes 10 Torsion [CA]-CB--CG1-[CD1] |==|  0.79508
USER: genes 11 Torsion [N]-CA--C-[N] |==|  0.40681
USER: genes 12 Torsion [C]-N--CA-[C] |==|  0.57978
USER: genes 13 Torsion [N]-CA--C-[O] |==|  0.45879
USER: genes 14 Torsion [N]-CA--CB-[CG] |==|  0.71321
USER: genes 15 Torsion [CA]-CB--CG-[CD1] |==|  0.30477
ROOT
ATOM      1  C   TYR N  11      15.348  75.420  29.995  1.00 56.96 LIG 0.24  C 
ATOM      2 O    TYR N  11      14.159  75.685  29.859  1.00 54.60 LIG-0.27  OA
ATOM      3  N   ILE N  12      16.009  75.622  31.130  1.00 55.40 LIG-0.35  N 
ATOM      4 H    ILE N  12      16.865  75.571  31.199  1.00 55.40 LIG 0.16  HD
ENDROOT
BRANCH 1 5
ATOM      5  CA  TYR N  11      16.123  74.871  28.810  1.00 58.62 LIG 0.18  C 
BRANCH 5 6
ATOM      6  N   TYR N  11      15.893  73.424  28.814  1.00 60.03 LIG-0.35  N 
ATOM      7 H    TYR N  11      15.124  73.224  29.143  1.00 60.03 LIG 0.16  HD
ATOM      8  C   PRO N  10      16.724  72.479  28.379  1.00 61.18 LIG 0.25  C 
ATOM      9 O    PRO N  10      17.939  72.620  28.290  1.00 61.93 LIG-0.27  OA
BRANCH 8 10
ATOM     10  CA  PRO N  10      16.075  71.138  28.023  1.00 61.60 LIG 0.35  C 
ATOM     11  CB  PRO N  10      16.498  70.027  28.988  1.00 62.04 LIG 0.05  C 
ATOM     12  CG  PRO N  10      16.384  68.757  28.157  1.00 62.43 LIG 0.04  C 
ATOM     13  CD  PRO N  10      16.646  69.150  26.704  1.00 61.79 LIG 0.32  C 
ATOM     14  N   PRO N  10      16.494  70.620  26.710  1.00 62.25 LIG 0.32  N 
ENDBRANCH 8 10
ENDBRANCH 5 6
BRANCH 5 15
ATOM     15  CB  TYR N  11      15.351  75.407  27.631  1.00 60.02 LIG 0.07  C 
BRANCH 15 16
ATOM     16  CG  TYR N  11      15.759  76.681  27.014  1.00 61.42 LIG-0.06  A 
ATOM     17  CD2 TYR N  11      15.796  76.772  25.628  1.00 63.03 LIG 0.01  A 
ATOM     18  CE2 TYR N  11      16.153  77.939  24.998  1.00 63.91 LIG 0.04  A 
ATOM     19  CZ  TYR N  11      16.469  79.062  25.744  1.00 62.76 LIG 0.07  A 
ATOM     20  CE1 TYR N  11      16.429  79.005  27.144  1.00 63.08 LIG 0.04  A 
ATOM     21  CD1 TYR N  11      16.056  77.810  27.772  1.00 63.28 LIG 0.01  A 
BRANCH 19 22
ATOM     22 OH   TYR N  11      16.825  80.214  25.048  1.00 61.08 LIG-0.36  OA
ATOM     23 HH   TYR N  11      16.450  80.215  24.297  1.00 61.08 LIG 0.22  HD
ENDBRANCH 19 22
ENDBRANCH 15 16
ENDBRANCH 5 15
ENDBRANCH 1 5
BRANCH 3 24
ATOM     24  CA  ILE N  12      15.325  75.953  32.380  1.00 53.88 LIG 0.18  C 
BRANCH 24 25
ATOM     25  CB  ILE N  12      16.260  75.699  33.570  1.00 53.93 LIG 0.01  C 
ATOM     26  CG2 ILE N  12      15.529  75.846  34.895  1.00 53.11 LIG 0.01  C 
BRANCH 25 27
ATOM     27  CG1 ILE N  12      16.943  74.332  33.416  1.00 51.92 LIG 0.00  C 
ATOM     28  CD1 ILE N  12      16.075  73.142  33.671  1.00 50.97 LIG 0.01  C 
ENDBRANCH 25 27
ENDBRANCH 24 25
BRANCH 24 29
ATOM     29  C   ILE N  12      14.836  77.395  32.418  1.00 53.48 LIG 0.24  C 
ATOM     30  N   LEU N  13      13.712  77.598  33.076  1.00 52.60 LIG-0.34  N 
ATOM     31 H    LEU N  13      13.255  76.963  33.434  1.00 52.60 LIG 0.16  HD
ATOM     32 O    ILE N  12      15.468  78.296  31.876  1.00 54.19 LIG-0.27  OA
BRANCH 30 33
ATOM     33  CA  LEU N  13      13.127  78.922  33.266  1.00 51.71 LIG 0.18  C 
BRANCH 33 34
ATOM     34  C   LEU N  13      12.301  78.984  34.582  1.00 51.36 LIG 0.20  C 
ATOM     35 O    LEU N  13      11.950  80.088  35.069  1.00 50.70 LIG-0.65  OA
ATOM     36 OXT  LEU N  13      11.948  77.935  35.175  1.00 50.18 LIG-0.65  OA
ENDBRANCH 33 34
BRANCH 33 37
ATOM     37  CB  LEU N  13      12.213  79.260  32.075  1.00 52.27 LIG 0.04  C 
BRANCH 37 38
ATOM     38  CG  LEU N  13      12.617  80.222  30.941  1.00 53.15 LIG-0.02  C 
ATOM     39  CD1 LEU N  13      12.854  79.453  29.626  1.00 53.09 LIG 0.01  C 
ATOM     40  CD2 LEU N  13      11.573  81.310  30.759  1.00 52.44 LIG 0.01  C 
ENDBRANCH 37 38
ENDBRANCH 33 37
ENDBRANCH 30 33
ENDBRANCH 24 29
ENDBRANCH 3 24
TORSDOF 14
ENDMDL
MODEL 2
USER: ADFR SOLUTION from run 131
USER: SCORE 16.555180 LL:  -2.830 LR: -13.925 RR:   0.000 FEB:  -9.749
USER: RMSD 2.165882
USER: SEED 130
USER: STATUS 1 or 2 clusters left
USER: GENES 16
USER: genes 0 Translation |==|  0.52812 0.53674 0.50018
USER: genes 1 Rotation |==|  0.50433 0.48490 0.47971 0.99934
USER: genes 2 Torsion [N]-C--CA-[N] |==|  0.33096
USER: genes 3 Torsion [C]-CA--N-[C] |==|  0.73339
USER: genes 4 Torsion [N]-C--CA-[CB] |==|  0.68139
USER: genes 5 Torsion [C]-CA--CB-[CG] |==|  0.59339
USER: genes 6 Torsion [CA]-CB--CG-[CD1] |==|  0.93517
USER: genes 7 Torsion [CE2]-CZ--OH-[HH] |==|  0.18762
USER: genes 8 Torsion [C]-N--CA-[C] |==|  0.76514
USER: genes 9 Torsion [N]-CA--CB-[CG2] |==|  0.51993
USER: genes 10 Torsion [CA]-CB--CG1-[CD1] |==|  0.78568
USER: genes 11 Torsion [N]-CA--C-[N] |==|  0.44459
USER: genes 12 Torsion [C]-N--CA-[C] |==|  0.57726
USER: genes 13 Torsion [N]-CA--C-[O] |==|  0.45193
USER: genes 14 Torsion [N]-CA--CB-[CG] |==|  0.75931
USER: genes 15 Torsion [CA]-CB--CG-[CD1] |==|  0.37517
ROOT
ATOM      1  C   TYR N  11      15.414  75.651  29.551  1.00 56.96 LIG 0.24  C 
ATOM      2 O    TYR N  11      14.200  75.640  29.382  1.00 54.60 LIG-0.27  OA
ATOM      3  N   ILE N  12      15.984  76.016  30.694  1.00 55.40 LIG-0.35  N 
ATOM      4 H    ILE N  12      16.827  76.160  30.783  1.00 55.40 LIG 0.16  HD
ENDROOT
BRANCH 1 5
ATOM      5  CA  TYR N  11      16.323  75.269  28.395  1.00 58.62 LIG 0.18  C 
BRANCH 5 6
ATOM      6  N   TYR N  11      16.003  73.875  28.076  1.00 60.03 LIG-0.35  N 
ATOM      7 H    TYR N  11      15.325  73.815  27.551  1.00 60.03 LIG 0.16  HD
ATOM      8  C   PRO N  10      16.640  72.788  28.508  1.00 61.18 LIG 0.25  C 
ATOM      9 O    PRO N  10      17.312  72.746  29.533  1.00 61.93 LIG-0.27  OA
BRANCH 8 10
ATOM     10  CA  PRO N  10      16.450  71.528  27.658  1.00 61.60 LIG 0.35  C 
ATOM     11  CB  PRO N  10      15.699  70.433  28.422  1.00 62.04 LIG 0.05  C 
ATOM     12  CG  PRO N  10      16.194  69.140  27.791  1.00 62.43 LIG 0.04  C 
ATOM     13  CD  PRO N  10      17.616  69.399  27.300  1.00 61.79 LIG 0.32  C 
ATOM     14  N   PRO N  10      17.719  70.874  27.297  1.00 62.25 LIG 0.32  N 
ENDBRANCH 8 10
ENDBRANCH 5 6
BRANCH 5 15
ATOM     15  CB  TYR N  11      15.774  76.089  27.255  1.00 60.02 LIG 0.07  C 
BRANCH 15 16
ATOM     16  CG  TYR N  11      15.813  75.546  25.885  1.00 61.42 LIG-0.06  A 
ATOM     17  CD2 TYR N  11      14.950  76.073  24.933  1.00 63.03 LIG 0.01  A 
ATOM     18  CE2 TYR N  11      14.953  75.618  23.637  1.00 63.91 LIG 0.04  A 
ATOM     19  CZ  TYR N  11      15.841  74.626  23.252  1.00 62.76 LIG 0.07  A 
ATOM     20  CE1 TYR N  11      16.733  74.084  24.188  1.00 63.08 LIG 0.04  A 
ATOM     21  CD1 TYR N  11      16.722  74.564  25.504  1.00 63.28 LIG 0.01  A 
BRANCH 19 22
ATOM     22 OH   TYR N  11      15.794  74.206  21.925  1.00 61.08 LIG-0.36  OA
ATOM     23 HH   TYR N  11      16.054  74.828  21.425  1.00 61.08 LIG 0.22  HD
ENDBRANCH 19 22
ENDBRANCH 15 16
ENDBRANCH 5 15
ENDBRANCH 1 5
BRANCH 3 24
ATOM     24  CA  ILE N  12      15.210  76.208  31.921  1.00 53.88 LIG 0.18  C 
BRANCH 24 25
ATOM     25  CB  ILE N  12      16.102  75.960  33.145  1.00 53.93 LIG 0.01  C 
ATOM     26  CG2 ILE N  12      15.298  75.977  34.434  1.00 53.11 LIG 0.01  C 
BRANCH 25 27
ATOM     27  CG1 ILE N  12      16.899  74.661  32.957  1.00 51.92 LIG 0.00  C 
ATOM     28  CD1 ILE N  12      16.136  73.395  33.180  1.00 50.97 LIG 0.01  C 
ENDBRANCH 25 27
ENDBRANCH 24 25
BRANCH 24 29
ATOM     29  C   ILE N  12      14.594  77.597  32.016  1.00 53.48 LIG 0.24  C 
ATOM     30  N   LEU N  13      13.579  77.714  32.850  1.00 52.60 LIG-0.34  N 
ATOM     31 H    LEU N  13      13.253  77.051  33.290  1.00 52.60 LIG 0.16  HD
ATOM     32 O    ILE N  12      15.034  78.536  31.361  1.00 54.19 LIG-0.27  OA
BRANCH 30 33
ATOM     33  CA  LEU N  13      12.905  78.983  33.112  1.00 51.71 LIG 0.18  C 
BRANCH 33 34
ATOM     34  C   LEU N  13      12.285  79.001  34.538  1.00 51.36 LIG 0.20  C 
ATOM     35 O    LEU N  13      11.951  80.084  35.080  1.00 50.70 LIG-0.65  OA
ATOM     36 OXT  LEU N  13      12.087  77.935  35.172  1.00 50.18 LIG-0.65  OA
ENDBRANCH 33 34
BRANCH 33 37
ATOM     37  CB  LEU N  13      11.792  79.203  32.072  1.00 52.27 LIG 0.04  C 
BRANCH 37 38
ATOM     38  CG  LEU N  13      12.032  79.861  30.700  1.00 53.15 LIG-0.02  C 
ATOM     39  CD1 LEU N  13      11.327  79.070  29.580  1.00 53.09 LIG 0.01  C 
ATOM     40  CD2 LEU N  13      11.582  81.312  30.712  1.00 52.44 LIG 0.01  C 
ENDBRANCH 37 38
ENDBRANCH 33 37
ENDBRANCH 30 33
ENDBRANCH 24 29
ENDBRANCH 3 24
TORSDOF 14
ENDMDL
