MODEL 1
USER: ADFR SOLUTION from run 55
USER: SCORE 10.149467 LL:  -1.684 LR:  -8.721 RR:   0.000 FEB:  -6.633
USER: RMSD 1.014392
USER: SEED 54
USER: STATUS 1 or 2 clusters left
USER: GENES 9
USER: genes 0 Translation |==|  0.51382 0.51149 0.40933
USER: genes 1 Rotation |==|  0.49052 0.52367 0.50511 0.99932
USER: genes 2 Torsion [N]-CA--C-[O] |==|  0.94606
USER: genes 3 Torsion [C]-N--CA-[C] |==|  0.74367
USER: genes 4 Torsion [N]-CA--C-[OXT] |==|  0.67368
USER: genes 5 Torsion [N]-CA--CB-[CG1] |==|  0.61034
USER: genes 6 Torsion [N]-C--CA-[N] |==|  0.45943
USER: genes 7 Torsion [C]-CA--N-[C] |==|  0.62665
USER: genes 8 Torsion [N]-C--CA-[N] |==|  0.54811
ROOT
ATOM      1  C   ALA X   3      33.210 -19.318  -1.371  1.00 23.90 LIG 0.24  C 
ATOM      2 O    ALA X   3      33.279 -18.154  -0.974  1.00 27.15 LIG-0.27  OA
ATOM      3  N   PRO X   4      32.353 -20.204  -0.860  1.00 24.39 LIG-0.34  N 
ATOM      4  CA  PRO X   4      31.524 -19.829   0.285  1.00 23.70 LIG 0.18  C 
ATOM      5  CB  PRO X   4      30.459 -20.926   0.304  1.00 23.39 LIG 0.04  C 
ATOM      6  CG  PRO X   4      31.175 -22.118  -0.337  1.00 25.35 LIG 0.02  C 
ATOM      7  CD  PRO X   4      31.871 -21.447  -1.484  1.00 22.91 LIG 0.13  C 
ENDROOT
BRANCH 4 8
ATOM      8  C   PRO X   4      32.443 -19.833   1.514  1.00 23.69 LIG 0.24  C 
ATOM      9 O    PRO X   4      33.503 -20.445   1.475  1.00 21.84 LIG-0.27  OA
ATOM     10  N   VAL X   5      32.052 -19.151   2.591  1.00 24.58 LIG-0.34  N 
ATOM     11 H    VAL X   5      31.310 -18.721   2.652  1.00 24.58 LIG 0.16  HD
BRANCH 10 12
ATOM     12  CA  VAL X   5      32.901 -19.093   3.788  1.00 25.73 LIG 0.19  C 
BRANCH 12 13
ATOM     13  C   VAL X   5      32.650 -20.160   4.866  1.00 27.91 LIG 0.20  C 
ATOM     14 OXT  VAL X   5      32.273 -19.808   6.009  1.00 25.78 LIG-0.65  OA
ATOM     15 O    VAL X   5      32.847 -21.353   4.573  1.00 23.88 LIG-0.65  OA
ENDBRANCH 12 13
BRANCH 12 16
ATOM     16  CB  VAL X   5      32.817 -17.708   4.465  1.00 25.22 LIG 0.01  C 
ATOM     17  CG1 VAL X   5      34.179 -17.285   4.955  1.00 21.50 LIG 0.01  C 
ATOM     18  CG2 VAL X   5      32.274 -16.664   3.466  1.00 24.36 LIG 0.01  C 
ENDBRANCH 12 16
ENDBRANCH 10 12
ENDBRANCH 4 8
BRANCH 1 19
ATOM     19  CA  ALA X   3      34.042 -19.773  -2.536  1.00 23.97 LIG 0.17  C 
ATOM     20  CB  ALA X   3      35.169 -20.671  -2.071  1.00 25.40 LIG 0.04  C 
BRANCH 19 21
ATOM     21  N   ALA X   3      34.559 -18.537  -3.048  1.00 22.59 LIG-0.35  N 
ATOM     22 H    ALA X   3      34.867 -17.994  -2.458  1.00 22.59 LIG 0.16  HD
ATOM     23  C   ALA X   2      34.534 -18.310  -4.340  1.00 23.89 LIG 0.26  C 
ATOM     24 O    ALA X   2      34.138 -19.145  -5.160  1.00 22.77 LIG-0.27  OA
BRANCH 23 25
ATOM     25  CA  ALA X   2      35.056 -16.965  -4.785  1.00 23.49 LIG 0.40  C 
ATOM     26  CB  ALA X   2      34.525 -15.840  -3.896  1.00 22.19 LIG 0.06  C 
ATOM     27  N   ALA X   2      34.523 -16.855  -6.118  1.00 24.67 LIG 0.61  N 
ENDBRANCH 23 25
ENDBRANCH 19 21
ENDBRANCH 1 19
TORSDOF 7
ENDMDL
MODEL 2
USER: ADFR SOLUTION from run 129
USER: SCORE 8.701178 LL:  -1.453 LR:  -7.670 RR:   0.000 FEB:  -5.582
USER: RMSD 2.065884
USER: SEED 128
USER: STATUS no improvement in best in 3 clusters for 5 generations
USER: GENES 9
USER: genes 0 Translation |==|  0.53386 0.50361 0.40022
USER: genes 1 Rotation |==|  0.43105 0.50833 0.49745 0.99515
USER: genes 2 Torsion [N]-CA--C-[O] |==|  0.02743
USER: genes 3 Torsion [C]-N--CA-[C] |==|  0.15550
USER: genes 4 Torsion [N]-CA--C-[OXT] |==|  0.98637
USER: genes 5 Torsion [N]-CA--CB-[CG1] |==|  0.93569
USER: genes 6 Torsion [N]-C--CA-[N] |==|  0.49745
USER: genes 7 Torsion [C]-CA--N-[C] |==|  0.66813
USER: genes 8 Torsion [N]-C--CA-[N] |==|  0.77956
ROOT
ATOM      1  C   ALA X   3      33.480 -19.431  -1.556  1.00 23.90 LIG 0.24  C 
ATOM      2 O    ALA X   3      33.555 -18.206  -1.441  1.00 27.15 LIG-0.27  OA
ATOM      3  N   PRO X   4      32.572 -20.161  -0.907  1.00 24.39 LIG-0.34  N 
ATOM      4  CA  PRO X   4      31.685 -19.516   0.061  1.00 23.70 LIG 0.18  C 
ATOM      5  CB  PRO X   4      30.592 -20.566   0.269  1.00 23.39 LIG 0.04  C 
ATOM      6  CG  PRO X   4      31.316 -21.884  -0.024  1.00 25.35 LIG 0.02  C 
ATOM      7  CD  PRO X   4      32.097 -21.512  -1.249  1.00 22.91 LIG 0.13  C 
ENDROOT
BRANCH 4 8
ATOM      8  C   PRO X   4      32.527 -19.238   1.313  1.00 23.69 LIG 0.24  C 
ATOM      9 O    PRO X   4      33.741 -19.390   1.272  1.00 21.84 LIG-0.27  OA
ATOM     10  N   VAL X   5      31.896 -18.825   2.413  1.00 24.58 LIG-0.34  N 
ATOM     11 H    VAL X   5      31.045 -18.718   2.476  1.00 24.58 LIG 0.16  HD
BRANCH 10 12
ATOM     12  CA  VAL X   5      32.650 -18.514   3.635  1.00 25.73 LIG 0.19  C 
BRANCH 12 13
ATOM     13  C   VAL X   5      33.770 -17.469   3.510  1.00 27.91 LIG 0.20  C 
ATOM     14 OXT  VAL X   5      34.057 -17.001   2.382  1.00 25.78 LIG-0.65  OA
ATOM     15 O    VAL X   5      34.376 -17.128   4.541  1.00 23.88 LIG-0.65  OA
ENDBRANCH 12 13
BRANCH 12 16
ATOM     16  CB  VAL X   5      33.261 -19.791   4.253  1.00 25.22 LIG 0.01  C 
ATOM     17  CG1 VAL X   5      32.489 -21.006   3.805  1.00 21.50 LIG 0.01  C 
ATOM     18  CG2 VAL X   5      34.740 -19.926   3.830  1.00 24.36 LIG 0.01  C 
ENDBRANCH 12 16
ENDBRANCH 10 12
ENDBRANCH 4 8
BRANCH 1 19
ATOM     19  CA  ALA X   3      34.370 -20.158  -2.523  1.00 23.97 LIG 0.17  C 
ATOM     20  CB  ALA X   3      35.220 -21.183  -1.803  1.00 25.40 LIG 0.04  C 
BRANCH 19 21
ATOM     21  N   ALA X   3      35.187 -19.101  -3.046  1.00 22.59 LIG-0.35  N 
ATOM     22 H    ALA X   3      35.664 -18.682  -2.465  1.00 22.59 LIG 0.16  HD
ATOM     23  C   ALA X   2      35.165 -18.839  -4.331  1.00 23.89 LIG 0.26  C 
ATOM     24 O    ALA X   2      34.511 -19.507  -5.139  1.00 22.77 LIG-0.27  OA
BRANCH 23 25
ATOM     25  CA  ALA X   2      36.021 -17.681  -4.785  1.00 23.49 LIG 0.40  C 
ATOM     26  CB  ALA X   2      37.352 -17.644  -4.032  1.00 22.19 LIG 0.06  C 
ATOM     27  N   ALA X   2      35.208 -16.545  -4.438  1.00 24.67 LIG 0.61  N 
ENDBRANCH 23 25
ENDBRANCH 19 21
ENDBRANCH 1 19
TORSDOF 7
ENDMDL
MODEL 3
USER: ADFR SOLUTION from run 160
USER: SCORE 8.857669 LL:  -1.894 LR:  -7.256 RR:   0.000 FEB:  -5.168
USER: RMSD 2.336146
USER: SEED 159
USER: STATUS 1 or 2 clusters left
USER: GENES 9
USER: genes 0 Translation |==|  0.50415 0.49560 0.41648
USER: genes 1 Rotation |==|  0.47395 0.48317 0.51290 0.99887
USER: genes 2 Torsion [N]-CA--C-[O] |==|  0.32995
USER: genes 3 Torsion [C]-N--CA-[C] |==|  0.64944
USER: genes 4 Torsion [N]-CA--C-[OXT] |==|  0.95313
USER: genes 5 Torsion [N]-CA--CB-[CG1] |==|  0.28022
USER: genes 6 Torsion [N]-C--CA-[N] |==|  0.44997
USER: genes 7 Torsion [C]-CA--N-[C] |==|  0.65644
USER: genes 8 Torsion [N]-C--CA-[N] |==|  0.54406
ROOT
ATOM      1  C   ALA X   3      33.079 -19.545  -1.226  1.00 23.90 LIG 0.24  C 
ATOM      2 O    ALA X   3      33.046 -18.357  -0.901  1.00 27.15 LIG-0.27  OA
ATOM      3  N   PRO X   4      32.180 -20.434  -0.802  1.00 24.39 LIG-0.34  N 
ATOM      4  CA  PRO X   4      31.165 -20.026   0.169  1.00 23.70 LIG 0.18  C 
ATOM      5  CB  PRO X   4      30.146 -21.164   0.090  1.00 23.39 LIG 0.04  C 
ATOM      6  CG  PRO X   4      30.995 -22.361  -0.349  1.00 25.35 LIG 0.02  C 
ATOM      7  CD  PRO X   4      31.846 -21.731  -1.411  1.00 22.91 LIG 0.13  C 
ENDROOT
BRANCH 4 8
ATOM      8  C   PRO X   4      31.872 -19.918   1.527  1.00 23.69 LIG 0.24  C 
ATOM      9 O    PRO X   4      31.903 -18.842   2.109  1.00 21.84 LIG-0.27  OA
ATOM     10  N   VAL X   5      32.425 -21.020   2.034  1.00 24.58 LIG-0.34  N 
ATOM     11 H    VAL X   5      32.428 -21.787   1.645  1.00 24.58 LIG 0.16  HD
BRANCH 10 12
ATOM     12  CA  VAL X   5      33.091 -20.988   3.343  1.00 25.73 LIG 0.19  C 
BRANCH 12 13
ATOM     13  C   VAL X   5      34.536 -21.507   3.396  1.00 27.91 LIG 0.20  C 
ATOM     14 OXT  VAL X   5      34.976 -22.212   2.457  1.00 25.78 LIG-0.65  OA
ATOM     15 O    VAL X   5      35.229 -21.224   4.390  1.00 23.88 LIG-0.65  OA
ENDBRANCH 12 13
BRANCH 12 16
ATOM     16  CB  VAL X   5      32.273 -21.756   4.404  1.00 25.22 LIG 0.01  C 
ATOM     17  CG1 VAL X   5      32.866 -23.124   4.627  1.00 21.50 LIG 0.01  C 
ATOM     18  CG2 VAL X   5      32.262 -20.969   5.733  1.00 24.36 LIG 0.01  C 
ENDBRANCH 12 16
ENDBRANCH 10 12
ENDBRANCH 4 8
BRANCH 1 19
ATOM     19  CA  ALA X   3      34.104 -20.033  -2.210  1.00 23.97 LIG 0.17  C 
ATOM     20  CB  ALA X   3      35.213 -20.782  -1.502  1.00 25.40 LIG 0.04  C 
BRANCH 19 21
ATOM     21  N   ALA X   3      34.599 -18.811  -2.774  1.00 22.59 LIG-0.35  N 
ATOM     22 H    ALA X   3      34.912 -18.244  -2.207  1.00 22.59 LIG 0.16  HD
ATOM     23  C   ALA X   2      34.550 -18.628  -4.072  1.00 23.89 LIG 0.26  C 
ATOM     24 O    ALA X   2      34.148 -19.494  -4.855  1.00 22.77 LIG-0.27  OA
BRANCH 23 25
ATOM     25  CA  ALA X   2      35.050 -17.294  -4.571  1.00 23.49 LIG 0.40  C 
ATOM     26  CB  ALA X   2      34.494 -16.141  -3.734  1.00 22.19 LIG 0.06  C 
ATOM     27  N   ALA X   2      34.523 -17.251  -5.910  1.00 24.67 LIG 0.61  N 
ENDBRANCH 23 25
ENDBRANCH 19 21
ENDBRANCH 1 19
TORSDOF 7
ENDMDL
MODEL 4
USER: ADFR SOLUTION from run 11
USER: SCORE 9.134194 LL:  -2.053 LR:  -7.237 RR:   0.000 FEB:  -5.149
USER: RMSD 3.249638
USER: SEED 324157
USER: STATUS no improvement in best in 3 clusters for 5 generations
USER: GENES 9
USER: genes 0 Translation |==|  0.55534 0.49866 0.41634
USER: genes 1 Rotation |==|  0.48091 0.50671 0.45111 0.99719
USER: genes 2 Torsion [N]-CA--C-[O] |==|  0.96996
USER: genes 3 Torsion [C]-N--CA-[C] |==|  0.74680
USER: genes 4 Torsion [N]-CA--C-[OXT] |==|  0.66324
USER: genes 5 Torsion [N]-CA--CB-[CG1] |==|  0.65252
USER: genes 6 Torsion [N]-C--CA-[N] |==|  0.86678
USER: genes 7 Torsion [C]-CA--N-[C] |==|  0.81358
USER: genes 8 Torsion [N]-C--CA-[N] |==|  0.61203
ROOT
ATOM      1  C   ALA X   3      33.770 -19.501  -1.229  1.00 23.90 LIG 0.24  C 
ATOM      2 O    ALA X   3      34.059 -18.357  -0.875  1.00 27.15 LIG-0.27  OA
ATOM      3  N   PRO X   4      32.713 -20.159  -0.750  1.00 24.39 LIG-0.34  N 
ATOM      4  CA  PRO X   4      31.909 -19.555   0.312  1.00 23.70 LIG 0.18  C 
ATOM      5  CB  PRO X   4      30.635 -20.402   0.294  1.00 23.39 LIG 0.04  C 
ATOM      6  CG  PRO X   4      31.123 -21.751  -0.242  1.00 25.35 LIG 0.02  C 
ATOM      7  CD  PRO X   4      32.020 -21.305  -1.358  1.00 22.91 LIG 0.13  C 
ENDROOT
BRANCH 4 8
ATOM      8  C   PRO X   4      32.723 -19.684   1.607  1.00 23.69 LIG 0.24  C 
ATOM      9 O    PRO X   4      33.724 -20.387   1.625  1.00 21.84 LIG-0.27  OA
ATOM     10  N   VAL X   5      32.308 -19.005   2.678  1.00 24.58 LIG-0.34  N 
ATOM     11 H    VAL X   5      31.604 -18.511   2.699  1.00 24.58 LIG 0.16  HD
BRANCH 10 12
ATOM     12  CA  VAL X   5      33.060 -19.064   3.938  1.00 25.73 LIG 0.19  C 
BRANCH 12 13
ATOM     13  C   VAL X   5      32.648 -20.156   4.938  1.00 27.91 LIG 0.20  C 
ATOM     14 OXT  VAL X   5      32.273 -19.832   6.090  1.00 25.78 LIG-0.65  OA
ATOM     15 O    VAL X   5      32.716 -21.344   4.575  1.00 23.88 LIG-0.65  OA
ENDBRANCH 12 13
BRANCH 12 16
ATOM     16  CB  VAL X   5      33.019 -17.708   4.676  1.00 25.22 LIG 0.01  C 
ATOM     17  CG1 VAL X   5      34.421 -17.232   4.965  1.00 21.50 LIG 0.01  C 
ATOM     18  CG2 VAL X   5      32.280 -16.661   3.815  1.00 24.36 LIG 0.01  C 
ENDBRANCH 12 16
ENDBRANCH 10 12
ENDBRANCH 4 8
BRANCH 1 19
ATOM     19  CA  ALA X   3      34.562 -20.184  -2.308  1.00 23.97 LIG 0.17  C 
ATOM     20  CB  ALA X   3      33.773 -20.239  -3.599  1.00 25.40 LIG 0.04  C 
BRANCH 19 21
ATOM     21  N   ALA X   3      34.745 -21.501  -1.770  1.00 22.59 LIG-0.35  N 
ATOM     22 H    ALA X   3      34.339 -22.131  -2.192  1.00 22.59 LIG 0.16  HD
ATOM     23  C   ALA X   2      35.494 -21.669  -0.706  1.00 23.89 LIG 0.26  C 
ATOM     24 O    ALA X   2      36.110 -20.743  -0.167  1.00 22.77 LIG-0.27  OA
BRANCH 23 25
ATOM     25  CA  ALA X   2      35.593 -23.082  -0.183  1.00 23.49 LIG 0.40  C 
ATOM     26  CB  ALA X   2      34.416 -23.936  -0.660  1.00 22.19 LIG 0.06  C 
ATOM     27  N   ALA X   2      35.535 -22.886   1.242  1.00 24.67 LIG 0.61  N 
ENDBRANCH 23 25
ENDBRANCH 19 21
ENDBRANCH 1 19
TORSDOF 7
ENDMDL
