MODEL 1
USER: ADFR SOLUTION from run 111
USER: SCORE 18.518602 LL:  -2.669 LR: -17.443 RR:   0.000 FEB: -11.178
USER: RMSD 2.551846
USER: SEED 110
USER: STATUS 1 or 2 clusters left
USER: GENES 23
USER: genes 0 Translation |==|  0.40668 0.54799 0.45461
USER: genes 1 Rotation |==|  0.51870 0.53175 0.51496 0.99842
USER: genes 2 Torsion [CB]-CA--N-[C] |==|  0.51111
USER: genes 3 Torsion [N]-C--CA-[N] |==|  0.97698
USER: genes 4 Torsion [C]-CA--CB-[CG] |==|  0.34323
USER: genes 5 Torsion [CA]-CB--CG-[CD] |==|  0.98593
USER: genes 6 Torsion [CB]-CG--CD-[OE1] |==|  0.67287
USER: genes 7 Torsion [C]-CA--N-[C] |==|  0.79485
USER: genes 8 Torsion [N]-C--CA-[N] |==|  0.08072
USER: genes 9 Torsion [C]-CA--CB-[CG] |==|  0.83924
USER: genes 10 Torsion [CA]-CB--CG-[SD] |==|  0.28542
USER: genes 11 Torsion [CB]-CG--SD-[CE] |==|  0.63714
USER: genes 12 Torsion [N]-CA--C-[N] |==|  0.35189
USER: genes 13 Torsion [C]-N--CA-[CB] |==|  0.46991
USER: genes 14 Torsion [N]-CA--CB-[CG1] |==|  0.79630
USER: genes 15 Torsion [N]-CA--C-[N] |==|  0.43303
USER: genes 16 Torsion [C]-N--CA-[CB] |==|  0.30327
USER: genes 17 Torsion [N]-CA--CB-[CG] |==|  0.85410
USER: genes 18 Torsion [CA]-CB--CG-[OD2] |==|  0.23506
USER: genes 19 Torsion [N]-CA--C-[O] |==|  0.07930
USER: genes 20 Torsion [N]-CA--CB-[CG] |==|  0.99635
USER: genes 21 Torsion [CA]-CB--CG-[CD] |==|  0.26541
USER: genes 22 Torsion [CB]-CG--CD-[OE2] |==|  0.74031
ROOT
ATOM      1  CA  GLU Q 707      -3.528  20.088  54.606  1.00 49.62 LIG 0.18  C 
ENDROOT
BRANCH 1 2
ATOM      2  N   GLU Q 707      -3.366  20.935  53.412  1.00 50.42 LIG-0.35  N 
ATOM      3 H    GLU Q 707      -2.864  20.594  52.803  1.00 50.42 LIG 0.16  HD
ATOM      4  C   GLU Q 706      -3.953  22.119  53.304  1.00 51.37 LIG 0.24  C 
ATOM      5 O    GLU Q 706      -4.635  22.586  54.213  1.00 51.66 LIG-0.27  OA
BRANCH 4 6
ATOM      6  CA  GLU Q 706      -3.755  22.885  51.962  1.00 52.25 LIG 0.18  C 
BRANCH 6 7
ATOM      7  CB  GLU Q 706      -5.105  23.003  51.233  1.00 52.83 LIG 0.04  C 
BRANCH 7 8
ATOM      8  CG  GLU Q 706      -5.523  24.452  50.900  1.00 56.79 LIG 0.12  C 
BRANCH 8 9
ATOM      9  CD  GLU Q 706      -4.569  25.535  51.469  1.00 61.53 LIG 0.17  C 
ATOM     10 OE1  GLU Q 706      -5.013  26.366  52.305  1.00 62.14 LIG-0.65  OA
ATOM     11 OE2  GLU Q 706      -3.372  25.552  51.061  1.00 62.79 LIG-0.65  OA
ENDBRANCH 8 9
ENDBRANCH 7 8
ENDBRANCH 6 7
BRANCH 6 12
ATOM     12  N   GLU Q 706      -2.763  22.235  51.079  1.00 51.83 LIG-0.35  N 
ATOM     13 H    GLU Q 706      -3.122  21.831  50.409  1.00 51.83 LIG 0.16  HD
ATOM     14  C   MET Q 705      -1.437  22.257  51.279  1.00 52.04 LIG 0.26  C 
ATOM     15 O    MET Q 705      -0.882  22.912  52.170  1.00 51.63 LIG-0.27  OA
BRANCH 14 16
ATOM     16  CA  MET Q 705      -0.595  21.400  50.332  1.00 52.15 LIG 0.40  C 
ATOM     17  N   MET Q 705      -1.246  21.253  48.989  1.00 52.08 LIG 0.61  N 
BRANCH 16 18
ATOM     18  CB  MET Q 705       0.831  21.951  50.220  1.00 52.13 LIG 0.06  C 
BRANCH 18 19
ATOM     19  CG  MET Q 705       0.918  23.399  49.736  1.00 53.37 LIG 0.08  C 
BRANCH 19 20
ATOM     20 SD   MET Q 705       1.246  24.609  51.052  1.00 56.30 LIG-0.17  SA
ATOM     21  CE  MET Q 705      -0.015  25.842  50.749  1.00 57.25 LIG 0.09  C 
ENDBRANCH 19 20
ENDBRANCH 18 19
ENDBRANCH 16 18
ENDBRANCH 14 16
ENDBRANCH 6 12
ENDBRANCH 4 6
ENDBRANCH 1 2
BRANCH 1 22
ATOM     22  C   GLU Q 707      -3.127  20.860  55.871  1.00 47.30 LIG 0.24  C 
ATOM     23  N   VAL Q 708      -4.020  20.900  56.857  1.00 45.52 LIG-0.35  N 
ATOM     24 H    VAL Q 708      -4.836  20.637  56.777  1.00 45.52 LIG 0.16  HD
ATOM     25 O    GLU Q 707      -2.015  21.389  55.947  1.00 46.84 LIG-0.27  OA
BRANCH 23 26
ATOM     26  CA  VAL Q 708      -3.675  21.409  58.195  1.00 44.03 LIG 0.18  C 
BRANCH 26 27
ATOM     27  CB  VAL Q 708      -4.922  21.602  59.071  1.00 43.64 LIG 0.01  C 
ATOM     28  CG1 VAL Q 708      -5.703  22.825  58.596  1.00 41.62 LIG 0.01  C 
ATOM     29  CG2 VAL Q 708      -5.802  20.357  59.026  1.00 42.17 LIG 0.01  C 
ENDBRANCH 26 27
BRANCH 26 30
ATOM     30  C   VAL Q 708      -2.644  20.496  58.881  1.00 43.98 LIG 0.24  C 
ATOM     31 O    VAL Q 708      -2.519  19.334  58.520  1.00 43.91 LIG-0.27  OA
ATOM     32  N   ASP Q 709      -1.883  21.044  59.826  1.00 43.53 LIG-0.34  N 
ATOM     33 H    ASP Q 709      -1.946  21.870  60.058  1.00 43.53 LIG 0.16  HD
BRANCH 32 34
ATOM     34  CA  ASP Q 709      -0.859  20.298  60.574  1.00 43.18 LIG 0.20  C 
BRANCH 34 35
ATOM     35  CB  ASP Q 709       0.526  20.751  60.151  1.00 43.21 LIG 0.15  C 
BRANCH 35 36
ATOM     36  CG  ASP Q 709       0.726  20.702  58.665  1.00 45.24 LIG 0.17  C 
ATOM     37 OD2  ASP Q 709       0.333  21.700  58.007  1.00 45.66 LIG-0.65  OA
ATOM     38 OD1  ASP Q 709       1.300  19.683  58.180  1.00 45.75 LIG-0.65  OA
ENDBRANCH 35 36
ENDBRANCH 34 35
BRANCH 34 39
ATOM     39  C   ASP Q 709      -0.946  20.526  62.094  1.00 42.83 LIG 0.20  C 
ATOM     40 O    ASP Q 709      -2.014  20.794  62.638  1.00 42.06 LIG-0.65  OA
ATOM     41 OXT  ASP Q 709       0.076  20.507  62.800  1.00 42.11 LIG-0.65  OA
ENDBRANCH 34 39
ENDBRANCH 32 34
ENDBRANCH 26 30
ENDBRANCH 23 26
ENDBRANCH 1 22
BRANCH 1 42
ATOM     42  CB  GLU Q 707      -2.654  18.827  54.486  1.00 49.18 LIG 0.04  C 
BRANCH 42 43
ATOM     43  CG  GLU Q 707      -1.850  18.708  53.174  1.00 51.82 LIG 0.12  C 
BRANCH 43 44
ATOM     44  CD  GLU Q 707      -0.405  19.235  53.312  1.00 52.55 LIG 0.17  C 
ATOM     45 OE2  GLU Q 707      -0.165  20.425  53.006  1.00 56.45 LIG-0.65  OA
ATOM     46 OE1  GLU Q 707       0.499  18.452  53.709  1.00 56.78 LIG-0.65  OA
ENDBRANCH 43 44
ENDBRANCH 42 43
ENDBRANCH 1 42
TORSDOF 21
ENDMDL
MODEL 2
USER: ADFR SOLUTION from run 43
USER: SCORE 18.108661 LL:  -1.793 LR: -17.401 RR:   0.000 FEB: -11.137
USER: RMSD 2.411585
USER: SEED 42
USER: STATUS no improvement in best in 3 clusters for 5 generations
USER: GENES 23
USER: genes 0 Translation |==|  0.40533 0.57695 0.45027
USER: genes 1 Rotation |==|  0.53081 0.50594 0.46455 0.99775
USER: genes 2 Torsion [CB]-CA--N-[C] |==|  0.85702
USER: genes 3 Torsion [N]-C--CA-[N] |==|  0.50905
USER: genes 4 Torsion [C]-CA--CB-[CG] |==|  0.30825
USER: genes 5 Torsion [CA]-CB--CG-[CD] |==|  0.00396
USER: genes 6 Torsion [CB]-CG--CD-[OE1] |==|  0.76667
USER: genes 7 Torsion [C]-CA--N-[C] |==|  0.57093
USER: genes 8 Torsion [N]-C--CA-[N] |==|  0.26123
USER: genes 9 Torsion [C]-CA--CB-[CG] |==|  0.54292
USER: genes 10 Torsion [CA]-CB--CG-[SD] |==|  0.81507
USER: genes 11 Torsion [CB]-CG--SD-[CE] |==|  0.48395
USER: genes 12 Torsion [N]-CA--C-[N] |==|  0.36919
USER: genes 13 Torsion [C]-N--CA-[CB] |==|  0.48889
USER: genes 14 Torsion [N]-CA--CB-[CG1] |==|  0.81277
USER: genes 15 Torsion [N]-CA--C-[N] |==|  0.43415
USER: genes 16 Torsion [C]-N--CA-[CB] |==|  0.30303
USER: genes 17 Torsion [N]-CA--CB-[CG] |==|  0.83694
USER: genes 18 Torsion [CA]-CB--CG-[OD2] |==|  0.26097
USER: genes 19 Torsion [N]-CA--C-[O] |==|  0.53872
USER: genes 20 Torsion [N]-CA--CB-[CG] |==|  0.28907
USER: genes 21 Torsion [CA]-CB--CG-[CD] |==|  0.60325
USER: genes 22 Torsion [CB]-CG--CD-[OE2] |==|  0.25944
ROOT
ATOM      1  CA  GLU Q 707      -3.555  20.566  54.508  1.00 49.62 LIG 0.18  C 
ENDROOT
BRANCH 1 2
ATOM      2  N   GLU Q 707      -3.108  21.395  53.376  1.00 50.42 LIG-0.35  N 
ATOM      3 H    GLU Q 707      -3.746  21.785  52.952  1.00 50.42 LIG 0.16  HD
ATOM      4  C   GLU Q 706      -1.828  21.516  53.054  1.00 51.37 LIG 0.24  C 
ATOM      5 O    GLU Q 706      -0.950  20.913  53.665  1.00 51.66 LIG-0.27  OA
BRANCH 4 6
ATOM      6  CA  GLU Q 706      -1.485  22.476  51.876  1.00 52.25 LIG 0.18  C 
BRANCH 6 7
ATOM      7  CB  GLU Q 706      -2.300  22.076  50.633  1.00 52.83 LIG 0.04  C 
BRANCH 7 8
ATOM      8  CG  GLU Q 706      -3.392  23.094  50.235  1.00 56.79 LIG 0.12  C 
BRANCH 8 9
ATOM      9  CD  GLU Q 706      -3.447  24.353  51.139  1.00 61.53 LIG 0.17  C 
ATOM     10 OE1  GLU Q 706      -4.093  24.305  52.220  1.00 62.14 LIG-0.65  OA
ATOM     11 OE2  GLU Q 706      -2.845  25.395  50.752  1.00 62.79 LIG-0.65  OA
ENDBRANCH 8 9
ENDBRANCH 7 8
ENDBRANCH 6 7
BRANCH 6 12
ATOM     12  N   GLU Q 706      -0.042  22.480  51.549  1.00 51.83 LIG-0.35  N 
ATOM     13 H    GLU Q 706       0.356  21.751  51.772  1.00 51.83 LIG 0.16  HD
ATOM     14  C   MET Q 705       0.601  23.502  50.966  1.00 52.04 LIG 0.26  C 
ATOM     15 O    MET Q 705       0.042  24.520  50.539  1.00 51.63 LIG-0.27  OA
BRANCH 14 16
ATOM     16  CA  MET Q 705       2.120  23.366  50.848  1.00 52.15 LIG 0.40  C 
ATOM     17  N   MET Q 705       2.525  22.793  49.522  1.00 52.08 LIG 0.61  N 
BRANCH 16 18
ATOM     18  CB  MET Q 705       2.811  24.706  51.127  1.00 52.13 LIG 0.06  C 
BRANCH 18 19
ATOM     19  CG  MET Q 705       4.272  24.775  50.680  1.00 53.37 LIG 0.08  C 
BRANCH 19 20
ATOM     20 SD   MET Q 705       5.389  23.678  51.602  1.00 56.30 LIG-0.17  SA
ATOM     21  CE  MET Q 705       6.930  23.884  50.718  1.00 57.25 LIG 0.09  C 
ENDBRANCH 19 20
ENDBRANCH 18 19
ENDBRANCH 16 18
ENDBRANCH 14 16
ENDBRANCH 6 12
ENDBRANCH 4 6
ENDBRANCH 1 2
BRANCH 1 22
ATOM     22  C   GLU Q 707      -3.130  21.201  55.839  1.00 47.30 LIG 0.24  C 
ATOM     23  N   VAL Q 708      -4.058  21.281  56.790  1.00 45.52 LIG-0.35  N 
ATOM     24 H    VAL Q 708      -4.894  21.121  56.659  1.00 45.52 LIG 0.16  HD
ATOM     25 O    GLU Q 707      -1.969  21.590  55.997  1.00 46.84 LIG-0.27  OA
BRANCH 23 26
ATOM     26  CA  VAL Q 708      -3.721  21.657  58.173  1.00 44.03 LIG 0.18  C 
BRANCH 26 27
ATOM     27  CB  VAL Q 708      -4.975  21.773  59.053  1.00 43.64 LIG 0.01  C 
ATOM     28  CG1 VAL Q 708      -5.821  22.959  58.595  1.00 41.62 LIG 0.01  C 
ATOM     29  CG2 VAL Q 708      -5.788  20.484  58.996  1.00 42.17 LIG 0.01  C 
ENDBRANCH 26 27
BRANCH 26 30
ATOM     30  C   VAL Q 708      -2.701  20.676  58.776  1.00 43.98 LIG 0.24  C 
ATOM     31 O    VAL Q 708      -2.575  19.555  58.302  1.00 43.91 LIG-0.27  OA
ATOM     32  N   ASP Q 709      -1.951  21.123  59.781  1.00 43.53 LIG-0.34  N 
ATOM     33 H    ASP Q 709      -2.015  21.922  60.094  1.00 43.53 LIG 0.16  HD
BRANCH 32 34
ATOM     34  CA  ASP Q 709      -0.938  20.302  60.462  1.00 43.18 LIG 0.20  C 
BRANCH 34 35
ATOM     35  CB  ASP Q 709       0.453  20.789  60.103  1.00 43.21 LIG 0.15  C 
BRANCH 35 36
ATOM     36  CG  ASP Q 709       0.721  20.747  58.627  1.00 45.24 LIG 0.17  C 
ATOM     37 OD2  ASP Q 709       0.502  21.804  57.981  1.00 45.66 LIG-0.65  OA
ATOM     38 OD1  ASP Q 709       1.175  19.671  58.140  1.00 45.75 LIG-0.65  OA
ENDBRANCH 35 36
ENDBRANCH 34 35
BRANCH 34 39
ATOM     39  C   ASP Q 709      -1.043  20.378  61.997  1.00 42.83 LIG 0.20  C 
ATOM     40 O    ASP Q 709      -0.137  19.968  62.718  1.00 42.06 LIG-0.65  OA
ATOM     41 OXT  ASP Q 709      -2.076  20.796  62.544  1.00 42.11 LIG-0.65  OA
ENDBRANCH 34 39
ENDBRANCH 32 34
ENDBRANCH 26 30
ENDBRANCH 23 26
ENDBRANCH 1 22
BRANCH 1 42
ATOM     42  CB  GLU Q 707      -2.950  19.154  54.406  1.00 49.18 LIG 0.04  C 
BRANCH 42 43
ATOM     43  CG  GLU Q 707      -1.779  18.870  55.370  1.00 51.82 LIG 0.12  C 
BRANCH 43 44
ATOM     44  CD  GLU Q 707      -0.683  17.990  54.731  1.00 52.55 LIG 0.17  C 
ATOM     45 OE2  GLU Q 707       0.292  18.546  54.177  1.00 56.45 LIG-0.65  OA
ATOM     46 OE1  GLU Q 707      -0.806  16.737  54.763  1.00 56.78 LIG-0.65  OA
ENDBRANCH 43 44
ENDBRANCH 42 43
ENDBRANCH 1 42
TORSDOF 21
ENDMDL
MODEL 3
USER: ADFR SOLUTION from run 50
USER: SCORE 17.205683 LL:  -2.879 LR: -17.051 RR:   0.000 FEB: -10.787
USER: RMSD 3.007678
USER: SEED 49
USER: STATUS no improvement in best in 2 clusters for 5 generations
USER: GENES 23
USER: genes 0 Translation |==|  0.41110 0.58374 0.44923
USER: genes 1 Rotation |==|  0.57071 0.58275 0.61935 0.97319
USER: genes 2 Torsion [CB]-CA--N-[C] |==|  0.27950
USER: genes 3 Torsion [N]-C--CA-[N] |==|  0.15762
USER: genes 4 Torsion [C]-CA--CB-[CG] |==|  0.24901
USER: genes 5 Torsion [CA]-CB--CG-[CD] |==|  0.60860
USER: genes 6 Torsion [CB]-CG--CD-[OE1] |==|  0.75120
USER: genes 7 Torsion [C]-CA--N-[C] |==|  0.67203
USER: genes 8 Torsion [N]-C--CA-[N] |==|  0.09717
USER: genes 9 Torsion [C]-CA--CB-[CG] |==|  0.40499
USER: genes 10 Torsion [CA]-CB--CG-[SD] |==|  0.81831
USER: genes 11 Torsion [CB]-CG--SD-[CE] |==|  0.26141
USER: genes 12 Torsion [N]-CA--C-[N] |==|  0.26673
USER: genes 13 Torsion [C]-N--CA-[CB] |==|  0.47431
USER: genes 14 Torsion [N]-CA--CB-[CG1] |==|  0.82259
USER: genes 15 Torsion [N]-CA--C-[N] |==|  0.42832
USER: genes 16 Torsion [C]-N--CA-[CB] |==|  0.30070
USER: genes 17 Torsion [N]-CA--CB-[CG] |==|  0.85190
USER: genes 18 Torsion [CA]-CB--CG-[OD2] |==|  0.25535
USER: genes 19 Torsion [N]-CA--C-[O] |==|  0.05167
USER: genes 20 Torsion [N]-CA--CB-[CG] |==|  0.98669
USER: genes 21 Torsion [CA]-CB--CG-[CD] |==|  0.22656
USER: genes 22 Torsion [CB]-CG--CD-[OE2] |==|  0.23354
ROOT
ATOM      1  CA  GLU Q 707      -3.438  20.678  54.485  1.00 49.62 LIG 0.18  C 
ENDROOT
BRANCH 1 2
ATOM      2  N   GLU Q 707      -3.901  21.716  53.548  1.00 50.42 LIG-0.35  N 
ATOM      3 H    GLU Q 707      -3.442  22.442  53.572  1.00 50.42 LIG 0.16  HD
ATOM      4  C   GLU Q 706      -4.939  21.527  52.745  1.00 51.37 LIG 0.24  C 
ATOM      5 O    GLU Q 706      -5.591  20.487  52.767  1.00 51.66 LIG-0.27  OA
BRANCH 4 6
ATOM      6  CA  GLU Q 706      -5.284  22.680  51.756  1.00 52.25 LIG 0.18  C 
BRANCH 6 7
ATOM      7  CB  GLU Q 706      -6.496  22.276  50.897  1.00 52.83 LIG 0.04  C 
BRANCH 7 8
ATOM      8  CG  GLU Q 706      -7.862  22.665  51.505  1.00 56.79 LIG 0.12  C 
BRANCH 8 9
ATOM      9  CD  GLU Q 706      -8.971  21.598  51.309  1.00 61.53 LIG 0.17  C 
ATOM     10 OE1  GLU Q 706      -9.693  21.645  50.278  1.00 62.14 LIG-0.65  OA
ATOM     11 OE2  GLU Q 706      -9.119  20.718  52.205  1.00 62.79 LIG-0.65  OA
ENDBRANCH 8 9
ENDBRANCH 7 8
ENDBRANCH 6 7
BRANCH 6 12
ATOM     12  N   GLU Q 706      -4.146  23.036  50.880  1.00 51.83 LIG-0.35  N 
ATOM     13 H    GLU Q 706      -3.895  22.388  50.374  1.00 51.83 LIG 0.16  HD
ATOM     14  C   MET Q 705      -3.552  24.238  50.859  1.00 52.04 LIG 0.26  C 
ATOM     15 O    MET Q 705      -3.952  25.221  51.495  1.00 51.63 LIG-0.27  OA
BRANCH 14 16
ATOM     16  CA  MET Q 705      -2.299  24.358  49.989  1.00 52.15 LIG 0.40  C 
ATOM     17  N   MET Q 705      -2.400  23.517  48.751  1.00 52.08 LIG 0.61  N 
BRANCH 16 18
ATOM     18  CB  MET Q 705      -2.000  25.825  49.662  1.00 52.13 LIG 0.06  C 
BRANCH 18 19
ATOM     19  CG  MET Q 705      -0.512  26.166  49.563  1.00 53.37 LIG 0.08  C 
BRANCH 19 20
ATOM     20 SD   MET Q 705       0.398  26.000  51.127  1.00 56.30 LIG-0.17  SA
ATOM     21  CE  MET Q 705       1.046  24.336  51.007  1.00 57.25 LIG 0.09  C 
ENDBRANCH 19 20
ENDBRANCH 18 19
ENDBRANCH 16 18
ENDBRANCH 14 16
ENDBRANCH 6 12
ENDBRANCH 4 6
ENDBRANCH 1 2
BRANCH 1 22
ATOM     22  C   GLU Q 707      -3.065  21.302  55.837  1.00 47.30 LIG 0.24  C 
ATOM     23  N   VAL Q 708      -3.999  21.279  56.786  1.00 45.52 LIG-0.35  N 
ATOM     24 H    VAL Q 708      -4.819  21.059  56.647  1.00 45.52 LIG 0.16  HD
ATOM     25 O    GLU Q 707      -1.939  21.775  56.011  1.00 46.84 LIG-0.27  OA
BRANCH 23 26
ATOM     26  CA  VAL Q 708      -3.693  21.637  58.181  1.00 44.03 LIG 0.18  C 
BRANCH 26 27
ATOM     27  CB  VAL Q 708      -4.968  21.754  59.031  1.00 43.64 LIG 0.01  C 
ATOM     28  CG1 VAL Q 708      -5.835  22.897  58.510  1.00 41.62 LIG 0.01  C 
ATOM     29  CG2 VAL Q 708      -5.746  20.441  59.008  1.00 42.17 LIG 0.01  C 
ENDBRANCH 26 27
BRANCH 26 30
ATOM     30  C   VAL Q 708      -2.697  20.640  58.798  1.00 43.98 LIG 0.24  C 
ATOM     31 O    VAL Q 708      -2.596  19.511  58.339  1.00 43.91 LIG-0.27  OA
ATOM     32  N   ASP Q 709      -1.939  21.082  59.800  1.00 43.53 LIG-0.34  N 
ATOM     33 H    ASP Q 709      -1.984  21.886  60.102  1.00 43.53 LIG 0.16  HD
BRANCH 32 34
ATOM     34  CA  ASP Q 709      -0.946  20.248  60.493  1.00 43.18 LIG 0.20  C 
BRANCH 34 35
ATOM     35  CB  ASP Q 709       0.456  20.684  60.114  1.00 43.21 LIG 0.15  C 
BRANCH 35 36
ATOM     36  CG  ASP Q 709       0.672  20.725  58.629  1.00 45.24 LIG 0.17  C 
ATOM     37 OD2  ASP Q 709       0.451  21.821  58.054  1.00 45.66 LIG-0.65  OA
ATOM     38 OD1  ASP Q 709       1.089  19.671  58.065  1.00 45.75 LIG-0.65  OA
ENDBRANCH 35 36
ENDBRANCH 34 35
BRANCH 34 39
ATOM     39  C   ASP Q 709      -1.038  20.360  62.026  1.00 42.83 LIG 0.20  C 
ATOM     40 O    ASP Q 709      -2.047  20.796  62.573  1.00 42.06 LIG-0.65  OA
ATOM     41 OXT  ASP Q 709      -0.066  20.073  62.744  1.00 42.11 LIG-0.65  OA
ENDBRANCH 34 39
ENDBRANCH 32 34
ENDBRANCH 26 30
ENDBRANCH 23 26
ENDBRANCH 1 22
BRANCH 1 42
ATOM     42  CB  GLU Q 707      -2.211  19.950  53.908  1.00 49.18 LIG 0.04  C 
BRANCH 42 43
ATOM     43  CG  GLU Q 707      -1.815  20.364  52.476  1.00 51.82 LIG 0.12  C 
BRANCH 43 44
ATOM     44  CD  GLU Q 707      -0.980  21.664  52.442  1.00 52.55 LIG 0.17  C 
ATOM     45 OE2  GLU Q 707       0.256  21.592  52.625  1.00 56.45 LIG-0.65  OA
ATOM     46 OE1  GLU Q 707      -1.564  22.764  52.252  1.00 56.78 LIG-0.65  OA
ENDBRANCH 43 44
ENDBRANCH 42 43
ENDBRANCH 1 42
TORSDOF 21
ENDMDL
MODEL 4
USER: ADFR SOLUTION from run 1
USER: SCORE 17.583683 LL:  -2.046 LR: -17.035 RR:   0.000 FEB: -10.770
USER: RMSD 4.942426
USER: SEED 369311
USER: STATUS no improvement in best in 5 clusters for 5 generations
USER: GENES 23
USER: genes 0 Translation |==|  0.40549 0.55769 0.45313
USER: genes 1 Rotation |==|  0.53474 0.55839 0.55298 0.99252
USER: genes 2 Torsion [CB]-CA--N-[C] |==|  0.52805
USER: genes 3 Torsion [N]-C--CA-[N] |==|  0.13169
USER: genes 4 Torsion [C]-CA--CB-[CG] |==|  0.39941
USER: genes 5 Torsion [CA]-CB--CG-[CD] |==|  0.04066
USER: genes 6 Torsion [CB]-CG--CD-[OE1] |==|  0.30792
USER: genes 7 Torsion [C]-CA--N-[C] |==|  0.15516
USER: genes 8 Torsion [N]-C--CA-[N] |==|  0.09445
USER: genes 9 Torsion [C]-CA--CB-[CG] |==|  0.21692
USER: genes 10 Torsion [CA]-CB--CG-[SD] |==|  0.70507
USER: genes 11 Torsion [CB]-CG--SD-[CE] |==|  0.37027
USER: genes 12 Torsion [N]-CA--C-[N] |==|  0.31918
USER: genes 13 Torsion [C]-N--CA-[CB] |==|  0.47449
USER: genes 14 Torsion [N]-CA--CB-[CG1] |==|  0.79872
USER: genes 15 Torsion [N]-CA--C-[N] |==|  0.43942
USER: genes 16 Torsion [C]-N--CA-[CB] |==|  0.29650
USER: genes 17 Torsion [N]-CA--CB-[CG] |==|  0.84344
USER: genes 18 Torsion [CA]-CB--CG-[OD2] |==|  0.24248
USER: genes 19 Torsion [N]-CA--C-[O] |==|  0.58280
USER: genes 20 Torsion [N]-CA--CB-[CG] |==|  0.00490
USER: genes 21 Torsion [CA]-CB--CG-[CD] |==|  0.25053
USER: genes 22 Torsion [CB]-CG--CD-[OE2] |==|  0.27238
ROOT
ATOM      1  CA  GLU Q 707      -3.552  20.248  54.572  1.00 49.62 LIG 0.18  C 
ENDROOT
BRANCH 1 2
ATOM      2  N   GLU Q 707      -3.648  21.184  53.439  1.00 50.42 LIG-0.35  N 
ATOM      3 H    GLU Q 707      -3.237  20.922  52.731  1.00 50.42 LIG 0.16  HD
ATOM      4  C   GLU Q 706      -4.316  22.326  53.524  1.00 51.37 LIG 0.24  C 
ATOM      5 O    GLU Q 706      -4.860  22.678  54.566  1.00 51.66 LIG-0.27  OA
BRANCH 4 6
ATOM      6  CA  GLU Q 706      -4.397  23.193  52.232  1.00 52.25 LIG 0.18  C 
BRANCH 6 7
ATOM      7  CB  GLU Q 706      -5.408  24.335  52.442  1.00 52.83 LIG 0.04  C 
BRANCH 7 8
ATOM      8  CG  GLU Q 706      -5.013  25.665  51.763  1.00 56.79 LIG 0.12  C 
BRANCH 8 9
ATOM      9  CD  GLU Q 706      -3.880  25.531  50.712  1.00 61.53 LIG 0.17  C 
ATOM     10 OE1  GLU Q 706      -4.151  25.697  49.493  1.00 62.14 LIG-0.65  OA
ATOM     11 OE2  GLU Q 706      -2.717  25.249  51.119  1.00 62.79 LIG-0.65  OA
ENDBRANCH 8 9
ENDBRANCH 7 8
ENDBRANCH 6 7
BRANCH 6 12
ATOM     12  N   GLU Q 706      -4.773  22.403  51.040  1.00 51.83 LIG-0.35  N 
ATOM     13 H    GLU Q 706      -4.204  22.469  50.399  1.00 51.83 LIG 0.16  HD
ATOM     14  C   MET Q 705      -5.880  21.653  50.945  1.00 52.04 LIG 0.26  C 
ATOM     15 O    MET Q 705      -6.665  21.453  51.880  1.00 51.63 LIG-0.27  OA
BRANCH 14 16
ATOM     16  CA  MET Q 705      -6.161  21.032  49.575  1.00 52.15 LIG 0.40  C 
ATOM     17  N   MET Q 705      -4.894  20.664  48.862  1.00 52.08 LIG 0.61  N 
BRANCH 16 18
ATOM     18  CB  MET Q 705      -7.114  19.837  49.703  1.00 52.13 LIG 0.06  C 
BRANCH 18 19
ATOM     19  CG  MET Q 705      -8.586  20.213  49.881  1.00 53.37 LIG 0.08  C 
BRANCH 19 20
ATOM     20 SD   MET Q 705      -9.223  19.963  51.565  1.00 56.30 LIG-0.17  SA
ATOM     21  CE  MET Q 705     -10.091  21.498  51.868  1.00 57.25 LIG 0.09  C 
ENDBRANCH 19 20
ENDBRANCH 18 19
ENDBRANCH 16 18
ENDBRANCH 14 16
ENDBRANCH 6 12
ENDBRANCH 4 6
ENDBRANCH 1 2
BRANCH 1 22
ATOM     22  C   GLU Q 707      -3.135  20.992  55.849  1.00 47.30 LIG 0.24  C 
ATOM     23  N   VAL Q 708      -4.024  21.031  56.838  1.00 45.52 LIG-0.35  N 
ATOM     24 H    VAL Q 708      -4.844  20.783  56.756  1.00 45.52 LIG 0.16  HD
ATOM     25 O    GLU Q 707      -2.013  21.500  55.931  1.00 46.84 LIG-0.27  OA
BRANCH 23 26
ATOM     26  CA  VAL Q 708      -3.666  21.512  58.184  1.00 44.03 LIG 0.18  C 
BRANCH 26 27
ATOM     27  CB  VAL Q 708      -4.905  21.673  59.079  1.00 43.64 LIG 0.01  C 
ATOM     28  CG1 VAL Q 708      -5.713  22.887  58.630  1.00 41.62 LIG 0.01  C 
ATOM     29  CG2 VAL Q 708      -5.764  20.413  59.032  1.00 42.17 LIG 0.01  C 
ENDBRANCH 26 27
BRANCH 26 30
ATOM     30  C   VAL Q 708      -2.619  20.591  58.835  1.00 43.98 LIG 0.24  C 
ATOM     31 O    VAL Q 708      -2.460  19.452  58.418  1.00 43.91 LIG-0.27  OA
ATOM     32  N   ASP Q 709      -1.884  21.109  59.816  1.00 43.53 LIG-0.34  N 
ATOM     33 H    ASP Q 709      -1.970  21.921  60.089  1.00 43.53 LIG 0.16  HD
BRANCH 32 34
ATOM     34  CA  ASP Q 709      -0.849  20.354  60.538  1.00 43.18 LIG 0.20  C 
BRANCH 34 35
ATOM     35  CB  ASP Q 709       0.529  20.822  60.111  1.00 43.21 LIG 0.15  C 
BRANCH 35 36
ATOM     36  CG  ASP Q 709       0.747  20.718  58.630  1.00 45.24 LIG 0.17  C 
ATOM     37 OD2  ASP Q 709       0.385  21.702  57.933  1.00 45.66 LIG-0.65  OA
ATOM     38 OD1  ASP Q 709       1.303  19.671  58.186  1.00 45.75 LIG-0.65  OA
ENDBRANCH 35 36
ENDBRANCH 34 35
BRANCH 34 39
ATOM     39  C   ASP Q 709      -0.921  20.549  62.063  1.00 42.83 LIG 0.20  C 
ATOM     40 O    ASP Q 709       0.086  20.481  62.763  1.00 42.06 LIG-0.65  OA
ATOM     41 OXT  ASP Q 709      -2.013  20.715  62.632  1.00 42.11 LIG-0.65  OA
ENDBRANCH 34 39
ENDBRANCH 32 34
ENDBRANCH 26 30
ENDBRANCH 23 26
ENDBRANCH 1 22
BRANCH 1 42
ATOM     42  CB  GLU Q 707      -2.519  19.147  54.268  1.00 49.18 LIG 0.04  C 
BRANCH 42 43
ATOM     43  CG  GLU Q 707      -1.801  19.280  52.909  1.00 51.82 LIG 0.12  C 
BRANCH 43 44
ATOM     44  CD  GLU Q 707      -0.503  20.112  53.001  1.00 52.55 LIG 0.17  C 
ATOM     45 OE2  GLU Q 707       0.592  19.514  53.097  1.00 56.45 LIG-0.65  OA
ATOM     46 OE1  GLU Q 707      -0.579  21.370  52.999  1.00 56.78 LIG-0.65  OA
ENDBRANCH 43 44
ENDBRANCH 42 43
ENDBRANCH 1 42
TORSDOF 21
ENDMDL
MODEL 5
USER: ADFR SOLUTION from run 159
USER: SCORE 16.716277 LL:  -1.264 LR: -16.963 RR:   0.000 FEB: -10.699
USER: RMSD 5.200022
USER: SEED 158
USER: STATUS no improvement in best in 5 clusters for 5 generations
USER: GENES 23
USER: genes 0 Translation |==|  0.41276 0.53578 0.44417
USER: genes 1 Rotation |==|  0.51461 0.57894 0.58670 0.98584
USER: genes 2 Torsion [CB]-CA--N-[C] |==|  0.83889
USER: genes 3 Torsion [N]-C--CA-[N] |==|  0.05716
USER: genes 4 Torsion [C]-CA--CB-[CG] |==|  0.24777
USER: genes 5 Torsion [CA]-CB--CG-[CD] |==|  0.65423
USER: genes 6 Torsion [CB]-CG--CD-[OE1] |==|  0.85627
USER: genes 7 Torsion [C]-CA--N-[C] |==|  0.18050
USER: genes 8 Torsion [N]-C--CA-[N] |==|  0.75404
USER: genes 9 Torsion [C]-CA--CB-[CG] |==|  0.55340
USER: genes 10 Torsion [CA]-CB--CG-[SD] |==|  0.62446
USER: genes 11 Torsion [CB]-CG--SD-[CE] |==|  0.10918
USER: genes 12 Torsion [N]-CA--C-[N] |==|  0.32302
USER: genes 13 Torsion [C]-N--CA-[CB] |==|  0.45056
USER: genes 14 Torsion [N]-CA--CB-[CG1] |==|  0.80279
USER: genes 15 Torsion [N]-CA--C-[N] |==|  0.46937
USER: genes 16 Torsion [C]-N--CA-[CB] |==|  0.29664
USER: genes 17 Torsion [N]-CA--CB-[CG] |==|  0.84303
USER: genes 18 Torsion [CA]-CB--CG-[OD2] |==|  0.26623
USER: genes 19 Torsion [N]-CA--C-[O] |==|  0.06602
USER: genes 20 Torsion [N]-CA--CB-[CG] |==|  0.47194
USER: genes 21 Torsion [CA]-CB--CG-[CD] |==|  0.60886
USER: genes 22 Torsion [CB]-CG--CD-[OE2] |==|  0.46037
ROOT
ATOM      1  CA  GLU Q 707      -3.405  19.886  54.371  1.00 49.62 LIG 0.18  C 
ENDROOT
BRANCH 1 2
ATOM      2  N   GLU Q 707      -3.711  20.710  53.189  1.00 50.42 LIG-0.35  N 
ATOM      3 H    GLU Q 707      -4.520  20.635  52.908  1.00 50.42 LIG 0.16  HD
ATOM      4  C   GLU Q 706      -2.804  21.492  52.621  1.00 51.37 LIG 0.24  C 
ATOM      5 O    GLU Q 706      -1.648  21.543  53.033  1.00 51.66 LIG-0.27  OA
BRANCH 4 6
ATOM      6  CA  GLU Q 706      -3.276  22.361  51.418  1.00 52.25 LIG 0.18  C 
BRANCH 6 7
ATOM      7  CB  GLU Q 706      -2.576  23.732  51.467  1.00 52.83 LIG 0.04  C 
BRANCH 7 8
ATOM      8  CG  GLU Q 706      -1.224  23.782  50.723  1.00 56.79 LIG 0.12  C 
BRANCH 8 9
ATOM      9  CD  GLU Q 706      -0.034  24.256  51.596  1.00 61.53 LIG 0.17  C 
ATOM     10 OE1  GLU Q 706      -0.138  25.331  52.245  1.00 62.14 LIG-0.65  OA
ATOM     11 OE2  GLU Q 706       1.012  23.546  51.620  1.00 62.79 LIG-0.65  OA
ENDBRANCH 8 9
ENDBRANCH 7 8
ENDBRANCH 6 7
BRANCH 6 12
ATOM     12  N   GLU Q 706      -4.742  22.548  51.393  1.00 51.83 LIG-0.35  N 
ATOM     13 H    GLU Q 706      -5.117  22.184  50.710  1.00 51.83 LIG 0.16  HD
ATOM     14  C   MET Q 705      -5.439  23.212  52.327  1.00 52.04 LIG 0.26  C 
ATOM     15 O    MET Q 705      -4.949  23.658  53.372  1.00 51.63 LIG-0.27  OA
BRANCH 14 16
ATOM     16  CA  MET Q 705      -6.928  23.419  52.041  1.00 52.15 LIG 0.40  C 
ATOM     17  N   MET Q 705      -7.174  24.680  51.268  1.00 52.08 LIG 0.61  N 
BRANCH 16 18
ATOM     18  CB  MET Q 705      -7.525  22.192  51.341  1.00 52.13 LIG 0.06  C 
BRANCH 18 19
ATOM     19  CG  MET Q 705      -8.842  22.454  50.609  1.00 53.37 LIG 0.08  C 
BRANCH 19 20
ATOM     20 SD   MET Q 705     -10.118  21.190  50.890  1.00 56.30 LIG-0.17  SA
ATOM     21  CE  MET Q 705      -9.903  20.821  52.627  1.00 57.25 LIG 0.09  C 
ENDBRANCH 19 20
ENDBRANCH 18 19
ENDBRANCH 16 18
ENDBRANCH 14 16
ENDBRANCH 6 12
ENDBRANCH 4 6
ENDBRANCH 1 2
BRANCH 1 22
ATOM     22  C   GLU Q 707      -3.029  20.777  55.563  1.00 47.30 LIG 0.24  C 
ATOM     23  N   VAL Q 708      -3.837  20.737  56.620  1.00 45.52 LIG-0.35  N 
ATOM     24 H    VAL Q 708      -4.606  20.351  56.621  1.00 45.52 LIG 0.16  HD
ATOM     25 O    GLU Q 707      -2.009  21.470  55.521  1.00 46.84 LIG-0.27  OA
BRANCH 23 26
ATOM     26  CA  VAL Q 708      -3.470  21.364  57.901  1.00 44.03 LIG 0.18  C 
BRANCH 26 27
ATOM     27  CB  VAL Q 708      -4.695  21.573  58.805  1.00 43.64 LIG 0.01  C 
ATOM     28  CG1 VAL Q 708      -5.576  22.682  58.236  1.00 41.62 LIG 0.01  C 
ATOM     29  CG2 VAL Q 708      -5.487  20.275  58.936  1.00 42.17 LIG 0.01  C 
ENDBRANCH 26 27
BRANCH 26 30
ATOM     30  C   VAL Q 708      -2.376  20.552  58.616  1.00 43.98 LIG 0.24  C 
ATOM     31 O    VAL Q 708      -2.047  19.455  58.186  1.00 43.91 LIG-0.27  OA
ATOM     32  N   ASP Q 709      -1.791  21.120  59.669  1.00 43.53 LIG-0.34  N 
ATOM     33 H    ASP Q 709      -1.997  21.905  59.953  1.00 43.53 LIG 0.16  HD
BRANCH 32 34
ATOM     34  CA  ASP Q 709      -0.734  20.467  60.457  1.00 43.18 LIG 0.20  C 
BRANCH 34 35
ATOM     35  CB  ASP Q 709       0.607  21.110  60.161  1.00 43.21 LIG 0.15  C 
BRANCH 35 36
ATOM     36  CG  ASP Q 709       0.958  21.082  58.702  1.00 45.24 LIG 0.17  C 
ATOM     37 OD2  ASP Q 709       0.684  22.113  58.034  1.00 45.66 LIG-0.65  OA
ATOM     38 OD1  ASP Q 709       1.528  20.046  58.252  1.00 45.75 LIG-0.65  OA
ENDBRANCH 35 36
ENDBRANCH 34 35
BRANCH 34 39
ATOM     39  C   ASP Q 709      -0.955  20.598  61.975  1.00 42.83 LIG 0.20  C 
ATOM     40 O    ASP Q 709      -2.074  20.789  62.442  1.00 42.06 LIG-0.65  OA
ATOM     41 OXT  ASP Q 709       0.007  20.579  62.761  1.00 42.11 LIG-0.65  OA
ENDBRANCH 34 39
ENDBRANCH 32 34
ENDBRANCH 26 30
ENDBRANCH 23 26
ENDBRANCH 1 22
BRANCH 1 42
ATOM     42  CB  GLU Q 707      -2.237  18.931  54.066  1.00 49.18 LIG 0.04  C 
BRANCH 42 43
ATOM     43  CG  GLU Q 707      -1.660  18.189  55.290  1.00 51.82 LIG 0.12  C 
BRANCH 43 44
ATOM     44  CD  GLU Q 707      -0.121  18.067  55.240  1.00 52.55 LIG 0.17  C 
ATOM     45 OE2  GLU Q 707       0.492  17.736  56.280  1.00 56.45 LIG-0.65  OA
ATOM     46 OE1  GLU Q 707       0.481  18.324  54.164  1.00 56.78 LIG-0.65  OA
ENDBRANCH 43 44
ENDBRANCH 42 43
ENDBRANCH 1 42
TORSDOF 21
ENDMDL
MODEL 6
USER: ADFR SOLUTION from run 47
USER: SCORE 17.923973 LL:  -2.655 LR: -16.782 RR:   0.000 FEB: -10.518
USER: RMSD 2.771082
USER: SEED 46
USER: STATUS no improvement in best in 5 clusters for 5 generations
USER: GENES 23
USER: genes 0 Translation |==|  0.40792 0.55707 0.44683
USER: genes 1 Rotation |==|  0.51012 0.51107 0.47628 0.99921
USER: genes 2 Torsion [CB]-CA--N-[C] |==|  0.48400
USER: genes 3 Torsion [N]-C--CA-[N] |==|  0.95860
USER: genes 4 Torsion [C]-CA--CB-[CG] |==|  0.28012
USER: genes 5 Torsion [CA]-CB--CG-[CD] |==|  0.00079
USER: genes 6 Torsion [CB]-CG--CD-[OE1] |==|  0.17890
USER: genes 7 Torsion [C]-CA--N-[C] |==|  0.77594
USER: genes 8 Torsion [N]-C--CA-[N] |==|  0.99484
USER: genes 9 Torsion [C]-CA--CB-[CG] |==|  0.24549
USER: genes 10 Torsion [CA]-CB--CG-[SD] |==|  0.66143
USER: genes 11 Torsion [CB]-CG--SD-[CE] |==|  0.64654
USER: genes 12 Torsion [N]-CA--C-[N] |==|  0.38230
USER: genes 13 Torsion [C]-N--CA-[CB] |==|  0.50633
USER: genes 14 Torsion [N]-CA--CB-[CG1] |==|  0.80151
USER: genes 15 Torsion [N]-CA--C-[N] |==|  0.38373
USER: genes 16 Torsion [C]-N--CA-[CB] |==|  0.85287
USER: genes 17 Torsion [N]-CA--CB-[CG] |==|  0.76302
USER: genes 18 Torsion [CA]-CB--CG-[OD2] |==|  0.77315
USER: genes 19 Torsion [N]-CA--C-[O] |==|  0.76604
USER: genes 20 Torsion [N]-CA--CB-[CG] |==|  0.00149
USER: genes 21 Torsion [CA]-CB--CG-[CD] |==|  0.25963
USER: genes 22 Torsion [CB]-CG--CD-[OE2] |==|  0.69511
ROOT
ATOM      1  CA  GLU Q 707      -3.503  20.238  54.431  1.00 49.62 LIG 0.18  C 
ENDROOT
BRANCH 1 2
ATOM      2  N   GLU Q 707      -3.122  20.993  53.224  1.00 50.42 LIG-0.35  N 
ATOM      3 H    GLU Q 707      -2.532  20.603  52.736  1.00 50.42 LIG 0.16  HD
ATOM      4  C   GLU Q 706      -3.656  22.171  52.934  1.00 51.37 LIG 0.24  C 
ATOM      5 O    GLU Q 706      -4.471  22.710  53.677  1.00 51.66 LIG-0.27  OA
BRANCH 4 6
ATOM      6  CA  GLU Q 706      -3.216  22.833  51.594  1.00 52.25 LIG 0.18  C 
BRANCH 6 7
ATOM      7  CB  GLU Q 706      -4.372  22.761  50.580  1.00 52.83 LIG 0.04  C 
BRANCH 7 8
ATOM      8  CG  GLU Q 706      -5.170  24.074  50.431  1.00 56.79 LIG 0.12  C 
BRANCH 8 9
ATOM      9  CD  GLU Q 706      -4.658  25.234  51.325  1.00 61.53 LIG 0.17  C 
ATOM     10 OE1  GLU Q 706      -3.504  25.699  51.127  1.00 62.14 LIG-0.65  OA
ATOM     11 OE2  GLU Q 706      -5.420  25.670  52.235  1.00 62.79 LIG-0.65  OA
ENDBRANCH 8 9
ENDBRANCH 7 8
ENDBRANCH 6 7
BRANCH 6 12
ATOM     12  N   GLU Q 706      -2.006  22.205  51.021  1.00 51.83 LIG-0.35  N 
ATOM     13 H    GLU Q 706      -2.183  21.641  50.396  1.00 51.83 LIG 0.16  HD
ATOM     14  C   MET Q 705      -0.753  22.469  51.417  1.00 52.04 LIG 0.26  C 
ATOM     15 O    MET Q 705      -0.456  23.346  52.238  1.00 51.63 LIG-0.27  OA
BRANCH 14 16
ATOM     16  CA  MET Q 705       0.348  21.605  50.800  1.00 52.15 LIG 0.40  C 
ATOM     17  N   MET Q 705      -0.213  20.568  49.873  1.00 52.08 LIG 0.61  N 
BRANCH 16 18
ATOM     18  CB  MET Q 705       1.404  22.477  50.110  1.00 52.13 LIG 0.06  C 
BRANCH 18 19
ATOM     19  CG  MET Q 705       2.542  22.941  51.021  1.00 53.37 LIG 0.08  C 
BRANCH 19 20
ATOM     20 SD   MET Q 705       2.727  24.746  51.127  1.00 56.30 LIG-0.17  SA
ATOM     21  CE  MET Q 705       4.458  24.967  50.732  1.00 57.25 LIG 0.09  C 
ENDBRANCH 19 20
ENDBRANCH 18 19
ENDBRANCH 16 18
ENDBRANCH 14 16
ENDBRANCH 6 12
ENDBRANCH 4 6
ENDBRANCH 1 2
BRANCH 1 22
ATOM     22  C   GLU Q 707      -3.081  20.999  55.695  1.00 47.30 LIG 0.24  C 
ATOM     23  N   VAL Q 708      -3.957  21.027  56.698  1.00 45.52 LIG-0.35  N 
ATOM     24 H    VAL Q 708      -4.773  20.763  56.629  1.00 45.52 LIG 0.16  HD
ATOM     25 O    GLU Q 707      -1.969  21.530  55.757  1.00 46.84 LIG-0.27  OA
BRANCH 23 26
ATOM     26  CA  VAL Q 708      -3.589  21.525  58.034  1.00 44.03 LIG 0.18  C 
BRANCH 26 27
ATOM     27  CB  VAL Q 708      -4.755  21.403  59.028  1.00 43.64 LIG 0.01  C 
ATOM     28  CG1 VAL Q 708      -5.834  22.427  58.688  1.00 41.62 LIG 0.01  C 
ATOM     29  CG2 VAL Q 708      -5.331  19.991  59.002  1.00 42.17 LIG 0.01  C 
ENDBRANCH 26 27
BRANCH 26 30
ATOM     30  C   VAL Q 708      -2.329  20.814  58.557  1.00 43.98 LIG 0.24  C 
ATOM     31 O    VAL Q 708      -2.174  19.617  58.360  1.00 43.91 LIG-0.27  OA
ATOM     32  N   ASP Q 709      -1.420  21.566  59.174  1.00 43.53 LIG-0.34  N 
ATOM     33 H    ASP Q 709      -1.511  22.415  59.283  1.00 43.53 LIG 0.16  HD
BRANCH 32 34
ATOM     34  CA  ASP Q 709      -0.169  21.031  59.731  1.00 43.18 LIG 0.20  C 
BRANCH 34 35
ATOM     35  CB  ASP Q 709      -0.469  19.870  60.660  1.00 43.21 LIG 0.15  C 
BRANCH 35 36
ATOM     36  CG  ASP Q 709      -0.792  20.311  62.057  1.00 45.24 LIG 0.17  C 
ATOM     37 OD2  ASP Q 709       0.182  20.570  62.810  1.00 45.66 LIG-0.65  OA
ATOM     38 OD1  ASP Q 709      -2.013  20.421  62.374  1.00 45.75 LIG-0.65  OA
ENDBRANCH 35 36
ENDBRANCH 34 35
BRANCH 34 39
ATOM     39  C   ASP Q 709       0.782  20.488  58.649  1.00 42.83 LIG 0.20  C 
ATOM     40 O    ASP Q 709       0.664  19.346  58.211  1.00 42.06 LIG-0.65  OA
ATOM     41 OXT  ASP Q 709       1.735  21.171  58.238  1.00 42.11 LIG-0.65  OA
ENDBRANCH 34 39
ENDBRANCH 32 34
ENDBRANCH 26 30
ENDBRANCH 23 26
ENDBRANCH 1 22
BRANCH 1 42
ATOM     42  CB  GLU Q 707      -2.830  18.853  54.426  1.00 49.18 LIG 0.04  C 
BRANCH 42 43
ATOM     43  CG  GLU Q 707      -1.924  18.568  53.210  1.00 51.82 LIG 0.12  C 
BRANCH 43 44
ATOM     44  CD  GLU Q 707      -0.444  18.918  53.477  1.00 52.55 LIG 0.17  C 
ATOM     45 OE2  GLU Q 707       0.059  19.904  52.891  1.00 56.45 LIG-0.65  OA
ATOM     46 OE1  GLU Q 707       0.227  18.194  54.259  1.00 56.78 LIG-0.65  OA
ENDBRANCH 43 44
ENDBRANCH 42 43
ENDBRANCH 1 42
TORSDOF 21
ENDMDL
MODEL 7
USER: ADFR SOLUTION from run 195
USER: SCORE 17.878646 LL:  -2.000 LR: -16.579 RR:   0.000 FEB: -10.315
USER: RMSD 4.045971
USER: SEED 194
USER: STATUS no improvement in best in 3 clusters for 5 generations
USER: GENES 23
USER: genes 0 Translation |==|  0.40133 0.57261 0.44821
USER: genes 1 Rotation |==|  0.52470 0.50777 0.45958 0.99769
USER: genes 2 Torsion [CB]-CA--N-[C] |==|  0.85815
USER: genes 3 Torsion [N]-C--CA-[N] |==|  0.06430
USER: genes 4 Torsion [C]-CA--CB-[CG] |==|  0.48959
USER: genes 5 Torsion [CA]-CB--CG-[CD] |==|  0.25920
USER: genes 6 Torsion [CB]-CG--CD-[OE1] |==|  0.84981
USER: genes 7 Torsion [C]-CA--N-[C] |==|  0.70529
USER: genes 8 Torsion [N]-C--CA-[N] |==|  0.82236
USER: genes 9 Torsion [C]-CA--CB-[CG] |==|  0.25226
USER: genes 10 Torsion [CA]-CB--CG-[SD] |==|  0.57264
USER: genes 11 Torsion [CB]-CG--SD-[CE] |==|  0.29287
USER: genes 12 Torsion [N]-CA--C-[N] |==|  0.36831
USER: genes 13 Torsion [C]-N--CA-[CB] |==|  0.50002
USER: genes 14 Torsion [N]-CA--CB-[CG1] |==|  0.81485
USER: genes 15 Torsion [N]-CA--C-[N] |==|  0.45843
USER: genes 16 Torsion [C]-N--CA-[CB] |==|  0.28575
USER: genes 17 Torsion [N]-CA--CB-[CG] |==|  0.83465
USER: genes 18 Torsion [CA]-CB--CG-[OD2] |==|  0.24673
USER: genes 19 Torsion [N]-CA--C-[O] |==|  0.06694
USER: genes 20 Torsion [N]-CA--CB-[CG] |==|  0.30978
USER: genes 21 Torsion [CA]-CB--CG-[CD] |==|  0.61449
USER: genes 22 Torsion [CB]-CG--CD-[OE2] |==|  0.73790
ROOT
ATOM      1  CA  GLU Q 707      -3.636  20.494  54.462  1.00 49.62 LIG 0.18  C 
ENDROOT
BRANCH 1 2
ATOM      2  N   GLU Q 707      -3.186  21.287  53.305  1.00 50.42 LIG-0.35  N 
ATOM      3 H    GLU Q 707      -3.820  21.683  52.881  1.00 50.42 LIG 0.16  HD
ATOM      4  C   GLU Q 706      -1.907  21.370  52.963  1.00 51.37 LIG 0.24  C 
ATOM      5 O    GLU Q 706      -1.036  20.758  53.575  1.00 51.66 LIG-0.27  OA
BRANCH 4 6
ATOM      6  CA  GLU Q 706      -1.558  22.295  51.759  1.00 52.25 LIG 0.18  C 
BRANCH 6 7
ATOM      7  CB  GLU Q 706      -0.188  22.955  51.999  1.00 52.83 LIG 0.04  C 
BRANCH 7 8
ATOM      8  CG  GLU Q 706       0.310  23.828  50.827  1.00 56.79 LIG 0.12  C 
BRANCH 8 9
ATOM      9  CD  GLU Q 706      -0.057  25.330  50.951  1.00 61.53 LIG 0.17  C 
ATOM     10 OE1  GLU Q 706      -1.262  25.655  51.126  1.00 62.14 LIG-0.65  OA
ATOM     11 OE2  GLU Q 706       0.873  26.182  50.863  1.00 62.79 LIG-0.65  OA
ENDBRANCH 8 9
ENDBRANCH 7 8
ENDBRANCH 6 7
BRANCH 6 12
ATOM     12  N   GLU Q 706      -2.582  23.336  51.528  1.00 51.83 LIG-0.35  N 
ATOM     13 H    GLU Q 706      -2.560  23.966  52.113  1.00 51.83 LIG 0.16  HD
ATOM     14  C   MET Q 705      -3.464  23.323  50.518  1.00 52.04 LIG 0.26  C 
ATOM     15 O    MET Q 705      -3.457  22.490  49.603  1.00 51.63 LIG-0.27  OA
BRANCH 14 16
ATOM     16  CA  MET Q 705      -4.535  24.415  50.541  1.00 52.15 LIG 0.40  C 
ATOM     17  N   MET Q 705      -5.437  24.284  51.732  1.00 52.08 LIG 0.61  N 
BRANCH 16 18
ATOM     18  CB  MET Q 705      -3.898  25.806  50.455  1.00 52.13 LIG 0.06  C 
BRANCH 18 19
ATOM     19  CG  MET Q 705      -3.730  26.343  49.033  1.00 53.37 LIG 0.08  C 
BRANCH 19 20
ATOM     20 SD   MET Q 705      -2.380  27.546  48.842  1.00 56.30 LIG-0.17  SA
ATOM     21  CE  MET Q 705      -1.133  26.577  48.002  1.00 57.25 LIG 0.09  C 
ENDBRANCH 19 20
ENDBRANCH 18 19
ENDBRANCH 16 18
ENDBRANCH 14 16
ENDBRANCH 6 12
ENDBRANCH 4 6
ENDBRANCH 1 2
BRANCH 1 22
ATOM     22  C   GLU Q 707      -3.185  21.153  55.773  1.00 47.30 LIG 0.24  C 
ATOM     23  N   VAL Q 708      -4.104  21.279  56.728  1.00 45.52 LIG-0.35  N 
ATOM     24 H    VAL Q 708      -4.944  21.136  56.607  1.00 45.52 LIG 0.16  HD
ATOM     25 O    GLU Q 707      -2.014  21.518  55.912  1.00 46.84 LIG-0.27  OA
BRANCH 23 26
ATOM     26  CA  VAL Q 708      -3.746  21.682  58.098  1.00 44.03 LIG 0.18  C 
BRANCH 26 27
ATOM     27  CB  VAL Q 708      -4.981  21.755  59.011  1.00 43.64 LIG 0.01  C 
ATOM     28  CG1 VAL Q 708      -5.896  22.888  58.554  1.00 41.62 LIG 0.01  C 
ATOM     29  CG2 VAL Q 708      -5.729  20.426  59.000  1.00 42.17 LIG 0.01  C 
ENDBRANCH 26 27
BRANCH 26 30
ATOM     30  C   VAL Q 708      -2.671  20.750  58.682  1.00 43.98 LIG 0.24  C 
ATOM     31 O    VAL Q 708      -2.400  19.698  58.119  1.00 43.91 LIG-0.27  OA
ATOM     32  N   ASP Q 709      -2.036  21.167  59.776  1.00 43.53 LIG-0.34  N 
ATOM     33 H    ASP Q 709      -2.201  21.921  60.155  1.00 43.53 LIG 0.16  HD
BRANCH 32 34
ATOM     34  CA  ASP Q 709      -0.989  20.385  60.452  1.00 43.18 LIG 0.20  C 
BRANCH 34 35
ATOM     35  CB  ASP Q 709       0.378  20.948  60.115  1.00 43.21 LIG 0.15  C 
BRANCH 35 36
ATOM     36  CG  ASP Q 709       0.669  20.929  58.643  1.00 45.24 LIG 0.17  C 
ATOM     37 OD2  ASP Q 709       0.312  21.939  57.982  1.00 45.66 LIG-0.65  OA
ATOM     38 OD1  ASP Q 709       1.277  19.923  58.174  1.00 45.75 LIG-0.65  OA
ENDBRANCH 35 36
ENDBRANCH 34 35
BRANCH 34 39
ATOM     39  C   ASP Q 709      -1.111  20.426  61.986  1.00 42.83 LIG 0.20  C 
ATOM     40 O    ASP Q 709      -2.185  20.659  62.534  1.00 42.06 LIG-0.65  OA
ATOM     41 OXT  ASP Q 709      -0.109  20.288  62.708  1.00 42.11 LIG-0.65  OA
ENDBRANCH 34 39
ENDBRANCH 32 34
ENDBRANCH 26 30
ENDBRANCH 23 26
ENDBRANCH 1 22
BRANCH 1 42
ATOM     42  CB  GLU Q 707      -3.059  19.069  54.387  1.00 49.18 LIG 0.04  C 
BRANCH 42 43
ATOM     43  CG  GLU Q 707      -2.008  18.729  55.465  1.00 51.82 LIG 0.12  C 
BRANCH 43 44
ATOM     44  CD  GLU Q 707      -0.821  17.918  54.903  1.00 52.55 LIG 0.17  C 
ATOM     45 OE2  GLU Q 707      -0.851  16.670  54.982  1.00 56.45 LIG-0.65  OA
ATOM     46 OE1  GLU Q 707       0.157  18.531  54.398  1.00 56.78 LIG-0.65  OA
ENDBRANCH 43 44
ENDBRANCH 42 43
ENDBRANCH 1 42
TORSDOF 21
ENDMDL
MODEL 8
USER: ADFR SOLUTION from run 19
USER: SCORE 17.333216 LL:  -2.458 LR: -16.422 RR:   0.000 FEB: -10.157
USER: RMSD 3.975385
USER: SEED 18
USER: STATUS no improvement in best in 4 clusters for 5 generations
USER: GENES 23
USER: genes 0 Translation |==|  0.41079 0.51141 0.45800
USER: genes 1 Rotation |==|  0.55870 0.66809 0.72081 0.91176
USER: genes 2 Torsion [CB]-CA--N-[C] |==|  0.18333
USER: genes 3 Torsion [N]-C--CA-[N] |==|  0.19928
USER: genes 4 Torsion [C]-CA--CB-[CG] |==|  0.35346
USER: genes 5 Torsion [CA]-CB--CG-[CD] |==|  0.65284
USER: genes 6 Torsion [CB]-CG--CD-[OE1] |==|  0.72071
USER: genes 7 Torsion [C]-CA--N-[C] |==|  0.79685
USER: genes 8 Torsion [N]-C--CA-[N] |==|  0.04084
USER: genes 9 Torsion [C]-CA--CB-[CG] |==|  0.41759
USER: genes 10 Torsion [CA]-CB--CG-[SD] |==|  0.97136
USER: genes 11 Torsion [CB]-CG--SD-[CE] |==|  0.41621
USER: genes 12 Torsion [N]-CA--C-[N] |==|  0.16372
USER: genes 13 Torsion [C]-N--CA-[CB] |==|  0.50230
USER: genes 14 Torsion [N]-CA--CB-[CG1] |==|  0.78517
USER: genes 15 Torsion [N]-CA--C-[N] |==|  0.43598
USER: genes 16 Torsion [C]-N--CA-[CB] |==|  0.31788
USER: genes 17 Torsion [N]-CA--CB-[CG] |==|  0.85469
USER: genes 18 Torsion [CA]-CB--CG-[OD2] |==|  0.24031
USER: genes 19 Torsion [N]-CA--C-[O] |==|  0.09115
USER: genes 20 Torsion [N]-CA--CB-[CG] |==|  0.05327
USER: genes 21 Torsion [CA]-CB--CG-[CD] |==|  0.23924
USER: genes 22 Torsion [CB]-CG--CD-[OE2] |==|  0.57646
ROOT
ATOM      1  CA  GLU Q 707      -3.445  19.484  54.682  1.00 49.62 LIG 0.18  C 
ENDROOT
BRANCH 1 2
ATOM      2  N   GLU Q 707      -4.588  20.082  53.971  1.00 50.42 LIG-0.35  N 
ATOM      3 H    GLU Q 707      -4.821  20.855  54.267  1.00 50.42 LIG 0.16  HD
ATOM      4  C   GLU Q 706      -5.191  19.466  52.964  1.00 51.37 LIG 0.24  C 
ATOM      5 O    GLU Q 706      -4.848  18.346  52.596  1.00 51.66 LIG-0.27  OA
BRANCH 4 6
ATOM      6  CA  GLU Q 706      -6.345  20.237  52.256  1.00 52.25 LIG 0.18  C 
BRANCH 6 7
ATOM      7  CB  GLU Q 706      -7.149  19.263  51.376  1.00 52.83 LIG 0.04  C 
BRANCH 7 8
ATOM      8  CG  GLU Q 706      -8.671  19.278  51.638  1.00 56.79 LIG 0.12  C 
BRANCH 8 9
ATOM      9  CD  GLU Q 706      -9.273  17.889  51.975  1.00 61.53 LIG 0.17  C 
ATOM     10 OE1  GLU Q 706      -9.876  17.247  51.075  1.00 62.14 LIG-0.65  OA
ATOM     11 OE2  GLU Q 706      -9.142  17.451  53.154  1.00 62.79 LIG-0.65  OA
ENDBRANCH 8 9
ENDBRANCH 7 8
ENDBRANCH 6 7
BRANCH 6 12
ATOM     12  N   GLU Q 706      -5.854  21.365  51.435  1.00 51.83 LIG-0.35  N 
ATOM     13 H    GLU Q 706      -5.898  21.211  50.590  1.00 51.83 LIG 0.16  HD
ATOM     14  C   MET Q 705      -5.383  22.517  51.933  1.00 52.04 LIG 0.26  C 
ATOM     15 O    MET Q 705      -5.401  22.812  53.135  1.00 51.63 LIG-0.27  OA
BRANCH 14 16
ATOM     16  CA  MET Q 705      -4.787  23.498  50.921  1.00 52.15 LIG 0.40  C 
ATOM     17  N   MET Q 705      -5.157  23.137  49.514  1.00 52.08 LIG 0.61  N 
BRANCH 16 18
ATOM     18  CB  MET Q 705      -5.178  24.940  51.264  1.00 52.13 LIG 0.06  C 
BRANCH 18 19
ATOM     19  CG  MET Q 705      -4.156  25.996  50.840  1.00 53.37 LIG 0.08  C 
BRANCH 19 20
ATOM     20 SD   MET Q 705      -2.565  25.315  50.286  1.00 56.30 LIG-0.17  SA
ATOM     21  CE  MET Q 705      -2.029  26.538  49.095  1.00 57.25 LIG 0.09  C 
ENDBRANCH 19 20
ENDBRANCH 18 19
ENDBRANCH 16 18
ENDBRANCH 14 16
ENDBRANCH 6 12
ENDBRANCH 4 6
ENDBRANCH 1 2
BRANCH 1 22
ATOM     22  C   GLU Q 707      -3.062  20.339  55.898  1.00 47.30 LIG 0.24  C 
ATOM     23  N   VAL Q 708      -4.005  20.529  56.819  1.00 45.52 LIG-0.35  N 
ATOM     24 H    VAL Q 708      -4.831  20.316  56.710  1.00 45.52 LIG 0.16  HD
ATOM     25 O    GLU Q 707      -1.920  20.796  55.999  1.00 46.84 LIG-0.27  OA
BRANCH 23 26
ATOM     26  CA  VAL Q 708      -3.700  21.133  58.127  1.00 44.03 LIG 0.18  C 
BRANCH 26 27
ATOM     27  CB  VAL Q 708      -4.950  21.225  59.016  1.00 43.64 LIG 0.01  C 
ATOM     28  CG1 VAL Q 708      -5.821  22.395  58.566  1.00 41.62 LIG 0.01  C 
ATOM     29  CG2 VAL Q 708      -5.738  19.920  58.963  1.00 42.17 LIG 0.01  C 
ENDBRANCH 26 27
BRANCH 26 30
ATOM     30  C   VAL Q 708      -2.564  20.372  58.832  1.00 43.98 LIG 0.24  C 
ATOM     31 O    VAL Q 708      -2.302  19.222  58.506  1.00 43.91 LIG-0.27  OA
ATOM     32  N   ASP Q 709      -1.871  21.036  59.754  1.00 43.53 LIG-0.34  N 
ATOM     33 H    ASP Q 709      -2.031  21.855  59.961  1.00 43.53 LIG 0.16  HD
BRANCH 32 34
ATOM     34  CA  ASP Q 709      -0.761  20.442  60.516  1.00 43.18 LIG 0.20  C 
BRANCH 34 35
ATOM     35  CB  ASP Q 709       0.541  21.135  60.162  1.00 43.21 LIG 0.15  C 
BRANCH 35 36
ATOM     36  CG  ASP Q 709       0.793  21.182  58.684  1.00 45.24 LIG 0.17  C 
ATOM     37 OD2  ASP Q 709       0.291  22.148  58.054  1.00 45.66 LIG-0.65  OA
ATOM     38 OD1  ASP Q 709       1.513  20.271  58.178  1.00 45.75 LIG-0.65  OA
ENDBRANCH 35 36
ENDBRANCH 34 35
BRANCH 34 39
ATOM     39  C   ASP Q 709      -0.935  20.593  62.038  1.00 42.83 LIG 0.20  C 
ATOM     40 O    ASP Q 709      -2.048  20.582  62.557  1.00 42.06 LIG-0.65  OA
ATOM     41 OXT  ASP Q 709       0.046  20.796  62.774  1.00 42.11 LIG-0.65  OA
ENDBRANCH 34 39
ENDBRANCH 32 34
ENDBRANCH 26 30
ENDBRANCH 23 26
ENDBRANCH 1 22
BRANCH 1 42
ATOM     42  CB  GLU Q 707      -2.232  19.372  53.741  1.00 49.18 LIG 0.04  C 
BRANCH 42 43
ATOM     43  CG  GLU Q 707      -2.285  20.278  52.492  1.00 51.82 LIG 0.12  C 
BRANCH 43 44
ATOM     44  CD  GLU Q 707      -1.734  21.695  52.763  1.00 52.55 LIG 0.17  C 
ATOM     45 OE2  GLU Q 707      -2.163  22.651  52.077  1.00 56.45 LIG-0.65  OA
ATOM     46 OE1  GLU Q 707      -0.854  21.853  53.650  1.00 56.78 LIG-0.65  OA
ENDBRANCH 43 44
ENDBRANCH 42 43
ENDBRANCH 1 42
TORSDOF 21
ENDMDL
MODEL 9
USER: ADFR SOLUTION from run 27
USER: SCORE 16.887115 LL:  -2.025 LR: -16.263 RR:   0.000 FEB:  -9.999
USER: RMSD 4.962776
USER: SEED 26
USER: STATUS no improvement in best in 4 clusters for 5 generations
USER: GENES 23
USER: genes 0 Translation |==|  0.42614 0.54319 0.44649
USER: genes 1 Rotation |==|  0.46414 0.54840 0.55263 0.99356
USER: genes 2 Torsion [CB]-CA--N-[C] |==|  0.80786
USER: genes 3 Torsion [N]-C--CA-[N] |==|  0.11525
USER: genes 4 Torsion [C]-CA--CB-[CG] |==|  0.52264
USER: genes 5 Torsion [CA]-CB--CG-[CD] |==|  0.20569
USER: genes 6 Torsion [CB]-CG--CD-[OE1] |==|  0.63714
USER: genes 7 Torsion [C]-CA--N-[C] |==|  0.13449
USER: genes 8 Torsion [N]-C--CA-[N] |==|  0.93103
USER: genes 9 Torsion [C]-CA--CB-[CG] |==|  0.71379
USER: genes 10 Torsion [CA]-CB--CG-[SD] |==|  0.74868
USER: genes 11 Torsion [CB]-CG--SD-[CE] |==|  0.40925
USER: genes 12 Torsion [N]-CA--C-[N] |==|  0.30000
USER: genes 13 Torsion [C]-N--CA-[CB] |==|  0.57479
USER: genes 14 Torsion [N]-CA--CB-[CG1] |==|  0.74464
USER: genes 15 Torsion [N]-CA--C-[N] |==|  0.75064
USER: genes 16 Torsion [C]-N--CA-[CB] |==|  0.50221
USER: genes 17 Torsion [N]-CA--CB-[CG] |==|  0.72300
USER: genes 18 Torsion [CA]-CB--CG-[OD2] |==|  0.72827
USER: genes 19 Torsion [N]-CA--C-[O] |==|  0.31277
USER: genes 20 Torsion [N]-CA--CB-[CG] |==|  0.97211
USER: genes 21 Torsion [CA]-CB--CG-[CD] |==|  0.31458
USER: genes 22 Torsion [CB]-CG--CD-[OE2] |==|  0.14128
ROOT
ATOM      1  CA  GLU Q 707      -3.134  20.009  54.423  1.00 49.62 LIG 0.18  C 
ENDROOT
BRANCH 1 2
ATOM      2  N   GLU Q 707      -3.165  20.598  53.074  1.00 50.42 LIG-0.35  N 
ATOM      3 H    GLU Q 707      -3.874  20.414  52.625  1.00 50.42 LIG 0.16  HD
ATOM      4  C   GLU Q 706      -2.174  21.347  52.610  1.00 51.37 LIG 0.24  C 
ATOM      5 O    GLU Q 706      -1.161  21.558  53.271  1.00 51.66 LIG-0.27  OA
BRANCH 4 6
ATOM      6  CA  GLU Q 706      -2.361  21.965  51.192  1.00 52.25 LIG 0.18  C 
BRANCH 6 7
ATOM      7  CB  GLU Q 706      -1.338  23.097  50.985  1.00 52.83 LIG 0.04  C 
BRANCH 7 8
ATOM      8  CG  GLU Q 706      -1.552  23.918  49.695  1.00 56.79 LIG 0.12  C 
BRANCH 8 9
ATOM      9  CD  GLU Q 706      -2.757  24.893  49.754  1.00 61.53 LIG 0.17  C 
ATOM     10 OE1  GLU Q 706      -3.592  24.895  48.811  1.00 62.14 LIG-0.65  OA
ATOM     11 OE2  GLU Q 706      -2.854  25.664  50.752  1.00 62.79 LIG-0.65  OA
ENDBRANCH 8 9
ENDBRANCH 7 8
ENDBRANCH 6 7
BRANCH 6 12
ATOM     12  N   GLU Q 706      -3.730  22.481  50.974  1.00 51.83 LIG-0.35  N 
ATOM     13 H    GLU Q 706      -4.074  22.219  50.230  1.00 51.83 LIG 0.16  HD
ATOM     14  C   MET Q 705      -4.387  23.275  51.831  1.00 52.04 LIG 0.26  C 
ATOM     15 O    MET Q 705      -3.965  23.586  52.952  1.00 51.63 LIG-0.27  OA
BRANCH 14 16
ATOM     16  CA  MET Q 705      -5.735  23.819  51.352  1.00 52.15 LIG 0.40  C 
ATOM     17  N   MET Q 705      -5.813  23.869  49.855  1.00 52.08 LIG 0.61  N 
BRANCH 16 18
ATOM     18  CB  MET Q 705      -6.893  23.017  51.959  1.00 52.13 LIG 0.06  C 
BRANCH 18 19
ATOM     19  CG  MET Q 705      -7.546  22.018  51.003  1.00 53.37 LIG 0.08  C 
BRANCH 19 20
ATOM     20 SD   MET Q 705      -8.941  22.694  50.053  1.00 56.30 LIG-0.17  SA
ATOM     21  CE  MET Q 705      -8.813  21.796  48.511  1.00 57.25 LIG 0.09  C 
ENDBRANCH 19 20
ENDBRANCH 18 19
ENDBRANCH 16 18
ENDBRANCH 14 16
ENDBRANCH 6 12
ENDBRANCH 4 6
ENDBRANCH 1 2
BRANCH 1 22
ATOM     22  C   GLU Q 707      -2.824  21.085  55.473  1.00 47.30 LIG 0.24  C 
ATOM     23  N   VAL Q 708      -3.828  21.458  56.263  1.00 45.52 LIG-0.35  N 
ATOM     24 H    VAL Q 708      -4.649  21.232  56.136  1.00 45.52 LIG 0.16  HD
ATOM     25 O    GLU Q 707      -1.684  21.547  55.568  1.00 46.84 LIG-0.27  OA
BRANCH 23 26
ATOM     26  CA  VAL Q 708      -3.609  22.308  57.446  1.00 44.03 LIG 0.18  C 
BRANCH 26 27
ATOM     27  CB  VAL Q 708      -4.681  22.074  58.522  1.00 43.64 LIG 0.01  C 
ATOM     28  CG1 VAL Q 708      -5.833  23.055  58.326  1.00 41.62 LIG 0.01  C 
ATOM     29  CG2 VAL Q 708      -5.188  20.636  58.465  1.00 42.17 LIG 0.01  C 
ENDBRANCH 26 27
BRANCH 26 30
ATOM     30  C   VAL Q 708      -2.193  22.106  58.011  1.00 43.98 LIG 0.24  C 
ATOM     31 O    VAL Q 708      -1.278  22.832  57.649  1.00 43.91 LIG-0.27  OA
ATOM     32  N   ASP Q 709      -2.037  21.154  58.930  1.00 43.53 LIG-0.34  N 
ATOM     33 H    ASP Q 709      -2.685  20.664  59.212  1.00 43.53 LIG 0.16  HD
BRANCH 32 34
ATOM     34  CA  ASP Q 709      -0.745  20.839  59.558  1.00 43.18 LIG 0.20  C 
BRANCH 34 35
ATOM     35  CB  ASP Q 709      -0.909  19.696  60.541  1.00 43.21 LIG 0.15  C 
BRANCH 35 36
ATOM     36  CG  ASP Q 709      -1.011  20.162  61.964  1.00 45.24 LIG 0.17  C 
ATOM     37 OD2  ASP Q 709       0.043  20.121  62.650  1.00 45.66 LIG-0.65  OA
ATOM     38 OD1  ASP Q 709      -2.132  20.589  62.367  1.00 45.75 LIG-0.65  OA
ENDBRANCH 35 36
ENDBRANCH 34 35
BRANCH 34 39
ATOM     39  C   ASP Q 709       0.320  20.388  58.541  1.00 42.83 LIG 0.20  C 
ATOM     40 O    ASP Q 709       1.307  21.078  58.304  1.00 42.06 LIG-0.65  OA
ATOM     41 OXT  ASP Q 709       0.171  19.343  57.886  1.00 42.11 LIG-0.65  OA
ENDBRANCH 34 39
ENDBRANCH 32 34
ENDBRANCH 26 30
ENDBRANCH 23 26
ENDBRANCH 1 22
BRANCH 1 42
ATOM     42  CB  GLU Q 707      -2.062  18.907  54.498  1.00 49.18 LIG 0.04  C 
BRANCH 42 43
ATOM     43  CG  GLU Q 707      -1.448  18.496  53.143  1.00 51.82 LIG 0.12  C 
BRANCH 43 44
ATOM     44  CD  GLU Q 707       0.045  18.875  53.027  1.00 52.55 LIG 0.17  C 
ATOM     45 OE2  GLU Q 707       0.826  18.540  53.946  1.00 56.45 LIG-0.65  OA
ATOM     46 OE1  GLU Q 707       0.436  19.529  52.024  1.00 56.78 LIG-0.65  OA
ENDBRANCH 43 44
ENDBRANCH 42 43
ENDBRANCH 1 42
TORSDOF 21
ENDMDL
MODEL 10
USER: ADFR SOLUTION from run 124
USER: SCORE 17.696857 LL:  -3.453 LR: -16.246 RR:   0.000 FEB:  -9.982
USER: RMSD 3.118092
USER: SEED 123
USER: STATUS no improvement in best in 2 clusters for 5 generations
USER: GENES 23
USER: genes 0 Translation |==|  0.44076 0.60292 0.45910
USER: genes 1 Rotation |==|  0.52410 0.37573 0.30393 0.94219
USER: genes 2 Torsion [CB]-CA--N-[C] |==|  0.19134
USER: genes 3 Torsion [N]-C--CA-[N] |==|  0.30564
USER: genes 4 Torsion [C]-CA--CB-[CG] |==|  0.21414
USER: genes 5 Torsion [CA]-CB--CG-[CD] |==|  0.73886
USER: genes 6 Torsion [CB]-CG--CD-[OE1] |==|  0.11329
USER: genes 7 Torsion [C]-CA--N-[C] |==|  0.72084
USER: genes 8 Torsion [N]-C--CA-[N] |==|  0.79283
USER: genes 9 Torsion [C]-CA--CB-[CG] |==|  0.15376
USER: genes 10 Torsion [CA]-CB--CG-[SD] |==|  0.71898
USER: genes 11 Torsion [CB]-CG--SD-[CE] |==|  0.33702
USER: genes 12 Torsion [N]-CA--C-[N] |==|  0.50831
USER: genes 13 Torsion [C]-N--CA-[CB] |==|  0.48348
USER: genes 14 Torsion [N]-CA--CB-[CG1] |==|  0.82262
USER: genes 15 Torsion [N]-CA--C-[N] |==|  0.36221
USER: genes 16 Torsion [C]-N--CA-[CB] |==|  0.33027
USER: genes 17 Torsion [N]-CA--CB-[CG] |==|  0.87004
USER: genes 18 Torsion [CA]-CB--CG-[OD2] |==|  0.76082
USER: genes 19 Torsion [N]-CA--C-[O] |==|  0.58545
USER: genes 20 Torsion [N]-CA--CB-[CG] |==|  0.16605
USER: genes 21 Torsion [CA]-CB--CG-[CD] |==|  0.76847
USER: genes 22 Torsion [CB]-CG--CD-[OE2] |==|  0.35374
ROOT
ATOM      1  CA  GLU Q 707      -2.838  20.994  54.707  1.00 49.62 LIG 0.18  C 
ENDROOT
BRANCH 1 2
ATOM      2  N   GLU Q 707      -1.553  21.110  53.997  1.00 50.42 LIG-0.35  N 
ATOM      3 H    GLU Q 707      -0.888  21.314  54.502  1.00 50.42 LIG 0.16  HD
ATOM      4  C   GLU Q 706      -1.450  20.912  52.690  1.00 51.37 LIG 0.24  C 
ATOM      5 O    GLU Q 706      -2.431  20.656  51.998  1.00 51.66 LIG-0.27  OA
BRANCH 4 6
ATOM      6  CA  GLU Q 706      -0.022  20.999  52.073  1.00 52.25 LIG 0.18  C 
BRANCH 6 7
ATOM      7  CB  GLU Q 706      -0.033  21.981  50.888  1.00 52.83 LIG 0.04  C 
BRANCH 7 8
ATOM      8  CG  GLU Q 706      -0.039  23.470  51.297  1.00 56.79 LIG 0.12  C 
BRANCH 8 9
ATOM      9  CD  GLU Q 706      -1.453  24.102  51.377  1.00 61.53 LIG 0.17  C 
ATOM     10 OE1  GLU Q 706      -2.397  23.434  51.877  1.00 62.14 LIG-0.65  OA
ATOM     11 OE2  GLU Q 706      -1.612  25.272  50.925  1.00 62.79 LIG-0.65  OA
ENDBRANCH 8 9
ENDBRANCH 7 8
ENDBRANCH 6 7
BRANCH 6 12
ATOM     12  N   GLU Q 706       0.486  19.683  51.629  1.00 51.83 LIG-0.35  N 
ATOM     13 H    GLU Q 706       0.168  19.439  50.868  1.00 51.83 LIG 0.16  HD
ATOM     14  C   MET Q 705       1.352  18.930  52.322  1.00 52.04 LIG 0.26  C 
ATOM     15 O    MET Q 705       1.907  19.294  53.366  1.00 51.63 LIG-0.27  OA
BRANCH 14 16
ATOM     16  CA  MET Q 705       1.638  17.536  51.759  1.00 52.15 LIG 0.40  C 
ATOM     17  N   MET Q 705       0.495  16.596  51.998  1.00 52.08 LIG 0.61  N 
BRANCH 16 18
ATOM     18  CB  MET Q 705       2.015  17.614  50.275  1.00 52.13 LIG 0.06  C 
BRANCH 18 19
ATOM     19  CG  MET Q 705       3.190  18.543  49.964  1.00 53.37 LIG 0.08  C 
BRANCH 19 20
ATOM     20 SD   MET Q 705       2.705  20.165  49.303  1.00 56.30 LIG-0.17  SA
ATOM     21  CE  MET Q 705       3.417  21.285  50.502  1.00 57.25 LIG 0.09  C 
ENDBRANCH 19 20
ENDBRANCH 18 19
ENDBRANCH 16 18
ENDBRANCH 14 16
ENDBRANCH 6 12
ENDBRANCH 4 6
ENDBRANCH 1 2
BRANCH 1 22
ATOM     22  C   GLU Q 707      -2.703  21.506  56.148  1.00 47.30 LIG 0.24  C 
ATOM     23  N   VAL Q 708      -3.779  21.402  56.925  1.00 45.52 LIG-0.35  N 
ATOM     24 H    VAL Q 708      -4.561  21.192  56.635  1.00 45.52 LIG 0.16  HD
ATOM     25 O    GLU Q 707      -1.628  21.965  56.544  1.00 46.84 LIG-0.27  OA
BRANCH 23 26
ATOM     26  CA  VAL Q 708      -3.713  21.644  58.376  1.00 44.03 LIG 0.18  C 
BRANCH 26 27
ATOM     27  CB  VAL Q 708      -5.106  21.605  59.023  1.00 43.64 LIG 0.01  C 
ATOM     28  CG1 VAL Q 708      -5.965  22.740  58.471  1.00 41.62 LIG 0.01  C 
ATOM     29  CG2 VAL Q 708      -5.775  20.258  58.769  1.00 42.17 LIG 0.01  C 
ENDBRANCH 26 27
BRANCH 26 30
ATOM     30  C   VAL Q 708      -2.752  20.653  59.055  1.00 43.98 LIG 0.24  C 
ATOM     31 O    VAL Q 708      -2.819  19.459  58.797  1.00 43.91 LIG-0.27  OA
ATOM     32  N   ASP Q 709      -1.836  21.163  59.876  1.00 43.53 LIG-0.34  N 
ATOM     33 H    ASP Q 709      -1.765  22.006  60.033  1.00 43.53 LIG 0.16  HD
BRANCH 32 34
ATOM     34  CA  ASP Q 709      -0.853  20.344  60.601  1.00 43.18 LIG 0.20  C 
BRANCH 34 35
ATOM     35  CB  ASP Q 709       0.554  20.733  60.187  1.00 43.21 LIG 0.15  C 
BRANCH 35 36
ATOM     36  CG  ASP Q 709       0.713  20.847  58.699  1.00 45.24 LIG 0.17  C 
ATOM     37 OD2  ASP Q 709       0.984  19.788  58.076  1.00 45.66 LIG-0.65  OA
ATOM     38 OD1  ASP Q 709       0.536  21.983  58.171  1.00 45.75 LIG-0.65  OA
ENDBRANCH 35 36
ENDBRANCH 34 35
BRANCH 34 39
ATOM     39  C   ASP Q 709      -0.926  20.534  62.127  1.00 42.83 LIG 0.20  C 
ATOM     40 O    ASP Q 709       0.073  20.421  62.832  1.00 42.06 LIG-0.65  OA
ATOM     41 OXT  ASP Q 709      -2.013  20.744  62.690  1.00 42.11 LIG-0.65  OA
ENDBRANCH 34 39
ENDBRANCH 32 34
ENDBRANCH 26 30
ENDBRANCH 23 26
ENDBRANCH 1 22
BRANCH 1 42
ATOM     42  CB  GLU Q 707      -3.302  19.527  54.732  1.00 49.18 LIG 0.04  C 
BRANCH 42 43
ATOM     43  CG  GLU Q 707      -2.335  18.545  55.426  1.00 51.82 LIG 0.12  C 
BRANCH 43 44
ATOM     44  CD  GLU Q 707      -1.205  18.062  54.490  1.00 52.55 LIG 0.17  C 
ATOM     45 OE2  GLU Q 707      -0.017  18.171  54.871  1.00 56.45 LIG-0.65  OA
ATOM     46 OE1  GLU Q 707      -1.503  17.591  53.360  1.00 56.78 LIG-0.65  OA
ENDBRANCH 43 44
ENDBRANCH 42 43
ENDBRANCH 1 42
TORSDOF 21
ENDMDL
MODEL 11
USER: ADFR SOLUTION from run 171
USER: SCORE 17.508955 LL:  -2.366 LR: -16.229 RR:   0.000 FEB:  -9.964
USER: RMSD 4.148404
USER: SEED 170
USER: STATUS no improvement in best in 4 clusters for 5 generations
USER: GENES 23
USER: genes 0 Translation |==|  0.41621 0.54966 0.44722
USER: genes 1 Rotation |==|  0.50542 0.51706 0.50476 0.99966
USER: genes 2 Torsion [CB]-CA--N-[C] |==|  0.83467
USER: genes 3 Torsion [N]-C--CA-[N] |==|  0.04336
USER: genes 4 Torsion [C]-CA--CB-[CG] |==|  0.49398
USER: genes 5 Torsion [CA]-CB--CG-[CD] |==|  0.22286
USER: genes 6 Torsion [CB]-CG--CD-[OE1] |==|  0.49196
USER: genes 7 Torsion [C]-CA--N-[C] |==|  0.70328
USER: genes 8 Torsion [N]-C--CA-[N] |==|  0.41931
USER: genes 9 Torsion [C]-CA--CB-[CG] |==|  0.28973
USER: genes 10 Torsion [CA]-CB--CG-[SD] |==|  0.87817
USER: genes 11 Torsion [CB]-CG--SD-[CE] |==|  0.27233
USER: genes 12 Torsion [N]-CA--C-[N] |==|  0.37944
USER: genes 13 Torsion [C]-N--CA-[CB] |==|  0.45061
USER: genes 14 Torsion [N]-CA--CB-[CG1] |==|  0.81273
USER: genes 15 Torsion [N]-CA--C-[N] |==|  0.44413
USER: genes 16 Torsion [C]-N--CA-[CB] |==|  0.29178
USER: genes 17 Torsion [N]-CA--CB-[CG] |==|  0.86023
USER: genes 18 Torsion [CA]-CB--CG-[OD2] |==|  0.25190
USER: genes 19 Torsion [N]-CA--C-[O] |==|  0.60347
USER: genes 20 Torsion [N]-CA--CB-[CG] |==|  0.92776
USER: genes 21 Torsion [CA]-CB--CG-[CD] |==|  0.33514
USER: genes 22 Torsion [CB]-CG--CD-[OE2] |==|  0.49226
ROOT
ATOM      1  CA  GLU Q 707      -3.335  20.115  54.440  1.00 49.62 LIG 0.18  C 
ENDROOT
BRANCH 1 2
ATOM      2  N   GLU Q 707      -3.070  20.889  53.215  1.00 50.42 LIG-0.35  N 
ATOM      3 H    GLU Q 707      -3.766  21.033  52.731  1.00 50.42 LIG 0.16  HD
ATOM      4  C   GLU Q 706      -1.855  21.318  52.901  1.00 51.37 LIG 0.24  C 
ATOM      5 O    GLU Q 706      -0.880  21.060  53.602  1.00 51.66 LIG-0.27  OA
BRANCH 4 6
ATOM      6  CA  GLU Q 706      -1.722  22.182  51.612  1.00 52.25 LIG 0.18  C 
BRANCH 6 7
ATOM      7  CB  GLU Q 706      -0.764  23.357  51.877  1.00 52.83 LIG 0.04  C 
BRANCH 7 8
ATOM      8  CG  GLU Q 706      -0.511  24.259  50.649  1.00 56.79 LIG 0.12  C 
BRANCH 8 9
ATOM      9  CD  GLU Q 706      -1.635  25.293  50.377  1.00 61.53 LIG 0.17  C 
ATOM     10 OE1  GLU Q 706      -1.499  26.113  49.431  1.00 62.14 LIG-0.65  OA
ATOM     11 OE2  GLU Q 706      -2.653  25.281  51.127  1.00 62.79 LIG-0.65  OA
ENDBRANCH 8 9
ENDBRANCH 7 8
ENDBRANCH 6 7
BRANCH 6 12
ATOM     12  N   GLU Q 706      -3.025  22.694  51.136  1.00 51.83 LIG-0.35  N 
ATOM     13 H    GLU Q 706      -3.338  23.327  51.627  1.00 51.83 LIG 0.16  HD
ATOM     14  C   MET Q 705      -3.672  22.237  50.054  1.00 52.04 LIG 0.26  C 
ATOM     15 O    MET Q 705      -3.205  21.402  49.269  1.00 51.63 LIG-0.27  OA
BRANCH 14 16
ATOM     16  CA  MET Q 705      -5.075  22.798  49.816  1.00 52.15 LIG 0.40  C 
ATOM     17  N   MET Q 705      -5.424  22.819  48.358  1.00 52.08 LIG 0.61  N 
BRANCH 16 18
ATOM     18  CB  MET Q 705      -6.116  22.035  50.643  1.00 52.13 LIG 0.06  C 
BRANCH 18 19
ATOM     19  CG  MET Q 705      -6.623  22.783  51.877  1.00 53.37 LIG 0.08  C 
BRANCH 19 20
ATOM     20 SD   MET Q 705      -5.319  23.606  52.841  1.00 56.30 LIG-0.17  SA
ATOM     21  CE  MET Q 705      -5.420  25.289  52.244  1.00 57.25 LIG 0.09  C 
ENDBRANCH 19 20
ENDBRANCH 18 19
ENDBRANCH 16 18
ENDBRANCH 14 16
ENDBRANCH 6 12
ENDBRANCH 4 6
ENDBRANCH 1 2
BRANCH 1 22
ATOM     22  C   GLU Q 707      -2.977  20.941  55.684  1.00 47.30 LIG 0.24  C 
ATOM     23  N   VAL Q 708      -3.838  20.902  56.697  1.00 45.52 LIG-0.35  N 
ATOM     24 H    VAL Q 708      -4.625  20.556  56.646  1.00 45.52 LIG 0.16  HD
ATOM     25 O    GLU Q 707      -1.922  21.581  55.720  1.00 46.84 LIG-0.27  OA
BRANCH 23 26
ATOM     26  CA  VAL Q 708      -3.506  21.461  58.019  1.00 44.03 LIG 0.18  C 
BRANCH 26 27
ATOM     27  CB  VAL Q 708      -4.763  21.697  58.870  1.00 43.64 LIG 0.01  C 
ATOM     28  CG1 VAL Q 708      -5.604  22.812  58.253  1.00 41.62 LIG 0.01  C 
ATOM     29  CG2 VAL Q 708      -5.579  20.413  58.983  1.00 42.17 LIG 0.01  C 
ENDBRANCH 26 27
BRANCH 26 30
ATOM     30  C   VAL Q 708      -2.491  20.568  58.753  1.00 43.98 LIG 0.24  C 
ATOM     31 O    VAL Q 708      -2.318  19.411  58.392  1.00 43.91 LIG-0.27  OA
ATOM     32  N   ASP Q 709      -1.796  21.126  59.742  1.00 43.53 LIG-0.34  N 
ATOM     33 H    ASP Q 709      -1.891  21.949  59.975  1.00 43.53 LIG 0.16  HD
BRANCH 32 34
ATOM     34  CA  ASP Q 709      -0.795  20.400  60.539  1.00 43.18 LIG 0.20  C 
BRANCH 34 35
ATOM     35  CB  ASP Q 709       0.602  20.816  60.122  1.00 43.21 LIG 0.15  C 
BRANCH 35 36
ATOM     36  CG  ASP Q 709       0.812  20.752  58.638  1.00 45.24 LIG 0.17  C 
ATOM     37 OD2  ASP Q 709       0.557  21.796  57.983  1.00 45.66 LIG-0.65  OA
ATOM     38 OD1  ASP Q 709       1.255  19.671  58.150  1.00 45.75 LIG-0.65  OA
ENDBRANCH 35 36
ENDBRANCH 34 35
BRANCH 34 39
ATOM     39  C   ASP Q 709      -0.906  20.693  62.046  1.00 42.83 LIG 0.20  C 
ATOM     40 O    ASP Q 709       0.095  20.786  62.752  1.00 42.06 LIG-0.65  OA
ATOM     41 OXT  ASP Q 709      -2.015  20.778  62.598  1.00 42.11 LIG-0.65  OA
ENDBRANCH 34 39
ENDBRANCH 32 34
ENDBRANCH 26 30
ENDBRANCH 23 26
ENDBRANCH 1 22
BRANCH 1 42
ATOM     42  CB  GLU Q 707      -2.508  18.817  54.439  1.00 49.18 LIG 0.04  C 
BRANCH 42 43
ATOM     43  CG  GLU Q 707      -2.125  18.284  53.042  1.00 51.82 LIG 0.12  C 
BRANCH 43 44
ATOM     44  CD  GLU Q 707      -0.597  18.178  52.845  1.00 52.55 LIG 0.17  C 
ATOM     45 OE2  GLU Q 707      -0.157  17.709  51.771  1.00 56.45 LIG-0.65  OA
ATOM     46 OE1  GLU Q 707       0.169  18.546  53.775  1.00 56.78 LIG-0.65  OA
ENDBRANCH 43 44
ENDBRANCH 42 43
ENDBRANCH 1 42
TORSDOF 21
ENDMDL
MODEL 12
USER: ADFR SOLUTION from run 192
USER: SCORE 18.529613 LL:  -3.503 LR: -16.159 RR:   0.000 FEB:  -9.895
USER: RMSD 3.368842
USER: SEED 191
USER: STATUS no improvement in best in 4 clusters for 5 generations
USER: GENES 23
USER: genes 0 Translation |==|  0.39258 0.53726 0.46300
USER: genes 1 Rotation |==|  0.52631 0.55178 0.51170 0.99648
USER: genes 2 Torsion [CB]-CA--N-[C] |==|  0.53363
USER: genes 3 Torsion [N]-C--CA-[N] |==|  0.96442
USER: genes 4 Torsion [C]-CA--CB-[CG] |==|  0.38890
USER: genes 5 Torsion [CA]-CB--CG-[CD] |==|  0.95591
USER: genes 6 Torsion [CB]-CG--CD-[OE1] |==|  0.68849
USER: genes 7 Torsion [C]-CA--N-[C] |==|  0.76210
USER: genes 8 Torsion [N]-C--CA-[N] |==|  0.66591
USER: genes 9 Torsion [C]-CA--CB-[CG] |==|  0.78040
USER: genes 10 Torsion [CA]-CB--CG-[SD] |==|  0.37427
USER: genes 11 Torsion [CB]-CG--SD-[CE] |==|  0.61318
USER: genes 12 Torsion [N]-CA--C-[N] |==|  0.31145
USER: genes 13 Torsion [C]-N--CA-[CB] |==|  0.50600
USER: genes 14 Torsion [N]-CA--CB-[CG1] |==|  0.78935
USER: genes 15 Torsion [N]-CA--C-[N] |==|  0.43333
USER: genes 16 Torsion [C]-N--CA-[CB] |==|  0.30413
USER: genes 17 Torsion [N]-CA--CB-[CG] |==|  0.86010
USER: genes 18 Torsion [CA]-CB--CG-[OD2] |==|  0.24167
USER: genes 19 Torsion [N]-CA--C-[O] |==|  0.08063
USER: genes 20 Torsion [N]-CA--CB-[CG] |==|  0.01559
USER: genes 21 Torsion [CA]-CB--CG-[CD] |==|  0.22371
USER: genes 22 Torsion [CB]-CG--CD-[OE2] |==|  0.79152
ROOT
ATOM      1  CA  GLU Q 707      -3.813  19.911  54.795  1.00 49.62 LIG 0.18  C 
ENDROOT
BRANCH 1 2
ATOM      2  N   GLU Q 707      -3.739  20.789  53.615  1.00 50.42 LIG-0.35  N 
ATOM      3 H    GLU Q 707      -3.389  20.420  52.922  1.00 50.42 LIG 0.16  HD
ATOM      4  C   GLU Q 706      -4.179  22.040  53.639  1.00 51.37 LIG 0.24  C 
ATOM      5 O    GLU Q 706      -4.640  22.541  54.661  1.00 51.66 LIG-0.27  OA
BRANCH 4 6
ATOM      6  CA  GLU Q 706      -4.102  22.840  52.305  1.00 52.25 LIG 0.18  C 
BRANCH 6 7
ATOM      7  CB  GLU Q 706      -5.523  23.059  51.754  1.00 52.83 LIG 0.04  C 
BRANCH 7 8
ATOM      8  CG  GLU Q 706      -5.760  24.458  51.146  1.00 56.79 LIG 0.12  C 
BRANCH 8 9
ATOM      9  CD  GLU Q 706      -4.688  25.510  51.533  1.00 61.53 LIG 0.17  C 
ATOM     10 OE1  GLU Q 706      -5.013  26.474  52.277  1.00 62.14 LIG-0.65  OA
ATOM     11 OE2  GLU Q 706      -3.517  25.367  51.077  1.00 62.79 LIG-0.65  OA
ENDBRANCH 8 9
ENDBRANCH 7 8
ENDBRANCH 6 7
BRANCH 6 12
ATOM     12  N   GLU Q 706      -3.268  22.167  51.286  1.00 51.83 LIG-0.35  N 
ATOM     13 H    GLU Q 706      -3.724  21.675  50.748  1.00 51.83 LIG 0.16  HD
ATOM     14  C   MET Q 705      -1.937  22.295  51.189  1.00 52.04 LIG 0.26  C 
ATOM     15 O    MET Q 705      -1.263  23.072  51.877  1.00 51.63 LIG-0.27  OA
BRANCH 14 16
ATOM     16  CA  MET Q 705      -1.244  21.400  50.160  1.00 52.15 LIG 0.40  C 
ATOM     17  N   MET Q 705      -0.229  20.500  50.800  1.00 52.08 LIG 0.61  N 
BRANCH 16 18
ATOM     18  CB  MET Q 705      -2.273  20.612  49.341  1.00 52.13 LIG 0.06  C 
BRANCH 18 19
ATOM     19  CG  MET Q 705      -2.847  19.385  50.051  1.00 53.37 LIG 0.08  C 
BRANCH 19 20
ATOM     20 SD   MET Q 705      -4.651  19.216  49.913  1.00 56.30 LIG-0.17  SA
ATOM     21  CE  MET Q 705      -5.104  18.684  51.560  1.00 57.25 LIG 0.09  C 
ENDBRANCH 19 20
ENDBRANCH 18 19
ENDBRANCH 16 18
ENDBRANCH 14 16
ENDBRANCH 6 12
ENDBRANCH 4 6
ENDBRANCH 1 2
BRANCH 1 22
ATOM     22  C   GLU Q 707      -3.301  20.643  56.043  1.00 47.30 LIG 0.24  C 
ATOM     23  N   VAL Q 708      -4.200  20.927  56.982  1.00 45.52 LIG-0.35  N 
ATOM     24 H    VAL Q 708      -5.050  20.843  56.875  1.00 45.52 LIG 0.16  HD
ATOM     25 O    GLU Q 707      -2.104  20.922  56.149  1.00 46.84 LIG-0.27  OA
BRANCH 23 26
ATOM     26  CA  VAL Q 708      -3.802  21.419  58.312  1.00 44.03 LIG 0.18  C 
BRANCH 26 27
ATOM     27  CB  VAL Q 708      -5.016  21.622  59.232  1.00 43.64 LIG 0.01  C 
ATOM     28  CG1 VAL Q 708      -5.759  22.895  58.834  1.00 41.62 LIG 0.01  C 
ATOM     29  CG2 VAL Q 708      -5.946  20.415  59.159  1.00 42.17 LIG 0.01  C 
ENDBRANCH 26 27
BRANCH 26 30
ATOM     30  C   VAL Q 708      -2.761  20.485  58.954  1.00 43.98 LIG 0.24  C 
ATOM     31 O    VAL Q 708      -2.665  19.325  58.578  1.00 43.91 LIG-0.27  OA
ATOM     32  N   ASP Q 709      -1.963  21.012  59.880  1.00 43.53 LIG-0.34  N 
ATOM     33 H    ASP Q 709      -2.006  21.837  60.122  1.00 43.53 LIG 0.16  HD
BRANCH 32 34
ATOM     34  CA  ASP Q 709      -0.925  20.246  60.585  1.00 43.18 LIG 0.20  C 
BRANCH 34 35
ATOM     35  CB  ASP Q 709       0.451  20.690  60.127  1.00 43.21 LIG 0.15  C 
BRANCH 35 36
ATOM     36  CG  ASP Q 709       0.590  20.709  58.633  1.00 45.24 LIG 0.17  C 
ATOM     37 OD2  ASP Q 709       0.237  21.764  58.045  1.00 45.66 LIG-0.65  OA
ATOM     38 OD1  ASP Q 709       1.077  19.685  58.072  1.00 45.75 LIG-0.65  OA
ENDBRANCH 35 36
ENDBRANCH 34 35
BRANCH 34 39
ATOM     39  C   ASP Q 709      -0.963  20.452  62.111  1.00 42.83 LIG 0.20  C 
ATOM     40 O    ASP Q 709      -2.013  20.716  62.691  1.00 42.06 LIG-0.65  OA
ATOM     41 OXT  ASP Q 709       0.080  20.422  62.783  1.00 42.11 LIG-0.65  OA
ENDBRANCH 34 39
ENDBRANCH 32 34
ENDBRANCH 26 30
ENDBRANCH 23 26
ENDBRANCH 1 22
BRANCH 1 42
ATOM     42  CB  GLU Q 707      -2.968  18.644  54.569  1.00 49.18 LIG 0.04  C 
BRANCH 42 43
ATOM     43  CG  GLU Q 707      -2.143  18.629  53.265  1.00 51.82 LIG 0.12  C 
BRANCH 43 44
ATOM     44  CD  GLU Q 707      -0.831  19.434  53.383  1.00 52.55 LIG 0.17  C 
ATOM     45 OE2  GLU Q 707      -0.886  20.685  53.367  1.00 56.45 LIG-0.65  OA
ATOM     46 OE1  GLU Q 707       0.263  18.816  53.471  1.00 56.78 LIG-0.65  OA
ENDBRANCH 43 44
ENDBRANCH 42 43
ENDBRANCH 1 42
TORSDOF 21
ENDMDL
MODEL 13
USER: ADFR SOLUTION from run 192
USER: SCORE 17.774549 LL:  -4.031 LR: -16.097 RR:   0.000 FEB:  -9.833
USER: RMSD 3.333966
USER: SEED 191
USER: STATUS no improvement in best in 4 clusters for 5 generations
USER: GENES 23
USER: genes 0 Translation |==|  0.40343 0.59545 0.44883
USER: genes 1 Rotation |==|  0.57030 0.56029 0.56498 0.98703
USER: genes 2 Torsion [CB]-CA--N-[C] |==|  0.27222
USER: genes 3 Torsion [N]-C--CA-[N] |==|  0.14744
USER: genes 4 Torsion [C]-CA--CB-[CG] |==|  0.76463
USER: genes 5 Torsion [CA]-CB--CG-[CD] |==|  0.78964
USER: genes 6 Torsion [CB]-CG--CD-[OE1] |==|  0.77905
USER: genes 7 Torsion [C]-CA--N-[C] |==|  0.63918
USER: genes 8 Torsion [N]-C--CA-[N] |==|  0.96757
USER: genes 9 Torsion [C]-CA--CB-[CG] |==|  0.22691
USER: genes 10 Torsion [CA]-CB--CG-[SD] |==|  0.74299
USER: genes 11 Torsion [CB]-CG--SD-[CE] |==|  0.90444
USER: genes 12 Torsion [N]-CA--C-[N] |==|  0.28887
USER: genes 13 Torsion [C]-N--CA-[CB] |==|  0.48937
USER: genes 14 Torsion [N]-CA--CB-[CG1] |==|  0.82413
USER: genes 15 Torsion [N]-CA--C-[N] |==|  0.43941
USER: genes 16 Torsion [C]-N--CA-[CB] |==|  0.29095
USER: genes 17 Torsion [N]-CA--CB-[CG] |==|  0.84639
USER: genes 18 Torsion [CA]-CB--CG-[OD2] |==|  0.24798
USER: genes 19 Torsion [N]-CA--C-[O] |==|  0.05095
USER: genes 20 Torsion [N]-CA--CB-[CG] |==|  0.98896
USER: genes 21 Torsion [CA]-CB--CG-[CD] |==|  0.22579
USER: genes 22 Torsion [CB]-CG--CD-[OE2] |==|  0.77216
ROOT
ATOM      1  CA  GLU Q 707      -3.594  20.871  54.476  1.00 49.62 LIG 0.18  C 
ENDROOT
BRANCH 1 2
ATOM      2  N   GLU Q 707      -3.747  21.958  53.493  1.00 50.42 LIG-0.35  N 
ATOM      3 H    GLU Q 707      -3.156  22.578  53.559  1.00 50.42 LIG 0.16  HD
ATOM      4  C   GLU Q 706      -4.721  21.961  52.593  1.00 51.37 LIG 0.24  C 
ATOM      5 O    GLU Q 706      -5.567  21.073  52.556  1.00 51.66 LIG-0.27  OA
BRANCH 4 6
ATOM      6  CA  GLU Q 706      -4.731  23.136  51.570  1.00 52.25 LIG 0.18  C 
BRANCH 6 7
ATOM      7  CB  GLU Q 706      -5.856  22.914  50.543  1.00 52.83 LIG 0.04  C 
BRANCH 7 8
ATOM      8  CG  GLU Q 706      -5.464  22.005  49.358  1.00 56.79 LIG 0.12  C 
BRANCH 8 9
ATOM      9  CD  GLU Q 706      -4.559  22.691  48.302  1.00 61.53 LIG 0.17  C 
ATOM     10 OE1  GLU Q 706      -5.082  23.457  47.450  1.00 62.14 LIG-0.65  OA
ATOM     11 OE2  GLU Q 706      -3.318  22.447  48.328  1.00 62.79 LIG-0.65  OA
ENDBRANCH 8 9
ENDBRANCH 7 8
ENDBRANCH 6 7
BRANCH 6 12
ATOM     12  N   GLU Q 706      -3.437  23.290  50.871  1.00 51.83 LIG-0.35  N 
ATOM     13 H    GLU Q 706      -3.144  22.553  50.538  1.00 51.83 LIG 0.16  HD
ATOM     14  C   MET Q 705      -2.771  24.448  50.753  1.00 52.04 LIG 0.26  C 
ATOM     15 O    MET Q 705      -3.211  25.542  51.127  1.00 51.63 LIG-0.27  OA
BRANCH 14 16
ATOM     16  CA  MET Q 705      -1.380  24.367  50.120  1.00 52.15 LIG 0.40  C 
ATOM     17  N   MET Q 705      -0.906  22.950  50.001  1.00 52.08 LIG 0.61  N 
BRANCH 16 18
ATOM     18  CB  MET Q 705      -1.351  25.096  48.772  1.00 52.13 LIG 0.06  C 
BRANCH 18 19
ATOM     19  CG  MET Q 705      -1.176  26.612  48.871  1.00 53.37 LIG 0.08  C 
BRANCH 19 20
ATOM     20 SD   MET Q 705      -2.735  27.544  48.912  1.00 56.30 LIG-0.17  SA
ATOM     21  CE  MET Q 705      -3.785  26.563  47.846  1.00 57.25 LIG 0.09  C 
ENDBRANCH 19 20
ENDBRANCH 18 19
ENDBRANCH 16 18
ENDBRANCH 14 16
ENDBRANCH 6 12
ENDBRANCH 4 6
ENDBRANCH 1 2
BRANCH 1 22
ATOM     22  C   GLU Q 707      -3.170  21.435  55.839  1.00 47.30 LIG 0.24  C 
ATOM     23  N   VAL Q 708      -4.110  21.503  56.779  1.00 45.52 LIG-0.35  N 
ATOM     24 H    VAL Q 708      -4.947  21.375  56.629  1.00 45.52 LIG 0.16  HD
ATOM     25 O    GLU Q 707      -2.000  21.780  56.030  1.00 46.84 LIG-0.27  OA
BRANCH 23 26
ATOM     26  CA  VAL Q 708      -3.782  21.809  58.182  1.00 44.03 LIG 0.18  C 
BRANCH 26 27
ATOM     27  CB  VAL Q 708      -5.045  21.922  59.050  1.00 43.64 LIG 0.01  C 
ATOM     28  CG1 VAL Q 708      -5.902  23.090  58.567  1.00 41.62 LIG 0.01  C 
ATOM     29  CG2 VAL Q 708      -5.841  20.621  59.004  1.00 42.17 LIG 0.01  C 
ENDBRANCH 26 27
BRANCH 26 30
ATOM     30  C   VAL Q 708      -2.799  20.774  58.754  1.00 43.98 LIG 0.24  C 
ATOM     31 O    VAL Q 708      -2.671  19.684  58.213  1.00 43.91 LIG-0.27  OA
ATOM     32  N   ASP Q 709      -2.079  21.142  59.812  1.00 43.53 LIG-0.34  N 
ATOM     33 H    ASP Q 709      -2.143  21.920  60.174  1.00 43.53 LIG 0.16  HD
BRANCH 32 34
ATOM     34  CA  ASP Q 709      -1.104  20.262  60.473  1.00 43.18 LIG 0.20  C 
BRANCH 34 35
ATOM     35  CB  ASP Q 709       0.307  20.684  60.109  1.00 43.21 LIG 0.15  C 
BRANCH 35 36
ATOM     36  CG  ASP Q 709       0.537  20.728  58.626  1.00 45.24 LIG 0.17  C 
ATOM     37 OD2  ASP Q 709       0.284  21.815  58.046  1.00 45.66 LIG-0.65  OA
ATOM     38 OD1  ASP Q 709       0.995  19.688  58.069  1.00 45.75 LIG-0.65  OA
ENDBRANCH 35 36
ENDBRANCH 34 35
BRANCH 34 39
ATOM     39  C   ASP Q 709      -1.192  20.321  62.009  1.00 42.83 LIG 0.20  C 
ATOM     40 O    ASP Q 709      -2.190  20.761  62.574  1.00 42.06 LIG-0.65  OA
ATOM     41 OXT  ASP Q 709      -0.227  19.983  62.716  1.00 42.11 LIG-0.65  OA
ENDBRANCH 34 39
ENDBRANCH 32 34
ENDBRANCH 26 30
ENDBRANCH 23 26
ENDBRANCH 1 22
BRANCH 1 42
ATOM     42  CB  GLU Q 707      -2.534  19.863  53.994  1.00 49.18 LIG 0.04  C 
BRANCH 42 43
ATOM     43  CG  GLU Q 707      -1.953  20.143  52.592  1.00 51.82 LIG 0.12  C 
BRANCH 43 44
ATOM     44  CD  GLU Q 707      -0.841  21.215  52.612  1.00 52.55 LIG 0.17  C 
ATOM     45 OE2  GLU Q 707      -1.167  22.423  52.616  1.00 56.45 LIG-0.65  OA
ATOM     46 OE1  GLU Q 707       0.364  20.849  52.603  1.00 56.78 LIG-0.65  OA
ENDBRANCH 43 44
ENDBRANCH 42 43
ENDBRANCH 1 42
TORSDOF 21
ENDMDL
MODEL 14
USER: ADFR SOLUTION from run 137
USER: SCORE 17.102949 LL:  -3.252 LR: -16.090 RR:   0.000 FEB:  -9.826
USER: RMSD 4.960671
USER: SEED 136
USER: STATUS no improvement in best in 3 clusters for 5 generations
USER: GENES 23
USER: genes 0 Translation |==|  0.41620 0.54071 0.44848
USER: genes 1 Rotation |==|  0.55938 0.67261 0.75015 0.89256
USER: genes 2 Torsion [CB]-CA--N-[C] |==|  0.21666
USER: genes 3 Torsion [N]-C--CA-[N] |==|  0.20389
USER: genes 4 Torsion [C]-CA--CB-[CG] |==|  0.32627
USER: genes 5 Torsion [CA]-CB--CG-[CD] |==|  0.54710
USER: genes 6 Torsion [CB]-CG--CD-[OE1] |==|  0.84176
USER: genes 7 Torsion [C]-CA--N-[C] |==|  0.76649
USER: genes 8 Torsion [N]-C--CA-[N] |==|  0.88705
USER: genes 9 Torsion [C]-CA--CB-[CG] |==|  0.06642
USER: genes 10 Torsion [CA]-CB--CG-[SD] |==|  0.63591
USER: genes 11 Torsion [CB]-CG--SD-[CE] |==|  0.27475
USER: genes 12 Torsion [N]-CA--C-[N] |==|  0.18433
USER: genes 13 Torsion [C]-N--CA-[CB] |==|  0.44335
USER: genes 14 Torsion [N]-CA--CB-[CG1] |==|  0.80039
USER: genes 15 Torsion [N]-CA--C-[N] |==|  0.41630
USER: genes 16 Torsion [C]-N--CA-[CB] |==|  0.33845
USER: genes 17 Torsion [N]-CA--CB-[CG] |==|  0.86627
USER: genes 18 Torsion [CA]-CB--CG-[OD2] |==|  0.29545
USER: genes 19 Torsion [N]-CA--C-[O] |==|  0.06550
USER: genes 20 Torsion [N]-CA--CB-[CG] |==|  0.01730
USER: genes 21 Torsion [CA]-CB--CG-[CD] |==|  0.26177
USER: genes 22 Torsion [CB]-CG--CD-[OE2] |==|  0.17799
ROOT
ATOM      1  CA  GLU Q 707      -3.335  19.968  54.468  1.00 49.62 LIG 0.18  C 
ENDROOT
BRANCH 1 2
ATOM      2  N   GLU Q 707      -4.568  20.438  53.814  1.00 50.42 LIG-0.35  N 
ATOM      3 H    GLU Q 707      -4.802  21.235  54.034  1.00 50.42 LIG 0.16  HD
ATOM      4  C   GLU Q 706      -5.245  19.682  52.960  1.00 51.37 LIG 0.24  C 
ATOM      5 O    GLU Q 706      -4.895  18.534  52.699  1.00 51.66 LIG-0.27  OA
BRANCH 4 6
ATOM      6  CA  GLU Q 706      -6.495  20.323  52.288  1.00 52.25 LIG 0.18  C 
BRANCH 6 7
ATOM      7  CB  GLU Q 706      -7.366  19.218  51.662  1.00 52.83 LIG 0.04  C 
BRANCH 7 8
ATOM      8  CG  GLU Q 706      -8.779  19.102  52.271  1.00 56.79 LIG 0.12  C 
BRANCH 8 9
ATOM      9  CD  GLU Q 706      -9.500  17.766  51.955  1.00 61.53 LIG 0.17  C 
ATOM     10 OE1  GLU Q 706      -9.668  17.427  50.754  1.00 62.14 LIG-0.65  OA
ATOM     11 OE2  GLU Q 706      -9.906  17.061  52.924  1.00 62.79 LIG-0.65  OA
ENDBRANCH 8 9
ENDBRANCH 7 8
ENDBRANCH 6 7
BRANCH 6 12
ATOM     12  N   GLU Q 706      -6.136  21.322  51.258  1.00 51.83 LIG-0.35  N 
ATOM     13 H    GLU Q 706      -6.129  20.998  50.462  1.00 51.83 LIG 0.16  HD
ATOM     14  C   MET Q 705      -5.847  22.606  51.515  1.00 52.04 LIG 0.26  C 
ATOM     15 O    MET Q 705      -5.947  23.130  52.631  1.00 51.63 LIG-0.27  OA
BRANCH 14 16
ATOM     16  CA  MET Q 705      -5.357  23.439  50.329  1.00 52.15 LIG 0.40  C 
ATOM     17  N   MET Q 705      -4.409  22.666  49.461  1.00 52.08 LIG 0.61  N 
BRANCH 16 18
ATOM     18  CB  MET Q 705      -6.539  23.999  49.529  1.00 52.13 LIG 0.06  C 
BRANCH 18 19
ATOM     19  CG  MET Q 705      -7.840  24.128  50.323  1.00 53.37 LIG 0.08  C 
BRANCH 19 20
ATOM     20 SD   MET Q 705      -9.296  23.427  49.491  1.00 56.30 LIG-0.17  SA
ATOM     21  CE  MET Q 705      -9.444  21.829  50.281  1.00 57.25 LIG 0.09  C 
ENDBRANCH 19 20
ENDBRANCH 18 19
ENDBRANCH 16 18
ENDBRANCH 14 16
ENDBRANCH 6 12
ENDBRANCH 4 6
ENDBRANCH 1 2
BRANCH 1 22
ATOM     22  C   GLU Q 707      -3.030  20.815  55.711  1.00 47.30 LIG 0.24  C 
ATOM     23  N   VAL Q 708      -3.887  20.722  56.725  1.00 45.52 LIG-0.35  N 
ATOM     24 H    VAL Q 708      -4.649  20.327  56.674  1.00 45.52 LIG 0.16  HD
ATOM     25 O    GLU Q 707      -2.019  21.522  55.745  1.00 46.84 LIG-0.27  OA
BRANCH 23 26
ATOM     26  CA  VAL Q 708      -3.590  21.303  58.046  1.00 44.03 LIG 0.18  C 
BRANCH 26 27
ATOM     27  CB  VAL Q 708      -4.867  21.518  58.873  1.00 43.64 LIG 0.01  C 
ATOM     28  CG1 VAL Q 708      -5.669  22.680  58.293  1.00 41.62 LIG 0.01  C 
ATOM     29  CG2 VAL Q 708      -5.709  20.246  58.894  1.00 42.17 LIG 0.01  C 
ENDBRANCH 26 27
BRANCH 26 30
ATOM     30  C   VAL Q 708      -2.567  20.442  58.807  1.00 43.98 LIG 0.24  C 
ATOM     31 O    VAL Q 708      -2.491  19.241  58.585  1.00 43.91 LIG-0.27  OA
ATOM     32  N   ASP Q 709      -1.759  21.070  59.658  1.00 43.53 LIG-0.34  N 
ATOM     33 H    ASP Q 709      -1.788  21.920  59.791  1.00 43.53 LIG 0.16  HD
BRANCH 32 34
ATOM     34  CA  ASP Q 709      -0.736  20.383  60.460  1.00 43.18 LIG 0.20  C 
BRANCH 34 35
ATOM     35  CB  ASP Q 709       0.634  20.963  60.162  1.00 43.21 LIG 0.15  C 
BRANCH 35 36
ATOM     36  CG  ASP Q 709       0.908  21.083  58.691  1.00 45.24 LIG 0.17  C 
ATOM     37 OD2  ASP Q 709       0.878  22.242  58.202  1.00 45.66 LIG-0.65  OA
ATOM     38 OD1  ASP Q 709       1.179  20.024  58.053  1.00 45.75 LIG-0.65  OA
ENDBRANCH 35 36
ENDBRANCH 34 35
BRANCH 34 39
ATOM     39  C   ASP Q 709      -0.956  20.546  61.975  1.00 42.83 LIG 0.20  C 
ATOM     40 O    ASP Q 709      -2.068  20.796  62.434  1.00 42.06 LIG-0.65  OA
ATOM     41 OXT  ASP Q 709      -0.000  20.493  62.767  1.00 42.11 LIG-0.65  OA
ENDBRANCH 34 39
ENDBRANCH 32 34
ENDBRANCH 26 30
ENDBRANCH 23 26
ENDBRANCH 1 22
BRANCH 1 42
ATOM     42  CB  GLU Q 707      -2.148  20.055  53.492  1.00 49.18 LIG 0.04  C 
BRANCH 42 43
ATOM     43  CG  GLU Q 707      -2.457  20.735  52.142  1.00 51.82 LIG 0.12  C 
BRANCH 43 44
ATOM     44  CD  GLU Q 707      -2.116  22.242  52.143  1.00 52.55 LIG 0.17  C 
ATOM     45 OE2  GLU Q 707      -0.923  22.591  52.285  1.00 56.45 LIG-0.65  OA
ATOM     46 OE1  GLU Q 707      -3.047  23.082  52.022  1.00 56.78 LIG-0.65  OA
ENDBRANCH 43 44
ENDBRANCH 42 43
ENDBRANCH 1 42
TORSDOF 21
ENDMDL
MODEL 15
USER: ADFR SOLUTION from run 109
USER: SCORE 16.880135 LL:  -2.655 LR: -15.835 RR:   0.000 FEB:  -9.570
USER: RMSD 3.719215
USER: SEED 108
USER: STATUS no improvement in best in 5 clusters for 5 generations
USER: GENES 23
USER: genes 0 Translation |==|  0.42430 0.53652 0.44244
USER: genes 1 Rotation |==|  0.43501 0.47935 0.46958 0.99439
USER: genes 2 Torsion [CB]-CA--N-[C] |==|  0.52458
USER: genes 3 Torsion [N]-C--CA-[N] |==|  0.00805
USER: genes 4 Torsion [C]-CA--CB-[CG] |==|  0.29064
USER: genes 5 Torsion [CA]-CB--CG-[CD] |==|  0.89748
USER: genes 6 Torsion [CB]-CG--CD-[OE1] |==|  0.71671
USER: genes 7 Torsion [C]-CA--N-[C] |==|  0.69761
USER: genes 8 Torsion [N]-C--CA-[N] |==|  0.68830
USER: genes 9 Torsion [C]-CA--CB-[CG] |==|  0.77737
USER: genes 10 Torsion [CA]-CB--CG-[SD] |==|  0.64973
USER: genes 11 Torsion [CB]-CG--SD-[CE] |==|  0.21077
USER: genes 12 Torsion [N]-CA--C-[N] |==|  0.38889
USER: genes 13 Torsion [C]-N--CA-[CB] |==|  0.55828
USER: genes 14 Torsion [N]-CA--CB-[CG1] |==|  0.74743
USER: genes 15 Torsion [N]-CA--C-[N] |==|  0.73447
USER: genes 16 Torsion [C]-N--CA-[CB] |==|  0.51676
USER: genes 17 Torsion [N]-CA--CB-[CG] |==|  0.72757
USER: genes 18 Torsion [CA]-CB--CG-[OD2] |==|  0.25518
USER: genes 19 Torsion [N]-CA--C-[O] |==|  0.31964
USER: genes 20 Torsion [N]-CA--CB-[CG] |==|  0.99026
USER: genes 21 Torsion [CA]-CB--CG-[CD] |==|  0.21568
USER: genes 22 Torsion [CB]-CG--CD-[OE2] |==|  0.77453
ROOT
ATOM      1  CA  GLU Q 707      -3.171  19.899  54.332  1.00 49.62 LIG 0.18  C 
ENDROOT
BRANCH 1 2
ATOM      2  N   GLU Q 707      -2.634  20.250  53.006  1.00 50.42 LIG-0.35  N 
ATOM      3 H    GLU Q 707      -2.163  19.630  52.641  1.00 50.42 LIG 0.16  HD
ATOM      4  C   GLU Q 706      -2.869  21.425  52.440  1.00 51.37 LIG 0.24  C 
ATOM      5 O    GLU Q 706      -3.519  22.297  53.011  1.00 51.66 LIG-0.27  OA
BRANCH 4 6
ATOM      6  CA  GLU Q 706      -2.299  21.645  51.007  1.00 52.25 LIG 0.18  C 
BRANCH 6 7
ATOM      7  CB  GLU Q 706      -3.436  22.069  50.060  1.00 52.83 LIG 0.04  C 
BRANCH 7 8
ATOM      8  CG  GLU Q 706      -3.434  23.569  49.696  1.00 56.79 LIG 0.12  C 
BRANCH 8 9
ATOM      9  CD  GLU Q 706      -3.011  24.505  50.859  1.00 61.53 LIG 0.17  C 
ATOM     10 OE1  GLU Q 706      -3.898  25.134  51.494  1.00 62.14 LIG-0.65  OA
ATOM     11 OE2  GLU Q 706      -1.779  24.611  51.124  1.00 62.79 LIG-0.65  OA
ENDBRANCH 8 9
ENDBRANCH 7 8
ENDBRANCH 6 7
BRANCH 6 12
ATOM     12  N   GLU Q 706      -1.625  20.441  50.474  1.00 51.83 LIG-0.35  N 
ATOM     13 H    GLU Q 706      -2.173  19.809  50.275  1.00 51.83 LIG 0.16  HD
ATOM     14  C   MET Q 705      -0.300  20.323  50.308  1.00 52.04 LIG 0.26  C 
ATOM     15 O    MET Q 705       0.506  21.245  50.485  1.00 51.63 LIG-0.27  OA
BRANCH 14 16
ATOM     16  CA  MET Q 705       0.209  18.945  49.882  1.00 52.15 LIG 0.40  C 
ATOM     17  N   MET Q 705       1.013  18.291  50.966  1.00 52.08 LIG 0.61  N 
BRANCH 16 18
ATOM     18  CB  MET Q 705      -0.949  18.056  49.413  1.00 52.13 LIG 0.06  C 
BRANCH 18 19
ATOM     19  CG  MET Q 705      -1.751  17.407  50.541  1.00 53.37 LIG 0.08  C 
BRANCH 19 20
ATOM     20 SD   MET Q 705      -1.899  15.600  50.410  1.00 56.30 LIG-0.17  SA
ATOM     21  CE  MET Q 705      -0.277  15.054  50.929  1.00 57.25 LIG 0.09  C 
ENDBRANCH 19 20
ENDBRANCH 18 19
ENDBRANCH 16 18
ENDBRANCH 14 16
ENDBRANCH 6 12
ENDBRANCH 4 6
ENDBRANCH 1 2
BRANCH 1 22
ATOM     22  C   GLU Q 707      -2.856  21.005  55.348  1.00 47.30 LIG 0.24  C 
ATOM     23  N   VAL Q 708      -3.815  21.308  56.221  1.00 45.52 LIG-0.35  N 
ATOM     24 H    VAL Q 708      -4.623  21.019  56.165  1.00 45.52 LIG 0.16  HD
ATOM     25 O    GLU Q 707      -1.751  21.553  55.345  1.00 46.84 LIG-0.27  OA
BRANCH 23 26
ATOM     26  CA  VAL Q 708      -3.561  22.182  57.379  1.00 44.03 LIG 0.18  C 
BRANCH 26 27
ATOM     27  CB  VAL Q 708      -4.607  21.980  58.486  1.00 43.64 LIG 0.01  C 
ATOM     28  CG1 VAL Q 708      -5.770  22.946  58.282  1.00 41.62 LIG 0.01  C 
ATOM     29  CG2 VAL Q 708      -5.105  20.538  58.490  1.00 42.17 LIG 0.01  C 
ENDBRANCH 26 27
BRANCH 26 30
ATOM     30  C   VAL Q 708      -2.132  21.984  57.913  1.00 43.98 LIG 0.24  C 
ATOM     31 O    VAL Q 708      -1.204  22.622  57.435  1.00 43.91 LIG-0.27  OA
ATOM     32  N   ASP Q 709      -1.977  21.138  58.930  1.00 43.53 LIG-0.34  N 
ATOM     33 H    ASP Q 709      -2.633  20.714  59.290  1.00 43.53 LIG 0.16  HD
BRANCH 32 34
ATOM     34  CA  ASP Q 709      -0.675  20.841  59.545  1.00 43.18 LIG 0.20  C 
BRANCH 34 35
ATOM     35  CB  ASP Q 709      -0.824  19.734  60.571  1.00 43.21 LIG 0.15  C 
BRANCH 35 36
ATOM     36  CG  ASP Q 709      -0.937  20.253  61.975  1.00 45.24 LIG 0.17  C 
ATOM     37 OD2  ASP Q 709      -2.098  20.466  62.409  1.00 45.66 LIG-0.65  OA
ATOM     38 OD1  ASP Q 709       0.133  20.412  62.633  1.00 45.75 LIG-0.65  OA
ENDBRANCH 35 36
ENDBRANCH 34 35
BRANCH 34 39
ATOM     39  C   ASP Q 709       0.368  20.349  58.524  1.00 42.83 LIG 0.20  C 
ATOM     40 O    ASP Q 709       1.377  21.006  58.277  1.00 42.06 LIG-0.65  OA
ATOM     41 OXT  ASP Q 709       0.182  19.306  57.877  1.00 42.11 LIG-0.65  OA
ENDBRANCH 34 39
ENDBRANCH 32 34
ENDBRANCH 26 30
ENDBRANCH 23 26
ENDBRANCH 1 22
BRANCH 1 42
ATOM     42  CB  GLU Q 707      -2.558  18.574  54.821  1.00 49.18 LIG 0.04  C 
BRANCH 42 43
ATOM     43  CG  GLU Q 707      -1.615  17.878  53.817  1.00 51.82 LIG 0.12  C 
BRANCH 43 44
ATOM     44  CD  GLU Q 707      -0.217  18.532  53.764  1.00 52.55 LIG 0.17  C 
ATOM     45 OE2  GLU Q 707      -0.059  19.566  53.076  1.00 56.45 LIG-0.65  OA
ATOM     46 OE1  GLU Q 707       0.735  18.000  54.395  1.00 56.78 LIG-0.65  OA
ENDBRANCH 43 44
ENDBRANCH 42 43
ENDBRANCH 1 42
TORSDOF 21
ENDMDL
MODEL 16
USER: ADFR SOLUTION from run 132
USER: SCORE 17.055475 LL:  -3.718 LR: -15.797 RR:   0.000 FEB:  -9.533
USER: RMSD 1.945067
USER: SEED 131
USER: STATUS no improvement in best in 3 clusters for 5 generations
USER: GENES 23
USER: genes 0 Translation |==|  0.40866 0.57906 0.44873
USER: genes 1 Rotation |==|  0.52839 0.49877 0.45349 0.99702
USER: genes 2 Torsion [CB]-CA--N-[C] |==|  0.39659
USER: genes 3 Torsion [N]-C--CA-[N] |==|  0.99901
USER: genes 4 Torsion [C]-CA--CB-[CG] |==|  0.81743
USER: genes 5 Torsion [CA]-CB--CG-[CD] |==|  0.80041
USER: genes 6 Torsion [CB]-CG--CD-[OE1] |==|  0.81497
USER: genes 7 Torsion [C]-CA--N-[C] |==|  0.70628
USER: genes 8 Torsion [N]-C--CA-[N] |==|  0.03782
USER: genes 9 Torsion [C]-CA--CB-[CG] |==|  0.47457
USER: genes 10 Torsion [CA]-CB--CG-[SD] |==|  0.68886
USER: genes 11 Torsion [CB]-CG--SD-[CE] |==|  0.78260
USER: genes 12 Torsion [N]-CA--C-[N] |==|  0.37722
USER: genes 13 Torsion [C]-N--CA-[CB] |==|  0.48897
USER: genes 14 Torsion [N]-CA--CB-[CG1] |==|  0.81364
USER: genes 15 Torsion [N]-CA--C-[N] |==|  0.44193
USER: genes 16 Torsion [C]-N--CA-[CB] |==|  0.29285
USER: genes 17 Torsion [N]-CA--CB-[CG] |==|  0.84062
USER: genes 18 Torsion [CA]-CB--CG-[OD2] |==|  0.25666
USER: genes 19 Torsion [N]-CA--C-[O] |==|  0.05253
USER: genes 20 Torsion [N]-CA--CB-[CG] |==|  0.99158
USER: genes 21 Torsion [CA]-CB--CG-[CD] |==|  0.22480
USER: genes 22 Torsion [CB]-CG--CD-[OE2] |==|  0.75590
ROOT
ATOM      1  CA  GLU Q 707      -3.488  20.600  54.473  1.00 49.62 LIG 0.18  C 
ENDROOT
BRANCH 1 2
ATOM      2  N   GLU Q 707      -2.975  21.394  53.343  1.00 50.42 LIG-0.35  N 
ATOM      3 H    GLU Q 707      -2.163  21.214  53.126  1.00 50.42 LIG 0.16  HD
ATOM      4  C   GLU Q 706      -3.718  22.303  52.727  1.00 51.37 LIG 0.24  C 
ATOM      5 O    GLU Q 706      -4.863  22.555  53.092  1.00 51.66 LIG-0.27  OA
BRANCH 4 6
ATOM      6  CA  GLU Q 706      -3.078  23.025  51.504  1.00 52.25 LIG 0.18  C 
BRANCH 6 7
ATOM      7  CB  GLU Q 706      -3.957  22.806  50.259  1.00 52.83 LIG 0.04  C 
BRANCH 7 8
ATOM      8  CG  GLU Q 706      -4.027  21.339  49.781  1.00 56.79 LIG 0.12  C 
BRANCH 8 9
ATOM      9  CD  GLU Q 706      -2.721  20.822  49.123  1.00 61.53 LIG 0.17  C 
ATOM     10 OE1  GLU Q 706      -2.349  21.316  48.026  1.00 62.14 LIG-0.65  OA
ATOM     11 OE2  GLU Q 706      -2.075  19.908  49.712  1.00 62.79 LIG-0.65  OA
ENDBRANCH 8 9
ENDBRANCH 7 8
ENDBRANCH 6 7
BRANCH 6 12
ATOM     12  N   GLU Q 706      -1.699  22.565  51.231  1.00 51.83 LIG-0.35  N 
ATOM     13 H    GLU Q 706      -1.669  21.784  50.873  1.00 51.83 LIG 0.16  HD
ATOM     14  C   MET Q 705      -0.595  23.275  51.504  1.00 52.04 LIG 0.26  C 
ATOM     15 O    MET Q 705      -0.604  24.439  51.921  1.00 51.63 LIG-0.27  OA
BRANCH 14 16
ATOM     16  CA  MET Q 705       0.740  22.561  51.281  1.00 52.15 LIG 0.40  C 
ATOM     17  N   MET Q 705       0.570  21.300  50.487  1.00 52.08 LIG 0.61  N 
BRANCH 16 18
ATOM     18  CB  MET Q 705       1.765  23.506  50.643  1.00 52.13 LIG 0.06  C 
BRANCH 18 19
ATOM     19  CG  MET Q 705       3.190  22.954  50.583  1.00 53.37 LIG 0.08  C 
BRANCH 19 20
ATOM     20 SD   MET Q 705       4.373  23.819  51.659  1.00 56.30 LIG-0.17  SA
ATOM     21  CE  MET Q 705       4.722  25.298  50.715  1.00 57.25 LIG 0.09  C 
ENDBRANCH 19 20
ENDBRANCH 18 19
ENDBRANCH 16 18
ENDBRANCH 14 16
ENDBRANCH 6 12
ENDBRANCH 4 6
ENDBRANCH 1 2
BRANCH 1 22
ATOM     22  C   GLU Q 707      -3.067  21.233  55.808  1.00 47.30 LIG 0.24  C 
ATOM     23  N   VAL Q 708      -3.999  21.312  56.754  1.00 45.52 LIG-0.35  N 
ATOM     24 H    VAL Q 708      -4.834  21.154  56.619  1.00 45.52 LIG 0.16  HD
ATOM     25 O    GLU Q 707      -1.906  21.618  55.971  1.00 46.84 LIG-0.27  OA
BRANCH 23 26
ATOM     26  CA  VAL Q 708      -3.667  21.685  58.139  1.00 44.03 LIG 0.18  C 
BRANCH 26 27
ATOM     27  CB  VAL Q 708      -4.925  21.802  59.015  1.00 43.64 LIG 0.01  C 
ATOM     28  CG1 VAL Q 708      -5.771  22.985  58.551  1.00 41.62 LIG 0.01  C 
ATOM     29  CG2 VAL Q 708      -5.735  20.511  58.957  1.00 42.17 LIG 0.01  C 
ENDBRANCH 26 27
BRANCH 26 30
ATOM     30  C   VAL Q 708      -2.652  20.701  58.745  1.00 43.98 LIG 0.24  C 
ATOM     31 O    VAL Q 708      -2.488  19.600  58.238  1.00 43.91 LIG-0.27  OA
ATOM     32  N   ASP Q 709      -1.945  21.125  59.791  1.00 43.53 LIG-0.34  N 
ATOM     33 H    ASP Q 709      -2.034  21.912  60.128  1.00 43.53 LIG 0.16  HD
BRANCH 32 34
ATOM     34  CA  ASP Q 709      -0.942  20.299  60.479  1.00 43.18 LIG 0.20  C 
BRANCH 34 35
ATOM     35  CB  ASP Q 709       0.454  20.765  60.115  1.00 43.21 LIG 0.15  C 
BRANCH 35 36
ATOM     36  CG  ASP Q 709       0.711  20.736  58.636  1.00 45.24 LIG 0.17  C 
ATOM     37 OD2  ASP Q 709       0.477  21.796  57.999  1.00 45.66 LIG-0.65  OA
ATOM     38 OD1  ASP Q 709       1.170  19.667  58.138  1.00 45.75 LIG-0.65  OA
ENDBRANCH 35 36
ENDBRANCH 34 35
BRANCH 34 39
ATOM     39  C   ASP Q 709      -1.045  20.390  62.013  1.00 42.83 LIG 0.20  C 
ATOM     40 O    ASP Q 709      -2.067  20.796  62.560  1.00 42.06 LIG-0.65  OA
ATOM     41 OXT  ASP Q 709      -0.071  20.117  62.733  1.00 42.11 LIG-0.65  OA
ENDBRANCH 34 39
ENDBRANCH 32 34
ENDBRANCH 26 30
ENDBRANCH 23 26
ENDBRANCH 1 22
BRANCH 1 42
ATOM     42  CB  GLU Q 707      -2.946  19.161  54.402  1.00 49.18 LIG 0.04  C 
BRANCH 42 43
ATOM     43  CG  GLU Q 707      -2.076  18.848  53.167  1.00 51.82 LIG 0.12  C 
BRANCH 43 44
ATOM     44  CD  GLU Q 707      -0.619  19.335  53.327  1.00 52.55 LIG 0.17  C 
ATOM     45 OE2  GLU Q 707      -0.333  20.506  52.988  1.00 56.45 LIG-0.65  OA
ATOM     46 OE1  GLU Q 707       0.249  18.540  53.775  1.00 56.78 LIG-0.65  OA
ENDBRANCH 43 44
ENDBRANCH 42 43
ENDBRANCH 1 42
TORSDOF 21
ENDMDL
MODEL 17
USER: ADFR SOLUTION from run 21
USER: SCORE 17.673285 LL:  -3.475 LR: -15.793 RR:   0.000 FEB:  -9.529
USER: RMSD 3.549390
USER: SEED 20
USER: STATUS no improvement in best in 3 clusters for 5 generations
USER: GENES 23
USER: genes 0 Translation |==|  0.42368 0.58269 0.44536
USER: genes 1 Rotation |==|  0.56607 0.57731 0.60715 0.97768
USER: genes 2 Torsion [CB]-CA--N-[C] |==|  0.52222
USER: genes 3 Torsion [N]-C--CA-[N] |==|  0.00007
USER: genes 4 Torsion [C]-CA--CB-[CG] |==|  0.70956
USER: genes 5 Torsion [CA]-CB--CG-[CD] |==|  0.76672
USER: genes 6 Torsion [CB]-CG--CD-[OE1] |==|  0.78026
USER: genes 7 Torsion [C]-CA--N-[C] |==|  0.65932
USER: genes 8 Torsion [N]-C--CA-[N] |==|  0.29034
USER: genes 9 Torsion [C]-CA--CB-[CG] |==|  0.85089
USER: genes 10 Torsion [CA]-CB--CG-[SD] |==|  0.39243
USER: genes 11 Torsion [CB]-CG--SD-[CE] |==|  0.00129
USER: genes 12 Torsion [N]-CA--C-[N] |==|  0.26568
USER: genes 13 Torsion [C]-N--CA-[CB] |==|  0.50599
USER: genes 14 Torsion [N]-CA--CB-[CG1] |==|  0.82312
USER: genes 15 Torsion [N]-CA--C-[N] |==|  0.39752
USER: genes 16 Torsion [C]-N--CA-[CB] |==|  0.86597
USER: genes 17 Torsion [N]-CA--CB-[CG] |==|  0.75791
USER: genes 18 Torsion [CA]-CB--CG-[OD2] |==|  0.56265
USER: genes 19 Torsion [N]-CA--C-[O] |==|  0.96247
USER: genes 20 Torsion [N]-CA--CB-[CG] |==|  0.98888
USER: genes 21 Torsion [CA]-CB--CG-[CD] |==|  0.20824
USER: genes 22 Torsion [CB]-CG--CD-[OE2] |==|  0.25297
ROOT
ATOM      1  CA  GLU Q 707      -3.184  20.660  54.398  1.00 49.62 LIG 0.18  C 
ENDROOT
BRANCH 1 2
ATOM      2  N   GLU Q 707      -3.574  21.698  53.428  1.00 50.42 LIG-0.35  N 
ATOM      3 H    GLU Q 707      -3.166  21.646  52.673  1.00 50.42 LIG 0.16  HD
ATOM      4  C   GLU Q 706      -4.479  22.624  53.714  1.00 51.37 LIG 0.24  C 
ATOM      5 O    GLU Q 706      -5.013  22.684  54.818  1.00 51.66 LIG-0.27  OA
BRANCH 4 6
ATOM      6  CA  GLU Q 706      -4.849  23.623  52.577  1.00 52.25 LIG 0.18  C 
BRANCH 6 7
ATOM      7  CB  GLU Q 706      -6.363  23.555  52.306  1.00 52.83 LIG 0.04  C 
BRANCH 7 8
ATOM      8  CG  GLU Q 706      -6.744  22.797  51.017  1.00 56.79 LIG 0.12  C 
BRANCH 8 9
ATOM      9  CD  GLU Q 706      -6.681  23.659  49.729  1.00 61.53 LIG 0.17  C 
ATOM     10 OE1  GLU Q 706      -7.629  24.448  49.471  1.00 62.14 LIG-0.65  OA
ATOM     11 OE2  GLU Q 706      -5.676  23.532  48.973  1.00 62.79 LIG-0.65  OA
ENDBRANCH 8 9
ENDBRANCH 7 8
ENDBRANCH 6 7
BRANCH 6 12
ATOM     12  N   GLU Q 706      -4.104  23.361  51.327  1.00 51.83 LIG-0.35  N 
ATOM     13 H    GLU Q 706      -4.219  22.563  51.026  1.00 51.83 LIG 0.16  HD
ATOM     14  C   MET Q 705      -3.324  24.257  50.706  1.00 52.04 LIG 0.26  C 
ATOM     15 O    MET Q 705      -3.217  25.441  51.051  1.00 51.63 LIG-0.27  OA
BRANCH 14 16
ATOM     16  CA  MET Q 705      -2.524  23.744  49.507  1.00 52.15 LIG 0.40  C 
ATOM     17  N   MET Q 705      -3.119  24.198  48.208  1.00 52.08 LIG 0.61  N 
BRANCH 16 18
ATOM     18  CB  MET Q 705      -1.047  24.135  49.629  1.00 52.13 LIG 0.06  C 
BRANCH 18 19
ATOM     19  CG  MET Q 705      -0.799  25.628  49.847  1.00 53.37 LIG 0.08  C 
BRANCH 19 20
ATOM     20 SD   MET Q 705       0.549  26.001  51.007  1.00 56.30 LIG-0.17  SA
ATOM     21  CE  MET Q 705       1.111  24.366  51.465  1.00 57.25 LIG 0.09  C 
ENDBRANCH 19 20
ENDBRANCH 18 19
ENDBRANCH 16 18
ENDBRANCH 14 16
ENDBRANCH 6 12
ENDBRANCH 4 6
ENDBRANCH 1 2
BRANCH 1 22
ATOM     22  C   GLU Q 707      -2.807  21.297  55.743  1.00 47.30 LIG 0.24  C 
ATOM     23  N   VAL Q 708      -3.762  21.350  56.669  1.00 45.52 LIG-0.35  N 
ATOM     24 H    VAL Q 708      -4.590  21.173  56.515  1.00 45.52 LIG 0.16  HD
ATOM     25 O    GLU Q 707      -1.660  21.710  55.933  1.00 46.84 LIG-0.27  OA
BRANCH 23 26
ATOM     26  CA  VAL Q 708      -3.469  21.725  58.063  1.00 44.03 LIG 0.18  C 
BRANCH 26 27
ATOM     27  CB  VAL Q 708      -4.726  21.661  58.946  1.00 43.64 LIG 0.01  C 
ATOM     28  CG1 VAL Q 708      -5.750  22.684  58.463  1.00 41.62 LIG 0.01  C 
ATOM     29  CG2 VAL Q 708      -5.321  20.257  58.923  1.00 42.17 LIG 0.01  C 
ENDBRANCH 26 27
BRANCH 26 30
ATOM     30  C   VAL Q 708      -2.335  20.860  58.638  1.00 43.98 LIG 0.24  C 
ATOM     31 O    VAL Q 708      -2.225  19.690  58.300  1.00 43.91 LIG-0.27  OA
ATOM     32  N   ASP Q 709      -1.475  21.457  59.461  1.00 43.53 LIG-0.34  N 
ATOM     33 H    ASP Q 709      -1.530  22.289  59.673  1.00 43.53 LIG 0.16  HD
BRANCH 32 34
ATOM     34  CA  ASP Q 709      -0.343  20.761  60.093  1.00 43.18 LIG 0.20  C 
BRANCH 34 35
ATOM     35  CB  ASP Q 709      -0.813  19.458  60.710  1.00 43.21 LIG 0.15  C 
BRANCH 35 36
ATOM     36  CG  ASP Q 709      -1.317  19.626  62.113  1.00 45.24 LIG 0.17  C 
ATOM     37 OD2  ASP Q 709      -1.313  18.602  62.844  1.00 45.66 LIG-0.65  OA
ATOM     38 OD1  ASP Q 709      -1.682  20.783  62.475  1.00 45.75 LIG-0.65  OA
ENDBRANCH 35 36
ENDBRANCH 34 35
BRANCH 34 39
ATOM     39  C   ASP Q 709       0.766  20.393  59.090  1.00 42.83 LIG 0.20  C 
ATOM     40 O    ASP Q 709       0.573  20.446  57.878  1.00 42.06 LIG-0.65  OA
ATOM     41 OXT  ASP Q 709       1.865  19.970  59.485  1.00 42.11 LIG-0.65  OA
ENDBRANCH 34 39
ENDBRANCH 32 34
ENDBRANCH 26 30
ENDBRANCH 23 26
ENDBRANCH 1 22
BRANCH 1 42
ATOM     42  CB  GLU Q 707      -1.983  19.858  53.864  1.00 49.18 LIG 0.04  C 
BRANCH 42 43
ATOM     43  CG  GLU Q 707      -1.525  20.232  52.439  1.00 51.82 LIG 0.12  C 
BRANCH 43 44
ATOM     44  CD  GLU Q 707      -0.756  21.570  52.393  1.00 52.55 LIG 0.17  C 
ATOM     45 OE2  GLU Q 707       0.489  21.556  52.517  1.00 56.45 LIG-0.65  OA
ATOM     46 OE1  GLU Q 707      -1.400  22.644  52.253  1.00 56.78 LIG-0.65  OA
ENDBRANCH 43 44
ENDBRANCH 42 43
ENDBRANCH 1 42
TORSDOF 21
ENDMDL
MODEL 18
USER: ADFR SOLUTION from run 99
USER: SCORE 16.428156 LL:  -3.526 LR: -15.550 RR:   0.000 FEB:  -9.286
USER: RMSD 3.855466
USER: SEED 98
USER: STATUS no improvement in best in 3 clusters for 5 generations
USER: GENES 23
USER: genes 0 Translation |==|  0.42504 0.60751 0.45179
USER: genes 1 Rotation |==|  0.50314 0.38540 0.25639 0.92132
USER: genes 2 Torsion [CB]-CA--N-[C] |==|  0.32356
USER: genes 3 Torsion [N]-C--CA-[N] |==|  0.16878
USER: genes 4 Torsion [C]-CA--CB-[CG] |==|  0.25429
USER: genes 5 Torsion [CA]-CB--CG-[CD] |==|  0.79519
USER: genes 6 Torsion [CB]-CG--CD-[OE1] |==|  0.86825
USER: genes 7 Torsion [C]-CA--N-[C] |==|  0.76280
USER: genes 8 Torsion [N]-C--CA-[N] |==|  0.89697
USER: genes 9 Torsion [C]-CA--CB-[CG] |==|  0.42857
USER: genes 10 Torsion [CA]-CB--CG-[SD] |==|  0.88805
USER: genes 11 Torsion [CB]-CG--SD-[CE] |==|  0.30513
USER: genes 12 Torsion [N]-CA--C-[N] |==|  0.51415
USER: genes 13 Torsion [C]-N--CA-[CB] |==|  0.50001
USER: genes 14 Torsion [N]-CA--CB-[CG1] |==|  0.84760
USER: genes 15 Torsion [N]-CA--C-[N] |==|  0.40161
USER: genes 16 Torsion [C]-N--CA-[CB] |==|  0.31078
USER: genes 17 Torsion [N]-CA--CB-[CG] |==|  0.85588
USER: genes 18 Torsion [CA]-CB--CG-[OD2] |==|  0.26220
USER: genes 19 Torsion [N]-CA--C-[O] |==|  0.07484
USER: genes 20 Torsion [N]-CA--CB-[CG] |==|  0.12904
USER: genes 21 Torsion [CA]-CB--CG-[CD] |==|  0.73295
USER: genes 22 Torsion [CB]-CG--CD-[OE2] |==|  0.48014
ROOT
ATOM      1  CA  GLU Q 707      -3.156  21.070  54.542  1.00 49.62 LIG 0.18  C 
ENDROOT
BRANCH 1 2
ATOM      2  N   GLU Q 707      -1.918  20.900  53.762  1.00 50.42 LIG-0.35  N 
ATOM      3 H    GLU Q 707      -1.355  20.353  54.110  1.00 50.42 LIG 0.16  HD
ATOM      4  C   GLU Q 706      -1.711  21.545  52.622  1.00 51.37 LIG 0.24  C 
ATOM      5 O    GLU Q 706      -2.528  22.346  52.177  1.00 51.66 LIG-0.27  OA
BRANCH 4 6
ATOM      6  CA  GLU Q 706      -0.389  21.226  51.862  1.00 52.25 LIG 0.18  C 
BRANCH 6 7
ATOM      7  CB  GLU Q 706      -0.285  22.121  50.614  1.00 52.83 LIG 0.04  C 
BRANCH 7 8
ATOM      8  CG  GLU Q 706       0.463  23.451  50.847  1.00 56.79 LIG 0.12  C 
BRANCH 8 9
ATOM      9  CD  GLU Q 706      -0.343  24.501  51.655  1.00 61.53 LIG 0.17  C 
ATOM     10 OE1  GLU Q 706      -1.540  24.734  51.337  1.00 62.14 LIG-0.65  OA
ATOM     11 OE2  GLU Q 706       0.237  25.098  52.607  1.00 62.79 LIG-0.65  OA
ENDBRANCH 8 9
ENDBRANCH 7 8
ENDBRANCH 6 7
BRANCH 6 12
ATOM     12  N   GLU Q 706      -0.290  19.804  51.469  1.00 51.83 LIG-0.35  N 
ATOM     13 H    GLU Q 706      -0.565  19.656  50.667  1.00 51.83 LIG 0.16  HD
ATOM     14  C   MET Q 705       0.177  18.828  52.261  1.00 52.04 LIG 0.26  C 
ATOM     15 O    MET Q 705       0.675  19.019  53.377  1.00 51.63 LIG-0.27  OA
BRANCH 14 16
ATOM     16  CA  MET Q 705       0.059  17.402  51.719  1.00 52.15 LIG 0.40  C 
ATOM     17  N   MET Q 705      -1.215  17.203  50.952  1.00 52.08 LIG 0.61  N 
BRANCH 16 18
ATOM     18  CB  MET Q 705       1.292  17.031  50.887  1.00 52.13 LIG 0.06  C 
BRANCH 18 19
ATOM     19  CG  MET Q 705       1.589  15.532  50.821  1.00 53.37 LIG 0.08  C 
BRANCH 19 20
ATOM     20 SD   MET Q 705       1.343  14.651  52.392  1.00 56.30 LIG-0.17  SA
ATOM     21  CE  MET Q 705      -0.112  13.669  52.046  1.00 57.25 LIG 0.09  C 
ENDBRANCH 19 20
ENDBRANCH 18 19
ENDBRANCH 16 18
ENDBRANCH 14 16
ENDBRANCH 6 12
ENDBRANCH 4 6
ENDBRANCH 1 2
BRANCH 1 22
ATOM     22  C   GLU Q 707      -2.832  21.542  55.967  1.00 47.30 LIG 0.24  C 
ATOM     23  N   VAL Q 708      -3.854  21.635  56.814  1.00 45.52 LIG-0.35  N 
ATOM     24 H    VAL Q 708      -4.680  21.575  56.579  1.00 45.52 LIG 0.16  HD
ATOM     25 O    GLU Q 707      -1.667  21.793  56.286  1.00 46.84 LIG-0.27  OA
BRANCH 23 26
ATOM     26  CA  VAL Q 708      -3.648  21.855  58.256  1.00 44.03 LIG 0.18  C 
BRANCH 26 27
ATOM     27  CB  VAL Q 708      -4.980  21.926  59.018  1.00 43.64 LIG 0.01  C 
ATOM     28  CG1 VAL Q 708      -5.876  22.993  58.395  1.00 41.62 LIG 0.01  C 
ATOM     29  CG2 VAL Q 708      -5.676  20.569  59.001  1.00 42.17 LIG 0.01  C 
ENDBRANCH 26 27
BRANCH 26 30
ATOM     30  C   VAL Q 708      -2.719  20.780  58.848  1.00 43.98 LIG 0.24  C 
ATOM     31 O    VAL Q 708      -2.736  19.642  58.400  1.00 43.91 LIG-0.27  OA
ATOM     32  N   ASP Q 709      -1.886  21.163  59.813  1.00 43.53 LIG-0.34  N 
ATOM     33 H    ASP Q 709      -1.848  21.971  60.106  1.00 43.53 LIG 0.16  HD
BRANCH 32 34
ATOM     34  CA  ASP Q 709      -0.944  20.251  60.478  1.00 43.18 LIG 0.20  C 
BRANCH 34 35
ATOM     35  CB  ASP Q 709       0.481  20.615  60.109  1.00 43.21 LIG 0.15  C 
BRANCH 35 36
ATOM     36  CG  ASP Q 709       0.690  20.720  58.627  1.00 45.24 LIG 0.17  C 
ATOM     37 OD2  ASP Q 709       0.585  21.867  58.120  1.00 45.66 LIG-0.65  OA
ATOM     38 OD1  ASP Q 709       0.987  19.664  57.996  1.00 45.75 LIG-0.65  OA
ENDBRANCH 35 36
ENDBRANCH 34 35
BRANCH 34 39
ATOM     39  C   ASP Q 709      -1.028  20.323  62.014  1.00 42.83 LIG 0.20  C 
ATOM     40 O    ASP Q 709      -2.064  20.659  62.581  1.00 42.06 LIG-0.65  OA
ATOM     41 OXT  ASP Q 709      -0.027  20.105  62.717  1.00 42.11 LIG-0.65  OA
ENDBRANCH 34 39
ENDBRANCH 32 34
ENDBRANCH 26 30
ENDBRANCH 23 26
ENDBRANCH 1 22
BRANCH 1 42
ATOM     42  CB  GLU Q 707      -3.927  19.740  54.613  1.00 49.18 LIG 0.04  C 
BRANCH 42 43
ATOM     43  CG  GLU Q 707      -3.072  18.503  54.962  1.00 51.82 LIG 0.12  C 
BRANCH 43 44
ATOM     44  CD  GLU Q 707      -2.618  17.722  53.710  1.00 52.55 LIG 0.17  C 
ATOM     45 OE2  GLU Q 707      -1.808  16.778  53.848  1.00 56.45 LIG-0.65  OA
ATOM     46 OE1  GLU Q 707      -3.057  18.064  52.580  1.00 56.78 LIG-0.65  OA
ENDBRANCH 43 44
ENDBRANCH 42 43
ENDBRANCH 1 42
TORSDOF 21
ENDMDL
MODEL 19
USER: ADFR SOLUTION from run 31
USER: SCORE 17.907232 LL:  -3.790 LR: -15.475 RR:   0.000 FEB:  -9.210
USER: RMSD 3.279465
USER: SEED 30
USER: STATUS no improvement in best in 5 clusters for 5 generations
USER: GENES 23
USER: genes 0 Translation |==|  0.41049 0.57442 0.44932
USER: genes 1 Rotation |==|  0.56148 0.57596 0.58984 0.98206
USER: genes 2 Torsion [CB]-CA--N-[C] |==|  0.53424
USER: genes 3 Torsion [N]-C--CA-[N] |==|  0.00650
USER: genes 4 Torsion [C]-CA--CB-[CG] |==|  0.69943
USER: genes 5 Torsion [CA]-CB--CG-[CD] |==|  0.20230
USER: genes 6 Torsion [CB]-CG--CD-[OE1] |==|  0.83471
USER: genes 7 Torsion [C]-CA--N-[C] |==|  0.68765
USER: genes 8 Torsion [N]-C--CA-[N] |==|  0.68714
USER: genes 9 Torsion [C]-CA--CB-[CG] |==|  0.76000
USER: genes 10 Torsion [CA]-CB--CG-[SD] |==|  0.60178
USER: genes 11 Torsion [CB]-CG--SD-[CE] |==|  0.32432
USER: genes 12 Torsion [N]-CA--C-[N] |==|  0.27542
USER: genes 13 Torsion [C]-N--CA-[CB] |==|  0.49444
USER: genes 14 Torsion [N]-CA--CB-[CG1] |==|  0.81661
USER: genes 15 Torsion [N]-CA--C-[N] |==|  0.45120
USER: genes 16 Torsion [C]-N--CA-[CB] |==|  0.28093
USER: genes 17 Torsion [N]-CA--CB-[CG] |==|  0.84467
USER: genes 18 Torsion [CA]-CB--CG-[OD2] |==|  0.28285
USER: genes 19 Torsion [N]-CA--C-[O] |==|  0.55789
USER: genes 20 Torsion [N]-CA--CB-[CG] |==|  0.99020
USER: genes 21 Torsion [CA]-CB--CG-[CD] |==|  0.21441
USER: genes 22 Torsion [CB]-CG--CD-[OE2] |==|  0.74813
ROOT
ATOM      1  CA  GLU Q 707      -3.451  20.524  54.487  1.00 49.62 LIG 0.18  C 
ENDROOT
BRANCH 1 2
ATOM      2  N   GLU Q 707      -3.768  21.557  53.486  1.00 50.42 LIG-0.35  N 
ATOM      3 H    GLU Q 707      -3.410  21.423  52.716  1.00 50.42 LIG 0.16  HD
ATOM      4  C   GLU Q 706      -4.542  22.596  53.767  1.00 51.37 LIG 0.24  C 
ATOM      5 O    GLU Q 706      -5.006  22.768  54.891  1.00 51.66 LIG-0.27  OA
BRANCH 4 6
ATOM      6  CA  GLU Q 706      -4.854  23.580  52.600  1.00 52.25 LIG 0.18  C 
BRANCH 6 7
ATOM      7  CB  GLU Q 706      -6.378  23.726  52.443  1.00 52.83 LIG 0.04  C 
BRANCH 7 8
ATOM      8  CG  GLU Q 706      -6.955  23.043  51.185  1.00 56.79 LIG 0.12  C 
BRANCH 8 9
ATOM      9  CD  GLU Q 706      -6.991  21.494  51.261  1.00 61.53 LIG 0.17  C 
ATOM     10 OE1  GLU Q 706      -5.914  20.862  51.426  1.00 62.14 LIG-0.65  OA
ATOM     11 OE2  GLU Q 706      -8.110  20.915  51.145  1.00 62.79 LIG-0.65  OA
ENDBRANCH 8 9
ENDBRANCH 7 8
ENDBRANCH 6 7
BRANCH 6 12
ATOM     12  N   GLU Q 706      -4.257  23.147  51.318  1.00 51.83 LIG-0.35  N 
ATOM     13 H    GLU Q 706      -4.612  22.428  51.007  1.00 51.83 LIG 0.16  HD
ATOM     14  C   MET Q 705      -3.264  23.790  50.687  1.00 52.04 LIG 0.26  C 
ATOM     15 O    MET Q 705      -2.801  24.878  51.051  1.00 51.63 LIG-0.27  OA
BRANCH 14 16
ATOM     16  CA  MET Q 705      -2.689  23.099  49.449  1.00 52.15 LIG 0.40  C 
ATOM     17  N   MET Q 705      -1.275  22.650  49.672  1.00 52.08 LIG 0.61  N 
BRANCH 16 18
ATOM     18  CB  MET Q 705      -3.592  21.945  48.999  1.00 52.13 LIG 0.06  C 
BRANCH 18 19
ATOM     19  CG  MET Q 705      -3.316  20.611  49.694  1.00 53.37 LIG 0.08  C 
BRANCH 19 20
ATOM     20 SD   MET Q 705      -3.502  19.156  48.620  1.00 56.30 LIG-0.17  SA
ATOM     21  CE  MET Q 705      -1.841  18.492  48.600  1.00 57.25 LIG 0.09  C 
ENDBRANCH 19 20
ENDBRANCH 18 19
ENDBRANCH 16 18
ENDBRANCH 14 16
ENDBRANCH 6 12
ENDBRANCH 4 6
ENDBRANCH 1 2
BRANCH 1 22
ATOM     22  C   GLU Q 707      -3.034  21.173  55.814  1.00 47.30 LIG 0.24  C 
ATOM     23  N   VAL Q 708      -3.967  21.252  56.761  1.00 45.52 LIG-0.35  N 
ATOM     24 H    VAL Q 708      -4.800  21.085  56.629  1.00 45.52 LIG 0.16  HD
ATOM     25 O    GLU Q 707      -1.877  21.572  55.972  1.00 46.84 LIG-0.27  OA
BRANCH 23 26
ATOM     26  CA  VAL Q 708      -3.637  21.642  58.142  1.00 44.03 LIG 0.18  C 
BRANCH 26 27
ATOM     27  CB  VAL Q 708      -4.889  21.707  59.030  1.00 43.64 LIG 0.01  C 
ATOM     28  CG1 VAL Q 708      -5.801  22.836  58.556  1.00 41.62 LIG 0.01  C 
ATOM     29  CG2 VAL Q 708      -5.631  20.374  59.004  1.00 42.17 LIG 0.01  C 
ENDBRANCH 26 27
BRANCH 26 30
ATOM     30  C   VAL Q 708      -2.574  20.703  58.739  1.00 43.98 LIG 0.24  C 
ATOM     31 O    VAL Q 708      -2.327  19.634  58.197  1.00 43.91 LIG-0.27  OA
ATOM     32  N   ASP Q 709      -1.924  21.131  59.819  1.00 43.53 LIG-0.34  N 
ATOM     33 H    ASP Q 709      -2.072  21.897  60.182  1.00 43.53 LIG 0.16  HD
BRANCH 32 34
ATOM     34  CA  ASP Q 709      -0.886  20.345  60.504  1.00 43.18 LIG 0.20  C 
BRANCH 34 35
ATOM     35  CB  ASP Q 709       0.490  20.848  60.112  1.00 43.21 LIG 0.15  C 
BRANCH 35 36
ATOM     36  CG  ASP Q 709       0.713  20.837  58.628  1.00 45.24 LIG 0.17  C 
ATOM     37 OD2  ASP Q 709       0.617  21.942  58.032  1.00 45.66 LIG-0.65  OA
ATOM     38 OD1  ASP Q 709       1.011  19.734  58.083  1.00 45.75 LIG-0.65  OA
ENDBRANCH 35 36
ENDBRANCH 34 35
BRANCH 34 39
ATOM     39  C   ASP Q 709      -0.969  20.456  62.037  1.00 42.83 LIG 0.20  C 
ATOM     40 O    ASP Q 709      -0.001  20.198  62.748  1.00 42.06 LIG-0.65  OA
ATOM     41 OXT  ASP Q 709      -2.040  20.747  62.597  1.00 42.11 LIG-0.65  OA
ENDBRANCH 34 39
ENDBRANCH 32 34
ENDBRANCH 26 30
ENDBRANCH 23 26
ENDBRANCH 1 22
BRANCH 1 42
ATOM     42  CB  GLU Q 707      -2.306  19.627  53.982  1.00 49.18 LIG 0.04  C 
BRANCH 42 43
ATOM     43  CG  GLU Q 707      -1.814  19.934  52.551  1.00 51.82 LIG 0.12  C 
BRANCH 43 44
ATOM     44  CD  GLU Q 707      -0.907  21.183  52.490  1.00 52.55 LIG 0.17  C 
ATOM     45 OE2  GLU Q 707      -1.432  22.301  52.286  1.00 56.45 LIG-0.65  OA
ATOM     46 OE1  GLU Q 707       0.337  21.045  52.626  1.00 56.78 LIG-0.65  OA
ENDBRANCH 43 44
ENDBRANCH 42 43
ENDBRANCH 1 42
TORSDOF 21
ENDMDL
