MODEL 1
USER: ADFR SOLUTION from run 187
USER: SCORE 20.904567 LL:  -5.256 LR: -17.530 RR:   0.000 FEB: -10.073
USER: RMSD 3.463443
USER: SEED 186
USER: STATUS searching
USER: GENES 27
USER: genes 0 Translation |==|  0.31000 0.62325 0.36379
USER: genes 1 Rotation |==|  0.51843 0.45675 0.49139 0.99771
USER: genes 2 Torsion [N]-CA--C-[N] |==|  0.99923
USER: genes 3 Torsion [C]-N--CA-[C] |==|  0.65607
USER: genes 4 Torsion [N]-CA--CB-[CG] |==|  0.01260
USER: genes 5 Torsion [CA]-CB--CG-[CD] |==|  0.22168
USER: genes 6 Torsion [CB]-CG--CD-[OE2] |==|  0.76298
USER: genes 7 Torsion [N]-CA--C-[N] |==|  0.37550
USER: genes 8 Torsion [C]-N--CA-[CB] |==|  0.47784
USER: genes 9 Torsion [N]-CA--CB-[CG1] |==|  0.80940
USER: genes 10 Torsion [N]-CA--C-[N] |==|  0.47445
USER: genes 11 Torsion [C]-N--CA-[CB] |==|  0.26339
USER: genes 12 Torsion [N]-CA--CB-[CG] |==|  0.85162
USER: genes 13 Torsion [CA]-CB--CG-[OD2] |==|  0.24265
USER: genes 14 Torsion [N]-CA--C-[O] |==|  0.54108
USER: genes 15 Torsion [C]-CA--CB-[CG] |==|  0.57397
USER: genes 16 Torsion [CA]-CB--CG-[CD] |==|  0.23260
USER: genes 17 Torsion [CB]-CG--CD-[OE2] |==|  0.59790
USER: genes 18 Torsion [C]-CA--N-[C] |==|  0.65159
USER: genes 19 Torsion [N]-C--CA-[N] |==|  0.08433
USER: genes 20 Torsion [C]-CA--CB-[CG1] |==|  0.39341
USER: genes 21 Torsion [C]-CA--N-[C] |==|  0.57689
USER: genes 22 Torsion [N]-C--CA-[N] |==|  0.41384
USER: genes 23 Torsion [C]-CA--CB-[CG2] |==|  0.51249
USER: genes 24 Torsion [CA]-CB--OG1-[HG1] |==|  0.32607
USER: genes 25 Torsion [C]-CA--N-[C] |==|  0.62966
USER: genes 26 Torsion [N]-C--CA-[CB] |==|  0.86645
ROOT
ATOM      1  CA  GLU Q 639      19.947 -35.414  50.972  1.00 17.71 LIG 0.18  C 
ENDROOT
BRANCH 1 2
ATOM      2  C   GLU Q 639      19.543 -36.296  52.148  1.00 15.36 LIG 0.24  C 
ATOM      3 O    GLU Q 639      18.373 -36.648  52.300  1.00 14.90 LIG-0.27  OA
ATOM      4  N   GLU Q 640      20.518 -36.650  52.978  1.00 12.94 LIG-0.35  N 
ATOM      5 H    GLU Q 640      21.338 -36.411  52.883  1.00 12.94 LIG 0.16  HD
BRANCH 4 6
ATOM      6  CA  GLU Q 640      20.267 -37.491  54.142  1.00 11.11 LIG 0.18  C 
BRANCH 6 7
ATOM      7  CB  GLU Q 640      20.981 -38.833  53.951  1.00 10.30 LIG 0.04  C 
BRANCH 7 8
ATOM      8  CG  GLU Q 640      21.830 -38.863  52.670  1.00 11.77 LIG 0.12  C 
BRANCH 8 9
ATOM      9  CD  GLU Q 640      23.191 -38.166  52.807  1.00 13.33 LIG 0.17  C 
ATOM     10 OE2  GLU Q 640      23.245 -36.933  52.624  1.00 13.21 LIG-0.65  OA
ATOM     11 OE1  GLU Q 640      24.205 -38.853  53.091  1.00 12.97 LIG-0.65  OA
ENDBRANCH 8 9
ENDBRANCH 7 8
ENDBRANCH 6 7
BRANCH 6 12
ATOM     12  C   GLU Q 640      20.737 -36.805  55.427  1.00  9.90 LIG 0.24  C 
ATOM     13  N   VAL Q 641      19.899 -36.857  56.471  1.00  8.06 LIG-0.35  N 
ATOM     14 H    VAL Q 641      19.083 -37.120  56.403  1.00  8.06 LIG 0.16  HD
ATOM     15 O    GLU Q 640      21.841 -36.238  55.458  1.00  9.48 LIG-0.27  OA
BRANCH 13 16
ATOM     16  CA  VAL Q 641      20.282 -36.473  57.848  1.00  6.68 LIG 0.18  C 
BRANCH 16 17
ATOM     17  CB  VAL Q 641      19.073 -36.439  58.831  1.00  5.82 LIG 0.01  C 
ATOM     18  CG2 VAL Q 641      18.353 -37.763  58.864  1.00  2.95 LIG 0.01  C 
ATOM     19  CG1 VAL Q 641      18.159 -35.314  58.484  1.00  4.23 LIG 0.01  C 
ENDBRANCH 16 17
BRANCH 16 20
ATOM     20  C   VAL Q 641      21.383 -37.385  58.433  1.00  6.62 LIG 0.24  C 
ATOM     21 O    VAL Q 641      21.726 -38.408  57.851  1.00  7.26 LIG-0.27  OA
ATOM     22  N   ASP Q 642      21.922 -37.007  59.582  1.00  6.11 LIG-0.34  N 
ATOM     23 H    ASP Q 642      21.688 -36.296  60.005  1.00  6.11 LIG 0.16  HD
BRANCH 22 24
ATOM     24  CA  ASP Q 642      22.978 -37.771  60.243  1.00  5.85 LIG 0.20  C 
BRANCH 24 25
ATOM     25  CB  ASP Q 642      24.360 -37.208  59.854  1.00  5.86 LIG 0.15  C 
BRANCH 25 26
ATOM     26  CG  ASP Q 642      24.561 -37.119  58.319  1.00  7.09 LIG 0.17  C 
ATOM     27 OD2  ASP Q 642      24.176 -36.087  57.742  1.00  7.75 LIG-0.65  OA
ATOM     28 OD1  ASP Q 642      25.106 -38.053  57.697  1.00  5.16 LIG-0.65  OA
ENDBRANCH 25 26
ENDBRANCH 24 25
BRANCH 24 29
ATOM     29  C   ASP Q 642      22.795 -37.749  61.774  1.00  5.53 LIG 0.20  C 
ATOM     30 O    ASP Q 642      23.707 -38.095  62.542  1.00  4.89 LIG-0.65  OA
ATOM     31 OXT  ASP Q 642      21.733 -37.350  62.282  1.00  5.08 LIG-0.65  OA
ENDBRANCH 24 29
ENDBRANCH 22 24
ENDBRANCH 16 20
ENDBRANCH 13 16
ENDBRANCH 6 12
ENDBRANCH 4 6
ENDBRANCH 1 2
BRANCH 1 32
ATOM     32  CB  GLU Q 639      19.564 -36.089  49.653  1.00 18.28 LIG 0.04  C 
BRANCH 32 33
ATOM     33  CG  GLU Q 639      20.428 -35.678  48.471  1.00 21.94 LIG 0.12  C 
BRANCH 33 34
ATOM     34  CD  GLU Q 639      21.717 -36.471  48.388  1.00 26.00 LIG 0.17  C 
ATOM     35 OE1  GLU Q 639      21.700 -37.672  48.727  1.00 25.44 LIG-0.65  OA
ATOM     36 OE2  GLU Q 639      22.747 -35.892  47.983  1.00 27.11 LIG-0.65  OA
ENDBRANCH 33 34
ENDBRANCH 32 33
ENDBRANCH 1 32
BRANCH 1 37
ATOM     37  N   GLU Q 639      21.374 -35.121  51.000  1.00 19.24 LIG-0.35  N 
ATOM     38  C   VAL Q 638      21.832 -33.873  50.974  1.00 20.97 LIG 0.24  C 
ATOM     39 O    VAL Q 638      21.093 -32.889  50.926  1.00 20.96 LIG-0.27  OA
ATOM     40 H    GLU Q 639      21.879 -35.817  51.036  1.00 19.24 LIG 0.16  HD
BRANCH 38 41
ATOM     41  CA  VAL Q 638      23.348 -33.711  51.010  1.00 22.03 LIG 0.18  C 
BRANCH 41 42
ATOM     42  CB  VAL Q 638      23.729 -32.381  50.335  1.00 22.63 LIG 0.01  C 
ATOM     43  CG1 VAL Q 638      24.877 -31.717  51.080  1.00 22.21 LIG 0.01  C 
ATOM     44  CG2 VAL Q 638      24.093 -32.611  48.877  1.00 20.65 LIG 0.01  C 
ENDBRANCH 41 42
BRANCH 41 45
ATOM     45  N   VAL Q 638      24.015 -34.842  50.376  1.00 23.53 LIG-0.35  N 
ATOM     46 H    VAL Q 638      23.513 -35.199  49.775  1.00 23.53 LIG 0.16  HD
ATOM     47  C   THR Q 637      25.225 -35.334  50.616  1.00 24.82 LIG 0.24  C 
ATOM     48 O    THR Q 637      25.800 -35.205  51.696  1.00 25.63 LIG-0.27  OA
BRANCH 47 49
ATOM     49  CA  THR Q 637      25.887 -36.085  49.465  1.00 25.03 LIG 0.20  C 
BRANCH 49 50
ATOM     50  CB  THR Q 637      25.525 -37.503  49.943  1.00 24.88 LIG 0.15  C 
ATOM     51  CG2 THR Q 637      26.155 -38.548  49.035  1.00 23.89 LIG 0.04  C 
BRANCH 50 52
ATOM     52 OG1  THR Q 637      25.995 -37.693  51.283  1.00 24.10 LIG-0.39  OA
ATOM     53 HG1  THR Q 637      25.342 -37.829  51.793  1.00 24.10 LIG 0.21  HD
ENDBRANCH 50 52
ENDBRANCH 49 50
BRANCH 49 54
ATOM     54  N   THR Q 637      27.256 -35.733  49.824  1.00 26.29 LIG-0.34  N 
ATOM     55 H    THR Q 637      27.442 -35.835  50.657  1.00 26.29 LIG 0.16  HD
ATOM     56  C   PRO Q 636      28.124 -35.294  48.918  1.00 27.07 LIG 0.25  C 
ATOM     57 O    PRO Q 636      27.846 -35.152  47.728  1.00 27.06 LIG-0.27  OA
BRANCH 56 58
ATOM     58  CA  PRO Q 636      29.525 -34.959  49.420  1.00 27.59 LIG 0.35  C 
ATOM     59  CB  PRO Q 636      29.440 -34.088  50.674  1.00 27.63 LIG 0.05  C 
ATOM     60  CG  PRO Q 636      30.631 -33.203  50.593  1.00 27.91 LIG 0.04  C 
ATOM     61  CD  PRO Q 636      30.836 -32.923  49.131  1.00 28.09 LIG 0.32  C 
ATOM     62  N   PRO Q 636      30.253 -34.107  48.475  1.00 27.47 LIG 0.32  N 
ENDBRANCH 56 58
ENDBRANCH 49 54
ENDBRANCH 47 49
ENDBRANCH 41 45
ENDBRANCH 38 41
ENDBRANCH 1 37
TORSDOF 25
ENDMDL
MODEL 2
USER: ADFR SOLUTION from run 104
USER: SCORE 20.142374 LL:  -4.579 LR: -17.351 RR:   0.000 FEB:  -9.893
USER: RMSD 3.312764
USER: SEED 103
USER: STATUS no improvement in best in 8 clusters for 5 generations
USER: GENES 27
USER: genes 0 Translation |==|  0.28032 0.64599 0.37829
USER: genes 1 Rotation |==|  0.57754 0.57783 0.45545 0.98574
USER: genes 2 Torsion [N]-CA--C-[N] |==|  0.12473
USER: genes 3 Torsion [C]-N--CA-[C] |==|  0.62394
USER: genes 4 Torsion [N]-CA--CB-[CG] |==|  0.45914
USER: genes 5 Torsion [CA]-CB--CG-[CD] |==|  0.55048
USER: genes 6 Torsion [CB]-CG--CD-[OE2] |==|  0.59195
USER: genes 7 Torsion [N]-CA--C-[N] |==|  0.31671
USER: genes 8 Torsion [C]-N--CA-[CB] |==|  0.47800
USER: genes 9 Torsion [N]-CA--CB-[CG1] |==|  0.81819
USER: genes 10 Torsion [N]-CA--C-[N] |==|  0.43753
USER: genes 11 Torsion [C]-N--CA-[CB] |==|  0.28044
USER: genes 12 Torsion [N]-CA--CB-[CG] |==|  0.85785
USER: genes 13 Torsion [CA]-CB--CG-[OD2] |==|  0.23833
USER: genes 14 Torsion [N]-CA--C-[O] |==|  0.55360
USER: genes 15 Torsion [C]-CA--CB-[CG] |==|  0.30414
USER: genes 16 Torsion [CA]-CB--CG-[CD] |==|  0.96778
USER: genes 17 Torsion [CB]-CG--CD-[OE2] |==|  0.21429
USER: genes 18 Torsion [C]-CA--N-[C] |==|  0.62900
USER: genes 19 Torsion [N]-C--CA-[N] |==|  0.95569
USER: genes 20 Torsion [C]-CA--CB-[CG1] |==|  0.41625
USER: genes 21 Torsion [C]-CA--N-[C] |==|  0.68778
USER: genes 22 Torsion [N]-C--CA-[N] |==|  0.43225
USER: genes 23 Torsion [C]-CA--CB-[CG2] |==|  0.53778
USER: genes 24 Torsion [CA]-CB--OG1-[HG1] |==|  0.59175
USER: genes 25 Torsion [C]-CA--N-[C] |==|  0.64025
USER: genes 26 Torsion [N]-C--CA-[CB] |==|  0.04385
ROOT
ATOM      1  CA  GLU Q 639      19.413 -34.988  51.331  1.00 17.71 LIG 0.18  C 
ENDROOT
BRANCH 1 2
ATOM      2  C   GLU Q 639      19.439 -36.141  52.328  1.00 15.36 LIG 0.24  C 
ATOM      3 O    GLU Q 639      18.553 -36.997  52.327  1.00 14.90 LIG-0.27  OA
ATOM      4  N   GLU Q 640      20.459 -36.158  53.179  1.00 12.94 LIG-0.35  N 
ATOM      5 H    GLU Q 640      21.083 -35.567  53.191  1.00 12.94 LIG 0.16  HD
BRANCH 4 6
ATOM      6  CA  GLU Q 640      20.602 -37.204  54.183  1.00 11.11 LIG 0.18  C 
BRANCH 6 7
ATOM      7  CB  GLU Q 640      21.664 -38.204  53.713  1.00 10.30 LIG 0.04  C 
BRANCH 7 8
ATOM      8  CG  GLU Q 640      22.139 -39.126  54.848  1.00 11.77 LIG 0.12  C 
BRANCH 8 9
ATOM      9  CD  GLU Q 640      23.475 -39.826  54.565  1.00 13.33 LIG 0.17  C 
ATOM     10 OE2  GLU Q 640      23.652 -40.973  55.024  1.00 13.21 LIG-0.65  OA
ATOM     11 OE1  GLU Q 640      24.349 -39.225  53.890  1.00 12.97 LIG-0.65  OA
ENDBRANCH 8 9
ENDBRANCH 7 8
ENDBRANCH 6 7
BRANCH 6 12
ATOM     12  C   GLU Q 640      20.980 -36.612  55.544  1.00  9.90 LIG 0.24  C 
ATOM     13  N   VAL Q 641      20.070 -36.733  56.519  1.00  8.06 LIG-0.35  N 
ATOM     14 H    VAL Q 641      19.261 -36.986  56.375  1.00  8.06 LIG 0.16  HD
ATOM     15 O    GLU Q 640      22.080 -36.054  55.692  1.00  9.48 LIG-0.27  OA
BRANCH 13 16
ATOM     16  CA  VAL Q 641      20.355 -36.448  57.943  1.00  6.68 LIG 0.18  C 
BRANCH 16 17
ATOM     17  CB  VAL Q 641      19.078 -36.478  58.839  1.00  5.82 LIG 0.01  C 
ATOM     18  CG2 VAL Q 641      18.402 -37.824  58.787  1.00  2.95 LIG 0.01  C 
ATOM     19  CG1 VAL Q 641      18.155 -35.373  58.455  1.00  4.23 LIG 0.01  C 
ENDBRANCH 16 17
BRANCH 16 20
ATOM     20  C   VAL Q 641      21.412 -37.404  58.540  1.00  6.62 LIG 0.24  C 
ATOM     21 O    VAL Q 641      21.621 -38.501  58.036  1.00  7.26 LIG-0.27  OA
ATOM     22  N   ASP Q 642      22.064 -36.977  59.610  1.00  6.11 LIG-0.34  N 
ATOM     23 H    ASP Q 642      21.924 -36.213  59.979  1.00  6.11 LIG 0.16  HD
BRANCH 22 24
ATOM     24  CA  ASP Q 642      23.095 -37.776  60.270  1.00  5.85 LIG 0.20  C 
BRANCH 24 25
ATOM     25  CB  ASP Q 642      24.495 -37.276  59.856  1.00  5.86 LIG 0.15  C 
BRANCH 25 26
ATOM     26  CG  ASP Q 642      24.661 -37.166  58.319  1.00  7.09 LIG 0.17  C 
ATOM     27 OD2  ASP Q 642      24.289 -36.115  57.768  1.00  7.75 LIG-0.65  OA
ATOM     28 OD1  ASP Q 642      25.168 -38.103  57.668  1.00  5.16 LIG-0.65  OA
ENDBRANCH 25 26
ENDBRANCH 24 25
BRANCH 24 29
ATOM     29  C   ASP Q 642      22.932 -37.723  61.803  1.00  5.53 LIG 0.20  C 
ATOM     30 O    ASP Q 642      23.866 -38.018  62.565  1.00  4.89 LIG-0.65  OA
ATOM     31 OXT  ASP Q 642      21.864 -37.350  62.316  1.00  5.08 LIG-0.65  OA
ENDBRANCH 24 29
ENDBRANCH 22 24
ENDBRANCH 16 20
ENDBRANCH 13 16
ENDBRANCH 6 12
ENDBRANCH 4 6
ENDBRANCH 1 2
BRANCH 1 32
ATOM     32  CB  GLU Q 639      18.376 -35.261  50.238  1.00 18.28 LIG 0.04  C 
BRANCH 32 33
ATOM     33  CG  GLU Q 639      17.148 -34.369  50.311  1.00 21.94 LIG 0.12  C 
BRANCH 33 34
ATOM     34  CD  GLU Q 639      17.072 -33.586  51.607  1.00 26.00 LIG 0.17  C 
ATOM     35 OE1  GLU Q 639      16.280 -33.976  52.492  1.00 25.44 LIG-0.65  OA
ATOM     36 OE2  GLU Q 639      17.803 -32.583  51.742  1.00 27.11 LIG-0.65  OA
ENDBRANCH 33 34
ENDBRANCH 32 33
ENDBRANCH 1 32
BRANCH 1 37
ATOM     37  N   GLU Q 639      20.729 -34.771  50.744  1.00 19.24 LIG-0.35  N 
ATOM     38  C   VAL Q 638      21.256 -33.554  50.639  1.00 20.97 LIG 0.24  C 
ATOM     39 O    VAL Q 638      20.678 -32.538  51.027  1.00 20.96 LIG-0.27  OA
ATOM     40 H    GLU Q 639      21.122 -35.488  50.478  1.00 19.24 LIG 0.16  HD
BRANCH 38 41
ATOM     41  CA  VAL Q 638      22.641 -33.472  50.006  1.00 22.03 LIG 0.18  C 
BRANCH 41 42
ATOM     42  CB  VAL Q 638      22.514 -32.868  48.596  1.00 22.63 LIG 0.01  C 
ATOM     43  CG1 VAL Q 638      23.776 -32.100  48.231  1.00 22.21 LIG 0.01  C 
ATOM     44  CG2 VAL Q 638      22.233 -33.959  47.574  1.00 20.65 LIG 0.01  C 
ENDBRANCH 41 42
BRANCH 41 45
ATOM     45  N   VAL Q 638      23.283 -34.780  49.971  1.00 23.53 LIG-0.35  N 
ATOM     46 H    VAL Q 638      22.876 -35.310  49.429  1.00 23.53 LIG 0.16  HD
ATOM     47  C   THR Q 637      24.351 -35.199  50.641  1.00 24.82 LIG 0.24  C 
ATOM     48 O    THR Q 637      24.703 -34.712  51.714  1.00 25.63 LIG-0.27  OA
BRANCH 47 49
ATOM     49  CA  THR Q 637      25.140 -36.339  50.005  1.00 25.03 LIG 0.20  C 
BRANCH 49 50
ATOM     50  CB  THR Q 637      24.399 -37.488  50.713  1.00 24.88 LIG 0.15  C 
ATOM     51  CG2 THR Q 637      25.164 -38.794  50.553  1.00 23.89 LIG 0.04  C 
BRANCH 50 52
ATOM     52 OG1  THR Q 637      24.264 -37.186  52.107  1.00 24.10 LIG-0.39  OA
ATOM     53 HG1  THR Q 637      24.298 -37.897  52.553  1.00 24.10 LIG 0.21  HD
ENDBRANCH 50 52
ENDBRANCH 49 50
BRANCH 49 54
ATOM     54  N   THR Q 637      26.404 -36.032  50.663  1.00 26.29 LIG-0.34  N 
ATOM     55 H    THR Q 637      26.346 -35.934  51.516  1.00 26.29 LIG 0.16  HD
ATOM     56  C   PRO Q 636      27.538 -35.919  49.979  1.00 27.07 LIG 0.25  C 
ATOM     57 O    PRO Q 636      27.609 -36.063  48.759  1.00 27.06 LIG-0.27  OA
BRANCH 56 58
ATOM     58  CA  PRO Q 636      28.793 -35.595  50.784  1.00 27.59 LIG 0.35  C 
ATOM     59  CB  PRO Q 636      28.543 -35.849  52.271  1.00 27.63 LIG 0.05  C 
ATOM     60  CG  PRO Q 636      29.367 -34.825  52.965  1.00 27.91 LIG 0.04  C 
ATOM     61  CD  PRO Q 636      29.334 -33.606  52.087  1.00 28.09 LIG 0.32  C 
ATOM     62  N   PRO Q 636      29.112 -34.165  50.742  1.00 27.47 LIG 0.32  N 
ENDBRANCH 56 58
ENDBRANCH 49 54
ENDBRANCH 47 49
ENDBRANCH 41 45
ENDBRANCH 38 41
ENDBRANCH 1 37
TORSDOF 25
ENDMDL
MODEL 3
USER: ADFR SOLUTION from run 79
USER: SCORE 19.952395 LL:  -4.424 LR: -17.223 RR:   0.000 FEB:  -9.766
USER: RMSD 4.002321
USER: SEED 78
USER: STATUS searching
USER: GENES 27
USER: genes 0 Translation |==|  0.35051 0.64004 0.37354
USER: genes 1 Rotation |==|  0.55611 0.54283 0.29579 0.95090
USER: genes 2 Torsion [N]-CA--C-[N] |==|  0.06895
USER: genes 3 Torsion [C]-N--CA-[C] |==|  0.72206
USER: genes 4 Torsion [N]-CA--CB-[CG] |==|  0.00214
USER: genes 5 Torsion [CA]-CB--CG-[CD] |==|  0.24786
USER: genes 6 Torsion [CB]-CG--CD-[OE2] |==|  0.72079
USER: genes 7 Torsion [N]-CA--C-[N] |==|  0.40197
USER: genes 8 Torsion [C]-N--CA-[CB] |==|  0.46752
USER: genes 9 Torsion [N]-CA--CB-[CG1] |==|  0.81031
USER: genes 10 Torsion [N]-CA--C-[N] |==|  0.43068
USER: genes 11 Torsion [C]-N--CA-[CB] |==|  0.29700
USER: genes 12 Torsion [N]-CA--CB-[CG] |==|  0.86738
USER: genes 13 Torsion [CA]-CB--CG-[OD2] |==|  0.72254
USER: genes 14 Torsion [N]-CA--C-[O] |==|  0.54985
USER: genes 15 Torsion [C]-CA--CB-[CG] |==|  0.30051
USER: genes 16 Torsion [CA]-CB--CG-[CD] |==|  0.00974
USER: genes 17 Torsion [CB]-CG--CD-[OE2] |==|  0.70113
USER: genes 18 Torsion [C]-CA--N-[C] |==|  0.70094
USER: genes 19 Torsion [N]-C--CA-[N] |==|  0.03454
USER: genes 20 Torsion [C]-CA--CB-[CG1] |==|  0.89512
USER: genes 21 Torsion [C]-CA--N-[C] |==|  0.62780
USER: genes 22 Torsion [N]-C--CA-[N] |==|  0.22890
USER: genes 23 Torsion [C]-CA--CB-[CG2] |==|  0.33143
USER: genes 24 Torsion [CA]-CB--OG1-[HG1] |==|  0.35660
USER: genes 25 Torsion [C]-CA--N-[C] |==|  0.76228
USER: genes 26 Torsion [N]-C--CA-[CB] |==|  0.74920
ROOT
ATOM      1  CA  GLU Q 639      20.676 -35.099  51.213  1.00 17.71 LIG 0.18  C 
ENDROOT
BRANCH 1 2
ATOM      2  C   GLU Q 639      20.047 -35.848  52.383  1.00 15.36 LIG 0.24  C 
ATOM      3 O    GLU Q 639      18.862 -35.681  52.676  1.00 14.90 LIG-0.27  OA
ATOM      4  N   GLU Q 640      20.847 -36.674  53.050  1.00 12.94 LIG-0.35  N 
ATOM      5 H    GLU Q 640      21.674 -36.799  52.856  1.00 12.94 LIG 0.16  HD
BRANCH 4 6
ATOM      6  CA  GLU Q 640      20.371 -37.449  54.188  1.00 11.11 LIG 0.18  C 
BRANCH 6 7
ATOM      7  CB  GLU Q 640      20.932 -38.871  54.092  1.00 10.30 LIG 0.04  C 
BRANCH 7 8
ATOM      8  CG  GLU Q 640      21.831 -39.060  52.860  1.00 11.77 LIG 0.12  C 
BRANCH 8 9
ATOM      9  CD  GLU Q 640      23.309 -38.729  53.110  1.00 13.33 LIG 0.17  C 
ATOM     10 OE2  GLU Q 640      23.741 -37.623  52.727  1.00 13.21 LIG-0.65  OA
ATOM     11 OE1  GLU Q 640      24.038 -39.579  53.682  1.00 12.97 LIG-0.65  OA
ENDBRANCH 8 9
ENDBRANCH 7 8
ENDBRANCH 6 7
BRANCH 6 12
ATOM     12  C   GLU Q 640      20.780 -36.792  55.510  1.00  9.90 LIG 0.24  C 
ATOM     13  N   VAL Q 641      19.906 -36.892  56.520  1.00  8.06 LIG-0.35  N 
ATOM     14 H    VAL Q 641      19.099 -37.169  56.414  1.00  8.06 LIG 0.16  HD
ATOM     15 O    GLU Q 640      21.871 -36.205  55.597  1.00  9.48 LIG-0.27  OA
BRANCH 13 16
ATOM     16  CA  VAL Q 641      20.232 -36.542  57.920  1.00  6.68 LIG 0.18  C 
BRANCH 16 17
ATOM     17  CB  VAL Q 641      18.975 -36.471  58.840  1.00  5.82 LIG 0.01  C 
ATOM     18  CG2 VAL Q 641      18.206 -37.767  58.821  1.00  2.95 LIG 0.01  C 
ATOM     19  CG1 VAL Q 641      18.123 -35.309  58.457  1.00  4.23 LIG 0.01  C 
ENDBRANCH 16 17
BRANCH 16 20
ATOM     20  C   VAL Q 641      21.262 -37.506  58.549  1.00  6.62 LIG 0.24  C 
ATOM     21 O    VAL Q 641      21.385 -38.652  58.131  1.00  7.26 LIG-0.27  OA
ATOM     22  N   ASP Q 642      21.989 -37.033  59.549  1.00  6.11 LIG-0.34  N 
ATOM     23 H    ASP Q 642      21.910 -36.234  59.857  1.00  6.11 LIG 0.16  HD
BRANCH 22 24
ATOM     24  CA  ASP Q 642      23.005 -37.834  60.229  1.00  5.85 LIG 0.20  C 
BRANCH 24 25
ATOM     25  CB  ASP Q 642      24.414 -37.353  59.824  1.00  5.86 LIG 0.15  C 
BRANCH 25 26
ATOM     26  CG  ASP Q 642      24.571 -37.180  58.291  1.00  7.09 LIG 0.17  C 
ATOM     27 OD2  ASP Q 642      25.136 -38.090  57.659  1.00  7.75 LIG-0.65  OA
ATOM     28 OD1  ASP Q 642      24.126 -36.164  57.719  1.00  5.16 LIG-0.65  OA
ENDBRANCH 25 26
ENDBRANCH 24 25
BRANCH 24 29
ATOM     29  C   ASP Q 642      22.827 -37.763  61.759  1.00  5.53 LIG 0.20  C 
ATOM     30 O    ASP Q 642      23.743 -38.081  62.535  1.00  4.89 LIG-0.65  OA
ATOM     31 OXT  ASP Q 642      21.766 -37.350  62.257  1.00  5.08 LIG-0.65  OA
ENDBRANCH 24 29
ENDBRANCH 22 24
ENDBRANCH 16 20
ENDBRANCH 13 16
ENDBRANCH 6 12
ENDBRANCH 4 6
ENDBRANCH 1 2
BRANCH 1 32
ATOM     32  CB  GLU Q 639      19.635 -34.868  50.116  1.00 18.28 LIG 0.04  C 
BRANCH 32 33
ATOM     33  CG  GLU Q 639      19.179 -33.423  49.987  1.00 21.94 LIG 0.12  C 
BRANCH 33 34
ATOM     34  CD  GLU Q 639      19.921 -32.492  50.926  1.00 26.00 LIG 0.17  C 
ATOM     35 OE1  GLU Q 639      21.114 -32.219  50.674  1.00 25.44 LIG-0.65  OA
ATOM     36 OE2  GLU Q 639      19.312 -32.033  51.915  1.00 27.11 LIG-0.65  OA
ENDBRANCH 33 34
ENDBRANCH 32 33
ENDBRANCH 1 32
BRANCH 1 37
ATOM     37  N   GLU Q 639      21.825 -35.823  50.683  1.00 19.24 LIG-0.35  N 
ATOM     38  C   VAL Q 638      23.069 -35.398  50.878  1.00 20.97 LIG 0.24  C 
ATOM     39 O    VAL Q 638      23.337 -34.378  51.514  1.00 20.96 LIG-0.27  OA
ATOM     40 H    GLU Q 639      21.624 -36.534  50.242  1.00 19.24 LIG 0.16  HD
BRANCH 38 41
ATOM     41  CA  VAL Q 638      24.176 -36.252  50.268  1.00 22.03 LIG 0.18  C 
BRANCH 41 42
ATOM     42  CB  VAL Q 638      25.206 -35.331  49.589  1.00 22.63 LIG 0.01  C 
ATOM     43  CG1 VAL Q 638      24.508 -34.161  48.913  1.00 22.21 LIG 0.01  C 
ATOM     44  CG2 VAL Q 638      26.226 -34.837  50.603  1.00 20.65 LIG 0.01  C 
ENDBRANCH 41 42
BRANCH 41 45
ATOM     45  N   VAL Q 638      23.633 -37.229  49.332  1.00 23.53 LIG-0.35  N 
ATOM     46 H    VAL Q 638      23.060 -36.865  48.803  1.00 23.53 LIG 0.16  HD
ATOM     47  C   THR Q 637      23.915 -38.523  49.225  1.00 24.82 LIG 0.24  C 
ATOM     48 O    THR Q 637      24.336 -39.197  50.164  1.00 25.63 LIG-0.27  OA
BRANCH 47 49
ATOM     49  CA  THR Q 637      23.688 -39.150  47.853  1.00 25.03 LIG 0.20  C 
BRANCH 49 50
ATOM     50  CB  THR Q 637      23.749 -40.618  48.314  1.00 24.88 LIG 0.15  C 
ATOM     51  CG2 THR Q 637      22.435 -41.325  48.016  1.00 23.89 LIG 0.04  C 
BRANCH 50 52
ATOM     52 OG1  THR Q 637      24.815 -41.291  47.634  1.00 24.10 LIG-0.39  OA
ATOM     53 HG1  THR Q 637      25.305 -41.679  48.196  1.00 24.10 LIG 0.21  HD
ENDBRANCH 50 52
ENDBRANCH 49 50
BRANCH 49 54
ATOM     54  N   THR Q 637      24.956 -38.717  47.279  1.00 26.29 LIG-0.34  N 
ATOM     55 H    THR Q 637      25.588 -39.298  47.332  1.00 26.29 LIG 0.16  HD
ATOM     56  C   PRO Q 636      25.097 -37.518  46.723  1.00 27.07 LIG 0.25  C 
ATOM     57 O    PRO Q 636      24.186 -36.694  46.652  1.00 27.06 LIG-0.27  OA
BRANCH 56 58
ATOM     58  CA  PRO Q 636      26.474 -37.184  46.158  1.00 27.59 LIG 0.35  C 
ATOM     59  CB  PRO Q 636      27.337 -36.521  47.232  1.00 27.63 LIG 0.05  C 
ATOM     60  CG  PRO Q 636      28.196 -35.567  46.481  1.00 27.91 LIG 0.04  C 
ATOM     61  CD  PRO Q 636      27.350 -35.057  45.349  1.00 28.09 LIG 0.32  C 
ATOM     62  N   PRO Q 636      26.400 -36.158  45.113  1.00 27.47 LIG 0.32  N 
ENDBRANCH 56 58
ENDBRANCH 49 54
ENDBRANCH 47 49
ENDBRANCH 41 45
ENDBRANCH 38 41
ENDBRANCH 1 37
TORSDOF 25
ENDMDL
MODEL 4
USER: ADFR SOLUTION from run 170
USER: SCORE 20.226561 LL:  -4.758 LR: -17.023 RR:   0.000 FEB:  -9.565
USER: RMSD 4.145801
USER: SEED 169
USER: STATUS searching
USER: GENES 27
USER: genes 0 Translation |==|  0.28533 0.64319 0.37264
USER: genes 1 Rotation |==|  0.56565 0.53739 0.48571 0.99405
USER: genes 2 Torsion [N]-CA--C-[N] |==|  0.07737
USER: genes 3 Torsion [C]-N--CA-[C] |==|  0.63855
USER: genes 4 Torsion [N]-CA--CB-[CG] |==|  0.01052
USER: genes 5 Torsion [CA]-CB--CG-[CD] |==|  0.43612
USER: genes 6 Torsion [CB]-CG--CD-[OE2] |==|  0.91548
USER: genes 7 Torsion [N]-CA--C-[N] |==|  0.33524
USER: genes 8 Torsion [C]-N--CA-[CB] |==|  0.45736
USER: genes 9 Torsion [N]-CA--CB-[CG1] |==|  0.83095
USER: genes 10 Torsion [N]-CA--C-[N] |==|  0.43613
USER: genes 11 Torsion [C]-N--CA-[CB] |==|  0.28728
USER: genes 12 Torsion [N]-CA--CB-[CG] |==|  0.86913
USER: genes 13 Torsion [CA]-CB--CG-[OD2] |==|  0.22108
USER: genes 14 Torsion [N]-CA--C-[O] |==|  0.55426
USER: genes 15 Torsion [C]-CA--CB-[CG] |==|  0.27639
USER: genes 16 Torsion [CA]-CB--CG-[CD] |==|  0.96192
USER: genes 17 Torsion [CB]-CG--CD-[OE2] |==|  0.71557
USER: genes 18 Torsion [C]-CA--N-[C] |==|  0.64171
USER: genes 19 Torsion [N]-C--CA-[N] |==|  0.98332
USER: genes 20 Torsion [C]-CA--CB-[CG1] |==|  0.98056
USER: genes 21 Torsion [C]-CA--N-[C] |==|  0.75000
USER: genes 22 Torsion [N]-C--CA-[N] |==|  0.01854
USER: genes 23 Torsion [C]-CA--CB-[CG2] |==|  0.43691
USER: genes 24 Torsion [CA]-CB--OG1-[HG1] |==|  0.58888
USER: genes 25 Torsion [C]-CA--N-[C] |==|  0.71168
USER: genes 26 Torsion [N]-C--CA-[CB] |==|  0.02614
ROOT
ATOM      1  CA  GLU Q 639      19.503 -35.040  51.191  1.00 17.71 LIG 0.18  C 
ENDROOT
BRANCH 1 2
ATOM      2  C   GLU Q 639      19.464 -36.146  52.241  1.00 15.36 LIG 0.24  C 
ATOM      3 O    GLU Q 639      18.501 -36.910  52.316  1.00 14.90 LIG-0.27  OA
ATOM      4  N   GLU Q 640      20.515 -36.225  53.049  1.00 12.94 LIG-0.35  N 
ATOM      5 H    GLU Q 640      21.193 -35.698  53.007  1.00 12.94 LIG 0.16  HD
BRANCH 4 6
ATOM      6  CA  GLU Q 640      20.603 -37.236  54.095  1.00 11.11 LIG 0.18  C 
BRANCH 6 7
ATOM      7  CB  GLU Q 640      21.641 -38.286  53.687  1.00 10.30 LIG 0.04  C 
BRANCH 7 8
ATOM      8  CG  GLU Q 640      22.343 -37.929  52.367  1.00 11.77 LIG 0.12  C 
BRANCH 8 9
ATOM      9  CD  GLU Q 640      23.717 -38.591  52.192  1.00 13.33 LIG 0.17  C 
ATOM     10 OE2  GLU Q 640      24.392 -38.832  53.214  1.00 13.21 LIG-0.65  OA
ATOM     11 OE1  GLU Q 640      24.123 -38.862  51.034  1.00 12.97 LIG-0.65  OA
ENDBRANCH 8 9
ENDBRANCH 7 8
ENDBRANCH 6 7
BRANCH 6 12
ATOM     12  C   GLU Q 640      20.972 -36.603  55.440  1.00  9.90 LIG 0.24  C 
ATOM     13  N   VAL Q 641      20.097 -36.777  56.439  1.00  8.06 LIG-0.35  N 
ATOM     14 H    VAL Q 641      19.304 -37.088  56.318  1.00  8.06 LIG 0.16  HD
ATOM     15 O    GLU Q 640      22.032 -35.968  55.556  1.00  9.48 LIG-0.27  OA
BRANCH 13 16
ATOM     16  CA  VAL Q 641      20.395 -36.457  57.853  1.00  6.68 LIG 0.18  C 
BRANCH 16 17
ATOM     17  CB  VAL Q 641      19.119 -36.386  58.746  1.00  5.82 LIG 0.01  C 
ATOM     18  CG2 VAL Q 641      18.432 -37.726  58.830  1.00  2.95 LIG 0.01  C 
ATOM     19  CG1 VAL Q 641      18.204 -35.319  58.252  1.00  4.23 LIG 0.01  C 
ENDBRANCH 16 17
BRANCH 16 20
ATOM     20  C   VAL Q 641      21.399 -37.446  58.486  1.00  6.62 LIG 0.24  C 
ATOM     21 O    VAL Q 641      21.543 -38.574  58.027  1.00  7.26 LIG-0.27  OA
ATOM     22  N   ASP Q 642      22.081 -37.014  59.535  1.00  6.11 LIG-0.34  N 
ATOM     23 H    ASP Q 642      21.986 -36.228  59.873  1.00  6.11 LIG 0.16  HD
BRANCH 22 24
ATOM     24  CA  ASP Q 642      23.068 -37.842  60.225  1.00  5.85 LIG 0.20  C 
BRANCH 24 25
ATOM     25  CB  ASP Q 642      24.493 -37.400  59.834  1.00  5.86 LIG 0.15  C 
BRANCH 25 26
ATOM     26  CG  ASP Q 642      24.665 -37.218  58.304  1.00  7.09 LIG 0.17  C 
ATOM     27 OD2  ASP Q 642      24.243 -36.166  57.793  1.00  7.75 LIG-0.65  OA
ATOM     28 OD1  ASP Q 642      25.224 -38.100  57.620  1.00  5.16 LIG-0.65  OA
ENDBRANCH 25 26
ENDBRANCH 24 25
BRANCH 24 29
ATOM     29  C   ASP Q 642      22.877 -37.765  61.754  1.00  5.53 LIG 0.20  C 
ATOM     30 O    ASP Q 642      23.786 -38.080  62.538  1.00  4.89 LIG-0.65  OA
ATOM     31 OXT  ASP Q 642      21.811 -37.350  62.241  1.00  5.08 LIG-0.65  OA
ENDBRANCH 24 29
ENDBRANCH 22 24
ENDBRANCH 16 20
ENDBRANCH 13 16
ENDBRANCH 6 12
ENDBRANCH 4 6
ENDBRANCH 1 2
BRANCH 1 32
ATOM     32  CB  GLU Q 639      18.710 -35.463  49.952  1.00 18.28 LIG 0.04  C 
BRANCH 32 33
ATOM     33  CG  GLU Q 639      17.306 -34.885  49.886  1.00 21.94 LIG 0.12  C 
BRANCH 33 34
ATOM     34  CD  GLU Q 639      16.861 -34.283  51.205  1.00 26.00 LIG 0.17  C 
ATOM     35 OE1  GLU Q 639      17.297 -33.157  51.523  1.00 25.44 LIG-0.65  OA
ATOM     36 OE2  GLU Q 639      16.075 -34.936  51.923  1.00 27.11 LIG-0.65  OA
ENDBRANCH 33 34
ENDBRANCH 32 33
ENDBRANCH 1 32
BRANCH 1 37
ATOM     37  N   GLU Q 639      20.875 -34.706  50.830  1.00 19.24 LIG-0.35  N 
ATOM     38  C   VAL Q 638      21.314 -33.452  50.838  1.00 20.97 LIG 0.24  C 
ATOM     39 O    VAL Q 638      20.603 -32.495  51.147  1.00 20.96 LIG-0.27  OA
ATOM     40 H    GLU Q 639      21.361 -35.384  50.617  1.00 19.24 LIG 0.16  HD
BRANCH 38 41
ATOM     41  CA  VAL Q 638      22.772 -33.246  50.439  1.00 22.03 LIG 0.18  C 
BRANCH 41 42
ATOM     42  CB  VAL Q 638      22.828 -32.386  49.163  1.00 22.63 LIG 0.01  C 
ATOM     43  CG1 VAL Q 638      21.428 -32.162  48.611  1.00 22.21 LIG 0.01  C 
ATOM     44  CG2 VAL Q 638      23.514 -31.059  49.448  1.00 20.65 LIG 0.01  C 
ENDBRANCH 41 42
BRANCH 41 45
ATOM     45  N   VAL Q 638      23.453 -34.521  50.254  1.00 23.53 LIG-0.35  N 
ATOM     46 H    VAL Q 638      23.386 -34.792  49.441  1.00 23.53 LIG 0.16  HD
ATOM     47  C   THR Q 637      24.115 -35.246  51.150  1.00 24.82 LIG 0.24  C 
ATOM     48 O    THR Q 637      23.889 -35.190  52.358  1.00 25.63 LIG-0.27  OA
BRANCH 47 49
ATOM     49  CA  THR Q 637      25.193 -36.175  50.600  1.00 25.03 LIG 0.20  C 
BRANCH 49 50
ATOM     50  CB  THR Q 637      26.378 -35.540  51.350  1.00 24.88 LIG 0.15  C 
ATOM     51  CG2 THR Q 637      27.522 -36.534  51.478  1.00 23.89 LIG 0.04  C 
BRANCH 50 52
ATOM     52 OG1  THR Q 637      26.833 -34.382  50.639  1.00 24.10 LIG-0.39  OA
ATOM     53 HG1  THR Q 637      27.661 -34.294  50.747  1.00 24.10 LIG 0.21  HD
ENDBRANCH 50 52
ENDBRANCH 49 50
BRANCH 49 54
ATOM     54  N   THR Q 637      25.114 -35.697  49.224  1.00 26.29 LIG-0.34  N 
ATOM     55 H    THR Q 637      25.490 -34.936  49.090  1.00 26.29 LIG 0.16  HD
ATOM     56  C   PRO Q 636      24.504 -36.401  48.275  1.00 27.07 LIG 0.25  C 
ATOM     57 O    PRO Q 636      23.970 -37.490  48.479  1.00 27.06 LIG-0.27  OA
BRANCH 56 58
ATOM     58  CA  PRO Q 636      24.490 -35.793  46.877  1.00 27.59 LIG 0.35  C 
ATOM     59  CB  PRO Q 636      25.406 -34.570  46.825  1.00 27.63 LIG 0.05  C 
ATOM     60  CG  PRO Q 636      24.751 -33.656  45.854  1.00 27.91 LIG 0.04  C 
ATOM     61  CD  PRO Q 636      23.273 -33.854  46.036  1.00 28.09 LIG 0.32  C 
ATOM     62  N   PRO Q 636      23.177 -35.236  46.538  1.00 27.47 LIG 0.32  N 
ENDBRANCH 56 58
ENDBRANCH 49 54
ENDBRANCH 47 49
ENDBRANCH 41 45
ENDBRANCH 38 41
ENDBRANCH 1 37
TORSDOF 25
ENDMDL
MODEL 5
USER: ADFR SOLUTION from run 183
USER: SCORE 20.556407 LL:  -4.884 LR: -16.974 RR:   0.000 FEB:  -9.517
USER: RMSD 3.447198
USER: SEED 182
USER: STATUS 1 or 2 clusters left
USER: GENES 27
USER: genes 0 Translation |==|  0.36832 0.63866 0.37661
USER: genes 1 Rotation |==|  0.55445 0.51107 0.31213 0.96002
USER: genes 2 Torsion [N]-CA--C-[N] |==|  0.05766
USER: genes 3 Torsion [C]-N--CA-[C] |==|  0.71155
USER: genes 4 Torsion [N]-CA--CB-[CG] |==|  0.29329
USER: genes 5 Torsion [CA]-CB--CG-[CD] |==|  0.60878
USER: genes 6 Torsion [CB]-CG--CD-[OE2] |==|  0.83205
USER: genes 7 Torsion [N]-CA--C-[N] |==|  0.40854
USER: genes 8 Torsion [C]-N--CA-[CB] |==|  0.46669
USER: genes 9 Torsion [N]-CA--CB-[CG1] |==|  0.81242
USER: genes 10 Torsion [N]-CA--C-[N] |==|  0.39605
USER: genes 11 Torsion [C]-N--CA-[CB] |==|  0.33061
USER: genes 12 Torsion [N]-CA--CB-[CG] |==|  0.86338
USER: genes 13 Torsion [CA]-CB--CG-[OD2] |==|  0.23674
USER: genes 14 Torsion [N]-CA--C-[O] |==|  0.55074
USER: genes 15 Torsion [C]-CA--CB-[CG] |==|  0.28431
USER: genes 16 Torsion [CA]-CB--CG-[CD] |==|  0.02173
USER: genes 17 Torsion [CB]-CG--CD-[OE2] |==|  0.21645
USER: genes 18 Torsion [C]-CA--N-[C] |==|  0.68932
USER: genes 19 Torsion [N]-C--CA-[N] |==|  0.92258
USER: genes 20 Torsion [C]-CA--CB-[CG1] |==|  0.53298
USER: genes 21 Torsion [C]-CA--N-[C] |==|  0.83102
USER: genes 22 Torsion [N]-C--CA-[N] |==|  0.91379
USER: genes 23 Torsion [C]-CA--CB-[CG2] |==|  0.74966
USER: genes 24 Torsion [CA]-CB--OG1-[HG1] |==|  0.10467
USER: genes 25 Torsion [C]-CA--N-[C] |==|  0.78162
USER: genes 26 Torsion [N]-C--CA-[CB] |==|  0.05295
ROOT
ATOM      1  CA  GLU Q 639      20.997 -35.125  51.289  1.00 17.71 LIG 0.18  C 
ENDROOT
BRANCH 1 2
ATOM      2  C   GLU Q 639      20.271 -35.850  52.418  1.00 15.36 LIG 0.24  C 
ATOM      3 O    GLU Q 639      19.064 -35.685  52.601  1.00 14.90 LIG-0.27  OA
ATOM      4  N   GLU Q 640      21.013 -36.653  53.173  1.00 12.94 LIG-0.35  N 
ATOM      5 H    GLU Q 640      21.856 -36.776  53.056  1.00 12.94 LIG 0.16  HD
BRANCH 4 6
ATOM      6  CA  GLU Q 640      20.443 -37.404  54.284  1.00 11.11 LIG 0.18  C 
BRANCH 6 7
ATOM      7  CB  GLU Q 640      20.945 -38.849  54.218  1.00 10.30 LIG 0.04  C 
BRANCH 7 8
ATOM      8  CG  GLU Q 640      22.010 -39.145  55.287  1.00 11.77 LIG 0.12  C 
BRANCH 8 9
ATOM      9  CD  GLU Q 640      23.155 -40.042  54.795  1.00 13.33 LIG 0.17  C 
ATOM     10 OE2  GLU Q 640      22.876 -41.189  54.389  1.00 13.21 LIG-0.65  OA
ATOM     11 OE1  GLU Q 640      24.332 -39.602  54.821  1.00 12.97 LIG-0.65  OA
ENDBRANCH 8 9
ENDBRANCH 7 8
ENDBRANCH 6 7
BRANCH 6 12
ATOM     12  C   GLU Q 640      20.810 -36.762  55.626  1.00  9.90 LIG 0.24  C 
ATOM     13  N   VAL Q 641      19.900 -36.864  56.603  1.00  8.06 LIG-0.35  N 
ATOM     14 H    VAL Q 641      19.094 -37.133  56.465  1.00  8.06 LIG 0.16  HD
ATOM     15 O    GLU Q 640      21.902 -36.186  55.758  1.00  9.48 LIG-0.27  OA
BRANCH 13 16
ATOM     16  CA  VAL Q 641      20.177 -36.529  58.017  1.00  6.68 LIG 0.18  C 
BRANCH 16 17
ATOM     17  CB  VAL Q 641      18.888 -36.448  58.890  1.00  5.82 LIG 0.01  C 
ATOM     18  CG2 VAL Q 641      18.112 -37.741  58.846  1.00  2.95 LIG 0.01  C 
ATOM     19  CG1 VAL Q 641      18.057 -35.283  58.473  1.00  4.23 LIG 0.01  C 
ENDBRANCH 16 17
BRANCH 16 20
ATOM     20  C   VAL Q 641      21.171 -37.513  58.675  1.00  6.62 LIG 0.24  C 
ATOM     21 O    VAL Q 641      21.137 -38.709  58.411  1.00  7.26 LIG-0.27  OA
ATOM     22  N   ASP Q 642      22.042 -36.998  59.529  1.00  6.11 LIG-0.34  N 
ATOM     23 H    ASP Q 642      22.074 -36.162  59.729  1.00  6.11 LIG 0.16  HD
BRANCH 22 24
ATOM     24  CA  ASP Q 642      23.042 -37.812  60.216  1.00  5.85 LIG 0.20  C 
BRANCH 24 25
ATOM     25  CB  ASP Q 642      24.460 -37.334  59.840  1.00  5.86 LIG 0.15  C 
BRANCH 25 26
ATOM     26  CG  ASP Q 642      24.654 -37.179  58.310  1.00  7.09 LIG 0.17  C 
ATOM     27 OD2  ASP Q 642      24.306 -36.106  57.786  1.00  7.75 LIG-0.65  OA
ATOM     28 OD1  ASP Q 642      25.159 -38.103  57.639  1.00  5.16 LIG-0.65  OA
ENDBRANCH 25 26
ENDBRANCH 24 25
BRANCH 24 29
ATOM     29  C   ASP Q 642      22.839 -37.757  61.744  1.00  5.53 LIG 0.20  C 
ATOM     30 O    ASP Q 642      23.742 -38.084  62.531  1.00  4.89 LIG-0.65  OA
ATOM     31 OXT  ASP Q 642      21.770 -37.350  62.229  1.00  5.08 LIG-0.65  OA
ENDBRANCH 24 29
ENDBRANCH 22 24
ENDBRANCH 16 20
ENDBRANCH 13 16
ENDBRANCH 6 12
ENDBRANCH 4 6
ENDBRANCH 1 2
BRANCH 1 32
ATOM     32  CB  GLU Q 639      20.087 -35.018  50.063  1.00 18.28 LIG 0.04  C 
BRANCH 32 33
ATOM     33  CG  GLU Q 639      19.459 -33.647  49.874  1.00 21.94 LIG 0.12  C 
BRANCH 33 34
ATOM     34  CD  GLU Q 639      20.013 -32.614  50.836  1.00 26.00 LIG 0.17  C 
ATOM     35 OE1  GLU Q 639      19.329 -32.303  51.833  1.00 25.44 LIG-0.65  OA
ATOM     36 OE2  GLU Q 639      21.132 -32.115  50.595  1.00 27.11 LIG-0.65  OA
ENDBRANCH 33 34
ENDBRANCH 32 33
ENDBRANCH 1 32
BRANCH 1 37
ATOM     37  N   GLU Q 639      22.241 -35.801  50.945  1.00 19.24 LIG-0.35  N 
ATOM     38  C   VAL Q 638      23.426 -35.251  51.190  1.00 20.97 LIG 0.24  C 
ATOM     39 O    VAL Q 638      23.556 -34.146  51.718  1.00 20.96 LIG-0.27  OA
ATOM     40 H    GLU Q 639      22.137 -36.572  50.578  1.00 19.24 LIG 0.16  HD
BRANCH 38 41
ATOM     41  CA  VAL Q 638      24.646 -36.068  50.779  1.00 22.03 LIG 0.18  C 
BRANCH 41 42
ATOM     42  CB  VAL Q 638      25.112 -35.612  49.385  1.00 22.63 LIG 0.01  C 
ATOM     43  CG1 VAL Q 638      26.133 -36.588  48.819  1.00 22.21 LIG 0.01  C 
ATOM     44  CG2 VAL Q 638      23.923 -35.472  48.448  1.00 20.65 LIG 0.01  C 
ENDBRANCH 41 42
BRANCH 41 45
ATOM     45  N   VAL Q 638      24.357 -37.497  50.804  1.00 23.53 LIG-0.35  N 
ATOM     46 H    VAL Q 638      24.456 -37.846  50.025  1.00 23.53 LIG 0.16  HD
ATOM     47  C   THR Q 637      23.985 -38.251  51.833  1.00 24.82 LIG 0.24  C 
ATOM     48 O    THR Q 637      23.400 -37.801  52.818  1.00 25.63 LIG-0.27  OA
BRANCH 47 49
ATOM     49  CA  THR Q 637      24.322 -39.735  51.737  1.00 25.03 LIG 0.20  C 
BRANCH 49 50
ATOM     50  CB  THR Q 637      25.787 -39.617  52.194  1.00 24.88 LIG 0.15  C 
ATOM     51  CG2 THR Q 637      26.703 -39.398  50.999  1.00 23.89 LIG 0.04  C 
BRANCH 50 52
ATOM     52 OG1  THR Q 637      25.920 -38.515  53.101  1.00 24.10 LIG-0.39  OA
ATOM     53 HG1  THR Q 637      25.241 -38.475  53.594  1.00 24.10 LIG 0.21  HD
ENDBRANCH 50 52
ENDBRANCH 49 50
BRANCH 49 54
ATOM     54  N   THR Q 637      24.221 -39.818  50.285  1.00 26.29 LIG-0.34  N 
ATOM     55 H    THR Q 637      24.977 -39.815  49.875  1.00 26.29 LIG 0.16  HD
ATOM     56  C   PRO Q 636      23.044 -39.891  49.670  1.00 27.07 LIG 0.25  C 
ATOM     57 O    PRO Q 636      21.969 -39.894  50.268  1.00 27.06 LIG-0.27  OA
BRANCH 56 58
ATOM     58  CA  PRO Q 636      23.072 -39.972  48.148  1.00 27.59 LIG 0.35  C 
ATOM     59  CB  PRO Q 636      24.454 -40.422  47.670  1.00 27.63 LIG 0.05  C 
ATOM     60  CG  PRO Q 636      24.644 -39.722  46.373  1.00 27.91 LIG 0.04  C 
ATOM     61  CD  PRO Q 636      23.966 -38.390  46.521  1.00 28.09 LIG 0.32  C 
ATOM     62  N   PRO Q 636      22.922 -38.652  47.528  1.00 27.47 LIG 0.32  N 
ENDBRANCH 56 58
ENDBRANCH 49 54
ENDBRANCH 47 49
ENDBRANCH 41 45
ENDBRANCH 38 41
ENDBRANCH 1 37
TORSDOF 25
ENDMDL
MODEL 6
USER: ADFR SOLUTION from run 79
USER: SCORE 20.097965 LL:  -4.606 LR: -16.842 RR:   0.000 FEB:  -9.384
USER: RMSD 3.184095
USER: SEED 78
USER: STATUS searching
USER: GENES 27
USER: genes 0 Translation |==|  0.35009 0.63951 0.37356
USER: genes 1 Rotation |==|  0.55771 0.54676 0.28638 0.94593
USER: genes 2 Torsion [N]-CA--C-[N] |==|  0.07467
USER: genes 3 Torsion [C]-N--CA-[C] |==|  0.72128
USER: genes 4 Torsion [N]-CA--CB-[CG] |==|  0.00771
USER: genes 5 Torsion [CA]-CB--CG-[CD] |==|  0.24917
USER: genes 6 Torsion [CB]-CG--CD-[OE2] |==|  0.72080
USER: genes 7 Torsion [N]-CA--C-[N] |==|  0.40117
USER: genes 8 Torsion [C]-N--CA-[CB] |==|  0.46908
USER: genes 9 Torsion [N]-CA--CB-[CG1] |==|  0.81158
USER: genes 10 Torsion [N]-CA--C-[N] |==|  0.42909
USER: genes 11 Torsion [C]-N--CA-[CB] |==|  0.29846
USER: genes 12 Torsion [N]-CA--CB-[CG] |==|  0.86699
USER: genes 13 Torsion [CA]-CB--CG-[OD2] |==|  0.72272
USER: genes 14 Torsion [N]-CA--C-[O] |==|  0.55192
USER: genes 15 Torsion [C]-CA--CB-[CG] |==|  0.29711
USER: genes 16 Torsion [CA]-CB--CG-[CD] |==|  0.00387
USER: genes 17 Torsion [CB]-CG--CD-[OE2] |==|  0.69968
USER: genes 18 Torsion [C]-CA--N-[C] |==|  0.70744
USER: genes 19 Torsion [N]-C--CA-[N] |==|  0.04924
USER: genes 20 Torsion [C]-CA--CB-[CG1] |==|  0.88367
USER: genes 21 Torsion [C]-CA--N-[C] |==|  0.74299
USER: genes 22 Torsion [N]-C--CA-[N] |==|  0.41909
USER: genes 23 Torsion [C]-CA--CB-[CG2] |==|  0.35534
USER: genes 24 Torsion [CA]-CB--OG1-[HG1] |==|  0.35177
USER: genes 25 Torsion [C]-CA--N-[C] |==|  0.78994
USER: genes 26 Torsion [N]-C--CA-[CB] |==|  0.06668
ROOT
ATOM      1  CA  GLU Q 639      20.669 -35.109  51.214  1.00 17.71 LIG 0.18  C 
ENDROOT
BRANCH 1 2
ATOM      2  C   GLU Q 639      20.029 -35.845  52.387  1.00 15.36 LIG 0.24  C 
ATOM      3 O    GLU Q 639      18.847 -35.661  52.678  1.00 14.90 LIG-0.27  OA
ATOM      4  N   GLU Q 640      20.818 -36.679  53.056  1.00 12.94 LIG-0.35  N 
ATOM      5 H    GLU Q 640      21.644 -36.816  52.863  1.00 12.94 LIG 0.16  HD
BRANCH 4 6
ATOM      6  CA  GLU Q 640      20.332 -37.444  54.198  1.00 11.11 LIG 0.18  C 
BRANCH 6 7
ATOM      7  CB  GLU Q 640      20.869 -38.875  54.103  1.00 10.30 LIG 0.04  C 
BRANCH 7 8
ATOM      8  CG  GLU Q 640      21.801 -39.069  52.896  1.00 11.77 LIG 0.12  C 
BRANCH 8 9
ATOM      9  CD  GLU Q 640      23.279 -38.780  53.197  1.00 13.33 LIG 0.17  C 
ATOM     10 OE2  GLU Q 640      23.751 -37.680  52.845  1.00 13.21 LIG-0.65  OA
ATOM     11 OE1  GLU Q 640      23.968 -39.657  53.778  1.00 12.97 LIG-0.65  OA
ENDBRANCH 8 9
ENDBRANCH 7 8
ENDBRANCH 6 7
BRANCH 6 12
ATOM     12  C   GLU Q 640      20.756 -36.791  55.517  1.00  9.90 LIG 0.24  C 
ATOM     13  N   VAL Q 641      19.881 -36.869  56.527  1.00  8.06 LIG-0.35  N 
ATOM     14 H    VAL Q 641      19.068 -37.128  56.423  1.00  8.06 LIG 0.16  HD
ATOM     15 O    GLU Q 640      21.859 -36.227  55.601  1.00  9.48 LIG-0.27  OA
BRANCH 13 16
ATOM     16  CA  VAL Q 641      20.215 -36.520  57.926  1.00  6.68 LIG 0.18  C 
BRANCH 16 17
ATOM     17  CB  VAL Q 641      18.961 -36.433  58.849  1.00  5.82 LIG 0.01  C 
ATOM     18  CG2 VAL Q 641      18.182 -37.724  58.843  1.00  2.95 LIG 0.01  C 
ATOM     19  CG1 VAL Q 641      18.116 -35.268  58.460  1.00  4.23 LIG 0.01  C 
ENDBRANCH 16 17
BRANCH 16 20
ATOM     20  C   VAL Q 641      21.235 -37.496  58.553  1.00  6.62 LIG 0.24  C 
ATOM     21 O    VAL Q 641      21.335 -38.647  58.144  1.00  7.26 LIG-0.27  OA
ATOM     22  N   ASP Q 642      21.978 -37.027  59.543  1.00  6.11 LIG-0.34  N 
ATOM     23 H    ASP Q 642      21.915 -36.224  59.846  1.00  6.11 LIG 0.16  HD
BRANCH 22 24
ATOM     24  CA  ASP Q 642      22.987 -37.839  60.220  1.00  5.85 LIG 0.20  C 
BRANCH 24 25
ATOM     25  CB  ASP Q 642      24.400 -37.375  59.809  1.00  5.86 LIG 0.15  C 
BRANCH 25 26
ATOM     26  CG  ASP Q 642      24.554 -37.210  58.275  1.00  7.09 LIG 0.17  C 
ATOM     27 OD2  ASP Q 642      25.106 -38.130  57.645  1.00  7.75 LIG-0.65  OA
ATOM     28 OD1  ASP Q 642      24.120 -36.190  57.701  1.00  5.16 LIG-0.65  OA
ENDBRANCH 25 26
ENDBRANCH 24 25
BRANCH 24 29
ATOM     29  C   ASP Q 642      22.816 -37.763  61.751  1.00  5.53 LIG 0.20  C 
ATOM     30 O    ASP Q 642      23.736 -38.078  62.523  1.00  4.89 LIG-0.65  OA
ATOM     31 OXT  ASP Q 642      21.757 -37.350  62.253  1.00  5.08 LIG-0.65  OA
ENDBRANCH 24 29
ENDBRANCH 22 24
ENDBRANCH 16 20
ENDBRANCH 13 16
ENDBRANCH 6 12
ENDBRANCH 4 6
ENDBRANCH 1 2
BRANCH 1 32
ATOM     32  CB  GLU Q 639      19.619 -34.822  50.138  1.00 18.28 LIG 0.04  C 
BRANCH 32 33
ATOM     33  CG  GLU Q 639      19.199 -33.364  50.053  1.00 21.94 LIG 0.12  C 
BRANCH 33 34
ATOM     34  CD  GLU Q 639      19.942 -32.486  51.040  1.00 26.00 LIG 0.17  C 
ATOM     35 OE1  GLU Q 639      21.147 -32.240  50.828  1.00 25.44 LIG-0.65  OA
ATOM     36 OE2  GLU Q 639      19.319 -32.040  52.027  1.00 27.11 LIG-0.65  OA
ENDBRANCH 33 34
ENDBRANCH 32 33
ENDBRANCH 1 32
BRANCH 1 37
ATOM     37  N   GLU Q 639      21.777 -35.873  50.655  1.00 19.24 LIG-0.35  N 
ATOM     38  C   VAL Q 638      23.043 -35.527  50.871  1.00 20.97 LIG 0.24  C 
ATOM     39 O    VAL Q 638      23.364 -34.551  51.550  1.00 20.96 LIG-0.27  OA
ATOM     40 H    GLU Q 639      21.539 -36.552  50.184  1.00 19.24 LIG 0.16  HD
BRANCH 38 41
ATOM     41  CA  VAL Q 638      24.103 -36.415  50.228  1.00 22.03 LIG 0.18  C 
BRANCH 41 42
ATOM     42  CB  VAL Q 638      25.251 -35.532  49.708  1.00 22.63 LIG 0.01  C 
ATOM     43  CG1 VAL Q 638      24.699 -34.282  49.039  1.00 22.21 LIG 0.01  C 
ATOM     44  CG2 VAL Q 638      26.194 -35.164  50.843  1.00 20.65 LIG 0.01  C 
ENDBRANCH 41 42
BRANCH 41 45
ATOM     45  N   VAL Q 638      23.532 -37.230  49.163  1.00 23.53 LIG-0.35  N 
ATOM     46 H    VAL Q 638      23.542 -36.810  48.412  1.00 23.53 LIG 0.16  HD
ATOM     47  C   THR Q 637      23.037 -38.462  49.234  1.00 24.82 LIG 0.24  C 
ATOM     48 O    THR Q 637      22.576 -38.941  50.269  1.00 25.63 LIG-0.27  OA
BRANCH 47 49
ATOM     49  CA  THR Q 637      23.066 -39.274  47.943  1.00 25.03 LIG 0.20  C 
BRANCH 49 50
ATOM     50  CB  THR Q 637      21.620 -38.974  47.509  1.00 24.88 LIG 0.15  C 
ATOM     51  CG2 THR Q 637      21.590 -38.454  46.079  1.00 23.89 LIG 0.04  C 
BRANCH 50 52
ATOM     52 OG1  THR Q 637      20.834 -40.169  47.595  1.00 24.10 LIG-0.39  OA
ATOM     53 HG1  THR Q 637      20.151 -40.022  48.061  1.00 24.10 LIG 0.21  HD
ENDBRANCH 50 52
ENDBRANCH 49 50
BRANCH 49 54
ATOM     54  N   THR Q 637      23.171 -40.577  48.588  1.00 26.29 LIG-0.34  N 
ATOM     55 H    THR Q 637      22.442 -41.034  48.588  1.00 26.29 LIG 0.16  HD
ATOM     56  C   PRO Q 636      24.311 -41.000  49.126  1.00 27.07 LIG 0.25  C 
ATOM     57 O    PRO Q 636      25.348 -40.338  49.121  1.00 27.06 LIG-0.27  OA
BRANCH 56 58
ATOM     58  CA  PRO Q 636      24.291 -42.382  49.772  1.00 27.59 LIG 0.35  C 
ATOM     59  CB  PRO Q 636      23.168 -43.227  49.169  1.00 27.63 LIG 0.05  C 
ATOM     60  CG  PRO Q 636      22.710 -44.090  50.290  1.00 27.91 LIG 0.04  C 
ATOM     61  CD  PRO Q 636      22.846 -43.255  51.532  1.00 28.09 LIG 0.32  C 
ATOM     62  N   PRO Q 636      23.928 -42.315  51.191  1.00 27.47 LIG 0.32  N 
ENDBRANCH 56 58
ENDBRANCH 49 54
ENDBRANCH 47 49
ENDBRANCH 41 45
ENDBRANCH 38 41
ENDBRANCH 1 37
TORSDOF 25
ENDMDL
MODEL 7
USER: ADFR SOLUTION from run 147
USER: SCORE 20.067227 LL:  -4.834 LR: -16.830 RR:   0.000 FEB:  -9.372
USER: RMSD 4.487413
USER: SEED 146
USER: STATUS no improvement in best in 9 clusters for 5 generations
USER: GENES 27
USER: genes 0 Translation |==|  0.34859 0.64140 0.37493
USER: genes 1 Rotation |==|  0.55317 0.54631 0.29624 0.95112
USER: genes 2 Torsion [N]-CA--C-[N] |==|  0.05992
USER: genes 3 Torsion [C]-N--CA-[C] |==|  0.73196
USER: genes 4 Torsion [N]-CA--CB-[CG] |==|  0.00342
USER: genes 5 Torsion [CA]-CB--CG-[CD] |==|  0.25029
USER: genes 6 Torsion [CB]-CG--CD-[OE2] |==|  0.73294
USER: genes 7 Torsion [N]-CA--C-[N] |==|  0.39868
USER: genes 8 Torsion [C]-N--CA-[CB] |==|  0.48333
USER: genes 9 Torsion [N]-CA--CB-[CG1] |==|  0.81017
USER: genes 10 Torsion [N]-CA--C-[N] |==|  0.45626
USER: genes 11 Torsion [C]-N--CA-[CB] |==|  0.27256
USER: genes 12 Torsion [N]-CA--CB-[CG] |==|  0.84651
USER: genes 13 Torsion [CA]-CB--CG-[OD2] |==|  0.25372
USER: genes 14 Torsion [N]-CA--C-[O] |==|  0.55102
USER: genes 15 Torsion [C]-CA--CB-[CG] |==|  0.30440
USER: genes 16 Torsion [CA]-CB--CG-[CD] |==|  0.00710
USER: genes 17 Torsion [CB]-CG--CD-[OE2] |==|  0.22226
USER: genes 18 Torsion [C]-CA--N-[C] |==|  0.71967
USER: genes 19 Torsion [N]-C--CA-[N] |==|  0.04999
USER: genes 20 Torsion [C]-CA--CB-[CG1] |==|  0.88421
USER: genes 21 Torsion [C]-CA--N-[C] |==|  0.78272
USER: genes 22 Torsion [N]-C--CA-[N] |==|  0.86222
USER: genes 23 Torsion [C]-CA--CB-[CG2] |==|  0.34368
USER: genes 24 Torsion [CA]-CB--OG1-[HG1] |==|  0.28729
USER: genes 25 Torsion [C]-CA--N-[C] |==|  0.80936
USER: genes 26 Torsion [N]-C--CA-[CB] |==|  0.91149
ROOT
ATOM      1  CA  GLU Q 639      20.642 -35.074  51.248  1.00 17.71 LIG 0.18  C 
ENDROOT
BRANCH 1 2
ATOM      2  C   GLU Q 639      20.036 -35.820  52.432  1.00 15.36 LIG 0.24  C 
ATOM      3 O    GLU Q 639      18.873 -35.612  52.781  1.00 14.90 LIG-0.27  OA
ATOM      4  N   GLU Q 640      20.831 -36.688  53.047  1.00 12.94 LIG-0.35  N 
ATOM      5 H    GLU Q 640      21.644 -36.842  52.814  1.00 12.94 LIG 0.16  HD
BRANCH 4 6
ATOM      6  CA  GLU Q 640      20.376 -37.466  54.193  1.00 11.11 LIG 0.18  C 
BRANCH 6 7
ATOM      7  CB  GLU Q 640      20.949 -38.883  54.093  1.00 10.30 LIG 0.04  C 
BRANCH 7 8
ATOM      8  CG  GLU Q 640      21.845 -39.062  52.856  1.00 11.77 LIG 0.12  C 
BRANCH 8 9
ATOM      9  CD  GLU Q 640      23.325 -38.739  53.106  1.00 13.33 LIG 0.17  C 
ATOM     10 OE2  GLU Q 640      23.740 -37.600  52.809  1.00 13.21 LIG-0.65  OA
ATOM     11 OE1  GLU Q 640      24.072 -39.626  53.592  1.00 12.97 LIG-0.65  OA
ENDBRANCH 8 9
ENDBRANCH 7 8
ENDBRANCH 6 7
BRANCH 6 12
ATOM     12  C   GLU Q 640      20.795 -36.803  55.508  1.00  9.90 LIG 0.24  C 
ATOM     13  N   VAL Q 641      19.923 -36.888  56.521  1.00  8.06 LIG-0.35  N 
ATOM     14 H    VAL Q 641      19.112 -37.159  56.420  1.00  8.06 LIG 0.16  HD
ATOM     15 O    GLU Q 640      21.890 -36.225  55.588  1.00  9.48 LIG-0.27  OA
BRANCH 13 16
ATOM     16  CA  VAL Q 641      20.255 -36.530  57.918  1.00  6.68 LIG 0.18  C 
BRANCH 16 17
ATOM     17  CB  VAL Q 641      19.022 -36.579  58.871  1.00  5.82 LIG 0.01  C 
ATOM     18  CG2 VAL Q 641      18.365 -37.937  58.851  1.00  2.95 LIG 0.01  C 
ATOM     19  CG1 VAL Q 641      18.065 -35.490  58.530  1.00  4.23 LIG 0.01  C 
ENDBRANCH 16 17
BRANCH 16 20
ATOM     20  C   VAL Q 641      21.381 -37.411  58.504  1.00  6.62 LIG 0.24  C 
ATOM     21 O    VAL Q 641      21.701 -38.463  57.962  1.00  7.26 LIG-0.27  OA
ATOM     22  N   ASP Q 642      21.966 -36.974  59.609  1.00  6.11 LIG-0.34  N 
ATOM     23 H    ASP Q 642      21.748 -36.242  60.004  1.00  6.11 LIG 0.16  HD
BRANCH 22 24
ATOM     24  CA  ASP Q 642      23.049 -37.703  60.264  1.00  5.85 LIG 0.20  C 
BRANCH 24 25
ATOM     25  CB  ASP Q 642      24.411 -37.107  59.853  1.00  5.86 LIG 0.15  C 
BRANCH 25 26
ATOM     26  CG  ASP Q 642      24.610 -37.070  58.316  1.00  7.09 LIG 0.17  C 
ATOM     27 OD2  ASP Q 642      24.258 -36.043  57.709  1.00  7.75 LIG-0.65  OA
ATOM     28 OD1  ASP Q 642      25.122 -38.040  57.720  1.00  5.16 LIG-0.65  OA
ENDBRANCH 25 26
ENDBRANCH 24 25
BRANCH 24 29
ATOM     29  C   ASP Q 642      22.884 -37.671  61.797  1.00  5.53 LIG 0.20  C 
ATOM     30 O    ASP Q 642      23.833 -37.922  62.558  1.00  4.89 LIG-0.65  OA
ATOM     31 OXT  ASP Q 642      21.797 -37.359  62.313  1.00  5.08 LIG-0.65  OA
ENDBRANCH 24 29
ENDBRANCH 22 24
ENDBRANCH 16 20
ENDBRANCH 13 16
ENDBRANCH 6 12
ENDBRANCH 4 6
ENDBRANCH 1 2
BRANCH 1 32
ATOM     32  CB  GLU Q 639      19.580 -34.852  50.167  1.00 18.28 LIG 0.04  C 
BRANCH 32 33
ATOM     33  CG  GLU Q 639      19.141 -33.405  50.017  1.00 21.94 LIG 0.12  C 
BRANCH 33 34
ATOM     34  CD  GLU Q 639      19.898 -32.467  50.936  1.00 26.00 LIG 0.17  C 
ATOM     35 OE1  GLU Q 639      19.349 -32.100  51.996  1.00 25.44 LIG-0.65  OA
ATOM     36 OE2  GLU Q 639      21.043 -32.098  50.599  1.00 27.11 LIG-0.65  OA
ENDBRANCH 33 34
ENDBRANCH 32 33
ENDBRANCH 1 32
BRANCH 1 37
ATOM     37  N   GLU Q 639      21.784 -35.795  50.701  1.00 19.24 LIG-0.35  N 
ATOM     38  C   VAL Q 638      23.034 -35.440  50.982  1.00 20.97 LIG 0.24  C 
ATOM     39 O    VAL Q 638      23.312 -34.490  51.716  1.00 20.96 LIG-0.27  OA
ATOM     40 H    GLU Q 639      21.576 -36.456  50.192  1.00 19.24 LIG 0.16  HD
BRANCH 38 41
ATOM     41  CA  VAL Q 638      24.134 -36.282  50.344  1.00 22.03 LIG 0.18  C 
BRANCH 41 42
ATOM     42  CB  VAL Q 638      25.289 -35.359  49.915  1.00 22.63 LIG 0.01  C 
ATOM     43  CG1 VAL Q 638      24.746 -34.084  49.287  1.00 22.21 LIG 0.01  C 
ATOM     44  CG2 VAL Q 638      26.180 -35.038  51.105  1.00 20.65 LIG 0.01  C 
ENDBRANCH 41 42
BRANCH 41 45
ATOM     45  N   VAL Q 638      23.620 -37.053  49.218  1.00 23.53 LIG-0.35  N 
ATOM     46 H    VAL Q 638      23.833 -36.687  48.470  1.00 23.53 LIG 0.16  HD
ATOM     47  C   THR Q 637      22.913 -38.178  49.236  1.00 24.82 LIG 0.24  C 
ATOM     48 O    THR Q 637      22.204 -38.509  50.186  1.00 25.63 LIG-0.27  OA
BRANCH 47 49
ATOM     49  CA  THR Q 637      23.020 -39.061  47.997  1.00 25.03 LIG 0.20  C 
BRANCH 49 50
ATOM     50  CB  THR Q 637      24.525 -39.362  48.121  1.00 24.88 LIG 0.15  C 
ATOM     51  CG2 THR Q 637      24.766 -40.863  48.168  1.00 23.89 LIG 0.04  C 
BRANCH 50 52
ATOM     52 OG1  THR Q 637      25.221 -38.805  46.999  1.00 24.10 LIG-0.39  OA
ATOM     53 HG1  THR Q 637      25.616 -38.102  47.235  1.00 24.10 LIG 0.21  HD
ENDBRANCH 50 52
ENDBRANCH 49 50
BRANCH 49 54
ATOM     54  N   THR Q 637      22.766 -37.997  47.033  1.00 26.29 LIG-0.34  N 
ATOM     55 H    THR Q 637      23.444 -37.787  46.548  1.00 26.29 LIG 0.16  HD
ATOM     56  C   PRO Q 636      21.574 -37.417  46.933  1.00 27.07 LIG 0.25  C 
ATOM     57 O    PRO Q 636      20.610 -37.726  47.632  1.00 27.06 LIG-0.27  OA
BRANCH 56 58
ATOM     58  CA  PRO Q 636      21.436 -36.317  45.885  1.00 27.59 LIG 0.35  C 
ATOM     59  CB  PRO Q 636      22.764 -35.576  45.722  1.00 27.63 LIG 0.05  C 
ATOM     60  CG  PRO Q 636      22.372 -34.178  45.405  1.00 27.91 LIG 0.04  C 
ATOM     61  CD  PRO Q 636      21.112 -33.918  46.182  1.00 28.09 LIG 0.32  C 
ATOM     62  N   PRO Q 636      20.520 -35.260  46.323  1.00 27.47 LIG 0.32  N 
ENDBRANCH 56 58
ENDBRANCH 49 54
ENDBRANCH 47 49
ENDBRANCH 41 45
ENDBRANCH 38 41
ENDBRANCH 1 37
TORSDOF 25
ENDMDL
MODEL 8
USER: ADFR SOLUTION from run 104
USER: SCORE 20.163726 LL:  -5.428 LR: -16.720 RR:   0.000 FEB:  -9.263
USER: RMSD 3.251127
USER: SEED 103
USER: STATUS no improvement in best in 8 clusters for 5 generations
USER: GENES 27
USER: genes 0 Translation |==|  0.29068 0.64544 0.37562
USER: genes 1 Rotation |==|  0.58527 0.58460 0.43924 0.98154
USER: genes 2 Torsion [N]-CA--C-[N] |==|  0.16529
USER: genes 3 Torsion [C]-N--CA-[C] |==|  0.59309
USER: genes 4 Torsion [N]-CA--CB-[CG] |==|  0.46196
USER: genes 5 Torsion [CA]-CB--CG-[CD] |==|  0.53827
USER: genes 6 Torsion [CB]-CG--CD-[OE2] |==|  0.61428
USER: genes 7 Torsion [N]-CA--C-[N] |==|  0.31998
USER: genes 8 Torsion [C]-N--CA-[CB] |==|  0.47794
USER: genes 9 Torsion [N]-CA--CB-[CG1] |==|  0.82037
USER: genes 10 Torsion [N]-CA--C-[N] |==|  0.42104
USER: genes 11 Torsion [C]-N--CA-[CB] |==|  0.29474
USER: genes 12 Torsion [N]-CA--CB-[CG] |==|  0.85826
USER: genes 13 Torsion [CA]-CB--CG-[OD2] |==|  0.21521
USER: genes 14 Torsion [N]-CA--C-[O] |==|  0.54385
USER: genes 15 Torsion [C]-CA--CB-[CG] |==|  0.30431
USER: genes 16 Torsion [CA]-CB--CG-[CD] |==|  0.95527
USER: genes 17 Torsion [CB]-CG--CD-[OE2] |==|  0.22209
USER: genes 18 Torsion [C]-CA--N-[C] |==|  0.60325
USER: genes 19 Torsion [N]-C--CA-[N] |==|  0.89655
USER: genes 20 Torsion [C]-CA--CB-[CG1] |==|  0.49643
USER: genes 21 Torsion [C]-CA--N-[C] |==|  0.77095
USER: genes 22 Torsion [N]-C--CA-[N] |==|  0.88934
USER: genes 23 Torsion [C]-CA--CB-[CG2] |==|  0.34646
USER: genes 24 Torsion [CA]-CB--OG1-[HG1] |==|  0.64942
USER: genes 25 Torsion [C]-CA--N-[C] |==|  0.77901
USER: genes 26 Torsion [N]-C--CA-[CB] |==|  0.80610
ROOT
ATOM      1  CA  GLU Q 639      19.599 -34.998  51.264  1.00 17.71 LIG 0.18  C 
ENDROOT
BRANCH 1 2
ATOM      2  C   GLU Q 639      19.585 -36.176  52.233  1.00 15.36 LIG 0.24  C 
ATOM      3 O    GLU Q 639      18.801 -37.113  52.075  1.00 14.90 LIG-0.27  OA
ATOM      4  N   GLU Q 640      20.456 -36.123  53.235  1.00 12.94 LIG-0.35  N 
ATOM      5 H    GLU Q 640      21.008 -35.475  53.356  1.00 12.94 LIG 0.16  HD
BRANCH 4 6
ATOM      6  CA  GLU Q 640      20.545 -37.184  54.230  1.00 11.11 LIG 0.18  C 
BRANCH 6 7
ATOM      7  CB  GLU Q 640      21.581 -38.214  53.769  1.00 10.30 LIG 0.04  C 
BRANCH 7 8
ATOM      8  CG  GLU Q 640      21.984 -39.179  54.896  1.00 11.77 LIG 0.12  C 
BRANCH 8 9
ATOM      9  CD  GLU Q 640      23.243 -40.003  54.590  1.00 13.33 LIG 0.17  C 
ATOM     10 OE2  GLU Q 640      23.255 -41.208  54.913  1.00 13.21 LIG-0.65  OA
ATOM     11 OE1  GLU Q 640      24.221 -39.442  54.034  1.00 12.97 LIG-0.65  OA
ENDBRANCH 8 9
ENDBRANCH 7 8
ENDBRANCH 6 7
BRANCH 6 12
ATOM     12  C   GLU Q 640      20.917 -36.618  55.604  1.00  9.90 LIG 0.24  C 
ATOM     13  N   VAL Q 641      19.995 -36.740  56.567  1.00  8.06 LIG-0.35  N 
ATOM     14 H    VAL Q 641      19.183 -36.978  56.411  1.00  8.06 LIG 0.16  HD
ATOM     15 O    GLU Q 640      22.024 -36.080  55.772  1.00  9.48 LIG-0.27  OA
BRANCH 13 16
ATOM     16  CA  VAL Q 641      20.268 -36.481  57.998  1.00  6.68 LIG 0.18  C 
BRANCH 16 17
ATOM     17  CB  VAL Q 641      18.982 -36.505  58.880  1.00  5.82 LIG 0.01  C 
ATOM     18  CG2 VAL Q 641      18.295 -37.845  58.815  1.00  2.95 LIG 0.01  C 
ATOM     19  CG1 VAL Q 641      18.072 -35.391  58.491  1.00  4.23 LIG 0.01  C 
ENDBRANCH 16 17
BRANCH 16 20
ATOM     20  C   VAL Q 641      21.304 -37.463  58.591  1.00  6.62 LIG 0.24  C 
ATOM     21 O    VAL Q 641      21.425 -38.596  58.139  1.00  7.26 LIG-0.27  OA
ATOM     22  N   ASP Q 642      22.037 -37.018  59.600  1.00  6.11 LIG-0.34  N 
ATOM     23 H    ASP Q 642      21.959 -36.229  59.932  1.00  6.11 LIG 0.16  HD
BRANCH 22 24
ATOM     24  CA  ASP Q 642      23.058 -37.838  60.249  1.00  5.85 LIG 0.20  C 
BRANCH 24 25
ATOM     25  CB  ASP Q 642      24.464 -37.357  59.833  1.00  5.86 LIG 0.15  C 
BRANCH 25 26
ATOM     26  CG  ASP Q 642      24.624 -37.233  58.296  1.00  7.09 LIG 0.17  C 
ATOM     27 OD2  ASP Q 642      24.124 -36.240  57.738  1.00  7.75 LIG-0.65  OA
ATOM     28 OD1  ASP Q 642      25.250 -38.101  57.652  1.00  5.16 LIG-0.65  OA
ENDBRANCH 25 26
ENDBRANCH 24 25
BRANCH 24 29
ATOM     29  C   ASP Q 642      22.903 -37.796  61.783  1.00  5.53 LIG 0.20  C 
ATOM     30 O    ASP Q 642      23.814 -38.172  62.538  1.00  4.89 LIG-0.65  OA
ATOM     31 OXT  ASP Q 642      21.867 -37.350  62.305  1.00  5.08 LIG-0.65  OA
ENDBRANCH 24 29
ENDBRANCH 22 24
ENDBRANCH 16 20
ENDBRANCH 13 16
ENDBRANCH 6 12
ENDBRANCH 4 6
ENDBRANCH 1 2
BRANCH 1 32
ATOM     32  CB  GLU Q 639      18.509 -35.175  50.205  1.00 18.28 LIG 0.04  C 
BRANCH 32 33
ATOM     33  CG  GLU Q 639      17.346 -34.207  50.343  1.00 21.94 LIG 0.12  C 
BRANCH 33 34
ATOM     34  CD  GLU Q 639      17.305 -33.535  51.702  1.00 26.00 LIG 0.17  C 
ATOM     35 OE1  GLU Q 639      16.512 -33.975  52.560  1.00 25.44 LIG-0.65  OA
ATOM     36 OE2  GLU Q 639      18.067 -32.567  51.911  1.00 27.11 LIG-0.65  OA
ENDBRANCH 33 34
ENDBRANCH 32 33
ENDBRANCH 1 32
BRANCH 1 37
ATOM     37  N   GLU Q 639      20.905 -34.851  50.635  1.00 19.24 LIG-0.35  N 
ATOM     38  C   VAL Q 638      21.426 -33.656  50.376  1.00 20.97 LIG 0.24  C 
ATOM     39 O    VAL Q 638      20.851 -32.601  50.648  1.00 20.96 LIG-0.27  OA
ATOM     40 H    GLU Q 639      21.297 -35.595  50.451  1.00 19.24 LIG 0.16  HD
BRANCH 38 41
ATOM     41  CA  VAL Q 638      22.801 -33.648  49.715  1.00 22.03 LIG 0.18  C 
BRANCH 41 42
ATOM     42  CB  VAL Q 638      22.626 -33.752  48.189  1.00 22.63 LIG 0.01  C 
ATOM     43  CG1 VAL Q 638      23.979 -33.715  47.496  1.00 22.21 LIG 0.01  C 
ATOM     44  CG2 VAL Q 638      21.869 -35.021  47.827  1.00 20.65 LIG 0.01  C 
ENDBRANCH 41 42
BRANCH 41 45
ATOM     45  N   VAL Q 638      23.640 -34.722  50.231  1.00 23.53 LIG-0.35  N 
ATOM     46 H    VAL Q 638      23.625 -35.405  49.708  1.00 23.53 LIG 0.16  HD
ATOM     47  C   THR Q 637      24.367 -34.747  51.343  1.00 24.82 LIG 0.24  C 
ATOM     48 O    THR Q 637      24.110 -34.057  52.328  1.00 25.63 LIG-0.27  OA
BRANCH 47 49
ATOM     49  CA  THR Q 637      25.564 -35.693  51.343  1.00 25.03 LIG 0.20  C 
BRANCH 49 50
ATOM     50  CB  THR Q 637      26.447 -34.865  50.390  1.00 24.88 LIG 0.15  C 
ATOM     51  CG2 THR Q 637      27.791 -34.564  51.036  1.00 23.89 LIG 0.04  C 
BRANCH 50 52
ATOM     52 OG1  THR Q 637      26.658 -35.594  49.175  1.00 24.10 LIG-0.39  OA
ATOM     53 HG1  THR Q 637      27.482 -35.653  49.023  1.00 24.10 LIG 0.21  HD
ENDBRANCH 50 52
ENDBRANCH 49 50
BRANCH 49 54
ATOM     54  N   THR Q 637      24.895 -36.781  50.641  1.00 26.29 LIG-0.34  N 
ATOM     55 H    THR Q 637      25.082 -36.832  49.803  1.00 26.29 LIG 0.16  HD
ATOM     56  C   PRO Q 636      24.070 -37.613  51.268  1.00 27.07 LIG 0.25  C 
ATOM     57 O    PRO Q 636      23.811 -37.531  52.468  1.00 27.06 LIG-0.27  OA
BRANCH 56 58
ATOM     58  CA  PRO Q 636      23.433 -38.711  50.422  1.00 27.59 LIG 0.35  C 
ATOM     59  CB  PRO Q 636      22.418 -38.104  49.452  1.00 27.63 LIG 0.05  C 
ATOM     60  CG  PRO Q 636      21.364 -39.144  49.320  1.00 27.91 LIG 0.04  C 
ATOM     61  CD  PRO Q 636      21.265 -39.802  50.667  1.00 28.09 LIG 0.32  C 
ATOM     62  N   PRO Q 636      22.613 -39.617  51.233  1.00 27.47 LIG 0.32  N 
ENDBRANCH 56 58
ENDBRANCH 49 54
ENDBRANCH 47 49
ENDBRANCH 41 45
ENDBRANCH 38 41
ENDBRANCH 1 37
TORSDOF 25
ENDMDL
MODEL 9
USER: ADFR SOLUTION from run 147
USER: SCORE 20.360819 LL:  -5.451 LR: -16.670 RR:   0.000 FEB:  -9.213
USER: RMSD 3.644682
USER: SEED 146
USER: STATUS no improvement in best in 9 clusters for 5 generations
USER: GENES 27
USER: genes 0 Translation |==|  0.34959 0.64043 0.37511
USER: genes 1 Rotation |==|  0.55129 0.53481 0.30970 0.95820
USER: genes 2 Torsion [N]-CA--C-[N] |==|  0.05245
USER: genes 3 Torsion [C]-N--CA-[C] |==|  0.72634
USER: genes 4 Torsion [N]-CA--CB-[CG] |==|  0.00140
USER: genes 5 Torsion [CA]-CB--CG-[CD] |==|  0.24663
USER: genes 6 Torsion [CB]-CG--CD-[OE2] |==|  0.72880
USER: genes 7 Torsion [N]-CA--C-[N] |==|  0.39575
USER: genes 8 Torsion [C]-N--CA-[CB] |==|  0.48348
USER: genes 9 Torsion [N]-CA--CB-[CG1] |==|  0.81180
USER: genes 10 Torsion [N]-CA--C-[N] |==|  0.45070
USER: genes 11 Torsion [C]-N--CA-[CB] |==|  0.27599
USER: genes 12 Torsion [N]-CA--CB-[CG] |==|  0.85211
USER: genes 13 Torsion [CA]-CB--CG-[OD2] |==|  0.25221
USER: genes 14 Torsion [N]-CA--C-[O] |==|  0.54829
USER: genes 15 Torsion [C]-CA--CB-[CG] |==|  0.30531
USER: genes 16 Torsion [CA]-CB--CG-[CD] |==|  0.00748
USER: genes 17 Torsion [CB]-CG--CD-[OE2] |==|  0.22122
USER: genes 18 Torsion [C]-CA--N-[C] |==|  0.70682
USER: genes 19 Torsion [N]-C--CA-[N] |==|  0.01216
USER: genes 20 Torsion [C]-CA--CB-[CG1] |==|  0.88543
USER: genes 21 Torsion [C]-CA--N-[C] |==|  0.60557
USER: genes 22 Torsion [N]-C--CA-[N] |==|  0.83898
USER: genes 23 Torsion [C]-CA--CB-[CG2] |==|  0.36314
USER: genes 24 Torsion [CA]-CB--OG1-[HG1] |==|  0.32304
USER: genes 25 Torsion [C]-CA--N-[C] |==|  0.79922
USER: genes 26 Torsion [N]-C--CA-[CB] |==|  0.86200
ROOT
ATOM      1  CA  GLU Q 639      20.660 -35.092  51.252  1.00 17.71 LIG 0.18  C 
ENDROOT
BRANCH 1 2
ATOM      2  C   GLU Q 639      20.040 -35.844  52.425  1.00 15.36 LIG 0.24  C 
ATOM      3 O    GLU Q 639      18.866 -35.658  52.745  1.00 14.90 LIG-0.27  OA
ATOM      4  N   GLU Q 640      20.838 -36.694  53.064  1.00 12.94 LIG-0.35  N 
ATOM      5 H    GLU Q 640      21.659 -36.833  52.850  1.00 12.94 LIG 0.16  HD
BRANCH 4 6
ATOM      6  CA  GLU Q 640      20.371 -37.476  54.202  1.00 11.11 LIG 0.18  C 
BRANCH 6 7
ATOM      7  CB  GLU Q 640      20.934 -38.896  54.095  1.00 10.30 LIG 0.04  C 
BRANCH 7 8
ATOM      8  CG  GLU Q 640      21.820 -39.080  52.852  1.00 11.77 LIG 0.12  C 
BRANCH 8 9
ATOM      9  CD  GLU Q 640      23.298 -38.737  53.084  1.00 13.33 LIG 0.17  C 
ATOM     10 OE2  GLU Q 640      23.704 -37.607  52.744  1.00 13.21 LIG-0.65  OA
ATOM     11 OE1  GLU Q 640      24.053 -39.600  53.599  1.00 12.97 LIG-0.65  OA
ENDBRANCH 8 9
ENDBRANCH 7 8
ENDBRANCH 6 7
BRANCH 6 12
ATOM     12  C   GLU Q 640      20.789 -36.824  55.523  1.00  9.90 LIG 0.24  C 
ATOM     13  N   VAL Q 641      19.902 -36.890  56.525  1.00  8.06 LIG-0.35  N 
ATOM     14 H    VAL Q 641      19.087 -37.141  56.413  1.00  8.06 LIG 0.16  HD
ATOM     15 O    GLU Q 640      21.897 -36.272  55.618  1.00  9.48 LIG-0.27  OA
BRANCH 13 16
ATOM     16  CA  VAL Q 641      20.225 -36.542  57.927  1.00  6.68 LIG 0.18  C 
BRANCH 16 17
ATOM     17  CB  VAL Q 641      18.979 -36.564  58.864  1.00  5.82 LIG 0.01  C 
ATOM     18  CG2 VAL Q 641      18.300 -37.910  58.845  1.00  2.95 LIG 0.01  C 
ATOM     19  CG1 VAL Q 641      18.045 -35.461  58.503  1.00  4.23 LIG 0.01  C 
ENDBRANCH 16 17
BRANCH 16 20
ATOM     20  C   VAL Q 641      21.323 -37.450  58.526  1.00  6.62 LIG 0.24  C 
ATOM     21 O    VAL Q 641      21.600 -38.524  58.006  1.00  7.26 LIG-0.27  OA
ATOM     22  N   ASP Q 642      21.932 -37.008  59.615  1.00  6.11 LIG-0.34  N 
ATOM     23 H    ASP Q 642      21.744 -36.260  59.994  1.00  6.11 LIG 0.16  HD
BRANCH 22 24
ATOM     24  CA  ASP Q 642      22.994 -37.761  60.279  1.00  5.85 LIG 0.20  C 
BRANCH 24 25
ATOM     25  CB  ASP Q 642      24.373 -37.204  59.868  1.00  5.86 LIG 0.15  C 
BRANCH 25 26
ATOM     26  CG  ASP Q 642      24.558 -37.138  58.330  1.00  7.09 LIG 0.17  C 
ATOM     27 OD2  ASP Q 642      24.228 -36.089  57.750  1.00  7.75 LIG-0.65  OA
ATOM     28 OD1  ASP Q 642      25.038 -38.108  57.708  1.00  5.16 LIG-0.65  OA
ENDBRANCH 25 26
ENDBRANCH 24 25
BRANCH 24 29
ATOM     29  C   ASP Q 642      22.825 -37.713  61.812  1.00  5.53 LIG 0.20  C 
ATOM     30 O    ASP Q 642      23.759 -38.000  62.577  1.00  4.89 LIG-0.65  OA
ATOM     31 OXT  ASP Q 642      21.751 -37.350  62.321  1.00  5.08 LIG-0.65  OA
ENDBRANCH 24 29
ENDBRANCH 22 24
ENDBRANCH 16 20
ENDBRANCH 13 16
ENDBRANCH 6 12
ENDBRANCH 4 6
ENDBRANCH 1 2
BRANCH 1 32
ATOM     32  CB  GLU Q 639      19.640 -34.955  50.119  1.00 18.28 LIG 0.04  C 
BRANCH 32 33
ATOM     33  CG  GLU Q 639      19.134 -33.537  49.907  1.00 21.94 LIG 0.12  C 
BRANCH 33 34
ATOM     34  CD  GLU Q 639      19.801 -32.536  50.830  1.00 26.00 LIG 0.17  C 
ATOM     35 OE1  GLU Q 639      19.185 -32.164  51.850  1.00 25.44 LIG-0.65  OA
ATOM     36 OE2  GLU Q 639      20.943 -32.123  50.536  1.00 27.11 LIG-0.65  OA
ENDBRANCH 33 34
ENDBRANCH 32 33
ENDBRANCH 1 32
BRANCH 1 37
ATOM     37  N   GLU Q 639      21.865 -35.759  50.777  1.00 19.24 LIG-0.35  N 
ATOM     38  C   VAL Q 638      23.078 -35.276  51.031  1.00 20.97 LIG 0.24  C 
ATOM     39 O    VAL Q 638      23.266 -34.246  51.678  1.00 20.96 LIG-0.27  OA
ATOM     40 H    GLU Q 639      21.719 -36.478  50.327  1.00 19.24 LIG 0.16  HD
BRANCH 38 41
ATOM     41  CA  VAL Q 638      24.251 -36.076  50.475  1.00 22.03 LIG 0.18  C 
BRANCH 41 42
ATOM     42  CB  VAL Q 638      25.165 -35.134  49.670  1.00 22.63 LIG 0.01  C 
ATOM     43  CG1 VAL Q 638      24.333 -34.172  48.835  1.00 22.21 LIG 0.01  C 
ATOM     44  CG2 VAL Q 638      26.095 -34.373  50.602  1.00 20.65 LIG 0.01  C 
ENDBRANCH 41 42
BRANCH 41 45
ATOM     45  N   VAL Q 638      23.789 -37.195  49.662  1.00 23.53 LIG-0.35  N 
ATOM     46 H    VAL Q 638      23.098 -36.976  49.200  1.00 23.53 LIG 0.16  HD
ATOM     47  C   THR Q 637      24.293 -38.421  49.575  1.00 24.82 LIG 0.24  C 
ATOM     48 O    THR Q 637      24.945 -38.944  50.477  1.00 25.63 LIG-0.27  OA
BRANCH 47 49
ATOM     49  CA  THR Q 637      24.019 -39.170  48.274  1.00 25.03 LIG 0.20  C 
BRANCH 49 50
ATOM     50  CB  THR Q 637      24.582 -38.095  47.326  1.00 24.88 LIG 0.15  C 
ATOM     51  CG2 THR Q 637      25.544 -38.718  46.326  1.00 23.89 LIG 0.04  C 
BRANCH 50 52
ATOM     52 OG1  THR Q 637      23.506 -37.466  46.620  1.00 24.10 LIG-0.39  OA
ATOM     53 HG1  THR Q 637      23.469 -36.653  46.830  1.00 24.10 LIG 0.21  HD
ENDBRANCH 50 52
ENDBRANCH 49 50
BRANCH 49 54
ATOM     54  N   THR Q 637      22.566 -39.097  48.362  1.00 26.29 LIG-0.34  N 
ATOM     55 H    THR Q 637      22.203 -38.552  47.805  1.00 26.29 LIG 0.16  HD
ATOM     56  C   PRO Q 636      21.883 -39.823  49.242  1.00 27.07 LIG 0.25  C 
ATOM     57 O    PRO Q 636      22.414 -40.599  50.035  1.00 27.06 LIG-0.27  OA
BRANCH 56 58
ATOM     58  CA  PRO Q 636      20.367 -39.656  49.234  1.00 27.59 LIG 0.35  C 
ATOM     59  CB  PRO Q 636      20.000 -38.172  49.276  1.00 27.63 LIG 0.05  C 
ATOM     60  CG  PRO Q 636      18.733 -38.124  50.050  1.00 27.91 LIG 0.04  C 
ATOM     61  CD  PRO Q 636      18.842 -39.209  51.085  1.00 28.09 LIG 0.32  C 
ATOM     62  N   PRO Q 636      19.755 -40.182  50.459  1.00 27.47 LIG 0.32  N 
ENDBRANCH 56 58
ENDBRANCH 49 54
ENDBRANCH 47 49
ENDBRANCH 41 45
ENDBRANCH 38 41
ENDBRANCH 1 37
TORSDOF 25
ENDMDL
MODEL 10
USER: ADFR SOLUTION from run 196
USER: SCORE 20.770292 LL:  -6.412 LR: -16.464 RR:   0.000 FEB:  -9.007
USER: RMSD 3.016664
USER: SEED 195
USER: STATUS no improvement in best in 6 clusters for 5 generations
USER: GENES 27
USER: genes 0 Translation |==|  0.32898 0.62439 0.35972
USER: genes 1 Rotation |==|  0.52021 0.45715 0.45434 0.99565
USER: genes 2 Torsion [N]-CA--C-[N] |==|  0.02073
USER: genes 3 Torsion [C]-N--CA-[C] |==|  0.64771
USER: genes 4 Torsion [N]-CA--CB-[CG] |==|  0.01087
USER: genes 5 Torsion [CA]-CB--CG-[CD] |==|  0.21523
USER: genes 6 Torsion [CB]-CG--CD-[OE2] |==|  0.75741
USER: genes 7 Torsion [N]-CA--C-[N] |==|  0.38590
USER: genes 8 Torsion [C]-N--CA-[CB] |==|  0.46798
USER: genes 9 Torsion [N]-CA--CB-[CG1] |==|  0.81649
USER: genes 10 Torsion [N]-CA--C-[N] |==|  0.44473
USER: genes 11 Torsion [C]-N--CA-[CB] |==|  0.28816
USER: genes 12 Torsion [N]-CA--CB-[CG] |==|  0.86838
USER: genes 13 Torsion [CA]-CB--CG-[OD2] |==|  0.21646
USER: genes 14 Torsion [N]-CA--C-[O] |==|  0.55421
USER: genes 15 Torsion [C]-CA--CB-[CG] |==|  0.49322
USER: genes 16 Torsion [CA]-CB--CG-[CD] |==|  0.27989
USER: genes 17 Torsion [CB]-CG--CD-[OE2] |==|  0.30584
USER: genes 18 Torsion [C]-CA--N-[C] |==|  0.66471
USER: genes 19 Torsion [N]-C--CA-[N] |==|  0.05873
USER: genes 20 Torsion [C]-CA--CB-[CG1] |==|  0.88517
USER: genes 21 Torsion [C]-CA--N-[C] |==|  0.55865
USER: genes 22 Torsion [N]-C--CA-[N] |==|  0.92328
USER: genes 23 Torsion [C]-CA--CB-[CG2] |==|  0.36042
USER: genes 24 Torsion [CA]-CB--OG1-[HG1] |==|  0.42927
USER: genes 25 Torsion [C]-CA--N-[C] |==|  0.74526
USER: genes 26 Torsion [N]-C--CA-[CB] |==|  0.44740
ROOT
ATOM      1  CA  GLU Q 639      20.289 -35.393  50.871  1.00 17.71 LIG 0.18  C 
ENDROOT
BRANCH 1 2
ATOM      2  C   GLU Q 639      19.765 -36.231  52.033  1.00 15.36 LIG 0.24  C 
ATOM      3 O    GLU Q 639      18.572 -36.528  52.109  1.00 14.90 LIG-0.27  OA
ATOM      4  N   GLU Q 640      20.663 -36.607  52.937  1.00 12.94 LIG-0.35  N 
ATOM      5 H    GLU Q 640      21.498 -36.406  52.895  1.00 12.94 LIG 0.16  HD
BRANCH 4 6
ATOM      6  CA  GLU Q 640      20.295 -37.410  54.096  1.00 11.11 LIG 0.18  C 
BRANCH 6 7
ATOM      7  CB  GLU Q 640      20.898 -38.810  53.944  1.00 10.30 LIG 0.04  C 
BRANCH 7 8
ATOM      8  CG  GLU Q 640      21.780 -38.931  52.691  1.00 11.77 LIG 0.12  C 
BRANCH 8 9
ATOM      9  CD  GLU Q 640      23.171 -38.299  52.843  1.00 13.33 LIG 0.17  C 
ATOM     10 OE2  GLU Q 640      23.301 -37.086  52.580  1.00 13.21 LIG-0.65  OA
ATOM     11 OE1  GLU Q 640      24.132 -39.016  53.219  1.00 12.97 LIG-0.65  OA
ENDBRANCH 8 9
ENDBRANCH 7 8
ENDBRANCH 6 7
BRANCH 6 12
ATOM     12  C   GLU Q 640      20.770 -36.751  55.394  1.00  9.90 LIG 0.24  C 
ATOM     13  N   VAL Q 641      19.919 -36.789  56.427  1.00  8.06 LIG-0.35  N 
ATOM     14 H    VAL Q 641      19.096 -37.026  56.347  1.00  8.06 LIG 0.16  HD
ATOM     15 O    GLU Q 640      21.891 -36.219  55.443  1.00  9.48 LIG-0.27  OA
BRANCH 13 16
ATOM     16  CA  VAL Q 641      20.297 -36.431  57.812  1.00  6.68 LIG 0.18  C 
BRANCH 16 17
ATOM     17  CB  VAL Q 641      19.069 -36.284  58.762  1.00  5.82 LIG 0.01  C 
ATOM     18  CG2 VAL Q 641      18.269 -37.560  58.828  1.00  2.95 LIG 0.01  C 
ATOM     19  CG1 VAL Q 641      18.234 -35.121  58.346  1.00  4.23 LIG 0.01  C 
ENDBRANCH 16 17
BRANCH 16 20
ATOM     20  C   VAL Q 641      21.297 -37.433  58.432  1.00  6.62 LIG 0.24  C 
ATOM     21 O    VAL Q 641      21.419 -38.562  57.972  1.00  7.26 LIG-0.27  OA
ATOM     22  N   ASP Q 642      21.998 -37.009  59.472  1.00  6.11 LIG-0.34  N 
ATOM     23 H    ASP Q 642      21.918 -36.222  59.809  1.00  6.11 LIG 0.16  HD
BRANCH 22 24
ATOM     24  CA  ASP Q 642      22.983 -37.849  60.149  1.00  5.85 LIG 0.20  C 
BRANCH 24 25
ATOM     25  CB  ASP Q 642      24.409 -37.421  59.743  1.00  5.86 LIG 0.15  C 
BRANCH 25 26
ATOM     26  CG  ASP Q 642      24.569 -37.242  58.212  1.00  7.09 LIG 0.17  C 
ATOM     27 OD2  ASP Q 642      24.123 -36.200  57.699  1.00  7.75 LIG-0.65  OA
ATOM     28 OD1  ASP Q 642      25.141 -38.116  57.529  1.00  5.16 LIG-0.65  OA
ENDBRANCH 25 26
ENDBRANCH 24 25
BRANCH 24 29
ATOM     29  C   ASP Q 642      22.809 -37.774  61.679  1.00  5.53 LIG 0.20  C 
ATOM     30 O    ASP Q 642      23.723 -38.102  62.453  1.00  4.89 LIG-0.65  OA
ATOM     31 OXT  ASP Q 642      21.754 -37.350  62.179  1.00  5.08 LIG-0.65  OA
ENDBRANCH 24 29
ENDBRANCH 22 24
ENDBRANCH 16 20
ENDBRANCH 13 16
ENDBRANCH 6 12
ENDBRANCH 4 6
ENDBRANCH 1 2
BRANCH 1 32
ATOM     32  CB  GLU Q 639      19.805 -35.977  49.542  1.00 18.28 LIG 0.04  C 
BRANCH 32 33
ATOM     33  CG  GLU Q 639      20.227 -35.176  48.321  1.00 21.94 LIG 0.12  C 
BRANCH 33 34
ATOM     34  CD  GLU Q 639      21.417 -35.786  47.607  1.00 26.00 LIG 0.17  C 
ATOM     35 OE1  GLU Q 639      22.532 -35.747  48.169  1.00 25.44 LIG-0.65  OA
ATOM     36 OE2  GLU Q 639      21.238 -36.305  46.486  1.00 27.11 LIG-0.65  OA
ENDBRANCH 33 34
ENDBRANCH 32 33
ENDBRANCH 1 32
BRANCH 1 37
ATOM     37  N   GLU Q 639      21.743 -35.313  50.895  1.00 19.24 LIG-0.35  N 
ATOM     38  C   VAL Q 638      22.378 -34.148  50.983  1.00 20.97 LIG 0.24  C 
ATOM     39 O    VAL Q 638      21.790 -33.068  51.051  1.00 20.96 LIG-0.27  OA
ATOM     40 H    GLU Q 639      22.142 -36.074  50.848  1.00 19.24 LIG 0.16  HD
BRANCH 38 41
ATOM     41  CA  VAL Q 638      23.902 -34.210  50.998  1.00 22.03 LIG 0.18  C 
BRANCH 41 42
ATOM     42  CB  VAL Q 638      24.463 -32.992  50.243  1.00 22.63 LIG 0.01  C 
ATOM     43  CG1 VAL Q 638      23.649 -32.725  48.986  1.00 22.21 LIG 0.01  C 
ATOM     44  CG2 VAL Q 638      24.479 -31.769  51.146  1.00 20.65 LIG 0.01  C 
ENDBRANCH 41 42
BRANCH 41 45
ATOM     45  N   VAL Q 638      24.384 -35.462  50.427  1.00 23.53 LIG-0.35  N 
ATOM     46 H    VAL Q 638      23.788 -35.821  49.922  1.00 23.53 LIG 0.16  HD
ATOM     47  C   THR Q 637      25.562 -36.053  50.598  1.00 24.82 LIG 0.24  C 
ATOM     48 O    THR Q 637      26.261 -35.880  51.595  1.00 25.63 LIG-0.27  OA
BRANCH 47 49
ATOM     49  CA  THR Q 637      26.019 -36.979  49.475  1.00 25.03 LIG 0.20  C 
BRANCH 49 50
ATOM     50  CB  THR Q 637      26.647 -35.889  48.587  1.00 24.88 LIG 0.15  C 
ATOM     51  CG2 THR Q 637      28.056 -36.286  48.174  1.00 23.89 LIG 0.04  C 
BRANCH 50 52
ATOM     52 OG1  THR Q 637      25.844 -35.702  47.415  1.00 24.10 LIG-0.39  OA
ATOM     53 HG1  THR Q 637      25.958 -34.924  47.120  1.00 24.10 LIG 0.21  HD
ENDBRANCH 50 52
ENDBRANCH 49 50
BRANCH 49 54
ATOM     54  N   THR Q 637      24.680 -37.334  49.019  1.00 26.29 LIG-0.34  N 
ATOM     55 H    THR Q 637      24.353 -36.801  48.429  1.00 26.29 LIG 0.16  HD
ATOM     56  C   PRO Q 636      24.041 -38.398  49.494  1.00 27.07 LIG 0.25  C 
ATOM     57 O    PRO Q 636      24.519 -39.153  50.339  1.00 27.06 LIG-0.27  OA
BRANCH 56 58
ATOM     58  CA  PRO Q 636      22.645 -38.661  48.937  1.00 27.59 LIG 0.35  C 
ATOM     59  CB  PRO Q 636      22.240 -40.113  49.198  1.00 27.63 LIG 0.05  C 
ATOM     60  CG  PRO Q 636      21.396 -40.478  48.030  1.00 27.91 LIG 0.04  C 
ATOM     61  CD  PRO Q 636      21.980 -39.744  46.856  1.00 28.09 LIG 0.32  C 
ATOM     62  N   PRO Q 636      22.616 -38.568  47.474  1.00 27.47 LIG 0.32  N 
ENDBRANCH 56 58
ENDBRANCH 49 54
ENDBRANCH 47 49
ENDBRANCH 41 45
ENDBRANCH 38 41
ENDBRANCH 1 37
TORSDOF 25
ENDMDL
MODEL 11
USER: ADFR SOLUTION from run 187
USER: SCORE 20.704370 LL:  -5.916 LR: -16.400 RR:   0.000 FEB:  -8.943
USER: RMSD 2.339811
USER: SEED 186
USER: STATUS searching
USER: GENES 27
USER: genes 0 Translation |==|  0.30338 0.62859 0.36538
USER: genes 1 Rotation |==|  0.53069 0.47680 0.47579 0.99793
USER: genes 2 Torsion [N]-CA--C-[N] |==|  0.02374
USER: genes 3 Torsion [C]-N--CA-[C] |==|  0.64820
USER: genes 4 Torsion [N]-CA--CB-[CG] |==|  0.01639
USER: genes 5 Torsion [CA]-CB--CG-[CD] |==|  0.23506
USER: genes 6 Torsion [CB]-CG--CD-[OE2] |==|  0.76208
USER: genes 7 Torsion [N]-CA--C-[N] |==|  0.36504
USER: genes 8 Torsion [C]-N--CA-[CB] |==|  0.46940
USER: genes 9 Torsion [N]-CA--CB-[CG1] |==|  0.81116
USER: genes 10 Torsion [N]-CA--C-[N] |==|  0.44353
USER: genes 11 Torsion [C]-N--CA-[CB] |==|  0.28929
USER: genes 12 Torsion [N]-CA--CB-[CG] |==|  0.86638
USER: genes 13 Torsion [CA]-CB--CG-[OD2] |==|  0.22289
USER: genes 14 Torsion [N]-CA--C-[O] |==|  0.56060
USER: genes 15 Torsion [C]-CA--CB-[CG] |==|  0.48288
USER: genes 16 Torsion [CA]-CB--CG-[CD] |==|  0.25076
USER: genes 17 Torsion [CB]-CG--CD-[OE2] |==|  0.68457
USER: genes 18 Torsion [C]-CA--N-[C] |==|  0.65563
USER: genes 19 Torsion [N]-C--CA-[N] |==|  0.15874
USER: genes 20 Torsion [C]-CA--CB-[CG1] |==|  0.44961
USER: genes 21 Torsion [C]-CA--N-[C] |==|  0.76996
USER: genes 22 Torsion [N]-C--CA-[N] |==|  0.35566
USER: genes 23 Torsion [C]-CA--CB-[CG2] |==|  0.37322
USER: genes 24 Torsion [CA]-CB--OG1-[HG1] |==|  0.25452
USER: genes 25 Torsion [C]-CA--N-[C] |==|  0.80596
USER: genes 26 Torsion [N]-C--CA-[CB] |==|  0.09465
ROOT
ATOM      1  CA  GLU Q 639      19.828 -35.314  51.011  1.00 17.71 LIG 0.18  C 
ENDROOT
BRANCH 1 2
ATOM      2  C   GLU Q 639      19.469 -36.240  52.169  1.00 15.36 LIG 0.24  C 
ATOM      3 O    GLU Q 639      18.322 -36.667  52.302  1.00 14.90 LIG-0.27  OA
ATOM      4  N   GLU Q 640      20.457 -36.547  53.003  1.00 12.94 LIG-0.35  N 
ATOM      5 H    GLU Q 640      21.261 -36.255  52.920  1.00 12.94 LIG 0.16  HD
BRANCH 4 6
ATOM      6  CA  GLU Q 640      20.248 -37.422  54.149  1.00 11.11 LIG 0.18  C 
BRANCH 6 7
ATOM      7  CB  GLU Q 640      20.990 -38.741  53.911  1.00 10.30 LIG 0.04  C 
BRANCH 7 8
ATOM      8  CG  GLU Q 640      21.841 -38.707  52.631  1.00 11.77 LIG 0.12  C 
BRANCH 8 9
ATOM      9  CD  GLU Q 640      23.234 -38.092  52.825  1.00 13.33 LIG 0.17  C 
ATOM     10 OE2  GLU Q 640      23.351 -36.853  52.738  1.00 13.21 LIG-0.65  OA
ATOM     11 OE1  GLU Q 640      24.210 -38.849  53.057  1.00 12.97 LIG-0.65  OA
ENDBRANCH 8 9
ENDBRANCH 7 8
ENDBRANCH 6 7
BRANCH 6 12
ATOM     12  C   GLU Q 640      20.727 -36.756  55.443  1.00  9.90 LIG 0.24  C 
ATOM     13  N   VAL Q 641      19.877 -36.786  56.478  1.00  8.06 LIG-0.35  N 
ATOM     14 H    VAL Q 641      19.054 -37.023  56.401  1.00  8.06 LIG 0.16  HD
ATOM     15 O    GLU Q 640      21.848 -36.224  55.486  1.00  9.48 LIG-0.27  OA
BRANCH 13 16
ATOM     16  CA  VAL Q 641      20.259 -36.420  57.860  1.00  6.68 LIG 0.18  C 
BRANCH 16 17
ATOM     17  CB  VAL Q 641      19.034 -36.278  58.814  1.00  5.82 LIG 0.01  C 
ATOM     18  CG2 VAL Q 641      18.218 -37.545  58.853  1.00  2.95 LIG 0.01  C 
ATOM     19  CG1 VAL Q 641      18.214 -35.096  58.426  1.00  4.23 LIG 0.01  C 
ENDBRANCH 16 17
BRANCH 16 20
ATOM     20  C   VAL Q 641      21.268 -37.412  58.479  1.00  6.62 LIG 0.24  C 
ATOM     21 O    VAL Q 641      21.391 -38.545  58.028  1.00  7.26 LIG-0.27  OA
ATOM     22  N   ASP Q 642      21.977 -36.977  59.509  1.00  6.11 LIG-0.34  N 
ATOM     23 H    ASP Q 642      21.897 -36.187  59.841  1.00  6.11 LIG 0.16  HD
BRANCH 22 24
ATOM     24  CA  ASP Q 642      22.972 -37.807  60.184  1.00  5.85 LIG 0.20  C 
BRANCH 24 25
ATOM     25  CB  ASP Q 642      24.393 -37.370  59.770  1.00  5.86 LIG 0.15  C 
BRANCH 25 26
ATOM     26  CG  ASP Q 642      24.548 -37.213  58.236  1.00  7.09 LIG 0.17  C 
ATOM     27 OD2  ASP Q 642      24.131 -36.165  57.714  1.00  7.75 LIG-0.65  OA
ATOM     28 OD1  ASP Q 642      25.090 -38.111  57.559  1.00  5.16 LIG-0.65  OA
ENDBRANCH 25 26
ENDBRANCH 24 25
BRANCH 24 29
ATOM     29  C   ASP Q 642      22.805 -37.728  61.715  1.00  5.53 LIG 0.20  C 
ATOM     30 O    ASP Q 642      23.739 -38.006  62.485  1.00  4.89 LIG-0.65  OA
ATOM     31 OXT  ASP Q 642      21.734 -37.350  62.219  1.00  5.08 LIG-0.65  OA
ENDBRANCH 24 29
ENDBRANCH 22 24
ENDBRANCH 16 20
ENDBRANCH 13 16
ENDBRANCH 6 12
ENDBRANCH 4 6
ENDBRANCH 1 2
BRANCH 1 32
ATOM     32  CB  GLU Q 639      19.303 -35.890  49.694  1.00 18.28 LIG 0.04  C 
BRANCH 32 33
ATOM     33  CG  GLU Q 639      19.481 -34.969  48.499  1.00 21.94 LIG 0.12  C 
BRANCH 33 34
ATOM     34  CD  GLU Q 639      20.800 -35.188  47.785  1.00 26.00 LIG 0.17  C 
ATOM     35 OE1  GLU Q 639      20.987 -36.274  47.198  1.00 25.44 LIG-0.65  OA
ATOM     36 OE2  GLU Q 639      21.650 -34.273  47.810  1.00 27.11 LIG-0.65  OA
ENDBRANCH 33 34
ENDBRANCH 32 33
ENDBRANCH 1 32
BRANCH 1 37
ATOM     37  N   GLU Q 639      21.267 -35.099  50.937  1.00 19.24 LIG-0.35  N 
ATOM     38  C   VAL Q 638      21.794 -33.878  50.968  1.00 20.97 LIG 0.24  C 
ATOM     39 O    VAL Q 638      21.112 -32.857  51.062  1.00 20.96 LIG-0.27  OA
ATOM     40 H    GLU Q 639      21.732 -35.820  50.874  1.00 19.24 LIG 0.16  HD
BRANCH 38 41
ATOM     41  CA  VAL Q 638      23.315 -33.798  50.884  1.00 22.03 LIG 0.18  C 
BRANCH 41 42
ATOM     42  CB  VAL Q 638      23.745 -32.322  50.947  1.00 22.63 LIG 0.01  C 
ATOM     43  CG1 VAL Q 638      25.218 -32.213  51.312  1.00 22.21 LIG 0.01  C 
ATOM     44  CG2 VAL Q 638      23.466 -31.631  49.621  1.00 20.65 LIG 0.01  C 
ENDBRANCH 41 42
BRANCH 41 45
ATOM     45  N   VAL Q 638      23.810 -34.448  49.677  1.00 23.53 LIG-0.35  N 
ATOM     46 H    VAL Q 638      23.951 -33.874  49.052  1.00 23.53 LIG 0.16  HD
ATOM     47  C   THR Q 637      24.046 -35.739  49.465  1.00 24.82 LIG 0.24  C 
ATOM     48 O    THR Q 637      23.477 -36.635  50.086  1.00 25.63 LIG-0.27  OA
BRANCH 47 49
ATOM     49  CA  THR Q 637      25.080 -36.067  48.393  1.00 25.03 LIG 0.20  C 
BRANCH 49 50
ATOM     50  CB  THR Q 637      24.138 -36.865  47.473  1.00 24.88 LIG 0.15  C 
ATOM     51  CG2 THR Q 637      24.322 -36.439  46.024  1.00 23.89 LIG 0.04  C 
BRANCH 50 52
ATOM     52 OG1  THR Q 637      24.418 -38.264  47.595  1.00 24.10 LIG-0.39  OA
ATOM     53 HG1  THR Q 637      23.929 -38.597  48.191  1.00 24.10 LIG 0.21  HD
ENDBRANCH 50 52
ENDBRANCH 49 50
BRANCH 49 54
ATOM     54  N   THR Q 637      25.886 -36.950  49.227  1.00 26.29 LIG-0.34  N 
ATOM     55 H    THR Q 637      25.846 -37.781  49.009  1.00 26.29 LIG 0.16  HD
ATOM     56  C   PRO Q 636      26.615 -36.483  50.236  1.00 27.07 LIG 0.25  C 
ATOM     57 O    PRO Q 636      26.666 -35.292  50.539  1.00 27.06 LIG-0.27  OA
BRANCH 56 58
ATOM     58  CA  PRO Q 636      27.415 -37.509  51.033  1.00 27.59 LIG 0.35  C 
ATOM     59  CB  PRO Q 636      27.898 -38.630  50.112  1.00 27.63 LIG 0.05  C 
ATOM     60  CG  PRO Q 636      27.892 -39.844  50.971  1.00 27.91 LIG 0.04  C 
ATOM     61  CD  PRO Q 636      26.727 -39.680  51.906  1.00 28.09 LIG 0.32  C 
ATOM     62  N   PRO Q 636      26.576 -38.217  52.005  1.00 27.47 LIG 0.32  N 
ENDBRANCH 56 58
ENDBRANCH 49 54
ENDBRANCH 47 49
ENDBRANCH 41 45
ENDBRANCH 38 41
ENDBRANCH 1 37
TORSDOF 25
ENDMDL
MODEL 12
USER: ADFR SOLUTION from run 91
USER: SCORE 20.023630 LL:  -5.456 LR: -16.367 RR:   0.000 FEB:  -8.910
USER: RMSD 3.425618
USER: SEED 90
USER: STATUS 1 or 2 clusters left
USER: GENES 27
USER: genes 0 Translation |==|  0.34181 0.61354 0.36223
USER: genes 1 Rotation |==|  0.50805 0.44919 0.44848 0.99467
USER: genes 2 Torsion [N]-CA--C-[N] |==|  0.00589
USER: genes 3 Torsion [C]-N--CA-[C] |==|  0.66749
USER: genes 4 Torsion [N]-CA--CB-[CG] |==|  0.01433
USER: genes 5 Torsion [CA]-CB--CG-[CD] |==|  0.37638
USER: genes 6 Torsion [CB]-CG--CD-[OE2] |==|  0.79595
USER: genes 7 Torsion [N]-CA--C-[N] |==|  0.40728
USER: genes 8 Torsion [C]-N--CA-[CB] |==|  0.45619
USER: genes 9 Torsion [N]-CA--CB-[CG1] |==|  0.80207
USER: genes 10 Torsion [N]-CA--C-[N] |==|  0.43748
USER: genes 11 Torsion [C]-N--CA-[CB] |==|  0.29483
USER: genes 12 Torsion [N]-CA--CB-[CG] |==|  0.86426
USER: genes 13 Torsion [CA]-CB--CG-[OD2] |==|  0.23019
USER: genes 14 Torsion [N]-CA--C-[O] |==|  0.56870
USER: genes 15 Torsion [C]-CA--CB-[CG] |==|  0.54508
USER: genes 16 Torsion [CA]-CB--CG-[CD] |==|  0.22693
USER: genes 17 Torsion [CB]-CG--CD-[OE2] |==|  0.50928
USER: genes 18 Torsion [C]-CA--N-[C] |==|  0.67540
USER: genes 19 Torsion [N]-C--CA-[N] |==|  0.06029
USER: genes 20 Torsion [C]-CA--CB-[CG1] |==|  0.88670
USER: genes 21 Torsion [C]-CA--N-[C] |==|  0.75207
USER: genes 22 Torsion [N]-C--CA-[N] |==|  0.98745
USER: genes 23 Torsion [C]-CA--CB-[CG2] |==|  0.83600
USER: genes 24 Torsion [CA]-CB--OG1-[HG1] |==|  0.07422
USER: genes 25 Torsion [C]-CA--N-[C] |==|  0.67387
USER: genes 26 Torsion [N]-C--CA-[CB] |==|  0.88777
ROOT
ATOM      1  CA  GLU Q 639      20.520 -35.596  50.933  1.00 17.71 LIG 0.18  C 
ENDROOT
BRANCH 1 2
ATOM      2  C   GLU Q 639      19.941 -36.360  52.120  1.00 15.36 LIG 0.24  C 
ATOM      3 O    GLU Q 639      18.727 -36.535  52.226  1.00 14.90 LIG-0.27  OA
ATOM      4  N   GLU Q 640      20.818 -36.813  53.010  1.00 12.94 LIG-0.35  N 
ATOM      5 H    GLU Q 640      21.668 -36.697  52.947  1.00 12.94 LIG 0.16  HD
BRANCH 4 6
ATOM      6  CA  GLU Q 640      20.398 -37.558  54.189  1.00 11.11 LIG 0.18  C 
BRANCH 6 7
ATOM      7  CB  GLU Q 640      21.005 -38.964  54.133  1.00 10.30 LIG 0.04  C 
BRANCH 7 8
ATOM      8  CG  GLU Q 640      21.964 -39.137  52.944  1.00 11.77 LIG 0.12  C 
BRANCH 8 9
ATOM      9  CD  GLU Q 640      23.275 -39.852  53.300  1.00 13.33 LIG 0.17  C 
ATOM     10 OE2  GLU Q 640      24.131 -39.226  53.958  1.00 13.21 LIG-0.65  OA
ATOM     11 OE1  GLU Q 640      23.451 -41.035  52.915  1.00 12.97 LIG-0.65  OA
ENDBRANCH 8 9
ENDBRANCH 7 8
ENDBRANCH 6 7
BRANCH 6 12
ATOM     12  C   GLU Q 640      20.818 -36.837  55.473  1.00  9.90 LIG 0.24  C 
ATOM     13  N   VAL Q 641      19.993 -36.959  56.521  1.00  8.06 LIG-0.35  N 
ATOM     14 H    VAL Q 641      19.200 -37.287  56.458  1.00  8.06 LIG 0.16  HD
ATOM     15 O    GLU Q 640      21.872 -36.182  55.498  1.00  9.48 LIG-0.27  OA
BRANCH 13 16
ATOM     16  CA  VAL Q 641      20.351 -36.546  57.896  1.00  6.68 LIG 0.18  C 
BRANCH 16 17
ATOM     17  CB  VAL Q 641      19.115 -36.425  58.840  1.00  5.82 LIG 0.01  C 
ATOM     18  CG2 VAL Q 641      18.300 -37.694  58.843  1.00  2.95 LIG 0.01  C 
ATOM     19  CG1 VAL Q 641      18.298 -35.236  58.467  1.00  4.23 LIG 0.01  C 
ENDBRANCH 16 17
BRANCH 16 20
ATOM     20  C   VAL Q 641      21.391 -37.485  58.546  1.00  6.62 LIG 0.24  C 
ATOM     21 O    VAL Q 641      21.531 -38.637  58.149  1.00  7.26 LIG-0.27  OA
ATOM     22  N   ASP Q 642      22.108 -36.985  59.540  1.00  6.11 LIG-0.34  N 
ATOM     23 H    ASP Q 642      22.017 -36.182  59.834  1.00  6.11 LIG 0.16  HD
BRANCH 22 24
ATOM     24  CA  ASP Q 642      23.132 -37.760  60.238  1.00  5.85 LIG 0.20  C 
BRANCH 24 25
ATOM     25  CB  ASP Q 642      24.536 -37.282  59.815  1.00  5.86 LIG 0.15  C 
BRANCH 25 26
ATOM     26  CG  ASP Q 642      24.695 -37.177  58.276  1.00  7.09 LIG 0.17  C 
ATOM     27 OD2  ASP Q 642      24.284 -36.144  57.719  1.00  7.75 LIG-0.65  OA
ATOM     28 OD1  ASP Q 642      25.234 -38.099  57.631  1.00  5.16 LIG-0.65  OA
ENDBRANCH 25 26
ENDBRANCH 24 25
BRANCH 24 29
ATOM     29  C   ASP Q 642      22.958 -37.649  61.766  1.00  5.53 LIG 0.20  C 
ATOM     30 O    ASP Q 642      23.912 -37.820  62.542  1.00  4.89 LIG-0.65  OA
ATOM     31 OXT  ASP Q 642      21.858 -37.350  62.261  1.00  5.08 LIG-0.65  OA
ENDBRANCH 24 29
ENDBRANCH 22 24
ENDBRANCH 16 20
ENDBRANCH 13 16
ENDBRANCH 6 12
ENDBRANCH 4 6
ENDBRANCH 1 2
BRANCH 1 32
ATOM     32  CB  GLU Q 639      20.053 -36.231  49.621  1.00 18.28 LIG 0.04  C 
BRANCH 32 33
ATOM     33  CG  GLU Q 639      20.860 -35.808  48.405  1.00 21.94 LIG 0.12  C 
BRANCH 33 34
ATOM     34  CD  GLU Q 639      22.151 -36.590  48.262  1.00 26.00 LIG 0.17  C 
ATOM     35 OE1  GLU Q 639      22.385 -37.507  49.076  1.00 25.44 LIG-0.65  OA
ATOM     36 OE2  GLU Q 639      22.932 -36.288  47.334  1.00 27.11 LIG-0.65  OA
ENDBRANCH 33 34
ENDBRANCH 32 33
ENDBRANCH 1 32
BRANCH 1 37
ATOM     37  N   GLU Q 639      21.975 -35.556  50.992  1.00 19.24 LIG-0.35  N 
ATOM     38  C   VAL Q 638      22.639 -34.411  51.117  1.00 20.97 LIG 0.24  C 
ATOM     39 O    VAL Q 638      22.078 -33.317  51.191  1.00 20.96 LIG-0.27  OA
ATOM     40 H    GLU Q 639      22.354 -36.327  50.941  1.00 19.24 LIG 0.16  HD
BRANCH 38 41
ATOM     41  CA  VAL Q 638      24.159 -34.515  51.167  1.00 22.03 LIG 0.18  C 
BRANCH 41 42
ATOM     42  CB  VAL Q 638      24.771 -33.293  50.460  1.00 22.63 LIG 0.01  C 
ATOM     43  CG1 VAL Q 638      23.987 -32.960  49.199  1.00 22.21 LIG 0.01  C 
ATOM     44  CG2 VAL Q 638      24.809 -32.099  51.402  1.00 20.65 LIG 0.01  C 
ENDBRANCH 41 42
BRANCH 41 45
ATOM     45  N   VAL Q 638      24.622 -35.763  50.573  1.00 23.53 LIG-0.35  N 
ATOM     46 H    VAL Q 638      24.778 -35.666  49.732  1.00 23.53 LIG 0.16  HD
ATOM     47  C   THR Q 637      24.811 -36.942  51.157  1.00 24.82 LIG 0.24  C 
ATOM     48 O    THR Q 637      24.215 -37.289  52.176  1.00 25.63 LIG-0.27  OA
BRANCH 47 49
ATOM     49  CA  THR Q 637      25.824 -37.868  50.492  1.00 25.03 LIG 0.20  C 
BRANCH 49 50
ATOM     50  CB  THR Q 637      26.923 -37.730  51.561  1.00 24.88 LIG 0.15  C 
ATOM     51  CG2 THR Q 637      27.346 -36.276  51.706  1.00 23.89 LIG 0.04  C 
BRANCH 50 52
ATOM     52 OG1  THR Q 637      26.433 -38.209  52.819  1.00 24.10 LIG-0.39  OA
ATOM     53 HG1  THR Q 637      25.832 -38.781  52.687  1.00 24.10 LIG 0.21  HD
ENDBRANCH 50 52
ENDBRANCH 49 50
BRANCH 49 54
ATOM     54  N   THR Q 637      26.083 -37.007  49.344  1.00 26.29 LIG-0.34  N 
ATOM     55 H    THR Q 637      26.426 -36.244  49.543  1.00 26.29 LIG 0.16  HD
ATOM     56  C   PRO Q 636      25.803 -37.394  48.104  1.00 27.07 LIG 0.25  C 
ATOM     57 O    PRO Q 636      25.312 -38.489  47.832  1.00 27.06 LIG-0.27  OA
BRANCH 56 58
ATOM     58  CA  PRO Q 636      26.121 -36.402  46.990  1.00 27.59 LIG 0.35  C 
ATOM     59  CB  PRO Q 636      25.750 -34.984  47.427  1.00 27.63 LIG 0.05  C 
ATOM     60  CG  PRO Q 636      25.316 -34.312  46.174  1.00 27.91 LIG 0.04  C 
ATOM     61  CD  PRO Q 636      24.635 -35.371  45.354  1.00 28.09 LIG 0.32  C 
ATOM     62  N   PRO Q 636      25.276 -36.617  45.811  1.00 27.47 LIG 0.32  N 
ENDBRANCH 56 58
ENDBRANCH 49 54
ENDBRANCH 47 49
ENDBRANCH 41 45
ENDBRANCH 38 41
ENDBRANCH 1 37
TORSDOF 25
ENDMDL
MODEL 13
USER: ADFR SOLUTION from run 21
USER: SCORE 21.536580 LL:  -6.318 LR: -16.371 RR:   0.000 FEB:  -8.913
USER: RMSD 2.402743
USER: SEED 20
USER: STATUS no improvement in best in 4 clusters for 5 generations
USER: GENES 27
USER: genes 0 Translation |==|  0.39333 0.63315 0.37699
USER: genes 1 Rotation |==|  0.54811 0.48324 0.30674 0.95832
USER: genes 2 Torsion [N]-CA--C-[N] |==|  0.03646
USER: genes 3 Torsion [C]-N--CA-[C] |==|  0.71849
USER: genes 4 Torsion [N]-CA--CB-[CG] |==|  0.29060
USER: genes 5 Torsion [CA]-CB--CG-[CD] |==|  0.63620
USER: genes 6 Torsion [CB]-CG--CD-[OE2] |==|  0.81574
USER: genes 7 Torsion [N]-CA--C-[N] |==|  0.42666
USER: genes 8 Torsion [C]-N--CA-[CB] |==|  0.47222
USER: genes 9 Torsion [N]-CA--CB-[CG1] |==|  0.81534
USER: genes 10 Torsion [N]-CA--C-[N] |==|  0.41186
USER: genes 11 Torsion [C]-N--CA-[CB] |==|  0.30631
USER: genes 12 Torsion [N]-CA--CB-[CG] |==|  0.86131
USER: genes 13 Torsion [CA]-CB--CG-[OD2] |==|  0.20368
USER: genes 14 Torsion [N]-CA--C-[O] |==|  0.55200
USER: genes 15 Torsion [C]-CA--CB-[CG] |==|  0.30275
USER: genes 16 Torsion [CA]-CB--CG-[CD] |==|  0.99732
USER: genes 17 Torsion [CB]-CG--CD-[OE2] |==|  0.70882
USER: genes 18 Torsion [C]-CA--N-[C] |==|  0.70492
USER: genes 19 Torsion [N]-C--CA-[N] |==|  0.95728
USER: genes 20 Torsion [C]-CA--CB-[CG1] |==|  0.93629
USER: genes 21 Torsion [C]-CA--N-[C] |==|  0.79385
USER: genes 22 Torsion [N]-C--CA-[N] |==|  0.33898
USER: genes 23 Torsion [C]-CA--CB-[CG2] |==|  0.17553
USER: genes 24 Torsion [CA]-CB--OG1-[HG1] |==|  0.94364
USER: genes 25 Torsion [C]-CA--N-[C] |==|  0.78656
USER: genes 26 Torsion [N]-C--CA-[CB] |==|  0.06276
ROOT
ATOM      1  CA  GLU Q 639      21.447 -35.228  51.299  1.00 17.71 LIG 0.18  C 
ENDROOT
BRANCH 1 2
ATOM      2  C   GLU Q 639      20.597 -35.854  52.400  1.00 15.36 LIG 0.24  C 
ATOM      3 O    GLU Q 639      19.418 -35.532  52.546  1.00 14.90 LIG-0.27  OA
ATOM      4  N   GLU Q 640      21.204 -36.749  53.172  1.00 12.94 LIG-0.35  N 
ATOM      5 H    GLU Q 640      22.026 -36.982  53.081  1.00 12.94 LIG 0.16  HD
BRANCH 4 6
ATOM      6  CA  GLU Q 640      20.506 -37.421  54.261  1.00 11.11 LIG 0.18  C 
BRANCH 6 7
ATOM      7  CB  GLU Q 640      20.865 -38.909  54.240  1.00 10.30 LIG 0.04  C 
BRANCH 7 8
ATOM      8  CG  GLU Q 640      21.857 -39.285  55.353  1.00 11.77 LIG 0.12  C 
BRANCH 8 9
ATOM      9  CD  GLU Q 640      23.059 -40.106  54.866  1.00 13.33 LIG 0.17  C 
ATOM     10 OE2  GLU Q 640      22.853 -41.260  54.436  1.00 13.21 LIG-0.65  OA
ATOM     11 OE1  GLU Q 640      24.209 -39.601  54.920  1.00 12.97 LIG-0.65  OA
ENDBRANCH 8 9
ENDBRANCH 7 8
ENDBRANCH 6 7
BRANCH 6 12
ATOM     12  C   GLU Q 640      20.864 -36.795  55.612  1.00  9.90 LIG 0.24  C 
ATOM     13  N   VAL Q 641      19.948 -36.910  56.583  1.00  8.06 LIG-0.35  N 
ATOM     14 H    VAL Q 641      19.144 -37.178  56.438  1.00  8.06 LIG 0.16  HD
ATOM     15 O    GLU Q 640      21.954 -36.218  55.757  1.00  9.48 LIG-0.27  OA
BRANCH 13 16
ATOM     16  CA  VAL Q 641      20.217 -36.592  58.003  1.00  6.68 LIG 0.18  C 
BRANCH 16 17
ATOM     17  CB  VAL Q 641      18.927 -36.572  58.879  1.00  5.82 LIG 0.01  C 
ATOM     18  CG2 VAL Q 641      18.211 -37.897  58.833  1.00  2.95 LIG 0.01  C 
ATOM     19  CG1 VAL Q 641      18.044 -35.444  58.468  1.00  4.23 LIG 0.01  C 
ENDBRANCH 16 17
BRANCH 16 20
ATOM     20  C   VAL Q 641      21.246 -37.552  58.641  1.00  6.62 LIG 0.24  C 
ATOM     21 O    VAL Q 641      21.321 -38.720  58.279  1.00  7.26 LIG-0.27  OA
ATOM     22  N   ASP Q 642      22.023 -37.049  59.587  1.00  6.11 LIG-0.34  N 
ATOM     23 H    ASP Q 642      21.978 -36.233  59.856  1.00  6.11 LIG 0.16  HD
BRANCH 22 24
ATOM     24  CA  ASP Q 642      23.044 -37.842  60.268  1.00  5.85 LIG 0.20  C 
BRANCH 24 25
ATOM     25  CB  ASP Q 642      24.450 -37.366  59.848  1.00  5.86 LIG 0.15  C 
BRANCH 25 26
ATOM     26  CG  ASP Q 642      24.613 -37.262  58.310  1.00  7.09 LIG 0.17  C 
ATOM     27 OD2  ASP Q 642      24.048 -36.320  57.729  1.00  7.75 LIG-0.65  OA
ATOM     28 OD1  ASP Q 642      25.305 -38.095  57.689  1.00  5.16 LIG-0.65  OA
ENDBRANCH 25 26
ENDBRANCH 24 25
BRANCH 24 29
ATOM     29  C   ASP Q 642      22.876 -37.755  61.799  1.00  5.53 LIG 0.20  C 
ATOM     30 O    ASP Q 642      23.802 -38.052  62.571  1.00  4.89 LIG-0.65  OA
ATOM     31 OXT  ASP Q 642      21.814 -37.350  62.300  1.00  5.08 LIG-0.65  OA
ENDBRANCH 24 29
ENDBRANCH 22 24
ENDBRANCH 16 20
ENDBRANCH 13 16
ENDBRANCH 6 12
ENDBRANCH 4 6
ENDBRANCH 1 2
BRANCH 1 32
ATOM     32  CB  GLU Q 639      20.655 -35.175  49.990  1.00 18.28 LIG 0.04  C 
BRANCH 32 33
ATOM     33  CG  GLU Q 639      20.233 -33.774  49.577  1.00 21.94 LIG 0.12  C 
BRANCH 33 34
ATOM     34  CD  GLU Q 639      20.670 -32.717  50.571  1.00 26.00 LIG 0.17  C 
ATOM     35 OE1  GLU Q 639      21.872 -32.380  50.592  1.00 25.44 LIG-0.65  OA
ATOM     36 OE2  GLU Q 639      19.811 -32.222  51.331  1.00 27.11 LIG-0.65  OA
ENDBRANCH 33 34
ENDBRANCH 32 33
ENDBRANCH 1 32
BRANCH 1 37
ATOM     37  N   GLU Q 639      22.691 -35.964  51.113  1.00 19.24 LIG-0.35  N 
ATOM     38  C   VAL Q 638      23.858 -35.481  51.530  1.00 20.97 LIG 0.24  C 
ATOM     39 O    VAL Q 638      23.968 -34.393  52.096  1.00 20.96 LIG-0.27  OA
ATOM     40 H    GLU Q 639      22.600 -36.723  50.718  1.00 19.24 LIG 0.16  HD
BRANCH 38 41
ATOM     41  CA  VAL Q 638      25.080 -36.356  51.272  1.00 22.03 LIG 0.18  C 
BRANCH 41 42
ATOM     42  CB  VAL Q 638      25.928 -35.719  50.157  1.00 22.63 LIG 0.01  C 
ATOM     43  CG1 VAL Q 638      25.073 -34.801  49.297  1.00 22.21 LIG 0.01  C 
ATOM     44  CG2 VAL Q 638      27.103 -34.959  50.752  1.00 20.65 LIG 0.01  C 
ENDBRANCH 41 42
BRANCH 41 45
ATOM     45  N   VAL Q 638      24.691 -37.719  50.935  1.00 23.53 LIG-0.35  N 
ATOM     46 H    VAL Q 638      24.798 -37.873  50.095  1.00 23.53 LIG 0.16  HD
ATOM     47  C   THR Q 637      24.225 -38.672  51.735  1.00 24.82 LIG 0.24  C 
ATOM     48 O    THR Q 637      23.633 -38.435  52.787  1.00 25.63 LIG-0.27  OA
BRANCH 47 49
ATOM     49  CA  THR Q 637      24.462 -40.109  51.280  1.00 25.03 LIG 0.20  C 
BRANCH 49 50
ATOM     50  CB  THR Q 637      22.991 -40.561  51.338  1.00 24.88 LIG 0.15  C 
ATOM     51  CG2 THR Q 637      22.152 -39.773  50.344  1.00 23.89 LIG 0.04  C 
BRANCH 50 52
ATOM     52 OG1  THR Q 637      22.905 -41.957  51.029  1.00 24.10 LIG-0.39  OA
ATOM     53 HG1  THR Q 637      23.597 -42.196  50.616  1.00 24.10 LIG 0.21  HD
ENDBRANCH 50 52
ENDBRANCH 49 50
BRANCH 49 54
ATOM     54  N   THR Q 637      25.196 -40.523  52.470  1.00 26.29 LIG-0.34  N 
ATOM     55 H    THR Q 637      24.739 -41.000  53.021  1.00 26.29 LIG 0.16  HD
ATOM     56  C   PRO Q 636      26.465 -40.179  52.662  1.00 27.07 LIG 0.25  C 
ATOM     57 O    PRO Q 636      27.108 -39.496  51.866  1.00 27.06 LIG-0.27  OA
BRANCH 56 58
ATOM     58  CA  PRO Q 636      27.121 -40.675  53.946  1.00 27.59 LIG 0.35  C 
ATOM     59  CB  PRO Q 636      26.380 -41.905  54.474  1.00 27.63 LIG 0.05  C 
ATOM     60  CG  PRO Q 636      26.497 -41.802  55.952  1.00 27.91 LIG 0.04  C 
ATOM     61  CD  PRO Q 636      26.453 -40.334  56.267  1.00 28.09 LIG 0.32  C 
ATOM     62  N   PRO Q 636      26.978 -39.709  55.040  1.00 27.47 LIG 0.32  N 
ENDBRANCH 56 58
ENDBRANCH 49 54
ENDBRANCH 47 49
ENDBRANCH 41 45
ENDBRANCH 38 41
ENDBRANCH 1 37
TORSDOF 25
ENDMDL
MODEL 14
USER: ADFR SOLUTION from run 140
USER: SCORE 21.202855 LL:  -6.054 LR: -16.220 RR:   0.000 FEB:  -8.763
USER: RMSD 4.213404
USER: SEED 139
USER: STATUS searching
USER: GENES 27
USER: genes 0 Translation |==|  0.26845 0.63990 0.36737
USER: genes 1 Rotation |==|  0.55380 0.52973 0.49553 0.99619
USER: genes 2 Torsion [N]-CA--C-[N] |==|  0.04701
USER: genes 3 Torsion [C]-N--CA-[C] |==|  0.64381
USER: genes 4 Torsion [N]-CA--CB-[CG] |==|  0.03261
USER: genes 5 Torsion [CA]-CB--CG-[CD] |==|  0.39639
USER: genes 6 Torsion [CB]-CG--CD-[OE2] |==|  0.87947
USER: genes 7 Torsion [N]-CA--C-[N] |==|  0.30984
USER: genes 8 Torsion [C]-N--CA-[CB] |==|  0.51925
USER: genes 9 Torsion [N]-CA--CB-[CG1] |==|  0.79454
USER: genes 10 Torsion [N]-CA--C-[N] |==|  0.38525
USER: genes 11 Torsion [C]-N--CA-[CB] |==|  0.85061
USER: genes 12 Torsion [N]-CA--CB-[CG] |==|  0.76451
USER: genes 13 Torsion [CA]-CB--CG-[OD2] |==|  0.72597
USER: genes 14 Torsion [N]-CA--C-[O] |==|  0.75397
USER: genes 15 Torsion [C]-CA--CB-[CG] |==|  0.52949
USER: genes 16 Torsion [CA]-CB--CG-[CD] |==|  0.24082
USER: genes 17 Torsion [CB]-CG--CD-[OE2] |==|  0.95111
USER: genes 18 Torsion [C]-CA--N-[C] |==|  0.67226
USER: genes 19 Torsion [N]-C--CA-[N] |==|  0.96104
USER: genes 20 Torsion [C]-CA--CB-[CG1] |==|  0.01144
USER: genes 21 Torsion [C]-CA--N-[C] |==|  0.74047
USER: genes 22 Torsion [N]-C--CA-[N] |==|  0.01922
USER: genes 23 Torsion [C]-CA--CB-[CG2] |==|  0.52380
USER: genes 24 Torsion [CA]-CB--OG1-[HG1] |==|  0.89725
USER: genes 25 Torsion [C]-CA--N-[C] |==|  0.70244
USER: genes 26 Torsion [N]-C--CA-[CB] |==|  0.02264
ROOT
ATOM      1  CA  GLU Q 639      19.199 -35.102  51.060  1.00 17.71 LIG 0.18  C 
ENDROOT
BRANCH 1 2
ATOM      2  C   GLU Q 639      19.164 -36.160  52.159  1.00 15.36 LIG 0.24  C 
ATOM      3 O    GLU Q 639      18.148 -36.823  52.363  1.00 14.90 LIG-0.27  OA
ATOM      4  N   GLU Q 640      20.281 -36.311  52.862  1.00 12.94 LIG-0.35  N 
ATOM      5 H    GLU Q 640      20.997 -35.855  52.730  1.00 12.94 LIG 0.16  HD
BRANCH 4 6
ATOM      6  CA  GLU Q 640      20.381 -37.287  53.940  1.00 11.11 LIG 0.18  C 
BRANCH 6 7
ATOM      7  CB  GLU Q 640      21.307 -38.425  53.498  1.00 10.30 LIG 0.04  C 
BRANCH 7 8
ATOM      8  CG  GLU Q 640      22.075 -38.083  52.211  1.00 11.77 LIG 0.12  C 
BRANCH 8 9
ATOM      9  CD  GLU Q 640      23.517 -38.609  52.187  1.00 13.33 LIG 0.17  C 
ATOM     10 OE2  GLU Q 640      24.210 -38.484  53.218  1.00 13.21 LIG-0.65  OA
ATOM     11 OE1  GLU Q 640      23.958 -39.140  51.137  1.00 12.97 LIG-0.65  OA
ENDBRANCH 8 9
ENDBRANCH 7 8
ENDBRANCH 6 7
BRANCH 6 12
ATOM     12  C   GLU Q 640      20.898 -36.635  55.226  1.00  9.90 LIG 0.24  C 
ATOM     13  N   VAL Q 641      20.026 -36.540  56.237  1.00  8.06 LIG-0.35  N 
ATOM     14 H    VAL Q 641      19.184 -36.688  56.145  1.00  8.06 LIG 0.16  HD
ATOM     15 O    GLU Q 640      22.069 -36.226  55.284  1.00  9.48 LIG-0.27  OA
BRANCH 13 16
ATOM     16  CA  VAL Q 641      20.411 -36.172  57.618  1.00  6.68 LIG 0.18  C 
BRANCH 16 17
ATOM     17  CB  VAL Q 641      19.237 -36.300  58.635  1.00  5.82 LIG 0.01  C 
ATOM     18  CG2 VAL Q 641      18.573 -37.651  58.541  1.00  2.95 LIG 0.01  C 
ATOM     19  CG1 VAL Q 641      18.266 -35.186  58.444  1.00  4.23 LIG 0.01  C 
ENDBRANCH 16 17
BRANCH 16 20
ATOM     20  C   VAL Q 641      21.617 -36.988  58.134  1.00  6.62 LIG 0.24  C 
ATOM     21 O    VAL Q 641      21.705 -38.189  57.907  1.00  7.26 LIG-0.27  OA
ATOM     22  N   ASP Q 642      22.532 -36.327  58.827  1.00  6.11 LIG-0.34  N 
ATOM     23 H    ASP Q 642      22.481 -35.486  59.000  1.00  6.11 LIG 0.16  HD
BRANCH 22 24
ATOM     24  CA  ASP Q 642      23.726 -36.973  59.366  1.00  5.85 LIG 0.20  C 
BRANCH 24 25
ATOM     25  CB  ASP Q 642      23.325 -38.193  60.221  1.00  5.86 LIG 0.15  C 
BRANCH 25 26
ATOM     26  CG  ASP Q 642      22.972 -37.812  61.682  1.00  7.09 LIG 0.17  C 
ATOM     27 OD2  ASP Q 642      23.849 -37.969  62.550  1.00  7.75 LIG-0.65  OA
ATOM     28 OD1  ASP Q 642      21.847 -37.351  61.961  1.00  5.16 LIG-0.65  OA
ENDBRANCH 25 26
ENDBRANCH 24 25
BRANCH 24 29
ATOM     29  C   ASP Q 642      24.682 -37.396  58.232  1.00  5.53 LIG 0.20  C 
ATOM     30 O    ASP Q 642      24.584 -38.504  57.680  1.00  4.89 LIG-0.65  OA
ATOM     31 OXT  ASP Q 642      25.558 -36.619  57.817  1.00  5.08 LIG-0.65  OA
ENDBRANCH 24 29
ENDBRANCH 22 24
ENDBRANCH 16 20
ENDBRANCH 13 16
ENDBRANCH 6 12
ENDBRANCH 4 6
ENDBRANCH 1 2
BRANCH 1 32
ATOM     32  CB  GLU Q 639      18.467 -35.611  49.816  1.00 18.28 LIG 0.04  C 
BRANCH 32 33
ATOM     33  CG  GLU Q 639      18.660 -34.743  48.584  1.00 21.94 LIG 0.12  C 
BRANCH 33 34
ATOM     34  CD  GLU Q 639      19.905 -35.113  47.800  1.00 26.00 LIG 0.17  C 
ATOM     35 OE1  GLU Q 639      20.003 -34.719  46.619  1.00 25.44 LIG-0.65  OA
ATOM     36 OE2  GLU Q 639      20.785 -35.795  48.366  1.00 27.11 LIG-0.65  OA
ENDBRANCH 33 34
ENDBRANCH 32 33
ENDBRANCH 1 32
BRANCH 1 37
ATOM     37  N   GLU Q 639      20.569 -34.731  50.731  1.00 19.24 LIG-0.35  N 
ATOM     38  C   VAL Q 638      21.019 -33.491  50.902  1.00 20.97 LIG 0.24  C 
ATOM     39 O    VAL Q 638      20.318 -32.580  51.346  1.00 20.96 LIG-0.27  OA
ATOM     40 H    GLU Q 639      21.048 -35.377  50.423  1.00 19.24 LIG 0.16  HD
BRANCH 38 41
ATOM     41  CA  VAL Q 638      22.473 -33.243  50.517  1.00 22.03 LIG 0.18  C 
BRANCH 41 42
ATOM     42  CB  VAL Q 638      22.516 -32.380  49.242  1.00 22.63 LIG 0.01  C 
ATOM     43  CG1 VAL Q 638      21.111 -31.967  48.833  1.00 22.21 LIG 0.01  C 
ATOM     44  CG2 VAL Q 638      23.395 -31.158  49.459  1.00 20.65 LIG 0.01  C 
ENDBRANCH 41 42
BRANCH 41 45
ATOM     45  N   VAL Q 638      23.193 -34.497  50.337  1.00 23.53 LIG-0.35  N 
ATOM     46 H    VAL Q 638      23.102 -34.794  49.535  1.00 23.53 LIG 0.16  HD
ATOM     47  C   THR Q 637      23.918 -35.173  51.222  1.00 24.82 LIG 0.24  C 
ATOM     48 O    THR Q 637      23.742 -35.090  52.437  1.00 25.63 LIG-0.27  OA
BRANCH 47 49
ATOM     49  CA  THR Q 637      25.006 -36.077  50.651  1.00 25.03 LIG 0.20  C 
BRANCH 49 50
ATOM     50  CB  THR Q 637      26.197 -35.383  51.338  1.00 24.88 LIG 0.15  C 
ATOM     51  CG2 THR Q 637      27.512 -35.929  50.803  1.00 23.89 LIG 0.04  C 
BRANCH 50 52
ATOM     52 OG1  THR Q 637      26.135 -33.972  51.095  1.00 24.10 LIG-0.39  OA
ATOM     53 HG1  THR Q 637      25.855 -33.834  50.315  1.00 24.10 LIG 0.21  HD
ENDBRANCH 50 52
ENDBRANCH 49 50
BRANCH 49 54
ATOM     54  N   THR Q 637      24.855 -35.638  49.269  1.00 26.29 LIG-0.34  N 
ATOM     55 H    THR Q 637      25.159 -34.849  49.112  1.00 26.29 LIG 0.16  HD
ATOM     56  C   PRO Q 636      24.292 -36.413  48.348  1.00 27.07 LIG 0.25  C 
ATOM     57 O    PRO Q 636      23.862 -37.541  48.585  1.00 27.06 LIG-0.27  OA
BRANCH 56 58
ATOM     58  CA  PRO Q 636      24.193 -35.839  46.939  1.00 27.59 LIG 0.35  C 
ATOM     59  CB  PRO Q 636      24.969 -34.524  46.851  1.00 27.63 LIG 0.05  C 
ATOM     60  CG  PRO Q 636      24.205 -33.706  45.873  1.00 27.91 LIG 0.04  C 
ATOM     61  CD  PRO Q 636      22.760 -34.062  46.080  1.00 28.09 LIG 0.32  C 
ATOM     62  N   PRO Q 636      22.823 -35.436  46.609  1.00 27.47 LIG 0.32  N 
ENDBRANCH 56 58
ENDBRANCH 49 54
ENDBRANCH 47 49
ENDBRANCH 41 45
ENDBRANCH 38 41
ENDBRANCH 1 37
TORSDOF 25
ENDMDL
MODEL 15
USER: ADFR SOLUTION from run 149
USER: SCORE 21.120423 LL:  -6.793 LR: -16.175 RR:   0.000 FEB:  -8.718
USER: RMSD 3.160634
USER: SEED 148
USER: STATUS no improvement in best in 3 clusters for 5 generations
USER: GENES 27
USER: genes 0 Translation |==|  0.30219 0.64107 0.36229
USER: genes 1 Rotation |==|  0.52615 0.46677 0.47034 0.99733
USER: genes 2 Torsion [N]-CA--C-[N] |==|  0.01148
USER: genes 3 Torsion [C]-N--CA-[C] |==|  0.64740
USER: genes 4 Torsion [N]-CA--CB-[CG] |==|  0.02717
USER: genes 5 Torsion [CA]-CB--CG-[CD] |==|  0.22343
USER: genes 6 Torsion [CB]-CG--CD-[OE2] |==|  0.77630
USER: genes 7 Torsion [N]-CA--C-[N] |==|  0.35261
USER: genes 8 Torsion [C]-N--CA-[CB] |==|  0.51500
USER: genes 9 Torsion [N]-CA--CB-[CG1] |==|  0.81337
USER: genes 10 Torsion [N]-CA--C-[N] |==|  0.36355
USER: genes 11 Torsion [C]-N--CA-[CB] |==|  0.86111
USER: genes 12 Torsion [N]-CA--CB-[CG] |==|  0.74517
USER: genes 13 Torsion [CA]-CB--CG-[OD2] |==|  0.24672
USER: genes 14 Torsion [N]-CA--C-[O] |==|  0.84101
USER: genes 15 Torsion [C]-CA--CB-[CG] |==|  0.84451
USER: genes 16 Torsion [CA]-CB--CG-[CD] |==|  0.71418
USER: genes 17 Torsion [CB]-CG--CD-[OE2] |==|  0.50257
USER: genes 18 Torsion [C]-CA--N-[C] |==|  0.65414
USER: genes 19 Torsion [N]-C--CA-[N] |==|  0.15201
USER: genes 20 Torsion [C]-CA--CB-[CG1] |==|  0.44436
USER: genes 21 Torsion [C]-CA--N-[C] |==|  0.79149
USER: genes 22 Torsion [N]-C--CA-[N] |==|  0.51523
USER: genes 23 Torsion [C]-CA--CB-[CG2] |==|  0.40041
USER: genes 24 Torsion [CA]-CB--OG1-[HG1] |==|  0.17745
USER: genes 25 Torsion [C]-CA--N-[C] |==|  0.74610
USER: genes 26 Torsion [N]-C--CA-[CB] |==|  0.02027
ROOT
ATOM      1  CA  GLU Q 639      19.806 -35.080  50.935  1.00 17.71 LIG 0.18  C 
ENDROOT
BRANCH 1 2
ATOM      2  C   GLU Q 639      19.381 -35.975  52.094  1.00 15.36 LIG 0.24  C 
ATOM      3 O    GLU Q 639      18.203 -36.304  52.237  1.00 14.90 LIG-0.27  OA
ATOM      4  N   GLU Q 640      20.346 -36.363  52.920  1.00 12.94 LIG-0.35  N 
ATOM      5 H    GLU Q 640      21.172 -36.140  52.832  1.00 12.94 LIG 0.16  HD
BRANCH 4 6
ATOM      6  CA  GLU Q 640      20.074 -37.219  54.068  1.00 11.11 LIG 0.18  C 
BRANCH 6 7
ATOM      7  CB  GLU Q 640      20.695 -38.598  53.820  1.00 10.30 LIG 0.04  C 
BRANCH 7 8
ATOM      8  CG  GLU Q 640      21.609 -38.611  52.583  1.00 11.77 LIG 0.12  C 
BRANCH 8 9
ATOM      9  CD  GLU Q 640      23.013 -38.047  52.840  1.00 13.33 LIG 0.17  C 
ATOM     10 OE2  GLU Q 640      23.162 -36.808  52.843  1.00 13.21 LIG-0.65  OA
ATOM     11 OE1  GLU Q 640      23.967 -38.844  53.030  1.00 12.97 LIG-0.65  OA
ENDBRANCH 8 9
ENDBRANCH 7 8
ENDBRANCH 6 7
BRANCH 6 12
ATOM     12  C   GLU Q 640      20.624 -36.601  55.357  1.00  9.90 LIG 0.24  C 
ATOM     13  N   VAL Q 641      19.760 -36.475  56.372  1.00  8.06 LIG-0.35  N 
ATOM     14 H    VAL Q 641      18.911 -36.585  56.281  1.00  8.06 LIG 0.16  HD
ATOM     15 O    GLU Q 640      21.813 -36.246  55.415  1.00  9.48 LIG-0.27  OA
BRANCH 13 16
ATOM     16  CA  VAL Q 641      20.165 -36.135  57.754  1.00  6.68 LIG 0.18  C 
BRANCH 16 17
ATOM     17  CB  VAL Q 641      18.981 -36.182  58.767  1.00  5.82 LIG 0.01  C 
ATOM     18  CG2 VAL Q 641      18.327 -37.541  58.787  1.00  2.95 LIG 0.01  C 
ATOM     19  CG1 VAL Q 641      18.005 -35.096  58.468  1.00  4.23 LIG 0.01  C 
ENDBRANCH 16 17
BRANCH 16 20
ATOM     20  C   VAL Q 641      21.309 -37.034  58.274  1.00  6.62 LIG 0.24  C 
ATOM     21 O    VAL Q 641      21.245 -38.253  58.171  1.00  7.26 LIG-0.27  OA
ATOM     22  N   ASP Q 642      22.343 -36.421  58.830  1.00  6.11 LIG-0.34  N 
ATOM     23 H    ASP Q 642      22.400 -35.567  58.915  1.00  6.11 LIG 0.16  HD
BRANCH 22 24
ATOM     24  CA  ASP Q 642      23.497 -37.148  59.355  1.00  5.85 LIG 0.20  C 
BRANCH 24 25
ATOM     25  CB  ASP Q 642      23.025 -38.284  60.287  1.00  5.86 LIG 0.15  C 
BRANCH 25 26
ATOM     26  CG  ASP Q 642      22.937 -37.844  61.771  1.00  7.09 LIG 0.17  C 
ATOM     27 OD2  ASP Q 642      21.867 -37.350  62.168  1.00  7.75 LIG-0.65  OA
ATOM     28 OD1  ASP Q 642      23.911 -38.000  62.536  1.00  5.16 LIG-0.65  OA
ENDBRANCH 25 26
ENDBRANCH 24 25
BRANCH 24 29
ATOM     29  C   ASP Q 642      24.360 -37.711  58.208  1.00  5.53 LIG 0.20  C 
ATOM     30 O    ASP Q 642      23.884 -38.474  57.352  1.00  4.89 LIG-0.65  OA
ATOM     31 OXT  ASP Q 642      25.554 -37.387  58.093  1.00  5.08 LIG-0.65  OA
ENDBRANCH 24 29
ENDBRANCH 22 24
ENDBRANCH 16 20
ENDBRANCH 13 16
ENDBRANCH 6 12
ENDBRANCH 4 6
ENDBRANCH 1 2
BRANCH 1 32
ATOM     32  CB  GLU Q 639      19.317 -35.669  49.609  1.00 18.28 LIG 0.04  C 
BRANCH 32 33
ATOM     33  CG  GLU Q 639      19.777 -37.095  49.356  1.00 21.94 LIG 0.12  C 
BRANCH 33 34
ATOM     34  CD  GLU Q 639      20.921 -37.171  48.364  1.00 26.00 LIG 0.17  C 
ATOM     35 OE1  GLU Q 639      21.367 -36.106  47.887  1.00 25.44 LIG-0.65  OA
ATOM     36 OE2  GLU Q 639      21.374 -38.295  48.061  1.00 27.11 LIG-0.65  OA
ENDBRANCH 33 34
ENDBRANCH 32 33
ENDBRANCH 1 32
BRANCH 1 37
ATOM     37  N   GLU Q 639      21.253 -34.902  50.912  1.00 19.24 LIG-0.35  N 
ATOM     38  C   VAL Q 638      21.809 -33.694  50.930  1.00 20.97 LIG 0.24  C 
ATOM     39 O    VAL Q 638      21.150 -32.654  50.968  1.00 20.96 LIG-0.27  OA
ATOM     40 H    GLU Q 639      21.701 -35.636  50.886  1.00 19.24 LIG 0.16  HD
BRANCH 38 41
ATOM     41  CA  VAL Q 638      23.333 -33.654  50.903  1.00 22.03 LIG 0.18  C 
BRANCH 41 42
ATOM     42  CB  VAL Q 638      23.797 -32.186  50.881  1.00 22.63 LIG 0.01  C 
ATOM     43  CG1 VAL Q 638      25.242 -32.079  51.343  1.00 22.21 LIG 0.01  C 
ATOM     44  CG2 VAL Q 638      23.631 -31.598  49.488  1.00 20.65 LIG 0.01  C 
ENDBRANCH 41 42
BRANCH 41 45
ATOM     45  N   VAL Q 638      23.860 -34.398  49.766  1.00 23.53 LIG-0.35  N 
ATOM     46 H    VAL Q 638      24.140 -33.866  49.151  1.00 23.53 LIG 0.16  HD
ATOM     47  C   THR Q 637      23.944 -35.714  49.601  1.00 24.82 LIG 0.24  C 
ATOM     48 O    THR Q 637      23.199 -36.510  50.171  1.00 25.63 LIG-0.27  OA
BRANCH 47 49
ATOM     49  CA  THR Q 637      25.030 -36.205  48.650  1.00 25.03 LIG 0.20  C 
BRANCH 49 50
ATOM     50  CB  THR Q 637      24.491 -35.510  47.386  1.00 24.88 LIG 0.15  C 
ATOM     51  CG2 THR Q 637      25.639 -35.031  46.511  1.00 23.89 LIG 0.04  C 
BRANCH 50 52
ATOM     52 OG1  THR Q 637      23.678 -36.427  46.643  1.00 24.10 LIG-0.39  OA
ATOM     53 HG1  THR Q 637      23.006 -36.639  47.099  1.00 24.10 LIG 0.21  HD
ENDBRANCH 50 52
ENDBRANCH 49 50
BRANCH 49 54
ATOM     54  N   THR Q 637      24.643 -37.610  48.694  1.00 26.29 LIG-0.34  N 
ATOM     55 H    THR Q 637      24.054 -37.835  48.109  1.00 26.29 LIG 0.16  HD
ATOM     56  C   PRO Q 636      25.173 -38.453  49.575  1.00 27.07 LIG 0.25  C 
ATOM     57 O    PRO Q 636      26.015 -38.119  50.407  1.00 27.06 LIG-0.27  OA
BRANCH 56 58
ATOM     58  CA  PRO Q 636      24.685 -39.897  49.519  1.00 27.59 LIG 0.35  C 
ATOM     59  CB  PRO Q 636      23.786 -40.101  48.299  1.00 27.63 LIG 0.05  C 
ATOM     60  CG  PRO Q 636      22.790 -41.114  48.736  1.00 27.91 LIG 0.04  C 
ATOM     61  CD  PRO Q 636      22.539 -40.841  50.193  1.00 28.09 LIG 0.32  C 
ATOM     62  N   PRO Q 636      23.796 -40.215  50.641  1.00 27.47 LIG 0.32  N 
ENDBRANCH 56 58
ENDBRANCH 49 54
ENDBRANCH 47 49
ENDBRANCH 41 45
ENDBRANCH 38 41
ENDBRANCH 1 37
TORSDOF 25
ENDMDL
MODEL 16
USER: ADFR SOLUTION from run 97
USER: SCORE 20.558605 LL:  -7.350 LR: -16.089 RR:   0.000 FEB:  -8.632
USER: RMSD 3.507714
USER: SEED 96
USER: STATUS no improvement in best in 6 clusters for 5 generations
USER: GENES 27
USER: genes 0 Translation |==|  0.22885 0.62471 0.39187
USER: genes 1 Rotation |==|  0.59137 0.60142 0.57969 0.97436
USER: genes 2 Torsion [N]-CA--C-[N] |==|  0.14135
USER: genes 3 Torsion [C]-N--CA-[C] |==|  0.58430
USER: genes 4 Torsion [N]-CA--CB-[CG] |==|  0.62603
USER: genes 5 Torsion [CA]-CB--CG-[CD] |==|  0.51301
USER: genes 6 Torsion [CB]-CG--CD-[OE2] |==|  0.59209
USER: genes 7 Torsion [N]-CA--C-[N] |==|  0.26375
USER: genes 8 Torsion [C]-N--CA-[CB] |==|  0.45475
USER: genes 9 Torsion [N]-CA--CB-[CG1] |==|  0.82149
USER: genes 10 Torsion [N]-CA--C-[N] |==|  0.39831
USER: genes 11 Torsion [C]-N--CA-[CB] |==|  0.31138
USER: genes 12 Torsion [N]-CA--CB-[CG] |==|  0.85840
USER: genes 13 Torsion [CA]-CB--CG-[OD2] |==|  0.81629
USER: genes 14 Torsion [N]-CA--C-[O] |==|  0.55810
USER: genes 15 Torsion [C]-CA--CB-[CG] |==|  0.80958
USER: genes 16 Torsion [CA]-CB--CG-[CD] |==|  0.78732
USER: genes 17 Torsion [CB]-CG--CD-[OE2] |==|  0.28424
USER: genes 18 Torsion [C]-CA--N-[C] |==|  0.62194
USER: genes 19 Torsion [N]-C--CA-[N] |==|  0.99733
USER: genes 20 Torsion [C]-CA--CB-[CG1] |==|  0.46523
USER: genes 21 Torsion [C]-CA--N-[C] |==|  0.63384
USER: genes 22 Torsion [N]-C--CA-[N] |==|  0.82371
USER: genes 23 Torsion [C]-CA--CB-[CG2] |==|  0.38721
USER: genes 24 Torsion [CA]-CB--OG1-[HG1] |==|  0.12658
USER: genes 25 Torsion [C]-CA--N-[C] |==|  0.79132
USER: genes 26 Torsion [N]-C--CA-[CB] |==|  0.17348
ROOT
ATOM      1  CA  GLU Q 639      18.486 -35.387  51.667  1.00 17.71 LIG 0.18  C 
ENDROOT
BRANCH 1 2
ATOM      2  C   GLU Q 639      19.100 -36.517  52.486  1.00 15.36 LIG 0.24  C 
ATOM      3 O    GLU Q 639      18.799 -37.691  52.267  1.00 14.90 LIG-0.27  OA
ATOM      4  N   GLU Q 640      19.962 -36.156  53.430  1.00 12.94 LIG-0.35  N 
ATOM      5 H    GLU Q 640      20.181 -35.341  53.593  1.00 12.94 LIG 0.16  HD
BRANCH 4 6
ATOM      6  CA  GLU Q 640      20.620 -37.138  54.283  1.00 11.11 LIG 0.18  C 
BRANCH 6 7
ATOM      7  CB  GLU Q 640      21.907 -37.610  53.600  1.00 10.30 LIG 0.04  C 
BRANCH 7 8
ATOM      8  CG  GLU Q 640      22.070 -39.138  53.655  1.00 11.77 LIG 0.12  C 
BRANCH 8 9
ATOM      9  CD  GLU Q 640      23.401 -39.644  53.083  1.00 13.33 LIG 0.17  C 
ATOM     10 OE2  GLU Q 640      23.415 -40.751  52.507  1.00 13.21 LIG-0.65  OA
ATOM     11 OE1  GLU Q 640      24.433 -38.938  53.216  1.00 12.97 LIG-0.65  OA
ENDBRANCH 8 9
ENDBRANCH 7 8
ENDBRANCH 6 7
BRANCH 6 12
ATOM     12  C   GLU Q 640      20.923 -36.550  55.665  1.00  9.90 LIG 0.24  C 
ATOM     13  N   VAL Q 641      20.017 -36.784  56.623  1.00  8.06 LIG-0.35  N 
ATOM     14 H    VAL Q 641      19.237 -37.109  56.461  1.00  8.06 LIG 0.16  HD
ATOM     15 O    GLU Q 640      21.962 -35.894  55.843  1.00  9.48 LIG-0.27  OA
BRANCH 13 16
ATOM     16  CA  VAL Q 641      20.256 -36.512  58.058  1.00  6.68 LIG 0.18  C 
BRANCH 16 17
ATOM     17  CB  VAL Q 641      18.944 -36.484  58.901  1.00  5.82 LIG 0.01  C 
ATOM     18  CG2 VAL Q 641      18.225 -37.808  58.842  1.00  2.95 LIG 0.01  C 
ATOM     19  CG1 VAL Q 641      18.076 -35.355  58.463  1.00  4.23 LIG 0.01  C 
ENDBRANCH 16 17
BRANCH 16 20
ATOM     20  C   VAL Q 641      21.243 -37.515  58.695  1.00  6.62 LIG 0.24  C 
ATOM     21 O    VAL Q 641      21.239 -38.695  58.365  1.00  7.26 LIG-0.27  OA
ATOM     22  N   ASP Q 642      22.077 -37.035  59.605  1.00  6.11 LIG-0.34  N 
ATOM     23 H    ASP Q 642      22.087 -36.211  59.852  1.00  6.11 LIG 0.16  HD
BRANCH 22 24
ATOM     24  CA  ASP Q 642      23.067 -37.870  60.281  1.00  5.85 LIG 0.20  C 
BRANCH 24 25
ATOM     25  CB  ASP Q 642      24.489 -37.460  59.844  1.00  5.86 LIG 0.15  C 
BRANCH 25 26
ATOM     26  CG  ASP Q 642      24.648 -37.397  58.303  1.00  7.09 LIG 0.17  C 
ATOM     27 OD2  ASP Q 642      24.557 -38.461  57.666  1.00  7.75 LIG-0.65  OA
ATOM     28 OD1  ASP Q 642      24.845 -36.305  57.732  1.00  5.16 LIG-0.65  OA
ENDBRANCH 25 26
ENDBRANCH 24 25
BRANCH 24 29
ATOM     29  C   ASP Q 642      22.919 -37.767  61.812  1.00  5.53 LIG 0.20  C 
ATOM     30 O    ASP Q 642      23.852 -38.063  62.576  1.00  4.89 LIG-0.65  OA
ATOM     31 OXT  ASP Q 642      21.866 -37.350  62.323  1.00  5.08 LIG-0.65  OA
ENDBRANCH 24 29
ENDBRANCH 22 24
ENDBRANCH 16 20
ENDBRANCH 13 16
ENDBRANCH 6 12
ENDBRANCH 4 6
ENDBRANCH 1 2
BRANCH 1 32
ATOM     32  CB  GLU Q 639      17.643 -35.962  50.526  1.00 18.28 LIG 0.04  C 
BRANCH 32 33
ATOM     33  CG  GLU Q 639      18.453 -36.659  49.446  1.00 21.94 LIG 0.12  C 
BRANCH 33 34
ATOM     34  CD  GLU Q 639      19.149 -35.683  48.518  1.00 26.00 LIG 0.17  C 
ATOM     35 OE1  GLU Q 639      18.474 -35.120  47.631  1.00 25.44 LIG-0.65  OA
ATOM     36 OE2  GLU Q 639      20.371 -35.479  48.676  1.00 27.11 LIG-0.65  OA
ENDBRANCH 33 34
ENDBRANCH 32 33
ENDBRANCH 1 32
BRANCH 1 37
ATOM     37  N   GLU Q 639      19.516 -34.498  51.143  1.00 19.24 LIG-0.35  N 
ATOM     38  C   VAL Q 638      19.384 -33.175  51.183  1.00 20.97 LIG 0.24  C 
ATOM     39 O    VAL Q 638      18.396 -32.615  51.659  1.00 20.96 LIG-0.27  OA
ATOM     40 H    GLU Q 639      20.200 -34.902  50.815  1.00 19.24 LIG 0.16  HD
BRANCH 38 41
ATOM     41  CA  VAL Q 638      20.537 -32.365  50.601  1.00 22.03 LIG 0.18  C 
BRANCH 41 42
ATOM     42  CB  VAL Q 638      20.000 -31.458  49.479  1.00 22.63 LIG 0.01  C 
ATOM     43  CG1 VAL Q 638      21.043 -30.423  49.087  1.00 22.21 LIG 0.01  C 
ATOM     44  CG2 VAL Q 638      19.588 -32.291  48.275  1.00 20.65 LIG 0.01  C 
ENDBRANCH 41 42
BRANCH 41 45
ATOM     45  N   VAL Q 638      21.603 -33.236  50.120  1.00 23.53 LIG-0.35  N 
ATOM     46 H    VAL Q 638      21.287 -33.868  49.629  1.00 23.53 LIG 0.16  HD
ATOM     47  C   THR Q 637      22.909 -33.153  50.347  1.00 24.82 LIG 0.24  C 
ATOM     48 O    THR Q 637      23.384 -32.608  51.343  1.00 25.63 LIG-0.27  OA
BRANCH 47 49
ATOM     49  CA  THR Q 637      23.817 -33.781  49.294  1.00 25.03 LIG 0.20  C 
BRANCH 49 50
ATOM     50  CB  THR Q 637      23.155 -33.121  48.070  1.00 24.88 LIG 0.15  C 
ATOM     51  CG2 THR Q 637      24.210 -32.677  47.068  1.00 23.89 LIG 0.04  C 
BRANCH 50 52
ATOM     52 OG1  THR Q 637      22.268 -34.055  47.442  1.00 24.10 LIG-0.39  OA
ATOM     53 HG1  THR Q 637      21.802 -34.437  48.027  1.00 24.10 LIG 0.21  HD
ENDBRANCH 50 52
ENDBRANCH 49 50
BRANCH 49 54
ATOM     54  N   THR Q 637      23.346 -35.147  49.485  1.00 26.29 LIG-0.34  N 
ATOM     55 H    THR Q 637      22.824 -35.434  48.864  1.00 26.29 LIG 0.16  HD
ATOM     56  C   PRO Q 636      23.708 -35.869  50.541  1.00 27.07 LIG 0.25  C 
ATOM     57 O    PRO Q 636      24.454 -35.448  51.424  1.00 27.06 LIG-0.27  OA
BRANCH 56 58
ATOM     58  CA  PRO Q 636      23.147 -37.284  50.626  1.00 27.59 LIG 0.35  C 
ATOM     59  CB  PRO Q 636      23.636 -38.116  49.440  1.00 27.63 LIG 0.05  C 
ATOM     60  CG  PRO Q 636      22.514 -39.048  49.152  1.00 27.91 LIG 0.04  C 
ATOM     61  CD  PRO Q 636      21.257 -38.282  49.451  1.00 28.09 LIG 0.32  C 
ATOM     62  N   PRO Q 636      21.690 -37.304  50.464  1.00 27.47 LIG 0.32  N 
ENDBRANCH 56 58
ENDBRANCH 49 54
ENDBRANCH 47 49
ENDBRANCH 41 45
ENDBRANCH 38 41
ENDBRANCH 1 37
TORSDOF 25
ENDMDL
MODEL 17
USER: ADFR SOLUTION from run 89
USER: SCORE 20.196194 LL:  -5.345 LR: -16.044 RR:   0.000 FEB:  -8.586
USER: RMSD 3.164889
USER: SEED 88
USER: STATUS no improvement in best in 3 clusters for 5 generations
USER: GENES 27
USER: genes 0 Translation |==|  0.39756 0.62755 0.37428
USER: genes 1 Rotation |==|  0.54525 0.47845 0.28860 0.95033
USER: genes 2 Torsion [N]-CA--C-[N] |==|  0.04341
USER: genes 3 Torsion [C]-N--CA-[C] |==|  0.71197
USER: genes 4 Torsion [N]-CA--CB-[CG] |==|  0.79066
USER: genes 5 Torsion [CA]-CB--CG-[CD] |==|  0.26844
USER: genes 6 Torsion [CB]-CG--CD-[OE2] |==|  0.77979
USER: genes 7 Torsion [N]-CA--C-[N] |==|  0.43238
USER: genes 8 Torsion [C]-N--CA-[CB] |==|  0.47306
USER: genes 9 Torsion [N]-CA--CB-[CG1] |==|  0.81436
USER: genes 10 Torsion [N]-CA--C-[N] |==|  0.42277
USER: genes 11 Torsion [C]-N--CA-[CB] |==|  0.29003
USER: genes 12 Torsion [N]-CA--CB-[CG] |==|  0.86261
USER: genes 13 Torsion [CA]-CB--CG-[OD2] |==|  0.24269
USER: genes 14 Torsion [N]-CA--C-[O] |==|  0.06496
USER: genes 15 Torsion [C]-CA--CB-[CG] |==|  0.28344
USER: genes 16 Torsion [CA]-CB--CG-[CD] |==|  0.00636
USER: genes 17 Torsion [CB]-CG--CD-[OE2] |==|  0.70345
USER: genes 18 Torsion [C]-CA--N-[C] |==|  0.70371
USER: genes 19 Torsion [N]-C--CA-[N] |==|  0.92661
USER: genes 20 Torsion [C]-CA--CB-[CG1] |==|  0.94158
USER: genes 21 Torsion [C]-CA--N-[C] |==|  0.82723
USER: genes 22 Torsion [N]-C--CA-[N] |==|  0.05949
USER: genes 23 Torsion [C]-CA--CB-[CG2] |==|  0.55945
USER: genes 24 Torsion [CA]-CB--OG1-[HG1] |==|  0.52560
USER: genes 25 Torsion [C]-CA--N-[C] |==|  0.66667
USER: genes 26 Torsion [N]-C--CA-[CB] |==|  0.03920
ROOT
ATOM      1  CA  GLU Q 639      21.523 -35.333  51.231  1.00 17.71 LIG 0.18  C 
ENDROOT
BRANCH 1 2
ATOM      2  C   GLU Q 639      20.618 -35.874  52.334  1.00 15.36 LIG 0.24  C 
ATOM      3 O    GLU Q 639      19.453 -35.489  52.439  1.00 14.90 LIG-0.27  OA
ATOM      4  N   GLU Q 640      21.161 -36.767  53.153  1.00 12.94 LIG-0.35  N 
ATOM      5 H    GLU Q 640      21.973 -37.044  53.091  1.00 12.94 LIG 0.16  HD
BRANCH 4 6
ATOM      6  CA  GLU Q 640      20.405 -37.362  54.248  1.00 11.11 LIG 0.18  C 
BRANCH 6 7
ATOM      7  CB  GLU Q 640      20.644 -38.875  54.255  1.00 10.30 LIG 0.04  C 
BRANCH 7 8
ATOM      8  CG  GLU Q 640      19.874 -39.591  53.133  1.00 11.77 LIG 0.12  C 
BRANCH 8 9
ATOM      9  CD  GLU Q 640      20.710 -39.856  51.873  1.00 13.33 LIG 0.17  C 
ATOM     10 OE2  GLU Q 640      20.890 -38.914  51.074  1.00 13.21 LIG-0.65  OA
ATOM     11 OE1  GLU Q 640      21.178 -41.006  51.680  1.00 12.97 LIG-0.65  OA
ENDBRANCH 8 9
ENDBRANCH 7 8
ENDBRANCH 6 7
BRANCH 6 12
ATOM     12  C   GLU Q 640      20.806 -36.744  55.591  1.00  9.90 LIG 0.24  C 
ATOM     13  N   VAL Q 641      19.894 -36.806  56.570  1.00  8.06 LIG-0.35  N 
ATOM     14 H    VAL Q 641      19.076 -37.036  56.434  1.00  8.06 LIG 0.16  HD
ATOM     15 O    GLU Q 640      21.924 -36.220  55.722  1.00  9.48 LIG-0.27  OA
BRANCH 13 16
ATOM     16  CA  VAL Q 641      20.190 -36.490  57.985  1.00  6.68 LIG 0.18  C 
BRANCH 16 17
ATOM     17  CB  VAL Q 641      18.911 -36.408  58.873  1.00  5.82 LIG 0.01  C 
ATOM     18  CG2 VAL Q 641      18.133 -37.699  58.838  1.00  2.95 LIG 0.01  C 
ATOM     19  CG1 VAL Q 641      18.078 -35.241  58.468  1.00  4.23 LIG 0.01  C 
ENDBRANCH 16 17
BRANCH 16 20
ATOM     20  C   VAL Q 641      21.182 -37.490  58.621  1.00  6.62 LIG 0.24  C 
ATOM     21 O    VAL Q 641      21.253 -38.645  58.218  1.00  7.26 LIG-0.27  OA
ATOM     22  N   ASP Q 642      21.934 -37.035  59.611  1.00  6.11 LIG-0.34  N 
ATOM     23 H    ASP Q 642      21.891 -36.229  59.909  1.00  6.11 LIG 0.16  HD
BRANCH 22 24
ATOM     24  CA  ASP Q 642      22.919 -37.870  60.295  1.00  5.85 LIG 0.20  C 
BRANCH 24 25
ATOM     25  CB  ASP Q 642      24.342 -37.498  59.829  1.00  5.86 LIG 0.15  C 
BRANCH 25 26
ATOM     26  CG  ASP Q 642      24.471 -37.442  58.285  1.00  7.09 LIG 0.17  C 
ATOM     27 OD2  ASP Q 642      24.198 -36.370  57.718  1.00  7.75 LIG-0.65  OA
ATOM     28 OD1  ASP Q 642      24.853 -38.443  57.645  1.00  5.16 LIG-0.65  OA
ENDBRANCH 25 26
ENDBRANCH 24 25
BRANCH 24 29
ATOM     29  C   ASP Q 642      22.794 -37.723  61.825  1.00  5.53 LIG 0.20  C 
ATOM     30 O    ASP Q 642      21.736 -37.350  62.358  1.00  4.89 LIG-0.65  OA
ATOM     31 OXT  ASP Q 642      23.746 -38.009  62.571  1.00  5.08 LIG-0.65  OA
ENDBRANCH 24 29
ENDBRANCH 22 24
ENDBRANCH 16 20
ENDBRANCH 13 16
ENDBRANCH 6 12
ENDBRANCH 4 6
ENDBRANCH 1 2
BRANCH 1 32
ATOM     32  CB  GLU Q 639      20.747 -35.232  49.916  1.00 18.28 LIG 0.04  C 
BRANCH 32 33
ATOM     33  CG  GLU Q 639      20.298 -33.823  49.567  1.00 21.94 LIG 0.12  C 
BRANCH 33 34
ATOM     34  CD  GLU Q 639      20.765 -32.795  50.579  1.00 26.00 LIG 0.17  C 
ATOM     35 OE1  GLU Q 639      21.972 -32.475  50.588  1.00 25.44 LIG-0.65  OA
ATOM     36 OE2  GLU Q 639      19.926 -32.306  51.364  1.00 27.11 LIG-0.65  OA
ENDBRANCH 33 34
ENDBRANCH 32 33
ENDBRANCH 1 32
BRANCH 1 37
ATOM     37  N   GLU Q 639      22.705 -36.170  51.064  1.00 19.24 LIG-0.35  N 
ATOM     38  C   VAL Q 638      23.905 -35.774  51.477  1.00 20.97 LIG 0.24  C 
ATOM     39 O    VAL Q 638      24.101 -34.688  52.023  1.00 20.96 LIG-0.27  OA
ATOM     40 H    GLU Q 639      22.554 -36.926  50.683  1.00 19.24 LIG 0.16  HD
BRANCH 38 41
ATOM     41  CA  VAL Q 638      25.054 -36.748  51.240  1.00 22.03 LIG 0.18  C 
BRANCH 41 42
ATOM     42  CB  VAL Q 638      25.790 -36.354  49.947  1.00 22.63 LIG 0.01  C 
ATOM     43  CG1 VAL Q 638      24.891 -35.503  49.062  1.00 22.21 LIG 0.01  C 
ATOM     44  CG2 VAL Q 638      27.079 -35.616  50.274  1.00 20.65 LIG 0.01  C 
ENDBRANCH 41 42
BRANCH 41 45
ATOM     45  N   VAL Q 638      24.576 -38.124  51.184  1.00 23.53 LIG-0.35  N 
ATOM     46 H    VAL Q 638      24.732 -38.474  50.414  1.00 23.53 LIG 0.16  HD
ATOM     47  C   THR Q 637      23.971 -38.832  52.132  1.00 24.82 LIG 0.24  C 
ATOM     48 O    THR Q 637      23.324 -38.319  53.043  1.00 25.63 LIG-0.27  OA
BRANCH 47 49
ATOM     49  CA  THR Q 637      24.117 -40.348  52.036  1.00 25.03 LIG 0.20  C 
BRANCH 49 50
ATOM     50  CB  THR Q 637      24.456 -40.590  53.519  1.00 24.88 LIG 0.15  C 
ATOM     51  CG2 THR Q 637      25.173 -41.920  53.691  1.00 23.89 LIG 0.04  C 
BRANCH 50 52
ATOM     52 OG1  THR Q 637      25.296 -39.533  53.998  1.00 24.10 LIG-0.39  OA
ATOM     53 HG1  THR Q 637      25.583 -39.728  54.764  1.00 24.10 LIG 0.21  HD
ENDBRANCH 50 52
ENDBRANCH 49 50
BRANCH 49 54
ATOM     54  N   THR Q 637      25.317 -40.330  51.209  1.00 26.29 LIG-0.34  N 
ATOM     55 H    THR Q 637      25.991 -39.933  51.568  1.00 26.29 LIG 0.16  HD
ATOM     56  C   PRO Q 636      25.343 -40.891  50.004  1.00 27.07 LIG 0.25  C 
ATOM     57 O    PRO Q 636      24.373 -41.457  49.501  1.00 27.06 LIG-0.27  OA
BRANCH 56 58
ATOM     58  CA  PRO Q 636      26.659 -40.805  49.238  1.00 27.59 LIG 0.35  C 
ATOM     59  CB  PRO Q 636      27.788 -40.383  50.179  1.00 27.63 LIG 0.05  C 
ATOM     60  CG  PRO Q 636      28.701 -39.578  49.325  1.00 27.91 LIG 0.04  C 
ATOM     61  CD  PRO Q 636      27.818 -38.852  48.351  1.00 28.09 LIG 0.32  C 
ATOM     62  N   PRO Q 636      26.641 -39.730  48.241  1.00 27.47 LIG 0.32  N 
ENDBRANCH 56 58
ENDBRANCH 49 54
ENDBRANCH 47 49
ENDBRANCH 41 45
ENDBRANCH 38 41
ENDBRANCH 1 37
TORSDOF 25
ENDMDL
MODEL 18
USER: ADFR SOLUTION from run 12
USER: SCORE 19.365653 LL:  -6.014 LR: -15.709 RR:   0.000 FEB:  -8.252
USER: RMSD 2.068770
USER: SEED 899064
USER: STATUS no improvement in best in 3 clusters for 5 generations
USER: GENES 27
USER: genes 0 Translation |==|  0.35382 0.59025 0.35370
USER: genes 1 Rotation |==|  0.49370 0.41641 0.47904 0.99248
USER: genes 2 Torsion [N]-CA--C-[N] |==|  0.03088
USER: genes 3 Torsion [C]-N--CA-[C] |==|  0.60654
USER: genes 4 Torsion [N]-CA--CB-[CG] |==|  0.07579
USER: genes 5 Torsion [CA]-CB--CG-[CD] |==|  0.32564
USER: genes 6 Torsion [CB]-CG--CD-[OE2] |==|  0.08858
USER: genes 7 Torsion [N]-CA--C-[N] |==|  0.41493
USER: genes 8 Torsion [C]-N--CA-[CB] |==|  0.45556
USER: genes 9 Torsion [N]-CA--CB-[CG1] |==|  0.80168
USER: genes 10 Torsion [N]-CA--C-[N] |==|  0.44335
USER: genes 11 Torsion [C]-N--CA-[CB] |==|  0.29672
USER: genes 12 Torsion [N]-CA--CB-[CG] |==|  0.87297
USER: genes 13 Torsion [CA]-CB--CG-[OD2] |==|  0.71650
USER: genes 14 Torsion [N]-CA--C-[O] |==|  0.55715
USER: genes 15 Torsion [C]-CA--CB-[CG] |==|  0.71895
USER: genes 16 Torsion [CA]-CB--CG-[CD] |==|  0.22676
USER: genes 17 Torsion [CB]-CG--CD-[OE2] |==|  0.17378
USER: genes 18 Torsion [C]-CA--N-[C] |==|  0.69963
USER: genes 19 Torsion [N]-C--CA-[N] |==|  0.04788
USER: genes 20 Torsion [C]-CA--CB-[CG1] |==|  0.88803
USER: genes 21 Torsion [C]-CA--N-[C] |==|  0.78158
USER: genes 22 Torsion [N]-C--CA-[N] |==|  0.57393
USER: genes 23 Torsion [C]-CA--CB-[CG2] |==|  0.37767
USER: genes 24 Torsion [CA]-CB--OG1-[HG1] |==|  0.54054
USER: genes 25 Torsion [C]-CA--N-[C] |==|  0.57541
USER: genes 26 Torsion [N]-C--CA-[CB] |==|  0.30076
ROOT
ATOM      1  CA  GLU Q 639      20.736 -36.033  50.722  1.00 17.71 LIG 0.18  C 
ENDROOT
BRANCH 1 2
ATOM      2  C   GLU Q 639      20.092 -36.768  51.893  1.00 15.36 LIG 0.24  C 
ATOM      3 O    GLU Q 639      18.950 -37.220  51.803  1.00 14.90 LIG-0.27  OA
ATOM      4  N   GLU Q 640      20.831 -36.884  52.991  1.00 12.94 LIG-0.35  N 
ATOM      5 H    GLU Q 640      21.629 -36.573  53.066  1.00 12.94 LIG 0.16  HD
BRANCH 4 6
ATOM      6  CA  GLU Q 640      20.335 -37.563  54.181  1.00 11.11 LIG 0.18  C 
BRANCH 6 7
ATOM      7  CB  GLU Q 640      20.831 -39.012  54.171  1.00 10.30 LIG 0.04  C 
BRANCH 7 8
ATOM      8  CG  GLU Q 640      22.151 -39.171  53.398  1.00 11.77 LIG 0.12  C 
BRANCH 8 9
ATOM      9  CD  GLU Q 640      23.325 -39.653  54.261  1.00 13.33 LIG 0.17  C 
ATOM     10 OE2  GLU Q 640      23.081 -40.415  55.220  1.00 13.21 LIG-0.65  OA
ATOM     11 OE1  GLU Q 640      24.488 -39.264  53.985  1.00 12.97 LIG-0.65  OA
ENDBRANCH 8 9
ENDBRANCH 7 8
ENDBRANCH 6 7
BRANCH 6 12
ATOM     12  C   GLU Q 640      20.790 -36.843  55.454  1.00  9.90 LIG 0.24  C 
ATOM     13  N   VAL Q 641      19.967 -36.922  56.508  1.00  8.06 LIG-0.35  N 
ATOM     14 H    VAL Q 641      19.163 -37.220  56.453  1.00  8.06 LIG 0.16  HD
ATOM     15 O    GLU Q 640      21.869 -36.229  55.465  1.00  9.48 LIG-0.27  OA
BRANCH 13 16
ATOM     16  CA  VAL Q 641      20.350 -36.507  57.876  1.00  6.68 LIG 0.18  C 
BRANCH 16 17
ATOM     17  CB  VAL Q 641      19.125 -36.323  58.823  1.00  5.82 LIG 0.01  C 
ATOM     18  CG2 VAL Q 641      18.256 -37.555  58.843  1.00  2.95 LIG 0.01  C 
ATOM     19  CG1 VAL Q 641      18.358 -35.103  58.441  1.00  4.23 LIG 0.01  C 
ENDBRANCH 16 17
BRANCH 16 20
ATOM     20  C   VAL Q 641      21.353 -37.481  58.533  1.00  6.62 LIG 0.24  C 
ATOM     21 O    VAL Q 641      21.469 -38.631  58.125  1.00  7.26 LIG-0.27  OA
ATOM     22  N   ASP Q 642      22.064 -37.011  59.546  1.00  6.11 LIG-0.34  N 
ATOM     23 H    ASP Q 642      21.989 -36.209  59.847  1.00  6.11 LIG 0.16  HD
BRANCH 22 24
ATOM     24  CA  ASP Q 642      23.054 -37.821  60.252  1.00  5.85 LIG 0.20  C 
BRANCH 24 25
ATOM     25  CB  ASP Q 642      24.478 -37.364  59.873  1.00  5.86 LIG 0.15  C 
BRANCH 25 26
ATOM     26  CG  ASP Q 642      24.655 -37.157  58.347  1.00  7.09 LIG 0.17  C 
ATOM     27 OD2  ASP Q 642      25.242 -38.045  57.705  1.00  7.75 LIG-0.65  OA
ATOM     28 OD1  ASP Q 642      24.204 -36.135  57.790  1.00  5.16 LIG-0.65  OA
ENDBRANCH 25 26
ENDBRANCH 24 25
BRANCH 24 29
ATOM     29  C   ASP Q 642      22.845 -37.736  61.778  1.00  5.53 LIG 0.20  C 
ATOM     30 O    ASP Q 642      23.756 -38.016  62.575  1.00  4.89 LIG-0.65  OA
ATOM     31 OXT  ASP Q 642      21.763 -37.350  62.251  1.00  5.08 LIG-0.65  OA
ENDBRANCH 24 29
ENDBRANCH 22 24
ENDBRANCH 16 20
ENDBRANCH 13 16
ENDBRANCH 6 12
ENDBRANCH 4 6
ENDBRANCH 1 2
BRANCH 1 32
ATOM     32  CB  GLU Q 639      20.515 -36.815  49.425  1.00 18.28 LIG 0.04  C 
BRANCH 32 33
ATOM     33  CG  GLU Q 639      21.721 -37.622  48.974  1.00 21.94 LIG 0.12  C 
BRANCH 33 34
ATOM     34  CD  GLU Q 639      21.834 -38.952  49.694  1.00 26.00 LIG 0.17  C 
ATOM     35 OE1  GLU Q 639      22.838 -39.159  50.407  1.00 25.44 LIG-0.65  OA
ATOM     36 OE2  GLU Q 639      20.919 -39.789  49.548  1.00 27.11 LIG-0.65  OA
ENDBRANCH 33 34
ENDBRANCH 32 33
ENDBRANCH 1 32
BRANCH 1 37
ATOM     37  N   GLU Q 639      22.159 -35.819  50.954  1.00 19.24 LIG-0.35  N 
ATOM     38  C   VAL Q 638      22.649 -34.613  51.225  1.00 20.97 LIG 0.24  C 
ATOM     39 O    VAL Q 638      21.946 -33.605  51.299  1.00 20.96 LIG-0.27  OA
ATOM     40 H    GLU Q 639      22.638 -36.531  50.900  1.00 19.24 LIG 0.16  HD
BRANCH 38 41
ATOM     41  CA  VAL Q 638      24.156 -34.533  51.446  1.00 22.03 LIG 0.18  C 
BRANCH 41 42
ATOM     42  CB  VAL Q 638      24.694 -33.248  50.792  1.00 22.63 LIG 0.01  C 
ATOM     43  CG1 VAL Q 638      24.014 -33.009  49.452  1.00 22.21 LIG 0.01  C 
ATOM     44  CG2 VAL Q 638      24.493 -32.058  51.718  1.00 20.65 LIG 0.01  C 
ENDBRANCH 41 42
BRANCH 41 45
ATOM     45  N   VAL Q 638      24.829 -35.718  50.928  1.00 23.53 LIG-0.35  N 
ATOM     46 H    VAL Q 638      25.195 -35.557  50.166  1.00 23.53 LIG 0.16  HD
ATOM     47  C   THR Q 637      24.924 -36.925  51.474  1.00 24.82 LIG 0.24  C 
ATOM     48 O    THR Q 637      24.101 -37.365  52.276  1.00 25.63 LIG-0.27  OA
BRANCH 47 49
ATOM     49  CA  THR Q 637      26.127 -37.763  51.052  1.00 25.03 LIG 0.20  C 
BRANCH 49 50
ATOM     50  CB  THR Q 637      26.093 -37.386  49.559  1.00 24.88 LIG 0.15  C 
ATOM     51  CG2 THR Q 637      27.496 -37.083  49.055  1.00 23.89 LIG 0.04  C 
BRANCH 50 52
ATOM     52 OG1  THR Q 637      25.541 -38.470  48.802  1.00 24.10 LIG-0.39  OA
ATOM     53 HG1  THR Q 637      25.703 -38.353  47.986  1.00 24.10 LIG 0.21  HD
ENDBRANCH 50 52
ENDBRANCH 49 50
BRANCH 49 54
ATOM     54  N   THR Q 637      25.500 -39.057  51.291  1.00 26.29 LIG-0.34  N 
ATOM     55 H    THR Q 637      24.643 -39.056  51.218  1.00 26.29 LIG 0.16  HD
ATOM     56  C   PRO Q 636      26.217 -40.135  51.593  1.00 27.07 LIG 0.25  C 
ATOM     57 O    PRO Q 636      27.443 -40.124  51.694  1.00 27.06 LIG-0.27  OA
BRANCH 56 58
ATOM     58  CA  PRO Q 636      25.443 -41.429  51.820  1.00 27.59 LIG 0.35  C 
ATOM     59  CB  PRO Q 636      25.674 -42.391  50.654  1.00 27.63 LIG 0.05  C 
ATOM     60  CG  PRO Q 636      24.392 -43.134  50.526  1.00 27.91 LIG 0.04  C 
ATOM     61  CD  PRO Q 636      23.312 -42.152  50.881  1.00 28.09 LIG 0.32  C 
ATOM     62  N   PRO Q 636      23.994 -41.210  51.786  1.00 27.47 LIG 0.32  N 
ENDBRANCH 56 58
ENDBRANCH 49 54
ENDBRANCH 47 49
ENDBRANCH 41 45
ENDBRANCH 38 41
ENDBRANCH 1 37
TORSDOF 25
ENDMDL
MODEL 19
USER: ADFR SOLUTION from run 105
USER: SCORE 20.730826 LL:  -6.407 LR: -15.641 RR:   0.000 FEB:  -8.183
USER: RMSD 3.698624
USER: SEED 104
USER: STATUS no improvement in best in 12 clusters for 5 generations
USER: GENES 27
USER: genes 0 Translation |==|  0.40098 0.62711 0.37398
USER: genes 1 Rotation |==|  0.54421 0.47518 0.28481 0.94847
USER: genes 2 Torsion [N]-CA--C-[N] |==|  0.03946
USER: genes 3 Torsion [C]-N--CA-[C] |==|  0.71399
USER: genes 4 Torsion [N]-CA--CB-[CG] |==|  0.67264
USER: genes 5 Torsion [CA]-CB--CG-[CD] |==|  0.24851
USER: genes 6 Torsion [CB]-CG--CD-[OE2] |==|  0.76182
USER: genes 7 Torsion [N]-CA--C-[N] |==|  0.43684
USER: genes 8 Torsion [C]-N--CA-[CB] |==|  0.47232
USER: genes 9 Torsion [N]-CA--CB-[CG1] |==|  0.81628
USER: genes 10 Torsion [N]-CA--C-[N] |==|  0.41785
USER: genes 11 Torsion [C]-N--CA-[CB] |==|  0.29787
USER: genes 12 Torsion [N]-CA--CB-[CG] |==|  0.86674
USER: genes 13 Torsion [CA]-CB--CG-[OD2] |==|  0.24170
USER: genes 14 Torsion [N]-CA--C-[O] |==|  0.55693
USER: genes 15 Torsion [C]-CA--CB-[CG] |==|  0.29532
USER: genes 16 Torsion [CA]-CB--CG-[CD] |==|  0.98591
USER: genes 17 Torsion [CB]-CG--CD-[OE2] |==|  0.22429
USER: genes 18 Torsion [C]-CA--N-[C] |==|  0.71351
USER: genes 19 Torsion [N]-C--CA-[N] |==|  0.93181
USER: genes 20 Torsion [C]-CA--CB-[CG1] |==|  0.86600
USER: genes 21 Torsion [C]-CA--N-[C] |==|  0.74194
USER: genes 22 Torsion [N]-C--CA-[N] |==|  0.86907
USER: genes 23 Torsion [C]-CA--CB-[CG2] |==|  0.31667
USER: genes 24 Torsion [CA]-CB--OG1-[HG1] |==|  0.61122
USER: genes 25 Torsion [C]-CA--N-[C] |==|  0.82055
USER: genes 26 Torsion [N]-C--CA-[CB] |==|  0.74463
ROOT
ATOM      1  CA  GLU Q 639      21.585 -35.342  51.224  1.00 17.71 LIG 0.18  C 
ENDROOT
BRANCH 1 2
ATOM      2  C   GLU Q 639      20.660 -35.857  52.322  1.00 15.36 LIG 0.24  C 
ATOM      3 O    GLU Q 639      19.510 -35.431  52.430  1.00 14.90 LIG-0.27  OA
ATOM      4  N   GLU Q 640      21.171 -36.775  53.136  1.00 12.94 LIG-0.35  N 
ATOM      5 H    GLU Q 640      21.972 -37.080  53.072  1.00 12.94 LIG 0.16  HD
BRANCH 4 6
ATOM      6  CA  GLU Q 640      20.393 -37.350  54.227  1.00 11.11 LIG 0.18  C 
BRANCH 6 7
ATOM      7  CB  GLU Q 640      20.592 -38.869  54.234  1.00 10.30 LIG 0.04  C 
BRANCH 7 8
ATOM      8  CG  GLU Q 640      19.278 -39.629  53.990  1.00 11.77 LIG 0.12  C 
BRANCH 8 9
ATOM      9  CD  GLU Q 640      18.981 -39.901  52.509  1.00 13.33 LIG 0.17  C 
ATOM     10 OE2  GLU Q 640      18.397 -39.016  51.850  1.00 13.21 LIG-0.65  OA
ATOM     11 OE1  GLU Q 640      19.325 -41.001  52.007  1.00 12.97 LIG-0.65  OA
ENDBRANCH 8 9
ENDBRANCH 7 8
ENDBRANCH 6 7
BRANCH 6 12
ATOM     12  C   GLU Q 640      20.802 -36.743  55.572  1.00  9.90 LIG 0.24  C 
ATOM     13  N   VAL Q 641      19.896 -36.811  56.556  1.00  8.06 LIG-0.35  N 
ATOM     14 H    VAL Q 641      19.077 -37.038  56.423  1.00  8.06 LIG 0.16  HD
ATOM     15 O    GLU Q 640      21.922 -36.222  55.701  1.00  9.48 LIG-0.27  OA
BRANCH 13 16
ATOM     16  CA  VAL Q 641      20.201 -36.506  57.971  1.00  6.68 LIG 0.18  C 
BRANCH 16 17
ATOM     17  CB  VAL Q 641      18.927 -36.422  58.866  1.00  5.82 LIG 0.01  C 
ATOM     18  CG2 VAL Q 641      18.149 -37.713  58.838  1.00  2.95 LIG 0.01  C 
ATOM     19  CG1 VAL Q 641      18.091 -35.256  58.462  1.00  4.23 LIG 0.01  C 
ENDBRANCH 16 17
BRANCH 16 20
ATOM     20  C   VAL Q 641      21.189 -37.516  58.595  1.00  6.62 LIG 0.24  C 
ATOM     21 O    VAL Q 641      21.229 -38.678  58.206  1.00  7.26 LIG-0.27  OA
ATOM     22  N   ASP Q 642      21.975 -37.063  59.560  1.00  6.11 LIG-0.34  N 
ATOM     23 H    ASP Q 642      21.954 -36.253  59.848  1.00  6.11 LIG 0.16  HD
BRANCH 22 24
ATOM     24  CA  ASP Q 642      22.961 -37.908  60.231  1.00  5.85 LIG 0.20  C 
BRANCH 24 25
ATOM     25  CB  ASP Q 642      24.383 -37.521  59.777  1.00  5.86 LIG 0.15  C 
BRANCH 25 26
ATOM     26  CG  ASP Q 642      24.508 -37.398  58.237  1.00  7.09 LIG 0.17  C 
ATOM     27 OD2  ASP Q 642      24.231 -36.302  57.718  1.00  7.75 LIG-0.65  OA
ATOM     28 OD1  ASP Q 642      24.891 -38.369  57.553  1.00  5.16 LIG-0.65  OA
ENDBRANCH 25 26
ENDBRANCH 24 25
BRANCH 24 29
ATOM     29  C   ASP Q 642      22.830 -37.793  61.764  1.00  5.53 LIG 0.20  C 
ATOM     30 O    ASP Q 642      23.764 -38.104  62.520  1.00  4.89 LIG-0.65  OA
ATOM     31 OXT  ASP Q 642      21.791 -37.350  62.282  1.00  5.08 LIG-0.65  OA
ENDBRANCH 24 29
ENDBRANCH 22 24
ENDBRANCH 16 20
ENDBRANCH 13 16
ENDBRANCH 6 12
ENDBRANCH 4 6
ENDBRANCH 1 2
BRANCH 1 32
ATOM     32  CB  GLU Q 639      20.822 -35.237  49.901  1.00 18.28 LIG 0.04  C 
BRANCH 32 33
ATOM     33  CG  GLU Q 639      20.491 -33.813  49.486  1.00 21.94 LIG 0.12  C 
BRANCH 33 34
ATOM     34  CD  GLU Q 639      20.882 -32.794  50.538  1.00 26.00 LIG 0.17  C 
ATOM     35 OE1  GLU Q 639      19.997 -32.359  51.304  1.00 25.44 LIG-0.65  OA
ATOM     36 OE2  GLU Q 639      22.075 -32.428  50.600  1.00 27.11 LIG-0.65  OA
ENDBRANCH 33 34
ENDBRANCH 32 33
ENDBRANCH 1 32
BRANCH 1 37
ATOM     37  N   GLU Q 639      22.752 -36.200  51.074  1.00 19.24 LIG-0.35  N 
ATOM     38  C   VAL Q 638      23.942 -35.853  51.556  1.00 20.97 LIG 0.24  C 
ATOM     39 O    VAL Q 638      24.139 -34.795  52.156  1.00 20.96 LIG-0.27  OA
ATOM     40 H    GLU Q 639      22.601 -36.936  50.655  1.00 19.24 LIG 0.16  HD
BRANCH 38 41
ATOM     41  CA  VAL Q 638      25.077 -36.846  51.329  1.00 22.03 LIG 0.18  C 
BRANCH 41 42
ATOM     42  CB  VAL Q 638      25.908 -36.392  50.115  1.00 22.63 LIG 0.01  C 
ATOM     43  CG1 VAL Q 638      24.998 -36.054  48.944  1.00 22.21 LIG 0.01  C 
ATOM     44  CG2 VAL Q 638      26.778 -35.200  50.484  1.00 20.65 LIG 0.01  C 
ENDBRANCH 41 42
BRANCH 41 45
ATOM     45  N   VAL Q 638      24.566 -38.199  51.150  1.00 23.53 LIG-0.35  N 
ATOM     46 H    VAL Q 638      24.369 -38.349  50.326  1.00 23.53 LIG 0.16  HD
ATOM     47  C   THR Q 637      24.388 -39.148  52.064  1.00 24.82 LIG 0.24  C 
ATOM     48 O    THR Q 637      24.206 -38.905  53.256  1.00 25.63 LIG-0.27  OA
BRANCH 47 49
ATOM     49  CA  THR Q 637      24.421 -40.586  51.556  1.00 25.03 LIG 0.20  C 
BRANCH 49 50
ATOM     50  CB  THR Q 637      25.898 -40.591  51.123  1.00 24.88 LIG 0.15  C 
ATOM     51  CG2 THR Q 637      26.703 -41.553  51.984  1.00 23.89 LIG 0.04  C 
BRANCH 50 52
ATOM     52 OG1  THR Q 637      25.996 -40.988  49.750  1.00 24.10 LIG-0.39  OA
ATOM     53 HG1  THR Q 637      26.658 -41.495  49.652  1.00 24.10 LIG 0.21  HD
ENDBRANCH 50 52
ENDBRANCH 49 50
BRANCH 49 54
ATOM     54  N   THR Q 637      23.532 -40.364  50.422  1.00 26.29 LIG-0.34  N 
ATOM     55 H    THR Q 637      23.901 -40.478  49.653  1.00 26.29 LIG 0.16  HD
ATOM     56  C   PRO Q 636      22.260 -40.016  50.589  1.00 27.07 LIG 0.25  C 
ATOM     57 O    PRO Q 636      21.743 -39.857  51.694  1.00 27.06 LIG-0.27  OA
BRANCH 56 58
ATOM     58  CA  PRO Q 636      21.435 -39.814  49.323  1.00 27.59 LIG 0.35  C 
ATOM     59  CB  PRO Q 636      21.487 -38.349  48.889  1.00 27.63 LIG 0.05  C 
ATOM     60  CG  PRO Q 636      20.156 -38.094  48.278  1.00 27.91 LIG 0.04  C 
ATOM     61  CD  PRO Q 636      19.179 -38.924  49.062  1.00 28.09 LIG 0.32  C 
ATOM     62  N   PRO Q 636      20.005 -40.036  49.563  1.00 27.47 LIG 0.32  N 
ENDBRANCH 56 58
ENDBRANCH 49 54
ENDBRANCH 47 49
ENDBRANCH 41 45
ENDBRANCH 38 41
ENDBRANCH 1 37
TORSDOF 25
ENDMDL
MODEL 20
USER: ADFR SOLUTION from run 97
USER: SCORE 19.041856 LL:  -5.748 LR: -15.559 RR:   0.000 FEB:  -8.101
USER: RMSD 4.698212
USER: SEED 96
USER: STATUS no improvement in best in 6 clusters for 5 generations
USER: GENES 27
USER: genes 0 Translation |==|  0.23174 0.62320 0.38961
USER: genes 1 Rotation |==|  0.57825 0.62591 0.52769 0.97672
USER: genes 2 Torsion [N]-CA--C-[N] |==|  0.15941
USER: genes 3 Torsion [C]-N--CA-[C] |==|  0.59870
USER: genes 4 Torsion [N]-CA--CB-[CG] |==|  0.62427
USER: genes 5 Torsion [CA]-CB--CG-[CD] |==|  0.52439
USER: genes 6 Torsion [CB]-CG--CD-[OE2] |==|  0.59579
USER: genes 7 Torsion [N]-CA--C-[N] |==|  0.27475
USER: genes 8 Torsion [C]-N--CA-[CB] |==|  0.45722
USER: genes 9 Torsion [N]-CA--CB-[CG1] |==|  0.81980
USER: genes 10 Torsion [N]-CA--C-[N] |==|  0.40173
USER: genes 11 Torsion [C]-N--CA-[CB] |==|  0.31709
USER: genes 12 Torsion [N]-CA--CB-[CG] |==|  0.86021
USER: genes 13 Torsion [CA]-CB--CG-[OD2] |==|  0.23330
USER: genes 14 Torsion [N]-CA--C-[O] |==|  0.55002
USER: genes 15 Torsion [C]-CA--CB-[CG] |==|  0.50220
USER: genes 16 Torsion [CA]-CB--CG-[CD] |==|  0.28512
USER: genes 17 Torsion [CB]-CG--CD-[OE2] |==|  0.45354
USER: genes 18 Torsion [C]-CA--N-[C] |==|  0.67129
USER: genes 19 Torsion [N]-C--CA-[N] |==|  0.99426
USER: genes 20 Torsion [C]-CA--CB-[CG1] |==|  0.49767
USER: genes 21 Torsion [C]-CA--N-[C] |==|  0.80216
USER: genes 22 Torsion [N]-C--CA-[N] |==|  0.90418
USER: genes 23 Torsion [C]-CA--CB-[CG2] |==|  0.40557
USER: genes 24 Torsion [CA]-CB--OG1-[HG1] |==|  0.64399
USER: genes 25 Torsion [C]-CA--N-[C] |==|  0.79285
USER: genes 26 Torsion [N]-C--CA-[CB] |==|  0.12696
ROOT
ATOM      1  CA  GLU Q 639      18.538 -35.415  51.611  1.00 17.71 LIG 0.18  C 
ENDROOT
BRANCH 1 2
ATOM      2  C   GLU Q 639      19.061 -36.550  52.485  1.00 15.36 LIG 0.24  C 
ATOM      3 O    GLU Q 639      18.628 -37.695  52.358  1.00 14.90 LIG-0.27  OA
ATOM      4  N   GLU Q 640      19.994 -36.224  53.374  1.00 12.94 LIG-0.35  N 
ATOM      5 H    GLU Q 640      20.304 -35.429  53.473  1.00 12.94 LIG 0.16  HD
BRANCH 4 6
ATOM      6  CA  GLU Q 640      20.577 -37.214  54.271  1.00 11.11 LIG 0.18  C 
BRANCH 6 7
ATOM      7  CB  GLU Q 640      21.853 -37.773  53.634  1.00 10.30 LIG 0.04  C 
BRANCH 7 8
ATOM      8  CG  GLU Q 640      21.939 -39.304  53.750  1.00 11.77 LIG 0.12  C 
BRANCH 8 9
ATOM      9  CD  GLU Q 640      23.292 -39.886  53.319  1.00 13.33 LIG 0.17  C 
ATOM     10 OE2  GLU Q 640      23.305 -41.001  52.758  1.00 13.21 LIG-0.65  OA
ATOM     11 OE1  GLU Q 640      24.341 -39.232  53.549  1.00 12.97 LIG-0.65  OA
ENDBRANCH 8 9
ENDBRANCH 7 8
ENDBRANCH 6 7
BRANCH 6 12
ATOM     12  C   GLU Q 640      20.878 -36.602  55.642  1.00  9.90 LIG 0.24  C 
ATOM     13  N   VAL Q 641      19.976 -36.829  56.606  1.00  8.06 LIG-0.35  N 
ATOM     14 H    VAL Q 641      19.199 -37.163  56.451  1.00  8.06 LIG 0.16  HD
ATOM     15 O    GLU Q 640      21.912 -35.935  55.809  1.00  9.48 LIG-0.27  OA
BRANCH 13 16
ATOM     16  CA  VAL Q 641      20.216 -36.533  58.036  1.00  6.68 LIG 0.18  C 
BRANCH 16 17
ATOM     17  CB  VAL Q 641      18.908 -36.526  58.886  1.00  5.82 LIG 0.01  C 
ATOM     18  CG2 VAL Q 641      18.212 -37.862  58.836  1.00  2.95 LIG 0.01  C 
ATOM     19  CG1 VAL Q 641      18.017 -35.414  58.448  1.00  4.23 LIG 0.01  C 
ENDBRANCH 16 17
BRANCH 16 20
ATOM     20  C   VAL Q 641      21.230 -37.505  58.681  1.00  6.62 LIG 0.24  C 
ATOM     21 O    VAL Q 641      21.267 -38.684  58.349  1.00  7.26 LIG-0.27  OA
ATOM     22  N   ASP Q 642      22.039 -36.999  59.598  1.00  6.11 LIG-0.34  N 
ATOM     23 H    ASP Q 642      22.020 -36.176  59.846  1.00  6.11 LIG 0.16  HD
BRANCH 22 24
ATOM     24  CA  ASP Q 642      23.050 -37.802  60.282  1.00  5.85 LIG 0.20  C 
BRANCH 24 25
ATOM     25  CB  ASP Q 642      24.462 -37.312  59.897  1.00  5.86 LIG 0.15  C 
BRANCH 25 26
ATOM     26  CG  ASP Q 642      24.655 -37.185  58.364  1.00  7.09 LIG 0.17  C 
ATOM     27 OD2  ASP Q 642      24.271 -36.137  57.816  1.00  7.75 LIG-0.65  OA
ATOM     28 OD1  ASP Q 642      25.194 -38.105  57.716  1.00  5.16 LIG-0.65  OA
ENDBRANCH 25 26
ENDBRANCH 24 25
BRANCH 24 29
ATOM     29  C   ASP Q 642      22.855 -37.747  61.810  1.00  5.53 LIG 0.20  C 
ATOM     30 O    ASP Q 642      23.763 -38.069  62.593  1.00  4.89 LIG-0.65  OA
ATOM     31 OXT  ASP Q 642      21.786 -37.345  62.300  1.00  5.08 LIG-0.65  OA
ENDBRANCH 24 29
ENDBRANCH 22 24
ENDBRANCH 16 20
ENDBRANCH 13 16
ENDBRANCH 6 12
ENDBRANCH 4 6
ENDBRANCH 1 2
BRANCH 1 32
ATOM     32  CB  GLU Q 639      17.473 -35.942  50.647  1.00 18.28 LIG 0.04  C 
BRANCH 32 33
ATOM     33  CG  GLU Q 639      16.901 -34.886  49.715  1.00 21.94 LIG 0.12  C 
BRANCH 33 34
ATOM     34  CD  GLU Q 639      17.471 -34.976  48.313  1.00 26.00 LIG 0.17  C 
ATOM     35 OE1  GLU Q 639      18.519 -35.632  48.137  1.00 25.44 LIG-0.65  OA
ATOM     36 OE2  GLU Q 639      16.870 -34.392  47.387  1.00 27.11 LIG-0.65  OA
ENDBRANCH 33 34
ENDBRANCH 32 33
ENDBRANCH 1 32
BRANCH 1 37
ATOM     37  N   GLU Q 639      19.622 -34.777  50.875  1.00 19.24 LIG-0.35  N 
ATOM     38  C   VAL Q 638      19.923 -33.493  51.047  1.00 20.97 LIG 0.24  C 
ATOM     39 O    VAL Q 638      19.317 -32.762  51.832  1.00 20.96 LIG-0.27  OA
ATOM     40 H    GLU Q 639      20.038 -35.298  50.332  1.00 19.24 LIG 0.16  HD
BRANCH 38 41
ATOM     41  CA  VAL Q 638      21.081 -32.955  50.214  1.00 22.03 LIG 0.18  C 
BRANCH 41 42
ATOM     42  CB  VAL Q 638      20.577 -31.787  49.347  1.00 22.63 LIG 0.01  C 
ATOM     43  CG1 VAL Q 638      21.714 -31.212  48.516  1.00 22.21 LIG 0.01  C 
ATOM     44  CG2 VAL Q 638      19.434 -32.244  48.453  1.00 20.65 LIG 0.01  C 
ENDBRANCH 41 42
BRANCH 41 45
ATOM     45  N   VAL Q 638      21.678 -34.006  49.399  1.00 23.53 LIG-0.35  N 
ATOM     46 H    VAL Q 638      21.491 -33.895  48.566  1.00 23.53 LIG 0.16  HD
ATOM     47  C   THR Q 637      22.422 -35.036  49.787  1.00 24.82 LIG 0.24  C 
ATOM     48 O    THR Q 637      22.362 -35.520  50.916  1.00 25.63 LIG-0.27  OA
BRANCH 47 49
ATOM     49  CA  THR Q 637      23.377 -35.607  48.743  1.00 25.03 LIG 0.20  C 
BRANCH 49 50
ATOM     50  CB  THR Q 637      24.455 -34.516  48.869  1.00 24.88 LIG 0.15  C 
ATOM     51  CG2 THR Q 637      25.840 -35.108  48.654  1.00 23.89 LIG 0.04  C 
BRANCH 50 52
ATOM     52 OG1  THR Q 637      24.221 -33.493  47.894  1.00 24.10 LIG-0.39  OA
ATOM     53 HG1  THR Q 637      24.925 -33.355  47.457  1.00 24.10 LIG 0.21  HD
ENDBRANCH 50 52
ENDBRANCH 49 50
BRANCH 49 54
ATOM     54  N   THR Q 637      22.507 -35.369  47.598  1.00 26.29 LIG-0.34  N 
ATOM     55 H    THR Q 637      22.747 -34.709  47.100  1.00 26.29 LIG 0.16  HD
ATOM     56  C   PRO Q 636      21.437 -36.123  47.365  1.00 27.07 LIG 0.25  C 
ATOM     57 O    PRO Q 636      21.104 -37.064  48.083  1.00 27.06 LIG-0.27  OA
BRANCH 56 58
ATOM     58  CA  PRO Q 636      20.608 -35.771  46.134  1.00 27.59 LIG 0.35  C 
ATOM     59  CB  PRO Q 636      21.524 -35.534  44.932  1.00 27.63 LIG 0.05  C 
ATOM     60  CG  PRO Q 636      20.829 -34.489  44.136  1.00 27.91 LIG 0.04  C 
ATOM     61  CD  PRO Q 636      20.154 -33.593  45.135  1.00 28.09 LIG 0.32  C 
ATOM     62  N   PRO Q 636      19.925 -34.483  46.287  1.00 27.47 LIG 0.32  N 
ENDBRANCH 56 58
ENDBRANCH 49 54
ENDBRANCH 47 49
ENDBRANCH 41 45
ENDBRANCH 38 41
ENDBRANCH 1 37
TORSDOF 25
ENDMDL
