MODEL 1
USER: ADFR SOLUTION from run 79
USER: SCORE 22.048831 LL:  -4.285 LR: -19.396 RR:   0.000 FEB: -12.833
USER: RMSD 0.925161
USER: SEED 78
USER: STATUS 1 or 2 clusters left
USER: GENES 24
USER: genes 0 Translation |==|  0.50387 0.51799 0.55530
USER: genes 1 Rotation |==|  0.51979 0.50324 0.47595 0.99902
USER: genes 2 Torsion [C]-CA--N-[C] |==|  0.81537
USER: genes 3 Torsion [N]-C--CA-[N] |==|  0.36781
USER: genes 4 Torsion [C]-CA--N-[C] |==|  0.84845
USER: genes 5 Torsion [N]-C--CA-[N] |==|  0.39559
USER: genes 6 Torsion [C]-CA--N-[C] |==|  0.76860
USER: genes 7 Torsion [C]-CA--CB-[CG] |==|  0.52403
USER: genes 8 Torsion [CA]-CB--CG-[SD] |==|  0.55206
USER: genes 9 Torsion [CB]-CG--SD-[CE] |==|  0.25531
USER: genes 10 Torsion [C]-CA--CB-[CG] |==|  0.40601
USER: genes 11 Torsion [CA]-CB--CG-[CD] |==|  0.82778
USER: genes 12 Torsion [CB]-CG--CD-[OE1] |==|  0.03422
USER: genes 13 Torsion [N]-CA--C-[N] |==|  0.32611
USER: genes 14 Torsion [C]-N--CA-[CB] |==|  0.41667
USER: genes 15 Torsion [N]-CA--CB-[CG1] |==|  0.78868
USER: genes 16 Torsion [N]-CA--C-[N] |==|  0.44194
USER: genes 17 Torsion [C]-N--CA-[C] |==|  0.65962
USER: genes 18 Torsion [N]-CA--C-[OXT] |==|  0.01760
USER: genes 19 Torsion [N]-CA--CB-[CG] |==|  0.91012
USER: genes 20 Torsion [CA]-CB--CG-[CD1] |==|  0.75649
USER: genes 21 Torsion [N]-CA--CB-[CG] |==|  0.86982
USER: genes 22 Torsion [CA]-CB--CG-[CD] |==|  0.48593
USER: genes 23 Torsion [CB]-CG--CD-[OE2] |==|  0.49100
ROOT
ATOM      1  CA  GLU C   3     -19.234  10.124   3.112  1.00 17.34 LIG 0.18  C 
ENDROOT
BRANCH 1 2
ATOM      2  N   GLU C   3     -18.499   9.424   2.052  1.00 16.96 LIG-0.35  N 
ATOM      3  C   GLU C   2     -19.042   9.222   0.864  1.00 16.75 LIG 0.24  C 
ATOM      4 O    GLU C   2     -20.184   9.589   0.575  1.00 16.41 LIG-0.27  OA
ATOM      5 H    GLU C   3     -17.709   9.168   2.272  1.00 16.96 LIG 0.16  HD
BRANCH 3 6
ATOM      6  CA  GLU C   2     -18.158   8.515  -0.155  1.00 16.90 LIG 0.18  C 
BRANCH 6 7
ATOM      7  N   GLU C   2     -18.925   7.453  -0.776  1.00 16.95 LIG-0.35  N 
ATOM      8  C   MET C   1     -19.533   6.513  -0.078  1.00 17.22 LIG 0.24  C 
ATOM      9 O    MET C   1     -19.387   6.341   1.138  1.00 17.07 LIG-0.27  OA
ATOM     10 H    GLU C   2     -18.945   7.494  -1.635  1.00 16.95 LIG 0.16  HD
BRANCH 8 11
ATOM     11  CA  MET C   1     -20.436   5.630  -0.918  1.00 17.60 LIG 0.18  C 
BRANCH 11 12
ATOM     12  N   MET C   1     -20.389   4.230  -0.480  1.00 17.57 LIG-0.35  N 
ATOM     13 H    MET C   1     -21.031   4.016   0.052  1.00 17.57 LIG 0.16  HD
ATOM     14  C   ACE C   0     -19.454   3.373  -0.861  1.00 17.66 LIG 0.21  C 
ATOM     15 O    ACE C   0     -19.404   2.271  -0.327  1.00 18.17 LIG-0.27  OA
ATOM     16  CH3 ACE C   0     -18.684   3.671  -2.112  1.00 17.74 LIG 0.12  C 
ENDBRANCH 11 12
BRANCH 11 17
ATOM     17  CB  MET C   1     -21.871   6.182  -0.848  1.00 17.86 LIG 0.04  C 
BRANCH 17 18
ATOM     18  CG  MET C   1     -22.942   5.279  -1.477  1.00 18.56 LIG 0.08  C 
BRANCH 18 19
ATOM     19 SD   MET C   1     -24.466   6.181  -1.851  1.00 20.55 LIG-0.17  SA
ATOM     20  CE  MET C   1     -24.176   6.695  -3.548  1.00 18.76 LIG 0.09  C 
ENDBRANCH 18 19
ENDBRANCH 17 18
ENDBRANCH 11 17
ENDBRANCH 8 11
ENDBRANCH 6 7
BRANCH 6 21
ATOM     21  CB  GLU C   2     -17.672   9.514  -1.215  1.00 16.89 LIG 0.04  C 
BRANCH 21 22
ATOM     22  CG  GLU C   2     -16.279   9.222  -1.734  1.00 17.75 LIG 0.12  C 
BRANCH 22 23
ATOM     23  CD  GLU C   2     -15.228   9.298  -0.649  1.00 17.83 LIG 0.17  C 
ATOM     24 OE1  GLU C   2     -15.595   9.346   0.537  1.00 16.84 LIG-0.65  OA
ATOM     25 OE2  GLU C   2     -14.028   9.317  -0.986  1.00 19.94 LIG-0.65  OA
ENDBRANCH 22 23
ENDBRANCH 21 22
ENDBRANCH 6 21
ENDBRANCH 3 6
ENDBRANCH 1 2
BRANCH 1 26
ATOM     26  C   GLU C   3     -19.479  11.567   2.776  1.00 16.67 LIG 0.24  C 
ATOM     27 O    GLU C   3     -18.549  12.368   2.667  1.00 16.39 LIG-0.27  OA
ATOM     28  N   VAL C   4     -20.757  11.884   2.673  1.00 16.17 LIG-0.35  N 
ATOM     29 H    VAL C   4     -21.391  11.303   2.656  1.00 16.17 LIG 0.16  HD
BRANCH 28 30
ATOM     30  CA  VAL C   4     -21.214  13.263   2.577  1.00 16.42 LIG 0.18  C 
BRANCH 30 31
ATOM     31  CB  VAL C   4     -22.515  13.401   1.768  1.00 16.37 LIG 0.01  C 
ATOM     32  CG1 VAL C   4     -22.217  13.269   0.268  1.00 16.31 LIG 0.01  C 
ATOM     33  CG2 VAL C   4     -23.567  12.384   2.239  1.00 16.31 LIG 0.01  C 
ENDBRANCH 30 31
BRANCH 30 34
ATOM     34  C   VAL C   4     -21.395  13.839   3.979  1.00 17.02 LIG 0.24  C 
ATOM     35 O    VAL C   4     -21.518  13.113   4.962  1.00 16.27 LIG-0.27  OA
ATOM     36  N   PHE C   5     -21.381  15.162   4.049  1.00 17.75 LIG-0.34  N 
ATOM     37 H    PHE C   5     -21.360  15.679   3.361  1.00 17.75 LIG 0.16  HD
BRANCH 36 38
ATOM     38  CA  PHE C   5     -21.400  15.863   5.327  1.00 18.16 LIG 0.19  C 
BRANCH 38 39
ATOM     39  C   PHE C   5     -22.589  16.813   5.418  1.00 18.09 LIG 0.20  C 
ATOM     40 O    PHE C   5     -22.703  17.561   6.395  1.00 17.71 LIG-0.65  OA
ATOM     41 OXT  PHE C   5     -23.454  16.826   4.525  1.00 17.63 LIG-0.65  OA
ENDBRANCH 38 39
BRANCH 38 42
ATOM     42  CB  PHE C   5     -20.068  16.604   5.510  1.00 18.57 LIG 0.07  C 
BRANCH 42 43
ATOM     43  CG  PHE C   5     -18.897  15.886   4.873  1.00 19.32 LIG-0.06  A 
ATOM     44  CD1 PHE C   5     -18.188  14.922   5.572  1.00 20.35 LIG 0.01  A 
ATOM     45  CE1 PHE C   5     -17.129  14.255   4.977  1.00 19.79 LIG 0.00  A 
ATOM     46  CZ  PHE C   5     -16.777  14.545   3.678  1.00 20.19 LIG 0.00  A 
ATOM     47  CE2 PHE C   5     -17.472  15.494   2.975  1.00 20.40 LIG 0.00  A 
ATOM     48  CD2 PHE C   5     -18.530  16.155   3.567  1.00 20.78 LIG 0.01  A 
ENDBRANCH 42 43
ENDBRANCH 38 42
ENDBRANCH 36 38
ENDBRANCH 30 34
ENDBRANCH 28 30
ENDBRANCH 1 26
BRANCH 1 49
ATOM     49  CB  GLU C   3     -18.488  10.091   4.447  1.00 17.73 LIG 0.04  C 
BRANCH 49 50
ATOM     50  CG  GLU C   3     -17.961   8.747   4.828  1.00 21.08 LIG 0.12  C 
BRANCH 50 51
ATOM     51  CD  GLU C   3     -17.131   8.823   6.096  1.00 24.82 LIG 0.17  C 
ATOM     52 OE2  GLU C   3     -16.676   7.752   6.569  1.00 28.13 LIG-0.65  OA
ATOM     53 OE1  GLU C   3     -16.939   9.958   6.606  1.00 24.98 LIG-0.65  OA
ENDBRANCH 50 51
ENDBRANCH 49 50
ENDBRANCH 1 49
TORSDOF 22
ENDMDL
MODEL 2
USER: ADFR SOLUTION from run 47
USER: SCORE 21.317559 LL:  -4.468 LR: -19.253 RR:   0.000 FEB: -12.690
USER: RMSD 2.495393
USER: SEED 46
USER: STATUS 1 or 2 clusters left
USER: GENES 24
USER: genes 0 Translation |==|  0.50564 0.51683 0.55661
USER: genes 1 Rotation |==|  0.50441 0.51184 0.48010 0.99944
USER: genes 2 Torsion [C]-CA--N-[C] |==|  0.82169
USER: genes 3 Torsion [N]-C--CA-[N] |==|  0.37092
USER: genes 4 Torsion [C]-CA--N-[C] |==|  0.85456
USER: genes 5 Torsion [N]-C--CA-[N] |==|  0.86535
USER: genes 6 Torsion [C]-CA--N-[C] |==|  0.61776
USER: genes 7 Torsion [C]-CA--CB-[CG] |==|  0.03125
USER: genes 8 Torsion [CA]-CB--CG-[SD] |==|  0.57361
USER: genes 9 Torsion [CB]-CG--SD-[CE] |==|  0.44165
USER: genes 10 Torsion [C]-CA--CB-[CG] |==|  0.40591
USER: genes 11 Torsion [CA]-CB--CG-[CD] |==|  0.80744
USER: genes 12 Torsion [CB]-CG--CD-[OE1] |==|  0.04999
USER: genes 13 Torsion [N]-CA--C-[N] |==|  0.33911
USER: genes 14 Torsion [C]-N--CA-[CB] |==|  0.39733
USER: genes 15 Torsion [N]-CA--CB-[CG1] |==|  0.75547
USER: genes 16 Torsion [N]-CA--C-[N] |==|  0.43754
USER: genes 17 Torsion [C]-N--CA-[C] |==|  0.66419
USER: genes 18 Torsion [N]-CA--C-[OXT] |==|  0.00488
USER: genes 19 Torsion [N]-CA--CB-[CG] |==|  0.90212
USER: genes 20 Torsion [CA]-CB--CG-[CD1] |==|  0.76769
USER: genes 21 Torsion [N]-CA--CB-[CG] |==|  0.88642
USER: genes 22 Torsion [CA]-CB--CG-[CD] |==|  0.53052
USER: genes 23 Torsion [CB]-CG--CD-[OE2] |==|  0.54358
ROOT
ATOM      1  CA  GLU C   3     -19.202  10.096   3.136  1.00 17.34 LIG 0.18  C 
ENDROOT
BRANCH 1 2
ATOM      2  N   GLU C   3     -18.493   9.347   2.093  1.00 16.96 LIG-0.35  N 
ATOM      3  C   GLU C   2     -19.058   9.103   0.924  1.00 16.75 LIG 0.24  C 
ATOM      4 O    GLU C   2     -20.201   9.470   0.640  1.00 16.41 LIG-0.27  OA
ATOM      5 H    GLU C   3     -17.701   9.091   2.310  1.00 16.96 LIG 0.16  HD
BRANCH 3 6
ATOM      6  CA  GLU C   2     -18.198   8.347  -0.080  1.00 16.90 LIG 0.18  C 
BRANCH 6 7
ATOM      7  N   GLU C   2     -18.994   7.285  -0.665  1.00 16.95 LIG-0.35  N 
ATOM      8  C   MET C   1     -19.652   6.405   0.065  1.00 17.22 LIG 0.24  C 
ATOM      9 O    MET C   1     -19.537   6.289   1.291  1.00 17.07 LIG-0.27  OA
ATOM     10 H    GLU C   2     -18.996   7.284  -1.525  1.00 16.95 LIG 0.16  HD
BRANCH 8 11
ATOM     11  CA  MET C   1     -20.574   5.517  -0.749  1.00 17.60 LIG 0.18  C 
BRANCH 11 12
ATOM     12  N   MET C   1     -21.408   6.297  -1.670  1.00 17.57 LIG-0.35  N 
ATOM     13 H    MET C   1     -20.980   6.927  -2.070  1.00 17.57 LIG 0.16  HD
ATOM     14  C   ACE C   0     -22.696   6.062  -1.872  1.00 17.66 LIG 0.21  C 
ATOM     15 O    ACE C   0     -23.349   6.857  -2.538  1.00 18.17 LIG-0.27  OA
ATOM     16  CH3 ACE C   0     -23.235   4.707  -1.523  1.00 17.74 LIG 0.12  C 
ENDBRANCH 11 12
BRANCH 11 17
ATOM     17  CB  MET C   1     -19.722   4.489  -1.513  1.00 17.86 LIG 0.04  C 
BRANCH 17 18
ATOM     18  CG  MET C   1     -18.250   4.421  -1.080  1.00 18.56 LIG 0.08  C 
BRANCH 18 19
ATOM     19 SD   MET C   1     -17.170   3.837  -2.411  1.00 20.55 LIG-0.17  SA
ATOM     20  CE  MET C   1     -15.569   4.453  -1.875  1.00 18.76 LIG 0.09  C 
ENDBRANCH 18 19
ENDBRANCH 17 18
ENDBRANCH 11 17
ENDBRANCH 8 11
ENDBRANCH 6 7
BRANCH 6 21
ATOM     21  CB  GLU C   2     -17.698   9.303  -1.172  1.00 16.89 LIG 0.04  C 
BRANCH 21 22
ATOM     22  CG  GLU C   2     -16.316   8.964  -1.692  1.00 17.75 LIG 0.12  C 
BRANCH 22 23
ATOM     23  CD  GLU C   2     -15.233   9.218  -0.668  1.00 17.83 LIG 0.17  C 
ATOM     24 OE1  GLU C   2     -15.553   9.326   0.527  1.00 16.84 LIG-0.65  OA
ATOM     25 OE2  GLU C   2     -14.054   9.317  -1.063  1.00 19.94 LIG-0.65  OA
ENDBRANCH 22 23
ENDBRANCH 21 22
ENDBRANCH 6 21
ENDBRANCH 3 6
ENDBRANCH 1 2
BRANCH 1 26
ATOM     26  C   GLU C   3     -19.487  11.512   2.725  1.00 16.67 LIG 0.24  C 
ATOM     27 O    GLU C   3     -18.577  12.297   2.451  1.00 16.39 LIG-0.27  OA
ATOM     28  N   VAL C   4     -20.770  11.828   2.745  1.00 16.17 LIG-0.35  N 
ATOM     29 H    VAL C   4     -21.400  11.252   2.844  1.00 16.17 LIG 0.16  HD
BRANCH 28 30
ATOM     30  CA  VAL C   4     -21.237  13.200   2.600  1.00 16.42 LIG 0.18  C 
BRANCH 30 31
ATOM     31  CB  VAL C   4     -22.539  13.298   1.787  1.00 16.37 LIG 0.01  C 
ATOM     32  CG1 VAL C   4     -22.216  13.415   0.290  1.00 16.31 LIG 0.01  C 
ATOM     33  CG2 VAL C   4     -23.467  12.109   2.085  1.00 16.31 LIG 0.01  C 
ENDBRANCH 30 31
BRANCH 30 34
ATOM     34  C   VAL C   4     -21.424  13.823   3.981  1.00 17.02 LIG 0.24  C 
ATOM     35 O    VAL C   4     -21.571  13.132   4.985  1.00 16.27 LIG-0.27  OA
ATOM     36  N   PHE C   5     -21.388  15.148   4.008  1.00 17.75 LIG-0.34  N 
ATOM     37 H    PHE C   5     -21.351  15.642   3.305  1.00 17.75 LIG 0.16  HD
BRANCH 36 38
ATOM     38  CA  PHE C   5     -21.409  15.890   5.262  1.00 18.16 LIG 0.19  C 
BRANCH 38 39
ATOM     39  C   PHE C   5     -22.605  16.833   5.327  1.00 18.09 LIG 0.20  C 
ATOM     40 O    PHE C   5     -22.768  17.551   6.319  1.00 17.71 LIG-0.65  OA
ATOM     41 OXT  PHE C   5     -23.427  16.871   4.395  1.00 17.63 LIG-0.65  OA
ENDBRANCH 38 39
BRANCH 38 42
ATOM     42  CB  PHE C   5     -20.081  16.647   5.418  1.00 18.57 LIG 0.07  C 
BRANCH 42 43
ATOM     43  CG  PHE C   5     -18.897  15.886   4.862  1.00 19.32 LIG-0.06  A 
ATOM     44  CD1 PHE C   5     -18.253  14.920   5.620  1.00 20.35 LIG 0.01  A 
ATOM     45  CE1 PHE C   5     -17.180  14.214   5.099  1.00 19.79 LIG 0.00  A 
ATOM     46  CZ  PHE C   5     -16.749  14.466   3.815  1.00 20.19 LIG 0.00  A 
ATOM     47  CE2 PHE C   5     -17.379  15.417   3.055  1.00 20.40 LIG 0.00  A 
ATOM     48  CD2 PHE C   5     -18.450  16.117   3.573  1.00 20.78 LIG 0.01  A 
ENDBRANCH 42 43
ENDBRANCH 38 42
ENDBRANCH 36 38
ENDBRANCH 30 34
ENDBRANCH 28 30
ENDBRANCH 1 26
BRANCH 1 49
ATOM     49  CB  GLU C   3     -18.408  10.156   4.442  1.00 17.73 LIG 0.04  C 
BRANCH 49 50
ATOM     50  CG  GLU C   3     -17.725   8.881   4.810  1.00 21.08 LIG 0.12  C 
BRANCH 50 51
ATOM     51  CD  GLU C   3     -17.190   8.935   6.229  1.00 24.82 LIG 0.17  C 
ATOM     52 OE2  GLU C   3     -16.344   8.073   6.575  1.00 28.13 LIG-0.65  OA
ATOM     53 OE1  GLU C   3     -17.619   9.846   6.985  1.00 24.98 LIG-0.65  OA
ENDBRANCH 50 51
ENDBRANCH 49 50
ENDBRANCH 1 49
TORSDOF 22
ENDMDL
MODEL 3
USER: ADFR SOLUTION from run 150
USER: SCORE 21.190033 LL:  -5.104 LR: -18.168 RR:   0.000 FEB: -11.605
USER: RMSD 4.947160
USER: SEED 149
USER: STATUS no improvement in best in 3 clusters for 5 generations
USER: GENES 24
USER: genes 0 Translation |==|  0.50131 0.52792 0.55730
USER: genes 1 Rotation |==|  0.52534 0.41837 0.52341 0.99208
USER: genes 2 Torsion [C]-CA--N-[C] |==|  0.78965
USER: genes 3 Torsion [N]-C--CA-[N] |==|  0.05729
USER: genes 4 Torsion [C]-CA--N-[C] |==|  0.70431
USER: genes 5 Torsion [N]-C--CA-[N] |==|  0.31988
USER: genes 6 Torsion [C]-CA--N-[C] |==|  0.63561
USER: genes 7 Torsion [C]-CA--CB-[CG] |==|  0.45995
USER: genes 8 Torsion [CA]-CB--CG-[SD] |==|  0.32052
USER: genes 9 Torsion [CB]-CG--SD-[CE] |==|  0.93588
USER: genes 10 Torsion [C]-CA--CB-[CG] |==|  0.43576
USER: genes 11 Torsion [CA]-CB--CG-[CD] |==|  0.97309
USER: genes 12 Torsion [CB]-CG--CD-[OE1] |==|  0.78603
USER: genes 13 Torsion [N]-CA--C-[N] |==|  0.40108
USER: genes 14 Torsion [C]-N--CA-[CB] |==|  0.39000
USER: genes 15 Torsion [N]-CA--CB-[CG1] |==|  0.80254
USER: genes 16 Torsion [N]-CA--C-[N] |==|  0.37107
USER: genes 17 Torsion [C]-N--CA-[C] |==|  0.71734
USER: genes 18 Torsion [N]-CA--C-[OXT] |==|  0.01881
USER: genes 19 Torsion [N]-CA--CB-[CG] |==|  0.91776
USER: genes 20 Torsion [CA]-CB--CG-[CD1] |==|  0.76461
USER: genes 21 Torsion [N]-CA--CB-[CG] |==|  0.86565
USER: genes 22 Torsion [CA]-CB--CG-[CD] |==|  0.35833
USER: genes 23 Torsion [CB]-CG--CD-[OE2] |==|  0.50929
ROOT
ATOM      1  CA  GLU C   3     -19.280  10.362   3.149  1.00 17.34 LIG 0.18  C 
ENDROOT
BRANCH 1 2
ATOM      2  N   GLU C   3     -18.120   9.839   2.420  1.00 16.96 LIG-0.35  N 
ATOM      3  C   GLU C   2     -18.230   9.423   1.170  1.00 16.75 LIG 0.24  C 
ATOM      4 O    GLU C   2     -19.296   9.435   0.549  1.00 16.41 LIG-0.27  OA
ATOM      5 H    GLU C   3     -17.387   9.829   2.870  1.00 16.96 LIG 0.16  HD
BRANCH 3 6
ATOM      6  CA  GLU C   2     -16.942   8.937   0.520  1.00 16.90 LIG 0.18  C 
BRANCH 6 7
ATOM      7  N   GLU C   2     -15.996   8.591   1.564  1.00 16.95 LIG-0.35  N 
ATOM      8  C   MET C   1     -14.948   9.339   1.850  1.00 17.22 LIG 0.24  C 
ATOM      9 O    MET C   1     -14.573  10.305   1.173  1.00 17.07 LIG-0.27  OA
ATOM     10 H    GLU C   2     -16.183   7.859   1.975  1.00 16.95 LIG 0.16  HD
BRANCH 8 11
ATOM     11  CA  MET C   1     -14.216   8.896   3.102  1.00 17.60 LIG 0.18  C 
BRANCH 11 12
ATOM     12  N   MET C   1     -12.858   8.427   2.801  1.00 17.57 LIG-0.35  N 
ATOM     13 H    MET C   1     -12.413   8.967   2.301  1.00 17.57 LIG 0.16  HD
ATOM     14  C   ACE C   0     -12.359   7.285   3.251  1.00 17.66 LIG 0.21  C 
ATOM     15 O    ACE C   0     -11.276   6.901   2.825  1.00 18.17 LIG-0.27  OA
ATOM     16  CH3 ACE C   0     -12.993   6.658   4.456  1.00 17.74 LIG 0.12  C 
ENDBRANCH 11 12
BRANCH 11 17
ATOM     17  CB  MET C   1     -14.187  10.066   4.099  1.00 17.86 LIG 0.04  C 
BRANCH 17 18
ATOM     18  CG  MET C   1     -13.796   9.683   5.534  1.00 18.56 LIG 0.08  C 
BRANCH 18 19
ATOM     19 SD   MET C   1     -12.234  10.444   6.045  1.00 20.55 LIG-0.17  SA
ATOM     20  CE  MET C   1     -11.452  10.765   4.459  1.00 18.76 LIG 0.09  C 
ENDBRANCH 18 19
ENDBRANCH 17 18
ENDBRANCH 11 17
ENDBRANCH 8 11
ENDBRANCH 6 7
BRANCH 6 21
ATOM     21  CB  GLU C   2     -17.227   7.717  -0.367  1.00 16.89 LIG 0.04  C 
BRANCH 21 22
ATOM     22  CG  GLU C   2     -16.194   7.499  -1.454  1.00 17.75 LIG 0.12  C 
BRANCH 22 23
ATOM     23  CD  GLU C   2     -15.232   8.659  -1.582  1.00 17.83 LIG 0.17  C 
ATOM     24 OE1  GLU C   2     -15.614   9.692  -2.157  1.00 16.84 LIG-0.65  OA
ATOM     25 OE2  GLU C   2     -14.085   8.533  -1.111  1.00 19.94 LIG-0.65  OA
ENDBRANCH 22 23
ENDBRANCH 21 22
ENDBRANCH 6 21
ENDBRANCH 3 6
ENDBRANCH 1 2
BRANCH 1 26
ATOM     26  C   GLU C   3     -19.642  11.755   2.718  1.00 16.67 LIG 0.24  C 
ATOM     27 O    GLU C   3     -18.775  12.589   2.450  1.00 16.39 LIG-0.27  OA
ATOM     28  N   VAL C   4     -20.941  11.994   2.715  1.00 16.17 LIG-0.35  N 
ATOM     29 H    VAL C   4     -21.537  11.383   2.810  1.00 16.17 LIG 0.16  HD
BRANCH 28 30
ATOM     30  CA  VAL C   4     -21.486  13.334   2.547  1.00 16.42 LIG 0.18  C 
BRANCH 30 31
ATOM     31  CB  VAL C   4     -22.742  13.355   1.659  1.00 16.37 LIG 0.01  C 
ATOM     32  CG1 VAL C   4     -22.356  13.079   0.198  1.00 16.31 LIG 0.01  C 
ATOM     33  CG2 VAL C   4     -23.798  12.364   2.173  1.00 16.31 LIG 0.01  C 
ENDBRANCH 30 31
BRANCH 30 34
ATOM     34  C   VAL C   4     -21.794  13.934   3.917  1.00 17.02 LIG 0.24  C 
ATOM     35 O    VAL C   4     -22.366  13.287   4.789  1.00 16.27 LIG-0.27  OA
ATOM     36  N   PHE C   5     -21.373  15.179   4.092  1.00 17.75 LIG-0.34  N 
ATOM     37 H    PHE C   5     -21.030  15.662   3.468  1.00 17.75 LIG 0.16  HD
BRANCH 36 38
ATOM     38  CA  PHE C   5     -21.462  15.844   5.385  1.00 18.16 LIG 0.19  C 
BRANCH 38 39
ATOM     39  C   PHE C   5     -22.642  16.808   5.431  1.00 18.09 LIG 0.20  C 
ATOM     40 O    PHE C   5     -22.803  17.535   6.417  1.00 17.71 LIG-0.65  OA
ATOM     41 OXT  PHE C   5     -23.454  16.853   4.491  1.00 17.63 LIG-0.65  OA
ENDBRANCH 38 39
BRANCH 38 42
ATOM     42  CB  PHE C   5     -20.134  16.560   5.672  1.00 18.57 LIG 0.07  C 
BRANCH 42 43
ATOM     43  CG  PHE C   5     -18.943  15.880   5.031  1.00 19.32 LIG-0.06  A 
ATOM     44  CD1 PHE C   5     -18.304  14.824   5.661  1.00 20.35 LIG 0.01  A 
ATOM     45  CE1 PHE C   5     -17.225  14.193   5.062  1.00 19.79 LIG 0.00  A 
ATOM     46  CZ  PHE C   5     -16.784  14.611   3.826  1.00 20.19 LIG 0.00  A 
ATOM     47  CE2 PHE C   5     -17.410  15.652   3.191  1.00 20.40 LIG 0.00  A 
ATOM     48  CD2 PHE C   5     -18.487  16.278   3.787  1.00 20.78 LIG 0.01  A 
ENDBRANCH 42 43
ENDBRANCH 38 42
ENDBRANCH 36 38
ENDBRANCH 30 34
ENDBRANCH 28 30
ENDBRANCH 1 26
BRANCH 1 49
ATOM     49  CB  GLU C   3     -19.038  10.405   4.659  1.00 17.73 LIG 0.04  C 
BRANCH 49 50
ATOM     50  CG  GLU C   3     -18.482   9.144   5.233  1.00 21.08 LIG 0.12  C 
BRANCH 50 51
ATOM     51  CD  GLU C   3     -17.253   9.422   6.079  1.00 24.82 LIG 0.17  C 
ATOM     52 OE2  GLU C   3     -16.643   8.442   6.573  1.00 28.13 LIG-0.65  OA
ATOM     53 OE1  GLU C   3     -16.908  10.622   6.238  1.00 24.98 LIG-0.65  OA
ENDBRANCH 50 51
ENDBRANCH 49 50
ENDBRANCH 1 49
TORSDOF 22
ENDMDL
MODEL 4
USER: ADFR SOLUTION from run 53
USER: SCORE 20.960616 LL:  -4.812 LR: -17.708 RR:   0.000 FEB: -11.146
USER: RMSD 2.186086
USER: SEED 52
USER: STATUS no improvement in best in 4 clusters for 5 generations
USER: GENES 24
USER: genes 0 Translation |==|  0.51236 0.52460 0.54407
USER: genes 1 Rotation |==|  0.53153 0.47572 0.50199 0.99841
USER: genes 2 Torsion [C]-CA--N-[C] |==|  0.75335
USER: genes 3 Torsion [N]-C--CA-[N] |==|  0.39565
USER: genes 4 Torsion [C]-CA--N-[C] |==|  0.68499
USER: genes 5 Torsion [N]-C--CA-[N] |==|  0.44160
USER: genes 6 Torsion [C]-CA--N-[C] |==|  0.72829
USER: genes 7 Torsion [C]-CA--CB-[CG] |==|  0.02577
USER: genes 8 Torsion [CA]-CB--CG-[SD] |==|  0.69954
USER: genes 9 Torsion [CB]-CG--SD-[CE] |==|  0.29565
USER: genes 10 Torsion [C]-CA--CB-[CG] |==|  0.46767
USER: genes 11 Torsion [CA]-CB--CG-[CD] |==|  0.86043
USER: genes 12 Torsion [CB]-CG--CD-[OE1] |==|  0.90519
USER: genes 13 Torsion [N]-CA--C-[N] |==|  0.35386
USER: genes 14 Torsion [C]-N--CA-[CB] |==|  0.42778
USER: genes 15 Torsion [N]-CA--CB-[CG1] |==|  0.76765
USER: genes 16 Torsion [N]-CA--C-[N] |==|  0.44854
USER: genes 17 Torsion [C]-N--CA-[C] |==|  0.64788
USER: genes 18 Torsion [N]-CA--C-[OXT] |==|  0.99475
USER: genes 19 Torsion [N]-CA--CB-[CG] |==|  0.87697
USER: genes 20 Torsion [CA]-CB--CG-[CD1] |==|  0.78193
USER: genes 21 Torsion [N]-CA--CB-[CG] |==|  0.86902
USER: genes 22 Torsion [CA]-CB--CG-[CD] |==|  0.45666
USER: genes 23 Torsion [CB]-CG--CD-[OE2] |==|  0.45097
ROOT
ATOM      1  CA  GLU C   3     -19.082  10.282   2.901  1.00 17.34 LIG 0.18  C 
ENDROOT
BRANCH 1 2
ATOM      2  N   GLU C   3     -18.164   9.709   1.911  1.00 16.96 LIG-0.35  N 
ATOM      3  C   GLU C   2     -18.619   9.112   0.823  1.00 16.75 LIG 0.24  C 
ATOM      4 O    GLU C   2     -19.822   8.989   0.577  1.00 16.41 LIG-0.27  OA
ATOM      5 H    GLU C   3     -17.330   9.796   2.101  1.00 16.96 LIG 0.16  HD
BRANCH 3 6
ATOM      6  CA  GLU C   2     -17.559   8.592  -0.139  1.00 16.90 LIG 0.18  C 
BRANCH 6 7
ATOM      7  N   GLU C   2     -18.014   7.332  -0.694  1.00 16.95 LIG-0.35  N 
ATOM      8  C   MET C   1     -17.416   6.185  -0.437  1.00 17.22 LIG 0.24  C 
ATOM      9 O    MET C   1     -16.336   6.077   0.157  1.00 17.07 LIG-0.27  OA
ATOM     10 H    GLU C   2     -18.704   7.404  -1.202  1.00 16.95 LIG 0.16  HD
BRANCH 8 11
ATOM     11  CA  MET C   1     -18.177   4.981  -0.956  1.00 17.60 LIG 0.18  C 
BRANCH 11 12
ATOM     12  N   MET C   1     -17.306   3.810  -1.108  1.00 17.57 LIG-0.35  N 
ATOM     13 H    MET C   1     -17.180   3.379  -0.374  1.00 17.57 LIG 0.16  HD
ATOM     14  C   ACE C   0     -16.762   3.444  -2.259  1.00 17.66 LIG 0.21  C 
ATOM     15 O    ACE C   0     -15.927   2.547  -2.264  1.00 18.17 LIG-0.27  OA
ATOM     16  CH3 ACE C   0     -17.387   3.936  -3.529  1.00 17.74 LIG 0.12  C 
ENDBRANCH 11 12
BRANCH 11 17
ATOM     17  CB  MET C   1     -19.342   4.680   0.004  1.00 17.86 LIG 0.04  C 
BRANCH 17 18
ATOM     18  CG  MET C   1     -19.589   5.753   1.075  1.00 18.56 LIG 0.08  C 
BRANCH 18 19
ATOM     19 SD   MET C   1     -19.093   5.199   2.726  1.00 20.55 LIG-0.17  SA
ATOM     20  CE  MET C   1     -17.586   6.142   2.987  1.00 18.76 LIG 0.09  C 
ENDBRANCH 18 19
ENDBRANCH 17 18
ENDBRANCH 11 17
ENDBRANCH 8 11
ENDBRANCH 6 7
BRANCH 6 21
ATOM     21  CB  GLU C   2     -17.317   9.613  -1.259  1.00 16.89 LIG 0.04  C 
BRANCH 21 22
ATOM     22  CG  GLU C   2     -16.093   9.316  -2.101  1.00 17.75 LIG 0.12  C 
BRANCH 22 23
ATOM     23  CD  GLU C   2     -14.859   9.065  -1.263  1.00 17.83 LIG 0.17  C 
ATOM     24 OE1  GLU C   2     -14.722   9.692  -0.199  1.00 16.84 LIG-0.65  OA
ATOM     25 OE2  GLU C   2     -14.019   8.242  -1.675  1.00 19.94 LIG-0.65  OA
ENDBRANCH 22 23
ENDBRANCH 21 22
ENDBRANCH 6 21
ENDBRANCH 3 6
ENDBRANCH 1 2
BRANCH 1 26
ATOM     26  C   GLU C   3     -19.432  11.710   2.592  1.00 16.67 LIG 0.24  C 
ATOM     27 O    GLU C   3     -18.559  12.568   2.443  1.00 16.39 LIG-0.27  OA
ATOM     28  N   VAL C   4     -20.730  11.947   2.556  1.00 16.17 LIG-0.35  N 
ATOM     29 H    VAL C   4     -21.327  11.329   2.565  1.00 16.17 LIG 0.16  HD
BRANCH 28 30
ATOM     30  CA  VAL C   4     -21.275  13.297   2.495  1.00 16.42 LIG 0.18  C 
BRANCH 30 31
ATOM     31  CB  VAL C   4     -22.667  13.344   1.842  1.00 16.37 LIG 0.01  C 
ATOM     32  CG1 VAL C   4     -22.528  13.390   0.313  1.00 16.31 LIG 0.01  C 
ATOM     33  CG2 VAL C   4     -23.535  12.163   2.306  1.00 16.31 LIG 0.01  C 
ENDBRANCH 30 31
BRANCH 30 34
ATOM     34  C   VAL C   4     -21.328  13.888   3.902  1.00 17.02 LIG 0.24  C 
ATOM     35 O    VAL C   4     -21.251  13.179   4.902  1.00 16.27 LIG-0.27  OA
ATOM     36  N   PHE C   5     -21.433  15.208   3.952  1.00 17.75 LIG-0.34  N 
ATOM     37 H    PHE C   5     -21.553  15.707   3.261  1.00 17.75 LIG 0.16  HD
BRANCH 36 38
ATOM     38  CA  PHE C   5     -21.354  15.937   5.212  1.00 18.16 LIG 0.19  C 
BRANCH 38 39
ATOM     39  C   PHE C   5     -22.559  16.851   5.399  1.00 18.09 LIG 0.20  C 
ATOM     40 O    PHE C   5     -22.679  17.504   6.441  1.00 17.71 LIG-0.65  OA
ATOM     41 OXT  PHE C   5     -23.431  16.930   4.517  1.00 17.63 LIG-0.65  OA
ENDBRANCH 38 39
BRANCH 38 42
ATOM     42  CB  PHE C   5     -20.035  16.722   5.253  1.00 18.57 LIG 0.07  C 
BRANCH 42 43
ATOM     43  CG  PHE C   5     -18.847  15.912   4.780  1.00 19.32 LIG-0.06  A 
ATOM     44  CD1 PHE C   5     -18.246  14.979   5.610  1.00 20.35 LIG 0.01  A 
ATOM     45  CE1 PHE C   5     -17.171  14.227   5.165  1.00 19.79 LIG 0.00  A 
ATOM     46  CZ  PHE C   5     -16.694  14.400   3.884  1.00 20.19 LIG 0.00  A 
ATOM     47  CE2 PHE C   5     -17.281  15.318   3.053  1.00 20.40 LIG 0.00  A 
ATOM     48  CD2 PHE C   5     -18.355  16.064   3.496  1.00 20.78 LIG 0.01  A 
ENDBRANCH 42 43
ENDBRANCH 38 42
ENDBRANCH 36 38
ENDBRANCH 30 34
ENDBRANCH 28 30
ENDBRANCH 1 26
BRANCH 1 49
ATOM     49  CB  GLU C   3     -18.492  10.258   4.313  1.00 17.73 LIG 0.04  C 
BRANCH 49 50
ATOM     50  CG  GLU C   3     -17.885   8.952   4.707  1.00 21.08 LIG 0.12  C 
BRANCH 50 51
ATOM     51  CD  GLU C   3     -17.002   9.105   5.931  1.00 24.82 LIG 0.17  C 
ATOM     52 OE2  GLU C   3     -16.700   8.070   6.575  1.00 28.13 LIG-0.65  OA
ATOM     53 OE1  GLU C   3     -16.615  10.264   6.235  1.00 24.98 LIG-0.65  OA
ENDBRANCH 50 51
ENDBRANCH 49 50
ENDBRANCH 1 49
TORSDOF 22
ENDMDL
