MODEL 1
USER: ADFR SOLUTION from run 164
USER: SCORE 15.914647 LL:  -1.997 LR: -14.602 RR:   0.000 FEB: -11.023
USER: RMSD 2.192065
USER: SEED 163
USER: STATUS no improvement in best in 4 clusters for 5 generations
USER: GENES 14
USER: genes 0 Translation |==|  0.53549 0.60546 0.41274
USER: genes 1 Rotation |==|  0.58514 0.43703 0.53747 0.98722
USER: genes 2 Torsion [C]-N--CA-[C] |==|  0.66670
USER: genes 3 Torsion [N]-CA--C-[N] |==|  0.72461
USER: genes 4 Torsion [C]-N--CA-[CB] |==|  0.14343
USER: genes 5 Torsion [N]-CA--CB-[CG] |==|  0.65594
USER: genes 6 Torsion [CA]-CB--CG-[CD2] |==|  0.89982
USER: genes 7 Torsion [N]-CA--C-[O] |==|  0.26792
USER: genes 8 Torsion [N]-CA--CB-[CG] |==|  0.81252
USER: genes 9 Torsion [CA]-CB--CG-[CD1] |==|  0.54393
USER: genes 10 Torsion [N]-C--CA-[N] |==|  0.52133
USER: genes 11 Torsion [C]-CA--N-[H3] |==|  0.17380
USER: genes 12 Torsion [C]-CA--CB-[CG] |==|  0.49507
USER: genes 13 Torsion [CA]-CB--CG-[CD2] |==|  0.89725
ROOT
ATOM      1  C   TRP C   1      19.230 -17.618  29.404  1.00 34.42 LIG 0.25  C 
ATOM      2 O    TRP C   1      20.001 -18.112  28.588  1.00 41.57 LIG-0.27  OA
ATOM      3  N   LEU C   2      19.498 -17.491  30.697  1.00 34.28 LIG-0.35  N 
ATOM      4 H    LEU C   2      19.044 -16.980  31.219  1.00 34.28 LIG 0.16  HD
ENDROOT
BRANCH 3 5
ATOM      5  CA  LEU C   2      20.587 -18.199  31.376  1.00 43.88 LIG 0.18  C 
BRANCH 5 6
ATOM      6  C   LEU C   2      20.112 -19.137  32.544  1.00 50.68 LIG 0.24  C 
ATOM      7 O    LEU C   2      19.636 -20.294  32.357  1.00 38.43 LIG-0.27  OA
ATOM      8  N   PHE C   3      20.224 -18.636  33.771  1.00 52.67 LIG-0.35  N 
ATOM      9 H    PHE C   3      20.537 -17.856  33.954  1.00 52.67 LIG 0.16  HD
BRANCH 8 10
ATOM     10  CA  PHE C   3      19.802 -19.423  34.934  1.00 63.47 LIG 0.17  C 
BRANCH 10 11
ATOM     11  CB  PHE C   3      20.437 -20.820  34.919  1.00 59.49 LIG 0.07  C 
BRANCH 11 12
ATOM     12  CG  PHE C   3      19.432 -21.939  34.975  0.00 60.89 LIG-0.06  A 
ATOM     13  CD1 PHE C   3      19.641 -23.110  34.268  0.00 60.45 LIG 0.01  A 
ATOM     14  CE1 PHE C   3      18.709 -24.134  34.304  0.00 60.97 LIG 0.00  A 
ATOM     15  CZ  PHE C   3      17.571 -24.003  35.057  0.00 59.40 LIG 0.00  A 
ATOM     16  CE2 PHE C   3      17.348 -22.847  35.768  0.00 59.26 LIG 0.00  A 
ATOM     17  CD2 PHE C   3      18.275 -21.819  35.726  0.00 60.74 LIG 0.01  A 
ENDBRANCH 11 12
ENDBRANCH 10 11
BRANCH 10 18
ATOM     18  C   PHE C   3      20.114 -18.707  36.257  1.00 72.73 LIG 0.22  C 
ATOM     19 O    PHE C   3      19.261 -18.035  36.844  1.00 72.69 LIG-0.29  OA
ENDBRANCH 10 18
ENDBRANCH 8 10
ENDBRANCH 5 6
BRANCH 5 20
ATOM     20  CB  LEU C   2      21.567 -17.143  31.889  1.00 36.13 LIG 0.04  C 
BRANCH 20 21
ATOM     21  CG  LEU C   2      22.374 -16.320  30.894  1.00 47.78 LIG-0.02  C 
ATOM     22  CD2 LEU C   2      22.868 -17.219  29.811  1.00 53.75 LIG 0.01  C 
ATOM     23  CD1 LEU C   2      23.539 -15.629  31.589  1.00 57.03 LIG 0.01  C 
ENDBRANCH 20 21
ENDBRANCH 5 20
ENDBRANCH 3 5
BRANCH 1 24
ATOM     24  CA  TRP C   1      17.872 -17.107  28.995  1.00 30.44 LIG 0.28  C 
BRANCH 24 25
ATOM     25  N   TRP C   1      17.608 -17.465  27.581  1.00 30.96 LIG-0.07  N 
ATOM     26 H3   TRP C   1      17.592 -18.351  27.497  1.00 30.96 LIG 0.28  HD
ATOM     27 H1   TRP C   1      16.822 -17.129  27.332  1.00 30.96 LIG 0.28  HD
ATOM     28 H2   TRP C   1      18.251 -17.129  27.065  1.00 30.96 LIG 0.28  HD
ENDBRANCH 24 25
BRANCH 24 29
ATOM     29  CB  TRP C   1      16.820 -17.747  29.898  1.00 29.47 LIG 0.08  C 
BRANCH 29 30
ATOM     30  CG  TRP C   1      15.445 -17.315  29.648  1.00 32.35 LIG-0.03  A 
ATOM     31  CD1 TRP C   1      14.308 -18.088  29.676  1.00 34.00 LIG 0.10  A 
ATOM     32  NE1 TRP C   1      13.214 -17.325  29.369  1.00 34.62 LIG-0.36  N 
ATOM     33 HE1  TRP C   1      12.401 -17.604  29.343  1.00 34.62 LIG 0.17  HD
ATOM     34  CE2 TRP C   1      13.625 -16.044  29.110  1.00 29.50 LIG 0.04  A 
ATOM     35  CZ2 TRP C   1      12.886 -14.917  28.789  1.00 29.56 LIG 0.03  A 
ATOM     36  CD2 TRP C   1      15.028 -16.005  29.288  1.00 28.41 LIG-0.00  A 
ATOM     37  CH2 TRP C   1      13.564 -13.755  28.595  1.00 29.15 LIG 0.00  A 
ATOM     38  CZ3 TRP C   1      14.963 -13.688  28.758  1.00 29.71 LIG 0.00  A 
ATOM     39  CE3 TRP C   1      15.691 -14.798  29.098  1.00 28.71 LIG 0.01  A 
ENDBRANCH 29 30
ENDBRANCH 24 29
ENDBRANCH 1 24
TORSDOF 12
ENDMDL
MODEL 2
USER: ADFR SOLUTION from run 82
USER: SCORE 16.188686 LL:  -2.585 LR: -14.368 RR:   0.000 FEB: -10.789
USER: RMSD 4.272674
USER: SEED 81
USER: STATUS no improvement in best in 8 clusters for 5 generations
USER: GENES 14
USER: genes 0 Translation |==|  0.54362 0.62544 0.40696
USER: genes 1 Rotation |==|  0.60734 0.43415 0.58858 0.97571
USER: genes 2 Torsion [C]-N--CA-[C] |==|  0.63525
USER: genes 3 Torsion [N]-CA--C-[N] |==|  0.61113
USER: genes 4 Torsion [C]-N--CA-[CB] |==|  0.51042
USER: genes 5 Torsion [N]-CA--CB-[CG] |==|  0.97480
USER: genes 6 Torsion [CA]-CB--CG-[CD2] |==|  0.79160
USER: genes 7 Torsion [N]-CA--C-[O] |==|  0.71891
USER: genes 8 Torsion [N]-CA--CB-[CG] |==|  0.72610
USER: genes 9 Torsion [CA]-CB--CG-[CD1] |==|  0.56467
USER: genes 10 Torsion [N]-C--CA-[N] |==|  0.54757
USER: genes 11 Torsion [C]-CA--N-[H3] |==|  0.18523
USER: genes 12 Torsion [C]-CA--CB-[CG] |==|  0.47173
USER: genes 13 Torsion [CA]-CB--CG-[CD2] |==|  0.90017
ROOT
ATOM      1  C   TRP C   1      19.394 -17.214  29.309  1.00 34.42 LIG 0.25  C 
ATOM      2 O    TRP C   1      20.283 -17.474  28.504  1.00 41.57 LIG-0.27  OA
ATOM      3  N   LEU C   2      19.581 -17.129  30.619  1.00 34.28 LIG-0.35  N 
ATOM      4 H    LEU C   2      19.010 -16.764  31.149  1.00 34.28 LIG 0.16  HD
ENDROOT
BRANCH 3 5
ATOM      5  CA  LEU C   2      20.769 -17.642  31.307  1.00 43.88 LIG 0.18  C 
BRANCH 5 6
ATOM      6  C   LEU C   2      20.449 -18.525  32.567  1.00 50.68 LIG 0.24  C 
ATOM      7 O    LEU C   2      19.494 -19.354  32.612  1.00 38.43 LIG-0.27  OA
ATOM      8  N   PHE C   3      21.243 -18.343  33.619  1.00 52.67 LIG-0.35  N 
ATOM      9 H    PHE C   3      21.903 -17.792  33.643  1.00 52.67 LIG 0.16  HD
BRANCH 8 10
ATOM     10  CA  PHE C   3      21.028 -19.108  34.851  1.00 63.47 LIG 0.17  C 
BRANCH 10 11
ATOM     11  CB  PHE C   3      22.000 -18.668  35.954  1.00 59.49 LIG 0.07  C 
BRANCH 11 12
ATOM     12  CG  PHE C   3      23.074 -17.730  35.472  0.00 60.89 LIG-0.06  A 
ATOM     13  CD1 PHE C   3      23.013 -16.379  35.761  0.00 60.45 LIG 0.01  A 
ATOM     14  CE1 PHE C   3      23.991 -15.512  35.303  0.00 60.97 LIG 0.00  A 
ATOM     15  CZ  PHE C   3      25.045 -15.990  34.567  0.00 59.40 LIG 0.00  A 
ATOM     16  CE2 PHE C   3      25.123 -17.331  34.273  0.00 59.26 LIG 0.00  A 
ATOM     17  CD2 PHE C   3      24.141 -18.197  34.723  0.00 60.74 LIG 0.01  A 
ENDBRANCH 11 12
ENDBRANCH 10 11
BRANCH 10 18
ATOM     18  C   PHE C   3      19.577 -19.007  35.344  1.00 72.73 LIG 0.22  C 
ATOM     19 O    PHE C   3      19.261 -18.254  36.269  1.00 72.69 LIG-0.29  OA
ENDBRANCH 10 18
ENDBRANCH 8 10
ENDBRANCH 5 6
BRANCH 5 20
ATOM     20  CB  LEU C   2      21.630 -16.438  31.690  1.00 36.13 LIG 0.04  C 
BRANCH 20 21
ATOM     21  CG  LEU C   2      22.814 -16.052  30.814  1.00 47.78 LIG-0.02  C 
ATOM     22  CD2 LEU C   2      23.433 -17.292  30.263  1.00 53.75 LIG 0.01  C 
ATOM     23  CD1 LEU C   2      23.836 -15.254  31.614  1.00 57.03 LIG 0.01  C 
ENDBRANCH 20 21
ENDBRANCH 5 20
ENDBRANCH 3 5
BRANCH 1 24
ATOM     24  CA  TRP C   1      17.976 -16.969  28.863  1.00 30.44 LIG 0.28  C 
BRANCH 24 25
ATOM     25  N   TRP C   1      17.789 -17.480  27.485  1.00 30.96 LIG-0.07  N 
ATOM     26 H3   TRP C   1      17.861 -18.368  27.485  1.00 30.96 LIG 0.28  HD
ATOM     27 H1   TRP C   1      16.982 -17.249  27.189  1.00 30.96 LIG 0.28  HD
ATOM     28 H2   TRP C   1      18.411 -17.132  26.952  1.00 30.96 LIG 0.28  HD
ENDBRANCH 24 25
BRANCH 24 29
ATOM     29  CB  TRP C   1      17.033 -17.697  29.820  1.00 29.47 LIG 0.08  C 
BRANCH 29 30
ATOM     30  CG  TRP C   1      15.617 -17.368  29.661  1.00 32.35 LIG-0.03  A 
ATOM     31  CD1 TRP C   1      14.544 -18.223  29.767  1.00 34.00 LIG 0.10  A 
ATOM     32  NE1 TRP C   1      13.379 -17.544  29.533  1.00 34.62 LIG-0.36  N 
ATOM     33 HE1  TRP C   1      12.588 -17.882  29.562  1.00 34.62 LIG 0.17  HD
ATOM     34  CE2 TRP C   1      13.676 -16.238  29.244  1.00 29.50 LIG 0.04  A 
ATOM     35  CZ2 TRP C   1      12.836 -15.171  28.970  1.00 29.56 LIG 0.03  A 
ATOM     36  CD2 TRP C   1      15.081 -16.096  29.327  1.00 28.41 LIG-0.00  A 
ATOM     37  CH2 TRP C   1      13.412 -13.964  28.728  1.00 29.15 LIG 0.00  A 
ATOM     38  CZ3 TRP C   1      14.811 -13.793  28.797  1.00 29.71 LIG 0.00  A 
ATOM     39  CE3 TRP C   1      15.640 -14.844  29.090  1.00 28.71 LIG 0.01  A 
ENDBRANCH 29 30
ENDBRANCH 24 29
ENDBRANCH 1 24
TORSDOF 12
ENDMDL
MODEL 3
USER: ADFR SOLUTION from run 98
USER: SCORE 16.090793 LL:  -2.259 LR: -14.185 RR:   0.000 FEB: -10.605
USER: RMSD 3.583911
USER: SEED 97
USER: STATUS no improvement in best in 5 clusters for 5 generations
USER: GENES 14
USER: genes 0 Translation |==|  0.54347 0.62424 0.39712
USER: genes 1 Rotation |==|  0.60286 0.43287 0.59146 0.97597
USER: genes 2 Torsion [C]-N--CA-[C] |==|  0.66047
USER: genes 3 Torsion [N]-CA--C-[N] |==|  0.50504
USER: genes 4 Torsion [C]-N--CA-[CB] |==|  0.85727
USER: genes 5 Torsion [N]-CA--CB-[CG] |==|  0.76933
USER: genes 6 Torsion [CA]-CB--CG-[CD2] |==|  0.04823
USER: genes 7 Torsion [N]-CA--C-[O] |==|  0.62927
USER: genes 8 Torsion [N]-CA--CB-[CG] |==|  0.56636
USER: genes 9 Torsion [CA]-CB--CG-[CD1] |==|  0.24842
USER: genes 10 Torsion [N]-C--CA-[N] |==|  0.54192
USER: genes 11 Torsion [C]-CA--N-[H3] |==|  0.84982
USER: genes 12 Torsion [C]-CA--CB-[CG] |==|  0.46259
USER: genes 13 Torsion [CA]-CB--CG-[CD2] |==|  0.89750
ROOT
ATOM      1  C   TRP C   1      19.391 -17.238  29.146  1.00 34.42 LIG 0.25  C 
ATOM      2 O    TRP C   1      20.290 -17.506  28.356  1.00 41.57 LIG-0.27  OA
ATOM      3  N   LEU C   2      19.563 -17.129  30.457  1.00 34.28 LIG-0.35  N 
ATOM      4 H    LEU C   2      18.984 -16.759  30.974  1.00 34.28 LIG 0.16  HD
ENDROOT
BRANCH 3 5
ATOM      5  CA  LEU C   2      20.748 -17.621  31.166  1.00 43.88 LIG 0.18  C 
BRANCH 5 6
ATOM      6  C   LEU C   2      20.431 -18.662  32.299  1.00 50.68 LIG 0.24  C 
ATOM      7 O    LEU C   2      19.261 -19.063  32.568  1.00 38.43 LIG-0.27  OA
ATOM      8  N   PHE C   3      21.478 -19.103  32.991  1.00 52.67 LIG-0.35  N 
ATOM      9 H    PHE C   3      22.292 -18.861  32.852  1.00 52.67 LIG 0.16  HD
BRANCH 8 10
ATOM     10  CA  PHE C   3      21.295 -20.070  34.078  1.00 63.47 LIG 0.17  C 
BRANCH 10 11
ATOM     11  CB  PHE C   3      20.219 -19.597  35.065  1.00 59.49 LIG 0.07  C 
BRANCH 11 12
ATOM     12  CG  PHE C   3      20.731 -18.629  36.097  0.00 60.89 LIG-0.06  A 
ATOM     13  CD1 PHE C   3      20.008 -18.377  37.248  0.00 60.45 LIG 0.01  A 
ATOM     14  CE1 PHE C   3      20.469 -17.472  38.190  0.00 60.97 LIG 0.00  A 
ATOM     15  CZ  PHE C   3      21.662 -16.825  37.997  0.00 59.40 LIG 0.00  A 
ATOM     16  CE2 PHE C   3      22.396 -17.066  36.859  0.00 59.26 LIG 0.00  A 
ATOM     17  CD2 PHE C   3      21.931 -17.963  35.912  0.00 60.74 LIG 0.01  A 
ENDBRANCH 11 12
ENDBRANCH 10 11
BRANCH 10 18
ATOM     18  C   PHE C   3      20.957 -21.472  33.549  1.00 72.73 LIG 0.22  C 
ATOM     19 O    PHE C   3      20.038 -22.140  34.031  1.00 72.69 LIG-0.29  OA
ENDBRANCH 10 18
ENDBRANCH 8 10
ENDBRANCH 5 6
BRANCH 5 20
ATOM     20  CB  LEU C   2      21.478 -16.402  31.735  1.00 36.13 LIG 0.04  C 
BRANCH 20 21
ATOM     21  CG  LEU C   2      22.967 -16.492  32.036  1.00 47.78 LIG-0.02  C 
ATOM     22  CD2 LEU C   2      23.282 -15.600  33.190  1.00 53.75 LIG 0.01  C 
ATOM     23  CD1 LEU C   2      23.786 -16.096  30.814  1.00 57.03 LIG 0.01  C 
ENDBRANCH 20 21
ENDBRANCH 5 20
ENDBRANCH 3 5
BRANCH 1 24
ATOM     24  CA  TRP C   1      17.976 -17.012  28.682  1.00 30.44 LIG 0.28  C 
BRANCH 24 25
ATOM     25  N   TRP C   1      17.820 -17.505  27.293  1.00 30.96 LIG-0.07  N 
ATOM     26 H3   TRP C   1      18.437 -17.129  26.773  1.00 30.96 LIG 0.28  HD
ATOM     27 H1   TRP C   1      17.919 -18.390  27.278  1.00 30.96 LIG 0.28  HD
ATOM     28 H2   TRP C   1      17.009 -17.293  26.992  1.00 30.96 LIG 0.28  HD
ENDBRANCH 24 25
BRANCH 24 29
ATOM     29  CB  TRP C   1      17.032 -17.771  29.612  1.00 29.47 LIG 0.08  C 
BRANCH 29 30
ATOM     30  CG  TRP C   1      15.620 -17.411  29.487  1.00 32.35 LIG-0.03  A 
ATOM     31  CD1 TRP C   1      14.534 -18.254  29.545  1.00 34.00 LIG 0.10  A 
ATOM     32  NE1 TRP C   1      13.378 -17.543  29.367  1.00 34.62 LIG-0.36  N 
ATOM     33 HE1  TRP C   1      12.583 -17.870  29.380  1.00 34.62 LIG 0.17  HD
ATOM     34  CE2 TRP C   1      13.694 -16.226  29.164  1.00 29.50 LIG 0.04  A 
ATOM     35  CZ2 TRP C   1      12.869 -15.130  28.969  1.00 29.56 LIG 0.03  A 
ATOM     36  CD2 TRP C   1      15.102 -16.111  29.244  1.00 28.41 LIG-0.00  A 
ATOM     37  CH2 TRP C   1      13.463 -13.918  28.804  1.00 29.15 LIG 0.00  A 
ATOM     38  CZ3 TRP C   1      14.864 -13.774  28.872  1.00 29.71 LIG 0.00  A 
ATOM     39  CE3 TRP C   1      15.678 -14.855  29.087  1.00 28.71 LIG 0.01  A 
ENDBRANCH 29 30
ENDBRANCH 24 29
ENDBRANCH 1 24
TORSDOF 12
ENDMDL
MODEL 4
USER: ADFR SOLUTION from run 175
USER: SCORE 16.371693 LL:  -2.239 LR: -14.135 RR:   0.000 FEB: -10.556
USER: RMSD 2.304845
USER: SEED 174
USER: STATUS no improvement in best in 6 clusters for 5 generations
USER: GENES 14
USER: genes 0 Translation |==|  0.53051 0.60121 0.40130
USER: genes 1 Rotation |==|  0.43443 0.51155 0.49059 0.99546
USER: genes 2 Torsion [C]-N--CA-[C] |==|  0.83654
USER: genes 3 Torsion [N]-CA--C-[N] |==|  0.38346
USER: genes 4 Torsion [C]-N--CA-[CB] |==|  0.78173
USER: genes 5 Torsion [N]-CA--CB-[CG] |==|  0.30051
USER: genes 6 Torsion [CA]-CB--CG-[CD2] |==|  0.72819
USER: genes 7 Torsion [N]-CA--C-[O] |==|  0.37740
USER: genes 8 Torsion [N]-CA--CB-[CG] |==|  0.49934
USER: genes 9 Torsion [CA]-CB--CG-[CD1] |==|  0.40561
USER: genes 10 Torsion [N]-C--CA-[N] |==|  0.41421
USER: genes 11 Torsion [C]-CA--N-[H3] |==|  0.49956
USER: genes 12 Torsion [C]-CA--CB-[CG] |==|  0.50194
USER: genes 13 Torsion [CA]-CB--CG-[CD2] |==|  0.89162
ROOT
ATOM      1  C   TRP C   1      19.129 -17.705  29.216  1.00 34.42 LIG 0.25  C 
ATOM      2 O    TRP C   1      19.530 -18.747  28.708  1.00 41.57 LIG-0.27  OA
ATOM      3  N   LEU C   2      19.817 -16.998  30.102  1.00 34.28 LIG-0.35  N 
ATOM      4 H    LEU C   2      19.620 -16.186  30.305  1.00 34.28 LIG 0.16  HD
ENDROOT
BRANCH 3 5
ATOM      5  CA  LEU C   2      20.979 -17.515  30.830  1.00 43.88 LIG 0.18  C 
BRANCH 5 6
ATOM      6  C   LEU C   2      20.680 -18.794  31.692  1.00 50.68 LIG 0.24  C 
ATOM      7 O    LEU C   2      19.641 -18.927  32.401  1.00 38.43 LIG-0.27  OA
ATOM      8  N   PHE C   3      21.604 -19.750  31.650  1.00 52.67 LIG-0.35  N 
ATOM      9 H    PHE C   3      22.329 -19.709  31.189  1.00 52.67 LIG 0.16  HD
BRANCH 8 10
ATOM     10  CA  PHE C   3      21.431 -20.982  32.425  1.00 63.47 LIG 0.17  C 
BRANCH 10 11
ATOM     11  CB  PHE C   3      21.777 -20.761  33.904  1.00 59.49 LIG 0.07  C 
BRANCH 11 12
ATOM     12  CG  PHE C   3      20.576 -20.759  34.811  0.00 60.89 LIG-0.06  A 
ATOM     13  CD1 PHE C   3      20.020 -21.947  35.248  0.00 60.45 LIG 0.01  A 
ATOM     14  CE1 PHE C   3      18.903 -21.946  36.068  0.00 60.97 LIG 0.00  A 
ATOM     15  CZ  PHE C   3      18.344 -20.760  36.469  0.00 59.40 LIG 0.00  A 
ATOM     16  CE2 PHE C   3      18.886 -19.569  36.045  0.00 59.26 LIG 0.00  A 
ATOM     17  CD2 PHE C   3      19.997 -19.569  35.218  0.00 60.74 LIG 0.01  A 
ENDBRANCH 11 12
ENDBRANCH 10 11
BRANCH 10 18
ATOM     18  C   PHE C   3      20.011 -21.553  32.287  1.00 72.73 LIG 0.22  C 
ATOM     19 O    PHE C   3      19.815 -22.758  32.108  1.00 72.69 LIG-0.29  OA
ENDBRANCH 10 18
ENDBRANCH 8 10
ENDBRANCH 5 6
BRANCH 5 20
ATOM     20  CB  LEU C   2      21.511 -16.379  31.706  1.00 36.13 LIG 0.04  C 
BRANCH 20 21
ATOM     21  CG  LEU C   2      22.725 -16.619  32.592  1.00 47.78 LIG-0.02  C 
ATOM     22  CD2 LEU C   2      22.261 -17.056  33.941  1.00 53.75 LIG 0.01  C 
ATOM     23  CD1 LEU C   2      23.569 -15.356  32.700  1.00 57.03 LIG 0.01  C 
ENDBRANCH 20 21
ENDBRANCH 5 20
ENDBRANCH 3 5
BRANCH 1 24
ATOM     24  CA  TRP C   1      17.780 -17.128  28.869  1.00 30.44 LIG 0.28  C 
BRANCH 24 25
ATOM     25  N   TRP C   1      17.434 -17.469  27.469  1.00 30.96 LIG-0.07  N 
ATOM     26 H3   TRP C   1      16.636 -17.129  27.269  1.00 30.96 LIG 0.28  HD
ATOM     27 H1   TRP C   1      18.047 -17.129  26.920  1.00 30.96 LIG 0.28  HD
ATOM     28 H2   TRP C   1      17.412 -18.354  27.376  1.00 30.96 LIG 0.28  HD
ENDBRANCH 24 25
BRANCH 24 29
ATOM     29  CB  TRP C   1      16.741 -17.720  29.819  1.00 29.47 LIG 0.08  C 
BRANCH 29 30
ATOM     30  CG  TRP C   1      15.369 -17.264  29.596  1.00 32.35 LIG-0.03  A 
ATOM     31  CD1 TRP C   1      14.220 -18.020  29.640  1.00 34.00 LIG 0.10  A 
ATOM     32  NE1 TRP C   1      13.133 -17.238  29.357  1.00 34.62 LIG-0.36  N 
ATOM     33 HE1  TRP C   1      12.315 -17.504  29.344  1.00 34.62 LIG 0.17  HD
ATOM     34  CE2 TRP C   1      13.559 -15.962  29.097  1.00 29.50 LIG 0.04  A 
ATOM     35  CZ2 TRP C   1      12.833 -14.822  28.794  1.00 29.56 LIG 0.03  A 
ATOM     36  CD2 TRP C   1      14.966 -15.947  29.250  1.00 28.41 LIG-0.00  A 
ATOM     37  CH2 TRP C   1      13.526 -13.670  28.594  1.00 29.15 LIG 0.00  A 
ATOM     38  CZ3 TRP C   1      14.929 -13.626  28.733  1.00 29.71 LIG 0.00  A 
ATOM     39  CE3 TRP C   1      15.645 -14.749  29.054  1.00 28.71 LIG 0.01  A 
ENDBRANCH 29 30
ENDBRANCH 24 29
ENDBRANCH 1 24
TORSDOF 12
ENDMDL
MODEL 5
USER: ADFR SOLUTION from run 124
USER: SCORE 15.170544 LL:  -1.969 LR: -13.926 RR:   0.000 FEB: -10.346
USER: RMSD 3.009682
USER: SEED 123
USER: STATUS no improvement in best in 4 clusters for 5 generations
USER: GENES 14
USER: genes 0 Translation |==|  0.53786 0.60624 0.41088
USER: genes 1 Rotation |==|  0.51948 0.46009 0.52882 0.99719
USER: genes 2 Torsion [C]-N--CA-[C] |==|  0.70896
USER: genes 3 Torsion [N]-CA--C-[N] |==|  0.59337
USER: genes 4 Torsion [C]-N--CA-[CB] |==|  0.49817
USER: genes 5 Torsion [N]-CA--CB-[CG] |==|  0.53617
USER: genes 6 Torsion [CA]-CB--CG-[CD2] |==|  0.76125
USER: genes 7 Torsion [N]-CA--C-[O] |==|  0.73004
USER: genes 8 Torsion [N]-CA--CB-[CG] |==|  0.76375
USER: genes 9 Torsion [CA]-CB--CG-[CD1] |==|  0.58078
USER: genes 10 Torsion [N]-C--CA-[N] |==|  0.47320
USER: genes 11 Torsion [C]-CA--N-[H3] |==|  0.17370
USER: genes 12 Torsion [C]-CA--CB-[CG] |==|  0.49399
USER: genes 13 Torsion [CA]-CB--CG-[CD2] |==|  0.89063
ROOT
ATOM      1  C   TRP C   1      19.278 -17.603  29.374  1.00 34.42 LIG 0.25  C 
ATOM      2 O    TRP C   1      19.953 -18.341  28.663  1.00 41.57 LIG-0.27  OA
ATOM      3  N   LEU C   2      19.663 -17.161  30.563  1.00 34.28 LIG-0.35  N 
ATOM      4 H    LEU C   2      19.279 -16.503  30.963  1.00 34.28 LIG 0.16  HD
ENDROOT
BRANCH 3 5
ATOM      5  CA  LEU C   2      20.776 -17.736  31.324  1.00 43.88 LIG 0.18  C 
BRANCH 5 6
ATOM      6  C   LEU C   2      20.330 -18.630  32.537  1.00 50.68 LIG 0.24  C 
ATOM      7 O    LEU C   2      19.276 -19.330  32.534  1.00 38.43 LIG-0.27  OA
ATOM      8  N   PHE C   3      21.127 -18.602  33.601  1.00 52.67 LIG-0.35  N 
ATOM      9 H    PHE C   3      21.851 -18.141  33.657  1.00 52.67 LIG 0.16  HD
BRANCH 8 10
ATOM     10  CA  PHE C   3      20.800 -19.391  34.793  1.00 63.47 LIG 0.17  C 
BRANCH 10 11
ATOM     11  CB  PHE C   3      21.865 -19.216  35.883  1.00 59.49 LIG 0.07  C 
BRANCH 11 12
ATOM     12  CG  PHE C   3      21.759 -20.223  36.997  0.00 60.89 LIG-0.06  A 
ATOM     13  CD1 PHE C   3      22.494 -21.394  36.961  0.00 60.45 LIG 0.01  A 
ATOM     14  CE1 PHE C   3      22.384 -22.330  37.977  0.00 60.97 LIG 0.00  A 
ATOM     15  CZ  PHE C   3      21.552 -22.096  39.041  0.00 59.40 LIG 0.00  A 
ATOM     16  CE2 PHE C   3      20.816 -20.936  39.094  0.00 59.26 LIG 0.00  A 
ATOM     17  CD2 PHE C   3      20.919 -20.003  38.075  0.00 60.74 LIG 0.01  A 
ENDBRANCH 11 12
ENDBRANCH 10 11
BRANCH 10 18
ATOM     18  C   PHE C   3      19.407 -19.049  35.345  1.00 72.73 LIG 0.22  C 
ATOM     19 O    PHE C   3      19.260 -18.254  36.277  1.00 72.69 LIG-0.29  OA
ENDBRANCH 10 18
ENDBRANCH 8 10
ENDBRANCH 5 6
BRANCH 5 20
ATOM     20  CB  LEU C   2      21.654 -16.576  31.796  1.00 36.13 LIG 0.04  C 
BRANCH 20 21
ATOM     21  CG  LEU C   2      22.726 -16.020  30.869  1.00 47.78 LIG-0.02  C 
ATOM     22  CD2 LEU C   2      23.201 -17.111  29.969  1.00 53.75 LIG 0.01  C 
ATOM     23  CD1 LEU C   2      23.886 -15.447  31.674  1.00 57.03 LIG 0.01  C 
ENDBRANCH 20 21
ENDBRANCH 5 20
ENDBRANCH 3 5
BRANCH 1 24
ATOM     24  CA  TRP C   1      17.913 -17.130  28.944  1.00 30.44 LIG 0.28  C 
BRANCH 24 25
ATOM     25  N   TRP C   1      17.684 -17.485  27.524  1.00 30.96 LIG-0.07  N 
ATOM     26 H3   TRP C   1      17.697 -18.370  27.433  1.00 30.96 LIG 0.28  HD
ATOM     27 H1   TRP C   1      16.892 -17.172  27.263  1.00 30.96 LIG 0.28  HD
ATOM     28 H2   TRP C   1      18.325 -17.126  27.021  1.00 30.96 LIG 0.28  HD
ENDBRANCH 24 25
BRANCH 24 29
ATOM     29  CB  TRP C   1      16.865 -17.807  29.824  1.00 29.47 LIG 0.08  C 
BRANCH 29 30
ATOM     30  CG  TRP C   1      15.483 -17.407  29.559  1.00 32.35 LIG-0.03  A 
ATOM     31  CD1 TRP C   1      14.372 -18.218  29.517  1.00 34.00 LIG 0.10  A 
ATOM     32  NE1 TRP C   1      13.261 -17.476  29.220  1.00 34.62 LIG-0.36  N 
ATOM     33 HE1  TRP C   1      12.459 -17.780  29.158  1.00 34.62 LIG 0.17  HD
ATOM     34  CE2 TRP C   1      13.634 -16.171  29.037  1.00 29.50 LIG 0.04  A 
ATOM     35  CZ2 TRP C   1      12.866 -15.054  28.752  1.00 29.56 LIG 0.03  A 
ATOM     36  CD2 TRP C   1      15.030 -16.096  29.254  1.00 28.41 LIG-0.00  A 
ATOM     37  CH2 TRP C   1      13.509 -13.862  28.635  1.00 29.15 LIG 0.00  A 
ATOM     38  CZ3 TRP C   1      14.901 -13.758  28.840  1.00 29.71 LIG 0.00  A 
ATOM     39  CE3 TRP C   1      15.657 -14.859  29.143  1.00 28.71 LIG 0.01  A 
ENDBRANCH 29 30
ENDBRANCH 24 29
ENDBRANCH 1 24
TORSDOF 12
ENDMDL
MODEL 6
USER: ADFR SOLUTION from run 57
USER: SCORE 15.479316 LL:  -1.934 LR: -13.770 RR:   0.000 FEB: -10.190
USER: RMSD 2.074787
USER: SEED 56
USER: STATUS no improvement in best in 6 clusters for 5 generations
USER: GENES 14
USER: genes 0 Translation |==|  0.53447 0.61582 0.40430
USER: genes 1 Rotation |==|  0.62692 0.43321 0.56342 0.97477
USER: genes 2 Torsion [C]-N--CA-[C] |==|  0.68905
USER: genes 3 Torsion [N]-CA--C-[N] |==|  0.30562
USER: genes 4 Torsion [C]-N--CA-[CB] |==|  0.49494
USER: genes 5 Torsion [N]-CA--CB-[CG] |==|  0.69435
USER: genes 6 Torsion [CA]-CB--CG-[CD2] |==|  0.80655
USER: genes 7 Torsion [N]-CA--C-[O] |==|  0.47341
USER: genes 8 Torsion [N]-CA--CB-[CG] |==|  0.77233
USER: genes 9 Torsion [CA]-CB--CG-[CD1] |==|  0.57398
USER: genes 10 Torsion [N]-C--CA-[N] |==|  0.55652
USER: genes 11 Torsion [C]-CA--N-[H3] |==|  0.51621
USER: genes 12 Torsion [C]-CA--CB-[CG] |==|  0.49310
USER: genes 13 Torsion [CA]-CB--CG-[CD2] |==|  0.88441
ROOT
ATOM      1  C   TRP C   1      19.209 -17.409  29.265  1.00 34.42 LIG 0.25  C 
ATOM      2 O    TRP C   1      20.049 -17.669  28.410  1.00 41.57 LIG-0.27  OA
ATOM      3  N   LEU C   2      19.438 -17.459  30.570  1.00 34.28 LIG-0.35  N 
ATOM      4 H    LEU C   2      18.916 -17.097  31.150  1.00 34.28 LIG 0.16  HD
ENDROOT
BRANCH 3 5
ATOM      5  CA  LEU C   2      20.595 -18.130  31.169  1.00 43.88 LIG 0.18  C 
BRANCH 5 6
ATOM      6  C   LEU C   2      20.234 -19.415  31.997  1.00 50.68 LIG 0.24  C 
ATOM      7 O    LEU C   2      19.636 -19.379  33.111  1.00 38.43 LIG-0.27  OA
ATOM      8  N   PHE C   3      20.612 -20.574  31.464  1.00 52.67 LIG-0.35  N 
ATOM      9 H    PHE C   3      21.024 -20.655  30.713  1.00 52.67 LIG 0.16  HD
BRANCH 8 10
ATOM     10  CA  PHE C   3      20.335 -21.835  32.158  1.00 63.47 LIG 0.17  C 
BRANCH 10 11
ATOM     11  CB  PHE C   3      20.819 -23.038  31.338  1.00 59.49 LIG 0.07  C 
BRANCH 11 12
ATOM     12  CG  PHE C   3      19.701 -23.870  30.770  0.00 60.89 LIG-0.06  A 
ATOM     13  CD1 PHE C   3      19.448 -23.878  29.410  0.00 60.45 LIG 0.01  A 
ATOM     14  CE1 PHE C   3      18.408 -24.630  28.888  0.00 60.97 LIG 0.00  A 
ATOM     15  CZ  PHE C   3      17.623 -25.389  29.717  0.00 59.40 LIG 0.00  A 
ATOM     16  CE2 PHE C   3      17.862 -25.394  31.072  0.00 59.26 LIG 0.00  A 
ATOM     17  CD2 PHE C   3      18.896 -24.636  31.596  0.00 60.74 LIG 0.01  A 
ENDBRANCH 11 12
ENDBRANCH 10 11
BRANCH 10 18
ATOM     18  C   PHE C   3      20.950 -21.864  33.566  1.00 72.73 LIG 0.22  C 
ATOM     19 O    PHE C   3      20.682 -22.761  34.369  1.00 72.69 LIG-0.29  OA
ENDBRANCH 10 18
ENDBRANCH 8 10
ENDBRANCH 5 6
BRANCH 5 20
ATOM     20  CB  LEU C   2      21.317 -17.103  32.043  1.00 36.13 LIG 0.04  C 
BRANCH 20 21
ATOM     21  CG  LEU C   2      22.281 -16.115  31.401  1.00 47.78 LIG-0.02  C 
ATOM     22  CD2 LEU C   2      22.925 -16.764  30.221  1.00 53.75 LIG 0.01  C 
ATOM     23  CD1 LEU C   2      23.335 -15.664  32.404  1.00 57.03 LIG 0.01  C 
ENDBRANCH 20 21
ENDBRANCH 5 20
ENDBRANCH 3 5
BRANCH 1 24
ATOM     24  CA  TRP C   1      17.806 -17.006  28.893  1.00 30.44 LIG 0.28  C 
BRANCH 24 25
ATOM     25  N   TRP C   1      17.510 -17.443  27.507  1.00 30.96 LIG-0.07  N 
ATOM     26 H3   TRP C   1      16.713 -17.130  27.261  1.00 30.96 LIG 0.28  HD
ATOM     27 H1   TRP C   1      18.135 -17.128  26.957  1.00 30.96 LIG 0.28  HD
ATOM     28 H2   TRP C   1      17.504 -18.332  27.472  1.00 30.96 LIG 0.28  HD
ENDBRANCH 24 25
BRANCH 24 29
ATOM     29  CB  TRP C   1      16.835 -17.673  29.865  1.00 29.47 LIG 0.08  C 
BRANCH 29 30
ATOM     30  CG  TRP C   1      15.427 -17.330  29.665  1.00 32.35 LIG-0.03  A 
ATOM     31  CD1 TRP C   1      14.348 -18.183  29.687  1.00 34.00 LIG 0.10  A 
ATOM     32  NE1 TRP C   1      13.195 -17.488  29.439  1.00 34.62 LIG-0.36  N 
ATOM     33 HE1  TRP C   1      12.403 -17.824  29.420  1.00 34.62 LIG 0.17  HD
ATOM     34  CE2 TRP C   1      13.508 -16.172  29.225  1.00 29.50 LIG 0.04  A 
ATOM     35  CZ2 TRP C   1      12.683 -15.088  28.969  1.00 29.56 LIG 0.03  A 
ATOM     36  CD2 TRP C   1      14.909 -16.040  29.372  1.00 28.41 LIG-0.00  A 
ATOM     37  CH2 TRP C   1      13.272 -13.874  28.809  1.00 29.15 LIG 0.00  A 
ATOM     38  CZ3 TRP C   1      14.667 -13.714  28.943  1.00 29.71 LIG 0.00  A 
ATOM     39  CE3 TRP C   1      15.480 -14.782  29.218  1.00 28.71 LIG 0.01  A 
ENDBRANCH 29 30
ENDBRANCH 24 29
ENDBRANCH 1 24
TORSDOF 12
ENDMDL
MODEL 7
USER: ADFR SOLUTION from run 163
USER: SCORE 14.820592 LL:  -2.090 LR: -13.698 RR:   0.000 FEB: -10.119
USER: RMSD 6.444313
USER: SEED 162
USER: STATUS no improvement in best in 8 clusters for 5 generations
USER: GENES 14
USER: genes 0 Translation |==|  0.53182 0.62673 0.40026
USER: genes 1 Rotation |==|  0.61060 0.40959 0.61172 0.96595
USER: genes 2 Torsion [C]-N--CA-[C] |==|  0.20193
USER: genes 3 Torsion [N]-CA--C-[N] |==|  0.41243
USER: genes 4 Torsion [C]-N--CA-[CB] |==|  0.37063
USER: genes 5 Torsion [N]-CA--CB-[CG] |==|  0.64249
USER: genes 6 Torsion [CA]-CB--CG-[CD2] |==|  0.40713
USER: genes 7 Torsion [N]-CA--C-[O] |==|  0.01697
USER: genes 8 Torsion [N]-CA--CB-[CG] |==|  0.64333
USER: genes 9 Torsion [CA]-CB--CG-[CD1] |==|  0.02178
USER: genes 10 Torsion [N]-C--CA-[N] |==|  0.54903
USER: genes 11 Torsion [C]-CA--N-[H3] |==|  0.85302
USER: genes 12 Torsion [C]-CA--CB-[CG] |==|  0.43365
USER: genes 13 Torsion [CA]-CB--CG-[CD2] |==|  0.90975
ROOT
ATOM      1  C   TRP C   1      19.155 -17.188  29.198  1.00 34.42 LIG 0.25  C 
ATOM      2 O    TRP C   1      20.148 -17.357  28.498  1.00 41.57 LIG-0.27  OA
ATOM      3  N   LEU C   2      19.183 -17.129  30.523  1.00 34.28 LIG-0.35  N 
ATOM      4 H    LEU C   2      18.529 -16.824  30.990  1.00 34.28 LIG 0.16  HD
ENDROOT
BRANCH 3 5
ATOM      5  CA  LEU C   2      20.320 -17.574  31.334  1.00 43.88 LIG 0.18  C 
BRANCH 5 6
ATOM      6  C   LEU C   2      21.567 -16.620  31.268  1.00 50.68 LIG 0.24  C 
ATOM      7 O    LEU C   2      21.877 -15.950  30.240  1.00 38.43 LIG-0.27  OA
ATOM      8  N   PHE C   3      22.310 -16.561  32.370  1.00 52.67 LIG-0.35  N 
ATOM      9 H    PHE C   3      22.147 -16.997  33.093  1.00 52.67 LIG 0.16  HD
BRANCH 8 10
ATOM     10  CA  PHE C   3      23.503 -15.710  32.414  1.00 63.47 LIG 0.17  C 
BRANCH 10 11
ATOM     11  CB  PHE C   3      23.545 -14.881  33.704  1.00 59.49 LIG 0.07  C 
BRANCH 11 12
ATOM     12  CG  PHE C   3      23.760 -13.410  33.469  0.00 60.89 LIG-0.06  A 
ATOM     13  CD1 PHE C   3      24.550 -12.971  32.421  0.00 60.45 LIG 0.01  A 
ATOM     14  CE1 PHE C   3      24.763 -11.618  32.215  0.00 60.97 LIG 0.00  A 
ATOM     15  CZ  PHE C   3      24.179 -10.694  33.042  0.00 59.40 LIG 0.00  A 
ATOM     16  CE2 PHE C   3      23.389 -11.113  34.087  0.00 59.26 LIG 0.00  A 
ATOM     17  CD2 PHE C   3      23.182 -12.466  34.300  0.00 60.74 LIG 0.01  A 
ENDBRANCH 11 12
ENDBRANCH 10 11
BRANCH 10 18
ATOM     18  C   PHE C   3      24.797 -16.524  32.258  1.00 72.73 LIG 0.22  C 
ATOM     19 O    PHE C   3      24.772 -17.732  32.005  1.00 72.69 LIG-0.29  OA
ENDBRANCH 10 18
ENDBRANCH 8 10
ENDBRANCH 5 6
BRANCH 5 20
ATOM     20  CB  LEU C   2      20.687 -18.985  30.871  1.00 36.13 LIG 0.04  C 
BRANCH 20 21
ATOM     21  CG  LEU C   2      20.820 -20.102  31.896  1.00 47.78 LIG-0.02  C 
ATOM     22  CD2 LEU C   2      20.011 -21.271  31.445  1.00 53.75 LIG 0.01  C 
ATOM     23  CD1 LEU C   2      20.358 -19.628  33.268  1.00 57.03 LIG 0.01  C 
ENDBRANCH 20 21
ENDBRANCH 5 20
ENDBRANCH 3 5
BRANCH 1 24
ATOM     24  CA  TRP C   1      17.783 -17.035  28.595  1.00 30.44 LIG 0.28  C 
BRANCH 24 25
ATOM     25  N   TRP C   1      17.792 -17.528  27.198  1.00 30.96 LIG-0.07  N 
ATOM     26 H3   TRP C   1      18.448 -17.129  26.746  1.00 30.96 LIG 0.28  HD
ATOM     27 H1   TRP C   1      17.923 -18.409  27.194  1.00 30.96 LIG 0.28  HD
ATOM     28 H2   TRP C   1      17.011 -17.343  26.813  1.00 30.96 LIG 0.28  HD
ENDBRANCH 24 25
BRANCH 24 29
ATOM     29  CB  TRP C   1      16.794 -17.848  29.427  1.00 29.47 LIG 0.08  C 
BRANCH 29 30
ATOM     30  CG  TRP C   1      15.403 -17.404  29.342  1.00 32.35 LIG-0.03  A 
ATOM     31  CD1 TRP C   1      14.271 -18.186  29.381  1.00 34.00 LIG 0.10  A 
ATOM     32  NE1 TRP C   1      13.156 -17.404  29.253  1.00 34.62 LIG-0.36  N 
ATOM     33 HE1  TRP C   1      12.343 -17.686  29.266  1.00 34.62 LIG 0.17  HD
ATOM     34  CE2 TRP C   1      13.543 -16.099  29.102  1.00 29.50 LIG 0.04  A 
ATOM     35  CZ2 TRP C   1      12.780 -14.950  28.969  1.00 29.56 LIG 0.03  A 
ATOM     36  CD2 TRP C   1      14.956 -16.067  29.164  1.00 28.41 LIG-0.00  A 
ATOM     37  CH2 TRP C   1      13.439 -13.768  28.847  1.00 29.15 LIG 0.00  A 
ATOM     38  CZ3 TRP C   1      14.847 -13.706  28.898  1.00 29.71 LIG 0.00  A 
ATOM     39  CE3 TRP C   1      15.602 -14.840  29.052  1.00 28.71 LIG 0.01  A 
ENDBRANCH 29 30
ENDBRANCH 24 29
ENDBRANCH 1 24
TORSDOF 12
ENDMDL
MODEL 8
USER: ADFR SOLUTION from run 120
USER: SCORE 14.696216 LL:  -2.646 LR: -13.405 RR:   0.000 FEB:  -9.825
USER: RMSD 2.995869
USER: SEED 119
USER: STATUS no improvement in best in 7 clusters for 5 generations
USER: GENES 14
USER: genes 0 Translation |==|  0.52000 0.59317 0.43624
USER: genes 1 Rotation |==|  0.39840 0.51303 0.45337 0.98717
USER: genes 2 Torsion [C]-N--CA-[C] |==|  0.80910
USER: genes 3 Torsion [N]-CA--C-[N] |==|  0.60935
USER: genes 4 Torsion [C]-N--CA-[CB] |==|  0.30150
USER: genes 5 Torsion [N]-CA--CB-[CG] |==|  0.98313
USER: genes 6 Torsion [CA]-CB--CG-[CD2] |==|  0.28587
USER: genes 7 Torsion [N]-CA--C-[O] |==|  0.33632
USER: genes 8 Torsion [N]-CA--CB-[CG] |==|  0.70524
USER: genes 9 Torsion [CA]-CB--CG-[CD1] |==|  0.52987
USER: genes 10 Torsion [N]-C--CA-[N] |==|  0.37884
USER: genes 11 Torsion [C]-CA--N-[H3] |==|  0.49404
USER: genes 12 Torsion [C]-CA--CB-[CG] |==|  0.51846
USER: genes 13 Torsion [CA]-CB--CG-[CD2] |==|  0.87745
ROOT
ATOM      1  C   TRP C   1      18.916 -17.867  29.792  1.00 34.42 LIG 0.25  C 
ATOM      2 O    TRP C   1      19.160 -19.021  29.454  1.00 41.57 LIG-0.27  OA
ATOM      3  N   LEU C   2      19.700 -17.142  30.578  1.00 34.28 LIG-0.35  N 
ATOM      4 H    LEU C   2      19.624 -16.289  30.653  1.00 34.28 LIG 0.16  HD
ENDROOT
BRANCH 3 5
ATOM      5  CA  LEU C   2      20.776 -17.705  31.399  1.00 43.88 LIG 0.18  C 
BRANCH 5 6
ATOM      6  C   LEU C   2      20.273 -18.595  32.592  1.00 50.68 LIG 0.24  C 
ATOM      7 O    LEU C   2      19.286 -19.382  32.506  1.00 38.43 LIG-0.27  OA
ATOM      8  N   PHE C   3      20.944 -18.465  33.734  1.00 52.67 LIG-0.35  N 
ATOM      9 H    PHE C   3      21.618 -17.943  33.848  1.00 52.67 LIG 0.16  HD
BRANCH 8 10
ATOM     10  CA  PHE C   3      20.553 -19.240  34.915  1.00 63.47 LIG 0.17  C 
BRANCH 10 11
ATOM     11  CB  PHE C   3      21.579 -20.340  35.222  1.00 59.49 LIG 0.07  C 
BRANCH 11 12
ATOM     12  CG  PHE C   3      22.656 -20.467  34.178  0.00 60.89 LIG-0.06  A 
ATOM     13  CD1 PHE C   3      22.402 -21.105  32.977  0.00 60.45 LIG 0.01  A 
ATOM     14  CE1 PHE C   3      23.398 -21.239  32.023  0.00 60.97 LIG 0.00  A 
ATOM     15  CZ  PHE C   3      24.647 -20.725  32.255  0.00 59.40 LIG 0.00  A 
ATOM     16  CE2 PHE C   3      24.916 -20.085  33.443  0.00 59.26 LIG 0.00  A 
ATOM     17  CD2 PHE C   3      23.924 -19.958  34.401  0.00 60.74 LIG 0.01  A 
ENDBRANCH 11 12
ENDBRANCH 10 11
BRANCH 10 18
ATOM     18  C   PHE C   3      20.343 -18.346  36.147  1.00 72.73 LIG 0.22  C 
ATOM     19 O    PHE C   3      19.261 -18.307  36.739  1.00 72.69 LIG-0.29  OA
ENDBRANCH 10 18
ENDBRANCH 8 10
ENDBRANCH 5 6
BRANCH 5 20
ATOM     20  CB  LEU C   2      21.621 -16.537  31.908  1.00 36.13 LIG 0.04  C 
BRANCH 20 21
ATOM     21  CG  LEU C   2      22.996 -16.286  31.305  1.00 47.78 LIG-0.02  C 
ATOM     22  CD2 LEU C   2      23.744 -17.576  31.251  1.00 53.75 LIG 0.01  C 
ATOM     23  CD1 LEU C   2      23.763 -15.257  32.126  1.00 57.03 LIG 0.01  C 
ENDBRANCH 20 21
ENDBRANCH 5 20
ENDBRANCH 3 5
BRANCH 1 24
ATOM     24  CA  TRP C   1      17.665 -17.162  29.336  1.00 30.44 LIG 0.28  C 
BRANCH 24 25
ATOM     25  N   TRP C   1      17.443 -17.419  27.893  1.00 30.96 LIG-0.07  N 
ATOM     26 H3   TRP C   1      16.687 -17.026  27.634  1.00 30.96 LIG 0.28  HD
ATOM     27 H1   TRP C   1      18.124 -17.089  27.424  1.00 30.96 LIG 0.28  HD
ATOM     28 H2   TRP C   1      17.385 -18.296  27.753  1.00 30.96 LIG 0.28  HD
ENDBRANCH 24 25
BRANCH 24 29
ATOM     29  CB  TRP C   1      16.484 -17.693  30.145  1.00 29.47 LIG 0.08  C 
BRANCH 29 30
ATOM     30  CG  TRP C   1      15.172 -17.213  29.713  1.00 32.35 LIG-0.03  A 
ATOM     31  CD1 TRP C   1      14.031 -17.957  29.523  1.00 34.00 LIG 0.10  A 
ATOM     32  NE1 TRP C   1      13.010 -17.151  29.097  1.00 34.62 LIG-0.36  N 
ATOM     33 HE1  TRP C   1      12.206 -17.408  28.932  1.00 34.62 LIG 0.17  HD
ATOM     34  CE2 TRP C   1      13.478 -15.870  28.975  1.00 29.50 LIG 0.04  A 
ATOM     35  CZ2 TRP C   1      12.817 -14.709  28.608  1.00 29.56 LIG 0.03  A 
ATOM     36  CD2 TRP C   1      14.838 -15.876  29.367  1.00 28.41 LIG-0.00  A 
ATOM     37  CH2 TRP C   1      13.537 -13.556  28.585  1.00 29.15 LIG 0.00  A 
ATOM     38  CZ3 TRP C   1      14.895 -13.534  28.963  1.00 29.71 LIG 0.00  A 
ATOM     39  CE3 TRP C   1      15.543 -14.678  29.348  1.00 28.71 LIG 0.01  A 
ENDBRANCH 29 30
ENDBRANCH 24 29
ENDBRANCH 1 24
TORSDOF 12
ENDMDL
MODEL 9
USER: ADFR SOLUTION from run 165
USER: SCORE 15.125117 LL:  -1.911 LR: -13.404 RR:   0.000 FEB:  -9.824
USER: RMSD 3.465971
USER: SEED 164
USER: STATUS no improvement in best in 7 clusters for 5 generations
USER: GENES 14
USER: genes 0 Translation |==|  0.49559 0.60041 0.44223
USER: genes 1 Rotation |==|  0.34373 0.59920 0.40692 0.95505
USER: genes 2 Torsion [C]-N--CA-[C] |==|  0.63205
USER: genes 3 Torsion [N]-CA--C-[N] |==|  0.38410
USER: genes 4 Torsion [C]-N--CA-[CB] |==|  0.47074
USER: genes 5 Torsion [N]-CA--CB-[CG] |==|  0.89160
USER: genes 6 Torsion [CA]-CB--CG-[CD2] |==|  0.26166
USER: genes 7 Torsion [N]-CA--C-[O] |==|  0.34216
USER: genes 8 Torsion [N]-CA--CB-[CG] |==|  0.83470
USER: genes 9 Torsion [CA]-CB--CG-[CD1] |==|  0.23569
USER: genes 10 Torsion [N]-C--CA-[N] |==|  0.10383
USER: genes 11 Torsion [C]-CA--N-[H3] |==|  0.38661
USER: genes 12 Torsion [C]-CA--CB-[CG] |==|  0.41355
USER: genes 13 Torsion [CA]-CB--CG-[CD2] |==|  0.16176
ROOT
ATOM      1  C   TRP C   1      18.422 -17.721  29.891  1.00 34.42 LIG 0.25  C 
ATOM      2 O    TRP C   1      18.281 -18.935  29.794  1.00 41.57 LIG-0.27  OA
ATOM      3  N   LEU C   2      19.564 -17.130  30.215  1.00 34.28 LIG-0.35  N 
ATOM      4 H    LEU C   2      19.704 -16.289  30.095  1.00 34.28 LIG 0.16  HD
ENDROOT
BRANCH 3 5
ATOM      5  CA  LEU C   2      20.705 -17.832  30.807  1.00 43.88 LIG 0.18  C 
BRANCH 5 6
ATOM      6  C   LEU C   2      21.326 -17.110  32.056  1.00 50.68 LIG 0.24  C 
ATOM      7 O    LEU C   2      21.516 -15.860  32.114  1.00 38.43 LIG-0.27  OA
ATOM      8  N   PHE C   3      21.664 -17.898  33.073  1.00 52.67 LIG-0.35  N 
ATOM      9 H    PHE C   3      21.560 -18.752  33.085  1.00 52.67 LIG 0.16  HD
BRANCH 8 10
ATOM     10  CA  PHE C   3      22.261 -17.329  34.285  1.00 63.47 LIG 0.17  C 
BRANCH 10 11
ATOM     11  CB  PHE C   3      22.328 -18.370  35.411  1.00 59.49 LIG 0.07  C 
BRANCH 11 12
ATOM     12  CG  PHE C   3      21.117 -19.261  35.481  0.00 60.89 LIG-0.06  A 
ATOM     13  CD1 PHE C   3      19.996 -18.874  36.193  0.00 60.45 LIG 0.01  A 
ATOM     14  CE1 PHE C   3      18.888 -19.702  36.273  0.00 60.97 LIG 0.00  A 
ATOM     15  CZ  PHE C   3      18.886 -20.913  35.632  0.00 59.40 LIG 0.00  A 
ATOM     16  CE2 PHE C   3      19.991 -21.313  34.917  0.00 59.26 LIG 0.00  A 
ATOM     17  CD2 PHE C   3      21.103 -20.490  34.843  0.00 60.74 LIG 0.01  A 
ENDBRANCH 11 12
ENDBRANCH 10 11
BRANCH 10 18
ATOM     18  C   PHE C   3      23.654 -16.739  34.018  1.00 72.73 LIG 0.22  C 
ATOM     19 O    PHE C   3      23.915 -15.561  34.274  1.00 72.69 LIG-0.29  OA
ENDBRANCH 10 18
ENDBRANCH 8 10
ENDBRANCH 5 6
BRANCH 5 20
ATOM     20  CB  LEU C   2      21.752 -18.012  29.705  1.00 36.13 LIG 0.04  C 
BRANCH 20 21
ATOM     21  CG  LEU C   2      21.392 -18.787  28.446  1.00 47.78 LIG-0.02  C 
ATOM     22  CD2 LEU C   2      22.636 -19.374  27.867  1.00 53.75 LIG 0.01  C 
ATOM     23  CD1 LEU C   2      20.707 -17.879  27.434  1.00 57.03 LIG 0.01  C 
ENDBRANCH 20 21
ENDBRANCH 5 20
ENDBRANCH 3 5
BRANCH 1 24
ATOM     24  CA  TRP C   1      17.274 -16.774  29.651  1.00 30.44 LIG 0.28  C 
BRANCH 24 25
ATOM     25  N   TRP C   1      17.767 -15.553  28.969  1.00 30.96 LIG-0.07  N 
ATOM     26 H3   TRP C   1      17.183 -15.308  28.343  1.00 30.96 LIG 0.28  HD
ATOM     27 H1   TRP C   1      17.858 -14.897  29.563  1.00 30.96 LIG 0.28  HD
ATOM     28 H2   TRP C   1      18.554 -15.722  28.591  1.00 30.96 LIG 0.28  HD
ENDBRANCH 24 25
BRANCH 24 29
ATOM     29  CB  TRP C   1      16.239 -17.476  28.775  1.00 29.47 LIG 0.08  C 
BRANCH 29 30
ATOM     30  CG  TRP C   1      14.854 -17.071  29.010  1.00 32.35 LIG-0.03  A 
ATOM     31  CD1 TRP C   1      13.791 -17.879  29.342  1.00 34.00 LIG 0.10  A 
ATOM     32  NE1 TRP C   1      12.651 -17.131  29.459  1.00 34.62 LIG-0.36  N 
ATOM     33 HE1  TRP C   1      11.874 -17.433  29.673  1.00 34.62 LIG 0.17  HD
ATOM     34  CE2 TRP C   1      12.947 -15.823  29.179  1.00 29.50 LIG 0.04  A 
ATOM     35  CZ2 TRP C   1      12.136 -14.700  29.195  1.00 29.56 LIG 0.03  A 
ATOM     36  CD2 TRP C   1      14.333 -15.753  28.901  1.00 28.41 LIG-0.00  A 
ATOM     37  CH2 TRP C   1      12.707 -13.508  28.882  1.00 29.15 LIG 0.00  A 
ATOM     38  CZ3 TRP C   1      14.084 -13.409  28.594  1.00 29.71 LIG 0.00  A 
ATOM     39  CE3 TRP C   1      14.891 -14.516  28.600  1.00 28.71 LIG 0.01  A 
ENDBRANCH 29 30
ENDBRANCH 24 29
ENDBRANCH 1 24
TORSDOF 12
ENDMDL
MODEL 10
USER: ADFR SOLUTION from run 171
USER: SCORE 15.601779 LL:  -2.260 LR: -13.386 RR:   0.000 FEB:  -9.806
USER: RMSD 5.481902
USER: SEED 170
USER: STATUS no improvement in best in 5 clusters for 5 generations
USER: GENES 14
USER: genes 0 Translation |==|  0.51694 0.57493 0.39719
USER: genes 1 Rotation |==|  0.27270 0.71960 0.39880 0.87399
USER: genes 2 Torsion [C]-N--CA-[C] |==|  0.78856
USER: genes 3 Torsion [N]-CA--C-[N] |==|  0.98884
USER: genes 4 Torsion [C]-N--CA-[CB] |==|  0.36095
USER: genes 5 Torsion [N]-CA--CB-[CG] |==|  0.79904
USER: genes 6 Torsion [CA]-CB--CG-[CD2] |==|  0.63270
USER: genes 7 Torsion [N]-CA--C-[O] |==|  0.00566
USER: genes 8 Torsion [N]-CA--CB-[CG] |==|  0.75594
USER: genes 9 Torsion [CA]-CB--CG-[CD1] |==|  0.16092
USER: genes 10 Torsion [N]-C--CA-[N] |==|  0.21508
USER: genes 11 Torsion [C]-CA--N-[H3] |==|  0.23352
USER: genes 12 Torsion [C]-CA--CB-[CG] |==|  0.61129
USER: genes 13 Torsion [CA]-CB--CG-[CD2] |==|  0.85018
ROOT
ATOM      1  C   TRP C   1      18.854 -18.237  29.148  1.00 34.42 LIG 0.25  C 
ATOM      2 O    TRP C   1      18.564 -19.370  29.517  1.00 41.57 LIG-0.27  OA
ATOM      3  N   LEU C   2      20.041 -17.895  28.665  1.00 34.28 LIG-0.35  N 
ATOM      4 H    LEU C   2      20.176 -17.162  28.236  1.00 34.28 LIG 0.16  HD
ENDROOT
BRANCH 3 5
ATOM      5  CA  LEU C   2      21.245 -18.719  28.805  1.00 43.88 LIG 0.18  C 
BRANCH 5 6
ATOM      6  C   LEU C   2      21.892 -18.671  30.236  1.00 50.68 LIG 0.24  C 
ATOM      7 O    LEU C   2      22.883 -19.381  30.575  1.00 38.43 LIG-0.27  OA
ATOM      8  N   PHE C   3      21.323 -17.837  31.102  1.00 52.67 LIG-0.35  N 
ATOM      9 H    PHE C   3      20.647 -17.335  30.925  1.00 52.67 LIG 0.16  HD
BRANCH 8 10
ATOM     10  CA  PHE C   3      21.841 -17.721  32.469  1.00 63.47 LIG 0.17  C 
BRANCH 10 11
ATOM     11  CB  PHE C   3      22.069 -16.254  32.853  1.00 59.49 LIG 0.07  C 
BRANCH 11 12
ATOM     12  CG  PHE C   3      23.253 -15.628  32.167  0.00 60.89 LIG-0.06  A 
ATOM     13  CD1 PHE C   3      23.440 -15.777  30.805  0.00 60.45 LIG 0.01  A 
ATOM     14  CE1 PHE C   3      24.539 -15.217  30.175  0.00 60.97 LIG 0.00  A 
ATOM     15  CZ  PHE C   3      25.451 -14.492  30.898  0.00 59.40 LIG 0.00  A 
ATOM     16  CE2 PHE C   3      25.280 -14.331  32.253  0.00 59.26 LIG 0.00  A 
ATOM     17  CD2 PHE C   3      24.186 -14.898  32.885  0.00 60.74 LIG 0.01  A 
ENDBRANCH 11 12
ENDBRANCH 10 11
BRANCH 10 18
ATOM     18  C   PHE C   3      20.921 -18.406  33.492  1.00 72.73 LIG 0.22  C 
ATOM     19 O    PHE C   3      19.900 -19.004  33.142  1.00 72.69 LIG-0.29  OA
ENDBRANCH 10 18
ENDBRANCH 8 10
ENDBRANCH 5 6
BRANCH 5 20
ATOM     20  CB  LEU C   2      22.241 -18.255  27.741  1.00 36.13 LIG 0.04  C 
BRANCH 20 21
ATOM     21  CG  LEU C   2      22.196 -18.872  26.350  1.00 47.78 LIG-0.02  C 
ATOM     22  CD2 LEU C   2      23.258 -18.246  25.508  1.00 53.75 LIG 0.01  C 
ATOM     23  CD1 LEU C   2      20.825 -18.672  25.718  1.00 57.03 LIG 0.01  C 
ENDBRANCH 20 21
ENDBRANCH 5 20
ENDBRANCH 3 5
BRANCH 1 24
ATOM     24  CA  TRP C   1      17.861 -17.106  29.220  1.00 30.44 LIG 0.28  C 
BRANCH 24 25
ATOM     25  N   TRP C   1      17.311 -16.835  27.871  1.00 30.96 LIG-0.07  N 
ATOM     26 H3   TRP C   1      16.636 -17.392  27.708  1.00 30.96 LIG 0.28  HD
ATOM     27 H1   TRP C   1      17.017 -15.995  27.833  1.00 30.96 LIG 0.28  HD
ATOM     28 H2   TRP C   1      17.948 -16.954  27.261  1.00 30.96 LIG 0.28  HD
ENDBRANCH 24 25
BRANCH 24 29
ATOM     29  CB  TRP C   1      16.734 -17.510  30.169  1.00 29.47 LIG 0.08  C 
BRANCH 29 30
ATOM     30  CG  TRP C   1      15.393 -17.116  29.738  1.00 32.35 LIG-0.03  A 
ATOM     31  CD1 TRP C   1      14.300 -17.933  29.557  1.00 34.00 LIG 0.10  A 
ATOM     32  NE1 TRP C   1      13.229 -17.196  29.130  1.00 34.62 LIG-0.36  N 
ATOM     33 HE1  TRP C   1      12.442 -17.504  28.969  1.00 34.62 LIG 0.17  HD
ATOM     34  CE2 TRP C   1      13.614 -15.888  28.999  1.00 29.50 LIG 0.04  A 
ATOM     35  CZ2 TRP C   1      12.880 -14.774  28.627  1.00 29.56 LIG 0.03  A 
ATOM     36  CD2 TRP C   1      14.973 -15.806  29.386  1.00 28.41 LIG-0.00  A 
ATOM     37  CH2 TRP C   1      13.525 -13.578  28.594  1.00 29.15 LIG 0.00  A 
ATOM     38  CZ3 TRP C   1      14.880 -13.467  28.967  1.00 29.71 LIG 0.00  A 
ATOM     39  CE3 TRP C   1      15.601 -14.566  29.357  1.00 28.71 LIG 0.01  A 
ENDBRANCH 29 30
ENDBRANCH 24 29
ENDBRANCH 1 24
TORSDOF 12
ENDMDL
MODEL 11
USER: ADFR SOLUTION from run 14
USER: SCORE 14.942573 LL:  -2.188 LR: -13.289 RR:   0.000 FEB:  -9.710
USER: RMSD 2.685425
USER: SEED 155600
USER: STATUS no improvement in best in 7 clusters for 5 generations
USER: GENES 14
USER: genes 0 Translation |==|  0.53915 0.61110 0.37913
USER: genes 1 Rotation |==|  0.40349 0.48761 0.47025 0.98954
USER: genes 2 Torsion [C]-N--CA-[C] |==|  0.78242
USER: genes 3 Torsion [N]-CA--C-[N] |==|  0.54444
USER: genes 4 Torsion [C]-N--CA-[CB] |==|  0.20997
USER: genes 5 Torsion [N]-CA--CB-[CG] |==|  0.59343
USER: genes 6 Torsion [CA]-CB--CG-[CD2] |==|  0.47230
USER: genes 7 Torsion [N]-CA--C-[O] |==|  0.04874
USER: genes 8 Torsion [N]-CA--CB-[CG] |==|  0.55709
USER: genes 9 Torsion [CA]-CB--CG-[CD1] |==|  0.32055
USER: genes 10 Torsion [N]-C--CA-[N] |==|  0.50841
USER: genes 11 Torsion [C]-CA--N-[H3] |==|  0.61484
USER: genes 12 Torsion [C]-CA--CB-[CG] |==|  0.41671
USER: genes 13 Torsion [CA]-CB--CG-[CD2] |==|  0.33059
ROOT
ATOM      1  C   TRP C   1      19.304 -17.504  28.850  1.00 34.42 LIG 0.25  C 
ATOM      2 O    TRP C   1      19.676 -18.626  28.523  1.00 41.57 LIG-0.27  OA
ATOM      3  N   LEU C   2      19.951 -16.728  29.709  1.00 34.28 LIG-0.35  N 
ATOM      4 H    LEU C   2      19.794 -15.886  29.786  1.00 34.28 LIG 0.16  HD
ENDROOT
BRANCH 3 5
ATOM      5  CA  LEU C   2      20.996 -17.212  30.615  1.00 43.88 LIG 0.18  C 
BRANCH 5 6
ATOM      6  C   LEU C   2      20.449 -17.962  31.883  1.00 50.68 LIG 0.24  C 
ATOM      7 O    LEU C   2      19.261 -18.385  31.982  1.00 38.43 LIG-0.27  OA
ATOM      8  N   PHE C   3      21.316 -18.123  32.879  1.00 52.67 LIG-0.35  N 
ATOM      9 H    PHE C   3      22.132 -17.853  32.866  1.00 52.67 LIG 0.16  HD
BRANCH 8 10
ATOM     10  CA  PHE C   3      20.908 -18.801  34.114  1.00 63.47 LIG 0.17  C 
BRANCH 10 11
ATOM     11  CB  PHE C   3      20.820 -20.319  33.909  1.00 59.49 LIG 0.07  C 
BRANCH 11 12
ATOM     12  CG  PHE C   3      19.736 -20.975  34.721  0.00 60.89 LIG-0.06  A 
ATOM     13  CD1 PHE C   3      19.071 -20.272  35.709  0.00 60.45 LIG 0.01  A 
ATOM     14  CE1 PHE C   3      18.085 -20.880  36.469  0.00 60.97 LIG 0.00  A 
ATOM     15  CZ  PHE C   3      17.746 -22.188  36.238  0.00 59.40 LIG 0.00  A 
ATOM     16  CE2 PHE C   3      18.395 -22.902  35.257  0.00 59.26 LIG 0.00  A 
ATOM     17  CD2 PHE C   3      19.387 -22.297  34.503  0.00 60.74 LIG 0.01  A 
ENDBRANCH 11 12
ENDBRANCH 10 11
BRANCH 10 18
ATOM     18  C   PHE C   3      21.844 -18.472  35.287  1.00 72.73 LIG 0.22  C 
ATOM     19 O    PHE C   3      22.602 -17.499  35.254  1.00 72.69 LIG-0.29  OA
ENDBRANCH 10 18
ENDBRANCH 8 10
ENDBRANCH 5 6
BRANCH 5 20
ATOM     20  CB  LEU C   2      21.843 -16.004  31.020  1.00 36.13 LIG 0.04  C 
BRANCH 20 21
ATOM     21  CG  LEU C   2      23.251 -16.220  31.556  1.00 47.78 LIG-0.02  C 
ATOM     22  CD2 LEU C   2      23.354 -15.599  32.909  1.00 53.75 LIG 0.01  C 
ATOM     23  CD1 LEU C   2      24.284 -15.619  30.612  1.00 57.03 LIG 0.01  C 
ENDBRANCH 20 21
ENDBRANCH 5 20
ENDBRANCH 3 5
BRANCH 1 24
ATOM     24  CA  TRP C   1      18.041 -16.901  28.292  1.00 30.44 LIG 0.28  C 
BRANCH 24 25
ATOM     25  N   TRP C   1      17.367 -17.879  27.406  1.00 30.96 LIG-0.07  N 
ATOM     26 H3   TRP C   1      17.059 -17.461  26.682  1.00 30.96 LIG 0.28  HD
ATOM     27 H1   TRP C   1      17.948 -18.507  27.160  1.00 30.96 LIG 0.28  HD
ATOM     28 H2   TRP C   1      16.689 -18.257  27.842  1.00 30.96 LIG 0.28  HD
ENDBRANCH 24 25
BRANCH 24 29
ATOM     29  CB  TRP C   1      17.122 -16.536  29.456  1.00 29.47 LIG 0.08  C 
BRANCH 29 30
ATOM     30  CG  TRP C   1      16.241 -15.394  29.214  1.00 32.35 LIG-0.03  A 
ATOM     31  CD1 TRP C   1      16.611 -14.091  28.968  1.00 34.00 LIG 0.10  A 
ATOM     32  NE1 TRP C   1      15.499 -13.309  28.811  1.00 34.62 LIG-0.36  N 
ATOM     33 HE1  TRP C   1      15.500 -12.467  28.636  1.00 34.62 LIG 0.17  HD
ATOM     34  CE2 TRP C   1      14.383 -14.086  28.978  1.00 29.50 LIG 0.04  A 
ATOM     35  CZ2 TRP C   1      13.041 -13.754  28.885  1.00 29.56 LIG 0.03  A 
ATOM     36  CD2 TRP C   1      14.821 -15.409  29.224  1.00 28.41 LIG-0.00  A 
ATOM     37  CH2 TRP C   1      12.133 -14.744  29.089  1.00 29.15 LIG 0.00  A 
ATOM     38  CZ3 TRP C   1      12.540 -16.070  29.343  1.00 29.71 LIG 0.00  A 
ATOM     39  CE3 TRP C   1      13.867 -16.403  29.413  1.00 28.71 LIG 0.01  A 
ENDBRANCH 29 30
ENDBRANCH 24 29
ENDBRANCH 1 24
TORSDOF 12
ENDMDL
MODEL 12
USER: ADFR SOLUTION from run 68
USER: SCORE 14.796093 LL:  -2.511 LR: -13.218 RR:   0.000 FEB:  -9.638
USER: RMSD 5.874954
USER: SEED 67
USER: STATUS no improvement in best in 9 clusters for 5 generations
USER: GENES 14
USER: genes 0 Translation |==|  0.52301 0.61349 0.40980
USER: genes 1 Rotation |==|  0.31077 0.53241 0.48689 0.96149
USER: genes 2 Torsion [C]-N--CA-[C] |==|  0.20903
USER: genes 3 Torsion [N]-CA--C-[N] |==|  0.42224
USER: genes 4 Torsion [C]-N--CA-[CB] |==|  0.40704
USER: genes 5 Torsion [N]-CA--CB-[CG] |==|  0.03490
USER: genes 6 Torsion [CA]-CB--CG-[CD2] |==|  0.69135
USER: genes 7 Torsion [N]-CA--C-[O] |==|  0.97795
USER: genes 8 Torsion [N]-CA--CB-[CG] |==|  0.51604
USER: genes 9 Torsion [CA]-CB--CG-[CD1] |==|  0.12503
USER: genes 10 Torsion [N]-C--CA-[N] |==|  0.32559
USER: genes 11 Torsion [C]-CA--N-[H3] |==|  0.18822
USER: genes 12 Torsion [C]-CA--CB-[CG] |==|  0.46650
USER: genes 13 Torsion [CA]-CB--CG-[CD2] |==|  0.91502
ROOT
ATOM      1  C   TRP C   1      18.977 -17.456  29.356  1.00 34.42 LIG 0.25  C 
ATOM      2 O    TRP C   1      19.336 -18.628  29.392  1.00 41.57 LIG-0.27  OA
ATOM      3  N   LEU C   2      19.740 -16.434  29.719  1.00 34.28 LIG-0.35  N 
ATOM      4 H    LEU C   2      19.557 -15.619  29.513  1.00 34.28 LIG 0.16  HD
ENDROOT
BRANCH 3 5
ATOM      5  CA  LEU C   2      20.970 -16.575  30.504  1.00 43.88 LIG 0.18  C 
BRANCH 5 6
ATOM      6  C   LEU C   2      22.192 -17.129  29.687  1.00 50.68 LIG 0.24  C 
ATOM      7 O    LEU C   2      22.072 -17.898  28.690  1.00 38.43 LIG-0.27  OA
ATOM      8  N   PHE C   3      23.394 -16.753  30.116  1.00 52.67 LIG-0.35  N 
ATOM      9 H    PHE C   3      23.533 -16.236  30.789  1.00 52.67 LIG 0.16  HD
BRANCH 8 10
ATOM     10  CA  PHE C   3      24.605 -17.220  29.433  1.00 63.47 LIG 0.17  C 
BRANCH 10 11
ATOM     11  CB  PHE C   3      25.708 -16.154  29.469  1.00 59.49 LIG 0.07  C 
BRANCH 11 12
ATOM     12  CG  PHE C   3      25.427 -15.028  30.426  0.00 60.89 LIG-0.06  A 
ATOM     13  CD1 PHE C   3      25.428 -15.246  31.792  0.00 60.45 LIG 0.01  A 
ATOM     14  CE1 PHE C   3      25.153 -14.213  32.674  0.00 60.97 LIG 0.00  A 
ATOM     15  CZ  PHE C   3      24.889 -12.955  32.199  0.00 59.40 LIG 0.00  A 
ATOM     16  CE2 PHE C   3      24.886 -12.719  30.844  0.00 59.26 LIG 0.00  A 
ATOM     17  CD2 PHE C   3      25.153 -13.753  29.962  0.00 60.74 LIG 0.01  A 
ENDBRANCH 11 12
ENDBRANCH 10 11
BRANCH 10 18
ATOM     18  C   PHE C   3      25.119 -18.544  30.017  1.00 72.73 LIG 0.22  C 
ATOM     19 O    PHE C   3      24.631 -19.032  31.040  1.00 72.69 LIG-0.29  OA
ENDBRANCH 10 18
ENDBRANCH 8 10
ENDBRANCH 5 6
BRANCH 5 20
ATOM     20  CB  LEU C   2      20.651 -17.484  31.692  1.00 36.13 LIG 0.04  C 
BRANCH 20 21
ATOM     21  CG  LEU C   2      21.704 -17.712  32.767  1.00 47.78 LIG-0.02  C 
ATOM     22  CD2 LEU C   2      21.058 -18.352  33.950  1.00 53.75 LIG 0.01  C 
ATOM     23  CD1 LEU C   2      22.361 -16.396  33.163  1.00 57.03 LIG 0.01  C 
ENDBRANCH 20 21
ENDBRANCH 5 20
ENDBRANCH 3 5
BRANCH 1 24
ATOM     24  CA  TRP C   1      17.598 -17.069  28.889  1.00 30.44 LIG 0.28  C 
BRANCH 24 25
ATOM     25  N   TRP C   1      17.423 -17.457  27.469  1.00 30.96 LIG-0.07  N 
ATOM     26 H3   TRP C   1      17.413 -18.344  27.402  1.00 30.96 LIG 0.28  HD
ATOM     27 H1   TRP C   1      16.653 -17.128  27.164  1.00 30.96 LIG 0.28  HD
ATOM     28 H2   TRP C   1      18.096 -17.130  26.987  1.00 30.96 LIG 0.28  HD
ENDBRANCH 24 25
BRANCH 24 29
ATOM     29  CB  TRP C   1      16.570 -17.795  29.755  1.00 29.47 LIG 0.08  C 
BRANCH 29 30
ATOM     30  CG  TRP C   1      15.195 -17.318  29.612  1.00 32.35 LIG-0.03  A 
ATOM     31  CD1 TRP C   1      14.039 -18.057  29.719  1.00 34.00 LIG 0.10  A 
ATOM     32  NE1 TRP C   1      12.949 -17.258  29.502  1.00 34.62 LIG-0.36  N 
ATOM     33 HE1  TRP C   1      12.128 -17.512  29.535  1.00 34.62 LIG 0.17  HD
ATOM     34  CE2 TRP C   1      13.379 -15.987  29.225  1.00 29.50 LIG 0.04  A 
ATOM     35  CZ2 TRP C   1      12.654 -14.835  28.969  1.00 29.56 LIG 0.03  A 
ATOM     36  CD2 TRP C   1      14.792 -15.993  29.297  1.00 28.41 LIG-0.00  A 
ATOM     37  CH2 TRP C   1      13.351 -13.692  28.735  1.00 29.15 LIG 0.00  A 
ATOM     38  CZ3 TRP C   1      14.760 -13.669  28.793  1.00 29.71 LIG 0.00  A 
ATOM     39  CE3 TRP C   1      15.476 -14.804  29.068  1.00 28.71 LIG 0.01  A 
ENDBRANCH 29 30
ENDBRANCH 24 29
ENDBRANCH 1 24
TORSDOF 12
ENDMDL
MODEL 13
USER: ADFR SOLUTION from run 169
USER: SCORE 15.986231 LL:  -2.875 LR: -13.185 RR:   0.000 FEB:  -9.606
USER: RMSD 2.401170
USER: SEED 168
USER: STATUS no improvement in best in 3 clusters for 5 generations
USER: GENES 14
USER: genes 0 Translation |==|  0.53438 0.60441 0.40186
USER: genes 1 Rotation |==|  0.40816 0.51876 0.49332 0.99109
USER: genes 2 Torsion [C]-N--CA-[C] |==|  0.79717
USER: genes 3 Torsion [N]-CA--C-[N] |==|  0.46657
USER: genes 4 Torsion [C]-N--CA-[CB] |==|  0.22932
USER: genes 5 Torsion [N]-CA--CB-[CG] |==|  0.01688
USER: genes 6 Torsion [CA]-CB--CG-[CD2] |==|  0.69895
USER: genes 7 Torsion [N]-CA--C-[O] |==|  0.94305
USER: genes 8 Torsion [N]-CA--CB-[CG] |==|  0.51375
USER: genes 9 Torsion [CA]-CB--CG-[CD1] |==|  0.34678
USER: genes 10 Torsion [N]-C--CA-[N] |==|  0.39687
USER: genes 11 Torsion [C]-CA--N-[H3] |==|  0.16862
USER: genes 12 Torsion [C]-CA--CB-[CG] |==|  0.49882
USER: genes 13 Torsion [CA]-CB--CG-[CD2] |==|  0.89251
ROOT
ATOM      1  C   TRP C   1      19.207 -17.640  29.225  1.00 34.42 LIG 0.25  C 
ATOM      2 O    TRP C   1      19.603 -18.727  28.817  1.00 41.57 LIG-0.27  OA
ATOM      3  N   LEU C   2      19.915 -16.838  30.009  1.00 34.28 LIG-0.35  N 
ATOM      4 H    LEU C   2      19.716 -16.011  30.131  1.00 34.28 LIG 0.16  HD
ENDROOT
BRANCH 3 5
ATOM      5  CA  LEU C   2      21.106 -17.267  30.748  1.00 43.88 LIG 0.18  C 
BRANCH 5 6
ATOM      6  C   LEU C   2      20.797 -18.188  31.983  1.00 50.68 LIG 0.24  C 
ATOM      7 O    LEU C   2      19.636 -18.348  32.459  1.00 38.43 LIG-0.27  OA
ATOM      8  N   PHE C   3      21.847 -18.798  32.528  1.00 52.67 LIG-0.35  N 
ATOM      9 H    PHE C   3      22.656 -18.722  32.247  1.00 52.67 LIG 0.16  HD
BRANCH 8 10
ATOM     10  CA  PHE C   3      21.674 -19.673  33.691  1.00 63.47 LIG 0.17  C 
BRANCH 10 11
ATOM     11  CB  PHE C   3      21.231 -21.080  33.266  1.00 59.49 LIG 0.07  C 
BRANCH 11 12
ATOM     12  CG  PHE C   3      21.217 -21.282  31.774  0.00 60.89 LIG-0.06  A 
ATOM     13  CD1 PHE C   3      22.400 -21.364  31.062  0.00 60.45 LIG 0.01  A 
ATOM     14  CE1 PHE C   3      22.388 -21.532  29.687  0.00 60.97 LIG 0.00  A 
ATOM     15  CZ  PHE C   3      21.197 -21.635  29.016  0.00 59.40 LIG 0.00  A 
ATOM     16  CE2 PHE C   3      20.011 -21.559  29.709  0.00 59.26 LIG 0.00  A 
ATOM     17  CD2 PHE C   3      20.022 -21.382  31.083  0.00 60.74 LIG 0.01  A 
ENDBRANCH 11 12
ENDBRANCH 10 11
BRANCH 10 18
ATOM     18  C   PHE C   3      22.947 -19.749  34.548  1.00 72.73 LIG 0.22  C 
ATOM     19 O    PHE C   3      24.053 -19.453  34.088  1.00 72.69 LIG-0.29  OA
ENDBRANCH 10 18
ENDBRANCH 8 10
ENDBRANCH 5 6
BRANCH 5 20
ATOM     20  CB  LEU C   2      21.852 -16.004  31.184  1.00 36.13 LIG 0.04  C 
BRANCH 20 21
ATOM     21  CG  LEU C   2      23.199 -16.130  31.880  1.00 47.78 LIG-0.02  C 
ATOM     22  CD2 LEU C   2      23.063 -15.654  33.288  1.00 53.75 LIG 0.01  C 
ATOM     23  CD1 LEU C   2      24.261 -15.324  31.144  1.00 57.03 LIG 0.01  C 
ENDBRANCH 20 21
ENDBRANCH 5 20
ENDBRANCH 3 5
BRANCH 1 24
ATOM     24  CA  TRP C   1      17.842 -17.113  28.864  1.00 30.44 LIG 0.28  C 
BRANCH 24 25
ATOM     25  N   TRP C   1      17.519 -17.476  27.464  1.00 30.96 LIG-0.07  N 
ATOM     26 H3   TRP C   1      17.515 -18.363  27.380  1.00 30.96 LIG 0.28  HD
ATOM     27 H1   TRP C   1      16.717 -17.155  27.251  1.00 30.96 LIG 0.28  HD
ATOM     28 H2   TRP C   1      18.131 -17.129  26.919  1.00 30.96 LIG 0.28  HD
ENDBRANCH 24 25
BRANCH 24 29
ATOM     29  CB  TRP C   1      16.817 -17.733  29.811  1.00 29.47 LIG 0.08  C 
BRANCH 29 30
ATOM     30  CG  TRP C   1      15.435 -17.308  29.590  1.00 32.35 LIG-0.03  A 
ATOM     31  CD1 TRP C   1      14.302 -18.088  29.636  1.00 34.00 LIG 0.10  A 
ATOM     32  NE1 TRP C   1      13.198 -17.329  29.356  1.00 34.62 LIG-0.36  N 
ATOM     33 HE1  TRP C   1      12.386 -17.613  29.344  1.00 34.62 LIG 0.17  HD
ATOM     34  CE2 TRP C   1      13.597 -16.045  29.096  1.00 29.50 LIG 0.04  A 
ATOM     35  CZ2 TRP C   1      12.845 -14.921  28.795  1.00 29.56 LIG 0.03  A 
ATOM     36  CD2 TRP C   1      15.003 -15.999  29.246  1.00 28.41 LIG-0.00  A 
ATOM     37  CH2 TRP C   1      13.512 -13.754  28.594  1.00 29.15 LIG 0.00  A 
ATOM     38  CZ3 TRP C   1      14.914 -13.679  28.730  1.00 29.71 LIG 0.00  A 
ATOM     39  CE3 TRP C   1      15.655 -14.787  29.049  1.00 28.71 LIG 0.01  A 
ENDBRANCH 29 30
ENDBRANCH 24 29
ENDBRANCH 1 24
TORSDOF 12
ENDMDL
MODEL 14
USER: ADFR SOLUTION from run 50
USER: SCORE 15.029188 LL:  -2.587 LR: -13.119 RR:   0.000 FEB:  -9.539
USER: RMSD 5.029597
USER: SEED 49
USER: STATUS no improvement in best in 8 clusters for 5 generations
USER: GENES 14
USER: genes 0 Translation |==|  0.51533 0.60675 0.41760
USER: genes 1 Rotation |==|  0.33347 0.56000 0.46600 0.96638
USER: genes 2 Torsion [C]-N--CA-[C] |==|  0.19953
USER: genes 3 Torsion [N]-CA--C-[N] |==|  0.81111
USER: genes 4 Torsion [C]-N--CA-[CB] |==|  0.80841
USER: genes 5 Torsion [N]-CA--CB-[CG] |==|  0.84005
USER: genes 6 Torsion [CA]-CB--CG-[CD2] |==|  0.21310
USER: genes 7 Torsion [N]-CA--C-[O] |==|  0.16152
USER: genes 8 Torsion [N]-CA--CB-[CG] |==|  0.55749
USER: genes 9 Torsion [CA]-CB--CG-[CD1] |==|  0.10692
USER: genes 10 Torsion [N]-C--CA-[N] |==|  0.36543
USER: genes 11 Torsion [C]-CA--N-[H3] |==|  0.10660
USER: genes 12 Torsion [C]-CA--CB-[CG] |==|  0.52208
USER: genes 13 Torsion [CA]-CB--CG-[CD2] |==|  0.86674
ROOT
ATOM      1  C   TRP C   1      18.821 -17.592  29.484  1.00 34.42 LIG 0.25  C 
ATOM      2 O    TRP C   1      19.030 -18.798  29.396  1.00 41.57 LIG-0.27  OA
ATOM      3  N   LEU C   2      19.729 -16.708  29.877  1.00 34.28 LIG-0.35  N 
ATOM      4 H    LEU C   2      19.638 -15.862  29.754  1.00 34.28 LIG 0.16  HD
ENDROOT
BRANCH 3 5
ATOM      5  CA  LEU C   2      20.976 -17.069  30.556  1.00 43.88 LIG 0.18  C 
BRANCH 5 6
ATOM      6  C   LEU C   2      22.034 -17.766  29.628  1.00 50.68 LIG 0.24  C 
ATOM      7 O    LEU C   2      23.124 -17.222  29.284  1.00 38.43 LIG-0.27  OA
ATOM      8  N   PHE C   3      21.715 -18.983  29.197  1.00 52.67 LIG-0.35  N 
ATOM      9 H    PHE C   3      20.988 -19.397  29.397  1.00 52.67 LIG 0.16  HD
BRANCH 8 10
ATOM     10  CA  PHE C   3      22.626 -19.721  28.316  1.00 63.47 LIG 0.17  C 
BRANCH 10 11
ATOM     11  CB  PHE C   3      22.703 -19.072  26.928  1.00 59.49 LIG 0.07  C 
BRANCH 11 12
ATOM     12  CG  PHE C   3      21.369 -18.961  26.240  0.00 60.89 LIG-0.06  A 
ATOM     13  CD1 PHE C   3      21.030 -19.828  25.217  0.00 60.45 LIG 0.01  A 
ATOM     14  CE1 PHE C   3      19.810 -19.715  24.570  0.00 60.97 LIG 0.00  A 
ATOM     15  CZ  PHE C   3      18.916 -18.748  24.949  0.00 59.40 LIG 0.00  A 
ATOM     16  CE2 PHE C   3      19.236 -17.879  25.966  0.00 59.26 LIG 0.00  A 
ATOM     17  CD2 PHE C   3      20.459 -17.985  26.608  0.00 60.74 LIG 0.01  A 
ENDBRANCH 11 12
ENDBRANCH 10 11
BRANCH 10 18
ATOM     18  C   PHE C   3      24.031 -19.854  28.924  1.00 72.73 LIG 0.22  C 
ATOM     19 O    PHE C   3      24.212 -20.393  30.019  1.00 72.69 LIG-0.29  OA
ENDBRANCH 10 18
ENDBRANCH 8 10
ENDBRANCH 5 6
BRANCH 5 20
ATOM     20  CB  LEU C   2      20.609 -17.970  31.737  1.00 36.13 LIG 0.04  C 
BRANCH 20 21
ATOM     21  CG  LEU C   2      21.585 -18.127  32.894  1.00 47.78 LIG-0.02  C 
ATOM     22  CD2 LEU C   2      20.843 -18.627  34.088  1.00 53.75 LIG 0.01  C 
ATOM     23  CD1 LEU C   2      22.267 -16.802  33.205  1.00 57.03 LIG 0.01  C 
ENDBRANCH 20 21
ENDBRANCH 5 20
ENDBRANCH 3 5
BRANCH 1 24
ATOM     24  CA  TRP C   1      17.476 -17.000  29.152  1.00 30.44 LIG 0.28  C 
BRANCH 24 25
ATOM     25  N   TRP C   1      17.011 -17.517  27.843  1.00 30.96 LIG-0.07  N 
ATOM     26 H3   TRP C   1      17.234 -18.376  27.767  1.00 30.96 LIG 0.28  HD
ATOM     27 H1   TRP C   1      16.127 -17.433  27.787  1.00 30.96 LIG 0.28  HD
ATOM     28 H2   TRP C   1      17.394 -17.052  27.188  1.00 30.96 LIG 0.28  HD
ENDBRANCH 24 25
BRANCH 24 29
ATOM     29  CB  TRP C   1      16.487 -17.395  30.247  1.00 29.47 LIG 0.08  C 
BRANCH 29 30
ATOM     30  CG  TRP C   1      15.093 -17.049  29.975  1.00 32.35 LIG-0.03  A 
ATOM     31  CD1 TRP C   1      13.993 -17.871  30.069  1.00 34.00 LIG 0.10  A 
ATOM     32  NE1 TRP C   1      12.863 -17.185  29.714  1.00 34.62 LIG-0.36  N 
ATOM     33 HE1  TRP C   1      12.064 -17.504  29.715  1.00 34.62 LIG 0.17  HD
ATOM     34  CE2 TRP C   1      13.212 -15.910  29.357  1.00 29.50 LIG 0.04  A 
ATOM     35  CZ2 TRP C   1      12.419 -14.846  28.956  1.00 29.56 LIG 0.03  A 
ATOM     36  CD2 TRP C   1      14.612 -15.791  29.521  1.00 28.41 LIG-0.00  A 
ATOM     37  CH2 TRP C   1      13.040 -13.672  28.671  1.00 29.15 LIG 0.00  A 
ATOM     38  CZ3 TRP C   1      14.435 -13.526  28.819  1.00 29.71 LIG 0.00  A 
ATOM     39  CE3 TRP C   1      15.216 -14.572  29.236  1.00 28.71 LIG 0.01  A 
ENDBRANCH 29 30
ENDBRANCH 24 29
ENDBRANCH 1 24
TORSDOF 12
ENDMDL
MODEL 15
USER: ADFR SOLUTION from run 110
USER: SCORE 15.321705 LL:  -2.313 LR: -13.013 RR:   0.000 FEB:  -9.433
USER: RMSD 4.029168
USER: SEED 109
USER: STATUS no improvement in best in 9 clusters for 5 generations
USER: GENES 14
USER: genes 0 Translation |==|  0.51479 0.59302 0.41400
USER: genes 1 Rotation |==|  0.13709 0.68833 0.41023 0.77344
USER: genes 2 Torsion [C]-N--CA-[C] |==|  0.81738
USER: genes 3 Torsion [N]-CA--C-[N] |==|  0.40084
USER: genes 4 Torsion [C]-N--CA-[CB] |==|  0.16197
USER: genes 5 Torsion [N]-CA--CB-[CG] |==|  0.17457
USER: genes 6 Torsion [CA]-CB--CG-[CD2] |==|  0.81957
USER: genes 7 Torsion [N]-CA--C-[O] |==|  0.92343
USER: genes 8 Torsion [N]-CA--CB-[CG] |==|  0.80290
USER: genes 9 Torsion [CA]-CB--CG-[CD1] |==|  0.19776
USER: genes 10 Torsion [N]-C--CA-[N] |==|  0.16790
USER: genes 11 Torsion [C]-CA--N-[H3] |==|  0.11100
USER: genes 12 Torsion [C]-CA--CB-[CG] |==|  0.54691
USER: genes 13 Torsion [CA]-CB--CG-[CD2] |==|  0.85648
ROOT
ATOM      1  C   TRP C   1      18.810 -17.870  29.425  1.00 34.42 LIG 0.25  C 
ATOM      2 O    TRP C   1      18.919 -18.602  30.404  1.00 41.57 LIG-0.27  OA
ATOM      3  N   LEU C   2      19.771 -17.680  28.531  1.00 34.28 LIG-0.35  N 
ATOM      4 H    LEU C   2      19.627 -17.327  27.760  1.00 34.28 LIG 0.16  HD
ENDROOT
BRANCH 3 5
ATOM      5  CA  LEU C   2      21.173 -18.047  28.750  1.00 43.88 LIG 0.18  C 
BRANCH 5 6
ATOM      6  C   LEU C   2      21.881 -17.223  29.884  1.00 50.68 LIG 0.24  C 
ATOM      7 O    LEU C   2      21.655 -15.996  30.098  1.00 38.43 LIG-0.27  OA
ATOM      8  N   PHE C   3      22.767 -17.890  30.619  1.00 52.67 LIG-0.35  N 
ATOM      9 H    PHE C   3      22.961 -18.721  30.514  1.00 52.67 LIG 0.16  HD
BRANCH 8 10
ATOM     10  CA  PHE C   3      23.494 -17.215  31.698  1.00 63.47 LIG 0.17  C 
BRANCH 10 11
ATOM     11  CB  PHE C   3      22.528 -16.624  32.734  1.00 59.49 LIG 0.07  C 
BRANCH 11 12
ATOM     12  CG  PHE C   3      21.696 -17.660  33.441  0.00 60.89 LIG-0.06  A 
ATOM     13  CD1 PHE C   3      21.847 -17.879  34.798  0.00 60.45 LIG 0.01  A 
ATOM     14  CE1 PHE C   3      21.094 -18.844  35.447  0.00 60.97 LIG 0.00  A 
ATOM     15  CZ  PHE C   3      20.176 -19.586  34.750  0.00 59.40 LIG 0.00  A 
ATOM     16  CE2 PHE C   3      20.011 -19.379  33.400  0.00 59.26 LIG 0.00  A 
ATOM     17  CD2 PHE C   3      20.769 -18.421  32.748  0.00 60.74 LIG 0.01  A 
ENDBRANCH 11 12
ENDBRANCH 10 11
BRANCH 10 18
ATOM     18  C   PHE C   3      24.506 -18.148  32.381  1.00 72.73 LIG 0.22  C 
ATOM     19 O    PHE C   3      24.338 -19.370  32.412  1.00 72.69 LIG-0.29  OA
ENDBRANCH 10 18
ENDBRANCH 8 10
ENDBRANCH 5 6
BRANCH 5 20
ATOM     20  CB  LEU C   2      21.903 -17.879  27.417  1.00 36.13 LIG 0.04  C 
BRANCH 20 21
ATOM     21  CG  LEU C   2      21.629 -18.855  26.282  1.00 47.78 LIG-0.02  C 
ATOM     22  CD2 LEU C   2      22.670 -18.678  25.228  1.00 53.75 LIG 0.01  C 
ATOM     23  CD1 LEU C   2      20.238 -18.629  25.703  1.00 57.03 LIG 0.01  C 
ENDBRANCH 20 21
ENDBRANCH 5 20
ENDBRANCH 3 5
BRANCH 1 24
ATOM     24  CA  TRP C   1      17.544 -17.100  29.154  1.00 30.44 LIG 0.28  C 
BRANCH 24 25
ATOM     25  N   TRP C   1      16.982 -17.504  27.844  1.00 30.96 LIG-0.07  N 
ATOM     26 H3   TRP C   1      17.069 -18.384  27.742  1.00 30.96 LIG 0.28  HD
ATOM     27 H1   TRP C   1      16.120 -17.286  27.810  1.00 30.96 LIG 0.28  HD
ATOM     28 H2   TRP C   1      17.419 -17.085  27.192  1.00 30.96 LIG 0.28  HD
ENDBRANCH 24 25
BRANCH 24 29
ATOM     29  CB  TRP C   1      16.542 -17.406  30.266  1.00 29.47 LIG 0.08  C 
BRANCH 29 30
ATOM     30  CG  TRP C   1      15.155 -17.056  29.961  1.00 32.35 LIG-0.03  A 
ATOM     31  CD1 TRP C   1      14.052 -17.875  30.035  1.00 34.00 LIG 0.10  A 
ATOM     32  NE1 TRP C   1      12.932 -17.188  29.652  1.00 34.62 LIG-0.36  N 
ATOM     33 HE1  TRP C   1      12.132 -17.504  29.637  1.00 34.62 LIG 0.17  HD
ATOM     34  CE2 TRP C   1      13.292 -15.915  29.295  1.00 29.50 LIG 0.04  A 
ATOM     35  CZ2 TRP C   1      12.511 -14.852  28.872  1.00 29.56 LIG 0.03  A 
ATOM     36  CD2 TRP C   1      14.688 -15.800  29.490  1.00 28.41 LIG-0.00  A 
ATOM     37  CH2 TRP C   1      13.142 -13.681  28.594  1.00 29.15 LIG 0.00  A 
ATOM     38  CZ3 TRP C   1      14.534 -13.538  28.772  1.00 29.71 LIG 0.00  A 
ATOM     39  CE3 TRP C   1      15.302 -14.584  29.212  1.00 28.71 LIG 0.01  A 
ENDBRANCH 29 30
ENDBRANCH 24 29
ENDBRANCH 1 24
TORSDOF 12
ENDMDL
MODEL 16
USER: ADFR SOLUTION from run 118
USER: SCORE 14.951526 LL:  -2.353 LR: -13.001 RR:   0.000 FEB:  -9.421
USER: RMSD 2.556652
USER: SEED 117
USER: STATUS no improvement in best in 7 clusters for 5 generations
USER: GENES 14
USER: genes 0 Translation |==|  0.54711 0.60594 0.38542
USER: genes 1 Rotation |==|  0.42484 0.44396 0.47160 0.99031
USER: genes 2 Torsion [C]-N--CA-[C] |==|  0.78330
USER: genes 3 Torsion [N]-CA--C-[N] |==|  0.52730
USER: genes 4 Torsion [C]-N--CA-[CB] |==|  0.32279
USER: genes 5 Torsion [N]-CA--CB-[CG] |==|  0.80936
USER: genes 6 Torsion [CA]-CB--CG-[CD2] |==|  0.69405
USER: genes 7 Torsion [N]-CA--C-[O] |==|  0.36795
USER: genes 8 Torsion [N]-CA--CB-[CG] |==|  0.58466
USER: genes 9 Torsion [CA]-CB--CG-[CD1] |==|  0.27888
USER: genes 10 Torsion [N]-C--CA-[N] |==|  0.49400
USER: genes 11 Torsion [C]-CA--N-[H3] |==|  0.52958
USER: genes 12 Torsion [C]-CA--CB-[CG] |==|  0.38979
USER: genes 13 Torsion [CA]-CB--CG-[CD2] |==|  0.37558
ROOT
ATOM      1  C   TRP C   1      19.465 -17.609  28.953  1.00 34.42 LIG 0.25  C 
ATOM      2 O    TRP C   1      19.941 -18.689  28.620  1.00 41.57 LIG-0.27  OA
ATOM      3  N   LEU C   2      19.916 -16.879  29.965  1.00 34.28 LIG-0.35  N 
ATOM      4 H    LEU C   2      19.709 -16.051  30.071  1.00 34.28 LIG 0.16  HD
ENDROOT
BRANCH 3 5
ATOM      5  CA  LEU C   2      20.811 -17.394  31.005  1.00 43.88 LIG 0.18  C 
BRANCH 5 6
ATOM      6  C   LEU C   2      20.092 -18.265  32.097  1.00 50.68 LIG 0.24  C 
ATOM      7 O    LEU C   2      18.888 -18.644  32.002  1.00 38.43 LIG-0.27  OA
ATOM      8  N   PHE C   3      20.824 -18.580  33.162  1.00 52.67 LIG-0.35  N 
ATOM      9 H    PHE C   3      21.644 -18.346  33.278  1.00 52.67 LIG 0.16  HD
BRANCH 8 10
ATOM     10  CA  PHE C   3      20.248 -19.381  34.246  1.00 63.47 LIG 0.17  C 
BRANCH 10 11
ATOM     11  CB  PHE C   3      20.969 -20.729  34.383  1.00 59.49 LIG 0.07  C 
BRANCH 11 12
ATOM     12  CG  PHE C   3      20.728 -21.662  33.227  0.00 60.89 LIG-0.06  A 
ATOM     13  CD1 PHE C   3      21.258 -21.391  31.979  0.00 60.45 LIG 0.01  A 
ATOM     14  CE1 PHE C   3      21.022 -22.239  30.910  0.00 60.97 LIG 0.00  A 
ATOM     15  CZ  PHE C   3      20.268 -23.371  31.083  0.00 59.40 LIG 0.00  A 
ATOM     16  CE2 PHE C   3      19.735 -23.658  32.318  0.00 59.26 LIG 0.00  A 
ATOM     17  CD2 PHE C   3      19.963 -22.806  33.385  0.00 60.74 LIG 0.01  A 
ENDBRANCH 11 12
ENDBRANCH 10 11
BRANCH 10 18
ATOM     18  C   PHE C   3      20.261 -18.629  35.586  1.00 72.73 LIG 0.22  C 
ATOM     19 O    PHE C   3      19.261 -18.580  36.307  1.00 72.69 LIG-0.29  OA
ENDBRANCH 10 18
ENDBRANCH 8 10
ENDBRANCH 5 6
BRANCH 5 20
ATOM     20  CB  LEU C   2      21.512 -16.192  31.640  1.00 36.13 LIG 0.04  C 
BRANCH 20 21
ATOM     21  CG  LEU C   2      22.917 -16.352  32.202  1.00 47.78 LIG-0.02  C 
ATOM     22  CD2 LEU C   2      23.004 -15.629  33.504  1.00 53.75 LIG 0.01  C 
ATOM     23  CD1 LEU C   2      23.951 -15.814  31.222  1.00 57.03 LIG 0.01  C 
ENDBRANCH 20 21
ENDBRANCH 5 20
ENDBRANCH 3 5
BRANCH 1 24
ATOM     24  CA  TRP C   1      18.290 -17.008  28.226  1.00 30.44 LIG 0.28  C 
BRANCH 24 25
ATOM     25  N   TRP C   1      17.906 -17.879  27.090  1.00 30.96 LIG-0.07  N 
ATOM     26 H3   TRP C   1      17.319 -17.452  26.574  1.00 30.96 LIG 0.28  HD
ATOM     27 H1   TRP C   1      18.629 -18.081  26.612  1.00 30.96 LIG 0.28  HD
ATOM     28 H2   TRP C   1      17.538 -18.628  27.401  1.00 30.96 LIG 0.28  HD
ENDBRANCH 24 25
BRANCH 24 29
ATOM     29  CB  TRP C   1      17.124 -16.886  29.205  1.00 29.47 LIG 0.08  C 
BRANCH 29 30
ATOM     30  CG  TRP C   1      16.336 -15.661  29.078  1.00 32.35 LIG-0.03  A 
ATOM     31  CD1 TRP C   1      16.807 -14.372  28.969  1.00 34.00 LIG 0.10  A 
ATOM     32  NE1 TRP C   1      15.759 -13.495  28.889  1.00 34.62 LIG-0.36  N 
ATOM     33 HE1  TRP C   1      15.827 -12.642  28.801  1.00 34.62 LIG 0.17  HD
ATOM     34  CE2 TRP C   1      14.586 -14.197  28.971  1.00 29.50 LIG 0.04  A 
ATOM     35  CZ2 TRP C   1      13.275 -13.754  28.908  1.00 29.56 LIG 0.03  A 
ATOM     36  CD2 TRP C   1      14.919 -15.567  29.081  1.00 28.41 LIG-0.00  A 
ATOM     37  CH2 TRP C   1      12.291 -14.686  29.005  1.00 29.15 LIG 0.00  A 
ATOM     38  CZ3 TRP C   1      12.592 -16.059  29.123  1.00 29.71 LIG 0.00  A 
ATOM     39  CE3 TRP C   1      13.889 -16.499  29.164  1.00 28.71 LIG 0.01  A 
ENDBRANCH 29 30
ENDBRANCH 24 29
ENDBRANCH 1 24
TORSDOF 12
ENDMDL
MODEL 17
USER: ADFR SOLUTION from run 53
USER: SCORE 14.777595 LL:  -2.000 LR: -12.864 RR:   0.000 FEB:  -9.284
USER: RMSD 1.521870
USER: SEED 52
USER: STATUS no improvement in best in 4 clusters for 5 generations
USER: GENES 14
USER: genes 0 Translation |==|  0.53582 0.60469 0.40334
USER: genes 1 Rotation |==|  0.49295 0.48544 0.50213 0.99973
USER: genes 2 Torsion [C]-N--CA-[C] |==|  0.75566
USER: genes 3 Torsion [N]-CA--C-[N] |==|  0.46242
USER: genes 4 Torsion [C]-N--CA-[CB] |==|  0.49119
USER: genes 5 Torsion [N]-CA--CB-[CG] |==|  0.66842
USER: genes 6 Torsion [CA]-CB--CG-[CD2] |==|  0.82143
USER: genes 7 Torsion [N]-CA--C-[O] |==|  0.30346
USER: genes 8 Torsion [N]-CA--CB-[CG] |==|  0.74419
USER: genes 9 Torsion [CA]-CB--CG-[CD1] |==|  0.57845
USER: genes 10 Torsion [N]-C--CA-[N] |==|  0.45973
USER: genes 11 Torsion [C]-CA--N-[H3] |==|  0.17511
USER: genes 12 Torsion [C]-CA--CB-[CG] |==|  0.51694
USER: genes 13 Torsion [CA]-CB--CG-[CD2] |==|  0.87013
ROOT
ATOM      1  C   TRP C   1      19.236 -17.634  29.249  1.00 34.42 LIG 0.25  C 
ATOM      2 O    TRP C   1      19.751 -18.511  28.563  1.00 41.57 LIG-0.27  OA
ATOM      3  N   LEU C   2      19.789 -17.126  30.342  1.00 34.28 LIG-0.35  N 
ATOM      4 H    LEU C   2      19.521 -16.393  30.703  1.00 34.28 LIG 0.16  HD
ENDROOT
BRANCH 3 5
ATOM      5  CA  LEU C   2      20.908 -17.750  31.054  1.00 43.88 LIG 0.18  C 
BRANCH 5 6
ATOM      6  C   LEU C   2      20.474 -18.798  32.141  1.00 50.68 LIG 0.24  C 
ATOM      7 O    LEU C   2      19.290 -18.901  32.574  1.00 38.43 LIG-0.27  OA
ATOM      8  N   PHE C   3      21.441 -19.583  32.608  1.00 52.67 LIG-0.35  N 
ATOM      9 H    PHE C   3      22.262 -19.553  32.352  1.00 52.67 LIG 0.16  HD
BRANCH 8 10
ATOM     10  CA  PHE C   3      21.148 -20.590  33.633  1.00 63.47 LIG 0.17  C 
BRANCH 10 11
ATOM     11  CB  PHE C   3      22.393 -21.426  33.960  1.00 59.49 LIG 0.07  C 
BRANCH 11 12
ATOM     12  CG  PHE C   3      22.222 -22.895  33.682  0.00 60.89 LIG-0.06  A 
ATOM     13  CD1 PHE C   3      22.979 -23.521  32.709  0.00 60.45 LIG 0.01  A 
ATOM     14  CE1 PHE C   3      22.811 -24.870  32.440  0.00 60.97 LIG 0.00  A 
ATOM     15  CZ  PHE C   3      21.897 -25.605  33.149  0.00 59.40 LIG 0.00  A 
ATOM     16  CE2 PHE C   3      21.137 -24.998  34.122  0.00 59.26 LIG 0.00  A 
ATOM     17  CD2 PHE C   3      21.298 -23.649  34.386  0.00 60.74 LIG 0.01  A 
ENDBRANCH 11 12
ENDBRANCH 10 11
BRANCH 10 18
ATOM     18  C   PHE C   3      20.575 -19.959  34.911  1.00 72.73 LIG 0.22  C 
ATOM     19 O    PHE C   3      19.393 -20.110  35.230  1.00 72.69 LIG-0.29  OA
ENDBRANCH 10 18
ENDBRANCH 8 10
ENDBRANCH 5 6
BRANCH 5 20
ATOM     20  CB  LEU C   2      21.734 -16.625  31.680  1.00 36.13 LIG 0.04  C 
BRANCH 20 21
ATOM     21  CG  LEU C   2      22.907 -16.035  30.910  1.00 47.78 LIG-0.02  C 
ATOM     22  CD2 LEU C   2      23.487 -17.089  30.028  1.00 53.75 LIG 0.01  C 
ATOM     23  CD1 LEU C   2      23.963 -15.498  31.867  1.00 57.03 LIG 0.01  C 
ENDBRANCH 20 21
ENDBRANCH 5 20
ENDBRANCH 3 5
BRANCH 1 24
ATOM     24  CA  TRP C   1      17.892 -17.050  28.901  1.00 30.44 LIG 0.28  C 
BRANCH 24 25
ATOM     25  N   TRP C   1      17.531 -17.417  27.511  1.00 30.96 LIG-0.07  N 
ATOM     26 H3   TRP C   1      17.452 -18.302  27.448  1.00 30.96 LIG 0.28  HD
ATOM     27 H1   TRP C   1      16.758 -17.034  27.293  1.00 30.96 LIG 0.28  HD
ATOM     28 H2   TRP C   1      18.168 -17.136  26.955  1.00 30.96 LIG 0.28  HD
ENDBRANCH 24 25
BRANCH 24 29
ATOM     29  CB  TRP C   1      16.853 -17.609  29.871  1.00 29.47 LIG 0.08  C 
BRANCH 29 30
ATOM     30  CG  TRP C   1      15.469 -17.241  29.573  1.00 32.35 LIG-0.03  A 
ATOM     31  CD1 TRP C   1      14.378 -18.077  29.510  1.00 34.00 LIG 0.10  A 
ATOM     32  NE1 TRP C   1      13.257 -17.362  29.186  1.00 34.62 LIG-0.36  N 
ATOM     33 HE1  TRP C   1      12.463 -17.684  29.107  1.00 34.62 LIG 0.17  HD
ATOM     34  CE2 TRP C   1      13.605 -16.049  29.005  1.00 29.50 LIG 0.04  A 
ATOM     35  CZ2 TRP C   1      12.818 -14.951  28.699  1.00 29.56 LIG 0.03  A 
ATOM     36  CD2 TRP C   1      14.994 -15.942  29.253  1.00 28.41 LIG-0.00  A 
ATOM     37  CH2 TRP C   1      13.436 -13.746  28.591  1.00 29.15 LIG 0.00  A 
ATOM     38  CZ3 TRP C   1      14.820 -13.609  28.826  1.00 29.71 LIG 0.00  A 
ATOM     39  CE3 TRP C   1      15.594 -14.692  29.151  1.00 28.71 LIG 0.01  A 
ENDBRANCH 29 30
ENDBRANCH 24 29
ENDBRANCH 1 24
TORSDOF 12
ENDMDL
MODEL 18
USER: ADFR SOLUTION from run 163
USER: SCORE 14.905684 LL:  -2.722 LR: -12.784 RR:   0.000 FEB:  -9.204
USER: RMSD 4.750755
USER: SEED 162
USER: STATUS no improvement in best in 8 clusters for 5 generations
USER: GENES 14
USER: genes 0 Translation |==|  0.52058 0.61234 0.41173
USER: genes 1 Rotation |==|  0.61913 0.41552 0.57260 0.97265
USER: genes 2 Torsion [C]-N--CA-[C] |==|  0.14514
USER: genes 3 Torsion [N]-CA--C-[N] |==|  0.62222
USER: genes 4 Torsion [C]-N--CA-[CB] |==|  0.81312
USER: genes 5 Torsion [N]-CA--CB-[CG] |==|  0.89526
USER: genes 6 Torsion [CA]-CB--CG-[CD2] |==|  0.91183
USER: genes 7 Torsion [N]-CA--C-[O] |==|  0.72022
USER: genes 8 Torsion [N]-CA--CB-[CG] |==|  0.62992
USER: genes 9 Torsion [CA]-CB--CG-[CD1] |==|  0.65820
USER: genes 10 Torsion [N]-C--CA-[N] |==|  0.54419
USER: genes 11 Torsion [C]-CA--N-[H3] |==|  0.18504
USER: genes 12 Torsion [C]-CA--CB-[CG] |==|  0.46036
USER: genes 13 Torsion [CA]-CB--CG-[CD2] |==|  0.92164
ROOT
ATOM      1  C   TRP C   1      18.928 -17.479  29.388  1.00 34.42 LIG 0.25  C 
ATOM      2 O    TRP C   1      19.838 -17.747  28.610  1.00 41.57 LIG-0.27  OA
ATOM      3  N   LEU C   2      19.050 -17.496  30.708  1.00 34.28 LIG-0.35  N 
ATOM      4 H    LEU C   2      18.477 -17.129  31.234  1.00 34.28 LIG 0.16  HD
ENDROOT
BRANCH 3 5
ATOM      5  CA  LEU C   2      20.163 -18.136  31.414  1.00 43.88 LIG 0.18  C 
BRANCH 5 6
ATOM      6  C   LEU C   2      21.583 -17.688  30.914  1.00 50.68 LIG 0.24  C 
ATOM      7 O    LEU C   2      21.884 -16.486  30.660  1.00 38.43 LIG-0.27  OA
ATOM      8  N   PHE C   3      22.474 -18.663  30.749  1.00 52.67 LIG-0.35  N 
ATOM      9 H    PHE C   3      22.322 -19.495  30.903  1.00 52.67 LIG 0.16  HD
BRANCH 8 10
ATOM     10  CA  PHE C   3      23.828 -18.358  30.276  1.00 63.47 LIG 0.17  C 
BRANCH 10 11
ATOM     11  CB  PHE C   3      23.809 -17.862  28.824  1.00 59.49 LIG 0.07  C 
BRANCH 11 12
ATOM     12  CG  PHE C   3      22.800 -18.568  27.959  0.00 60.89 LIG-0.06  A 
ATOM     13  CD1 PHE C   3      22.174 -17.903  26.920  0.00 60.45 LIG 0.01  A 
ATOM     14  CE1 PHE C   3      21.232 -18.547  26.134  0.00 60.97 LIG 0.00  A 
ATOM     15  CZ  PHE C   3      20.920 -19.861  26.370  0.00 59.40 LIG 0.00  A 
ATOM     16  CE2 PHE C   3      21.536 -20.538  27.397  0.00 59.26 LIG 0.00  A 
ATOM     17  CD2 PHE C   3      22.471 -19.893  28.189  0.00 60.74 LIG 0.01  A 
ENDBRANCH 11 12
ENDBRANCH 10 11
BRANCH 10 18
ATOM     18  C   PHE C   3      24.537 -17.339  31.181  1.00 72.73 LIG 0.22  C 
ATOM     19 O    PHE C   3      24.618 -16.147  30.871  1.00 72.69 LIG-0.29  OA
ENDBRANCH 10 18
ENDBRANCH 8 10
ENDBRANCH 5 6
BRANCH 5 20
ATOM     20  CB  LEU C   2      19.986 -19.649  31.270  1.00 36.13 LIG 0.04  C 
BRANCH 20 21
ATOM     21  CG  LEU C   2      20.130 -20.543  32.493  1.00 47.78 LIG-0.02  C 
ATOM     22  CD2 LEU C   2      20.471 -19.696  33.674  1.00 53.75 LIG 0.01  C 
ATOM     23  CD1 LEU C   2      21.204 -21.598  32.264  1.00 57.03 LIG 0.01  C 
ENDBRANCH 20 21
ENDBRANCH 5 20
ENDBRANCH 3 5
BRANCH 1 24
ATOM     24  CA  TRP C   1      17.554 -17.106  28.893  1.00 30.44 LIG 0.28  C 
BRANCH 24 25
ATOM     25  N   TRP C   1      17.417 -17.483  27.466  1.00 30.96 LIG-0.07  N 
ATOM     26 H3   TRP C   1      17.437 -18.370  27.390  1.00 30.96 LIG 0.28  HD
ATOM     27 H1   TRP C   1      16.643 -17.176  27.151  1.00 30.96 LIG 0.28  HD
ATOM     28 H2   TRP C   1      18.087 -17.129  27.000  1.00 30.96 LIG 0.28  HD
ENDBRANCH 24 25
BRANCH 24 29
ATOM     29  CB  TRP C   1      16.517 -17.852  29.729  1.00 29.47 LIG 0.08  C 
BRANCH 29 30
ATOM     30  CG  TRP C   1      15.146 -17.359  29.598  1.00 32.35 LIG-0.03  A 
ATOM     31  CD1 TRP C   1      13.983 -18.083  29.719  1.00 34.00 LIG 0.10  A 
ATOM     32  NE1 TRP C   1      12.901 -17.271  29.510  1.00 34.62 LIG-0.36  N 
ATOM     33 HE1  TRP C   1      12.077 -17.515  29.551  1.00 34.62 LIG 0.17  HD
ATOM     34  CE2 TRP C   1      13.344 -16.007  29.222  1.00 29.50 LIG 0.04  A 
ATOM     35  CZ2 TRP C   1      12.631 -14.847  28.969  1.00 29.56 LIG 0.03  A 
ATOM     36  CD2 TRP C   1      14.757 -16.030  29.281  1.00 28.41 LIG-0.00  A 
ATOM     37  CH2 TRP C   1      13.339 -13.714  28.723  1.00 29.15 LIG 0.00  A 
ATOM     38  CZ3 TRP C   1      14.749 -13.708  28.768  1.00 29.71 LIG 0.00  A 
ATOM     39  CE3 TRP C   1      15.454 -14.851  29.040  1.00 28.71 LIG 0.01  A 
ENDBRANCH 29 30
ENDBRANCH 24 29
ENDBRANCH 1 24
TORSDOF 12
ENDMDL
MODEL 19
USER: ADFR SOLUTION from run 27
USER: SCORE 15.290906 LL:  -2.710 LR: -12.658 RR:   0.000 FEB:  -9.078
USER: RMSD 4.299033
USER: SEED 26
USER: STATUS no improvement in best in 8 clusters for 5 generations
USER: GENES 14
USER: genes 0 Translation |==|  0.53699 0.63711 0.39071
USER: genes 1 Rotation |==|  0.67615 0.43205 0.60335 0.95130
USER: genes 2 Torsion [C]-N--CA-[C] |==|  0.79167
USER: genes 3 Torsion [N]-CA--C-[N] |==|  0.99209
USER: genes 4 Torsion [C]-N--CA-[CB] |==|  0.81509
USER: genes 5 Torsion [N]-CA--CB-[CG] |==|  0.92435
USER: genes 6 Torsion [CA]-CB--CG-[CD2] |==|  0.81597
USER: genes 7 Torsion [N]-CA--C-[O] |==|  0.44485
USER: genes 8 Torsion [N]-CA--CB-[CG] |==|  0.57350
USER: genes 9 Torsion [CA]-CB--CG-[CD1] |==|  0.25108
USER: genes 10 Torsion [N]-C--CA-[N] |==|  0.60838
USER: genes 11 Torsion [C]-CA--N-[H3] |==|  0.85870
USER: genes 12 Torsion [C]-CA--CB-[CG] |==|  0.48245
USER: genes 13 Torsion [CA]-CB--CG-[CD2] |==|  0.88107
ROOT
ATOM      1  C   TRP C   1      19.260 -16.978  29.041  1.00 34.42 LIG 0.25  C 
ATOM      2 O    TRP C   1      20.146 -16.911  28.195  1.00 41.57 LIG-0.27  OA
ATOM      3  N   LEU C   2      19.476 -17.234  30.324  1.00 34.28 LIG-0.35  N 
ATOM      4 H    LEU C   2      18.886 -17.091  30.933  1.00 34.28 LIG 0.16  HD
ENDROOT
BRANCH 3 5
ATOM      5  CA  LEU C   2      20.731 -17.782  30.845  1.00 43.88 LIG 0.18  C 
BRANCH 5 6
ATOM      6  C   LEU C   2      20.931 -19.313  30.555  1.00 50.68 LIG 0.24  C 
ATOM      7 O    LEU C   2      21.980 -19.949  30.867  1.00 38.43 LIG-0.27  OA
ATOM      8  N   PHE C   3      19.924 -19.922  29.935  1.00 52.67 LIG-0.35  N 
ATOM      9 H    PHE C   3      19.192 -19.538  29.698  1.00 52.67 LIG 0.16  HD
BRANCH 8 10
ATOM     10  CA  PHE C   3      20.010 -21.349  29.607  1.00 63.47 LIG 0.17  C 
BRANCH 10 11
ATOM     11  CB  PHE C   3      21.095 -21.612  28.554  1.00 59.49 LIG 0.07  C 
BRANCH 11 12
ATOM     12  CG  PHE C   3      21.355 -20.437  27.650  0.00 60.89 LIG-0.06  A 
ATOM     13  CD1 PHE C   3      22.566 -19.770  27.691  0.00 60.45 LIG 0.01  A 
ATOM     14  CE1 PHE C   3      22.800 -18.678  26.872  0.00 60.97 LIG 0.00  A 
ATOM     15  CZ  PHE C   3      21.834 -18.254  25.996  0.00 59.40 LIG 0.00  A 
ATOM     16  CE2 PHE C   3      20.625 -18.908  25.940  0.00 59.26 LIG 0.00  A 
ATOM     17  CD2 PHE C   3      20.386 -19.994  26.765  0.00 60.74 LIG 0.01  A 
ENDBRANCH 11 12
ENDBRANCH 10 11
BRANCH 10 18
ATOM     18  C   PHE C   3      20.253 -22.212  30.854  1.00 72.73 LIG 0.22  C 
ATOM     19 O    PHE C   3      20.002 -23.420  30.862  1.00 72.69 LIG-0.29  OA
ENDBRANCH 10 18
ENDBRANCH 8 10
ENDBRANCH 5 6
BRANCH 5 20
ATOM     20  CB  LEU C   2      20.761 -17.504  32.349  1.00 36.13 LIG 0.04  C 
BRANCH 20 21
ATOM     21  CG  LEU C   2      22.100 -17.383  33.063  1.00 47.78 LIG-0.02  C 
ATOM     22  CD2 LEU C   2      21.950 -17.886  34.460  1.00 53.75 LIG 0.01  C 
ATOM     23  CD1 LEU C   2      22.580 -15.938  33.064  1.00 57.03 LIG 0.01  C 
ENDBRANCH 20 21
ENDBRANCH 5 20
ENDBRANCH 3 5
BRANCH 1 24
ATOM     24  CA  TRP C   1      17.811 -16.776  28.680  1.00 30.44 LIG 0.28  C 
BRANCH 24 25
ATOM     25  N   TRP C   1      17.530 -17.405  27.367  1.00 30.96 LIG-0.07  N 
ATOM     26 H3   TRP C   1      18.131 -17.130  26.771  1.00 30.96 LIG 0.28  HD
ATOM     27 H1   TRP C   1      17.575 -18.291  27.446  1.00 30.96 LIG 0.28  HD
ATOM     28 H2   TRP C   1      16.715 -17.173  27.096  1.00 30.96 LIG 0.28  HD
ENDBRANCH 24 25
BRANCH 24 29
ATOM     29  CB  TRP C   1      16.947 -17.422  29.761  1.00 29.47 LIG 0.08  C 
BRANCH 29 30
ATOM     30  CG  TRP C   1      15.510 -17.185  29.626  1.00 32.35 LIG-0.03  A 
ATOM     31  CD1 TRP C   1      14.495 -18.105  29.759  1.00 34.00 LIG 0.10  A 
ATOM     32  NE1 TRP C   1      13.285 -17.503  29.542  1.00 34.62 LIG-0.36  N 
ATOM     33 HE1  TRP C   1      12.518 -17.891  29.589  1.00 34.62 LIG 0.17  HD
ATOM     34  CE2 TRP C   1      13.493 -16.184  29.236  1.00 29.50 LIG 0.04  A 
ATOM     35  CZ2 TRP C   1      12.583 -15.175  28.969  1.00 29.56 LIG 0.03  A 
ATOM     36  CD2 TRP C   1      14.888 -15.952  29.292  1.00 28.41 LIG-0.00  A 
ATOM     37  CH2 TRP C   1      13.077 -13.936  28.706  1.00 29.15 LIG 0.00  A 
ATOM     38  CZ3 TRP C   1      14.462 -13.677  28.747  1.00 29.71 LIG 0.00  A 
ATOM     39  CE3 TRP C   1      15.361 -14.670  29.033  1.00 28.71 LIG 0.01  A 
ENDBRANCH 29 30
ENDBRANCH 24 29
ENDBRANCH 1 24
TORSDOF 12
ENDMDL
MODEL 20
USER: ADFR SOLUTION from run 186
USER: SCORE 14.973020 LL:  -2.407 LR: -12.634 RR:   0.000 FEB:  -9.054
USER: RMSD 6.005591
USER: SEED 185
USER: STATUS no improvement in best in 10 clusters for 5 generations
USER: GENES 14
USER: genes 0 Translation |==|  0.52049 0.58642 0.41522
USER: genes 1 Rotation |==|  0.14610 0.66576 0.40717 0.79777
USER: genes 2 Torsion [C]-N--CA-[C] |==|  0.79444
USER: genes 3 Torsion [N]-CA--C-[N] |==|  0.46649
USER: genes 4 Torsion [C]-N--CA-[CB] |==|  0.82708
USER: genes 5 Torsion [N]-CA--CB-[CG] |==|  0.83489
USER: genes 6 Torsion [CA]-CB--CG-[CD2] |==|  0.96328
USER: genes 7 Torsion [N]-CA--C-[O] |==|  0.71294
USER: genes 8 Torsion [N]-CA--CB-[CG] |==|  0.51451
USER: genes 9 Torsion [CA]-CB--CG-[CD1] |==|  0.15195
USER: genes 10 Torsion [N]-C--CA-[N] |==|  0.14754
USER: genes 11 Torsion [C]-CA--N-[H3] |==|  0.15474
USER: genes 12 Torsion [C]-CA--CB-[CG] |==|  0.51537
USER: genes 13 Torsion [CA]-CB--CG-[CD2] |==|  0.88861
ROOT
ATOM      1  C   TRP C   1      18.926 -18.004  29.445  1.00 34.42 LIG 0.25  C 
ATOM      2 O    TRP C   1      18.985 -18.797  30.379  1.00 41.57 LIG-0.27  OA
ATOM      3  N   LEU C   2      19.956 -17.693  28.669  1.00 34.28 LIG-0.35  N 
ATOM      4 H    LEU C   2      19.865 -17.294  27.913  1.00 34.28 LIG 0.16  HD
ENDROOT
BRANCH 3 5
ATOM      5  CA  LEU C   2      21.350 -17.991  29.008  1.00 43.88 LIG 0.18  C 
BRANCH 5 6
ATOM      6  C   LEU C   2      21.950 -17.067  30.127  1.00 50.68 LIG 0.24  C 
ATOM      7 O    LEU C   2      21.390 -16.005  30.527  1.00 38.43 LIG-0.27  OA
ATOM      8  N   PHE C   3      23.115 -17.457  30.638  1.00 52.67 LIG-0.35  N 
ATOM      9 H    PHE C   3      23.539 -18.167  30.401  1.00 52.67 LIG 0.16  HD
BRANCH 8 10
ATOM     10  CA  PHE C   3      23.770 -16.663  31.682  1.00 63.47 LIG 0.17  C 
BRANCH 10 11
ATOM     11  CB  PHE C   3      24.127 -15.261  31.171  1.00 59.49 LIG 0.07  C 
BRANCH 11 12
ATOM     12  CG  PHE C   3      25.054 -15.270  29.985  0.00 60.89 LIG-0.06  A 
ATOM     13  CD1 PHE C   3      25.249 -14.126  29.234  0.00 60.45 LIG 0.01  A 
ATOM     14  CE1 PHE C   3      26.088 -14.138  28.131  0.00 60.97 LIG 0.00  A 
ATOM     15  CZ  PHE C   3      26.749 -15.287  27.781  0.00 59.40 LIG 0.00  A 
ATOM     16  CE2 PHE C   3      26.568 -16.434  28.518  0.00 59.26 LIG 0.00  A 
ATOM     17  CD2 PHE C   3      25.722 -16.425  29.615  0.00 60.74 LIG 0.01  A 
ENDBRANCH 11 12
ENDBRANCH 10 11
BRANCH 10 18
ATOM     18  C   PHE C   3      22.912 -16.566  32.954  1.00 72.73 LIG 0.22  C 
ATOM     19 O    PHE C   3      22.278 -15.544  33.228  1.00 72.69 LIG-0.29  OA
ENDBRANCH 10 18
ENDBRANCH 8 10
ENDBRANCH 5 6
BRANCH 5 20
ATOM     20  CB  LEU C   2      22.165 -17.885  27.718  1.00 36.13 LIG 0.04  C 
BRANCH 20 21
ATOM     21  CG  LEU C   2      23.641 -18.260  27.729  1.00 47.78 LIG-0.02  C 
ATOM     22  CD2 LEU C   2      24.178 -18.153  26.341  1.00 53.75 LIG 0.01  C 
ATOM     23  CD1 LEU C   2      23.832 -19.671  28.270  1.00 57.03 LIG 0.01  C 
ENDBRANCH 20 21
ENDBRANCH 5 20
ENDBRANCH 3 5
BRANCH 1 24
ATOM     24  CA  TRP C   1      17.645 -17.292  29.097  1.00 30.44 LIG 0.28  C 
BRANCH 24 25
ATOM     25  N   TRP C   1      17.336 -17.489  27.661  1.00 30.96 LIG-0.07  N 
ATOM     26 H3   TRP C   1      17.306 -18.361  27.480  1.00 30.96 LIG 0.28  HD
ATOM     27 H1   TRP C   1      16.548 -17.121  27.472  1.00 30.96 LIG 0.28  HD
ATOM     28 H2   TRP C   1      17.969 -17.105  27.166  1.00 30.96 LIG 0.28  HD
ENDBRANCH 24 25
BRANCH 24 29
ATOM     29  CB  TRP C   1      16.520 -17.869  29.954  1.00 29.47 LIG 0.08  C 
BRANCH 29 30
ATOM     30  CG  TRP C   1      15.183 -17.365  29.640  1.00 32.35 LIG-0.03  A 
ATOM     31  CD1 TRP C   1      14.014 -18.087  29.561  1.00 34.00 LIG 0.10  A 
ATOM     32  NE1 TRP C   1      12.975 -17.263  29.225  1.00 34.62 LIG-0.36  N 
ATOM     33 HE1  TRP C   1      12.154 -17.504  29.136  1.00 34.62 LIG 0.17  HD
ATOM     34  CE2 TRP C   1      13.455 -15.991  29.052  1.00 29.50 LIG 0.04  A 
ATOM     35  CZ2 TRP C   1      12.786 -14.820  28.739  1.00 29.56 LIG 0.03  A 
ATOM     36  CD2 TRP C   1      14.844 -16.024  29.317  1.00 28.41 LIG-0.00  A 
ATOM     37  CH2 TRP C   1      13.522 -13.682  28.642  1.00 29.15 LIG 0.00  A 
ATOM     38  CZ3 TRP C   1      14.910 -13.685  28.894  1.00 29.71 LIG 0.00  A 
ATOM     39  CE3 TRP C   1      15.568 -14.840  29.225  1.00 28.71 LIG 0.01  A 
ENDBRANCH 29 30
ENDBRANCH 24 29
ENDBRANCH 1 24
TORSDOF 12
ENDMDL
