MODEL 1
USER: ADFR SOLUTION from run 150
USER: SCORE 12.166450 LL:  -1.707 LR: -12.721 RR:   0.000 FEB:  -8.843
USER: RMSD 6.970427
USER: SEED 149
USER: STATUS no improvement in best in 14 clusters for 5 generations
USER: GENES 15
USER: genes 0 Translation |==|  0.56169 0.39967 0.37027
USER: genes 1 Rotation |==|  0.73749 0.81074 0.44349 0.80634
USER: genes 2 Torsion [C]-CA--CB-[CG] |==|  0.37379
USER: genes 3 Torsion [CA]-CB--CG-[CD] |==|  0.07719
USER: genes 4 Torsion [CB]-CG--CD-[NE] |==|  0.78964
USER: genes 5 Torsion [CG]-CD--NE-[HE] |==|  0.09326
USER: genes 6 Torsion [N]-CA--C-[N] |==|  0.26045
USER: genes 7 Torsion [C]-N--CA-[C] |==|  0.23566
USER: genes 8 Torsion [N]-CA--C-[N] |==|  0.17729
USER: genes 9 Torsion [C]-N--CA-[C] |==|  0.16987
USER: genes 10 Torsion [N]-CA--C-[O] |==|  0.59653
USER: genes 11 Torsion [CB]-CA--N-[C] |==|  0.37024
USER: genes 12 Torsion [N]-C--CA-[N] |==|  0.07885
USER: genes 13 Torsion [C]-CA--CB-[CG] |==|  0.15114
USER: genes 14 Torsion [CA]-CB--CG-[CD2] |==|  0.70515
ROOT
ATOM      1  CA  ARG H  74      -6.119   3.648  -2.222  1.00 20.60 LIG 0.18  C 
ENDROOT
BRANCH 1 2
ATOM      2  CB  ARG H  74      -5.024   4.122  -1.253  1.00 19.81 LIG 0.04  C 
BRANCH 2 3
ATOM      3  CG  ARG H  74      -3.966   3.055  -0.867  1.00 18.47 LIG 0.02  C 
BRANCH 3 4
ATOM      4  CD  ARG H  74      -3.788   2.013  -1.963  1.00 18.94 LIG 0.14  C 
BRANCH 4 5
ATOM      5  NE  ARG H  74      -4.896   1.053  -2.002  1.00 19.12 LIG-0.23  N 
ATOM      6 HE   ARG H  74      -5.681   1.337  -1.796  1.00 19.12 LIG 0.18  HD
ATOM      7  CZ  ARG H  74      -4.764  -0.230  -2.334  1.00 19.95 LIG 0.67  C 
ATOM      8  NH1 ARG H  74      -3.577  -0.709  -2.696  1.00 19.07 LIG-0.23  N 
ATOM      9  NH2 ARG H  74      -5.830  -1.031  -2.319  1.00 20.02 LIG-0.23  N 
ATOM     10 2HH1 ARG H  74      -3.494  -1.537  -2.910  1.00 19.07 LIG 0.17  HD
ATOM     11 1HH1 ARG H  74      -2.891  -0.190  -2.715  1.00 19.07 LIG 0.17  HD
ATOM     12 1HH2 ARG H  74      -6.600  -0.719  -2.095  1.00 20.02 LIG 0.17  HD
ATOM     13 2HH2 ARG H  74      -5.748  -1.860  -2.534  1.00 20.02 LIG 0.17  HD
ENDBRANCH 4 5
ENDBRANCH 3 4
ENDBRANCH 2 3
ENDBRANCH 1 2
BRANCH 1 14
ATOM     14  C   ARG H  74      -7.494   4.116  -1.734  1.00 20.00 LIG 0.24  C 
ATOM     15  N   GLY H  75      -8.536   3.322  -1.947  1.00 19.10 LIG-0.35  N 
ATOM     16 H    GLY H  75      -8.495   2.562  -2.347  1.00 19.10 LIG 0.16  HD
ATOM     17 O    ARG H  74      -7.613   5.209  -1.197  1.00 20.55 LIG-0.27  OA
BRANCH 15 18
ATOM     18  CA  GLY H  75      -9.881   3.710  -1.491  1.00 17.93 LIG 0.23  C 
BRANCH 18 19
ATOM     19  C   GLY H  75     -10.600   4.605  -2.491  1.00 17.33 LIG 0.23  C 
ATOM     20  N   GLY H  76     -10.875   4.066  -3.679  1.00 16.80 LIG-0.35  N 
ATOM     21 H    GLY H  76     -10.630   3.278  -3.923  1.00 16.80 LIG 0.16  HD
ATOM     22 O    GLY H  75     -10.899   5.774  -2.201  1.00 16.80 LIG-0.27  OA
BRANCH 20 23
ATOM     23  CA  GLY H  76     -11.634   4.807  -4.670  1.00 16.50 LIG 0.23  C 
BRANCH 23 24
ATOM     24  C   GLY H  76     -10.998   6.103  -5.136  1.00 16.76 LIG 0.19  C 
ATOM     25 O    GLY H  76     -11.717   7.058  -5.411  1.00 16.89 LIG-0.65  OA
ATOM     26 OXT  GLY H  76      -9.770   6.206  -5.242  1.00 15.95 LIG-0.65  OA
ENDBRANCH 23 24
ENDBRANCH 20 23
ENDBRANCH 18 19
ENDBRANCH 15 18
ENDBRANCH 1 14
BRANCH 1 27
ATOM     27  N   ARG H  74      -5.917   4.218  -3.561  1.00 22.12 LIG-0.35  N 
ATOM     28 H    ARG H  74      -5.750   5.061  -3.572  1.00 22.12 LIG 0.16  HD
ATOM     29  C   LEU H  73      -5.993   3.455  -4.650  1.00 24.75 LIG 0.26  C 
ATOM     30 O    LEU H  73      -5.865   2.233  -4.594  1.00 25.51 LIG-0.27  OA
BRANCH 29 31
ATOM     31  CA  LEU H  73      -6.237   4.153  -6.006  1.00 25.64 LIG 0.40  C 
ATOM     32  N   LEU H  73      -5.731   5.552  -6.117  1.00 27.50 LIG 0.61  N 
BRANCH 31 33
ATOM     33  CB  LEU H  73      -5.728   3.298  -7.181  1.00 26.32 LIG 0.06  C 
BRANCH 33 34
ATOM     34  CG  LEU H  73      -6.109   1.843  -7.480  1.00 25.96 LIG-0.02  C 
ATOM     35  CD2 LEU H  73      -4.914   0.973  -7.110  1.00 27.32 LIG 0.01  C 
ATOM     36  CD1 LEU H  73      -6.454   1.636  -8.916  1.00 27.59 LIG 0.01  C 
ENDBRANCH 33 34
ENDBRANCH 31 33
ENDBRANCH 29 31
ENDBRANCH 1 27
TORSDOF 13
ENDMDL
MODEL 2
USER: ADFR SOLUTION from run 103
USER: SCORE 13.897839 LL:  -1.660 LR: -12.573 RR:   0.000 FEB:  -8.695
USER: RMSD 4.992625
USER: SEED 102
USER: STATUS 1 or 2 clusters left
USER: GENES 15
USER: genes 0 Translation |==|  0.43508 0.43172 0.41684
USER: genes 1 Rotation |==|  0.67673 0.65769 0.45606 0.93814
USER: genes 2 Torsion [C]-CA--CB-[CG] |==|  0.34820
USER: genes 3 Torsion [CA]-CB--CG-[CD] |==|  0.40834
USER: genes 4 Torsion [CB]-CG--CD-[NE] |==|  0.89863
USER: genes 5 Torsion [CG]-CD--NE-[HE] |==|  0.18109
USER: genes 6 Torsion [N]-CA--C-[N] |==|  0.13811
USER: genes 7 Torsion [C]-N--CA-[C] |==|  0.25664
USER: genes 8 Torsion [N]-CA--C-[N] |==|  0.44477
USER: genes 9 Torsion [C]-N--CA-[C] |==|  0.81809
USER: genes 10 Torsion [N]-CA--C-[O] |==|  0.47389
USER: genes 11 Torsion [CB]-CA--N-[C] |==|  0.17222
USER: genes 12 Torsion [N]-C--CA-[N] |==|  0.75774
USER: genes 13 Torsion [C]-CA--CB-[CG] |==|  0.77426
USER: genes 14 Torsion [CA]-CB--CG-[CD2] |==|  0.74982
ROOT
ATOM      1  CA  ARG H  74      -8.398   4.105  -1.279  1.00 20.60 LIG 0.18  C 
ENDROOT
BRANCH 1 2
ATOM      2  CB  ARG H  74      -8.085   5.054  -0.111  1.00 19.81 LIG 0.04  C 
BRANCH 2 3
ATOM      3  CG  ARG H  74      -7.959   4.381   1.281  1.00 18.47 LIG 0.02  C 
BRANCH 3 4
ATOM      4  CD  ARG H  74      -6.937   5.089   2.161  1.00 18.94 LIG 0.14  C 
BRANCH 4 5
ATOM      5  NE  ARG H  74      -5.787   5.577   1.394  1.00 19.12 LIG-0.23  N 
ATOM      6 HE   ARG H  74      -5.925   6.194   0.811  1.00 19.12 LIG 0.18  HD
ATOM      7  CZ  ARG H  74      -4.542   5.128   1.542  1.00 19.95 LIG 0.67  C 
ATOM      8  NH1 ARG H  74      -4.270   4.200   2.456  1.00 19.07 LIG-0.23  N 
ATOM      9  NH2 ARG H  74      -3.564   5.621   0.781  1.00 20.02 LIG-0.23  N 
ATOM     10 2HH1 ARG H  74      -3.466   3.911   2.550  1.00 19.07 LIG 0.17  HD
ATOM     11 1HH1 ARG H  74      -4.899   3.889   2.953  1.00 19.07 LIG 0.17  HD
ATOM     12 1HH2 ARG H  74      -3.739   6.228   0.196  1.00 20.02 LIG 0.17  HD
ATOM     13 2HH2 ARG H  74      -2.760   5.332   0.874  1.00 20.02 LIG 0.17  HD
ENDBRANCH 4 5
ENDBRANCH 3 4
ENDBRANCH 2 3
ENDBRANCH 1 2
BRANCH 1 14
ATOM     14  C   ARG H  74      -9.648   4.582  -2.026  1.00 20.00 LIG 0.24  C 
ATOM     15  N   GLY H  75      -9.951   3.992  -3.176  1.00 19.10 LIG-0.35  N 
ATOM     16 H    GLY H  75      -9.490   3.363  -3.537  1.00 19.10 LIG 0.16  HD
ATOM     17 O    ARG H  74     -10.315   5.503  -1.576  1.00 20.55 LIG-0.27  OA
BRANCH 15 18
ATOM     18  CA  GLY H  75     -11.146   4.398  -3.934  1.00 17.93 LIG 0.23  C 
BRANCH 18 19
ATOM     19  C   GLY H  75     -10.845   5.475  -4.968  1.00 17.33 LIG 0.23  C 
ATOM     20  N   GLY H  76     -11.729   5.611  -5.956  1.00 16.80 LIG-0.35  N 
ATOM     21 H    GLY H  76     -12.416   5.106  -6.067  1.00 16.80 LIG 0.16  HD
ATOM     22 O    GLY H  75      -9.822   6.172  -4.883  1.00 16.80 LIG-0.27  OA
BRANCH 20 23
ATOM     23  CA  GLY H  76     -11.579   6.666  -6.942  1.00 16.50 LIG 0.23  C 
BRANCH 23 24
ATOM     24  C   GLY H  76     -11.717   8.078  -6.407  1.00 16.76 LIG 0.19  C 
ATOM     25 O    GLY H  76     -11.433   9.025  -7.133  1.00 16.89 LIG-0.65  OA
ATOM     26 OXT  GLY H  76     -12.111   8.284  -5.252  1.00 15.95 LIG-0.65  OA
ENDBRANCH 23 24
ENDBRANCH 20 23
ENDBRANCH 18 19
ENDBRANCH 15 18
ENDBRANCH 1 14
BRANCH 1 27
ATOM     27  N   ARG H  74      -7.294   4.085  -2.249  1.00 22.12 LIG-0.35  N 
ATOM     28 H    ARG H  74      -7.503   4.361  -3.036  1.00 22.12 LIG 0.16  HD
ATOM     29  C   LEU H  73      -6.080   3.666  -1.898  1.00 24.75 LIG 0.26  C 
ATOM     30 O    LEU H  73      -5.722   3.632  -0.722  1.00 25.51 LIG-0.27  OA
BRANCH 29 31
ATOM     31  CA  LEU H  73      -5.113   3.230  -3.021  1.00 25.64 LIG 0.40  C 
ATOM     32  N   LEU H  73      -5.213   1.803  -3.445  1.00 27.50 LIG 0.61  N 
BRANCH 31 33
ATOM     33  CB  LEU H  73      -5.204   4.166  -4.240  1.00 26.32 LIG 0.06  C 
BRANCH 33 34
ATOM     34  CG  LEU H  73      -6.260   4.115  -5.350  1.00 25.96 LIG-0.02  C 
ATOM     35  CD2 LEU H  73      -5.732   3.192  -6.441  1.00 27.32 LIG 0.01  C 
ATOM     36  CD1 LEU H  73      -6.538   5.462  -5.925  1.00 27.59 LIG 0.01  C 
ENDBRANCH 33 34
ENDBRANCH 31 33
ENDBRANCH 29 31
ENDBRANCH 1 27
TORSDOF 13
ENDMDL
MODEL 3
USER: ADFR SOLUTION from run 152
USER: SCORE 13.087811 LL:  -1.493 LR: -12.048 RR:   0.000 FEB:  -8.170
USER: RMSD 6.619837
USER: SEED 151
USER: STATUS no improvement in best in 5 clusters for 5 generations
USER: GENES 15
USER: genes 0 Translation |==|  0.58803 0.38546 0.38162
USER: genes 1 Rotation |==|  0.75444 0.75036 0.45299 0.84695
USER: genes 2 Torsion [C]-CA--CB-[CG] |==|  0.33019
USER: genes 3 Torsion [CA]-CB--CG-[CD] |==|  0.12120
USER: genes 4 Torsion [CB]-CG--CD-[NE] |==|  0.77632
USER: genes 5 Torsion [CG]-CD--NE-[HE] |==|  0.02414
USER: genes 6 Torsion [N]-CA--C-[N] |==|  0.09162
USER: genes 7 Torsion [C]-N--CA-[C] |==|  0.45216
USER: genes 8 Torsion [N]-CA--C-[N] |==|  0.43489
USER: genes 9 Torsion [C]-N--CA-[C] |==|  0.71649
USER: genes 10 Torsion [N]-CA--C-[O] |==|  0.91414
USER: genes 11 Torsion [CB]-CA--N-[C] |==|  0.16625
USER: genes 12 Torsion [N]-C--CA-[N] |==|  0.40172
USER: genes 13 Torsion [C]-CA--CB-[CG] |==|  0.17672
USER: genes 14 Torsion [CA]-CB--CG-[CD2] |==|  0.66223
ROOT
ATOM      1  CA  ARG H  74      -5.644   3.446  -1.992  1.00 20.60 LIG 0.18  C 
ENDROOT
BRANCH 1 2
ATOM      2  CB  ARG H  74      -4.803   3.850  -0.771  1.00 19.81 LIG 0.04  C 
BRANCH 2 3
ATOM      3  CG  ARG H  74      -4.335   2.681   0.135  1.00 18.47 LIG 0.02  C 
BRANCH 3 4
ATOM      4  CD  ARG H  74      -3.825   1.502  -0.683  1.00 18.94 LIG 0.14  C 
BRANCH 4 5
ATOM      5  NE  ARG H  74      -4.917   0.669  -1.197  1.00 19.12 LIG-0.23  N 
ATOM      6 HE   ARG H  74      -5.721   0.959  -1.105  1.00 19.12 LIG 0.18  HD
ATOM      7  CZ  ARG H  74      -4.743  -0.507  -1.797  1.00 19.95 LIG 0.67  C 
ATOM      8  NH1 ARG H  74      -3.516  -0.983  -1.996  1.00 19.07 LIG-0.23  N 
ATOM      9  NH2 ARG H  74      -5.803  -1.203  -2.212  1.00 20.02 LIG-0.23  N 
ATOM     10 2HH1 ARG H  74      -3.407  -1.742  -2.383  1.00 19.07 LIG 0.17  HD
ATOM     11 1HH1 ARG H  74      -2.833  -0.530  -1.737  1.00 19.07 LIG 0.17  HD
ATOM     12 1HH2 ARG H  74      -6.596  -0.891  -2.092  1.00 20.02 LIG 0.17  HD
ATOM     13 2HH2 ARG H  74      -5.694  -1.962  -2.600  1.00 20.02 LIG 0.17  HD
ENDBRANCH 4 5
ENDBRANCH 3 4
ENDBRANCH 2 3
ENDBRANCH 1 2
BRANCH 1 14
ATOM     14  C   ARG H  74      -7.034   4.086  -1.910  1.00 20.00 LIG 0.24  C 
ATOM     15  N   GLY H  75      -7.689   4.306  -3.045  1.00 19.10 LIG-0.35  N 
ATOM     16 H    GLY H  75      -7.383   4.119  -3.827  1.00 19.10 LIG 0.16  HD
ATOM     17 O    ARG H  74      -7.496   4.410  -0.825  1.00 20.55 LIG-0.27  OA
BRANCH 15 18
ATOM     18  CA  GLY H  75      -9.032   4.907  -3.031  1.00 17.93 LIG 0.23  C 
BRANCH 18 19
ATOM     19  C   GLY H  75      -9.440   5.458  -4.390  1.00 17.33 LIG 0.23  C 
ATOM     20  N   GLY H  76     -10.749   5.571  -4.615  1.00 16.80 LIG-0.35  N 
ATOM     21 H    GLY H  76     -11.361   5.311  -4.069  1.00 16.80 LIG 0.16  HD
ATOM     22 O    GLY H  75      -8.586   5.771  -5.235  1.00 16.80 LIG-0.27  OA
BRANCH 20 23
ATOM     23  CA  GLY H  76     -11.239   6.166  -5.846  1.00 16.50 LIG 0.23  C 
BRANCH 23 24
ATOM     24  C   GLY H  76     -11.722   7.599  -5.724  1.00 16.76 LIG 0.19  C 
ATOM     25 O    GLY H  76     -12.215   7.978  -4.667  1.00 16.89 LIG-0.65  OA
ATOM     26 OXT  GLY H  76     -11.626   8.385  -6.675  1.00 15.95 LIG-0.65  OA
ENDBRANCH 23 24
ENDBRANCH 20 23
ENDBRANCH 18 19
ENDBRANCH 15 18
ENDBRANCH 1 14
BRANCH 1 27
ATOM     27  N   ARG H  74      -5.023   3.916  -3.238  1.00 22.12 LIG-0.35  N 
ATOM     28 H    ARG H  74      -5.509   4.452  -3.702  1.00 22.12 LIG 0.16  HD
ATOM     29  C   LEU H  73      -3.799   3.522  -3.585  1.00 24.75 LIG 0.26  C 
ATOM     30 O    LEU H  73      -3.006   3.073  -2.760  1.00 25.51 LIG-0.27  OA
BRANCH 29 31
ATOM     31  CA  LEU H  73      -3.391   3.656  -5.069  1.00 25.64 LIG 0.40  C 
ATOM     32  N   LEU H  73      -1.963   4.011  -5.319  1.00 27.50 LIG 0.61  N 
BRANCH 31 33
ATOM     33  CB  LEU H  73      -3.790   2.410  -5.879  1.00 26.32 LIG 0.06  C 
BRANCH 33 34
ATOM     34  CG  LEU H  73      -5.216   1.908  -6.134  1.00 25.96 LIG-0.02  C 
ATOM     35  CD2 LEU H  73      -5.305   0.489  -5.586  1.00 27.32 LIG 0.01  C 
ATOM     36  CD1 LEU H  73      -5.562   1.908  -7.585  1.00 27.59 LIG 0.01  C 
ENDBRANCH 33 34
ENDBRANCH 31 33
ENDBRANCH 29 31
ENDBRANCH 1 27
TORSDOF 13
ENDMDL
MODEL 4
USER: ADFR SOLUTION from run 131
USER: SCORE 12.738547 LL:  -1.521 LR: -12.001 RR:   0.000 FEB:  -8.123
USER: RMSD 5.816514
USER: SEED 130
USER: STATUS no improvement in best in 8 clusters for 5 generations
USER: GENES 15
USER: genes 0 Translation |==|  0.46793 0.46473 0.41493
USER: genes 1 Rotation |==|  0.21791 0.50703 0.12086 0.66319
USER: genes 2 Torsion [C]-CA--CB-[CG] |==|  0.19717
USER: genes 3 Torsion [CA]-CB--CG-[CD] |==|  0.45249
USER: genes 4 Torsion [CB]-CG--CD-[NE] |==|  0.57297
USER: genes 5 Torsion [CG]-CD--NE-[HE] |==|  0.78373
USER: genes 6 Torsion [N]-CA--C-[N] |==|  0.66930
USER: genes 7 Torsion [C]-N--CA-[C] |==|  0.28333
USER: genes 8 Torsion [N]-CA--C-[N] |==|  0.50014
USER: genes 9 Torsion [C]-N--CA-[C] |==|  0.79738
USER: genes 10 Torsion [N]-CA--C-[O] |==|  0.93813
USER: genes 11 Torsion [CB]-CA--N-[C] |==|  0.16003
USER: genes 12 Torsion [N]-C--CA-[N] |==|  0.47717
USER: genes 13 Torsion [C]-CA--CB-[CG] |==|  0.89214
USER: genes 14 Torsion [CA]-CB--CG-[CD2] |==|  0.25339
ROOT
ATOM      1  CA  ARG H  74      -7.806   4.575  -1.318  1.00 20.60 LIG 0.18  C 
ENDROOT
BRANCH 1 2
ATOM      2  CB  ARG H  74      -6.903   3.678  -2.179  1.00 19.81 LIG 0.04  C 
BRANCH 2 3
ATOM      3  CG  ARG H  74      -6.361   4.328  -3.479  1.00 18.47 LIG 0.02  C 
BRANCH 3 4
ATOM      4  CD  ARG H  74      -5.175   3.558  -4.045  1.00 18.94 LIG 0.14  C 
BRANCH 4 5
ATOM      5  NE  ARG H  74      -4.289   4.410  -4.843  1.00 19.12 LIG-0.23  N 
ATOM      6 HE   ARG H  74      -4.535   4.609  -5.642  1.00 19.12 LIG 0.18  HD
ATOM      7  CZ  ARG H  74      -3.127   4.896  -4.410  1.00 19.95 LIG 0.67  C 
ATOM      8  NH1 ARG H  74      -2.718   4.646  -3.168  1.00 19.07 LIG-0.23  N 
ATOM      9  NH2 ARG H  74      -2.379   5.647  -5.220  1.00 20.02 LIG-0.23  N 
ATOM     10 2HH1 ARG H  74      -1.968   4.961  -2.891  1.00 19.07 LIG 0.17  HD
ATOM     11 1HH1 ARG H  74      -3.205   4.171  -2.643  1.00 19.07 LIG 0.17  HD
ATOM     12 1HH2 ARG H  74      -2.648   5.816  -6.019  1.00 20.02 LIG 0.17  HD
ATOM     13 2HH2 ARG H  74      -1.628   5.962  -4.943  1.00 20.02 LIG 0.17  HD
ENDBRANCH 4 5
ENDBRANCH 3 4
ENDBRANCH 2 3
ENDBRANCH 1 2
BRANCH 1 14
ATOM     14  C   ARG H  74      -9.157   4.785  -2.010  1.00 20.00 LIG 0.24  C 
ATOM     15  N   GLY H  75      -9.366   4.172  -3.170  1.00 19.10 LIG-0.35  N 
ATOM     16 H    GLY H  75      -8.792   3.669  -3.565  1.00 19.10 LIG 0.16  HD
ATOM     17 O    ARG H  74      -9.993   5.525  -1.510  1.00 20.55 LIG-0.27  OA
BRANCH 15 18
ATOM     18  CA  GLY H  75     -10.648   4.325  -3.878  1.00 17.93 LIG 0.23  C 
BRANCH 18 19
ATOM     19  C   GLY H  75     -10.561   5.304  -5.039  1.00 17.33 LIG 0.23  C 
ATOM     20  N   GLY H  76     -11.682   5.500  -5.734  1.00 16.80 LIG-0.35  N 
ATOM     21 H    GLY H  76     -12.419   5.078  -5.598  1.00 16.80 LIG 0.16  HD
ATOM     22 O    GLY H  75      -9.493   5.874  -5.316  1.00 16.80 LIG-0.27  OA
BRANCH 20 23
ATOM     23  CA  GLY H  76     -11.726   6.479  -6.806  1.00 16.50 LIG 0.23  C 
BRANCH 23 24
ATOM     24  C   GLY H  76     -11.729   7.929  -6.359  1.00 16.76 LIG 0.19  C 
ATOM     25 O    GLY H  76     -12.104   8.205  -5.223  1.00 16.89 LIG-0.65  OA
ATOM     26 OXT  GLY H  76     -11.361   8.830  -7.122  1.00 15.95 LIG-0.65  OA
ENDBRANCH 23 24
ENDBRANCH 20 23
ENDBRANCH 18 19
ENDBRANCH 15 18
ENDBRANCH 1 14
BRANCH 1 27
ATOM     27  N   ARG H  74      -8.079   3.950  -0.016  1.00 22.12 LIG-0.35  N 
ATOM     28 H    ARG H  74      -8.912   3.832   0.159  1.00 22.12 LIG 0.16  HD
ATOM     29  C   LEU H  73      -7.085   3.607   0.801  1.00 24.75 LIG 0.26  C 
ATOM     30 O    LEU H  73      -5.936   3.447   0.392  1.00 25.51 LIG-0.27  OA
BRANCH 29 31
ATOM     31  CA  LEU H  73      -7.417   3.400   2.295  1.00 25.64 LIG 0.40  C 
ATOM     32  N   LEU H  73      -6.319   2.834   3.132  1.00 27.50 LIG 0.61  N 
BRANCH 31 33
ATOM     33  CB  LEU H  73      -7.977   4.684   2.933  1.00 26.32 LIG 0.06  C 
BRANCH 33 34
ATOM     34  CG  LEU H  73      -7.507   6.117   2.657  1.00 25.96 LIG-0.02  C 
ATOM     35  CD2 LEU H  73      -8.359   6.665   1.518  1.00 27.32 LIG 0.01  C 
ATOM     36  CD1 LEU H  73      -6.067   6.173   2.276  1.00 27.59 LIG 0.01  C 
ENDBRANCH 33 34
ENDBRANCH 31 33
ENDBRANCH 29 31
ENDBRANCH 1 27
TORSDOF 13
ENDMDL
MODEL 5
USER: ADFR SOLUTION from run 133
USER: SCORE 12.054718 LL:  -1.312 LR: -11.777 RR:   0.000 FEB:  -7.899
USER: RMSD 6.343188
USER: SEED 132
USER: STATUS no improvement in best in 14 clusters for 5 generations
USER: GENES 15
USER: genes 0 Translation |==|  0.49377 0.47278 0.37141
USER: genes 1 Rotation |==|  0.15678 0.35286 0.20131 0.64607
USER: genes 2 Torsion [C]-CA--CB-[CG] |==|  0.19908
USER: genes 3 Torsion [CA]-CB--CG-[CD] |==|  0.60255
USER: genes 4 Torsion [CB]-CG--CD-[NE] |==|  0.06927
USER: genes 5 Torsion [CG]-CD--NE-[HE] |==|  0.93186
USER: genes 6 Torsion [N]-CA--C-[N] |==|  0.29285
USER: genes 7 Torsion [C]-N--CA-[C] |==|  0.59517
USER: genes 8 Torsion [N]-CA--C-[N] |==|  0.01602
USER: genes 9 Torsion [C]-N--CA-[C] |==|  0.29793
USER: genes 10 Torsion [N]-CA--C-[O] |==|  0.93118
USER: genes 11 Torsion [CB]-CA--N-[C] |==|  0.55102
USER: genes 12 Torsion [N]-C--CA-[N] |==|  0.98649
USER: genes 13 Torsion [C]-CA--CB-[CG] |==|  0.97944
USER: genes 14 Torsion [CA]-CB--CG-[CD2] |==|  0.69466
ROOT
ATOM      1  CA  ARG H  74      -7.341   4.690  -2.199  1.00 20.60 LIG 0.18  C 
ENDROOT
BRANCH 1 2
ATOM      2  CB  ARG H  74      -6.175   3.819  -2.694  1.00 19.81 LIG 0.04  C 
BRANCH 2 3
ATOM      3  CG  ARG H  74      -6.000   3.749  -4.234  1.00 18.47 LIG 0.02  C 
BRANCH 3 4
ATOM      4  CD  ARG H  74      -5.563   2.363  -4.691  1.00 18.94 LIG 0.14  C 
BRANCH 4 5
ATOM      5  NE  ARG H  74      -5.961   1.316  -3.745  1.00 19.12 LIG-0.23  N 
ATOM      6 HE   ARG H  74      -6.087   1.542  -2.925  1.00 19.12 LIG 0.18  HD
ATOM      7  CZ  ARG H  74      -6.138   0.038  -4.073  1.00 19.95 LIG 0.67  C 
ATOM      8  NH1 ARG H  74      -5.989  -0.356  -5.336  1.00 19.07 LIG-0.23  N 
ATOM      9  NH2 ARG H  74      -6.480  -0.847  -3.135  1.00 20.02 LIG-0.23  N 
ATOM     10 2HH1 ARG H  74      -6.104  -1.181  -5.546  1.00 19.07 LIG 0.17  HD
ATOM     11 1HH1 ARG H  74      -5.778   0.217  -5.942  1.00 19.07 LIG 0.17  HD
ATOM     12 1HH2 ARG H  74      -6.585  -0.591  -2.321  1.00 20.02 LIG 0.17  HD
ATOM     13 2HH2 ARG H  74      -6.595  -1.673  -3.345  1.00 20.02 LIG 0.17  HD
ENDBRANCH 4 5
ENDBRANCH 3 4
ENDBRANCH 2 3
ENDBRANCH 1 2
BRANCH 1 14
ATOM     14  C   ARG H  74      -8.678   4.005  -2.503  1.00 20.00 LIG 0.24  C 
ATOM     15  N   GLY H  75      -9.647   4.737  -3.040  1.00 19.10 LIG-0.35  N 
ATOM     16 H    GLY H  75      -9.580   5.574  -3.224  1.00 19.10 LIG 0.16  HD
ATOM     17 O    ARG H  74      -8.839   2.826  -2.220  1.00 20.55 LIG-0.27  OA
BRANCH 15 18
ATOM     18  CA  GLY H  75     -10.949   4.133  -3.366  1.00 17.93 LIG 0.23  C 
BRANCH 18 19
ATOM     19  C   GLY H  75     -11.578   4.738  -4.613  1.00 17.33 LIG 0.23  C 
ATOM     20  N   GLY H  76     -10.833   5.616  -5.285  1.00 16.80 LIG-0.35  N 
ATOM     21 H    GLY H  76     -10.058   5.889  -5.034  1.00 16.80 LIG 0.16  HD
ATOM     22 O    GLY H  75     -12.727   4.426  -4.964  1.00 16.80 LIG-0.27  OA
BRANCH 20 23
ATOM     23  CA  GLY H  76     -11.308   6.184  -6.535  1.00 16.50 LIG 0.23  C 
BRANCH 23 24
ATOM     24  C   GLY H  76     -11.737   7.637  -6.463  1.00 16.76 LIG 0.19  C 
ATOM     25 O    GLY H  76     -12.104   8.101  -5.388  1.00 16.89 LIG-0.65  OA
ATOM     26 OXT  GLY H  76     -11.723   8.355  -7.470  1.00 15.95 LIG-0.65  OA
ENDBRANCH 23 24
ENDBRANCH 20 23
ENDBRANCH 18 19
ENDBRANCH 15 18
ENDBRANCH 1 14
BRANCH 1 27
ATOM     27  N   ARG H  74      -7.273   4.881  -0.744  1.00 22.12 LIG-0.35  N 
ATOM     28 H    ARG H  74      -6.504   4.717  -0.395  1.00 22.12 LIG 0.16  HD
ATOM     29  C   LEU H  73      -8.340   5.279  -0.053  1.00 24.75 LIG 0.26  C 
ATOM     30 O    LEU H  73      -9.287   5.846  -0.596  1.00 25.51 LIG-0.27  OA
BRANCH 29 31
ATOM     31  CA  LEU H  73      -8.354   5.019   1.469  1.00 25.64 LIG 0.40  C 
ATOM     32  N   LEU H  73      -7.202   4.236   2.004  1.00 27.50 LIG 0.61  N 
BRANCH 31 33
ATOM     33  CB  LEU H  73      -8.539   6.324   2.264  1.00 26.32 LIG 0.06  C 
BRANCH 33 34
ATOM     34  CG  LEU H  73      -8.537   7.746   1.691  1.00 25.96 LIG-0.02  C 
ATOM     35  CD2 LEU H  73      -7.260   8.427   2.167  1.00 27.32 LIG 0.01  C 
ATOM     36  CD1 LEU H  73      -9.721   8.534   2.138  1.00 27.59 LIG 0.01  C 
ENDBRANCH 33 34
ENDBRANCH 31 33
ENDBRANCH 29 31
ENDBRANCH 1 27
TORSDOF 13
ENDMDL
MODEL 6
USER: ADFR SOLUTION from run 90
USER: SCORE 12.060887 LL:  -1.454 LR: -11.505 RR:   0.000 FEB:  -7.627
USER: RMSD 5.378977
USER: SEED 89
USER: STATUS no improvement in best in 14 clusters for 5 generations
USER: GENES 15
USER: genes 0 Translation |==|  0.53914 0.42067 0.39142
USER: genes 1 Rotation |==|  0.62410 0.70639 0.51118 0.93804
USER: genes 2 Torsion [C]-CA--CB-[CG] |==|  0.24142
USER: genes 3 Torsion [CA]-CB--CG-[CD] |==|  0.31447
USER: genes 4 Torsion [CB]-CG--CD-[NE] |==|  0.10506
USER: genes 5 Torsion [CG]-CD--NE-[HE] |==|  0.94417
USER: genes 6 Torsion [N]-CA--C-[N] |==|  0.41973
USER: genes 7 Torsion [C]-N--CA-[C] |==|  0.86566
USER: genes 8 Torsion [N]-CA--C-[N] |==|  0.37987
USER: genes 9 Torsion [C]-N--CA-[C] |==|  0.26373
USER: genes 10 Torsion [N]-CA--C-[O] |==|  0.46837
USER: genes 11 Torsion [CB]-CA--N-[C] |==|  0.49444
USER: genes 12 Torsion [N]-C--CA-[N] |==|  0.25318
USER: genes 13 Torsion [C]-CA--CB-[CG] |==|  0.73059
USER: genes 14 Torsion [CA]-CB--CG-[CD2] |==|  0.49596
ROOT
ATOM      1  CA  ARG H  74      -6.524   3.948  -1.794  1.00 20.60 LIG 0.18  C 
ENDROOT
BRANCH 1 2
ATOM      2  CB  ARG H  74      -6.433   5.074  -0.751  1.00 19.81 LIG 0.04  C 
BRANCH 2 3
ATOM      3  CG  ARG H  74      -6.883   4.694   0.684  1.00 18.47 LIG 0.02  C 
BRANCH 3 4
ATOM      4  CD  ARG H  74      -5.718   4.710   1.665  1.00 18.94 LIG 0.14  C 
BRANCH 4 5
ATOM      5  NE  ARG H  74      -4.781   5.805   1.395  1.00 19.12 LIG-0.23  N 
ATOM      6 HE   ARG H  74      -4.791   6.159   0.612  1.00 19.12 LIG 0.18  HD
ATOM      7  CZ  ARG H  74      -3.915   6.286   2.285  1.00 19.95 LIG 0.67  C 
ATOM      8  NH1 ARG H  74      -3.885   5.797   3.522  1.00 19.07 LIG-0.23  N 
ATOM      9  NH2 ARG H  74      -3.086   7.272   1.938  1.00 20.02 LIG-0.23  N 
ATOM     10 2HH1 ARG H  74      -3.326   6.109   4.095  1.00 19.07 LIG 0.17  HD
ATOM     11 1HH1 ARG H  74      -4.426   5.168   3.749  1.00 19.07 LIG 0.17  HD
ATOM     12 1HH2 ARG H  74      -3.112   7.595   1.141  1.00 20.02 LIG 0.17  HD
ATOM     13 2HH2 ARG H  74      -2.526   7.584   2.511  1.00 20.02 LIG 0.17  HD
ENDBRANCH 4 5
ENDBRANCH 3 4
ENDBRANCH 2 3
ENDBRANCH 1 2
BRANCH 1 14
ATOM     14  C   ARG H  74      -7.926   3.914  -2.412  1.00 20.00 LIG 0.24  C 
ATOM     15  N   GLY H  75      -8.858   3.187  -1.809  1.00 19.10 LIG-0.35  N 
ATOM     16 H    GLY H  75      -8.729   2.725  -1.095  1.00 19.10 LIG 0.16  HD
ATOM     17 O    ARG H  74      -8.151   4.520  -3.451  1.00 20.55 LIG-0.27  OA
BRANCH 15 18
ATOM     18  CA  GLY H  75     -10.227   3.124  -2.348  1.00 17.93 LIG 0.23  C 
BRANCH 18 19
ATOM     19  C   GLY H  75     -10.790   4.501  -2.672  1.00 17.33 LIG 0.23  C 
ATOM     20  N   GLY H  76     -11.450   4.614  -3.825  1.00 16.80 LIG-0.35  N 
ATOM     21 H    GLY H  76     -11.529   3.983  -4.404  1.00 16.80 LIG 0.16  HD
ATOM     22 O    GLY H  75     -10.627   5.456  -1.897  1.00 16.80 LIG-0.27  OA
BRANCH 20 23
ATOM     23  CA  GLY H  76     -12.099   5.861  -4.187  1.00 16.50 LIG 0.23  C 
BRANCH 23 24
ATOM     24  C   GLY H  76     -11.279   6.788  -5.064  1.00 16.76 LIG 0.19  C 
ATOM     25 O    GLY H  76     -11.822   7.757  -5.585  1.00 16.89 LIG-0.65  OA
ATOM     26 OXT  GLY H  76     -10.075   6.579  -5.258  1.00 15.95 LIG-0.65  OA
ENDBRANCH 23 24
ENDBRANCH 20 23
ENDBRANCH 18 19
ENDBRANCH 15 18
ENDBRANCH 1 14
BRANCH 1 27
ATOM     27  N   ARG H  74      -5.572   4.168  -2.890  1.00 22.12 LIG-0.35  N 
ATOM     28 H    ARG H  74      -5.114   4.893  -2.828  1.00 22.12 LIG 0.16  HD
ATOM     29  C   LEU H  73      -5.455   3.290  -3.885  1.00 24.75 LIG 0.26  C 
ATOM     30 O    LEU H  73      -5.833   2.126  -3.767  1.00 25.51 LIG-0.27  OA
BRANCH 29 31
ATOM     31  CA  LEU H  73      -4.814   3.773  -5.204  1.00 25.64 LIG 0.40  C 
ATOM     32  N   LEU H  73      -3.336   3.594  -5.311  1.00 27.50 LIG 0.61  N 
BRANCH 31 33
ATOM     33  CB  LEU H  73      -5.523   3.172  -6.430  1.00 26.32 LIG 0.06  C 
BRANCH 33 34
ATOM     34  CG  LEU H  73      -5.081   1.936  -7.222  1.00 25.96 LIG-0.02  C 
ATOM     35  CD2 LEU H  73      -6.112   1.706  -8.321  1.00 27.32 LIG 0.01  C 
ATOM     36  CD1 LEU H  73      -4.986   0.721  -6.363  1.00 27.59 LIG 0.01  C 
ENDBRANCH 33 34
ENDBRANCH 31 33
ENDBRANCH 29 31
ENDBRANCH 1 27
TORSDOF 13
ENDMDL
MODEL 7
USER: ADFR SOLUTION from run 87
USER: SCORE 12.069707 LL:  -1.406 LR: -10.921 RR:   0.000 FEB:  -7.043
USER: RMSD 4.031679
USER: SEED 86
USER: STATUS no improvement in best in 2 clusters for 5 generations
USER: GENES 15
USER: genes 0 Translation |==|  0.44681 0.44420 0.41560
USER: genes 1 Rotation |==|  0.65036 0.66845 0.43228 0.94094
USER: genes 2 Torsion [C]-CA--CB-[CG] |==|  0.29976
USER: genes 3 Torsion [CA]-CB--CG-[CD] |==|  0.29263
USER: genes 4 Torsion [CB]-CG--CD-[NE] |==|  0.12733
USER: genes 5 Torsion [CG]-CD--NE-[HE] |==|  0.97153
USER: genes 6 Torsion [N]-CA--C-[N] |==|  0.11448
USER: genes 7 Torsion [C]-N--CA-[C] |==|  0.26296
USER: genes 8 Torsion [N]-CA--C-[N] |==|  0.45203
USER: genes 9 Torsion [C]-N--CA-[C] |==|  0.81866
USER: genes 10 Torsion [N]-CA--C-[O] |==|  0.96178
USER: genes 11 Torsion [CB]-CA--N-[C] |==|  0.17778
USER: genes 12 Torsion [N]-C--CA-[N] |==|  0.21654
USER: genes 13 Torsion [C]-CA--CB-[CG] |==|  0.72624
USER: genes 14 Torsion [CA]-CB--CG-[CD2] |==|  0.51444
ROOT
ATOM      1  CA  ARG H  74      -8.186   4.283  -1.304  1.00 20.60 LIG 0.18  C 
ENDROOT
BRANCH 1 2
ATOM      2  CB  ARG H  74      -7.755   5.353  -0.289  1.00 19.81 LIG 0.04  C 
BRANCH 2 3
ATOM      3  CG  ARG H  74      -7.943   4.973   1.203  1.00 18.47 LIG 0.02  C 
BRANCH 3 4
ATOM      4  CD  ARG H  74      -6.617   4.638   1.873  1.00 18.94 LIG 0.14  C 
BRANCH 4 5
ATOM      5  NE  ARG H  74      -5.572   5.617   1.555  1.00 19.12 LIG-0.23  N 
ATOM      6 HE   ARG H  74      -5.735   6.193   0.939  1.00 19.12 LIG 0.18  HD
ATOM      7  CZ  ARG H  74      -4.386   5.669   2.160  1.00 19.95 LIG 0.67  C 
ATOM      8  NH1 ARG H  74      -4.099   4.822   3.145  1.00 19.07 LIG-0.23  N 
ATOM      9  NH2 ARG H  74      -3.491   6.585   1.786  1.00 20.02 LIG-0.23  N 
ATOM     10 2HH1 ARG H  74      -3.333   4.858   3.534  1.00 19.07 LIG 0.17  HD
ATOM     11 1HH1 ARG H  74      -4.680   4.238   3.393  1.00 19.07 LIG 0.17  HD
ATOM     12 1HH2 ARG H  74      -3.681   7.139   1.155  1.00 20.02 LIG 0.17  HD
ATOM     13 2HH2 ARG H  74      -2.725   6.621   2.174  1.00 20.02 LIG 0.17  HD
ENDBRANCH 4 5
ENDBRANCH 3 4
ENDBRANCH 2 3
ENDBRANCH 1 2
BRANCH 1 14
ATOM     14  C   ARG H  74      -9.477   4.714  -2.009  1.00 20.00 LIG 0.24  C 
ATOM     15  N   GLY H  75      -9.797   4.113  -3.149  1.00 19.10 LIG-0.35  N 
ATOM     16 H    GLY H  75      -9.325   3.501  -3.525  1.00 19.10 LIG 0.16  HD
ATOM     17 O    ARG H  74     -10.162   5.610  -1.536  1.00 20.55 LIG-0.27  OA
BRANCH 15 18
ATOM     18  CA  GLY H  75     -11.030   4.475  -3.866  1.00 17.93 LIG 0.23  C 
BRANCH 18 19
ATOM     19  C   GLY H  75     -10.792   5.522  -4.946  1.00 17.33 LIG 0.23  C 
ATOM     20  N   GLY H  76     -11.747   5.649  -5.868  1.00 16.80 LIG-0.35  N 
ATOM     21 H    GLY H  76     -12.447   5.152  -5.915  1.00 16.80 LIG 0.16  HD
ATOM     22 O    GLY H  75      -9.756   6.204  -4.956  1.00 16.80 LIG-0.27  OA
BRANCH 20 23
ATOM     23  CA  GLY H  76     -11.656   6.677  -6.889  1.00 16.50 LIG 0.23  C 
BRANCH 23 24
ATOM     24  C   GLY H  76     -11.729   8.104  -6.379  1.00 16.76 LIG 0.19  C 
ATOM     25 O    GLY H  76     -12.107   8.312  -5.230  1.00 16.89 LIG-0.65  OA
ATOM     26 OXT  GLY H  76     -11.414   9.055  -7.105  1.00 15.95 LIG-0.65  OA
ENDBRANCH 23 24
ENDBRANCH 20 23
ENDBRANCH 18 19
ENDBRANCH 15 18
ENDBRANCH 1 14
BRANCH 1 27
ATOM     27  N   ARG H  74      -7.164   4.103  -2.344  1.00 22.12 LIG-0.35  N 
ATOM     28 H    ARG H  74      -7.417   4.315  -3.138  1.00 22.12 LIG 0.16  HD
ATOM     29  C   LEU H  73      -5.951   3.646  -2.041  1.00 24.75 LIG 0.26  C 
ATOM     30 O    LEU H  73      -5.505   3.702  -0.896  1.00 25.51 LIG-0.27  OA
BRANCH 29 31
ATOM     31  CA  LEU H  73      -5.099   3.047  -3.182  1.00 25.64 LIG 0.40  C 
ATOM     32  N   LEU H  73      -4.440   4.033  -4.087  1.00 27.50 LIG 0.61  N 
BRANCH 31 33
ATOM     33  CB  LEU H  73      -4.073   2.031  -2.647  1.00 26.32 LIG 0.06  C 
BRANCH 33 34
ATOM     34  CG  LEU H  73      -2.590   2.299  -2.364  1.00 25.96 LIG-0.02  C 
ATOM     35  CD2 LEU H  73      -1.953   0.971  -1.975  1.00 27.32 LIG 0.01  C 
ATOM     36  CD1 LEU H  73      -2.397   3.288  -1.264  1.00 27.59 LIG 0.01  C 
ENDBRANCH 33 34
ENDBRANCH 31 33
ENDBRANCH 29 31
ENDBRANCH 1 27
TORSDOF 13
ENDMDL
MODEL 8
USER: ADFR SOLUTION from run 6
USER: SCORE 11.490256 LL:  -1.839 LR: -10.820 RR:   0.000 FEB:  -6.942
USER: RMSD 3.595085
USER: SEED 16814
USER: STATUS no improvement in best in 13 clusters for 5 generations
USER: GENES 15
USER: genes 0 Translation |==|  0.49128 0.49827 0.48849
USER: genes 1 Rotation |==|  0.53036 0.55268 0.52126 0.99583
USER: genes 2 Torsion [C]-CA--CB-[CG] |==|  0.38745
USER: genes 3 Torsion [CA]-CB--CG-[CD] |==|  0.14990
USER: genes 4 Torsion [CB]-CG--CD-[NE] |==|  0.12622
USER: genes 5 Torsion [CG]-CD--NE-[HE] |==|  0.83759
USER: genes 6 Torsion [N]-CA--C-[N] |==|  0.37881
USER: genes 7 Torsion [C]-N--CA-[C] |==|  0.81667
USER: genes 8 Torsion [N]-CA--C-[N] |==|  0.44400
USER: genes 9 Torsion [C]-N--CA-[C] |==|  0.19684
USER: genes 10 Torsion [N]-CA--C-[O] |==|  0.07051
USER: genes 11 Torsion [CB]-CA--N-[C] |==|  0.46735
USER: genes 12 Torsion [N]-C--CA-[N] |==|  0.42278
USER: genes 13 Torsion [C]-CA--CB-[CG] |==|  0.95489
USER: genes 14 Torsion [CA]-CB--CG-[CD2] |==|  0.77146
ROOT
ATOM      1  CA  ARG H  74      -7.386   5.053   0.172  1.00 20.60 LIG 0.18  C 
ENDROOT
BRANCH 1 2
ATOM      2  CB  ARG H  74      -7.854   6.454   0.598  1.00 19.81 LIG 0.04  C 
BRANCH 2 3
ATOM      3  CG  ARG H  74      -8.061   6.654   2.122  1.00 18.47 LIG 0.02  C 
BRANCH 3 4
ATOM      4  CD  ARG H  74      -6.819   6.271   2.916  1.00 18.94 LIG 0.14  C 
BRANCH 4 5
ATOM      5  NE  ARG H  74      -5.592   6.810   2.322  1.00 19.12 LIG-0.23  N 
ATOM      6 HE   ARG H  74      -5.407   6.589   1.512  1.00 19.12 LIG 0.18  HD
ATOM      7  CZ  ARG H  74      -4.745   7.620   2.955  1.00 19.95 LIG 0.67  C 
ATOM      8  NH1 ARG H  74      -5.005   8.020   4.197  1.00 19.07 LIG-0.23  N 
ATOM      9  NH2 ARG H  74      -3.642   8.041   2.336  1.00 20.02 LIG-0.23  N 
ATOM     10 2HH1 ARG H  74      -4.457   8.543   4.604  1.00 19.07 LIG 0.17  HD
ATOM     11 1HH1 ARG H  74      -5.721   7.756   4.593  1.00 19.07 LIG 0.17  HD
ATOM     12 1HH2 ARG H  74      -3.479   7.790   1.529  1.00 20.02 LIG 0.17  HD
ATOM     13 2HH2 ARG H  74      -3.094   8.564   2.742  1.00 20.02 LIG 0.17  HD
ENDBRANCH 4 5
ENDBRANCH 3 4
ENDBRANCH 2 3
ENDBRANCH 1 2
BRANCH 1 14
ATOM     14  C   ARG H  74      -8.113   4.620  -1.105  1.00 20.00 LIG 0.24  C 
ATOM     15  N   GLY H  75      -9.108   3.748  -0.993  1.00 19.10 LIG-0.35  N 
ATOM     16 H    GLY H  75      -9.371   3.402  -0.250  1.00 19.10 LIG 0.16  HD
ATOM     17 O    ARG H  74      -7.751   5.050  -2.192  1.00 20.55 LIG-0.27  OA
BRANCH 15 18
ATOM     18  CA  GLY H  75      -9.853   3.302  -2.182  1.00 17.93 LIG 0.23  C 
BRANCH 18 19
ATOM     19  C   GLY H  75     -10.651   4.427  -2.826  1.00 17.33 LIG 0.23  C 
ATOM     20  N   GLY H  76     -11.009   4.245  -4.098  1.00 16.80 LIG-0.35  N 
ATOM     21 H    GLY H  76     -10.777   3.570  -4.577  1.00 16.80 LIG 0.16  HD
ATOM     22 O    GLY H  75     -10.937   5.453  -2.190  1.00 16.80 LIG-0.27  OA
BRANCH 20 23
ATOM     23  CA  GLY H  76     -11.845   5.219  -4.777  1.00 16.50 LIG 0.23  C 
BRANCH 23 24
ATOM     24  C   GLY H  76     -11.173   6.541  -5.094  1.00 16.76 LIG 0.19  C 
ATOM     25 O    GLY H  76      -9.953   6.578  -5.220  1.00 16.89 LIG-0.65  OA
ATOM     26 OXT  GLY H  76     -11.836   7.577  -5.226  1.00 15.95 LIG-0.65  OA
ENDBRANCH 23 24
ENDBRANCH 20 23
ENDBRANCH 18 19
ENDBRANCH 15 18
ENDBRANCH 1 14
BRANCH 1 27
ATOM     27  N   ARG H  74      -5.947   5.049  -0.125  1.00 22.12 LIG-0.35  N 
ATOM     28 H    ARG H  74      -5.589   5.828  -0.182  1.00 22.12 LIG 0.16  HD
ATOM     29  C   LEU H  73      -5.284   3.906  -0.287  1.00 24.75 LIG 0.26  C 
ATOM     30 O    LEU H  73      -5.715   2.840   0.149  1.00 25.51 LIG-0.27  OA
BRANCH 29 31
ATOM     31  CA  LEU H  73      -3.934   3.953  -1.037  1.00 25.64 LIG 0.40  C 
ATOM     32  N   LEU H  73      -2.949   2.895  -0.668  1.00 27.50 LIG 0.61  N 
BRANCH 31 33
ATOM     33  CB  LEU H  73      -4.137   3.996  -2.563  1.00 26.32 LIG 0.06  C 
BRANCH 33 34
ATOM     34  CG  LEU H  73      -5.425   3.652  -3.320  1.00 25.96 LIG-0.02  C 
ATOM     35  CD2 LEU H  73      -5.473   2.136  -3.471  1.00 27.32 LIG 0.01  C 
ATOM     36  CD1 LEU H  73      -5.474   4.291  -4.666  1.00 27.59 LIG 0.01  C 
ENDBRANCH 33 34
ENDBRANCH 31 33
ENDBRANCH 29 31
ENDBRANCH 1 27
TORSDOF 13
ENDMDL
MODEL 9
USER: ADFR SOLUTION from run 148
USER: SCORE 11.689759 LL:  -1.927 LR: -10.817 RR:   0.000 FEB:  -6.940
USER: RMSD 2.585348
USER: SEED 147
USER: STATUS no improvement in best in 13 clusters for 5 generations
USER: GENES 15
USER: genes 0 Translation |==|  0.47796 0.52533 0.50624
USER: genes 1 Rotation |==|  0.51546 0.53357 0.52138 0.99817
USER: genes 2 Torsion [C]-CA--CB-[CG] |==|  0.20820
USER: genes 3 Torsion [CA]-CB--CG-[CD] |==|  0.32735
USER: genes 4 Torsion [CB]-CG--CD-[NE] |==|  0.67507
USER: genes 5 Torsion [CG]-CD--NE-[HE] |==|  0.17887
USER: genes 6 Torsion [N]-CA--C-[N] |==|  0.35247
USER: genes 7 Torsion [C]-N--CA-[C] |==|  0.82566
USER: genes 8 Torsion [N]-CA--C-[N] |==|  0.45148
USER: genes 9 Torsion [C]-N--CA-[C] |==|  0.19388
USER: genes 10 Torsion [N]-CA--C-[O] |==|  0.59725
USER: genes 11 Torsion [CB]-CA--N-[C] |==|  0.48895
USER: genes 12 Torsion [N]-C--CA-[N] |==|  0.36586
USER: genes 13 Torsion [C]-CA--CB-[CG] |==|  0.98186
USER: genes 14 Torsion [CA]-CB--CG-[CD2] |==|  0.69778
ROOT
ATOM      1  CA  ARG H  74      -7.626   5.439   0.531  1.00 20.60 LIG 0.18  C 
ENDROOT
BRANCH 1 2
ATOM      2  CB  ARG H  74      -8.126   6.860   0.839  1.00 19.81 LIG 0.04  C 
BRANCH 2 3
ATOM      3  CG  ARG H  74      -9.581   6.956   1.367  1.00 18.47 LIG 0.02  C 
BRANCH 3 4
ATOM      4  CD  ARG H  74      -9.635   7.541   2.772  1.00 18.94 LIG 0.14  C 
BRANCH 4 5
ATOM      5  NE  ARG H  74     -10.173   6.588   3.749  1.00 19.12 LIG-0.23  N 
ATOM      6 HE   ARG H  74      -9.724   5.871   3.901  1.00 19.12 LIG 0.18  HD
ATOM      7  CZ  ARG H  74     -11.312   6.763   4.417  1.00 19.95 LIG 0.67  C 
ATOM      8  NH1 ARG H  74     -12.025   7.873   4.246  1.00 19.07 LIG-0.23  N 
ATOM      9  NH2 ARG H  74     -11.729   5.828   5.272  1.00 20.02 LIG-0.23  N 
ATOM     10 2HH1 ARG H  74     -12.760   7.984   4.678  1.00 19.07 LIG 0.17  HD
ATOM     11 1HH1 ARG H  74     -11.751   8.481   3.702  1.00 19.07 LIG 0.17  HD
ATOM     12 1HH2 ARG H  74     -11.263   5.115   5.390  1.00 20.02 LIG 0.17  HD
ATOM     13 2HH2 ARG H  74     -12.464   5.939   5.705  1.00 20.02 LIG 0.17  HD
ENDBRANCH 4 5
ENDBRANCH 3 4
ENDBRANCH 2 3
ENDBRANCH 1 2
BRANCH 1 14
ATOM     14  C   ARG H  74      -8.249   4.931  -0.773  1.00 20.00 LIG 0.24  C 
ATOM     15  N   GLY H  75      -9.114   3.926  -0.702  1.00 19.10 LIG-0.35  N 
ATOM     16 H    GLY H  75      -9.346   3.534   0.027  1.00 19.10 LIG 0.16  HD
ATOM     17 O    ARG H  74      -7.922   5.428  -1.842  1.00 20.55 LIG-0.27  OA
BRANCH 15 18
ATOM     18  CA  GLY H  75      -9.756   3.403  -1.919  1.00 17.93 LIG 0.23  C 
BRANCH 18 19
ATOM     19  C   GLY H  75     -10.626   4.441  -2.614  1.00 17.33 LIG 0.23  C 
ATOM     20  N   GLY H  76     -10.950   4.189  -3.883  1.00 16.80 LIG-0.35  N 
ATOM     21 H    GLY H  76     -10.661   3.516  -4.334  1.00 16.80 LIG 0.16  HD
ATOM     22 O    GLY H  75     -10.997   5.465  -2.019  1.00 16.80 LIG-0.27  OA
BRANCH 20 23
ATOM     23  CA  GLY H  76     -11.845   5.073  -4.607  1.00 16.50 LIG 0.23  C 
BRANCH 23 24
ATOM     24  C   GLY H  76     -11.277   6.439  -4.941  1.00 16.76 LIG 0.19  C 
ATOM     25 O    GLY H  76     -12.019   7.416  -4.933  1.00 16.89 LIG-0.65  OA
ATOM     26 OXT  GLY H  76     -10.080   6.578  -5.220  1.00 15.95 LIG-0.65  OA
ENDBRANCH 23 24
ENDBRANCH 20 23
ENDBRANCH 18 19
ENDBRANCH 15 18
ENDBRANCH 1 14
BRANCH 1 27
ATOM     27  N   ARG H  74      -6.168   5.423   0.350  1.00 22.12 LIG-0.35  N 
ATOM     28 H    ARG H  74      -5.793   6.196   0.383  1.00 22.12 LIG 0.16  HD
ATOM     29  C   LEU H  73      -5.514   4.281   0.152  1.00 24.75 LIG 0.26  C 
ATOM     30 O    LEU H  73      -5.997   3.195   0.468  1.00 25.51 LIG-0.27  OA
BRANCH 29 31
ATOM     31  CA  LEU H  73      -4.107   4.353  -0.483  1.00 25.64 LIG 0.40  C 
ATOM     32  N   LEU H  73      -3.042   3.569   0.208  1.00 27.50 LIG 0.61  N 
BRANCH 31 33
ATOM     33  CB  LEU H  73      -4.146   4.011  -1.983  1.00 26.32 LIG 0.06  C 
BRANCH 33 34
ATOM     34  CG  LEU H  73      -5.360   3.504  -2.769  1.00 25.96 LIG-0.02  C 
ATOM     35  CD2 LEU H  73      -5.106   2.040  -3.107  1.00 27.32 LIG 0.01  C 
ATOM     36  CD1 LEU H  73      -5.579   4.277  -4.026  1.00 27.59 LIG 0.01  C 
ENDBRANCH 33 34
ENDBRANCH 31 33
ENDBRANCH 29 31
ENDBRANCH 1 27
TORSDOF 13
ENDMDL
