MODEL 1
USER: ADFR SOLUTION from run 20
USER: SCORE 12.863004 LL:  -3.050 LR: -12.542 RR:   0.000 FEB:  -7.173
USER: RMSD 2.367386
USER: SEED 19
USER: STATUS no improvement in best in 7 clusters for 5 generations
USER: GENES 20
USER: genes 0 Translation |==|  0.62478 0.49017 0.49804
USER: genes 1 Rotation |==|  0.55952 0.33703 0.67567 0.93479
USER: genes 2 Torsion [N]-C--CA-[N] |==|  0.45341
USER: genes 3 Torsion [C]-CA--N-[C] |==|  0.49657
USER: genes 4 Torsion [N]-C--CA-[N] |==|  0.37340
USER: genes 5 Torsion [C]-CA--CB-[CG] |==|  0.31510
USER: genes 6 Torsion [CA]-CB--CG-[CD] |==|  0.86841
USER: genes 7 Torsion [CB]-CG--CD-[OE1] |==|  0.88215
USER: genes 8 Torsion [C]-CA--N-[C] |==|  0.71834
USER: genes 9 Torsion [N]-C--CA-[N] |==|  0.46161
USER: genes 10 Torsion [C]-CA--N-[H1] |==|  0.71008
USER: genes 11 Torsion [C]-N--CA-[CB] |==|  0.14352
USER: genes 12 Torsion [N]-CA--C-[N] |==|  0.64098
USER: genes 13 Torsion [C]-N--CA-[CB] |==|  0.30282
USER: genes 14 Torsion [N]-CA--CB-[CG] |==|  0.42673
USER: genes 15 Torsion [CA]-CB--CG-[CD] |==|  0.39004
USER: genes 16 Torsion [CB]-CG--CD-[OE1] |==|  0.19419
USER: genes 17 Torsion [N]-CA--C-[N] |==|  0.32740
USER: genes 18 Torsion [C]-N--CA-[C] |==|  0.67706
USER: genes 19 Torsion [N]-CA--C-[O] |==|  0.20314
ROOT
ATOM      1  C   ALA Z   3      34.455  51.361  46.876  1.00 51.02 LIG 0.24  C 
ATOM      2 O    ALA Z   3      35.311  50.801  47.548  1.00 42.99 LIG-0.27  OA
ATOM      3  N   ALA Z   4      34.202  51.043  45.611  1.00 57.04 LIG-0.35  N 
ATOM      4 H    ALA Z   4      33.568  51.390  45.146  1.00 57.04 LIG 0.16  HD
ENDROOT
BRANCH 1 5
ATOM      5  CA  ALA Z   3      33.606  52.455  47.491  1.00 57.97 LIG 0.17  C 
ATOM      6  CB  ALA Z   3      34.050  53.821  46.987  1.00 56.61 LIG 0.04  C 
BRANCH 5 7
ATOM      7  N   ALA Z   3      33.767  52.354  48.932  1.00 65.45 LIG-0.35  N 
ATOM      8 H    ALA Z   3      34.278  51.710  49.186  1.00 65.45 LIG 0.16  HD
ATOM      9  C   GLU Z   2      33.167  53.193  49.766  1.00 71.12 LIG 0.24  C 
ATOM     10 O    GLU Z   2      32.588  54.215  49.393  1.00 75.44 LIG-0.27  OA
BRANCH 9 11
ATOM     11  CA  GLU Z   2      33.235  52.821  51.242  1.00 68.69 LIG 0.18  C 
BRANCH 11 12
ATOM     12  CB  GLU Z   2      31.889  52.234  51.671  1.00 66.81 LIG 0.04  C 
BRANCH 12 13
ATOM     13  CG  GLU Z   2      31.958  50.770  52.040  1.00 69.78 LIG 0.12  C 
BRANCH 13 14
ATOM     14  CD  GLU Z   2      32.711  49.948  51.020  1.00 73.92 LIG 0.17  C 
ATOM     15 OE2  GLU Z   2      33.521  49.087  51.425  1.00 73.75 LIG-0.65  OA
ATOM     16 OE1  GLU Z   2      32.501  50.173  49.810  1.00 77.56 LIG-0.65  OA
ENDBRANCH 13 14
ENDBRANCH 12 13
ENDBRANCH 11 12
BRANCH 11 17
ATOM     17  N   GLU Z   2      33.583  53.951  52.093  1.00 66.77 LIG-0.35  N 
ATOM     18 H    GLU Z   2      32.931  54.489  52.252  1.00 66.77 LIG 0.16  HD
ATOM     19  C   ALA Z   1      34.813  54.116  52.570  1.00 62.39 LIG 0.25  C 
ATOM     20 O    ALA Z   1      35.771  53.428  52.217  1.00 53.49 LIG-0.27  OA
BRANCH 19 21
ATOM     21  CA  ALA Z   1      34.979  55.235  53.601  1.00 66.83 LIG 0.27  C 
ATOM     22  CB  ALA Z   1      34.824  56.602  52.948  1.00 68.73 LIG 0.05  C 
BRANCH 21 23
ATOM     23  N   ALA Z   1      36.257  55.138  54.301  1.00 64.95 LIG-0.07  N 
ATOM     24 H3   ALA Z   1      36.628  55.945  54.356  1.00 64.95 LIG 0.28  HD
ATOM     25 H2   ALA Z   1      36.799  54.591  53.855  1.00 64.95 LIG 0.28  HD
ATOM     26 H1   ALA Z   1      36.123  54.817  55.121  1.00 64.95 LIG 0.28  HD
ENDBRANCH 21 23
ENDBRANCH 19 21
ENDBRANCH 11 17
ENDBRANCH 9 11
ENDBRANCH 5 7
ENDBRANCH 1 5
BRANCH 3 27
ATOM     27  CA  ALA Z   4      35.003  50.054  44.895  1.00 62.38 LIG 0.17  C 
ATOM     28  CB  ALA Z   4      35.101  48.754  45.702  1.00 63.33 LIG 0.04  C 
BRANCH 27 29
ATOM     29  C   ALA Z   4      34.437  49.789  43.495  1.00 62.21 LIG 0.24  C 
ATOM     30  N   GLN Z   5      34.240  48.515  43.164  1.00 63.49 LIG-0.35  N 
ATOM     31 H    GLN Z   5      34.466  47.852  43.664  1.00 63.49 LIG 0.16  HD
ATOM     32 O    ALA Z   4      34.194  50.721  42.729  1.00 60.79 LIG-0.27  OA
BRANCH 30 33
ATOM     33  CA  GLN Z   5      33.612  48.127  41.900  1.00 64.68 LIG 0.18  C 
BRANCH 33 34
ATOM     34  CB  GLN Z   5      34.641  47.501  40.956  1.00 64.60 LIG 0.04  C 
BRANCH 34 35
ATOM     35  CG  GLN Z   5      34.054  46.531  39.949  1.00 70.87 LIG 0.10  C 
BRANCH 35 36
ATOM     36  CD  GLN Z   5      34.697  46.662  38.582  1.00 74.77 LIG 0.21  C 
ATOM     37  NE2 GLN Z   5      33.948  47.184  37.619  1.00 75.28 LIG-0.37  N 
ATOM     38 22HE GLN Z   5      34.271  47.282  36.828  1.00 75.28 LIG 0.16  HD
ATOM     39 21HE GLN Z   5      33.139  47.424  37.785  1.00 75.28 LIG 0.16  HD
ATOM     40 OE1  GLN Z   5      35.860  46.303  38.396  1.00 77.42 LIG-0.27  OA
ENDBRANCH 35 36
ENDBRANCH 34 35
ENDBRANCH 33 34
BRANCH 33 41
ATOM     41  C   GLN Z   5      32.447  47.162  42.116  1.00 64.95 LIG 0.24  C 
ATOM     42 O    GLN Z   5      32.632  46.055  42.620  1.00 67.50 LIG-0.27  OA
ATOM     43  N   ALA Z   6      31.250  47.591  41.727  1.00 62.70 LIG-0.35  N 
ATOM     44 H    ALA Z   6      31.114  48.360  41.366  1.00 62.70 LIG 0.16  HD
BRANCH 43 45
ATOM     45  CA  ALA Z   6      30.041  46.781  41.880  1.00 61.33 LIG 0.16  C 
ATOM     46  CB  ALA Z   6      29.038  47.498  42.776  1.00 62.02 LIG 0.04  C 
BRANCH 45 47
ATOM     47  C   ALA Z   6      29.395  46.400  40.541  1.00 59.00 LIG 0.22  C 
ATOM     48 O    ALA Z   6      29.903  45.553  39.800  1.00 53.12 LIG-0.29  OA
ENDBRANCH 45 47
ENDBRANCH 43 45
ENDBRANCH 33 41
ENDBRANCH 30 33
ENDBRANCH 27 29
ENDBRANCH 3 27
TORSDOF 18
ENDMDL
MODEL 2
USER: ADFR SOLUTION from run 129
USER: SCORE 13.768713 LL:  -3.501 LR: -12.346 RR:   0.000 FEB:  -6.976
USER: RMSD 3.263557
USER: SEED 128
USER: STATUS no improvement in best in 5 clusters for 5 generations
USER: GENES 20
USER: genes 0 Translation |==|  0.52581 0.49392 0.52021
USER: genes 1 Rotation |==|  0.54140 0.46694 0.56704 0.99264
USER: genes 2 Torsion [N]-C--CA-[N] |==|  0.41120
USER: genes 3 Torsion [C]-CA--N-[C] |==|  0.56496
USER: genes 4 Torsion [N]-C--CA-[N] |==|  0.44967
USER: genes 5 Torsion [C]-CA--CB-[CG] |==|  0.20453
USER: genes 6 Torsion [CA]-CB--CG-[CD] |==|  0.64950
USER: genes 7 Torsion [CB]-CG--CD-[OE1] |==|  0.23773
USER: genes 8 Torsion [C]-CA--N-[C] |==|  0.71303
USER: genes 9 Torsion [N]-C--CA-[N] |==|  0.38753
USER: genes 10 Torsion [C]-CA--N-[H1] |==|  0.48446
USER: genes 11 Torsion [C]-N--CA-[CB] |==|  0.48436
USER: genes 12 Torsion [N]-CA--C-[N] |==|  0.42403
USER: genes 13 Torsion [C]-N--CA-[CB] |==|  0.28884
USER: genes 14 Torsion [N]-CA--CB-[CG] |==|  0.91982
USER: genes 15 Torsion [CA]-CB--CG-[CD] |==|  0.79227
USER: genes 16 Torsion [CB]-CG--CD-[OE1] |==|  0.93676
USER: genes 17 Torsion [N]-CA--C-[N] |==|  0.39378
USER: genes 18 Torsion [C]-N--CA-[C] |==|  0.50141
USER: genes 19 Torsion [N]-CA--C-[O] |==|  0.32322
ROOT
ATOM      1  C   ALA Z   3      32.822  51.434  47.425  1.00 51.02 LIG 0.24  C 
ATOM      2 O    ALA Z   3      33.637  50.564  47.703  1.00 42.99 LIG-0.27  OA
ATOM      3  N   ALA Z   4      31.826  51.247  46.564  1.00 57.04 LIG-0.35  N 
ATOM      4 H    ALA Z   4      31.216  51.831  46.402  1.00 57.04 LIG 0.16  HD
ENDROOT
BRANCH 1 5
ATOM      5  CA  ALA Z   3      32.904  52.791  48.094  1.00 57.97 LIG 0.17  C 
ATOM      6  CB  ALA Z   3      33.783  53.733  47.284  1.00 56.61 LIG 0.04  C 
BRANCH 5 7
ATOM      7  N   ALA Z   3      33.458  52.573  49.421  1.00 65.45 LIG-0.35  N 
ATOM      8 H    ALA Z   3      33.922  51.853  49.495  1.00 65.45 LIG 0.16  HD
ATOM      9  C   GLU Z   2      33.253  53.426  50.416  1.00 71.12 LIG 0.24  C 
ATOM     10 O    GLU Z   2      32.746  54.538  50.256  1.00 75.44 LIG-0.27  OA
BRANCH 9 11
ATOM     11  CA  GLU Z   2      33.689  52.951  51.796  1.00 68.69 LIG 0.18  C 
BRANCH 11 12
ATOM     12  CB  GLU Z   2      32.677  51.929  52.314  1.00 66.81 LIG 0.04  C 
BRANCH 12 13
ATOM     13  CG  GLU Z   2      32.771  50.584  51.632  1.00 69.78 LIG 0.12  C 
BRANCH 13 14
ATOM     14  CD  GLU Z   2      31.447  50.128  51.062  1.00 73.92 LIG 0.17  C 
ATOM     15 OE2  GLU Z   2      30.729  49.371  51.750  1.00 73.75 LIG-0.65  OA
ATOM     16 OE1  GLU Z   2      31.131  50.519  49.920  1.00 77.56 LIG-0.65  OA
ENDBRANCH 13 14
ENDBRANCH 12 13
ENDBRANCH 11 12
BRANCH 11 17
ATOM     17  N   GLU Z   2      33.834  54.043  52.749  1.00 66.77 LIG-0.35  N 
ATOM     18 H    GLU Z   2      33.089  54.346  53.056  1.00 66.77 LIG 0.16  HD
ATOM     19  C   ALA Z   1      35.026  54.516  53.098  1.00 62.39 LIG 0.25  C 
ATOM     20 O    ALA Z   1      36.073  54.180  52.544  1.00 53.49 LIG-0.27  OA
BRANCH 19 21
ATOM     21  CA  ALA Z   1      35.028  55.526  54.248  1.00 66.83 LIG 0.27  C 
ATOM     22  CB  ALA Z   1      35.041  56.953  53.716  1.00 68.73 LIG 0.05  C 
BRANCH 21 23
ATOM     23  N   ALA Z   1      36.146  55.303  55.160  1.00 64.95 LIG-0.07  N 
ATOM     24 H3   ALA Z   1      36.909  55.303  54.701  1.00 64.95 LIG 0.28  HD
ATOM     25 H2   ALA Z   1      36.045  54.518  55.568  1.00 64.95 LIG 0.28  HD
ATOM     26 H1   ALA Z   1      36.167  55.952  55.769  1.00 64.95 LIG 0.28  HD
ENDBRANCH 21 23
ENDBRANCH 19 21
ENDBRANCH 11 17
ENDBRANCH 9 11
ENDBRANCH 5 7
ENDBRANCH 1 5
BRANCH 3 27
ATOM     27  CA  ALA Z   4      31.690  50.005  45.809  1.00 62.38 LIG 0.17  C 
ATOM     28  CB  ALA Z   4      30.386  50.006  45.003  1.00 63.33 LIG 0.04  C 
BRANCH 27 29
ATOM     29  C   ALA Z   4      32.900  49.776  44.895  1.00 62.21 LIG 0.24  C 
ATOM     30  N   GLN Z   5      33.192  48.511  44.600  1.00 63.49 LIG-0.35  N 
ATOM     31 H    GLN Z   5      32.780  47.836  44.938  1.00 63.49 LIG 0.16  HD
ATOM     32 O    ALA Z   4      33.560  50.727  44.477  1.00 60.79 LIG-0.27  OA
BRANCH 30 33
ATOM     33  CA  GLN Z   5      34.257  48.157  43.661  1.00 64.68 LIG 0.18  C 
BRANCH 33 34
ATOM     34  CB  GLN Z   5      35.494  47.657  44.411  1.00 64.60 LIG 0.04  C 
BRANCH 34 35
ATOM     35  CG  GLN Z   5      35.659  48.242  45.800  1.00 70.87 LIG 0.10  C 
BRANCH 35 36
ATOM     36  CD  GLN Z   5      36.138  49.680  45.764  1.00 74.77 LIG 0.21  C 
ATOM     37  NE2 GLN Z   5      35.885  50.419  46.837  1.00 75.28 LIG-0.37  N 
ATOM     38 22HE GLN Z   5      36.141  51.239  46.864  1.00 75.28 LIG 0.16  HD
ATOM     39 21HE GLN Z   5      35.464  50.078  47.504  1.00 75.28 LIG 0.16  HD
ATOM     40 OE1  GLN Z   5      36.737  50.120  44.782  1.00 77.42 LIG-0.27  OA
ENDBRANCH 35 36
ENDBRANCH 34 35
ENDBRANCH 33 34
BRANCH 33 41
ATOM     41  C   GLN Z   5      33.798  47.106  42.651  1.00 64.95 LIG 0.24  C 
ATOM     42 O    GLN Z   5      33.060  46.183  42.995  1.00 67.50 LIG-0.27  OA
ATOM     43  N   ALA Z   6      34.245  47.252  41.407  1.00 62.70 LIG-0.35  N 
ATOM     44 H    ALA Z   6      34.768  47.888  41.162  1.00 62.70 LIG 0.16  HD
BRANCH 43 45
ATOM     45  CA  ALA Z   6      33.882  46.328  40.333  1.00 61.33 LIG 0.16  C 
ATOM     46  CB  ALA Z   6      32.366  46.246  40.201  1.00 62.02 LIG 0.04  C 
BRANCH 45 47
ATOM     47  C   ALA Z   6      34.525  46.686  38.986  1.00 59.00 LIG 0.22  C 
ATOM     48 O    ALA Z   6      35.328  45.928  38.435  1.00 53.12 LIG-0.29  OA
ENDBRANCH 45 47
ENDBRANCH 43 45
ENDBRANCH 33 41
ENDBRANCH 30 33
ENDBRANCH 27 29
ENDBRANCH 3 27
TORSDOF 18
ENDMDL
MODEL 3
USER: ADFR SOLUTION from run 43
USER: SCORE 12.917672 LL:  -3.581 LR: -12.019 RR:   0.000 FEB:  -6.650
USER: RMSD 1.273080
USER: SEED 42
USER: STATUS no improvement in best in 9 clusters for 5 generations
USER: GENES 20
USER: genes 0 Translation |==|  0.50491 0.47626 0.52188
USER: genes 1 Rotation |==|  0.54868 0.59425 0.51215 0.98847
USER: genes 2 Torsion [N]-C--CA-[N] |==|  0.31219
USER: genes 3 Torsion [C]-CA--N-[C] |==|  0.65673
USER: genes 4 Torsion [N]-C--CA-[N] |==|  0.41844
USER: genes 5 Torsion [C]-CA--CB-[CG] |==|  0.18646
USER: genes 6 Torsion [CA]-CB--CG-[CD] |==|  0.62477
USER: genes 7 Torsion [CB]-CG--CD-[OE1] |==|  0.23176
USER: genes 8 Torsion [C]-CA--N-[C] |==|  0.74545
USER: genes 9 Torsion [N]-C--CA-[N] |==|  0.34979
USER: genes 10 Torsion [C]-CA--N-[H1] |==|  0.52133
USER: genes 11 Torsion [C]-N--CA-[CB] |==|  0.43069
USER: genes 12 Torsion [N]-CA--C-[N] |==|  0.43896
USER: genes 13 Torsion [C]-N--CA-[CB] |==|  0.24240
USER: genes 14 Torsion [N]-CA--CB-[CG] |==|  0.48018
USER: genes 15 Torsion [CA]-CB--CG-[CD] |==|  0.65485
USER: genes 16 Torsion [CB]-CG--CD-[OE1] |==|  0.02393
USER: genes 17 Torsion [N]-CA--C-[N] |==|  0.40053
USER: genes 18 Torsion [C]-N--CA-[C] |==|  0.68070
USER: genes 19 Torsion [N]-CA--C-[O] |==|  0.08403
ROOT
ATOM      1  C   ALA Z   3      32.477  51.090  47.466  1.00 51.02 LIG 0.24  C 
ATOM      2 O    ALA Z   3      33.173  50.088  47.357  1.00 42.99 LIG-0.27  OA
ATOM      3  N   ALA Z   4      31.168  51.093  47.234  1.00 57.04 LIG-0.35  N 
ATOM      4 H    ALA Z   4      30.660  51.775  47.361  1.00 57.04 LIG 0.16  HD
ENDROOT
BRANCH 1 5
ATOM      5  CA  ALA Z   3      33.098  52.398  47.912  1.00 57.97 LIG 0.17  C 
ATOM      6  CB  ALA Z   3      34.275  52.761  47.018  1.00 56.61 LIG 0.04  C 
BRANCH 5 7
ATOM      7  N   ALA Z   3      33.527  52.214  49.288  1.00 65.45 LIG-0.35  N 
ATOM      8 H    ALA Z   3      34.068  51.555  49.404  1.00 65.45 LIG 0.16  HD
ATOM      9  C   GLU Z   2      33.107  53.005  50.267  1.00 71.12 LIG 0.24  C 
ATOM     10 O    GLU Z   2      32.483  54.049  50.068  1.00 75.44 LIG-0.27  OA
BRANCH 9 11
ATOM     11  CA  GLU Z   2      33.447  52.549  51.680  1.00 68.69 LIG 0.18  C 
BRANCH 11 12
ATOM     12  CB  GLU Z   2      32.357  51.598  52.173  1.00 66.81 LIG 0.04  C 
BRANCH 12 13
ATOM     13  CG  GLU Z   2      32.314  50.285  51.423  1.00 69.78 LIG 0.12  C 
BRANCH 13 14
ATOM     14  CD  GLU Z   2      30.908  49.876  51.050  1.00 73.92 LIG 0.17  C 
ATOM     15 OE2  GLU Z   2      30.306  49.064  51.787  1.00 73.75 LIG-0.65  OA
ATOM     16 OE1  GLU Z   2      30.408  50.357  50.013  1.00 77.56 LIG-0.65  OA
ENDBRANCH 13 14
ENDBRANCH 12 13
ENDBRANCH 11 12
BRANCH 11 17
ATOM     17  N   GLU Z   2      33.602  53.660  52.609  1.00 66.77 LIG-0.35  N 
ATOM     18 H    GLU Z   2      32.872  53.907  52.991  1.00 66.77 LIG 0.16  HD
ATOM     19  C   ALA Z   1      34.783  54.228  52.833  1.00 62.39 LIG 0.25  C 
ATOM     20 O    ALA Z   1      35.791  53.968  52.175  1.00 53.49 LIG-0.27  OA
BRANCH 19 21
ATOM     21  CA  ALA Z   1      34.823  55.247  53.973  1.00 66.83 LIG 0.27  C 
ATOM     22  CB  ALA Z   1      35.007  56.659  53.432  1.00 68.73 LIG 0.05  C 
BRANCH 21 23
ATOM     23  N   ALA Z   1      35.863  54.927  54.947  1.00 64.95 LIG-0.07  N 
ATOM     24 H3   ALA Z   1      36.664  55.034  54.572  1.00 64.95 LIG 0.28  HD
ATOM     25 H2   ALA Z   1      35.771  54.083  55.214  1.00 64.95 LIG 0.28  HD
ATOM     26 H1   ALA Z   1      35.790  55.469  55.649  1.00 64.95 LIG 0.28  HD
ENDBRANCH 21 23
ENDBRANCH 19 21
ENDBRANCH 11 17
ENDBRANCH 9 11
ENDBRANCH 5 7
ENDBRANCH 1 5
BRANCH 3 27
ATOM     27  CA  ALA Z   4      30.476  49.909  46.734  1.00 62.38 LIG 0.17  C 
ATOM     28  CB  ALA Z   4      28.994  49.945  47.127  1.00 63.33 LIG 0.04  C 
BRANCH 27 29
ATOM     29  C   ALA Z   4      30.638  49.772  45.216  1.00 62.21 LIG 0.24  C 
ATOM     30  N   GLN Z   5      30.463  48.555  44.706  1.00 63.49 LIG-0.35  N 
ATOM     31 H    GLN Z   5      30.326  47.853  45.184  1.00 63.49 LIG 0.16  HD
ATOM     32 O    ALA Z   4      30.926  50.748  44.524  1.00 60.79 LIG-0.27  OA
BRANCH 30 33
ATOM     33  CA  GLN Z   5      30.490  48.303  43.264  1.00 64.68 LIG 0.18  C 
BRANCH 33 34
ATOM     34  CB  GLN Z   5      31.921  48.047  42.787  1.00 64.60 LIG 0.04  C 
BRANCH 34 35
ATOM     35  CG  GLN Z   5      32.026  47.609  41.340  1.00 70.87 LIG 0.10  C 
BRANCH 35 36
ATOM     36  CD  GLN Z   5      32.763  46.292  41.190  1.00 74.77 LIG 0.21  C 
ATOM     37  NE2 GLN Z   5      33.067  45.917  39.953  1.00 75.28 LIG-0.37  N 
ATOM     38 22HE GLN Z   5      33.488  45.180  39.819  1.00 75.28 LIG 0.16  HD
ATOM     39 21HE GLN Z   5      32.842  46.411  39.287  1.00 75.28 LIG 0.16  HD
ATOM     40 OE1  GLN Z   5      33.062  45.621  42.178  1.00 77.42 LIG-0.27  OA
ENDBRANCH 35 36
ENDBRANCH 34 35
ENDBRANCH 33 34
BRANCH 33 41
ATOM     41  C   GLN Z   5      29.592  47.129  42.875  1.00 64.95 LIG 0.24  C 
ATOM     42 O    GLN Z   5      29.482  46.150  43.612  1.00 67.50 LIG-0.27  OA
ATOM     43  N   ALA Z   6      28.958  47.236  41.711  1.00 62.70 LIG-0.35  N 
ATOM     44 H    ALA Z   6      29.037  47.913  41.187  1.00 62.70 LIG 0.16  HD
BRANCH 43 45
ATOM     45  CA  ALA Z   6      28.058  46.197  41.213  1.00 61.33 LIG 0.16  C 
ATOM     46  CB  ALA Z   6      26.660  46.768  41.003  1.00 62.02 LIG 0.04  C 
BRANCH 45 47
ATOM     47  C   ALA Z   6      28.565  45.521  39.931  1.00 59.00 LIG 0.22  C 
ATOM     48 O    ALA Z   6      29.771  45.409  39.697  1.00 53.12 LIG-0.29  OA
ENDBRANCH 45 47
ENDBRANCH 43 45
ENDBRANCH 33 41
ENDBRANCH 30 33
ENDBRANCH 27 29
ENDBRANCH 3 27
TORSDOF 18
ENDMDL
MODEL 4
USER: ADFR SOLUTION from run 12
USER: SCORE 13.392352 LL:  -3.461 LR: -11.694 RR:   0.000 FEB:  -6.325
USER: RMSD 3.247609
USER: SEED 264827
USER: STATUS searching
USER: GENES 20
USER: genes 0 Translation |==|  0.52553 0.48302 0.51655
USER: genes 1 Rotation |==|  0.53017 0.43417 0.53923 0.99317
USER: genes 2 Torsion [N]-C--CA-[N] |==|  0.42558
USER: genes 3 Torsion [C]-CA--N-[C] |==|  0.59797
USER: genes 4 Torsion [N]-C--CA-[N] |==|  0.42503
USER: genes 5 Torsion [C]-CA--CB-[CG] |==|  0.17290
USER: genes 6 Torsion [CA]-CB--CG-[CD] |==|  0.62864
USER: genes 7 Torsion [CB]-CG--CD-[OE1] |==|  0.29055
USER: genes 8 Torsion [C]-CA--N-[C] |==|  0.74650
USER: genes 9 Torsion [N]-C--CA-[N] |==|  0.31632
USER: genes 10 Torsion [C]-CA--N-[H1] |==|  0.61881
USER: genes 11 Torsion [C]-N--CA-[CB] |==|  0.50807
USER: genes 12 Torsion [N]-CA--C-[N] |==|  0.49972
USER: genes 13 Torsion [C]-N--CA-[CB] |==|  0.55131
USER: genes 14 Torsion [N]-CA--CB-[CG] |==|  0.38906
USER: genes 15 Torsion [CA]-CB--CG-[CD] |==|  0.65050
USER: genes 16 Torsion [CB]-CG--CD-[OE1] |==|  0.93060
USER: genes 17 Torsion [N]-CA--C-[N] |==|  0.86959
USER: genes 18 Torsion [C]-N--CA-[C] |==|  0.72325
USER: genes 19 Torsion [N]-CA--C-[O] |==|  0.09611
ROOT
ATOM      1  C   ALA Z   3      32.817  51.222  47.335  1.00 51.02 LIG 0.24  C 
ATOM      2 O    ALA Z   3      33.477  50.267  47.724  1.00 42.99 LIG-0.27  OA
ATOM      3  N   ALA Z   4      31.921  51.134  46.357  1.00 57.04 LIG-0.35  N 
ATOM      4 H    ALA Z   4      31.412  51.783  46.112  1.00 57.04 LIG 0.16  HD
ENDROOT
BRANCH 1 5
ATOM      5  CA  ALA Z   3      32.984  52.576  47.993  1.00 57.97 LIG 0.17  C 
ATOM      6  CB  ALA Z   3      33.975  53.429  47.214  1.00 56.61 LIG 0.04  C 
BRANCH 5 7
ATOM      7  N   ALA Z   3      33.458  52.331  49.345  1.00 65.45 LIG-0.35  N 
ATOM      8 H    ALA Z   3      33.991  51.660  49.416  1.00 65.45 LIG 0.16  HD
ATOM      9  C   GLU Z   2      33.088  53.091  50.367  1.00 71.12 LIG 0.24  C 
ATOM     10 O    GLU Z   2      32.476  54.152  50.231  1.00 75.44 LIG-0.27  OA
BRANCH 9 11
ATOM     11  CA  GLU Z   2      33.470  52.575  51.749  1.00 68.69 LIG 0.18  C 
BRANCH 11 12
ATOM     12  CB  GLU Z   2      32.410  51.579  52.219  1.00 66.81 LIG 0.04  C 
BRANCH 12 13
ATOM     13  CG  GLU Z   2      32.296  50.355  51.339  1.00 69.78 LIG 0.12  C 
BRANCH 13 14
ATOM     14  CD  GLU Z   2      30.863  50.011  51.006  1.00 73.92 LIG 0.17  C 
ATOM     15 OE2  GLU Z   2      30.160  49.463  51.883  1.00 73.75 LIG-0.65  OA
ATOM     16 OE1  GLU Z   2      30.442  50.277  49.861  1.00 77.56 LIG-0.65  OA
ENDBRANCH 13 14
ENDBRANCH 12 13
ENDBRANCH 11 12
BRANCH 11 17
ATOM     17  N   GLU Z   2      33.623  53.644  52.727  1.00 66.77 LIG-0.35  N 
ATOM     18 H    GLU Z   2      32.898  53.853  53.140  1.00 66.77 LIG 0.16  HD
ATOM     19  C   ALA Z   1      34.796  54.230  52.947  1.00 62.39 LIG 0.25  C 
ATOM     20 O    ALA Z   1      35.791  54.029  52.250  1.00 53.49 LIG-0.27  OA
BRANCH 19 21
ATOM     21  CA  ALA Z   1      34.843  55.194  54.134  1.00 66.83 LIG 0.27  C 
ATOM     22  CB  ALA Z   1      35.270  56.586  53.686  1.00 68.73 LIG 0.05  C 
BRANCH 21 23
ATOM     23  N   ALA Z   1      35.717  54.701  55.195  1.00 64.95 LIG-0.07  N 
ATOM     24 H3   ALA Z   1      36.491  55.141  55.171  1.00 64.95 LIG 0.28  HD
ATOM     25 H2   ALA Z   1      35.866  53.832  55.077  1.00 64.95 LIG 0.28  HD
ATOM     26 H1   ALA Z   1      35.328  54.830  55.985  1.00 64.95 LIG 0.28  HD
ENDBRANCH 21 23
ENDBRANCH 19 21
ENDBRANCH 11 17
ENDBRANCH 9 11
ENDBRANCH 5 7
ENDBRANCH 1 5
BRANCH 3 27
ATOM     27  CA  ALA Z   4      31.726  49.898  45.605  1.00 62.38 LIG 0.17  C 
ATOM     28  CB  ALA Z   4      30.686  50.100  44.497  1.00 63.33 LIG 0.04  C 
BRANCH 27 29
ATOM     29  C   ALA Z   4      33.050  49.385  45.028  1.00 62.21 LIG 0.24  C 
ATOM     30  N   GLN Z   5      32.995  48.258  44.322  1.00 63.49 LIG-0.35  N 
ATOM     31 H    GLN Z   5      32.281  47.788  44.228  1.00 63.49 LIG 0.16  HD
ATOM     32 O    ALA Z   4      34.101  49.994  45.229  1.00 60.79 LIG-0.27  OA
BRANCH 30 33
ATOM     33  CA  GLN Z   5      34.166  47.713  43.633  1.00 64.68 LIG 0.18  C 
BRANCH 33 34
ATOM     34  CB  GLN Z   5      33.741  46.709  42.558  1.00 64.60 LIG 0.04  C 
BRANCH 34 35
ATOM     35  CG  GLN Z   5      34.540  46.797  41.273  1.00 70.87 LIG 0.10  C 
BRANCH 35 36
ATOM     36  CD  GLN Z   5      33.652  46.974  40.056  1.00 74.77 LIG 0.21  C 
ATOM     37  NE2 GLN Z   5      34.204  47.551  38.995  1.00 75.28 LIG-0.37  N 
ATOM     38 22HE GLN Z   5      33.741  47.668  38.281  1.00 75.28 LIG 0.16  HD
ATOM     39 21HE GLN Z   5      35.024  47.807  39.023  1.00 75.28 LIG 0.16  HD
ATOM     40 OE1  GLN Z   5      32.483  46.589  40.068  1.00 77.42 LIG-0.27  OA
ENDBRANCH 35 36
ENDBRANCH 34 35
ENDBRANCH 33 34
BRANCH 33 41
ATOM     41  C   GLN Z   5      35.023  48.814  43.009  1.00 64.95 LIG 0.24  C 
ATOM     42 O    GLN Z   5      36.244  48.823  43.162  1.00 67.50 LIG-0.27  OA
ATOM     43  N   ALA Z   6      34.372  49.741  42.312  1.00 62.70 LIG-0.35  N 
ATOM     44 H    ALA Z   6      33.518  49.746  42.209  1.00 62.70 LIG 0.16  HD
BRANCH 43 45
ATOM     45  CA  ALA Z   6      35.061  50.849  41.651  1.00 61.33 LIG 0.16  C 
ATOM     46  CB  ALA Z   6      34.505  51.050  40.246  1.00 62.02 LIG 0.04  C 
BRANCH 45 47
ATOM     47  C   ALA Z   6      35.004  52.159  42.449  1.00 59.00 LIG 0.22  C 
ATOM     48 O    ALA Z   6      35.029  52.162  43.683  1.00 53.12 LIG-0.29  OA
ENDBRANCH 45 47
ENDBRANCH 43 45
ENDBRANCH 33 41
ENDBRANCH 30 33
ENDBRANCH 27 29
ENDBRANCH 3 27
TORSDOF 18
ENDMDL
MODEL 5
USER: ADFR SOLUTION from run 20
USER: SCORE 12.904773 LL:  -3.290 LR: -11.590 RR:   0.000 FEB:  -6.221
USER: RMSD 3.504043
USER: SEED 19
USER: STATUS no improvement in best in 7 clusters for 5 generations
USER: GENES 20
USER: genes 0 Translation |==|  0.63905 0.49309 0.49931
USER: genes 1 Rotation |==|  0.55049 0.30287 0.66798 0.92470
USER: genes 2 Torsion [N]-C--CA-[N] |==|  0.47266
USER: genes 3 Torsion [C]-CA--N-[C] |==|  0.48889
USER: genes 4 Torsion [N]-C--CA-[N] |==|  0.36633
USER: genes 5 Torsion [C]-CA--CB-[CG] |==|  0.31849
USER: genes 6 Torsion [CA]-CB--CG-[CD] |==|  0.85261
USER: genes 7 Torsion [CB]-CG--CD-[OE1] |==|  0.88273
USER: genes 8 Torsion [C]-CA--N-[C] |==|  0.68775
USER: genes 9 Torsion [N]-C--CA-[N] |==|  0.49518
USER: genes 10 Torsion [C]-CA--N-[H1] |==|  0.77649
USER: genes 11 Torsion [C]-N--CA-[CB] |==|  0.17838
USER: genes 12 Torsion [N]-CA--C-[N] |==|  0.66559
USER: genes 13 Torsion [C]-N--CA-[CB] |==|  0.54080
USER: genes 14 Torsion [N]-CA--CB-[CG] |==|  0.68765
USER: genes 15 Torsion [CA]-CB--CG-[CD] |==|  0.77268
USER: genes 16 Torsion [CB]-CG--CD-[OE1] |==|  0.02638
USER: genes 17 Torsion [N]-CA--C-[N] |==|  0.36743
USER: genes 18 Torsion [C]-N--CA-[C] |==|  0.55789
USER: genes 19 Torsion [N]-CA--C-[O] |==|  0.04235
ROOT
ATOM      1  C   ALA Z   3      34.690  51.418  46.908  1.00 51.02 LIG 0.24  C 
ATOM      2 O    ALA Z   3      35.421  50.803  47.674  1.00 42.99 LIG-0.27  OA
ATOM      3  N   ALA Z   4      34.607  51.147  45.609  1.00 57.04 LIG-0.35  N 
ATOM      4 H    ALA Z   4      34.058  51.534  45.072  1.00 57.04 LIG 0.16  HD
ENDROOT
BRANCH 1 5
ATOM      5  CA  ALA Z   3      33.805  52.529  47.435  1.00 57.97 LIG 0.17  C 
ATOM      6  CB  ALA Z   3      34.270  53.878  46.903  1.00 56.61 LIG 0.04  C 
BRANCH 5 7
ATOM      7  N   ALA Z   3      33.890  52.484  48.885  1.00 65.45 LIG-0.35  N 
ATOM      8 H    ALA Z   3      34.359  51.831  49.191  1.00 65.45 LIG 0.16  HD
ATOM      9  C   GLU Z   2      33.287  53.382  49.652  1.00 71.12 LIG 0.24  C 
ATOM     10 O    GLU Z   2      32.773  54.410  49.208  1.00 75.44 LIG-0.27  OA
BRANCH 9 11
ATOM     11  CA  GLU Z   2      33.265  53.072  51.143  1.00 68.69 LIG 0.18  C 
BRANCH 11 12
ATOM     12  CB  GLU Z   2      31.858  52.621  51.538  1.00 66.81 LIG 0.04  C 
BRANCH 12 13
ATOM     13  CG  GLU Z   2      31.789  51.182  51.997  1.00 69.78 LIG 0.12  C 
BRANCH 13 14
ATOM     14  CD  GLU Z   2      32.398  50.225  50.999  1.00 73.92 LIG 0.17  C 
ATOM     15 OE2  GLU Z   2      33.128  49.304  51.424  1.00 73.75 LIG-0.65  OA
ATOM     16 OE1  GLU Z   2      32.156  50.402  49.788  1.00 77.56 LIG-0.65  OA
ENDBRANCH 13 14
ENDBRANCH 12 13
ENDBRANCH 11 12
BRANCH 11 17
ATOM     17  N   GLU Z   2      33.677  54.204  51.961  1.00 66.77 LIG-0.35  N 
ATOM     18 H    GLU Z   2      33.129  54.868  51.950  1.00 66.77 LIG 0.16  HD
ATOM     19  C   ALA Z   1      34.809  54.191  52.658  1.00 62.39 LIG 0.25  C 
ATOM     20 O    ALA Z   1      35.656  53.303  52.551  1.00 53.49 LIG-0.27  OA
BRANCH 19 21
ATOM     21  CA  ALA Z   1      35.011  55.366  53.617  1.00 66.83 LIG 0.27  C 
ATOM     22  CB  ALA Z   1      34.959  56.692  52.869  1.00 68.73 LIG 0.05  C 
BRANCH 21 23
ATOM     23  N   ALA Z   1      36.259  55.243  54.365  1.00 64.95 LIG-0.07  N 
ATOM     24 H3   ALA Z   1      36.499  56.042  54.677  1.00 64.95 LIG 0.28  HD
ATOM     25 H2   ALA Z   1      36.897  54.930  53.829  1.00 64.95 LIG 0.28  HD
ATOM     26 H1   ALA Z   1      36.144  54.682  55.046  1.00 64.95 LIG 0.28  HD
ENDBRANCH 21 23
ENDBRANCH 19 21
ENDBRANCH 11 17
ENDBRANCH 9 11
ENDBRANCH 5 7
ENDBRANCH 1 5
BRANCH 3 27
ATOM     27  CA  ALA Z   4      35.463  50.145  44.979  1.00 62.38 LIG 0.17  C 
ATOM     28  CB  ALA Z   4      35.166  48.752  45.544  1.00 63.33 LIG 0.04  C 
BRANCH 27 29
ATOM     29  C   ALA Z   4      35.307  50.163  43.454  1.00 62.21 LIG 0.24  C 
ATOM     30  N   GLN Z   5      34.892  49.034  42.885  1.00 63.49 LIG-0.35  N 
ATOM     31 H    GLN Z   5      34.768  48.300  43.316  1.00 63.49 LIG 0.16  HD
ATOM     32 O    ALA Z   4      35.570  51.177  42.807  1.00 60.79 LIG-0.27  OA
BRANCH 30 33
ATOM     33  CA  GLN Z   5      34.606  48.943  41.452  1.00 64.68 LIG 0.18  C 
BRANCH 33 34
ATOM     34  CB  GLN Z   5      33.815  47.671  41.139  1.00 64.60 LIG 0.04  C 
BRANCH 34 35
ATOM     35  CG  GLN Z   5      34.580  46.648  40.322  1.00 70.87 LIG 0.10  C 
BRANCH 35 36
ATOM     36  CD  GLN Z   5      34.556  46.963  38.839  1.00 74.77 LIG 0.21  C 
ATOM     37  NE2 GLN Z   5      35.021  46.025  38.023  1.00 75.28 LIG-0.37  N 
ATOM     38 22HE GLN Z   5      35.024  46.157  37.174  1.00 75.28 LIG 0.16  HD
ATOM     39 21HE GLN Z   5      35.320  45.286  38.344  1.00 75.28 LIG 0.16  HD
ATOM     40 OE1  GLN Z   5      34.116  48.038  38.430  1.00 77.42 LIG-0.27  OA
ENDBRANCH 35 36
ENDBRANCH 34 35
ENDBRANCH 33 34
BRANCH 33 41
ATOM     41  C   GLN Z   5      33.846  50.169  40.945  1.00 64.95 LIG 0.24  C 
ATOM     42 O    GLN Z   5      32.860  50.591  41.547  1.00 67.50 LIG-0.27  OA
ATOM     43  N   ALA Z   6      34.312  50.729  39.832  1.00 62.70 LIG-0.35  N 
ATOM     44 H    ALA Z   6      34.995  50.434  39.401  1.00 62.70 LIG 0.16  HD
BRANCH 43 45
ATOM     45  CA  ALA Z   6      33.693  51.912  39.235  1.00 61.33 LIG 0.16  C 
ATOM     46  CB  ALA Z   6      34.072  53.159  40.027  1.00 62.02 LIG 0.04  C 
BRANCH 45 47
ATOM     47  C   ALA Z   6      34.036  52.089  37.750  1.00 59.00 LIG 0.22  C 
ATOM     48 O    ALA Z   6      34.522  51.168  37.088  1.00 53.12 LIG-0.29  OA
ENDBRANCH 45 47
ENDBRANCH 43 45
ENDBRANCH 33 41
ENDBRANCH 30 33
ENDBRANCH 27 29
ENDBRANCH 3 27
TORSDOF 18
ENDMDL
MODEL 6
USER: ADFR SOLUTION from run 91
USER: SCORE 12.462155 LL:  -3.755 LR: -11.531 RR:   0.000 FEB:  -6.162
USER: RMSD 2.429663
USER: SEED 90
USER: STATUS no improvement in best in 7 clusters for 5 generations
USER: GENES 20
USER: genes 0 Translation |==|  0.52464 0.48145 0.52214
USER: genes 1 Rotation |==|  0.55875 0.58768 0.56102 0.98491
USER: genes 2 Torsion [N]-C--CA-[N] |==|  0.31377
USER: genes 3 Torsion [C]-CA--N-[C] |==|  0.61008
USER: genes 4 Torsion [N]-C--CA-[N] |==|  0.42840
USER: genes 5 Torsion [C]-CA--CB-[CG] |==|  0.19749
USER: genes 6 Torsion [CA]-CB--CG-[CD] |==|  0.63551
USER: genes 7 Torsion [CB]-CG--CD-[OE1] |==|  0.23364
USER: genes 8 Torsion [C]-CA--N-[C] |==|  0.75757
USER: genes 9 Torsion [N]-C--CA-[N] |==|  0.39920
USER: genes 10 Torsion [C]-CA--N-[H1] |==|  0.38281
USER: genes 11 Torsion [C]-N--CA-[CB] |==|  0.47222
USER: genes 12 Torsion [N]-CA--C-[N] |==|  0.30613
USER: genes 13 Torsion [C]-N--CA-[CB] |==|  0.50747
USER: genes 14 Torsion [N]-CA--CB-[CG] |==|  0.87688
USER: genes 15 Torsion [CA]-CB--CG-[CD] |==|  0.86978
USER: genes 16 Torsion [CB]-CG--CD-[OE1] |==|  0.87363
USER: genes 17 Torsion [N]-CA--C-[N] |==|  0.91850
USER: genes 18 Torsion [C]-N--CA-[C] |==|  0.48029
USER: genes 19 Torsion [N]-CA--C-[O] |==|  0.97041
ROOT
ATOM      1  C   ALA Z   3      32.803  51.191  47.473  1.00 51.02 LIG 0.24  C 
ATOM      2 O    ALA Z   3      33.672  50.342  47.323  1.00 42.99 LIG-0.27  OA
ATOM      3  N   ALA Z   4      31.523  50.979  47.179  1.00 57.04 LIG-0.35  N 
ATOM      4 H    ALA Z   4      30.896  51.547  47.332  1.00 57.04 LIG 0.16  HD
ENDROOT
BRANCH 1 5
ATOM      5  CA  ALA Z   3      33.160  52.549  48.043  1.00 57.97 LIG 0.17  C 
ATOM      6  CB  ALA Z   3      34.271  53.194  47.227  1.00 56.61 LIG 0.04  C 
BRANCH 5 7
ATOM      7  N   ALA Z   3      33.582  52.330  49.417  1.00 65.45 LIG-0.35  N 
ATOM      8 H    ALA Z   3      34.060  51.625  49.532  1.00 65.45 LIG 0.16  HD
ATOM      9  C   GLU Z   2      33.245  53.161  50.395  1.00 71.12 LIG 0.24  C 
ATOM     10 O    GLU Z   2      32.719  54.257  50.197  1.00 75.44 LIG-0.27  OA
BRANCH 9 11
ATOM     11  CA  GLU Z   2      33.554  52.680  51.807  1.00 68.69 LIG 0.18  C 
BRANCH 11 12
ATOM     12  CB  GLU Z   2      32.425  51.763  52.280  1.00 66.81 LIG 0.04  C 
BRANCH 12 13
ATOM     13  CG  GLU Z   2      32.404  50.421  51.583  1.00 69.78 LIG 0.12  C 
BRANCH 13 14
ATOM     14  CD  GLU Z   2      31.030  50.055  51.070  1.00 73.92 LIG 0.17  C 
ATOM     15 OE2  GLU Z   2      30.308  49.315  51.771  1.00 73.75 LIG-0.65  OA
ATOM     16 OE1  GLU Z   2      30.678  50.500  49.959  1.00 77.56 LIG-0.65  OA
ENDBRANCH 13 14
ENDBRANCH 12 13
ENDBRANCH 11 12
BRANCH 11 17
ATOM     17  N   GLU Z   2      33.736  53.777  52.749  1.00 66.77 LIG-0.35  N 
ATOM     18 H    GLU Z   2      33.021  54.007  53.168  1.00 66.77 LIG 0.16  HD
ATOM     19  C   ALA Z   1      34.918  54.358  52.928  1.00 62.39 LIG 0.25  C 
ATOM     20 O    ALA Z   1      35.898  54.125  52.219  1.00 53.49 LIG-0.27  OA
BRANCH 19 21
ATOM     21  CA  ALA Z   1      34.998  55.358  54.083  1.00 66.83 LIG 0.27  C 
ATOM     22  CB  ALA Z   1      34.697  56.771  53.599  1.00 68.73 LIG 0.05  C 
BRANCH 21 23
ATOM     23  N   ALA Z   1      36.293  55.306  54.754  1.00 64.95 LIG-0.07  N 
ATOM     24 H3   ALA Z   1      36.885  54.900  54.227  1.00 64.95 LIG 0.28  HD
ATOM     25 H2   ALA Z   1      36.215  54.852  55.517  1.00 64.95 LIG 0.28  HD
ATOM     26 H1   ALA Z   1      36.571  56.133  54.930  1.00 64.95 LIG 0.28  HD
ENDBRANCH 21 23
ENDBRANCH 19 21
ENDBRANCH 11 17
ENDBRANCH 9 11
ENDBRANCH 5 7
ENDBRANCH 1 5
BRANCH 3 27
ATOM     27  CA  ALA Z   4      31.075  49.735  46.560  1.00 62.38 LIG 0.17  C 
ATOM     28  CB  ALA Z   4      29.545  49.654  46.560  1.00 63.33 LIG 0.04  C 
BRANCH 27 29
ATOM     29  C   ALA Z   4      31.632  49.591  45.139  1.00 62.21 LIG 0.24  C 
ATOM     30  N   GLN Z   5      32.554  48.649  44.953  1.00 63.49 LIG-0.35  N 
ATOM     31 H    GLN Z   5      32.883  48.173  45.589  1.00 63.49 LIG 0.16  HD
ATOM     32 O    ALA Z   4      31.241  50.327  44.233  1.00 60.79 LIG-0.27  OA
BRANCH 30 33
ATOM     33  CA  GLN Z   5      33.095  48.339  43.629  1.00 64.68 LIG 0.18  C 
BRANCH 33 34
ATOM     34  CB  GLN Z   5      34.084  47.174  43.709  1.00 64.60 LIG 0.04  C 
BRANCH 34 35
ATOM     35  CG  GLN Z   5      35.059  47.263  44.866  1.00 70.87 LIG 0.10  C 
BRANCH 35 36
ATOM     36  CD  GLN Z   5      35.683  48.640  44.987  1.00 74.77 LIG 0.21  C 
ATOM     37  NE2 GLN Z   5      35.744  49.163  46.205  1.00 75.28 LIG-0.37  N 
ATOM     38 22HE GLN Z   5      36.093  49.939  46.323  1.00 75.28 LIG 0.16  HD
ATOM     39 21HE GLN Z   5      35.434  48.724  46.877  1.00 75.28 LIG 0.16  HD
ATOM     40 OE1  GLN Z   5      36.113  49.226  43.992  1.00 77.42 LIG-0.27  OA
ENDBRANCH 35 36
ENDBRANCH 34 35
ENDBRANCH 33 34
BRANCH 33 41
ATOM     41  C   GLN Z   5      31.989  48.017  42.624  1.00 64.95 LIG 0.24  C 
ATOM     42 O    GLN Z   5      32.139  48.258  41.427  1.00 67.50 LIG-0.27  OA
ATOM     43  N   ALA Z   6      30.881  47.479  43.123  1.00 62.70 LIG-0.35  N 
ATOM     44 H    ALA Z   6      30.765  47.316  43.960  1.00 62.70 LIG 0.16  HD
BRANCH 43 45
ATOM     45  CA  ALA Z   6      29.744  47.110  42.281  1.00 61.33 LIG 0.16  C 
ATOM     46  CB  ALA Z   6      30.220  46.304  41.078  1.00 62.02 LIG 0.04  C 
BRANCH 45 47
ATOM     47  C   ALA Z   6      28.648  46.350  43.042  1.00 59.00 LIG 0.22  C 
ATOM     48 O    ALA Z   6      28.835  45.927  44.186  1.00 53.12 LIG-0.29  OA
ENDBRANCH 45 47
ENDBRANCH 43 45
ENDBRANCH 33 41
ENDBRANCH 30 33
ENDBRANCH 27 29
ENDBRANCH 3 27
TORSDOF 18
ENDMDL
MODEL 7
USER: ADFR SOLUTION from run 33
USER: SCORE 12.716833 LL:  -3.601 LR: -11.331 RR:   0.000 FEB:  -5.961
USER: RMSD 2.945847
USER: SEED 32
USER: STATUS no improvement in best in 6 clusters for 5 generations
USER: GENES 20
USER: genes 0 Translation |==|  0.53473 0.47986 0.51432
USER: genes 1 Rotation |==|  0.54624 0.53665 0.59093 0.98811
USER: genes 2 Torsion [N]-C--CA-[N] |==|  0.36113
USER: genes 3 Torsion [C]-CA--N-[C] |==|  0.57915
USER: genes 4 Torsion [N]-C--CA-[N] |==|  0.43725
USER: genes 5 Torsion [C]-CA--CB-[CG] |==|  0.18613
USER: genes 6 Torsion [CA]-CB--CG-[CD] |==|  0.65348
USER: genes 7 Torsion [CB]-CG--CD-[OE1] |==|  0.26206
USER: genes 8 Torsion [C]-CA--N-[C] |==|  0.72398
USER: genes 9 Torsion [N]-C--CA-[N] |==|  0.38463
USER: genes 10 Torsion [C]-CA--N-[H1] |==|  0.81065
USER: genes 11 Torsion [C]-N--CA-[CB] |==|  0.50526
USER: genes 12 Torsion [N]-CA--C-[N] |==|  0.80295
USER: genes 13 Torsion [C]-N--CA-[CB] |==|  0.85902
USER: genes 14 Torsion [N]-CA--CB-[CG] |==|  0.66864
USER: genes 15 Torsion [CA]-CB--CG-[CD] |==|  0.88435
USER: genes 16 Torsion [CB]-CG--CD-[OE1] |==|  0.85639
USER: genes 17 Torsion [N]-CA--C-[N] |==|  0.37392
USER: genes 18 Torsion [C]-N--CA-[C] |==|  0.83854
USER: genes 19 Torsion [N]-CA--C-[O] |==|  0.95444
ROOT
ATOM      1  C   ALA Z   3      32.969  51.160  47.280  1.00 51.02 LIG 0.24  C 
ATOM      2 O    ALA Z   3      33.929  50.403  47.336  1.00 42.99 LIG-0.27  OA
ATOM      3  N   ALA Z   4      31.812  50.825  46.717  1.00 57.04 LIG-0.35  N 
ATOM      4 H    ALA Z   4      31.114  51.327  46.719  1.00 57.04 LIG 0.16  HD
ENDROOT
BRANCH 1 5
ATOM      5  CA  ALA Z   3      33.058  52.542  47.894  1.00 57.97 LIG 0.17  C 
ATOM      6  CB  ALA Z   3      33.960  53.439  47.059  1.00 56.61 LIG 0.04  C 
BRANCH 5 7
ATOM      7  N   ALA Z   3      33.589  52.373  49.236  1.00 65.45 LIG-0.35  N 
ATOM      8 H    ALA Z   3      34.100  51.688  49.330  1.00 65.45 LIG 0.16  HD
ATOM      9  C   GLU Z   2      33.298  53.217  50.218  1.00 71.12 LIG 0.24  C 
ATOM     10 O    GLU Z   2      32.719  54.289  50.035  1.00 75.44 LIG-0.27  OA
BRANCH 9 11
ATOM     11  CA  GLU Z   2      33.729  52.783  51.613  1.00 68.69 LIG 0.18  C 
BRANCH 11 12
ATOM     12  CB  GLU Z   2      32.713  51.778  52.159  1.00 66.81 LIG 0.04  C 
BRANCH 12 13
ATOM     13  CG  GLU Z   2      32.700  50.464  51.411  1.00 69.78 LIG 0.12  C 
BRANCH 13 14
ATOM     14  CD  GLU Z   2      31.327  50.107  50.891  1.00 73.92 LIG 0.17  C 
ATOM     15 OE2  GLU Z   2      30.542  49.496  51.647  1.00 73.75 LIG-0.65  OA
ATOM     16 OE1  GLU Z   2      31.038  50.426  49.720  1.00 77.56 LIG-0.65  OA
ENDBRANCH 13 14
ENDBRANCH 12 13
ENDBRANCH 11 12
BRANCH 11 17
ATOM     17  N   GLU Z   2      33.871  53.903  52.533  1.00 66.77 LIG-0.35  N 
ATOM     18 H    GLU Z   2      33.130  54.181  52.870  1.00 66.77 LIG 0.16  HD
ATOM     19  C   ALA Z   1      35.057  54.435  52.813  1.00 62.39 LIG 0.25  C 
ATOM     20 O    ALA Z   1      36.090  54.130  52.216  1.00 53.49 LIG-0.27  OA
BRANCH 19 21
ATOM     21  CA  ALA Z   1      35.070  55.471  53.939  1.00 66.83 LIG 0.27  C 
ATOM     22  CB  ALA Z   1      35.021  56.885  53.374  1.00 68.73 LIG 0.05  C 
BRANCH 21 23
ATOM     23  N   ALA Z   1      36.226  55.303  54.814  1.00 64.95 LIG-0.07  N 
ATOM     24 H3   ALA Z   1      36.271  55.987  55.383  1.00 64.95 LIG 0.28  HD
ATOM     25 H2   ALA Z   1      36.969  55.276  54.324  1.00 64.95 LIG 0.28  HD
ATOM     26 H1   ALA Z   1      36.146  54.543  55.270  1.00 64.95 LIG 0.28  HD
ENDBRANCH 21 23
ENDBRANCH 19 21
ENDBRANCH 11 17
ENDBRANCH 9 11
ENDBRANCH 5 7
ENDBRANCH 1 5
BRANCH 3 27
ATOM     27  CA  ALA Z   4      31.635  49.547  46.033  1.00 62.38 LIG 0.17  C 
ATOM     28  CB  ALA Z   4      30.225  49.444  45.441  1.00 63.33 LIG 0.04  C 
BRANCH 27 29
ATOM     29  C   ALA Z   4      32.701  49.345  44.950  1.00 62.21 LIG 0.24  C 
ATOM     30  N   GLN Z   5      32.598  50.108  43.864  1.00 63.49 LIG-0.35  N 
ATOM     31 H    GLN Z   5      31.946  50.650  43.723  1.00 63.49 LIG 0.16  HD
ATOM     32 O    ALA Z   4      33.591  48.506  45.093  1.00 60.79 LIG-0.27  OA
BRANCH 30 33
ATOM     33  CA  GLN Z   5      33.604  50.089  42.801  1.00 64.68 LIG 0.18  C 
BRANCH 33 34
ATOM     34  CB  GLN Z   5      35.008  50.268  43.382  1.00 64.60 LIG 0.04  C 
BRANCH 34 35
ATOM     35  CG  GLN Z   5      35.739  51.497  42.878  1.00 70.87 LIG 0.10  C 
BRANCH 35 36
ATOM     36  CD  GLN Z   5      35.542  51.711  41.389  1.00 74.77 LIG 0.21  C 
ATOM     37  NE2 GLN Z   5      35.141  52.918  41.009  1.00 75.28 LIG-0.37  N 
ATOM     38 22HE GLN Z   5      35.021  53.088  40.175  1.00 75.28 LIG 0.16  HD
ATOM     39 21HE GLN Z   5      35.002  53.529  41.597  1.00 75.28 LIG 0.16  HD
ATOM     40 OE1  GLN Z   5      35.756  50.801  40.588  1.00 77.42 LIG-0.27  OA
ENDBRANCH 35 36
ENDBRANCH 34 35
ENDBRANCH 33 34
BRANCH 33 41
ATOM     41  C   GLN Z   5      33.539  48.801  41.980  1.00 64.95 LIG 0.24  C 
ATOM     42 O    GLN Z   5      33.445  47.707  42.533  1.00 67.50 LIG-0.27  OA
ATOM     43  N   ALA Z   6      33.595  48.944  40.659  1.00 62.70 LIG-0.35  N 
ATOM     44 H    ALA Z   6      33.669  49.705  40.265  1.00 62.70 LIG 0.16  HD
BRANCH 43 45
ATOM     45  CA  ALA Z   6      33.534  47.803  39.746  1.00 61.33 LIG 0.16  C 
ATOM     46  CB  ALA Z   6      33.555  48.285  38.300  1.00 62.02 LIG 0.04  C 
BRANCH 45 47
ATOM     47  C   ALA Z   6      34.646  46.773  39.990  1.00 59.00 LIG 0.22  C 
ATOM     48 O    ALA Z   6      35.646  47.053  40.656  1.00 53.12 LIG-0.29  OA
ENDBRANCH 45 47
ENDBRANCH 43 45
ENDBRANCH 33 41
ENDBRANCH 30 33
ENDBRANCH 27 29
ENDBRANCH 3 27
TORSDOF 18
ENDMDL
MODEL 8
USER: ADFR SOLUTION from run 46
USER: SCORE 13.311935 LL:  -3.709 LR: -11.209 RR:   0.000 FEB:  -5.839
USER: RMSD 3.204606
USER: SEED 45
USER: STATUS no improvement in best in 7 clusters for 5 generations
USER: GENES 20
USER: genes 0 Translation |==|  0.50059 0.48069 0.51707
USER: genes 1 Rotation |==|  0.55850 0.57151 0.49042 0.99130
USER: genes 2 Torsion [N]-C--CA-[N] |==|  0.32048
USER: genes 3 Torsion [C]-CA--N-[C] |==|  0.64330
USER: genes 4 Torsion [N]-C--CA-[N] |==|  0.43559
USER: genes 5 Torsion [C]-CA--CB-[CG] |==|  0.18889
USER: genes 6 Torsion [CA]-CB--CG-[CD] |==|  0.57207
USER: genes 7 Torsion [CB]-CG--CD-[OE1] |==|  0.77257
USER: genes 8 Torsion [C]-CA--N-[C] |==|  0.76135
USER: genes 9 Torsion [N]-C--CA-[N] |==|  0.33601
USER: genes 10 Torsion [C]-CA--N-[H1] |==|  0.58791
USER: genes 11 Torsion [C]-N--CA-[CB] |==|  0.49005
USER: genes 12 Torsion [N]-CA--C-[N] |==|  0.44958
USER: genes 13 Torsion [C]-N--CA-[CB] |==|  0.78836
USER: genes 14 Torsion [N]-CA--CB-[CG] |==|  0.67764
USER: genes 15 Torsion [CA]-CB--CG-[CD] |==|  0.77256
USER: genes 16 Torsion [CB]-CG--CD-[OE1] |==|  0.44926
USER: genes 17 Torsion [N]-CA--C-[N] |==|  0.10608
USER: genes 18 Torsion [C]-N--CA-[C] |==|  0.77864
USER: genes 19 Torsion [N]-CA--C-[O] |==|  0.30293
ROOT
ATOM      1  C   ALA Z   3      32.406  51.176  47.348  1.00 51.02 LIG 0.24  C 
ATOM      2 O    ALA Z   3      33.004  50.111  47.267  1.00 42.99 LIG-0.27  OA
ATOM      3  N   ALA Z   4      31.127  51.318  47.012  1.00 57.04 LIG-0.35  N 
ATOM      4 H    ALA Z   4      30.681  52.046  47.115  1.00 57.04 LIG 0.16  HD
ENDROOT
BRANCH 1 5
ATOM      5  CA  ALA Z   3      33.116  52.406  47.877  1.00 57.97 LIG 0.17  C 
ATOM      6  CB  ALA Z   3      34.354  52.706  47.044  1.00 56.61 LIG 0.04  C 
BRANCH 5 7
ATOM      7  N   ALA Z   3      33.473  52.124  49.257  1.00 65.45 LIG-0.35  N 
ATOM      8 H    ALA Z   3      33.895  51.383  49.369  1.00 65.45 LIG 0.16  HD
ATOM      9  C   GLU Z   2      33.163  52.953  50.246  1.00 71.12 LIG 0.24  C 
ATOM     10 O    GLU Z   2      32.724  54.089  50.059  1.00 75.44 LIG-0.27  OA
BRANCH 9 11
ATOM     11  CA  GLU Z   2      33.387  52.418  51.654  1.00 68.69 LIG 0.18  C 
BRANCH 11 12
ATOM     12  CB  GLU Z   2      32.210  51.521  52.039  1.00 66.81 LIG 0.04  C 
BRANCH 12 13
ATOM     13  CG  GLU Z   2      32.141  50.237  51.245  1.00 69.78 LIG 0.12  C 
BRANCH 13 14
ATOM     14  CD  GLU Z   2      30.737  49.684  51.155  1.00 73.92 LIG 0.17  C 
ATOM     15 OE2  GLU Z   2      30.063  49.928  50.132  1.00 73.75 LIG-0.65  OA
ATOM     16 OE1  GLU Z   2      30.304  49.015  52.116  1.00 77.56 LIG-0.65  OA
ENDBRANCH 13 14
ENDBRANCH 12 13
ENDBRANCH 11 12
BRANCH 11 17
ATOM     17  N   GLU Z   2      33.555  53.477  52.640  1.00 66.77 LIG-0.35  N 
ATOM     18 H    GLU Z   2      32.831  53.702  53.045  1.00 66.77 LIG 0.16  HD
ATOM     19  C   ALA Z   1      34.739  54.033  52.877  1.00 62.39 LIG 0.25  C 
ATOM     20 O    ALA Z   1      35.738  53.810  52.191  1.00 53.49 LIG-0.27  OA
BRANCH 19 21
ATOM     21  CA  ALA Z   1      34.796  54.989  54.070  1.00 66.83 LIG 0.27  C 
ATOM     22  CB  ALA Z   1      35.093  56.411  53.611  1.00 68.73 LIG 0.05  C 
BRANCH 21 23
ATOM     23  N   ALA Z   1      35.771  54.553  55.065  1.00 64.95 LIG-0.07  N 
ATOM     24 H3   ALA Z   1      36.559  54.930  54.895  1.00 64.95 LIG 0.28  HD
ATOM     25 H2   ALA Z   1      35.853  53.667  55.033  1.00 64.95 LIG 0.28  HD
ATOM     26 H1   ALA Z   1      35.496  54.794  55.877  1.00 64.95 LIG 0.28  HD
ENDBRANCH 21 23
ENDBRANCH 19 21
ENDBRANCH 11 17
ENDBRANCH 9 11
ENDBRANCH 5 7
ENDBRANCH 1 5
BRANCH 3 27
ATOM     27  CA  ALA Z   4      30.363  50.220  46.425  1.00 62.38 LIG 0.17  C 
ATOM     28  CB  ALA Z   4      28.901  50.631  46.220  1.00 63.33 LIG 0.04  C 
BRANCH 27 29
ATOM     29  C   ALA Z   4      30.991  49.749  45.108  1.00 62.21 LIG 0.24  C 
ATOM     30  N   GLN Z   5      30.628  48.545  44.673  1.00 63.49 LIG-0.35  N 
ATOM     31 H    GLN Z   5      30.118  48.011  45.115  1.00 63.49 LIG 0.16  HD
ATOM     32 O    ALA Z   4      31.795  50.460  44.506  1.00 60.79 LIG-0.27  OA
BRANCH 30 33
ATOM     33  CA  GLN Z   5      31.073  48.016  43.382  1.00 64.68 LIG 0.18  C 
BRANCH 33 34
ATOM     34  CB  GLN Z   5      30.296  48.667  42.236  1.00 64.60 LIG 0.04  C 
BRANCH 34 35
ATOM     35  CG  GLN Z   5      29.436  47.704  41.441  1.00 70.87 LIG 0.10  C 
BRANCH 35 36
ATOM     36  CD  GLN Z   5      30.236  46.948  40.396  1.00 74.77 LIG 0.21  C 
ATOM     37  NE2 GLN Z   5      31.415  47.459  40.064  1.00 75.28 LIG-0.37  N 
ATOM     38 22HE GLN Z   5      31.905  47.063  39.480  1.00 75.28 LIG 0.16  HD
ATOM     39 21HE GLN Z   5      31.688  48.185  40.434  1.00 75.28 LIG 0.16  HD
ATOM     40 OE1  GLN Z   5      29.798  45.911  39.898  1.00 77.42 LIG-0.27  OA
ENDBRANCH 35 36
ENDBRANCH 34 35
ENDBRANCH 33 34
BRANCH 33 41
ATOM     41  C   GLN Z   5      32.574  48.213  43.174  1.00 64.95 LIG 0.24  C 
ATOM     42 O    GLN Z   5      33.022  48.504  42.065  1.00 67.50 LIG-0.27  OA
ATOM     43  N   ALA Z   6      33.343  48.047  44.246  1.00 62.70 LIG-0.35  N 
ATOM     44 H    ALA Z   6      33.038  47.835  45.022  1.00 62.70 LIG 0.16  HD
BRANCH 43 45
ATOM     45  CA  ALA Z   6      34.795  48.212  44.200  1.00 61.33 LIG 0.16  C 
ATOM     46  CB  ALA Z   6      35.329  48.553  45.586  1.00 62.02 LIG 0.04  C 
BRANCH 45 47
ATOM     47  C   ALA Z   6      35.525  46.991  43.624  1.00 59.00 LIG 0.22  C 
ATOM     48 O    ALA Z   6      36.058  47.026  42.512  1.00 53.12 LIG-0.29  OA
ENDBRANCH 45 47
ENDBRANCH 43 45
ENDBRANCH 33 41
ENDBRANCH 30 33
ENDBRANCH 27 29
ENDBRANCH 3 27
TORSDOF 18
ENDMDL
MODEL 9
USER: ADFR SOLUTION from run 118
USER: SCORE 13.084485 LL:  -4.012 LR: -11.173 RR:   0.000 FEB:  -5.804
USER: RMSD 3.420631
USER: SEED 117
USER: STATUS no improvement in best in 9 clusters for 5 generations
USER: GENES 20
USER: genes 0 Translation |==|  0.55428 0.44842 0.47486
USER: genes 1 Rotation |==|  0.58019 0.59636 0.39473 0.97244
USER: genes 2 Torsion [N]-C--CA-[N] |==|  0.16984
USER: genes 3 Torsion [C]-CA--N-[C] |==|  0.75147
USER: genes 4 Torsion [N]-C--CA-[N] |==|  0.97031
USER: genes 5 Torsion [C]-CA--CB-[CG] |==|  0.55873
USER: genes 6 Torsion [CA]-CB--CG-[CD] |==|  0.25420
USER: genes 7 Torsion [CB]-CG--CD-[OE1] |==|  0.23739
USER: genes 8 Torsion [C]-CA--N-[C] |==|  0.71355
USER: genes 9 Torsion [N]-C--CA-[N] |==|  0.45306
USER: genes 10 Torsion [C]-CA--N-[H1] |==|  0.53347
USER: genes 11 Torsion [C]-N--CA-[CB] |==|  0.50556
USER: genes 12 Torsion [N]-CA--C-[N] |==|  0.36149
USER: genes 13 Torsion [C]-N--CA-[CB] |==|  0.27178
USER: genes 14 Torsion [N]-CA--CB-[CG] |==|  0.66458
USER: genes 15 Torsion [CA]-CB--CG-[CD] |==|  0.80248
USER: genes 16 Torsion [CB]-CG--CD-[OE1] |==|  0.94870
USER: genes 17 Torsion [N]-CA--C-[N] |==|  0.39260
USER: genes 18 Torsion [C]-N--CA-[C] |==|  0.60857
USER: genes 19 Torsion [N]-CA--C-[O] |==|  0.05821
ROOT
ATOM      1  C   ALA Z   3      33.292  50.547  46.303  1.00 51.02 LIG 0.24  C 
ATOM      2 O    ALA Z   3      33.431  49.345  46.117  1.00 42.99 LIG-0.27  OA
ATOM      3  N   ALA Z   4      32.125  51.171  46.172  1.00 57.04 LIG-0.35  N 
ATOM      4 H    ALA Z   4      32.002  52.003  46.353  1.00 57.04 LIG 0.16  HD
ENDROOT
BRANCH 1 5
ATOM      5  CA  ALA Z   3      34.476  51.390  46.729  1.00 57.97 LIG 0.17  C 
ATOM      6  CB  ALA Z   3      35.740  50.544  46.785  1.00 56.61 LIG 0.04  C 
BRANCH 5 7
ATOM      7  N   ALA Z   3      34.156  51.935  48.038  1.00 65.45 LIG-0.35  N 
ATOM      8 H    ALA Z   3      34.408  51.443  48.697  1.00 65.45 LIG 0.16  HD
ATOM      9  C   GLU Z   2      33.526  53.094  48.181  1.00 71.12 LIG 0.24  C 
ATOM     10 O    GLU Z   2      33.332  53.875  47.248  1.00 75.44 LIG-0.27  OA
BRANCH 9 11
ATOM     11  CA  GLU Z   2      33.050  53.419  49.591  1.00 68.69 LIG 0.18  C 
BRANCH 11 12
ATOM     12  CB  GLU Z   2      33.859  54.598  50.132  1.00 66.81 LIG 0.04  C 
BRANCH 12 13
ATOM     13  CG  GLU Z   2      33.853  54.695  51.641  1.00 69.78 LIG 0.12  C 
BRANCH 13 14
ATOM     14  CD  GLU Z   2      35.009  53.956  52.274  1.00 73.92 LIG 0.17  C 
ATOM     15 OE2  GLU Z   2      34.825  52.786  52.671  1.00 73.75 LIG-0.65  OA
ATOM     16 OE1  GLU Z   2      36.100  54.552  52.386  1.00 77.56 LIG-0.65  OA
ENDBRANCH 13 14
ENDBRANCH 12 13
ENDBRANCH 11 12
BRANCH 11 17
ATOM     17  N   GLU Z   2      33.151  52.283  50.497  1.00 66.77 LIG-0.35  N 
ATOM     18 H    GLU Z   2      33.949  52.122  50.775  1.00 66.77 LIG 0.16  HD
ATOM     19  C   ALA Z   1      32.087  51.569  50.850  1.00 62.39 LIG 0.25  C 
ATOM     20 O    ALA Z   1      30.978  51.713  50.333  1.00 53.49 LIG-0.27  OA
BRANCH 19 21
ATOM     21  CA  ALA Z   1      32.318  50.534  51.953  1.00 66.83 LIG 0.27  C 
ATOM     22  CB  ALA Z   1      33.115  49.348  51.425  1.00 68.73 LIG 0.05  C 
BRANCH 21 23
ATOM     23  N   ALA Z   1      31.060  50.089  52.547  1.00 64.95 LIG-0.07  N 
ATOM     24 H3   ALA Z   1      30.626  49.569  51.969  1.00 64.95 LIG 0.28  HD
ATOM     25 H2   ALA Z   1      30.558  50.797  52.745  1.00 64.95 LIG 0.28  HD
ATOM     26 H1   ALA Z   1      31.229  49.629  53.290  1.00 64.95 LIG 0.28  HD
ENDBRANCH 21 23
ENDBRANCH 19 21
ENDBRANCH 11 17
ENDBRANCH 9 11
ENDBRANCH 5 7
ENDBRANCH 1 5
BRANCH 3 27
ATOM     27  CA  ALA Z   4      30.932  50.473  45.700  1.00 62.38 LIG 0.17  C 
ATOM     28  CB  ALA Z   4      29.747  51.441  45.599  1.00 63.33 LIG 0.04  C 
BRANCH 27 29
ATOM     29  C   ALA Z   4      31.190  49.781  44.357  1.00 62.21 LIG 0.24  C 
ATOM     30  N   GLN Z   5      30.834  48.501  44.269  1.00 63.49 LIG-0.35  N 
ATOM     31 H    GLN Z   5      30.529  48.044  44.931  1.00 63.49 LIG 0.16  HD
ATOM     32 O    ALA Z   4      31.712  50.392  43.424  1.00 60.79 LIG-0.27  OA
BRANCH 30 33
ATOM     33  CA  GLN Z   5      30.932  47.750  43.017  1.00 64.68 LIG 0.18  C 
BRANCH 33 34
ATOM     34  CB  GLN Z   5      32.219  46.922  42.983  1.00 64.60 LIG 0.04  C 
BRANCH 34 35
ATOM     35  CG  GLN Z   5      33.142  47.253  41.826  1.00 70.87 LIG 0.10  C 
BRANCH 35 36
ATOM     36  CD  GLN Z   5      32.590  46.778  40.496  1.00 74.77 LIG 0.21  C 
ATOM     37  NE2 GLN Z   5      33.111  47.326  39.405  1.00 75.28 LIG-0.37  N 
ATOM     38 22HE GLN Z   5      32.832  47.085  38.629  1.00 75.28 LIG 0.16  HD
ATOM     39 21HE GLN Z   5      33.727  47.922  39.476  1.00 75.28 LIG 0.16  HD
ATOM     40 OE1  GLN Z   5      31.706  45.922  40.451  1.00 77.42 LIG-0.27  OA
ENDBRANCH 35 36
ENDBRANCH 34 35
ENDBRANCH 33 34
BRANCH 33 41
ATOM     41  C   GLN Z   5      29.722  46.842  42.802  1.00 64.95 LIG 0.24  C 
ATOM     42 O    GLN Z   5      29.215  46.235  43.745  1.00 67.50 LIG-0.27  OA
ATOM     43  N   ALA Z   6      29.270  46.751  41.554  1.00 62.70 LIG-0.35  N 
ATOM     44 H    ALA Z   6      29.624  47.165  40.889  1.00 62.70 LIG 0.16  HD
BRANCH 43 45
ATOM     45  CA  ALA Z   6      28.114  45.928  41.200  1.00 61.33 LIG 0.16  C 
ATOM     46  CB  ALA Z   6      26.847  46.776  41.195  1.00 62.02 LIG 0.04  C 
BRANCH 45 47
ATOM     47  C   ALA Z   6      28.280  45.196  39.861  1.00 59.00 LIG 0.22  C 
ATOM     48 O    ALA Z   6      29.395  44.997  39.372  1.00 53.12 LIG-0.29  OA
ENDBRANCH 45 47
ENDBRANCH 43 45
ENDBRANCH 33 41
ENDBRANCH 30 33
ENDBRANCH 27 29
ENDBRANCH 3 27
TORSDOF 18
ENDMDL
MODEL 10
USER: ADFR SOLUTION from run 40
USER: SCORE 13.320198 LL:  -3.369 LR: -11.060 RR:   0.000 FEB:  -5.691
USER: RMSD 3.347364
USER: SEED 39
USER: STATUS no improvement in best in 5 clusters for 5 generations
USER: GENES 20
USER: genes 0 Translation |==|  0.48744 0.52232 0.51971
USER: genes 1 Rotation |==|  0.44630 0.46226 0.28319 0.94574
USER: genes 2 Torsion [N]-C--CA-[N] |==|  0.40616
USER: genes 3 Torsion [C]-CA--N-[C] |==|  0.78020
USER: genes 4 Torsion [N]-C--CA-[N] |==|  0.40504
USER: genes 5 Torsion [C]-CA--CB-[CG] |==|  0.20322
USER: genes 6 Torsion [CA]-CB--CG-[CD] |==|  0.56875
USER: genes 7 Torsion [CB]-CG--CD-[OE1] |==|  0.21713
USER: genes 8 Torsion [C]-CA--N-[C] |==|  0.75650
USER: genes 9 Torsion [N]-C--CA-[N] |==|  0.35580
USER: genes 10 Torsion [C]-CA--N-[H1] |==|  0.56388
USER: genes 11 Torsion [C]-N--CA-[CB] |==|  0.50632
USER: genes 12 Torsion [N]-CA--C-[N] |==|  0.39908
USER: genes 13 Torsion [C]-N--CA-[CB] |==|  0.52222
USER: genes 14 Torsion [N]-CA--CB-[CG] |==|  0.68502
USER: genes 15 Torsion [CA]-CB--CG-[CD] |==|  0.82367
USER: genes 16 Torsion [CB]-CG--CD-[OE1] |==|  0.95312
USER: genes 17 Torsion [N]-CA--C-[N] |==|  0.36244
USER: genes 18 Torsion [C]-N--CA-[C] |==|  0.80048
USER: genes 19 Torsion [N]-CA--C-[O] |==|  0.56017
ROOT
ATOM      1  C   ALA Z   3      32.189  51.988  47.413  1.00 51.02 LIG 0.24  C 
ATOM      2 O    ALA Z   3      31.745  51.013  48.006  1.00 42.99 LIG-0.27  OA
ATOM      3  N   ALA Z   4      31.503  52.646  46.483  1.00 57.04 LIG-0.35  N 
ATOM      4 H    ALA Z   4      31.781  53.364  46.099  1.00 57.04 LIG 0.16  HD
ENDROOT
BRANCH 1 5
ATOM      5  CA  ALA Z   3      33.570  52.514  47.746  1.00 57.97 LIG 0.17  C 
ATOM      6  CB  ALA Z   3      34.625  51.809  46.906  1.00 56.61 LIG 0.04  C 
BRANCH 5 7
ATOM      7  N   ALA Z   3      33.783  52.269  49.163  1.00 65.45 LIG-0.35  N 
ATOM      8 H    ALA Z   3      34.271  51.581  49.333  1.00 65.45 LIG 0.16  HD
ATOM      9  C   GLU Z   2      33.259  53.052  50.098  1.00 71.12 LIG 0.24  C 
ATOM     10 O    GLU Z   2      32.719  54.130  49.847  1.00 75.44 LIG-0.27  OA
BRANCH 9 11
ATOM     11  CA  GLU Z   2      33.367  52.539  51.528  1.00 68.69 LIG 0.18  C 
BRANCH 11 12
ATOM     12  CB  GLU Z   2      32.115  51.727  51.862  1.00 66.81 LIG 0.04  C 
BRANCH 12 13
ATOM     13  CG  GLU Z   2      32.071  50.375  51.187  1.00 69.78 LIG 0.12  C 
BRANCH 13 14
ATOM     14  CD  GLU Z   2      30.662  49.855  51.020  1.00 73.92 LIG 0.17  C 
ATOM     15 OE2  GLU Z   2      30.253  48.974  51.806  1.00 73.75 LIG-0.65  OA
ATOM     16 OE1  GLU Z   2      29.967  50.320  50.093  1.00 77.56 LIG-0.65  OA
ENDBRANCH 13 14
ENDBRANCH 12 13
ENDBRANCH 11 12
BRANCH 11 17
ATOM     17  N   GLU Z   2      33.545  53.610  52.499  1.00 66.77 LIG-0.35  N 
ATOM     18 H    GLU Z   2      32.812  53.906  52.838  1.00 66.77 LIG 0.16  HD
ATOM     19  C   ALA Z   1      34.749  54.074  52.819  1.00 62.39 LIG 0.25  C 
ATOM     20 O    ALA Z   1      35.777  53.749  52.222  1.00 53.49 LIG-0.27  OA
BRANCH 19 21
ATOM     21  CA  ALA Z   1      34.791  55.058  53.990  1.00 66.83 LIG 0.27  C 
ATOM     22  CB  ALA Z   1      35.071  56.473  53.499  1.00 68.73 LIG 0.05  C 
BRANCH 21 23
ATOM     23  N   ALA Z   1      35.770  54.656  54.997  1.00 64.95 LIG-0.07  N 
ATOM     24 H3   ALA Z   1      36.579  54.935  54.752  1.00 64.95 LIG 0.28  HD
ATOM     25 H2   ALA Z   1      35.771  53.769  55.073  1.00 64.95 LIG 0.28  HD
ATOM     26 H1   ALA Z   1      35.555  55.020  55.781  1.00 64.95 LIG 0.28  HD
ENDBRANCH 21 23
ENDBRANCH 19 21
ENDBRANCH 11 17
ENDBRANCH 9 11
ENDBRANCH 5 7
ENDBRANCH 1 5
BRANCH 3 27
ATOM     27  CA  ALA Z   4      30.191  52.189  46.032  1.00 62.38 LIG 0.17  C 
ATOM     28  CB  ALA Z   4      29.657  53.099  44.920  1.00 63.33 LIG 0.04  C 
BRANCH 27 29
ATOM     29  C   ALA Z   4      30.243  50.729  45.568  1.00 62.21 LIG 0.24  C 
ATOM     30  N   GLN Z   5      29.176  49.981  45.837  1.00 63.49 LIG-0.35  N 
ATOM     31 H    GLN Z   5      28.504  50.257  46.299  1.00 63.49 LIG 0.16  HD
ATOM     32 O    ALA Z   4      31.235  50.288  44.987  1.00 60.79 LIG-0.27  OA
BRANCH 30 33
ATOM     33  CA  GLN Z   5      29.052  48.601  45.363  1.00 64.68 LIG 0.18  C 
BRANCH 33 34
ATOM     34  CB  GLN Z   5      27.651  48.056  45.650  1.00 64.60 LIG 0.04  C 
BRANCH 34 35
ATOM     35  CG  GLN Z   5      27.615  46.932  46.666  1.00 70.87 LIG 0.10  C 
BRANCH 35 36
ATOM     36  CD  GLN Z   5      28.363  45.702  46.189  1.00 74.77 LIG 0.21  C 
ATOM     37  NE2 GLN Z   5      28.682  44.803  47.112  1.00 75.28 LIG-0.37  N 
ATOM     38 22HE GLN Z   5      29.102  44.087  46.888  1.00 75.28 LIG 0.16  HD
ATOM     39 21HE GLN Z   5      28.468  44.937  47.934  1.00 75.28 LIG 0.16  HD
ATOM     40 OE1  GLN Z   5      28.645  45.558  44.999  1.00 77.42 LIG-0.27  OA
ENDBRANCH 35 36
ENDBRANCH 34 35
ENDBRANCH 33 34
BRANCH 33 41
ATOM     41  C   GLN Z   5      29.364  48.481  43.872  1.00 64.95 LIG 0.24  C 
ATOM     42 O    GLN Z   5      28.833  49.234  43.056  1.00 67.50 LIG-0.27  OA
ATOM     43  N   ALA Z   6      30.224  47.528  43.528  1.00 62.70 LIG-0.35  N 
ATOM     44 H    ALA Z   6      30.592  46.992  44.091  1.00 62.70 LIG 0.16  HD
BRANCH 43 45
ATOM     45  CA  ALA Z   6      30.626  47.302  42.139  1.00 61.33 LIG 0.16  C 
ATOM     46  CB  ALA Z   6      31.887  46.448  42.089  1.00 62.02 LIG 0.04  C 
BRANCH 45 47
ATOM     47  C   ALA Z   6      29.515  46.678  41.283  1.00 59.00 LIG 0.22  C 
ATOM     48 O    ALA Z   6      29.772  46.068  40.242  1.00 53.12 LIG-0.29  OA
ENDBRANCH 45 47
ENDBRANCH 43 45
ENDBRANCH 33 41
ENDBRANCH 30 33
ENDBRANCH 27 29
ENDBRANCH 3 27
TORSDOF 18
ENDMDL
MODEL 11
USER: ADFR SOLUTION from run 178
USER: SCORE 12.933916 LL:  -4.002 LR: -10.948 RR:   0.000 FEB:  -5.579
USER: RMSD 2.460764
USER: SEED 177
USER: STATUS no improvement in best in 11 clusters for 5 generations
USER: GENES 20
USER: genes 0 Translation |==|  0.54945 0.48558 0.51295
USER: genes 1 Rotation |==|  0.56293 0.50170 0.61681 0.98207
USER: genes 2 Torsion [N]-C--CA-[N] |==|  0.36831
USER: genes 3 Torsion [C]-CA--N-[C] |==|  0.55020
USER: genes 4 Torsion [N]-C--CA-[N] |==|  0.43444
USER: genes 5 Torsion [C]-CA--CB-[CG] |==|  0.20389
USER: genes 6 Torsion [CA]-CB--CG-[CD] |==|  0.66519
USER: genes 7 Torsion [CB]-CG--CD-[OE1] |==|  0.21775
USER: genes 8 Torsion [C]-CA--N-[C] |==|  0.76332
USER: genes 9 Torsion [N]-C--CA-[N] |==|  0.36849
USER: genes 10 Torsion [C]-CA--N-[H1] |==|  0.44325
USER: genes 11 Torsion [C]-N--CA-[CB] |==|  0.45616
USER: genes 12 Torsion [N]-CA--C-[N] |==|  0.44391
USER: genes 13 Torsion [C]-N--CA-[CB] |==|  0.47865
USER: genes 14 Torsion [N]-CA--CB-[CG] |==|  0.31495
USER: genes 15 Torsion [CA]-CB--CG-[CD] |==|  0.79538
USER: genes 16 Torsion [CB]-CG--CD-[OE1] |==|  0.91472
USER: genes 17 Torsion [N]-CA--C-[N] |==|  0.49428
USER: genes 18 Torsion [C]-N--CA-[C] |==|  0.66556
USER: genes 19 Torsion [N]-CA--C-[O] |==|  0.13818
ROOT
ATOM      1  C   ALA Z   3      33.212  51.272  47.245  1.00 51.02 LIG 0.24  C 
ATOM      2 O    ALA Z   3      34.224  50.592  47.360  1.00 42.99 LIG-0.27  OA
ATOM      3  N   ALA Z   4      32.173  50.906  46.502  1.00 57.04 LIG-0.35  N 
ATOM      4 H    ALA Z   4      31.435  51.346  46.457  1.00 57.04 LIG 0.16  HD
ENDROOT
BRANCH 1 5
ATOM      5  CA  ALA Z   3      33.091  52.584  47.993  1.00 57.97 LIG 0.17  C 
ATOM      6  CB  ALA Z   3      33.956  53.651  47.338  1.00 56.61 LIG 0.04  C 
BRANCH 5 7
ATOM      7  N   ALA Z   3      33.521  52.331  49.359  1.00 65.45 LIG-0.35  N 
ATOM      8 H    ALA Z   3      33.982  51.612  49.456  1.00 65.45 LIG 0.16  HD
ATOM      9  C   GLU Z   2      33.216  53.153  50.354  1.00 71.12 LIG 0.24  C 
ATOM     10 O    GLU Z   2      32.716  54.266  50.180  1.00 75.44 LIG-0.27  OA
BRANCH 9 11
ATOM     11  CA  GLU Z   2      33.526  52.640  51.755  1.00 68.69 LIG 0.18  C 
BRANCH 11 12
ATOM     12  CB  GLU Z   2      32.405  51.701  52.201  1.00 66.81 LIG 0.04  C 
BRANCH 12 13
ATOM     13  CG  GLU Z   2      32.431  50.356  51.511  1.00 69.78 LIG 0.12  C 
BRANCH 13 14
ATOM     14  CD  GLU Z   2      31.160  50.073  50.745  1.00 73.92 LIG 0.17  C 
ATOM     15 OE2  GLU Z   2      30.318  49.299  51.248  1.00 73.75 LIG-0.65  OA
ATOM     16 OE1  GLU Z   2      31.008  50.616  49.631  1.00 77.56 LIG-0.65  OA
ENDBRANCH 13 14
ENDBRANCH 12 13
ENDBRANCH 11 12
BRANCH 11 17
ATOM     17  N   GLU Z   2      33.696  53.715  52.724  1.00 66.77 LIG-0.35  N 
ATOM     18 H    GLU Z   2      32.985  53.908  53.167  1.00 66.77 LIG 0.16  HD
ATOM     19  C   ALA Z   1      34.863  54.330  52.891  1.00 62.39 LIG 0.25  C 
ATOM     20 O    ALA Z   1      35.832  54.150  52.152  1.00 53.49 LIG-0.27  OA
BRANCH 19 21
ATOM     21  CA  ALA Z   1      34.938  55.298  54.073  1.00 66.83 LIG 0.27  C 
ATOM     22  CB  ALA Z   1      34.850  56.743  53.598  1.00 68.73 LIG 0.05  C 
BRANCH 21 23
ATOM     23  N   ALA Z   1      36.146  55.087  54.867  1.00 64.95 LIG-0.07  N 
ATOM     24 H3   ALA Z   1      36.832  54.919  54.325  1.00 64.95 LIG 0.28  HD
ATOM     25 H2   ALA Z   1      36.024  54.397  55.416  1.00 64.95 LIG 0.28  HD
ATOM     26 H1   ALA Z   1      36.319  55.818  55.345  1.00 64.95 LIG 0.28  HD
ENDBRANCH 21 23
ENDBRANCH 19 21
ENDBRANCH 11 17
ENDBRANCH 9 11
ENDBRANCH 5 7
ENDBRANCH 1 5
BRANCH 3 27
ATOM     27  CA  ALA Z   4      32.204  49.697  45.683  1.00 62.38 LIG 0.17  C 
ATOM     28  CB  ALA Z   4      30.788  49.302  45.250  1.00 63.33 LIG 0.04  C 
BRANCH 27 29
ATOM     29  C   ALA Z   4      33.120  49.875  44.466  1.00 62.21 LIG 0.24  C 
ATOM     30  N   GLN Z   5      33.561  48.761  43.885  1.00 63.49 LIG-0.35  N 
ATOM     31 H    GLN Z   5      33.407  47.971  44.190  1.00 63.49 LIG 0.16  HD
ATOM     32 O    ALA Z   4      33.428  50.999  44.071  1.00 60.79 LIG-0.27  OA
BRANCH 30 33
ATOM     33  CA  GLN Z   5      34.359  48.787  42.659  1.00 64.68 LIG 0.18  C 
BRANCH 33 34
ATOM     34  CB  GLN Z   5      34.883  47.388  42.326  1.00 64.60 LIG 0.04  C 
BRANCH 34 35
ATOM     35  CG  GLN Z   5      34.301  46.789  41.061  1.00 70.87 LIG 0.10  C 
BRANCH 35 36
ATOM     36  CD  GLN Z   5      32.863  46.342  41.245  1.00 74.77 LIG 0.21  C 
ATOM     37  NE2 GLN Z   5      32.081  46.396  40.174  1.00 75.28 LIG-0.37  N 
ATOM     38 22HE GLN Z   5      31.260  46.149  40.229  1.00 75.28 LIG 0.16  HD
ATOM     39 21HE GLN Z   5      32.396  46.678  39.426  1.00 75.28 LIG 0.16  HD
ATOM     40 OE1  GLN Z   5      32.462  45.946  42.340  1.00 77.42 LIG-0.27  OA
ENDBRANCH 35 36
ENDBRANCH 34 35
ENDBRANCH 33 34
BRANCH 33 41
ATOM     41  C   GLN Z   5      33.567  49.342  41.476  1.00 64.95 LIG 0.24  C 
ATOM     42 O    GLN Z   5      32.387  49.666  41.606  1.00 67.50 LIG-0.27  OA
ATOM     43  N   ALA Z   6      34.224  49.443  40.324  1.00 62.70 LIG-0.35  N 
ATOM     44 H    ALA Z   6      35.046  49.211  40.223  1.00 62.70 LIG 0.16  HD
BRANCH 43 45
ATOM     45  CA  ALA Z   6      33.598  49.966  39.110  1.00 61.33 LIG 0.16  C 
ATOM     46  CB  ALA Z   6      34.270  51.269  38.692  1.00 62.02 LIG 0.04  C 
BRANCH 45 47
ATOM     47  C   ALA Z   6      33.595  48.961  37.950  1.00 59.00 LIG 0.22  C 
ATOM     48 O    ALA Z   6      33.198  47.803  38.104  1.00 53.12 LIG-0.29  OA
ENDBRANCH 45 47
ENDBRANCH 43 45
ENDBRANCH 33 41
ENDBRANCH 30 33
ENDBRANCH 27 29
ENDBRANCH 3 27
TORSDOF 18
ENDMDL
MODEL 12
USER: ADFR SOLUTION from run 19
USER: SCORE 11.908059 LL:  -3.755 LR: -10.817 RR:   0.000 FEB:  -5.448
USER: RMSD 4.583309
USER: SEED 18
USER: STATUS no improvement in best in 10 clusters for 5 generations
USER: GENES 20
USER: genes 0 Translation |==|  0.51677 0.48417 0.52129
USER: genes 1 Rotation |==|  0.53361 0.50099 0.53947 0.99730
USER: genes 2 Torsion [N]-C--CA-[N] |==|  0.36020
USER: genes 3 Torsion [C]-CA--N-[C] |==|  0.55973
USER: genes 4 Torsion [N]-C--CA-[N] |==|  0.90928
USER: genes 5 Torsion [C]-CA--CB-[CG] |==|  0.18490
USER: genes 6 Torsion [CA]-CB--CG-[CD] |==|  0.22659
USER: genes 7 Torsion [CB]-CG--CD-[OE1] |==|  0.09019
USER: genes 8 Torsion [C]-CA--N-[C] |==|  0.83459
USER: genes 9 Torsion [N]-C--CA-[N] |==|  0.25507
USER: genes 10 Torsion [C]-CA--N-[H1] |==|  0.50619
USER: genes 11 Torsion [C]-N--CA-[CB] |==|  0.46585
USER: genes 12 Torsion [N]-CA--C-[N] |==|  0.29218
USER: genes 13 Torsion [C]-N--CA-[CB] |==|  0.43927
USER: genes 14 Torsion [N]-CA--CB-[CG] |==|  0.88073
USER: genes 15 Torsion [CA]-CB--CG-[CD] |==|  0.85557
USER: genes 16 Torsion [CB]-CG--CD-[OE1] |==|  0.89189
USER: genes 17 Torsion [N]-CA--C-[N] |==|  0.42778
USER: genes 18 Torsion [C]-N--CA-[C] |==|  0.51476
USER: genes 19 Torsion [N]-CA--C-[O] |==|  0.00179
ROOT
ATOM      1  C   ALA Z   3      32.673  51.244  47.452  1.00 51.02 LIG 0.24  C 
ATOM      2 O    ALA Z   3      33.430  50.304  47.658  1.00 42.99 LIG-0.27  OA
ATOM      3  N   ALA Z   4      31.551  51.132  46.747  1.00 57.04 LIG-0.35  N 
ATOM      4 H    ALA Z   4      30.984  51.770  46.641  1.00 57.04 LIG 0.16  HD
ENDROOT
BRANCH 1 5
ATOM      5  CA  ALA Z   3      32.982  52.608  48.035  1.00 57.97 LIG 0.17  C 
ATOM      6  CB  ALA Z   3      34.162  53.241  47.311  1.00 56.61 LIG 0.04  C 
BRANCH 5 7
ATOM      7  N   ALA Z   3      33.282  52.406  49.442  1.00 65.45 LIG-0.35  N 
ATOM      8 H    ALA Z   3      33.522  51.605  49.641  1.00 65.45 LIG 0.16  HD
ATOM      9  C   GLU Z   2      33.186  53.389  50.329  1.00 71.12 LIG 0.24  C 
ATOM     10 O    GLU Z   2      33.020  54.568  50.011  1.00 75.44 LIG-0.27  OA
BRANCH 9 11
ATOM     11  CA  GLU Z   2      33.298  52.976  51.790  1.00 68.69 LIG 0.18  C 
BRANCH 11 12
ATOM     12  CB  GLU Z   2      34.766  53.031  52.213  1.00 66.81 LIG 0.04  C 
BRANCH 12 13
ATOM     13  CG  GLU Z   2      35.340  54.430  52.228  1.00 69.78 LIG 0.12  C 
BRANCH 13 14
ATOM     14  CD  GLU Z   2      34.995  55.185  53.490  1.00 73.92 LIG 0.17  C 
ATOM     15 OE2  GLU Z   2      34.848  56.425  53.424  1.00 73.75 LIG-0.65  OA
ATOM     16 OE1  GLU Z   2      34.881  54.540  54.553  1.00 77.56 LIG-0.65  OA
ENDBRANCH 13 14
ENDBRANCH 12 13
ENDBRANCH 11 12
BRANCH 11 17
ATOM     17  N   GLU Z   2      32.752  51.649  52.045  1.00 66.77 LIG-0.35  N 
ATOM     18 H    GLU Z   2      33.319  51.089  52.368  1.00 66.77 LIG 0.16  HD
ATOM     19  C   ALA Z   1      31.481  51.353  51.791  1.00 62.39 LIG 0.25  C 
ATOM     20 O    ALA Z   1      30.719  52.113  51.193  1.00 53.49 LIG-0.27  OA
BRANCH 19 21
ATOM     21  CA  ALA Z   1      31.007  49.986  52.289  1.00 66.83 LIG 0.27  C 
ATOM     22  CB  ALA Z   1      30.011  49.370  51.314  1.00 68.73 LIG 0.05  C 
BRANCH 21 23
ATOM     23  N   ALA Z   1      30.435  50.069  53.630  1.00 64.95 LIG-0.07  N 
ATOM     24 H3   ALA Z   1      29.718  50.597  53.615  1.00 64.95 LIG 0.28  HD
ATOM     25 H2   ALA Z   1      31.039  50.405  54.191  1.00 64.95 LIG 0.28  HD
ATOM     26 H1   ALA Z   1      30.198  49.255  53.903  1.00 64.95 LIG 0.28  HD
ENDBRANCH 21 23
ENDBRANCH 19 21
ENDBRANCH 11 17
ENDBRANCH 9 11
ENDBRANCH 5 7
ENDBRANCH 1 5
BRANCH 3 27
ATOM     27  CA  ALA Z   4      31.187  49.884  46.081  1.00 62.38 LIG 0.17  C 
ATOM     28  CB  ALA Z   4      29.730  49.932  45.607  1.00 63.33 LIG 0.04  C 
BRANCH 27 29
ATOM     29  C   ALA Z   4      32.134  49.582  44.913  1.00 62.21 LIG 0.24  C 
ATOM     30  N   GLN Z   5      33.035  48.622  45.111  1.00 63.49 LIG-0.35  N 
ATOM     31 H    GLN Z   5      33.144  48.217  45.862  1.00 63.49 LIG 0.16  HD
ATOM     32 O    ALA Z   4      32.056  50.215  43.860  1.00 60.79 LIG-0.27  OA
BRANCH 30 33
ATOM     33  CA  GLN Z   5      33.932  48.165  44.048  1.00 64.68 LIG 0.18  C 
BRANCH 33 34
ATOM     34  CB  GLN Z   5      35.172  47.492  44.640  1.00 64.60 LIG 0.04  C 
BRANCH 34 35
ATOM     35  CG  GLN Z   5      35.766  48.218  45.831  1.00 70.87 LIG 0.10  C 
BRANCH 35 36
ATOM     36  CD  GLN Z   5      36.020  49.685  45.542  1.00 74.77 LIG 0.21  C 
ATOM     37  NE2 GLN Z   5      35.769  50.539  46.526  1.00 75.28 LIG-0.37  N 
ATOM     38 22HE GLN Z   5      35.902  51.380  46.410  1.00 75.28 LIG 0.16  HD
ATOM     39 21HE GLN Z   5      35.473  50.250  47.280  1.00 75.28 LIG 0.16  HD
ATOM     40 OE1  GLN Z   5      36.445  50.046  44.444  1.00 77.42 LIG-0.27  OA
ENDBRANCH 35 36
ENDBRANCH 34 35
ENDBRANCH 33 34
BRANCH 33 41
ATOM     41  C   GLN Z   5      33.230  47.211  43.082  1.00 64.95 LIG 0.24  C 
ATOM     42 O    GLN Z   5      32.270  46.537  43.452  1.00 67.50 LIG-0.27  OA
ATOM     43  N   ALA Z   6      33.722  47.159  41.848  1.00 62.70 LIG-0.35  N 
ATOM     44 H    ALA Z   6      34.398  47.620  41.585  1.00 62.70 LIG 0.16  HD
BRANCH 43 45
ATOM     45  CA  ALA Z   6      33.148  46.299  40.814  1.00 61.33 LIG 0.16  C 
ATOM     46  CB  ALA Z   6      31.697  46.688  40.552  1.00 62.02 LIG 0.04  C 
BRANCH 45 47
ATOM     47  C   ALA Z   6      33.953  46.303  39.507  1.00 59.00 LIG 0.22  C 
ATOM     48 O    ALA Z   6      34.984  46.970  39.390  1.00 53.12 LIG-0.29  OA
ENDBRANCH 45 47
ENDBRANCH 43 45
ENDBRANCH 33 41
ENDBRANCH 30 33
ENDBRANCH 27 29
ENDBRANCH 3 27
TORSDOF 18
ENDMDL
MODEL 13
USER: ADFR SOLUTION from run 88
USER: SCORE 12.552914 LL:  -3.501 LR: -10.609 RR:   0.000 FEB:  -5.239
USER: RMSD 3.296831
USER: SEED 87
USER: STATUS searching
USER: GENES 20
USER: genes 0 Translation |==|  0.51989 0.48774 0.52012
USER: genes 1 Rotation |==|  0.54588 0.52902 0.54733 0.99479
USER: genes 2 Torsion [N]-C--CA-[N] |==|  0.36233
USER: genes 3 Torsion [C]-CA--N-[C] |==|  0.59251
USER: genes 4 Torsion [N]-C--CA-[N] |==|  0.44167
USER: genes 5 Torsion [C]-CA--CB-[CG] |==|  0.20551
USER: genes 6 Torsion [CA]-CB--CG-[CD] |==|  0.63915
USER: genes 7 Torsion [CB]-CG--CD-[OE1] |==|  0.24763
USER: genes 8 Torsion [C]-CA--N-[C] |==|  0.75044
USER: genes 9 Torsion [N]-C--CA-[N] |==|  0.40066
USER: genes 10 Torsion [C]-CA--N-[H1] |==|  0.37110
USER: genes 11 Torsion [C]-N--CA-[CB] |==|  0.48417
USER: genes 12 Torsion [N]-CA--C-[N] |==|  0.49846
USER: genes 13 Torsion [C]-N--CA-[CB] |==|  0.53338
USER: genes 14 Torsion [N]-CA--CB-[CG] |==|  0.16963
USER: genes 15 Torsion [CA]-CB--CG-[CD] |==|  0.74023
USER: genes 16 Torsion [CB]-CG--CD-[OE1] |==|  0.99081
USER: genes 17 Torsion [N]-CA--C-[N] |==|  0.30710
USER: genes 18 Torsion [C]-N--CA-[C] |==|  0.52207
USER: genes 19 Torsion [N]-CA--C-[O] |==|  0.88680
ROOT
ATOM      1  C   ALA Z   3      32.724  51.314  47.423  1.00 51.02 LIG 0.24  C 
ATOM      2 O    ALA Z   3      33.534  50.399  47.503  1.00 42.99 LIG-0.27  OA
ATOM      3  N   ALA Z   4      31.535  51.182  46.844  1.00 57.04 LIG-0.35  N 
ATOM      4 H    ALA Z   4      30.936  51.799  46.830  1.00 57.04 LIG 0.16  HD
ENDROOT
BRANCH 1 5
ATOM      5  CA  ALA Z   3      33.047  52.666  48.025  1.00 57.97 LIG 0.17  C 
ATOM      6  CB  ALA Z   3      34.099  53.383  47.191  1.00 56.61 LIG 0.04  C 
BRANCH 5 7
ATOM      7  N   ALA Z   3      33.530  52.422  49.374  1.00 65.45 LIG-0.35  N 
ATOM      8 H    ALA Z   3      33.970  51.688  49.464  1.00 65.45 LIG 0.16  HD
ATOM      9  C   GLU Z   2      33.301  53.271  50.367  1.00 71.12 LIG 0.24  C 
ATOM     10 O    GLU Z   2      32.832  54.398  50.194  1.00 75.44 LIG-0.27  OA
BRANCH 9 11
ATOM     11  CA  GLU Z   2      33.657  52.772  51.761  1.00 68.69 LIG 0.18  C 
BRANCH 11 12
ATOM     12  CB  GLU Z   2      32.556  51.830  52.250  1.00 66.81 LIG 0.04  C 
BRANCH 12 13
ATOM     13  CG  GLU Z   2      32.578  50.475  51.580  1.00 69.78 LIG 0.12  C 
BRANCH 13 14
ATOM     14  CD  GLU Z   2      31.224  50.070  51.044  1.00 73.92 LIG 0.17  C 
ATOM     15 OE2  GLU Z   2      30.462  49.408  51.782  1.00 73.75 LIG-0.65  OA
ATOM     16 OE1  GLU Z   2      30.926  50.405  49.879  1.00 77.56 LIG-0.65  OA
ENDBRANCH 13 14
ENDBRANCH 12 13
ENDBRANCH 11 12
BRANCH 11 17
ATOM     17  N   GLU Z   2      33.850  53.856  52.715  1.00 66.77 LIG-0.35  N 
ATOM     18 H    GLU Z   2      33.136  54.091  53.134  1.00 66.77 LIG 0.16  HD
ATOM     19  C   ALA Z   1      35.039  54.418  52.906  1.00 62.39 LIG 0.25  C 
ATOM     20 O    ALA Z   1      36.019  54.179  52.200  1.00 53.49 LIG-0.27  OA
BRANCH 19 21
ATOM     21  CA  ALA Z   1      35.127  55.404  54.073  1.00 66.83 LIG 0.27  C 
ATOM     22  CB  ALA Z   1      34.837  56.825  53.606  1.00 68.73 LIG 0.05  C 
BRANCH 21 23
ATOM     23  N   ALA Z   1      36.423  55.334  54.742  1.00 64.95 LIG-0.07  N 
ATOM     24 H3   ALA Z   1      36.995  54.877  54.236  1.00 64.95 LIG 0.28  HD
ATOM     25 H2   ALA Z   1      36.330  54.926  55.528  1.00 64.95 LIG 0.28  HD
ATOM     26 H1   ALA Z   1      36.735  56.158  54.872  1.00 64.95 LIG 0.28  HD
ENDBRANCH 21 23
ENDBRANCH 19 21
ENDBRANCH 11 17
ENDBRANCH 9 11
ENDBRANCH 5 7
ENDBRANCH 1 5
BRANCH 3 27
ATOM     27  CA  ALA Z   4      31.144  49.947  46.170  1.00 62.38 LIG 0.17  C 
ATOM     28  CB  ALA Z   4      29.681  50.019  45.720  1.00 63.33 LIG 0.04  C 
BRANCH 27 29
ATOM     29  C   ALA Z   4      32.069  49.645  44.985  1.00 62.21 LIG 0.24  C 
ATOM     30  N   GLN Z   5      31.814  48.533  44.299  1.00 63.49 LIG-0.35  N 
ATOM     31 H    GLN Z   5      31.209  47.963  44.522  1.00 63.49 LIG 0.16  HD
ATOM     32 O    ALA Z   4      32.999  50.401  44.706  1.00 60.79 LIG-0.27  OA
BRANCH 30 33
ATOM     33  CA  GLN Z   5      32.555  48.178  43.088  1.00 64.68 LIG 0.18  C 
BRANCH 33 34
ATOM     34  CB  GLN Z   5      31.867  47.026  42.352  1.00 64.60 LIG 0.04  C 
BRANCH 34 35
ATOM     35  CG  GLN Z   5      30.457  47.336  41.890  1.00 70.87 LIG 0.10  C 
BRANCH 35 36
ATOM     36  CD  GLN Z   5      29.412  46.898  42.899  1.00 74.77 LIG 0.21  C 
ATOM     37  NE2 GLN Z   5      28.148  47.182  42.609  1.00 75.28 LIG-0.37  N 
ATOM     38 22HE GLN Z   5      27.521  46.949  43.149  1.00 75.28 LIG 0.16  HD
ATOM     39 21HE GLN Z   5      27.957  47.599  41.882  1.00 75.28 LIG 0.16  HD
ATOM     40 OE1  GLN Z   5      29.739  46.303  43.926  1.00 77.42 LIG-0.27  OA
ENDBRANCH 35 36
ENDBRANCH 34 35
ENDBRANCH 33 34
BRANCH 33 41
ATOM     41  C   GLN Z   5      32.717  49.374  42.149  1.00 64.95 LIG 0.24  C 
ATOM     42 O    GLN Z   5      31.748  49.838  41.550  1.00 67.50 LIG-0.27  OA
ATOM     43  N   ALA Z   6      33.948  49.861  42.026  1.00 62.70 LIG-0.35  N 
ATOM     44 H    ALA Z   6      34.631  49.535  42.434  1.00 62.70 LIG 0.16  HD
BRANCH 43 45
ATOM     45  CA  ALA Z   6      34.253  51.008  41.171  1.00 61.33 LIG 0.16  C 
ATOM     46  CB  ALA Z   6      33.532  52.250  41.683  1.00 62.02 LIG 0.04  C 
BRANCH 45 47
ATOM     47  C   ALA Z   6      35.758  51.274  41.030  1.00 59.00 LIG 0.22  C 
ATOM     48 O    ALA Z   6      36.521  51.178  41.995  1.00 53.12 LIG-0.29  OA
ENDBRANCH 45 47
ENDBRANCH 43 45
ENDBRANCH 33 41
ENDBRANCH 30 33
ENDBRANCH 27 29
ENDBRANCH 3 27
TORSDOF 18
ENDMDL
MODEL 14
USER: ADFR SOLUTION from run 137
USER: SCORE 12.082539 LL:  -3.359 LR: -10.562 RR:   0.000 FEB:  -5.193
USER: RMSD 4.781565
USER: SEED 136
USER: STATUS no improvement in best in 7 clusters for 5 generations
USER: GENES 20
USER: genes 0 Translation |==|  0.44817 0.49290 0.53488
USER: genes 1 Rotation |==|  0.36567 0.42999 0.30458 0.93458
USER: genes 2 Torsion [N]-C--CA-[N] |==|  0.45298
USER: genes 3 Torsion [C]-CA--N-[C] |==|  0.77988
USER: genes 4 Torsion [N]-C--CA-[N] |==|  0.39533
USER: genes 5 Torsion [C]-CA--CB-[CG] |==|  0.18628
USER: genes 6 Torsion [CA]-CB--CG-[CD] |==|  0.59754
USER: genes 7 Torsion [CB]-CG--CD-[OE1] |==|  0.11570
USER: genes 8 Torsion [C]-CA--N-[C] |==|  0.71935
USER: genes 9 Torsion [N]-C--CA-[N] |==|  0.40520
USER: genes 10 Torsion [C]-CA--N-[H1] |==|  0.49040
USER: genes 11 Torsion [C]-N--CA-[CB] |==|  0.52013
USER: genes 12 Torsion [N]-CA--C-[N] |==|  0.41771
USER: genes 13 Torsion [C]-N--CA-[CB] |==|  0.45556
USER: genes 14 Torsion [N]-CA--CB-[CG] |==|  0.58434
USER: genes 15 Torsion [CA]-CB--CG-[CD] |==|  0.35862
USER: genes 16 Torsion [CB]-CG--CD-[OE1] |==|  0.93177
USER: genes 17 Torsion [N]-CA--C-[N] |==|  0.94647
USER: genes 18 Torsion [C]-N--CA-[C] |==|  0.80750
USER: genes 19 Torsion [N]-CA--C-[O] |==|  0.07374
ROOT
ATOM      1  C   ALA Z   3      31.541  51.415  47.788  1.00 51.02 LIG 0.24  C 
ATOM      2 O    ALA Z   3      31.160  50.692  48.701  1.00 42.99 LIG-0.27  OA
ATOM      3  N   ALA Z   4      30.802  51.678  46.715  1.00 57.04 LIG-0.35  N 
ATOM      4 H    ALA Z   4      31.035  52.226  46.095  1.00 57.04 LIG 0.16  HD
ENDROOT
BRANCH 1 5
ATOM      5  CA  ALA Z   3      32.900  52.079  47.865  1.00 57.97 LIG 0.17  C 
ATOM      6  CB  ALA Z   3      33.886  51.384  46.936  1.00 56.61 LIG 0.04  C 
BRANCH 5 7
ATOM      7  N   ALA Z   3      33.336  51.988  49.248  1.00 65.45 LIG-0.35  N 
ATOM      8 H    ALA Z   3      33.904  51.360  49.399  1.00 65.45 LIG 0.16  HD
ATOM      9  C   GLU Z   2      32.883  52.813  50.183  1.00 71.12 LIG 0.24  C 
ATOM     10 O    GLU Z   2      32.215  53.817  49.928  1.00 75.44 LIG-0.27  OA
BRANCH 9 11
ATOM     11  CA  GLU Z   2      33.241  52.450  51.618  1.00 68.69 LIG 0.18  C 
BRANCH 11 12
ATOM     12  CB  GLU Z   2      32.090  51.652  52.233  1.00 66.81 LIG 0.04  C 
BRANCH 12 13
ATOM     13  CG  GLU Z   2      31.894  50.291  51.605  1.00 69.78 LIG 0.12  C 
BRANCH 13 14
ATOM     14  CD  GLU Z   2      30.439  49.888  51.538  1.00 73.92 LIG 0.17  C 
ATOM     15 OE2  GLU Z   2      30.133  48.706  51.803  1.00 73.75 LIG-0.65  OA
ATOM     16 OE1  GLU Z   2      29.601  50.752  51.207  1.00 77.56 LIG-0.65  OA
ENDBRANCH 13 14
ENDBRANCH 12 13
ENDBRANCH 11 12
BRANCH 11 17
ATOM     17  N   GLU Z   2      33.537  53.617  52.438  1.00 66.77 LIG-0.35  N 
ATOM     18 H    GLU Z   2      32.842  54.039  52.718  1.00 66.77 LIG 0.16  HD
ATOM     19  C   ALA Z   1      34.786  53.979  52.718  1.00 62.39 LIG 0.25  C 
ATOM     20 O    ALA Z   1      35.772  53.460  52.193  1.00 53.49 LIG-0.27  OA
BRANCH 19 21
ATOM     21  CA  ALA Z   1      34.936  55.104  53.744  1.00 66.83 LIG 0.27  C 
ATOM     22  CB  ALA Z   1      34.947  56.465  53.060  1.00 68.73 LIG 0.05  C 
BRANCH 21 23
ATOM     23  N   ALA Z   1      36.130  54.928  54.567  1.00 64.95 LIG-0.07  N 
ATOM     24 H3   ALA Z   1      36.847  54.875  54.042  1.00 64.95 LIG 0.28  HD
ATOM     25 H2   ALA Z   1      36.055  54.179  55.043  1.00 64.95 LIG 0.28  HD
ATOM     26 H1   ALA Z   1      36.216  55.621  55.118  1.00 64.95 LIG 0.28  HD
ENDBRANCH 21 23
ENDBRANCH 19 21
ENDBRANCH 11 17
ENDBRANCH 9 11
ENDBRANCH 5 7
ENDBRANCH 1 5
BRANCH 3 27
ATOM     27  CA  ALA Z   4      29.506  51.039  46.502  1.00 62.38 LIG 0.17  C 
ATOM     28  CB  ALA Z   4      28.959  51.383  45.112  1.00 63.33 LIG 0.04  C 
BRANCH 27 29
ATOM     29  C   ALA Z   4      29.598  49.521  46.695  1.00 62.21 LIG 0.24  C 
ATOM     30  N   GLN Z   5      28.498  48.909  47.128  1.00 63.49 LIG-0.35  N 
ATOM     31 H    GLN Z   5      27.779  49.324  47.354  1.00 63.49 LIG 0.16  HD
ATOM     32 O    ALA Z   4      30.647  48.920  46.465  1.00 60.79 LIG-0.27  OA
BRANCH 30 33
ATOM     33  CA  GLN Z   5      28.417  47.453  47.259  1.00 64.68 LIG 0.18  C 
BRANCH 33 34
ATOM     34  CB  GLN Z   5      27.224  47.055  48.131  1.00 64.60 LIG 0.04  C 
BRANCH 34 35
ATOM     35  CG  GLN Z   5      27.424  45.771  48.912  1.00 70.87 LIG 0.10  C 
BRANCH 35 36
ATOM     36  CD  GLN Z   5      27.106  45.939  50.385  1.00 74.77 LIG 0.21  C 
ATOM     37  NE2 GLN Z   5      26.766  44.842  51.050  1.00 75.28 LIG-0.37  N 
ATOM     38 22HE GLN Z   5      26.582  44.887  51.888  1.00 75.28 LIG 0.16  HD
ATOM     39 21HE GLN Z   5      26.731  44.086  50.642  1.00 75.28 LIG 0.16  HD
ATOM     40 OE1  GLN Z   5      27.172  47.046  50.921  1.00 77.42 LIG-0.27  OA
ENDBRANCH 35 36
ENDBRANCH 34 35
ENDBRANCH 33 34
BRANCH 33 41
ATOM     41  C   GLN Z   5      28.324  46.764  45.899  1.00 64.95 LIG 0.24  C 
ATOM     42 O    GLN Z   5      28.603  45.572  45.777  1.00 67.50 LIG-0.27  OA
ATOM     43  N   ALA Z   6      27.934  47.525  44.880  1.00 62.70 LIG-0.35  N 
ATOM     44 H    ALA Z   6      27.746  48.361  44.955  1.00 62.70 LIG 0.16  HD
BRANCH 43 45
ATOM     45  CA  ALA Z   6      27.790  47.000  43.523  1.00 61.33 LIG 0.16  C 
ATOM     46  CB  ALA Z   6      27.017  47.989  42.657  1.00 62.02 LIG 0.04  C 
BRANCH 45 47
ATOM     47  C   ALA Z   6      29.130  46.639  42.868  1.00 59.00 LIG 0.22  C 
ATOM     48 O    ALA Z   6      30.112  46.323  43.545  1.00 53.12 LIG-0.29  OA
ENDBRANCH 45 47
ENDBRANCH 43 45
ENDBRANCH 33 41
ENDBRANCH 30 33
ENDBRANCH 27 29
ENDBRANCH 3 27
TORSDOF 18
ENDMDL
