MODEL 1
USER: ADFR SOLUTION from run 191
USER: SCORE 14.290810 LL:  -2.288 LR: -13.545 RR:   0.000 FEB:  -9.071
USER: RMSD 1.196484
USER: SEED 190
USER: STATUS 1 or 2 clusters left
USER: GENES 17
USER: genes 0 Translation |==|  0.46019 0.57050 0.46303
USER: genes 1 Rotation |==|  0.49925 0.51162 0.52131 0.99941
USER: genes 2 Torsion [C]-CA--CB-[CG] |==|  0.86003
USER: genes 3 Torsion [CA]-CB--CG-[CD2] |==|  0.23275
USER: genes 4 Torsion [N]-CA--C-[N] |==|  0.35649
USER: genes 5 Torsion [C]-N--CA-[C] |==|  0.65451
USER: genes 6 Torsion [N]-CA--CB-[OG] |==|  0.96714
USER: genes 7 Torsion [CA]-CB--OG-[HG] |==|  0.50103
USER: genes 8 Torsion [N]-CA--C-[N] |==|  0.37308
USER: genes 9 Torsion [C]-N--CA-[CB] |==|  0.22406
USER: genes 10 Torsion [N]-CA--C-[O] |==|  0.80395
USER: genes 11 Torsion [CB]-CA--N-[C] |==|  0.29364
USER: genes 12 Torsion [N]-C--CA-[N] |==|  0.42793
USER: genes 13 Torsion [C]-CA--N-[C] |==|  0.66262
USER: genes 14 Torsion [N]-C--CA-[N] |==|  0.71228
USER: genes 15 Torsion [C]-CA--CB-[OG] |==|  0.20393
USER: genes 16 Torsion [CA]-CB--OG-[HG] |==|  0.04334
ROOT
ATOM      1  CA  TRP E   4      26.280  36.249  19.753  1.00 23.90 LIG 0.18  C 
ENDROOT
BRANCH 1 2
ATOM      2  CB  TRP E   4      25.582  37.634  19.798  1.00 23.42 LIG 0.07  C 
BRANCH 2 3
ATOM      3  CG  TRP E   4      24.522  37.800  20.876  1.00 21.81 LIG-0.03  A 
ATOM      4  CD1 TRP E   4      23.163  37.616  20.726  1.00 20.28 LIG 0.10  A 
ATOM      5  NE1 TRP E   4      22.525  37.845  21.908  1.00 14.71 LIG-0.36  N 
ATOM      6 HE1  TRP E   4      21.675  37.795  22.029  1.00 14.71 LIG 0.17  HD
ATOM      7  CE2 TRP E   4      23.435  38.164  22.872  1.00 22.42 LIG 0.04  A 
ATOM      8  CD2 TRP E   4      24.716  38.157  22.264  1.00 21.74 LIG-0.00  A 
ATOM      9  CZ2 TRP E   4      23.234  38.507  24.218  1.00 22.45 LIG 0.03  A 
ATOM     10  CE3 TRP E   4      25.844  38.484  23.052  1.00 23.04 LIG 0.01  A 
ATOM     11  CZ3 TRP E   4      25.645  38.789  24.396  1.00 25.12 LIG 0.00  A 
ATOM     12  CH2 TRP E   4      24.346  38.799  24.962  1.00 23.64 LIG 0.00  A 
ENDBRANCH 2 3
ENDBRANCH 1 2
BRANCH 1 13
ATOM     13  C   TRP E   4      26.783  35.856  21.146  1.00 25.70 LIG 0.24  C 
ATOM     14  N   SER E   5      28.102  35.909  21.378  1.00 27.23 LIG-0.34  N 
ATOM     15 H    SER E   5      28.691  36.110  20.785  1.00 27.23 LIG 0.16  HD
ATOM     16 O    TRP E   4      25.973  35.514  22.011  1.00 24.65 LIG-0.27  OA
BRANCH 14 17
ATOM     17  CA  SER E   5      28.652  35.612  22.725  1.00 29.24 LIG 0.20  C 
BRANCH 17 18
ATOM     18  CB  SER E   5      29.475  34.320  22.735  1.00 29.98 LIG 0.20  C 
BRANCH 18 19
ATOM     19 OG   SER E   5      29.282  33.596  21.530  1.00 32.06 LIG-0.40  OA
ATOM     20 HG   SER E   5      29.735  32.889  21.552  1.00 32.06 LIG 0.21  HD
ENDBRANCH 18 19
ENDBRANCH 17 18
BRANCH 17 21
ATOM     21  C   SER E   5      29.507  36.741  23.275  1.00 30.08 LIG 0.24  C 
ATOM     22  N   ALA E   6      29.276  37.076  24.540  1.00 30.82 LIG-0.35  N 
ATOM     23 H    ALA E   6      28.629  36.755  25.007  1.00 30.82 LIG 0.16  HD
ATOM     24 O    SER E   5      30.357  37.284  22.570  1.00 31.18 LIG-0.27  OA
BRANCH 22 25
ATOM     25  CA  ALA E   6      30.114  38.038  25.263  1.00 31.79 LIG 0.16  C 
ATOM     26  CB  ALA E   6      29.705  39.454  24.895  1.00 32.45 LIG 0.04  C 
BRANCH 25 27
ATOM     27  C   ALA E   6      29.980  37.827  26.771  1.00 32.63 LIG 0.22  C 
ATOM     28 O    ALA E   6      28.934  38.123  27.359  1.00 33.08 LIG-0.29  OA
ENDBRANCH 25 27
ENDBRANCH 22 25
ENDBRANCH 17 21
ENDBRANCH 14 17
ENDBRANCH 1 13
BRANCH 1 29
ATOM     29  N   TRP E   4      25.405  35.187  19.222  1.00 23.46 LIG-0.35  N 
ATOM     30  C   SER E   3      25.528  34.651  17.997  1.00 23.52 LIG 0.24  C 
ATOM     31 O    SER E   3      26.186  35.170  17.075  1.00 23.44 LIG-0.27  OA
ATOM     32 H    TRP E   4      24.799  34.937  19.779  1.00 23.46 LIG 0.16  HD
BRANCH 30 33
ATOM     33  CA  SER E   3      24.768  33.332  17.763  1.00 23.60 LIG 0.20  C 
BRANCH 33 34
ATOM     34  N   SER E   3      24.402  33.067  16.356  1.00 22.15 LIG-0.34  N 
ATOM     35  C   ALA E   2      23.120  32.893  15.995  1.00 22.11 LIG 0.26  C 
ATOM     36 O    ALA E   2      22.177  32.889  16.779  1.00 20.14 LIG-0.27  OA
ATOM     37 H    SER E   3      25.066  33.036  15.811  1.00 22.15 LIG 0.16  HD
BRANCH 35 38
ATOM     38  CA  ALA E   2      22.813  32.715  14.531  1.00 21.91 LIG 0.40  C 
ATOM     39  N   ALA E   2      22.236  34.013  13.992  1.00 22.04 LIG 0.61  N 
ATOM     40  CB  ALA E   2      24.133  32.350  13.788  1.00 22.52 LIG 0.06  C 
ENDBRANCH 35 38
ENDBRANCH 33 34
BRANCH 33 41
ATOM     41  CB  SER E   3      25.580  32.168  18.344  1.00 24.43 LIG 0.20  C 
BRANCH 41 42
ATOM     42 OG   SER E   3      25.526  32.167  19.767  1.00 28.93 LIG-0.40  OA
ATOM     43 HG   SER E   3      24.899  32.663  20.024  1.00 28.93 LIG 0.21  HD
ENDBRANCH 41 42
ENDBRANCH 33 41
ENDBRANCH 30 33
ENDBRANCH 1 29
TORSDOF 15
ENDMDL
MODEL 2
USER: ADFR SOLUTION from run 45
USER: SCORE 13.361846 LL:  -2.170 LR: -13.210 RR:   0.000 FEB:  -8.736
USER: RMSD 1.763370
USER: SEED 44
USER: STATUS 1 or 2 clusters left
USER: GENES 17
USER: genes 0 Translation |==|  0.46565 0.56818 0.46396
USER: genes 1 Rotation |==|  0.49279 0.51576 0.51840 0.99936
USER: genes 2 Torsion [C]-CA--CB-[CG] |==|  0.84588
USER: genes 3 Torsion [CA]-CB--CG-[CD2] |==|  0.24771
USER: genes 4 Torsion [N]-CA--C-[N] |==|  0.36163
USER: genes 5 Torsion [C]-N--CA-[C] |==|  0.60809
USER: genes 6 Torsion [N]-CA--CB-[OG] |==|  0.02836
USER: genes 7 Torsion [CA]-CB--OG-[HG] |==|  0.47218
USER: genes 8 Torsion [N]-CA--C-[N] |==|  0.78092
USER: genes 9 Torsion [C]-N--CA-[CB] |==|  0.27296
USER: genes 10 Torsion [N]-CA--C-[O] |==|  0.68909
USER: genes 11 Torsion [CB]-CA--N-[C] |==|  0.28328
USER: genes 12 Torsion [N]-C--CA-[N] |==|  0.44457
USER: genes 13 Torsion [C]-CA--N-[C] |==|  0.66703
USER: genes 14 Torsion [N]-C--CA-[N] |==|  0.91901
USER: genes 15 Torsion [C]-CA--CB-[OG] |==|  0.72137
USER: genes 16 Torsion [CA]-CB--OG-[HG] |==|  0.71788
ROOT
ATOM      1  CA  TRP E   4      26.382  36.213  19.772  1.00 23.90 LIG 0.18  C 
ENDROOT
BRANCH 1 2
ATOM      2  CB  TRP E   4      25.700  37.606  19.791  1.00 23.42 LIG 0.07  C 
BRANCH 2 3
ATOM      3  CG  TRP E   4      24.575  37.773  20.801  1.00 21.81 LIG-0.03  A 
ATOM      4  CD1 TRP E   4      23.238  37.509  20.590  1.00 20.28 LIG 0.10  A 
ATOM      5  NE1 TRP E   4      22.525  37.766  21.723  1.00 14.71 LIG-0.36  N 
ATOM      6 HE1  TRP E   4      21.673  37.678  21.802  1.00 14.71 LIG 0.17  HD
ATOM      7  CE2 TRP E   4      23.362  38.185  22.713  1.00 22.42 LIG 0.04  A 
ATOM      8  CD2 TRP E   4      24.674  38.213  22.175  1.00 21.74 LIG-0.00  A 
ATOM      9  CZ2 TRP E   4      23.071  38.588  24.026  1.00 22.45 LIG 0.03  A 
ATOM     10  CE3 TRP E   4      25.739  38.641  23.002  1.00 23.04 LIG 0.01  A 
ATOM     11  CZ3 TRP E   4      25.451  39.006  24.314  1.00 25.12 LIG 0.00  A 
ATOM     12  CH2 TRP E   4      24.124  38.977  24.810  1.00 23.64 LIG 0.00  A 
ENDBRANCH 2 3
ENDBRANCH 1 2
BRANCH 1 13
ATOM     13  C   TRP E   4      26.903  35.851  21.167  1.00 25.70 LIG 0.24  C 
ATOM     14  N   SER E   5      28.222  35.932  21.389  1.00 27.23 LIG-0.34  N 
ATOM     15 H    SER E   5      28.803  36.134  20.789  1.00 27.23 LIG 0.16  HD
ATOM     16 O    TRP E   4      26.105  35.508  22.044  1.00 24.65 LIG-0.27  OA
BRANCH 14 17
ATOM     17  CA  SER E   5      28.787  35.666  22.736  1.00 29.24 LIG 0.20  C 
BRANCH 17 18
ATOM     18  CB  SER E   5      29.276  34.222  22.877  1.00 29.98 LIG 0.20  C 
BRANCH 18 19
ATOM     19 OG   SER E   5      29.280  33.571  21.616  1.00 32.06 LIG-0.40  OA
ATOM     20 HG   SER E   5      29.676  32.833  21.683  1.00 32.06 LIG 0.21  HD
ENDBRANCH 18 19
ENDBRANCH 17 18
BRANCH 17 21
ATOM     21  C   SER E   5      29.927  36.605  23.093  1.00 30.08 LIG 0.24  C 
ATOM     22  N   ALA E   6      31.106  36.313  22.554  1.00 30.82 LIG-0.35  N 
ATOM     23 H    ALA E   6      31.259  35.594  22.105  1.00 30.82 LIG 0.16  HD
ATOM     24 O    SER E   5      29.737  37.571  23.833  1.00 31.18 LIG-0.27  OA
BRANCH 22 25
ATOM     25  CA  ALA E   6      32.267  37.199  22.676  1.00 31.79 LIG 0.16  C 
ATOM     26  CB  ALA E   6      33.167  36.715  23.800  1.00 32.45 LIG 0.04  C 
BRANCH 25 27
ATOM     27  C   ALA E   6      33.044  37.237  21.360  1.00 32.63 LIG 0.22  C 
ATOM     28 O    ALA E   6      34.174  36.744  21.279  1.00 33.08 LIG-0.29  OA
ENDBRANCH 25 27
ENDBRANCH 22 25
ENDBRANCH 17 21
ENDBRANCH 14 17
ENDBRANCH 1 13
BRANCH 1 29
ATOM     29  N   TRP E   4      25.488  35.146  19.283  1.00 23.46 LIG-0.35  N 
ATOM     30  C   SER E   3      25.540  34.627  18.046  1.00 23.52 LIG 0.24  C 
ATOM     31 O    SER E   3      26.133  35.165  17.092  1.00 23.44 LIG-0.27  OA
ATOM     32 H    TRP E   4      24.920  34.882  19.874  1.00 23.46 LIG 0.16  HD
BRANCH 30 33
ATOM     33  CA  SER E   3      24.782  33.301  17.844  1.00 23.60 LIG 0.20  C 
BRANCH 33 34
ATOM     34  N   SER E   3      24.453  32.982  16.439  1.00 22.15 LIG-0.34  N 
ATOM     35  C   ALA E   2      23.178  32.829  16.043  1.00 22.11 LIG 0.26  C 
ATOM     36 O    ALA E   2      22.211  32.889  16.795  1.00 20.14 LIG-0.27  OA
ATOM     37 H    SER E   3      25.133  32.907  15.919  1.00 22.15 LIG 0.16  HD
BRANCH 35 38
ATOM     38  CA  ALA E   2      22.914  32.593  14.580  1.00 21.91 LIG 0.40  C 
ATOM     39  N   ALA E   2      24.010  33.264  13.771  1.00 22.04 LIG 0.61  N 
ATOM     40  CB  ALA E   2      22.901  31.056  14.320  1.00 22.52 LIG 0.06  C 
ENDBRANCH 35 38
ENDBRANCH 33 34
BRANCH 33 41
ATOM     41  CB  SER E   3      25.572  32.159  18.492  1.00 24.43 LIG 0.20  C 
BRANCH 41 42
ATOM     42 OG   SER E   3      26.308  31.429  17.516  1.00 28.93 LIG-0.40  OA
ATOM     43 HG   SER E   3      25.904  30.714  17.337  1.00 28.93 LIG 0.21  HD
ENDBRANCH 41 42
ENDBRANCH 33 41
ENDBRANCH 30 33
ENDBRANCH 1 29
TORSDOF 15
ENDMDL
MODEL 3
USER: ADFR SOLUTION from run 109
USER: SCORE 12.974302 LL:  -2.246 LR: -11.841 RR:   0.000 FEB:  -7.367
USER: RMSD 4.011409
USER: SEED 108
USER: STATUS no improvement in best in 2 clusters for 5 generations
USER: GENES 17
USER: genes 0 Translation |==|  0.47103 0.57510 0.45877
USER: genes 1 Rotation |==|  0.38799 0.40527 0.46046 0.97636
USER: genes 2 Torsion [C]-CA--CB-[CG] |==|  0.83138
USER: genes 3 Torsion [CA]-CB--CG-[CD2] |==|  0.53492
USER: genes 4 Torsion [N]-CA--C-[N] |==|  0.50327
USER: genes 5 Torsion [C]-N--CA-[C] |==|  0.75700
USER: genes 6 Torsion [N]-CA--CB-[OG] |==|  0.97052
USER: genes 7 Torsion [CA]-CB--OG-[HG] |==|  0.50529
USER: genes 8 Torsion [N]-CA--C-[N] |==|  0.46093
USER: genes 9 Torsion [C]-N--CA-[CB] |==|  0.30301
USER: genes 10 Torsion [N]-CA--C-[O] |==|  0.03531
USER: genes 11 Torsion [CB]-CA--N-[C] |==|  0.19117
USER: genes 12 Torsion [N]-C--CA-[N] |==|  0.41596
USER: genes 13 Torsion [C]-CA--N-[C] |==|  0.66394
USER: genes 14 Torsion [N]-C--CA-[N] |==|  0.76342
USER: genes 15 Torsion [C]-CA--CB-[OG] |==|  0.71261
USER: genes 16 Torsion [CA]-CB--OG-[HG] |==|  0.70208
ROOT
ATOM      1  CA  TRP E   4      26.483  36.322  19.663  1.00 23.90 LIG 0.18  C 
ENDROOT
BRANCH 1 2
ATOM      2  CB  TRP E   4      26.285  37.646  18.879  1.00 23.42 LIG 0.07  C 
BRANCH 2 3
ATOM      3  CG  TRP E   4      24.913  38.288  19.010  1.00 21.81 LIG-0.03  A 
ATOM      4  CD1 TRP E   4      23.943  37.968  19.937  1.00 20.28 LIG 0.10  A 
ATOM      5  NE1 TRP E   4      22.845  38.756  19.759  1.00 14.71 LIG-0.36  N 
ATOM      6 HE1  TRP E   4      22.124  38.712  20.226  1.00 14.71 LIG 0.17  HD
ATOM      7  CE2 TRP E   4      23.061  39.626  18.733  1.00 22.42 LIG 0.04  A 
ATOM      8  CD2 TRP E   4      24.356  39.362  18.219  1.00 21.74 LIG-0.00  A 
ATOM      9  CZ2 TRP E   4      22.206  40.592  18.179  1.00 22.45 LIG 0.03  A 
ATOM     10  CE3 TRP E   4      24.819  40.121  17.118  1.00 23.04 LIG 0.01  A 
ATOM     11  CZ3 TRP E   4      23.981  41.103  16.595  1.00 25.12 LIG 0.00  A 
ATOM     12  CH2 TRP E   4      22.688  41.326  17.128  1.00 23.64 LIG 0.00  A 
ENDBRANCH 2 3
ENDBRANCH 1 2
BRANCH 1 13
ATOM     13  C   TRP E   4      26.289  36.554  21.166  1.00 25.70 LIG 0.24  C 
ATOM     14  N   SER E   5      27.012  37.516  21.754  1.00 27.23 LIG-0.34  N 
ATOM     15 H    SER E   5      27.610  37.988  21.354  1.00 27.23 LIG 0.16  HD
ATOM     16 O    TRP E   4      25.476  35.865  21.788  1.00 24.65 LIG-0.27  OA
BRANCH 14 17
ATOM     17  CA  SER E   5      26.823  37.843  23.190  1.00 29.24 LIG 0.20  C 
BRANCH 17 18
ATOM     18  CB  SER E   5      28.116  38.346  23.838  1.00 29.98 LIG 0.20  C 
BRANCH 18 19
ATOM     19 OG   SER E   5      29.221  38.142  22.971  1.00 32.06 LIG-0.40  OA
ATOM     20 HG   SER E   5      29.926  38.398  23.349  1.00 32.06 LIG 0.21  HD
ENDBRANCH 18 19
ENDBRANCH 17 18
BRANCH 17 21
ATOM     21  C   SER E   5      25.729  38.873  23.421  1.00 30.08 LIG 0.24  C 
ATOM     22  N   ALA E   6      25.308  38.997  24.675  1.00 30.82 LIG-0.35  N 
ATOM     23 H    ALA E   6      25.557  38.476  25.314  1.00 30.82 LIG 0.16  HD
ATOM     24 O    SER E   5      25.287  39.539  22.484  1.00 31.18 LIG-0.27  OA
BRANCH 22 25
ATOM     25  CA  ALA E   6      24.370  40.045  25.089  1.00 31.79 LIG 0.16  C 
ATOM     26  CB  ALA E   6      23.018  39.429  25.406  1.00 32.45 LIG 0.04  C 
BRANCH 25 27
ATOM     27  C   ALA E   6      24.911  40.784  26.313  1.00 32.63 LIG 0.22  C 
ATOM     28 O    ALA E   6      26.084  40.638  26.672  1.00 33.08 LIG-0.29  OA
ENDBRANCH 25 27
ENDBRANCH 22 25
ENDBRANCH 17 21
ENDBRANCH 14 17
ENDBRANCH 1 13
BRANCH 1 29
ATOM     29  N   TRP E   4      25.581  35.247  19.206  1.00 23.46 LIG-0.35  N 
ATOM     30  C   SER E   3      25.674  34.645  18.010  1.00 23.52 LIG 0.24  C 
ATOM     31 O    SER E   3      26.323  35.102  17.051  1.00 23.44 LIG-0.27  OA
ATOM     32 H    TRP E   4      24.981  35.039  19.786  1.00 23.46 LIG 0.16  HD
BRANCH 30 33
ATOM     33  CA  SER E   3      24.888  33.328  17.861  1.00 23.60 LIG 0.20  C 
BRANCH 33 34
ATOM     34  N   SER E   3      24.405  33.044  16.493  1.00 22.15 LIG-0.34  N 
ATOM     35  C   ALA E   2      23.096  32.885  16.240  1.00 22.11 LIG 0.26  C 
ATOM     36 O    ALA E   2      22.219  32.910  17.096  1.00 20.14 LIG-0.27  OA
ATOM     37 H    SER E   3      25.023  32.992  15.898  1.00 22.15 LIG 0.16  HD
BRANCH 35 38
ATOM     38  CA  ALA E   2      22.670  32.685  14.809  1.00 21.91 LIG 0.40  C 
ATOM     39  N   ALA E   2      22.505  34.046  14.154  1.00 22.04 LIG 0.61  N 
ATOM     40  CB  ALA E   2      23.765  31.852  14.076  1.00 22.52 LIG 0.06  C 
ENDBRANCH 35 38
ENDBRANCH 33 34
BRANCH 33 41
ATOM     41  CB  SER E   3      25.735  32.167  18.393  1.00 24.43 LIG 0.20  C 
BRANCH 41 42
ATOM     42 OG   SER E   3      26.297  31.412  17.324  1.00 28.93 LIG-0.40  OA
ATOM     43 HG   SER E   3      25.901  30.674  17.264  1.00 28.93 LIG 0.21  HD
ENDBRANCH 41 42
ENDBRANCH 33 41
ENDBRANCH 30 33
ENDBRANCH 1 29
TORSDOF 15
ENDMDL
MODEL 4
USER: ADFR SOLUTION from run 78
USER: SCORE 12.583033 LL:  -2.136 LR: -11.650 RR:   0.000 FEB:  -7.176
USER: RMSD 2.405752
USER: SEED 77
USER: STATUS no improvement in best in 2 clusters for 5 generations
USER: GENES 17
USER: genes 0 Translation |==|  0.49576 0.55816 0.46242
USER: genes 1 Rotation |==|  0.46383 0.47934 0.45533 0.99626
USER: genes 2 Torsion [C]-CA--CB-[CG] |==|  0.75368
USER: genes 3 Torsion [CA]-CB--CG-[CD2] |==|  0.59883
USER: genes 4 Torsion [N]-CA--C-[N] |==|  0.39762
USER: genes 5 Torsion [C]-N--CA-[C] |==|  0.63802
USER: genes 6 Torsion [N]-CA--CB-[OG] |==|  0.01753
USER: genes 7 Torsion [CA]-CB--OG-[HG] |==|  0.46329
USER: genes 8 Torsion [N]-CA--C-[N] |==|  0.46654
USER: genes 9 Torsion [C]-N--CA-[CB] |==|  0.40218
USER: genes 10 Torsion [N]-CA--C-[O] |==|  0.03409
USER: genes 11 Torsion [CB]-CA--N-[C] |==|  0.21663
USER: genes 12 Torsion [N]-C--CA-[N] |==|  0.45677
USER: genes 13 Torsion [C]-CA--N-[C] |==|  0.61146
USER: genes 14 Torsion [N]-C--CA-[N] |==|  0.30527
USER: genes 15 Torsion [C]-CA--CB-[OG] |==|  0.67909
USER: genes 16 Torsion [CA]-CB--OG-[HG] |==|  0.62863
ROOT
ATOM      1  CA  TRP E   4      26.947  36.055  19.740  1.00 23.90 LIG 0.18  C 
ENDROOT
BRANCH 1 2
ATOM      2  CB  TRP E   4      26.641  37.558  19.509  1.00 23.42 LIG 0.07  C 
BRANCH 2 3
ATOM      3  CG  TRP E   4      25.174  37.950  19.591  1.00 21.81 LIG-0.03  A 
ATOM      4  CD1 TRP E   4      24.233  37.430  20.455  1.00 20.28 LIG 0.10  A 
ATOM      5  NE1 TRP E   4      23.026  38.027  20.248  1.00 14.71 LIG-0.36  N 
ATOM      6 HE1  TRP E   4      22.302  37.839  20.674  1.00 14.71 LIG 0.17  HD
ATOM      7  CE2 TRP E   4      23.134  38.964  19.265  1.00 22.42 LIG 0.04  A 
ATOM      8  CD2 TRP E   4      24.477  38.948  18.811  1.00 21.74 LIG-0.00  A 
ATOM      9  CZ2 TRP E   4      22.151  39.794  18.703  1.00 22.45 LIG 0.03  A 
ATOM     10  CE3 TRP E   4      24.851  39.822  17.763  1.00 23.04 LIG 0.01  A 
ATOM     11  CZ3 TRP E   4      23.881  40.668  17.232  1.00 25.12 LIG 0.00  A 
ATOM     12  CH2 TRP E   4      22.546  40.644  17.704  1.00 23.64 LIG 0.00  A 
ENDBRANCH 2 3
ENDBRANCH 1 2
BRANCH 1 13
ATOM     13  C   TRP E   4      27.164  35.775  21.231  1.00 25.70 LIG 0.24  C 
ATOM     14  N   SER E   5      28.415  35.836  21.709  1.00 27.23 LIG-0.34  N 
ATOM     15 H    SER E   5      29.111  35.982  21.227  1.00 27.23 LIG 0.16  HD
ATOM     16 O    TRP E   4      26.195  35.512  21.948  1.00 24.65 LIG-0.27  OA
BRANCH 14 17
ATOM     17  CA  SER E   5      28.688  35.647  23.156  1.00 29.24 LIG 0.20  C 
BRANCH 17 18
ATOM     18  CB  SER E   5      29.334  34.288  23.444  1.00 29.98 LIG 0.20  C 
BRANCH 18 19
ATOM     19 OG   SER E   5      29.638  33.614  22.232  1.00 32.06 LIG-0.40  OA
ATOM     20 HG   SER E   5      30.147  32.965  22.393  1.00 32.06 LIG 0.21  HD
ENDBRANCH 18 19
ENDBRANCH 17 18
BRANCH 17 21
ATOM     21  C   SER E   5      29.571  36.740  23.736  1.00 30.08 LIG 0.24  C 
ATOM     22  N   ALA E   6      29.651  36.773  25.062  1.00 30.82 LIG-0.35  N 
ATOM     23 H    ALA E   6      29.173  36.280  25.580  1.00 30.82 LIG 0.16  HD
ATOM     24 O    SER E   5      30.166  37.524  22.997  1.00 31.18 LIG-0.27  OA
BRANCH 22 25
ATOM     25  CA  ALA E   6      30.574  37.665  25.771  1.00 31.79 LIG 0.16  C 
ATOM     26  CB  ALA E   6      29.933  38.147  27.062  1.00 32.45 LIG 0.04  C 
BRANCH 25 27
ATOM     27  C   ALA E   6      31.884  36.938  26.073  1.00 32.63 LIG 0.22  C 
ATOM     28 O    ALA E   6      32.141  35.853  25.542  1.00 33.08 LIG-0.29  OA
ENDBRANCH 25 27
ENDBRANCH 22 25
ENDBRANCH 17 21
ENDBRANCH 14 17
ENDBRANCH 1 13
BRANCH 1 29
ATOM     29  N   TRP E   4      25.888  35.170  19.217  1.00 23.46 LIG-0.35  N 
ATOM     30  C   SER E   3      25.739  34.860  17.919  1.00 23.52 LIG 0.24  C 
ATOM     31 O    SER E   3      26.274  35.490  16.989  1.00 23.44 LIG-0.27  OA
ATOM     32 H    TRP E   4      25.366  34.867  19.830  1.00 23.46 LIG 0.16  HD
BRANCH 30 33
ATOM     33  CA  SER E   3      24.818  33.661  17.620  1.00 23.60 LIG 0.20  C 
BRANCH 33 34
ATOM     34  N   SER E   3      24.377  33.553  16.213  1.00 22.15 LIG-0.34  N 
ATOM     35  C   ALA E   2      23.119  33.195  15.907  1.00 22.11 LIG 0.26  C 
ATOM     36 O    ALA E   2      22.269  32.889  16.735  1.00 20.14 LIG-0.27  OA
ATOM     37 H    SER E   3      24.984  33.735  15.632  1.00 22.15 LIG 0.16  HD
BRANCH 35 38
ATOM     38  CA  ALA E   2      22.716  33.192  14.456  1.00 21.91 LIG 0.40  C 
ATOM     39  N   ALA E   2      22.529  31.753  14.006  1.00 22.04 LIG 0.61  N 
ATOM     40  CB  ALA E   2      21.387  33.992  14.307  1.00 22.52 LIG 0.06  C 
ENDBRANCH 35 38
ENDBRANCH 33 34
BRANCH 33 41
ATOM     41  CB  SER E   3      25.502  32.368  18.078  1.00 24.43 LIG 0.20  C 
BRANCH 41 42
ATOM     42 OG   SER E   3      25.781  31.517  16.971  1.00 28.93 LIG-0.40  OA
ATOM     43 HG   SER E   3      25.544  30.732  17.153  1.00 28.93 LIG 0.21  HD
ENDBRANCH 41 42
ENDBRANCH 33 41
ENDBRANCH 30 33
ENDBRANCH 1 29
TORSDOF 15
ENDMDL
