MODEL 1
USER: ADFR SOLUTION from run 15
USER: SCORE 20.335145 LL:  -3.896 LR: -18.254 RR:   0.000 FEB: -11.095
USER: RMSD 2.242550
USER: SEED 853544
USER: STATUS no improvement in best in 2 clusters for 5 generations
USER: GENES 26
USER: genes 0 Translation |==|  0.42512 0.48422 0.44202
USER: genes 1 Rotation |==|  0.58130 0.52021 0.49002 0.99283
USER: genes 2 Torsion [C]-CA--CB-[CG] |==|  0.81756
USER: genes 3 Torsion [CA]-CB--CG-[CD] |==|  0.33569
USER: genes 4 Torsion [CB]-CG--CD-[NE] |==|  0.34957
USER: genes 5 Torsion [CG]-CD--NE-[CZ] |==|  0.51607
USER: genes 6 Torsion [N]-CA--C-[N] |==|  0.33502
USER: genes 7 Torsion [C]-N--CA-[C] |==|  0.64505
USER: genes 8 Torsion [N]-CA--C-[N] |==|  0.73800
USER: genes 9 Torsion [C]-N--CA-[CB] |==|  0.47401
USER: genes 10 Torsion [N]-CA--C-[OXT] |==|  0.35810
USER: genes 11 Torsion [N]-CA--CB-[CG] |==|  0.79322
USER: genes 12 Torsion [CA]-CB--CG-[OD2] |==|  0.12597
USER: genes 13 Torsion [N]-CA--CB-[CG] |==|  0.77036
USER: genes 14 Torsion [CA]-CB--CG-[ND1] |==|  0.47989
USER: genes 15 Torsion [CB]-CA--N-[C] |==|  0.50019
USER: genes 16 Torsion [N]-C--CA-[N] |==|  0.31868
USER: genes 17 Torsion [C]-CA--CB-[CG] |==|  0.27146
USER: genes 18 Torsion [CA]-CB--CG-[CD2] |==|  0.69955
USER: genes 19 Torsion [C]-CA--N-[C] |==|  0.72441
USER: genes 20 Torsion [N]-C--CA-[N] |==|  0.45468
USER: genes 21 Torsion [C]-CA--CB-[CG] |==|  0.48097
USER: genes 22 Torsion [CA]-CB--CG-[CD] |==|  0.55879
USER: genes 23 Torsion [CB]-CG--CD-[OE1] |==|  0.85537
USER: genes 24 Torsion [C]-CA--N-[C] |==|  0.75985
USER: genes 25 Torsion [N]-C--CA-[N] |==|  0.34544
ROOT
ATOM      1  CA  ARG P   5     -24.339  25.985  11.954  1.00 25.78 LIG 0.18  C 
ENDROOT
BRANCH 1 2
ATOM      2  CB  ARG P   5     -24.994  25.342  10.720  1.00 22.44 LIG 0.04  C 
BRANCH 2 3
ATOM      3  CG  ARG P   5     -25.136  23.823  10.815  1.00 26.51 LIG 0.02  C 
BRANCH 3 4
ATOM      4  CD  ARG P   5     -26.597  23.372  10.705  1.00 28.41 LIG 0.14  C 
BRANCH 4 5
ATOM      5  NE  ARG P   5     -26.783  22.376   9.652  1.00 33.08 LIG-0.23  N 
ATOM      6  CZ  ARG P   5     -27.966  21.898   9.270  1.00 31.92 LIG 0.67  C 
ATOM      7  NH2 ARG P   5     -28.028  21.007   8.295  1.00 32.43 LIG-0.23  N 
ATOM      8  NH1 ARG P   5     -29.087  22.329   9.844  1.00 23.99 LIG-0.23  N 
ATOM      9 2HH2 ARG P   5     -28.790  20.696   8.044  1.00 32.43 LIG 0.17  HD
ATOM     10 1HH2 ARG P   5     -27.306  20.739   7.911  1.00 32.43 LIG 0.17  HD
ATOM     11 2HH1 ARG P   5     -29.847  22.016   9.592  1.00 23.99 LIG 0.17  HD
ATOM     12 1HH1 ARG P   5     -29.051  22.920  10.467  1.00 23.99 LIG 0.17  HD
ATOM     13 HE   ARG P   5     -26.082  22.078   9.252  1.00 33.08 LIG 0.18  HD
ENDBRANCH 4 5
ENDBRANCH 3 4
ENDBRANCH 2 3
ENDBRANCH 1 2
BRANCH 1 14
ATOM     14  C   ARG P   5     -25.237  25.821  13.181  1.00 22.77 LIG 0.24  C 
ATOM     15 O    ARG P   5     -25.515  24.696  13.610  1.00 23.41 LIG-0.27  OA
ATOM     16  N   HIS P   6     -25.703  26.939  13.729  1.00 20.21 LIG-0.35  N 
ATOM     17 H    HIS P   6     -25.534  27.727  13.430  1.00 20.21 LIG 0.16  HD
BRANCH 16 18
ATOM     18  CA  HIS P   6     -26.561  26.916  14.916  1.00 24.32 LIG 0.18  C 
BRANCH 18 19
ATOM     19  C   HIS P   6     -27.865  27.709  14.758  1.00 31.11 LIG 0.24  C 
ATOM     20  N   ASP P   7     -27.855  28.965  15.190  1.00 28.94 LIG-0.34  N 
ATOM     21 H    ASP P   7     -27.238  29.303  15.685  1.00 28.94 LIG 0.16  HD
ATOM     22 O    HIS P   6     -28.865  27.187  14.252  1.00 27.73 LIG-0.27  OA
BRANCH 20 23
ATOM     23  CA  ASP P   7     -28.932  29.889  14.837  1.00 30.45 LIG 0.20  C 
BRANCH 23 24
ATOM     24  C   ASP P   7     -28.965  30.165  13.321  1.00 38.41 LIG 0.20  C 
ATOM     25 OXT  ASP P   7     -30.002  30.051  12.668  1.00 43.84 LIG-0.65  OA
ATOM     26 O    ASP P   7     -27.958  30.499  12.687  1.00 36.31 LIG-0.65  OA
ENDBRANCH 23 24
BRANCH 23 27
ATOM     27  CB  ASP P   7     -28.805  31.185  15.640  1.00 42.34 LIG 0.15  C 
BRANCH 27 28
ATOM     28  CG  ASP P   7     -29.223  31.017  17.100  1.00 55.06 LIG 0.17  C 
ATOM     29 OD2  ASP P   7     -28.805  30.017  17.718  1.00 62.01 LIG-0.65  OA
ATOM     30 OD1  ASP P   7     -29.967  31.878  17.629  1.00 52.19 LIG-0.65  OA
ENDBRANCH 27 28
ENDBRANCH 23 27
ENDBRANCH 20 23
ENDBRANCH 18 19
BRANCH 18 31
ATOM     31  CB  HIS P   6     -25.798  27.425  16.126  1.00 25.23 LIG 0.10  C 
BRANCH 31 32
ATOM     32  CG  HIS P   6     -24.943  26.389  16.780  1.00 20.03 LIG 0.06  A 
ATOM     33 ND1  HIS P   6     -24.066  26.688  17.799  1.00 23.24 LIG-0.24  NA
ATOM     34  CE1 HIS P   6     -23.437  25.588  18.172  1.00 27.69 LIG 0.23  A 
ATOM     35 NE2  HIS P   6     -23.868  24.587  17.423  1.00 30.02 LIG-0.25  NA
ATOM     36  CD2 HIS P   6     -24.813  25.062  16.545  1.00 26.95 LIG 0.14  A 
ENDBRANCH 31 32
ENDBRANCH 18 31
ENDBRANCH 16 18
ENDBRANCH 1 14
BRANCH 1 37
ATOM     37  N   ARG P   5     -23.029  25.402  12.201  1.00 23.27 LIG-0.35  N 
ATOM     38 H    ARG P   5     -22.796  24.792  11.642  1.00 23.27 LIG 0.16  HD
ATOM     39  C   PHE P   4     -22.281  25.806  13.221  1.00 23.02 LIG 0.24  C 
ATOM     40 O    PHE P   4     -22.628  26.695  14.002  1.00 27.32 LIG-0.27  OA
BRANCH 39 41
ATOM     41  CA  PHE P   4     -20.942  25.128  13.379  1.00 26.78 LIG 0.18  C 
BRANCH 41 42
ATOM     42  CB  PHE P   4     -20.804  24.537  14.784  1.00 27.56 LIG 0.07  C 
BRANCH 42 43
ATOM     43  CG  PHE P   4     -21.122  23.056  14.880  1.00 23.05 LIG-0.06  A 
ATOM     44  CD2 PHE P   4     -22.291  22.621  15.503  1.00 26.81 LIG 0.01  A 
ATOM     45  CE2 PHE P   4     -22.590  21.254  15.628  1.00 20.39 LIG 0.00  A 
ATOM     46  CZ  PHE P   4     -21.695  20.305  15.126  1.00 15.29 LIG 0.00  A 
ATOM     47  CE1 PHE P   4     -20.516  20.734  14.501  1.00 22.67 LIG 0.00  A 
ATOM     48  CD1 PHE P   4     -20.233  22.099  14.390  1.00 22.68 LIG 0.01  A 
ENDBRANCH 42 43
ENDBRANCH 41 42
BRANCH 41 49
ATOM     49  N   PHE P   4     -19.923  26.143  13.153  1.00 24.27 LIG-0.35  N 
ATOM     50 H    PHE P   4     -19.767  26.646  13.833  1.00 24.27 LIG 0.16  HD
ATOM     51  C   GLU P   3     -19.300  26.263  11.985  1.00 33.66 LIG 0.24  C 
ATOM     52 O    GLU P   3     -19.453  25.479  11.047  1.00 34.99 LIG-0.27  OA
BRANCH 51 53
ATOM     53  CA  GLU P   3     -18.347  27.437  11.862  1.00 34.60 LIG 0.18  C 
BRANCH 53 54
ATOM     54  CB  GLU P   3     -19.150  28.731  11.740  1.00 27.84 LIG 0.04  C 
BRANCH 54 55
ATOM     55  CG  GLU P   3     -18.298  29.992  11.776  1.00 43.05 LIG 0.12  C 
BRANCH 55 56
ATOM     56  CD  GLU P   3     -19.100  31.215  12.166  1.00 49.21 LIG 0.17  C 
ATOM     57 OE1  GLU P   3     -20.151  31.457  11.535  1.00 52.28 LIG-0.65  OA
ATOM     58 OE2  GLU P   3     -18.681  31.931  13.101  1.00 52.44 LIG-0.65  OA
ENDBRANCH 55 56
ENDBRANCH 54 55
ENDBRANCH 53 54
BRANCH 53 59
ATOM     59  N   GLU P   3     -17.444  27.279  10.729  1.00 36.80 LIG-0.35  N 
ATOM     60 H    GLU P   3     -17.716  27.650  10.003  1.00 36.80 LIG 0.16  HD
ATOM     61  C   ALA P   2     -16.300  26.610  10.837  1.00 41.96 LIG 0.26  C 
ATOM     62 O    ALA P   2     -15.959  26.044  11.875  1.00 34.80 LIG-0.27  OA
BRANCH 61 63
ATOM     63  CA  ALA P   2     -15.413  26.572   9.584  1.00 47.40 LIG 0.40  C 
ATOM     64  CB  ALA P   2     -15.361  25.166   9.007  1.00 40.76 LIG 0.06  C 
ATOM     65  N   ALA P   2     -14.058  27.069   9.828  1.00 49.60 LIG 0.61  N 
ENDBRANCH 61 63
ENDBRANCH 53 59
ENDBRANCH 51 53
ENDBRANCH 41 49
ENDBRANCH 39 41
ENDBRANCH 1 37
TORSDOF 24
ENDMDL
MODEL 2
USER: ADFR SOLUTION from run 47
USER: SCORE 21.620936 LL:  -5.211 LR: -17.783 RR:   0.000 FEB: -10.624
USER: RMSD 2.227251
USER: SEED 46
USER: STATUS no improvement in best in 3 clusters for 5 generations
USER: GENES 26
USER: genes 0 Translation |==|  0.41950 0.43042 0.42828
USER: genes 1 Rotation |==|  0.50930 0.51708 0.48429 0.99937
USER: genes 2 Torsion [C]-CA--CB-[CG] |==|  0.11405
USER: genes 3 Torsion [CA]-CB--CG-[CD] |==|  0.63367
USER: genes 4 Torsion [CB]-CG--CD-[NE] |==|  0.78978
USER: genes 5 Torsion [CG]-CD--NE-[CZ] |==|  0.66028
USER: genes 6 Torsion [N]-CA--C-[N] |==|  0.35704
USER: genes 7 Torsion [C]-N--CA-[C] |==|  0.65777
USER: genes 8 Torsion [N]-CA--C-[N] |==|  0.98799
USER: genes 9 Torsion [C]-N--CA-[CB] |==|  0.32317
USER: genes 10 Torsion [N]-CA--C-[OXT] |==|  0.42137
USER: genes 11 Torsion [N]-CA--CB-[CG] |==|  0.82443
USER: genes 12 Torsion [CA]-CB--CG-[OD2] |==|  0.70967
USER: genes 13 Torsion [N]-CA--CB-[CG] |==|  0.81199
USER: genes 14 Torsion [CA]-CB--CG-[ND1] |==|  0.34433
USER: genes 15 Torsion [CB]-CA--N-[C] |==|  0.49444
USER: genes 16 Torsion [N]-C--CA-[N] |==|  0.31558
USER: genes 17 Torsion [C]-CA--CB-[CG] |==|  0.24437
USER: genes 18 Torsion [CA]-CB--CG-[CD2] |==|  0.64319
USER: genes 19 Torsion [C]-CA--N-[C] |==|  0.69179
USER: genes 20 Torsion [N]-C--CA-[N] |==|  0.43333
USER: genes 21 Torsion [C]-CA--CB-[CG] |==|  0.74522
USER: genes 22 Torsion [CA]-CB--CG-[CD] |==|  0.18256
USER: genes 23 Torsion [CB]-CG--CD-[OE1] |==|  0.23581
USER: genes 24 Torsion [C]-CA--N-[C] |==|  0.66582
USER: genes 25 Torsion [N]-C--CA-[N] |==|  0.54602
ROOT
ATOM      1  CA  ARG P   5     -24.483  24.896  11.707  1.00 25.78 LIG 0.18  C 
ENDROOT
BRANCH 1 2
ATOM      2  CB  ARG P   5     -25.143  23.934  10.704  1.00 22.44 LIG 0.04  C 
BRANCH 2 3
ATOM      3  CG  ARG P   5     -26.643  24.163  10.524  1.00 26.51 LIG 0.02  C 
BRANCH 3 4
ATOM      4  CD  ARG P   5     -27.442  22.857  10.614  1.00 28.41 LIG 0.14  C 
BRANCH 4 5
ATOM      5  NE  ARG P   5     -27.312  22.052   9.401  1.00 33.08 LIG-0.23  N 
ATOM      6  CZ  ARG P   5     -28.336  21.657   8.649  1.00 31.92 LIG 0.67  C 
ATOM      7  NH2 ARG P   5     -28.111  20.941   7.560  1.00 32.43 LIG-0.23  N 
ATOM      8  NH1 ARG P   5     -29.583  21.997   8.969  1.00 23.99 LIG-0.23  N 
ATOM      9 2HH2 ARG P   5     -28.769  20.683   7.070  1.00 32.43 LIG 0.17  HD
ATOM     10 1HH2 ARG P   5     -27.305  20.733   7.342  1.00 32.43 LIG 0.17  HD
ATOM     11 2HH1 ARG P   5     -30.239  21.739   8.478  1.00 23.99 LIG 0.17  HD
ATOM     12 1HH1 ARG P   5     -29.732  22.477   9.667  1.00 23.99 LIG 0.17  HD
ATOM     13 HE   ARG P   5     -26.521  21.818   9.158  1.00 33.08 LIG 0.18  HD
ENDBRANCH 4 5
ENDBRANCH 3 4
ENDBRANCH 2 3
ENDBRANCH 1 2
BRANCH 1 14
ATOM     14  C   ARG P   5     -25.385  25.100  12.924  1.00 22.77 LIG 0.24  C 
ATOM     15 O    ARG P   5     -25.561  24.186  13.736  1.00 23.41 LIG-0.27  OA
ATOM     16  N   HIS P   6     -25.968  26.290  13.038  1.00 20.21 LIG-0.35  N 
ATOM     17 H    HIS P   6     -25.870  26.928  12.470  1.00 20.21 LIG 0.16  HD
BRANCH 16 18
ATOM     18  CA  HIS P   6     -26.844  26.614  14.166  1.00 24.32 LIG 0.18  C 
BRANCH 18 19
ATOM     19  C   HIS P   6     -28.253  27.059  13.753  1.00 31.11 LIG 0.24  C 
ATOM     20  N   ASP P   7     -28.482  27.182  12.450  1.00 28.94 LIG-0.34  N 
ATOM     21 H    ASP P   7     -27.867  27.188  11.848  1.00 28.94 LIG 0.16  HD
ATOM     22 O    HIS P   6     -29.119  27.286  14.605  1.00 27.73 LIG-0.27  OA
BRANCH 20 23
ATOM     23  CA  ASP P   7     -29.844  27.320  11.936  1.00 30.45 LIG 0.20  C 
BRANCH 23 24
ATOM     24  C   ASP P   7     -30.207  26.165  10.982  1.00 38.41 LIG 0.20  C 
ATOM     25 OXT  ASP P   7     -31.369  25.784  10.845  1.00 43.84 LIG-0.65  OA
ATOM     26 O    ASP P   7     -29.355  25.558  10.324  1.00 36.31 LIG-0.65  OA
ENDBRANCH 23 24
BRANCH 23 27
ATOM     27  CB  ASP P   7     -30.022  28.681  11.261  1.00 42.34 LIG 0.15  C 
BRANCH 27 28
ATOM     28  CG  ASP P   7     -29.851  29.848  12.233  1.00 55.06 LIG 0.17  C 
ATOM     29 OD2  ASP P   7     -30.877  30.445  12.618  1.00 62.01 LIG-0.65  OA
ATOM     30 OD1  ASP P   7     -28.698  30.170  12.609  1.00 52.19 LIG-0.65  OA
ENDBRANCH 27 28
ENDBRANCH 23 27
ENDBRANCH 20 23
ENDBRANCH 18 19
BRANCH 18 31
ATOM     31  CB  HIS P   6     -26.206  27.683  15.036  1.00 25.23 LIG 0.10  C 
BRANCH 31 32
ATOM     32  CG  HIS P   6     -24.982  27.222  15.757  1.00 20.03 LIG 0.06  A 
ATOM     33 ND1  HIS P   6     -23.768  27.862  15.639  1.00 23.24 LIG-0.24  NA
ATOM     34  CE1 HIS P   6     -22.868  27.232  16.372  1.00 27.69 LIG 0.23  A 
ATOM     35 NE2  HIS P   6     -23.453  26.199  16.954  1.00 30.02 LIG-0.25  NA
ATOM     36  CD2 HIS P   6     -24.778  26.172  16.587  1.00 26.95 LIG 0.14  A 
ENDBRANCH 31 32
ENDBRANCH 18 31
ENDBRANCH 16 18
ENDBRANCH 1 14
BRANCH 1 37
ATOM     37  N   ARG P   5     -23.180  24.392  12.118  1.00 23.27 LIG-0.35  N 
ATOM     38 H    ARG P   5     -22.966  23.631  11.779  1.00 23.27 LIG 0.16  HD
ATOM     39  C   PHE P   4     -22.411  25.082  12.953  1.00 23.02 LIG 0.24  C 
ATOM     40 O    PHE P   4     -22.732  26.181  13.413  1.00 27.32 LIG-0.27  OA
BRANCH 39 41
ATOM     41  CA  PHE P   4     -21.084  24.460  13.308  1.00 26.78 LIG 0.18  C 
BRANCH 41 42
ATOM     42  CB  PHE P   4     -20.928  24.367  14.829  1.00 27.56 LIG 0.07  C 
BRANCH 42 43
ATOM     43  CG  PHE P   4     -21.490  23.099  15.445  1.00 23.05 LIG-0.06  A 
ATOM     44  CD2 PHE P   4     -22.374  23.166  16.521  1.00 26.81 LIG 0.01  A 
ATOM     45  CE2 PHE P   4     -22.883  22.004  17.124  1.00 20.39 LIG 0.00  A 
ATOM     46  CZ  PHE P   4     -22.491  20.751  16.645  1.00 15.29 LIG 0.00  A 
ATOM     47  CE1 PHE P   4     -21.599  20.675  15.566  1.00 22.67 LIG 0.00  A 
ATOM     48  CD1 PHE P   4     -21.099  21.843  14.981  1.00 22.68 LIG 0.01  A 
ENDBRANCH 42 43
ENDBRANCH 41 42
BRANCH 41 49
ATOM     49  N   PHE P   4     -20.050  25.314  12.743  1.00 24.27 LIG-0.35  N 
ATOM     50 H    PHE P   4     -19.978  26.083  13.122  1.00 24.27 LIG 0.16  HD
ATOM     51  C   GLU P   3     -19.292  24.917  11.725  1.00 33.66 LIG 0.24  C 
ATOM     52 O    GLU P   3     -19.328  23.781  11.251  1.00 34.99 LIG-0.27  OA
BRANCH 51 53
ATOM     53  CA  GLU P   3     -18.336  25.956  11.169  1.00 34.60 LIG 0.18  C 
BRANCH 53 54
ATOM     54  CB  GLU P   3     -19.092  26.885  10.221  1.00 27.84 LIG 0.04  C 
BRANCH 54 55
ATOM     55  CG  GLU P   3     -19.066  26.438   8.766  1.00 43.05 LIG 0.12  C 
BRANCH 55 56
ATOM     56  CD  GLU P   3     -19.805  25.135   8.553  1.00 49.21 LIG 0.17  C 
ATOM     57 OE1  GLU P   3     -21.042  25.180   8.377  1.00 52.28 LIG-0.65  OA
ATOM     58 OE2  GLU P   3     -19.152  24.070   8.559  1.00 52.44 LIG-0.65  OA
ENDBRANCH 55 56
ENDBRANCH 54 55
ENDBRANCH 53 54
BRANCH 53 59
ATOM     59  N   GLU P   3     -17.203  25.335  10.493  1.00 36.80 LIG-0.35  N 
ATOM     60 H    GLU P   3     -17.418  24.832   9.831  1.00 36.80 LIG 0.16  HD
ATOM     61  C   ALA P   2     -15.952  25.547  10.890  1.00 41.96 LIG 0.26  C 
ATOM     62 O    ALA P   2     -15.677  26.232  11.874  1.00 34.80 LIG-0.27  OA
BRANCH 61 63
ATOM     63  CA  ALA P   2     -14.850  24.882  10.052  1.00 47.40 LIG 0.40  C 
ATOM     64  CB  ALA P   2     -15.274  23.487   9.621  1.00 40.76 LIG 0.06  C 
ATOM     65  N   ALA P   2     -13.561  24.829  10.743  1.00 49.60 LIG 0.61  N 
ENDBRANCH 61 63
ENDBRANCH 53 59
ENDBRANCH 51 53
ENDBRANCH 41 49
ENDBRANCH 39 41
ENDBRANCH 1 37
TORSDOF 24
ENDMDL
MODEL 3
USER: ADFR SOLUTION from run 5
USER: SCORE 21.272483 LL:  -5.475 LR: -17.591 RR:   0.000 FEB: -10.432
USER: RMSD 0.682370
USER: SEED 498491
USER: STATUS 1 or 2 clusters left
USER: GENES 26
USER: genes 0 Translation |==|  0.42879 0.44126 0.45056
USER: genes 1 Rotation |==|  0.52427 0.48677 0.50328 0.99922
USER: genes 2 Torsion [C]-CA--CB-[CG] |==|  0.08965
USER: genes 3 Torsion [CA]-CB--CG-[CD] |==|  0.56833
USER: genes 4 Torsion [CB]-CG--CD-[NE] |==|  0.53375
USER: genes 5 Torsion [CG]-CD--NE-[CZ] |==|  0.48024
USER: genes 6 Torsion [N]-CA--C-[N] |==|  0.32253
USER: genes 7 Torsion [C]-N--CA-[C] |==|  0.68075
USER: genes 8 Torsion [N]-CA--C-[N] |==|  0.00830
USER: genes 9 Torsion [C]-N--CA-[CB] |==|  0.31572
USER: genes 10 Torsion [N]-CA--C-[OXT] |==|  0.45899
USER: genes 11 Torsion [N]-CA--CB-[CG] |==|  0.83664
USER: genes 12 Torsion [CA]-CB--CG-[OD2] |==|  0.72041
USER: genes 13 Torsion [N]-CA--CB-[CG] |==|  0.85852
USER: genes 14 Torsion [CA]-CB--CG-[ND1] |==|  0.27204
USER: genes 15 Torsion [CB]-CA--N-[C] |==|  0.41769
USER: genes 16 Torsion [N]-C--CA-[N] |==|  0.40413
USER: genes 17 Torsion [C]-CA--CB-[CG] |==|  0.24156
USER: genes 18 Torsion [CA]-CB--CG-[CD2] |==|  0.59702
USER: genes 19 Torsion [C]-CA--N-[C] |==|  0.79138
USER: genes 20 Torsion [N]-C--CA-[N] |==|  0.43010
USER: genes 21 Torsion [C]-CA--CB-[CG] |==|  0.44943
USER: genes 22 Torsion [CA]-CB--CG-[CD] |==|  0.53083
USER: genes 23 Torsion [CB]-CG--CD-[OE1] |==|  0.88992
USER: genes 24 Torsion [C]-CA--N-[C] |==|  0.71915
USER: genes 25 Torsion [N]-C--CA-[N] |==|  0.35257
ROOT
ATOM      1  CA  ARG P   5     -24.246  25.115  12.108  1.00 25.78 LIG 0.18  C 
ENDROOT
BRANCH 1 2
ATOM      2  CB  ARG P   5     -24.705  24.176  10.980  1.00 22.44 LIG 0.04  C 
BRANCH 2 3
ATOM      3  CG  ARG P   5     -26.219  24.158  10.767  1.00 26.51 LIG 0.02  C 
BRANCH 3 4
ATOM      4  CD  ARG P   5     -26.695  22.853  10.119  1.00 28.41 LIG 0.14  C 
BRANCH 4 5
ATOM      5  NE  ARG P   5     -28.079  22.944   9.658  1.00 33.08 LIG-0.23  N 
ATOM      6  CZ  ARG P   5     -28.696  22.007   8.942  1.00 31.92 LIG 0.67  C 
ATOM      7  NH2 ARG P   5     -29.958  22.180   8.586  1.00 32.43 LIG-0.23  N 
ATOM      8  NH1 ARG P   5     -28.061  20.886   8.604  1.00 23.99 LIG-0.23  N 
ATOM      9 2HH2 ARG P   5     -30.360  21.577   8.123  1.00 32.43 LIG 0.17  HD
ATOM     10 1HH2 ARG P   5     -30.375  22.895   8.816  1.00 32.43 LIG 0.17  HD
ATOM     11 2HH1 ARG P   5     -28.466  20.285   8.142  1.00 23.99 LIG 0.17  HD
ATOM     12 1HH1 ARG P   5     -27.246  20.763   8.848  1.00 23.99 LIG 0.17  HD
ATOM     13 HE   ARG P   5     -28.524  23.651   9.863  1.00 33.08 LIG 0.18  HD
ENDBRANCH 4 5
ENDBRANCH 3 4
ENDBRANCH 2 3
ENDBRANCH 1 2
BRANCH 1 14
ATOM     14  C   ARG P   5     -25.302  25.181  13.211  1.00 22.77 LIG 0.24  C 
ATOM     15 O    ARG P   5     -25.671  24.154  13.791  1.00 23.41 LIG-0.27  OA
ATOM     16  N   HIS P   6     -25.801  26.383  13.485  1.00 20.21 LIG-0.35  N 
ATOM     17 H    HIS P   6     -25.569  27.103  13.076  1.00 20.21 LIG 0.16  HD
BRANCH 16 18
ATOM     18  CA  HIS P   6     -26.808  26.580  14.529  1.00 24.32 LIG 0.18  C 
BRANCH 18 19
ATOM     19  C   HIS P   6     -28.169  27.055  14.001  1.00 31.11 LIG 0.24  C 
ATOM     20  N   ASP P   7     -28.290  27.169  12.683  1.00 28.94 LIG-0.34  N 
ATOM     21 H    ASP P   7     -27.629  27.153  12.131  1.00 28.94 LIG 0.16  HD
ATOM     22 O    HIS P   6     -29.093  27.314  14.780  1.00 27.73 LIG-0.27  OA
BRANCH 20 23
ATOM     23  CA  ASP P   7     -29.603  27.335  12.061  1.00 30.45 LIG 0.20  C 
BRANCH 23 24
ATOM     24  C   ASP P   7     -29.891  26.215  11.043  1.00 38.41 LIG 0.20  C 
ATOM     25 OXT  ASP P   7     -31.025  26.012  10.610  1.00 43.84 LIG-0.65  OA
ATOM     26 O    ASP P   7     -29.006  25.459  10.622  1.00 36.31 LIG-0.65  OA
ENDBRANCH 23 24
BRANCH 23 27
ATOM     27  CB  ASP P   7     -29.716  28.719  11.418  1.00 42.34 LIG 0.15  C 
BRANCH 27 28
ATOM     28  CG  ASP P   7     -29.513  29.853  12.422  1.00 55.06 LIG 0.17  C 
ATOM     29 OD2  ASP P   7     -30.527  30.433  12.863  1.00 62.01 LIG-0.65  OA
ATOM     30 OD1  ASP P   7     -28.349  30.167  12.768  1.00 52.19 LIG-0.65  OA
ENDBRANCH 27 28
ENDBRANCH 23 27
ENDBRANCH 20 23
ENDBRANCH 18 19
BRANCH 18 31
ATOM     31  CB  HIS P   6     -26.298  27.557  15.574  1.00 25.23 LIG 0.10  C 
BRANCH 31 32
ATOM     32  CG  HIS P   6     -24.943  27.218  16.104  1.00 20.03 LIG 0.06  A 
ATOM     33 ND1  HIS P   6     -23.794  27.814  15.633  1.00 23.24 LIG-0.24  NA
ATOM     34  CE1 HIS P   6     -22.749  27.315  16.270  1.00 27.69 LIG 0.23  A 
ATOM     35 NE2  HIS P   6     -23.180  26.407  17.130  1.00 30.02 LIG-0.25  NA
ATOM     36  CD2 HIS P   6     -24.550  26.330  17.047  1.00 26.95 LIG 0.14  A 
ENDBRANCH 31 32
ENDBRANCH 18 31
ENDBRANCH 16 18
ENDBRANCH 1 14
BRANCH 1 37
ATOM     37  N   ARG P   5     -22.970  24.676  12.652  1.00 23.27 LIG-0.35  N 
ATOM     38 H    ARG P   5     -22.833  23.828  12.608  1.00 23.27 LIG 0.16  HD
ATOM     39  C   PHE P   4     -22.109  25.546  13.168  1.00 23.02 LIG 0.24  C 
ATOM     40 O    PHE P   4     -22.319  26.761  13.206  1.00 27.32 LIG-0.27  OA
BRANCH 39 41
ATOM     41  CA  PHE P   4     -20.820  24.974  13.703  1.00 26.78 LIG 0.18  C 
BRANCH 41 42
ATOM     42  CB  PHE P   4     -20.936  24.710  15.207  1.00 27.56 LIG 0.07  C 
BRANCH 42 43
ATOM     43  CG  PHE P   4     -21.510  23.351  15.566  1.00 23.05 LIG-0.06  A 
ATOM     44  CD2 PHE P   4     -22.323  23.201  16.688  1.00 26.81 LIG 0.01  A 
ATOM     45  CE2 PHE P   4     -22.841  21.947  17.055  1.00 20.39 LIG 0.00  A 
ATOM     46  CZ  PHE P   4     -22.530  20.822  16.285  1.00 15.29 LIG 0.00  A 
ATOM     47  CE1 PHE P   4     -21.710  20.965  15.158  1.00 22.67 LIG 0.00  A 
ATOM     48  CD1 PHE P   4     -21.199  22.220  14.811  1.00 22.68 LIG 0.01  A 
ENDBRANCH 42 43
ENDBRANCH 41 42
BRANCH 41 49
ATOM     49  N   PHE P   4     -19.778  25.957  13.440  1.00 24.27 LIG-0.35  N 
ATOM     50 H    PHE P   4     -19.524  26.399  14.133  1.00 24.27 LIG 0.16  HD
ATOM     51  C   GLU P   3     -19.278  26.140  12.222  1.00 33.66 LIG 0.24  C 
ATOM     52 O    GLU P   3     -19.572  25.439  11.253  1.00 34.99 LIG-0.27  OA
BRANCH 51 53
ATOM     53  CA  GLU P   3     -18.283  27.276  12.079  1.00 34.60 LIG 0.18  C 
BRANCH 53 54
ATOM     54  CB  GLU P   3     -19.039  28.595  11.920  1.00 27.84 LIG 0.04  C 
BRANCH 54 55
ATOM     55  CG  GLU P   3     -18.193  29.829  12.204  1.00 43.05 LIG 0.12  C 
BRANCH 55 56
ATOM     56  CD  GLU P   3     -19.029  31.087  12.300  1.00 49.21 LIG 0.17  C 
ATOM     57 OE1  GLU P   3     -19.977  31.228  11.498  1.00 52.28 LIG-0.65  OA
ATOM     58 OE2  GLU P   3     -18.740  31.930  13.176  1.00 52.44 LIG-0.65  OA
ENDBRANCH 55 56
ENDBRANCH 54 55
ENDBRANCH 53 54
BRANCH 53 59
ATOM     59  N   GLU P   3     -17.377  27.058  10.959  1.00 36.80 LIG-0.35  N 
ATOM     60 H    GLU P   3     -17.713  27.243  10.190  1.00 36.80 LIG 0.16  HD
ATOM     61  C   ALA P   2     -16.138  26.610  11.140  1.00 41.96 LIG 0.26  C 
ATOM     62 O    ALA P   2     -15.700  26.305  12.248  1.00 34.80 LIG-0.27  OA
BRANCH 61 63
ATOM     63  CA  ALA P   2     -15.269  26.485   9.880  1.00 47.40 LIG 0.40  C 
ATOM     64  CB  ALA P   2     -15.047  25.023   9.527  1.00 40.76 LIG 0.06  C 
ATOM     65  N   ALA P   2     -13.985  27.177  10.001  1.00 49.60 LIG 0.61  N 
ENDBRANCH 61 63
ENDBRANCH 53 59
ENDBRANCH 51 53
ENDBRANCH 41 49
ENDBRANCH 39 41
ENDBRANCH 1 37
TORSDOF 24
ENDMDL
MODEL 4
USER: ADFR SOLUTION from run 187
USER: SCORE 20.758971 LL:  -5.936 LR: -16.616 RR:   0.000 FEB:  -9.456
USER: RMSD 2.441439
USER: SEED 186
USER: STATUS 1 or 2 clusters left
USER: GENES 26
USER: genes 0 Translation |==|  0.41714 0.42890 0.43263
USER: genes 1 Rotation |==|  0.51349 0.50559 0.48222 0.99947
USER: genes 2 Torsion [C]-CA--CB-[CG] |==|  0.09675
USER: genes 3 Torsion [CA]-CB--CG-[CD] |==|  0.64276
USER: genes 4 Torsion [CB]-CG--CD-[NE] |==|  0.78503
USER: genes 5 Torsion [CG]-CD--NE-[CZ] |==|  0.67983
USER: genes 6 Torsion [N]-CA--C-[N] |==|  0.34444
USER: genes 7 Torsion [C]-N--CA-[C] |==|  0.67056
USER: genes 8 Torsion [N]-CA--C-[N] |==|  0.00604
USER: genes 9 Torsion [C]-N--CA-[CB] |==|  0.30778
USER: genes 10 Torsion [N]-CA--C-[OXT] |==|  0.45586
USER: genes 11 Torsion [N]-CA--CB-[CG] |==|  0.81729
USER: genes 12 Torsion [CA]-CB--CG-[OD2] |==|  0.71689
USER: genes 13 Torsion [N]-CA--CB-[CG] |==|  0.83530
USER: genes 14 Torsion [CA]-CB--CG-[ND1] |==|  0.82100
USER: genes 15 Torsion [CB]-CA--N-[C] |==|  0.46138
USER: genes 16 Torsion [N]-C--CA-[N] |==|  0.34766
USER: genes 17 Torsion [C]-CA--CB-[CG] |==|  0.26093
USER: genes 18 Torsion [CA]-CB--CG-[CD2] |==|  0.62986
USER: genes 19 Torsion [C]-CA--N-[C] |==|  0.76132
USER: genes 20 Torsion [N]-C--CA-[N] |==|  0.94764
USER: genes 21 Torsion [C]-CA--CB-[CG] |==|  0.48179
USER: genes 22 Torsion [CA]-CB--CG-[CD] |==|  0.22669
USER: genes 23 Torsion [CB]-CG--CD-[OE1] |==|  0.71241
USER: genes 24 Torsion [C]-CA--N-[C] |==|  0.68219
USER: genes 25 Torsion [N]-C--CA-[N] |==|  0.14421
ROOT
ATOM      1  CA  ARG P   5     -24.543  24.865  11.785  1.00 25.78 LIG 0.18  C 
ENDROOT
BRANCH 1 2
ATOM      2  CB  ARG P   5     -25.165  23.925  10.739  1.00 22.44 LIG 0.04  C 
BRANCH 2 3
ATOM      3  CG  ARG P   5     -26.681  24.069  10.601  1.00 26.51 LIG 0.02  C 
BRANCH 3 4
ATOM      4  CD  ARG P   5     -27.401  22.719  10.707  1.00 28.41 LIG 0.14  C 
BRANCH 4 5
ATOM      5  NE  ARG P   5     -27.293  21.944   9.473  1.00 33.08 LIG-0.23  N 
ATOM      6  CZ  ARG P   5     -28.325  21.619   8.697  1.00 31.92 LIG 0.67  C 
ATOM      7  NH2 ARG P   5     -28.119  20.925   7.591  1.00 32.43 LIG-0.23  N 
ATOM      8  NH1 ARG P   5     -29.558  22.011   9.012  1.00 23.99 LIG-0.23  N 
ATOM      9 2HH2 ARG P   5     -28.783  20.713   7.086  1.00 32.43 LIG 0.17  HD
ATOM     10 1HH2 ARG P   5     -27.322  20.684   7.377  1.00 32.43 LIG 0.17  HD
ATOM     11 2HH1 ARG P   5     -30.220  21.798   8.506  1.00 23.99 LIG 0.17  HD
ATOM     12 1HH1 ARG P   5     -29.693  22.476   9.722  1.00 23.99 LIG 0.17  HD
ATOM     13 HE   ARG P   5     -26.512  21.678   9.233  1.00 33.08 LIG 0.18  HD
ENDBRANCH 4 5
ENDBRANCH 3 4
ENDBRANCH 2 3
ENDBRANCH 1 2
BRANCH 1 14
ATOM     14  C   ARG P   5     -25.498  25.060  12.962  1.00 22.77 LIG 0.24  C 
ATOM     15 O    ARG P   5     -25.786  24.114  13.703  1.00 23.41 LIG-0.27  OA
ATOM     16  N   HIS P   6     -26.003  26.280  13.121  1.00 20.21 LIG-0.35  N 
ATOM     17 H    HIS P   6     -25.828  26.943  12.602  1.00 20.21 LIG 0.16  HD
BRANCH 16 18
ATOM     18  CA  HIS P   6     -26.919  26.599  14.219  1.00 24.32 LIG 0.18  C 
BRANCH 18 19
ATOM     19  C   HIS P   6     -28.307  27.064  13.758  1.00 31.11 LIG 0.24  C 
ATOM     20  N   ASP P   7     -28.525  27.080  12.447  1.00 28.94 LIG-0.34  N 
ATOM     21 H    ASP P   7     -27.909  27.006  11.852  1.00 28.94 LIG 0.16  HD
ATOM     22 O    HIS P   6     -29.165  27.404  14.580  1.00 27.73 LIG-0.27  OA
BRANCH 20 23
ATOM     23  CA  ASP P   7     -29.878  27.230  11.914  1.00 30.45 LIG 0.20  C 
BRANCH 23 24
ATOM     24  C   ASP P   7     -30.237  26.078  10.954  1.00 38.41 LIG 0.20  C 
ATOM     25 OXT  ASP P   7     -31.401  25.852  10.625  1.00 43.84 LIG-0.65  OA
ATOM     26 O    ASP P   7     -29.382  25.320  10.482  1.00 36.31 LIG-0.65  OA
ENDBRANCH 23 24
BRANCH 23 27
ATOM     27  CB  ASP P   7     -30.035  28.592  11.237  1.00 42.34 LIG 0.15  C 
BRANCH 27 28
ATOM     28  CG  ASP P   7     -29.931  29.755  12.222  1.00 55.06 LIG 0.17  C 
ATOM     29 OD2  ASP P   7     -30.988  30.307  12.592  1.00 62.01 LIG-0.65  OA
ATOM     30 OD1  ASP P   7     -28.800  30.120  12.625  1.00 52.19 LIG-0.65  OA
ENDBRANCH 27 28
ENDBRANCH 23 27
ENDBRANCH 20 23
ENDBRANCH 18 19
BRANCH 18 31
ATOM     31  CB  HIS P   6     -26.305  27.649  15.128  1.00 25.23 LIG 0.10  C 
BRANCH 31 32
ATOM     32  CG  HIS P   6     -25.006  27.233  15.737  1.00 20.03 LIG 0.06  A 
ATOM     33 ND1  HIS P   6     -24.905  26.179  16.618  1.00 23.24 LIG-0.24  NA
ATOM     34  CE1 HIS P   6     -23.648  26.050  17.004  1.00 27.69 LIG 0.23  A 
ATOM     35 NE2  HIS P   6     -22.931  26.990  16.411  1.00 30.02 LIG-0.25  NA
ATOM     36  CD2 HIS P   6     -23.758  27.742  15.610  1.00 26.95 LIG 0.14  A 
ENDBRANCH 31 32
ENDBRANCH 18 31
ENDBRANCH 16 18
ENDBRANCH 1 14
BRANCH 1 37
ATOM     37  N   ARG P   5     -23.266  24.342  12.248  1.00 23.27 LIG-0.35  N 
ATOM     38 H    ARG P   5     -23.117  23.522  12.039  1.00 23.27 LIG 0.16  HD
ATOM     39  C   PHE P   4     -22.424  25.104  12.938  1.00 23.02 LIG 0.24  C 
ATOM     40 O    PHE P   4     -22.652  26.284  13.213  1.00 27.32 LIG-0.27  OA
BRANCH 39 41
ATOM     41  CA  PHE P   4     -21.132  24.453  13.366  1.00 26.78 LIG 0.18  C 
BRANCH 41 42
ATOM     42  CB  PHE P   4     -21.066  24.349  14.892  1.00 27.56 LIG 0.07  C 
BRANCH 42 43
ATOM     43  CG  PHE P   4     -21.557  23.029  15.457  1.00 23.05 LIG-0.06  A 
ATOM     44  CD2 PHE P   4     -22.436  23.005  16.539  1.00 26.81 LIG 0.01  A 
ATOM     45  CE2 PHE P   4     -22.879  21.793  17.096  1.00 20.39 LIG 0.00  A 
ATOM     46  CZ  PHE P   4     -22.427  20.584  16.561  1.00 15.29 LIG 0.00  A 
ATOM     47  CE1 PHE P   4     -21.542  20.599  15.475  1.00 22.67 LIG 0.00  A 
ATOM     48  CD1 PHE P   4     -21.106  21.815  14.937  1.00 22.68 LIG 0.01  A 
ENDBRANCH 42 43
ENDBRANCH 41 42
BRANCH 41 49
ATOM     49  N   PHE P   4     -20.050  25.290  12.867  1.00 24.27 LIG-0.35  N 
ATOM     50 H    PHE P   4     -19.762  25.871  13.432  1.00 24.27 LIG 0.16  HD
ATOM     51  C   GLU P   3     -19.565  25.148  11.637  1.00 33.66 LIG 0.24  C 
ATOM     52 O    GLU P   3     -19.910  24.252  10.868  1.00 34.99 LIG-0.27  OA
BRANCH 51 53
ATOM     53  CA  GLU P   3     -18.519  26.166  11.219  1.00 34.60 LIG 0.18  C 
BRANCH 53 54
ATOM     54  CB  GLU P   3     -17.137  25.516  11.256  1.00 27.84 LIG 0.04  C 
BRANCH 54 55
ATOM     55  CG  GLU P   3     -16.026  26.398  10.703  1.00 43.05 LIG 0.12  C 
BRANCH 55 56
ATOM     56  CD  GLU P   3     -15.531  27.402  11.722  1.00 49.21 LIG 0.17  C 
ATOM     57 OE1  GLU P   3     -15.898  28.591  11.606  1.00 52.28 LIG-0.65  OA
ATOM     58 OE2  GLU P   3     -14.778  27.003  12.636  1.00 52.44 LIG-0.65  OA
ENDBRANCH 55 56
ENDBRANCH 54 55
ENDBRANCH 53 54
BRANCH 53 59
ATOM     59  N   GLU P   3     -18.558  27.353  12.063  1.00 36.80 LIG-0.35  N 
ATOM     60 H    GLU P   3     -18.341  27.212  12.883  1.00 36.80 LIG 0.16  HD
ATOM     61  C   ALA P   2     -18.904  28.542  11.581  1.00 41.96 LIG 0.26  C 
ATOM     62 O    ALA P   2     -19.260  28.705  10.414  1.00 34.80 LIG-0.27  OA
BRANCH 61 63
ATOM     63  CA  ALA P   2     -18.843  29.721  12.564  1.00 47.40 LIG 0.40  C 
ATOM     64  CB  ALA P   2     -19.169  31.025  11.856  1.00 40.76 LIG 0.06  C 
ATOM     65  N   ALA P   2     -17.555  29.825  13.251  1.00 49.60 LIG 0.61  N 
ENDBRANCH 61 63
ENDBRANCH 53 59
ENDBRANCH 51 53
ENDBRANCH 41 49
ENDBRANCH 39 41
ENDBRANCH 1 37
TORSDOF 24
ENDMDL
