MODEL 1
USER: ADFR SOLUTION from run 39
USER: SCORE 16.290689 LL:  -3.527 LR: -15.565 RR:   0.000 FEB:  -8.406
USER: RMSD 2.934341
USER: SEED 38
USER: STATUS no improvement in best in 2 clusters for 5 generations
USER: GENES 26
USER: genes 0 Translation |==|  0.45472 0.50532 0.40581
USER: genes 1 Rotation |==|  0.50513 0.54623 0.51551 0.99759
USER: genes 2 Torsion [C]-CA--CB-[OG] |==|  0.75971
USER: genes 3 Torsion [CA]-CB--OG-[HG] |==|  0.94180
USER: genes 4 Torsion [N]-CA--C-[N] |==|  0.54828
USER: genes 5 Torsion [C]-N--CA-[C] |==|  0.60586
USER: genes 6 Torsion [N]-CA--C-[N] |==|  0.47153
USER: genes 7 Torsion [C]-N--CA-[CB] |==|  0.24851
USER: genes 8 Torsion [N]-CA--CB-[OG] |==|  0.18633
USER: genes 9 Torsion [CA]-CB--OG-[HG] |==|  0.94723
USER: genes 10 Torsion [N]-CA--C-[N] |==|  0.03819
USER: genes 11 Torsion [C]-N--CA-[C] |==|  0.86786
USER: genes 12 Torsion [N]-CA--C-[O] |==|  0.40589
USER: genes 13 Torsion [N]-CA--CB-[CG2] |==|  0.46460
USER: genes 14 Torsion [CA]-CB--OG1-[HG1] |==|  0.16341
USER: genes 15 Torsion [N]-CA--CB-[OG] |==|  0.53769
USER: genes 16 Torsion [CA]-CB--OG-[HG] |==|  0.19812
USER: genes 17 Torsion [CB]-CA--N-[C] |==|  0.38273
USER: genes 18 Torsion [N]-C--CA-[N] |==|  0.43200
USER: genes 19 Torsion [C]-CA--N-[C] |==|  0.70168
USER: genes 20 Torsion [N]-C--CA-[N] |==|  0.34564
USER: genes 21 Torsion [C]-CA--N-[C] |==|  0.73890
USER: genes 22 Torsion [N]-C--CA-[N] |==|  0.67777
USER: genes 23 Torsion [C]-CA--CB-[CG] |==|  0.33947
USER: genes 24 Torsion [CA]-CB--CG-[OD1] |==|  0.97733
USER: genes 25 Torsion [C]-CA--CB-[CG1] |==|  0.55291
ROOT
ATOM      1  CA  SER D1363     -22.959  21.996 -39.522  1.00 54.34 LIG 0.20  C 
ENDROOT
BRANCH 1 2
ATOM      2  CB  SER D1363     -23.945  21.722 -38.383  1.00 54.70 LIG 0.20  C 
BRANCH 2 3
ATOM      3 OG   SER D1363     -23.305  21.119 -37.272  1.00 55.13 LIG-0.40  OA
ATOM      4 HG   SER D1363     -22.587  20.761 -37.522  1.00 55.13 LIG 0.21  HD
ENDBRANCH 2 3
ENDBRANCH 1 2
BRANCH 1 5
ATOM      5  C   SER D1363     -22.295  23.338 -39.314  1.00 54.23 LIG 0.24  C 
ATOM      6  N   SER D1364     -23.085  24.301 -38.863  1.00 54.98 LIG-0.34  N 
ATOM      7 H    SER D1364     -23.918  24.186 -38.686  1.00 54.98 LIG 0.16  HD
ATOM      8 O    SER D1363     -21.098  23.496 -39.544  1.00 54.73 LIG-0.27  OA
BRANCH 6 9
ATOM      9  CA  SER D1364     -22.611  25.657 -38.621  1.00 55.87 LIG 0.20  C 
BRANCH 9 10
ATOM     10  C   SER D1364     -23.299  26.189 -37.347  1.00 56.37 LIG 0.24  C 
ATOM     11 O    SER D1364     -24.222  25.584 -36.855  1.00 55.91 LIG-0.27  OA
ATOM     12  N   SER D1365     -22.857  27.327 -36.831  1.00 58.29 LIG-0.34  N 
ATOM     13 H    SER D1365     -22.212  27.795 -37.155  1.00 58.29 LIG 0.16  HD
BRANCH 12 14
ATOM     14  CA  SER D1365     -23.468  27.868 -35.632  1.00 60.08 LIG 0.20  C 
BRANCH 14 15
ATOM     15  CB  SER D1365     -22.776  27.334 -34.395  1.00 57.27 LIG 0.20  C 
BRANCH 15 16
ATOM     16 OG   SER D1365     -21.466  27.849 -34.359  1.00 56.70 LIG-0.40  OA
ATOM     17 HG   SER D1365     -21.249  28.118 -35.124  1.00 56.70 LIG 0.21  HD
ENDBRANCH 15 16
ENDBRANCH 14 15
BRANCH 14 18
ATOM     18  C   SER D1365     -23.165  29.338 -35.726  1.00 61.54 LIG 0.24  C 
ATOM     19  N   THR D1366     -22.739  29.727 -36.915  1.00 60.28 LIG-0.34  N 
ATOM     20 H    THR D1366     -22.806  29.269 -37.639  1.00 60.28 LIG 0.16  HD
ATOM     21 O    SER D1365     -23.363  30.104 -34.789  1.00 62.26 LIG-0.27  OA
BRANCH 19 22
ATOM     22  CA  THR D1366     -22.110  31.008 -37.051  1.00 59.76 LIG 0.19  C 
BRANCH 22 23
ATOM     23  C   THR D1366     -22.878  32.160 -36.370  1.00 59.52 LIG 0.22  C 
ATOM     24 O    THR D1366     -22.201  33.096 -35.864  1.00 43.13 LIG-0.29  OA
ENDBRANCH 22 23
BRANCH 22 25
ATOM     25  CB  THR D1366     -22.015  31.090 -38.600  1.00 59.99 LIG 0.14  C 
ATOM     26  CG2 THR D1366     -21.669  32.453 -39.116  1.00 59.85 LIG 0.04  C 
BRANCH 25 27
ATOM     27 OG1  THR D1366     -21.174  30.058 -39.117  1.00 59.97 LIG-0.39  OA
ATOM     28 HG1  THR D1366     -21.480  29.308 -38.893  1.00 59.97 LIG 0.21  HD
ENDBRANCH 25 27
ENDBRANCH 22 25
ENDBRANCH 19 22
ENDBRANCH 14 18
ENDBRANCH 12 14
ENDBRANCH 9 10
BRANCH 9 29
ATOM     29  CB  SER D1364     -22.974  26.540 -39.818  1.00 55.64 LIG 0.20  C 
BRANCH 29 30
ATOM     30 OG   SER D1364     -22.282  27.774 -39.784  1.00 56.44 LIG-0.40  OA
ATOM     31 HG   SER D1364     -21.470  27.646 -39.957  1.00 56.44 LIG 0.21  HD
ENDBRANCH 29 30
ENDBRANCH 9 29
ENDBRANCH 6 9
ENDBRANCH 1 5
BRANCH 1 32
ATOM     32  N   SER D1363     -21.987  20.921 -39.619  1.00 53.98 LIG-0.34  N 
ATOM     33  C   VAL D1362     -21.617  20.434 -40.798  1.00 54.25 LIG 0.24  C 
ATOM     34 O    VAL D1362     -22.058  20.855 -41.866  1.00 54.63 LIG-0.27  OA
ATOM     35 H    SER D1363     -21.686  20.641 -38.863  1.00 53.98 LIG 0.16  HD
BRANCH 33 36
ATOM     36  CA  VAL D1362     -20.602  19.303 -40.767  1.00 53.82 LIG 0.18  C 
BRANCH 36 37
ATOM     37  N   VAL D1362     -20.724  18.512 -41.979  1.00 55.57 LIG-0.35  N 
ATOM     38  C   ASP D1361     -21.253  17.296 -41.975  1.00 57.59 LIG 0.24  C 
ATOM     39 O    ASP D1361     -21.696  16.754 -40.962  1.00 58.12 LIG-0.27  OA
ATOM     40 H    VAL D1362     -20.425  18.901 -42.686  1.00 55.57 LIG 0.16  HD
BRANCH 38 41
ATOM     41  CA  ASP D1361     -21.312  16.598 -43.319  1.00 59.82 LIG 0.19  C 
BRANCH 41 42
ATOM     42  N   ASP D1361     -20.651  15.294 -43.303  1.00 59.55 LIG-0.34  N 
ATOM     43  C   PRO D1360     -19.378  15.136 -43.667  1.00 59.89 LIG 0.25  C 
ATOM     44 O    PRO D1360     -18.654  16.066 -44.027  1.00 59.45 LIG-0.27  OA
ATOM     45 H    ASP D1361     -21.154  14.648 -43.041  1.00 59.55 LIG 0.16  HD
BRANCH 43 46
ATOM     46  CA  PRO D1360     -18.841  13.711 -43.603  1.00 59.77 LIG 0.35  C 
ATOM     47  N   PRO D1360     -17.754  13.563 -42.613  1.00 58.11 LIG 0.32  N 
ATOM     48  CD  PRO D1360     -18.012  12.386 -41.766  1.00 58.92 LIG 0.32  C 
ATOM     49  CG  PRO D1360     -19.118  11.638 -42.553  1.00 60.40 LIG 0.04  C 
ATOM     50  CB  PRO D1360     -19.937  12.734 -43.200  1.00 59.31 LIG 0.05  C 
ENDBRANCH 43 46
ENDBRANCH 41 42
BRANCH 41 51
ATOM     51  CB  ASP D1361     -22.781  16.466 -43.737  1.00 61.63 LIG 0.15  C 
BRANCH 51 52
ATOM     52  CG  ASP D1361     -23.072  17.123 -45.074  1.00 64.71 LIG 0.17  C 
ATOM     53 OD1  ASP D1361     -22.180  17.815 -45.608  1.00 66.40 LIG-0.65  OA
ATOM     54 OD2  ASP D1361     -24.201  16.952 -45.584  1.00 65.87 LIG-0.65  OA
ENDBRANCH 51 52
ENDBRANCH 41 51
ENDBRANCH 38 41
ENDBRANCH 36 37
BRANCH 36 55
ATOM     55  CB  VAL D1362     -19.179  19.894 -40.640  1.00 52.08 LIG 0.01  C 
ATOM     56  CG1 VAL D1362     -18.138  18.869 -41.071  1.00 50.17 LIG 0.01  C 
ATOM     57  CG2 VAL D1362     -19.075  21.150 -41.484  1.00 49.53 LIG 0.01  C 
ENDBRANCH 36 55
ENDBRANCH 33 36
ENDBRANCH 1 32
TORSDOF 24
ENDMDL
MODEL 2
USER: ADFR SOLUTION from run 148
USER: SCORE 16.806496 LL:  -3.344 LR: -15.370 RR:   0.000 FEB:  -8.210
USER: RMSD 2.148299
USER: SEED 147
USER: STATUS searching
USER: GENES 26
USER: genes 0 Translation |==|  0.44231 0.50061 0.43522
USER: genes 1 Rotation |==|  0.50254 0.58353 0.51567 0.99272
USER: genes 2 Torsion [C]-CA--CB-[OG] |==|  0.70249
USER: genes 3 Torsion [CA]-CB--OG-[HG] |==|  0.02262
USER: genes 4 Torsion [N]-CA--C-[N] |==|  0.55011
USER: genes 5 Torsion [C]-N--CA-[C] |==|  0.58372
USER: genes 6 Torsion [N]-CA--C-[N] |==|  0.49056
USER: genes 7 Torsion [C]-N--CA-[CB] |==|  0.22778
USER: genes 8 Torsion [N]-CA--CB-[OG] |==|  0.16619
USER: genes 9 Torsion [CA]-CB--OG-[HG] |==|  0.97038
USER: genes 10 Torsion [N]-CA--C-[N] |==|  0.04256
USER: genes 11 Torsion [C]-N--CA-[C] |==|  0.86953
USER: genes 12 Torsion [N]-CA--C-[O] |==|  0.29768
USER: genes 13 Torsion [N]-CA--CB-[CG2] |==|  0.47536
USER: genes 14 Torsion [CA]-CB--OG1-[HG1] |==|  0.07902
USER: genes 15 Torsion [N]-CA--CB-[OG] |==|  0.77835
USER: genes 16 Torsion [CA]-CB--OG-[HG] |==|  0.89683
USER: genes 17 Torsion [CB]-CA--N-[C] |==|  0.19732
USER: genes 18 Torsion [N]-C--CA-[N] |==|  0.40065
USER: genes 19 Torsion [C]-CA--N-[C] |==|  0.84205
USER: genes 20 Torsion [N]-C--CA-[N] |==|  0.20471
USER: genes 21 Torsion [C]-CA--N-[C] |==|  0.77076
USER: genes 22 Torsion [N]-C--CA-[N] |==|  0.34841
USER: genes 23 Torsion [C]-CA--CB-[CG] |==|  0.79914
USER: genes 24 Torsion [CA]-CB--CG-[OD1] |==|  0.81234
USER: genes 25 Torsion [C]-CA--CB-[CG1] |==|  0.14314
ROOT
ATOM      1  CA  SER D1363     -23.164  21.865 -39.081  1.00 54.34 LIG 0.20  C 
ENDROOT
BRANCH 1 2
ATOM      2  CB  SER D1363     -23.967  21.606 -37.804  1.00 54.70 LIG 0.20  C 
BRANCH 2 3
ATOM      3 OG   SER D1363     -23.345  20.631 -36.985  1.00 55.13 LIG-0.40  OA
ATOM      4 HG   SER D1363     -22.586  20.447 -37.294  1.00 55.13 LIG 0.21  HD
ENDBRANCH 2 3
ENDBRANCH 1 2
BRANCH 1 5
ATOM      5  C   SER D1363     -22.483  23.212 -38.994  1.00 54.23 LIG 0.24  C 
ATOM      6  N   SER D1364     -23.196  24.176 -38.431  1.00 54.98 LIG-0.34  N 
ATOM      7 H    SER D1364     -23.990  24.060 -38.122  1.00 54.98 LIG 0.16  HD
ATOM      8 O    SER D1363     -21.339  23.373 -39.414  1.00 54.73 LIG-0.27  OA
BRANCH 6 9
ATOM      9  CA  SER D1364     -22.697  25.536 -38.281  1.00 55.87 LIG 0.20  C 
BRANCH 9 10
ATOM     10  C   SER D1364     -23.339  26.149 -37.018  1.00 56.37 LIG 0.24  C 
ATOM     11 O    SER D1364     -24.168  25.530 -36.394  1.00 55.91 LIG-0.27  OA
ATOM     12  N   SER D1365     -22.963  27.369 -36.660  1.00 58.29 LIG-0.34  N 
ATOM     13 H    SER D1365     -22.386  27.848 -37.081  1.00 58.29 LIG 0.16  HD
BRANCH 12 14
ATOM     14  CA  SER D1365     -23.534  27.988 -35.479  1.00 60.08 LIG 0.20  C 
BRANCH 14 15
ATOM     15  CB  SER D1365     -22.825  27.506 -34.231  1.00 57.27 LIG 0.20  C 
BRANCH 15 16
ATOM     16 OG   SER D1365     -21.463  27.848 -34.330  1.00 56.70 LIG-0.40  OA
ATOM     17 HG   SER D1365     -21.296  28.112 -35.110  1.00 56.70 LIG 0.21  HD
ENDBRANCH 15 16
ENDBRANCH 14 15
BRANCH 14 18
ATOM     18  C   SER D1365     -23.201  29.444 -35.660  1.00 61.54 LIG 0.24  C 
ATOM     19  N   THR D1366     -22.826  29.764 -36.887  1.00 60.28 LIG-0.34  N 
ATOM     20 H    THR D1366     -22.940  29.273 -37.583  1.00 60.28 LIG 0.16  HD
ATOM     21 O    SER D1365     -23.334  30.259 -34.754  1.00 62.26 LIG-0.27  OA
BRANCH 19 22
ATOM     22  CA  THR D1366     -22.175  31.019 -37.117  1.00 59.76 LIG 0.19  C 
BRANCH 22 23
ATOM     23  C   THR D1366     -22.872  32.220 -36.444  1.00 59.52 LIG 0.22  C 
ATOM     24 O    THR D1366     -22.314  32.731 -35.434  1.00 43.13 LIG-0.29  OA
ENDBRANCH 22 23
BRANCH 22 25
ATOM     25  CB  THR D1366     -22.170  31.032 -38.670  1.00 59.99 LIG 0.14  C 
ATOM     26  CG2 THR D1366     -21.732  32.335 -39.266  1.00 59.85 LIG 0.04  C 
BRANCH 25 27
ATOM     27 OG1  THR D1366     -21.462  29.906 -39.189  1.00 59.97 LIG-0.39  OA
ATOM     28 HG1  THR D1366     -21.512  29.267 -38.645  1.00 59.97 LIG 0.21  HD
ENDBRANCH 25 27
ENDBRANCH 22 25
ENDBRANCH 19 22
ENDBRANCH 14 18
ENDBRANCH 12 14
ENDBRANCH 9 10
BRANCH 9 29
ATOM     29  CB  SER D1364     -23.086  26.357 -39.513  1.00 55.64 LIG 0.20  C 
BRANCH 29 30
ATOM     30 OG   SER D1364     -22.216  26.108 -40.602  1.00 56.44 LIG-0.40  OA
ATOM     31 HG   SER D1364     -21.432  26.005 -40.317  1.00 56.44 LIG 0.21  HD
ENDBRANCH 29 30
ENDBRANCH 9 29
ENDBRANCH 6 9
ENDBRANCH 1 5
BRANCH 1 32
ATOM     32  N   SER D1363     -22.212  20.792 -39.307  1.00 53.98 LIG-0.34  N 
ATOM     33  C   VAL D1362     -22.616  19.582 -39.678  1.00 54.25 LIG 0.24  C 
ATOM     34 O    VAL D1362     -23.799  19.295 -39.858  1.00 54.63 LIG-0.27  OA
ATOM     35 H    SER D1363     -21.390  21.009 -39.180  1.00 53.98 LIG 0.16  HD
BRANCH 33 36
ATOM     36  CA  VAL D1362     -21.526  18.541 -39.871  1.00 53.82 LIG 0.18  C 
BRANCH 36 37
ATOM     37  N   VAL D1362     -22.015  17.243 -39.441  1.00 55.57 LIG-0.35  N 
ATOM     38  C   ASP D1361     -22.477  17.037 -38.214  1.00 57.59 LIG 0.24  C 
ATOM     39 O    ASP D1361     -22.544  17.921 -37.359  1.00 58.12 LIG-0.27  OA
ATOM     40 H    VAL D1362     -21.978  16.633 -40.045  1.00 55.57 LIG 0.16  HD
BRANCH 38 41
ATOM     41  CA  ASP D1361     -22.953  15.630 -37.917  1.00 59.82 LIG 0.19  C 
BRANCH 41 42
ATOM     42  N   ASP D1361     -21.848  14.683 -37.766  1.00 59.55 LIG-0.34  N 
ATOM     43  C   PRO D1360     -21.251  14.112 -38.812  1.00 59.89 LIG 0.25  C 
ATOM     44 O    PRO D1360     -21.564  14.342 -39.982  1.00 59.45 LIG-0.27  OA
ATOM     45 H    ASP D1361     -21.624  14.533 -36.949  1.00 59.55 LIG 0.16  HD
BRANCH 43 46
ATOM     46  CA  PRO D1360     -20.122  13.142 -38.484  1.00 59.77 LIG 0.35  C 
ATOM     47  N   PRO D1360     -20.327  11.812 -39.096  1.00 58.11 LIG 0.32  N 
ATOM     48  CD  PRO D1360     -19.091  11.382 -39.772  1.00 58.92 LIG 0.32  C 
ATOM     49  CG  PRO D1360     -18.036  12.366 -39.208  1.00 60.40 LIG 0.04  C 
ATOM     50  CB  PRO D1360     -18.790  13.663 -39.005  1.00 59.31 LIG 0.05  C 
ENDBRANCH 43 46
ENDBRANCH 41 42
BRANCH 41 51
ATOM     51  CB  ASP D1361     -23.824  15.665 -36.656  1.00 61.63 LIG 0.15  C 
BRANCH 51 52
ATOM     52  CG  ASP D1361     -23.016  15.891 -35.391  1.00 64.71 LIG 0.17  C 
ATOM     53 OD1  ASP D1361     -22.233  14.995 -35.012  1.00 66.40 LIG-0.65  OA
ATOM     54 OD2  ASP D1361     -23.175  16.966 -34.772  1.00 65.87 LIG-0.65  OA
ENDBRANCH 51 52
ENDBRANCH 41 51
ENDBRANCH 38 41
ENDBRANCH 36 37
BRANCH 36 55
ATOM     55  CB  VAL D1362     -21.111  18.503 -41.360  1.00 52.08 LIG 0.01  C 
ATOM     56  CG1 VAL D1362     -20.782  19.906 -41.855  1.00 50.17 LIG 0.01  C 
ATOM     57  CG2 VAL D1362     -19.918  17.582 -41.530  1.00 49.53 LIG 0.01  C 
ENDBRANCH 36 55
ENDBRANCH 33 36
ENDBRANCH 1 32
TORSDOF 24
ENDMDL
MODEL 3
USER: ADFR SOLUTION from run 186
USER: SCORE 16.777840 LL:  -4.175 LR: -15.202 RR:   0.000 FEB:  -8.043
USER: RMSD 3.687860
USER: SEED 185
USER: STATUS searching
USER: GENES 26
USER: genes 0 Translation |==|  0.40054 0.49907 0.46696
USER: genes 1 Rotation |==|  0.48490 0.52446 0.46106 0.99765
USER: genes 2 Torsion [C]-CA--CB-[OG] |==|  0.83636
USER: genes 3 Torsion [CA]-CB--OG-[HG] |==|  0.01028
USER: genes 4 Torsion [N]-CA--C-[N] |==|  0.54611
USER: genes 5 Torsion [C]-N--CA-[C] |==|  0.58283
USER: genes 6 Torsion [N]-CA--C-[N] |==|  0.43128
USER: genes 7 Torsion [C]-N--CA-[CB] |==|  0.38549
USER: genes 8 Torsion [N]-CA--CB-[OG] |==|  0.04073
USER: genes 9 Torsion [CA]-CB--OG-[HG] |==|  0.19274
USER: genes 10 Torsion [N]-CA--C-[N] |==|  0.92505
USER: genes 11 Torsion [C]-N--CA-[C] |==|  0.57479
USER: genes 12 Torsion [N]-CA--C-[O] |==|  0.98777
USER: genes 13 Torsion [N]-CA--CB-[CG2] |==|  0.36132
USER: genes 14 Torsion [CA]-CB--OG1-[HG1] |==|  0.04704
USER: genes 15 Torsion [N]-CA--CB-[OG] |==|  0.42779
USER: genes 16 Torsion [CA]-CB--OG-[HG] |==|  0.18968
USER: genes 17 Torsion [CB]-CA--N-[C] |==|  0.15247
USER: genes 18 Torsion [N]-C--CA-[N] |==|  0.91834
USER: genes 19 Torsion [C]-CA--N-[C] |==|  0.74137
USER: genes 20 Torsion [N]-C--CA-[N] |==|  0.44992
USER: genes 21 Torsion [C]-CA--N-[C] |==|  0.74596
USER: genes 22 Torsion [N]-C--CA-[N] |==|  0.44267
USER: genes 23 Torsion [C]-CA--CB-[CG] |==|  0.88266
USER: genes 24 Torsion [CA]-CB--CG-[OD1] |==|  0.85539
USER: genes 25 Torsion [C]-CA--CB-[CG1] |==|  0.08667
ROOT
ATOM      1  CA  SER D1363     -23.853  21.822 -38.605  1.00 54.34 LIG 0.20  C 
ENDROOT
BRANCH 1 2
ATOM      2  CB  SER D1363     -24.958  21.879 -37.547  1.00 54.70 LIG 0.20  C 
BRANCH 2 3
ATOM      3 OG   SER D1363     -24.424  21.888 -36.234  1.00 55.13 LIG-0.40  OA
ATOM      4 HG   SER D1363     -23.585  21.911 -36.272  1.00 55.13 LIG 0.21  HD
ENDBRANCH 2 3
ENDBRANCH 1 2
BRANCH 1 5
ATOM      5  C   SER D1363     -22.936  23.015 -38.453  1.00 54.23 LIG 0.24  C 
ATOM      6  N   SER D1364     -23.536  24.165 -38.182  1.00 54.98 LIG-0.34  N 
ATOM      7 H    SER D1364     -24.387  24.244 -38.087  1.00 54.98 LIG 0.16  HD
ATOM      8 O    SER D1363     -21.718  22.897 -38.565  1.00 54.73 LIG-0.27  OA
BRANCH 6 9
ATOM      9  CA  SER D1364     -22.805  25.413 -38.019  1.00 55.87 LIG 0.20  C 
BRANCH 9 10
ATOM     10  C   SER D1364     -23.588  26.307 -37.035  1.00 56.37 LIG 0.24  C 
ATOM     11 O    SER D1364     -24.781  26.168 -36.903  1.00 55.91 LIG-0.27  OA
ATOM     12  N   SER D1365     -22.915  27.229 -36.362  1.00 58.29 LIG-0.34  N 
ATOM     13 H    SER D1365     -22.069  27.369 -36.434  1.00 58.29 LIG 0.16  HD
BRANCH 12 14
ATOM     14  CA  SER D1365     -23.604  28.092 -35.422  1.00 60.08 LIG 0.20  C 
BRANCH 14 15
ATOM     15  CB  SER D1365     -22.776  28.282 -34.169  1.00 57.27 LIG 0.20  C 
BRANCH 15 16
ATOM     16 OG   SER D1365     -21.463  27.848 -34.430  1.00 56.70 LIG-0.40  OA
ATOM     17 HG   SER D1365     -21.094  28.379 -34.966  1.00 56.70 LIG 0.21  HD
ENDBRANCH 15 16
ENDBRANCH 14 15
BRANCH 14 18
ATOM     18  C   SER D1365     -23.654  29.412 -36.142  1.00 61.54 LIG 0.24  C 
ATOM     19  N   THR D1366     -22.675  29.590 -37.012  1.00 60.28 LIG-0.34  N 
ATOM     20 H    THR D1366     -22.164  28.970 -37.316  1.00 60.28 LIG 0.16  HD
ATOM     21 O    SER D1365     -24.565  30.214 -35.968  1.00 62.26 LIG-0.27  OA
BRANCH 19 22
ATOM     22  CA  THR D1366     -22.413  30.907 -37.514  1.00 59.76 LIG 0.19  C 
BRANCH 22 23
ATOM     23  C   THR D1366     -21.768  30.926 -38.916  1.00 59.52 LIG 0.22  C 
ATOM     24 O    THR D1366     -21.462  29.818 -39.436  1.00 43.13 LIG-0.29  OA
ENDBRANCH 22 23
BRANCH 22 25
ATOM     25  CB  THR D1366     -21.527  31.455 -36.362  1.00 59.99 LIG 0.14  C 
ATOM     26  CG2 THR D1366     -20.246  32.081 -36.825  1.00 59.85 LIG 0.04  C 
BRANCH 25 27
ATOM     27 OG1  THR D1366     -22.284  32.294 -35.488  1.00 59.97 LIG-0.39  OA
ATOM     28 HG1  THR D1366     -23.104  32.160 -35.612  1.00 59.97 LIG 0.21  HD
ENDBRANCH 25 27
ENDBRANCH 22 25
ENDBRANCH 19 22
ENDBRANCH 14 18
ENDBRANCH 12 14
ENDBRANCH 9 10
BRANCH 9 29
ATOM     29  CB  SER D1364     -22.687  26.112 -39.376  1.00 55.64 LIG 0.20  C 
BRANCH 29 30
ATOM     30 OG   SER D1364     -22.545  27.513 -39.232  1.00 56.44 LIG-0.40  OA
ATOM     31 HG   SER D1364     -21.799  27.685 -38.888  1.00 56.44 LIG 0.21  HD
ENDBRANCH 29 30
ENDBRANCH 9 29
ENDBRANCH 6 9
ENDBRANCH 1 5
BRANCH 1 32
ATOM     32  N   SER D1363     -23.127  20.568 -38.512  1.00 53.98 LIG-0.34  N 
ATOM     33  C   VAL D1362     -23.761  19.402 -38.571  1.00 54.25 LIG 0.24  C 
ATOM     34 O    VAL D1362     -24.980  19.306 -38.712  1.00 54.63 LIG-0.27  OA
ATOM     35 H    SER D1363     -22.277  20.652 -38.418  1.00 53.98 LIG 0.16  HD
BRANCH 33 36
ATOM     36  CA  VAL D1362     -22.893  18.160 -38.452  1.00 53.82 LIG 0.18  C 
BRANCH 36 37
ATOM     37  N   VAL D1362     -21.568  18.444 -38.976  1.00 55.57 LIG-0.35  N 
ATOM     38  C   ASP D1361     -21.243  18.194 -40.237  1.00 57.59 LIG 0.24  C 
ATOM     39 O    ASP D1361     -22.030  17.725 -41.059  1.00 58.12 LIG-0.27  OA
ATOM     40 H    VAL D1362     -21.026  18.784 -38.401  1.00 55.57 LIG 0.16  HD
BRANCH 38 41
ATOM     41  CA  ASP D1361     -19.823  18.547 -40.634  1.00 59.82 LIG 0.19  C 
BRANCH 41 42
ATOM     42  N   ASP D1361     -19.402  17.880 -41.866  1.00 59.55 LIG-0.34  N 
ATOM     43  C   PRO D1360     -18.787  16.698 -41.862  1.00 59.89 LIG 0.25  C 
ATOM     44 O    PRO D1360     -18.538  16.065 -40.834  1.00 59.45 LIG-0.27  OA
ATOM     45 H    ASP D1361     -19.588  18.318 -42.582  1.00 59.55 LIG 0.16  HD
BRANCH 43 46
ATOM     46  CA  PRO D1360     -18.405  16.143 -43.229  1.00 59.77 LIG 0.35  C 
ATOM     47  N   PRO D1360     -17.337  15.125 -43.145  1.00 58.11 LIG 0.32  N 
ATOM     48  CD  PRO D1360     -17.717  13.942 -43.935  1.00 58.92 LIG 0.32  C 
ATOM     49  CG  PRO D1360     -18.900  14.467 -44.787  1.00 60.40 LIG 0.04  C 
ATOM     50  CB  PRO D1360     -19.599  15.471 -43.895  1.00 59.31 LIG 0.05  C 
ENDBRANCH 43 46
ENDBRANCH 41 42
BRANCH 41 51
ATOM     51  CB  ASP D1361     -19.718  20.070 -40.768  1.00 61.63 LIG 0.15  C 
BRANCH 51 52
ATOM     52  CG  ASP D1361     -20.917  20.681 -41.473  1.00 64.71 LIG 0.17  C 
ATOM     53 OD1  ASP D1361     -21.263  20.214 -42.579  1.00 66.40 LIG-0.65  OA
ATOM     54 OD2  ASP D1361     -21.505  21.635 -40.920  1.00 65.87 LIG-0.65  OA
ENDBRANCH 51 52
ENDBRANCH 41 51
ENDBRANCH 38 41
ENDBRANCH 36 37
BRANCH 36 55
ATOM     55  CB  VAL D1362     -22.814  17.730 -36.969  1.00 52.08 LIG 0.01  C 
ATOM     56  CG1 VAL D1362     -24.102  18.094 -36.242  1.00 50.17 LIG 0.01  C 
ATOM     57  CG2 VAL D1362     -22.557  16.237 -36.888  1.00 49.53 LIG 0.01  C 
ENDBRANCH 36 55
ENDBRANCH 33 36
ENDBRANCH 1 32
TORSDOF 24
ENDMDL
MODEL 4
USER: ADFR SOLUTION from run 197
USER: SCORE 15.620843 LL:  -3.816 LR: -15.087 RR:   0.000 FEB:  -7.928
USER: RMSD 4.224623
USER: SEED 196
USER: STATUS no improvement in best in 6 clusters for 5 generations
USER: GENES 26
USER: genes 0 Translation |==|  0.45944 0.47585 0.39885
USER: genes 1 Rotation |==|  0.48426 0.54531 0.53139 0.99670
USER: genes 2 Torsion [C]-CA--CB-[OG] |==|  0.72883
USER: genes 3 Torsion [CA]-CB--OG-[HG] |==|  0.06191
USER: genes 4 Torsion [N]-CA--C-[N] |==|  0.52786
USER: genes 5 Torsion [C]-N--CA-[C] |==|  0.62350
USER: genes 6 Torsion [N]-CA--C-[N] |==|  0.40150
USER: genes 7 Torsion [C]-N--CA-[CB] |==|  0.37332
USER: genes 8 Torsion [N]-CA--CB-[OG] |==|  0.25461
USER: genes 9 Torsion [CA]-CB--OG-[HG] |==|  0.80339
USER: genes 10 Torsion [N]-CA--C-[N] |==|  0.91502
USER: genes 11 Torsion [C]-N--CA-[C] |==|  0.56394
USER: genes 12 Torsion [N]-CA--C-[O] |==|  0.93473
USER: genes 13 Torsion [N]-CA--CB-[CG2] |==|  0.39298
USER: genes 14 Torsion [CA]-CB--OG1-[HG1] |==|  0.00551
USER: genes 15 Torsion [N]-CA--CB-[OG] |==|  0.62980
USER: genes 16 Torsion [CA]-CB--OG-[HG] |==|  0.91696
USER: genes 17 Torsion [CB]-CA--N-[C] |==|  0.38453
USER: genes 18 Torsion [N]-C--CA-[N] |==|  0.43173
USER: genes 19 Torsion [C]-CA--N-[C] |==|  0.59520
USER: genes 20 Torsion [N]-C--CA-[N] |==|  0.93108
USER: genes 21 Torsion [C]-CA--N-[C] |==|  0.84261
USER: genes 22 Torsion [N]-C--CA-[N] |==|  0.43890
USER: genes 23 Torsion [C]-CA--CB-[CG] |==|  0.27619
USER: genes 24 Torsion [CA]-CB--CG-[OD1] |==|  0.67902
USER: genes 25 Torsion [C]-CA--CB-[CG1] |==|  0.62327
ROOT
ATOM      1  CA  SER D1363     -22.881  21.178 -39.626  1.00 54.34 LIG 0.20  C 
ENDROOT
BRANCH 1 2
ATOM      2  CB  SER D1363     -23.856  20.923 -38.474  1.00 54.70 LIG 0.20  C 
BRANCH 2 3
ATOM      3 OG   SER D1363     -23.235  20.222 -37.410  1.00 55.13 LIG-0.40  OA
ATOM      4 HG   SER D1363     -22.403  20.331 -37.450  1.00 55.13 LIG 0.21  HD
ENDBRANCH 2 3
ENDBRANCH 1 2
BRANCH 1 5
ATOM      5  C   SER D1363     -22.315  22.576 -39.520  1.00 54.23 LIG 0.24  C 
ATOM      6  N   SER D1364     -23.202  23.534 -39.297  1.00 54.98 LIG-0.34  N 
ATOM      7 H    SER D1364     -24.045  23.389 -39.207  1.00 54.98 LIG 0.16  HD
ATOM      8 O    SER D1363     -21.109  22.782 -39.626  1.00 54.73 LIG-0.27  OA
BRANCH 6 9
ATOM      9  CA  SER D1364     -22.831  24.937 -39.182  1.00 55.87 LIG 0.20  C 
BRANCH 9 10
ATOM     10  C   SER D1364     -23.581  25.539 -37.976  1.00 56.37 LIG 0.24  C 
ATOM     11 O    SER D1364     -24.708  25.186 -37.722  1.00 55.91 LIG-0.27  OA
ATOM     12  N   SER D1365     -22.958  26.457 -37.250  1.00 58.29 LIG-0.34  N 
ATOM     13 H    SER D1365     -22.162  26.745 -37.403  1.00 58.29 LIG 0.16  HD
BRANCH 12 14
ATOM     14  CA  SER D1365     -23.619  27.050 -36.104  1.00 60.08 LIG 0.20  C 
BRANCH 14 15
ATOM     15  CB  SER D1365     -22.683  27.098 -34.916  1.00 57.27 LIG 0.20  C 
BRANCH 15 16
ATOM     16 OG   SER D1365     -22.012  28.335 -34.925  1.00 56.70 LIG-0.40  OA
ATOM     17 HG   SER D1365     -21.462  28.351 -35.560  1.00 56.70 LIG 0.21  HD
ENDBRANCH 15 16
ENDBRANCH 14 15
BRANCH 14 18
ATOM     18  C   SER D1365     -23.868  28.466 -36.547  1.00 61.54 LIG 0.24  C 
ATOM     19  N   THR D1366     -22.966  28.934 -37.393  1.00 60.28 LIG-0.34  N 
ATOM     20 H    THR D1366     -22.399  28.456 -37.827  1.00 60.28 LIG 0.16  HD
ATOM     21 O    SER D1365     -24.860  29.094 -36.194  1.00 62.26 LIG-0.27  OA
BRANCH 19 22
ATOM     22  CA  THR D1366     -22.893  30.345 -37.632  1.00 59.76 LIG 0.19  C 
BRANCH 22 23
ATOM     23  C   THR D1366     -22.244  30.720 -38.981  1.00 59.52 LIG 0.22  C 
ATOM     24 O    THR D1366     -21.462  29.881 -39.508  1.00 43.13 LIG-0.29  OA
ENDBRANCH 22 23
BRANCH 22 25
ATOM     25  CB  THR D1366     -22.110  30.786 -36.365  1.00 59.99 LIG 0.14  C 
ATOM     26  CG2 THR D1366     -21.105  31.869 -36.619  1.00 59.85 LIG 0.04  C 
BRANCH 25 27
ATOM     27 OG1  THR D1366     -23.000  31.082 -35.289  1.00 59.97 LIG-0.39  OA
ATOM     28 HG1  THR D1366     -23.792  30.936 -35.532  1.00 59.97 LIG 0.21  HD
ENDBRANCH 25 27
ENDBRANCH 22 25
ENDBRANCH 19 22
ENDBRANCH 14 18
ENDBRANCH 12 14
ENDBRANCH 9 10
BRANCH 9 29
ATOM     29  CB  SER D1364     -23.229  25.673 -40.464  1.00 55.64 LIG 0.20  C 
BRANCH 29 30
ATOM     30 OG   SER D1364     -22.181  26.497 -40.941  1.00 56.44 LIG-0.40  OA
ATOM     31 HG   SER D1364     -21.718  26.765 -40.293  1.00 56.44 LIG 0.21  HD
ENDBRANCH 29 30
ENDBRANCH 9 29
ENDBRANCH 6 9
ENDBRANCH 1 5
BRANCH 1 32
ATOM     32  N   SER D1363     -21.835  20.171 -39.636  1.00 53.98 LIG-0.34  N 
ATOM     33  C   VAL D1362     -21.411  19.631 -40.774  1.00 54.25 LIG 0.24  C 
ATOM     34 O    VAL D1362     -21.862  19.946 -41.875  1.00 54.63 LIG-0.27  OA
ATOM     35 H    SER D1363     -21.528  19.965 -38.860  1.00 53.98 LIG 0.16  HD
BRANCH 33 36
ATOM     36  CA  VAL D1362     -20.320  18.581 -40.652  1.00 53.82 LIG 0.18  C 
BRANCH 36 37
ATOM     37  N   VAL D1362     -20.367  17.700 -41.807  1.00 55.57 LIG-0.35  N 
ATOM     38  C   ASP D1361     -20.073  16.409 -41.719  1.00 57.59 LIG 0.24  C 
ATOM     39 O    ASP D1361     -19.760  15.857 -40.664  1.00 58.12 LIG-0.27  OA
ATOM     40 H    VAL D1362     -20.599  18.089 -42.538  1.00 55.57 LIG 0.16  HD
BRANCH 38 41
ATOM     41  CA  ASP D1361     -20.170  15.623 -43.010  1.00 59.82 LIG 0.19  C 
BRANCH 41 42
ATOM     42  N   ASP D1361     -21.089  16.232 -43.971  1.00 59.55 LIG-0.34  N 
ATOM     43  C   PRO D1360     -22.364  16.482 -43.678  1.00 59.89 LIG 0.25  C 
ATOM     44 O    PRO D1360     -22.869  16.239 -42.580  1.00 59.45 LIG-0.27  OA
ATOM     45 H    ASP D1361     -20.731  16.411 -44.733  1.00 59.55 LIG 0.16  HD
BRANCH 43 46
ATOM     46  CA  PRO D1360     -23.192  17.112 -44.792  1.00 59.77 LIG 0.35  C 
ATOM     47  N   PRO D1360     -24.641  16.888 -44.612  1.00 58.11 LIG 0.32  N 
ATOM     48  CD  PRO D1360     -25.364  18.160 -44.785  1.00 58.92 LIG 0.32  C 
ATOM     49  CG  PRO D1360     -24.296  19.071 -45.441  1.00 60.40 LIG 0.04  C 
ATOM     50  CB  PRO D1360     -22.983  18.619 -44.838  1.00 59.31 LIG 0.05  C 
ENDBRANCH 43 46
ENDBRANCH 41 42
BRANCH 41 51
ATOM     51  CB  ASP D1361     -18.764  15.484 -43.604  1.00 61.63 LIG 0.15  C 
BRANCH 51 52
ATOM     52  CG  ASP D1361     -18.131  14.136 -43.305  1.00 64.71 LIG 0.17  C 
ATOM     53 OD1  ASP D1361     -17.105  14.101 -42.593  1.00 66.40 LIG-0.65  OA
ATOM     54 OD2  ASP D1361     -18.659  13.113 -43.793  1.00 65.87 LIG-0.65  OA
ENDBRANCH 51 52
ENDBRANCH 41 51
ENDBRANCH 38 41
ENDBRANCH 36 37
BRANCH 36 55
ATOM     55  CB  VAL D1362     -18.945  19.278 -40.552  1.00 52.08 LIG 0.01  C 
ATOM     56  CG1 VAL D1362     -17.930  18.582 -41.448  1.00 50.17 LIG 0.01  C 
ATOM     57  CG2 VAL D1362     -19.088  20.738 -40.938  1.00 49.53 LIG 0.01  C 
ENDBRANCH 36 55
ENDBRANCH 33 36
ENDBRANCH 1 32
TORSDOF 24
ENDMDL
MODEL 5
USER: ADFR SOLUTION from run 40
USER: SCORE 15.880695 LL:  -3.161 LR: -14.824 RR:   0.000 FEB:  -7.665
USER: RMSD 4.078931
USER: SEED 39
USER: STATUS searching
USER: GENES 26
USER: genes 0 Translation |==|  0.44062 0.49403 0.43954
USER: genes 1 Rotation |==|  0.50667 0.59800 0.51763 0.98994
USER: genes 2 Torsion [C]-CA--CB-[OG] |==|  0.68538
USER: genes 3 Torsion [CA]-CB--OG-[HG] |==|  0.04419
USER: genes 4 Torsion [N]-CA--C-[N] |==|  0.51660
USER: genes 5 Torsion [C]-N--CA-[C] |==|  0.60989
USER: genes 6 Torsion [N]-CA--C-[N] |==|  0.47689
USER: genes 7 Torsion [C]-N--CA-[CB] |==|  0.23333
USER: genes 8 Torsion [N]-CA--CB-[OG] |==|  0.20937
USER: genes 9 Torsion [CA]-CB--OG-[HG] |==|  0.92600
USER: genes 10 Torsion [N]-CA--C-[N] |==|  0.03811
USER: genes 11 Torsion [C]-N--CA-[C] |==|  0.87654
USER: genes 12 Torsion [N]-CA--C-[O] |==|  0.35312
USER: genes 13 Torsion [N]-CA--CB-[CG2] |==|  0.48525
USER: genes 14 Torsion [CA]-CB--OG1-[HG1] |==|  0.05750
USER: genes 15 Torsion [N]-CA--CB-[OG] |==|  0.74183
USER: genes 16 Torsion [CA]-CB--OG-[HG] |==|  0.86259
USER: genes 17 Torsion [CB]-CA--N-[C] |==|  0.48339
USER: genes 18 Torsion [N]-C--CA-[N] |==|  0.26925
USER: genes 19 Torsion [C]-CA--N-[C] |==|  0.58094
USER: genes 20 Torsion [N]-C--CA-[N] |==|  0.89593
USER: genes 21 Torsion [C]-CA--N-[C] |==|  0.84124
USER: genes 22 Torsion [N]-C--CA-[N] |==|  0.32078
USER: genes 23 Torsion [C]-CA--CB-[CG] |==|  0.17148
USER: genes 24 Torsion [CA]-CB--CG-[OD1] |==|  0.08027
USER: genes 25 Torsion [C]-CA--CB-[CG1] |==|  0.13110
ROOT
ATOM      1  CA  SER D1363     -23.192  21.682 -39.016  1.00 54.34 LIG 0.20  C 
ENDROOT
BRANCH 1 2
ATOM      2  CB  SER D1363     -23.916  21.399 -37.698  1.00 54.70 LIG 0.20  C 
BRANCH 2 3
ATOM      3 OG   SER D1363     -23.323  20.318 -36.998  1.00 55.13 LIG-0.40  OA
ATOM      4 HG   SER D1363     -22.559  20.165 -37.313  1.00 55.13 LIG 0.21  HD
ENDBRANCH 2 3
ENDBRANCH 1 2
BRANCH 1 5
ATOM      5  C   SER D1363     -22.513  23.032 -38.948  1.00 54.23 LIG 0.24  C 
ATOM      6  N   SER D1364     -23.283  24.038 -38.558  1.00 54.98 LIG-0.34  N 
ATOM      7 H    SER D1364     -24.111  23.946 -38.346  1.00 54.98 LIG 0.16  HD
ATOM      8 O    SER D1363     -21.324  23.159 -39.229  1.00 54.73 LIG-0.27  OA
BRANCH 6 9
ATOM      9  CA  SER D1364     -22.794  25.405 -38.452  1.00 55.87 LIG 0.20  C 
BRANCH 9 10
ATOM     10  C   SER D1364     -23.409  26.041 -37.188  1.00 56.37 LIG 0.24  C 
ATOM     11 O    SER D1364     -24.279  25.467 -36.579  1.00 55.91 LIG-0.27  OA
ATOM     12  N   SER D1365     -22.963  27.231 -36.811  1.00 58.29 LIG-0.34  N 
ATOM     13 H    SER D1365     -22.354  27.680 -37.222  1.00 58.29 LIG 0.16  HD
BRANCH 12 14
ATOM     14  CA  SER D1365     -23.506  27.870 -35.628  1.00 60.08 LIG 0.20  C 
BRANCH 14 15
ATOM     15  CB  SER D1365     -22.806  27.368 -34.384  1.00 57.27 LIG 0.20  C 
BRANCH 15 16
ATOM     16 OG   SER D1365     -21.532  27.964 -34.315  1.00 56.70 LIG-0.40  OA
ATOM     17 HG   SER D1365     -21.273  28.161 -35.090  1.00 56.70 LIG 0.21  HD
ENDBRANCH 15 16
ENDBRANCH 14 15
BRANCH 14 18
ATOM     18  C   SER D1365     -23.128  29.315 -35.814  1.00 61.54 LIG 0.24  C 
ATOM     19  N   THR D1366     -22.718  29.613 -37.035  1.00 60.28 LIG-0.34  N 
ATOM     20 H    THR D1366     -22.831  29.120 -37.729  1.00 60.28 LIG 0.16  HD
ATOM     21 O    SER D1365     -23.255  30.141 -34.917  1.00 62.26 LIG-0.27  OA
BRANCH 19 22
ATOM     22  CA  THR D1366     -22.026  30.847 -37.261  1.00 59.76 LIG 0.19  C 
BRANCH 22 23
ATOM     23  C   THR D1366     -22.667  32.064 -36.561  1.00 59.52 LIG 0.22  C 
ATOM     24 O    THR D1366     -21.927  32.775 -35.827  1.00 43.13 LIG-0.29  OA
ENDBRANCH 22 23
BRANCH 22 25
ATOM     25  CB  THR D1366     -22.047  30.879 -38.814  1.00 59.99 LIG 0.14  C 
ATOM     26  CG2 THR D1366     -21.493  32.141 -39.403  1.00 59.85 LIG 0.04  C 
BRANCH 25 27
ATOM     27 OG1  THR D1366     -21.462  29.696 -39.359  1.00 59.97 LIG-0.39  OA
ATOM     28 HG1  THR D1366     -21.470  29.087 -38.780  1.00 59.97 LIG 0.21  HD
ENDBRANCH 25 27
ENDBRANCH 22 25
ENDBRANCH 19 22
ENDBRANCH 14 18
ENDBRANCH 12 14
ENDBRANCH 9 10
BRANCH 9 29
ATOM     29  CB  SER D1364     -23.221  26.193 -39.693  1.00 55.64 LIG 0.20  C 
BRANCH 29 30
ATOM     30 OG   SER D1364     -22.225  26.167 -40.698  1.00 56.44 LIG-0.40  OA
ATOM     31 HG   SER D1364     -21.482  26.370 -40.362  1.00 56.44 LIG 0.21  HD
ENDBRANCH 29 30
ENDBRANCH 9 29
ENDBRANCH 6 9
ENDBRANCH 1 5
BRANCH 1 32
ATOM     32  N   SER D1363     -22.250  20.618 -39.315  1.00 53.98 LIG-0.34  N 
ATOM     33  C   VAL D1362     -21.590  20.588 -40.468  1.00 54.25 LIG 0.24  C 
ATOM     34 O    VAL D1362     -21.725  21.446 -41.340  1.00 54.63 LIG-0.27  OA
ATOM     35 H    SER D1363     -22.164  20.030 -38.693  1.00 53.98 LIG 0.16  HD
BRANCH 33 36
ATOM     36  CA  VAL D1362     -20.641  19.418 -40.667  1.00 53.82 LIG 0.18  C 
BRANCH 36 37
ATOM     37  N   VAL D1362     -21.307  18.382 -41.438  1.00 55.57 LIG-0.35  N 
ATOM     38  C   ASP D1361     -21.003  17.099 -41.300  1.00 57.59 LIG 0.24  C 
ATOM     39 O    ASP D1361     -20.157  16.685 -40.506  1.00 58.12 LIG-0.27  OA
ATOM     40 H    VAL D1362     -21.905  18.676 -41.981  1.00 55.57 LIG 0.16  HD
BRANCH 38 41
ATOM     41  CA  ASP D1361     -21.786  16.139 -42.173  1.00 59.82 LIG 0.19  C 
BRANCH 41 42
ATOM     42  N   ASP D1361     -23.186  16.536 -42.328  1.00 59.55 LIG-0.34  N 
ATOM     43  C   PRO D1360     -23.997  16.710 -41.285  1.00 59.89 LIG 0.25  C 
ATOM     44 O    PRO D1360     -23.639  16.569 -40.114  1.00 59.45 LIG-0.27  OA
ATOM     45 H    ASP D1361     -23.430  16.646 -43.145  1.00 59.55 LIG 0.16  HD
BRANCH 43 46
ATOM     46  CA  PRO D1360     -25.429  17.115 -41.617  1.00 59.77 LIG 0.35  C 
ATOM     47  N   PRO D1360     -26.411  16.085 -41.221  1.00 58.11 LIG 0.32  N 
ATOM     48  CD  PRO D1360     -27.517  16.715 -40.479  1.00 58.92 LIG 0.32  C 
ATOM     49  CG  PRO D1360     -27.314  18.221 -40.782  1.00 60.40 LIG 0.04  C 
ATOM     50  CB  PRO D1360     -25.814  18.393 -40.885  1.00 59.31 LIG 0.05  C 
ENDBRANCH 43 46
ENDBRANCH 41 42
BRANCH 41 51
ATOM     51  CB  ASP D1361     -21.089  16.035 -43.534  1.00 61.63 LIG 0.15  C 
BRANCH 51 52
ATOM     52  CG  ASP D1361     -19.677  15.485 -43.429  1.00 64.71 LIG 0.17  C 
ATOM     53 OD1  ASP D1361     -19.407  14.701 -42.495  1.00 66.40 LIG-0.65  OA
ATOM     54 OD2  ASP D1361     -18.837  15.848 -44.281  1.00 65.87 LIG-0.65  OA
ENDBRANCH 51 52
ENDBRANCH 41 51
ENDBRANCH 38 41
ENDBRANCH 36 37
BRANCH 36 55
ATOM     55  CB  VAL D1362     -19.368  19.908 -41.394  1.00 52.08 LIG 0.01  C 
ATOM     56  CG1 VAL D1362     -18.844  21.183 -40.745  1.00 50.17 LIG 0.01  C 
ATOM     57  CG2 VAL D1362     -18.315  18.818 -41.360  1.00 49.53 LIG 0.01  C 
ENDBRANCH 36 55
ENDBRANCH 33 36
ENDBRANCH 1 32
TORSDOF 24
ENDMDL
MODEL 6
USER: ADFR SOLUTION from run 56
USER: SCORE 15.856484 LL:  -3.547 LR: -14.813 RR:   0.000 FEB:  -7.653
USER: RMSD 3.040170
USER: SEED 55
USER: STATUS no improvement in best in 4 clusters for 5 generations
USER: GENES 26
USER: genes 0 Translation |==|  0.44180 0.50079 0.43538
USER: genes 1 Rotation |==|  0.49794 0.57041 0.51430 0.99481
USER: genes 2 Torsion [C]-CA--CB-[OG] |==|  0.73625
USER: genes 3 Torsion [CA]-CB--OG-[HG] |==|  0.97477
USER: genes 4 Torsion [N]-CA--C-[N] |==|  0.54205
USER: genes 5 Torsion [C]-N--CA-[C] |==|  0.60040
USER: genes 6 Torsion [N]-CA--C-[N] |==|  0.47099
USER: genes 7 Torsion [C]-N--CA-[CB] |==|  0.24419
USER: genes 8 Torsion [N]-CA--CB-[OG] |==|  0.17415
USER: genes 9 Torsion [CA]-CB--OG-[HG] |==|  0.92673
USER: genes 10 Torsion [N]-CA--C-[N] |==|  0.03330
USER: genes 11 Torsion [C]-N--CA-[C] |==|  0.88264
USER: genes 12 Torsion [N]-CA--C-[O] |==|  0.41293
USER: genes 13 Torsion [N]-CA--CB-[CG2] |==|  0.48988
USER: genes 14 Torsion [CA]-CB--OG1-[HG1] |==|  0.07081
USER: genes 15 Torsion [N]-CA--CB-[OG] |==|  0.76467
USER: genes 16 Torsion [CA]-CB--OG-[HG] |==|  0.91857
USER: genes 17 Torsion [CB]-CA--N-[C] |==|  0.47222
USER: genes 18 Torsion [N]-C--CA-[N] |==|  0.20794
USER: genes 19 Torsion [C]-CA--N-[C] |==|  0.77053
USER: genes 20 Torsion [N]-C--CA-[N] |==|  0.50341
USER: genes 21 Torsion [C]-CA--N-[C] |==|  0.78736
USER: genes 22 Torsion [N]-C--CA-[N] |==|  0.49688
USER: genes 23 Torsion [C]-CA--CB-[CG] |==|  0.88584
USER: genes 24 Torsion [CA]-CB--CG-[OD1] |==|  0.84244
USER: genes 25 Torsion [C]-CA--CB-[CG1] |==|  0.14792
ROOT
ATOM      1  CA  SER D1363     -23.172  21.870 -39.078  1.00 54.34 LIG 0.20  C 
ENDROOT
BRANCH 1 2
ATOM      2  CB  SER D1363     -24.043  21.635 -37.842  1.00 54.70 LIG 0.20  C 
BRANCH 2 3
ATOM      3 OG   SER D1363     -23.354  20.894 -36.850  1.00 55.13 LIG-0.40  OA
ATOM      4 HG   SER D1363     -22.630  20.608 -37.166  1.00 55.13 LIG 0.21  HD
ENDBRANCH 2 3
ENDBRANCH 1 2
BRANCH 1 5
ATOM      5  C   SER D1363     -22.492  23.216 -38.979  1.00 54.23 LIG 0.24  C 
ATOM      6  N   SER D1364     -23.249  24.206 -38.528  1.00 54.98 LIG-0.34  N 
ATOM      7 H    SER D1364     -24.071  24.105 -38.294  1.00 54.98 LIG 0.16  HD
ATOM      8 O    SER D1363     -21.311  23.356 -39.289  1.00 54.73 LIG-0.27  OA
BRANCH 6 9
ATOM      9  CA  SER D1364     -22.758  25.569 -38.383  1.00 55.87 LIG 0.20  C 
BRANCH 9 10
ATOM     10  C   SER D1364     -23.403  26.184 -37.124  1.00 56.37 LIG 0.24  C 
ATOM     11 O    SER D1364     -24.318  25.622 -36.571  1.00 55.91 LIG-0.27  OA
ATOM     12  N   SER D1365     -22.933  27.345 -36.689  1.00 58.29 LIG-0.34  N 
ATOM     13 H    SER D1365     -22.292  27.784 -37.058  1.00 58.29 LIG 0.16  HD
BRANCH 12 14
ATOM     14  CA  SER D1365     -23.503  27.963 -35.508  1.00 60.08 LIG 0.20  C 
BRANCH 14 15
ATOM     15  CB  SER D1365     -22.807  27.466 -34.258  1.00 57.27 LIG 0.20  C 
BRANCH 15 16
ATOM     16 OG   SER D1365     -21.454  27.850 -34.317  1.00 56.70 LIG-0.40  OA
ATOM     17 HG   SER D1365     -21.222  27.935 -35.120  1.00 56.70 LIG 0.21  HD
ENDBRANCH 15 16
ENDBRANCH 14 15
BRANCH 14 18
ATOM     18  C   SER D1365     -23.152  29.416 -35.678  1.00 61.54 LIG 0.24  C 
ATOM     19  N   THR D1366     -22.700  29.726 -36.881  1.00 60.28 LIG-0.34  N 
ATOM     20 H    THR D1366     -22.773  29.230 -37.580  1.00 60.28 LIG 0.16  HD
ATOM     21 O    SER D1365     -23.336  30.239 -34.787  1.00 62.26 LIG-0.27  OA
BRANCH 19 22
ATOM     22  CA  THR D1366     -22.029  30.976 -37.079  1.00 59.76 LIG 0.19  C 
BRANCH 22 23
ATOM     23  C   THR D1366     -22.699  32.168 -36.362  1.00 59.52 LIG 0.22  C 
ATOM     24 O    THR D1366     -21.954  33.103 -35.960  1.00 43.13 LIG-0.29  OA
ENDBRANCH 22 23
BRANCH 22 25
ATOM     25  CB  THR D1366     -22.039  31.037 -38.631  1.00 59.99 LIG 0.14  C 
ATOM     26  CG2 THR D1366     -21.468  32.303 -39.194  1.00 59.85 LIG 0.04  C 
BRANCH 25 27
ATOM     27 OG1  THR D1366     -21.463  29.858 -39.194  1.00 59.97 LIG-0.39  OA
ATOM     28 HG1  THR D1366     -21.541  29.221 -38.651  1.00 59.97 LIG 0.21  HD
ENDBRANCH 25 27
ENDBRANCH 22 25
ENDBRANCH 19 22
ENDBRANCH 14 18
ENDBRANCH 12 14
ENDBRANCH 9 10
BRANCH 9 29
ATOM     29  CB  SER D1364     -23.149  26.382 -39.620  1.00 55.64 LIG 0.20  C 
BRANCH 29 30
ATOM     30 OG   SER D1364     -22.213  26.218 -40.670  1.00 56.44 LIG-0.40  OA
ATOM     31 HG   SER D1364     -21.454  26.061 -40.347  1.00 56.44 LIG 0.21  HD
ENDBRANCH 29 30
ENDBRANCH 9 29
ENDBRANCH 6 9
ENDBRANCH 1 5
BRANCH 1 32
ATOM     32  N   SER D1363     -22.213  20.791 -39.234  1.00 53.98 LIG-0.34  N 
ATOM     33  C   VAL D1362     -21.485  20.673 -40.338  1.00 54.25 LIG 0.24  C 
ATOM     34 O    VAL D1362     -21.566  21.458 -41.283  1.00 54.63 LIG-0.27  OA
ATOM     35 H    SER D1363     -22.166  20.253 -38.564  1.00 53.98 LIG 0.16  HD
BRANCH 33 36
ATOM     36  CA  VAL D1362     -20.525  19.496 -40.386  1.00 53.82 LIG 0.18  C 
BRANCH 36 37
ATOM     37  N   VAL D1362     -21.273  18.272 -40.619  1.00 55.57 LIG-0.35  N 
ATOM     38  C   ASP D1361     -21.873  17.617 -39.635  1.00 57.59 LIG 0.24  C 
ATOM     39 O    ASP D1361     -21.862  17.996 -38.464  1.00 58.12 LIG-0.27  OA
ATOM     40 H    VAL D1362     -21.288  18.019 -41.441  1.00 55.57 LIG 0.16  HD
BRANCH 38 41
ATOM     41  CA  ASP D1361     -22.615  16.358 -40.037  1.00 59.82 LIG 0.19  C 
BRANCH 41 42
ATOM     42  N   ASP D1361     -23.274  15.708 -38.905  1.00 59.55 LIG-0.34  N 
ATOM     43  C   PRO D1360     -22.602  14.987 -38.008  1.00 59.89 LIG 0.25  C 
ATOM     44 O    PRO D1360     -21.381  14.822 -38.045  1.00 59.45 LIG-0.27  OA
ATOM     45 H    ASP D1361     -24.124  15.834 -38.874  1.00 59.55 LIG 0.16  HD
BRANCH 43 46
ATOM     46  CA  PRO D1360     -23.436  14.368 -36.892  1.00 59.77 LIG 0.35  C 
ATOM     47  N   PRO D1360     -22.620  13.565 -35.958  1.00 58.11 LIG 0.32  N 
ATOM     48  CD  PRO D1360     -22.947  13.934 -34.571  1.00 58.92 LIG 0.32  C 
ATOM     49  CG  PRO D1360     -24.264  14.734 -34.734  1.00 60.40 LIG 0.04  C 
ATOM     50  CB  PRO D1360     -24.118  15.446 -36.062  1.00 59.31 LIG 0.05  C 
ENDBRANCH 43 46
ENDBRANCH 41 42
BRANCH 41 51
ATOM     51  CB  ASP D1361     -23.627  16.717 -41.131  1.00 61.63 LIG 0.15  C 
BRANCH 51 52
ATOM     52  CG  ASP D1361     -24.340  18.030 -40.863  1.00 64.71 LIG 0.17  C 
ATOM     53 OD1  ASP D1361     -24.963  18.166 -39.789  1.00 66.40 LIG-0.65  OA
ATOM     54 OD2  ASP D1361     -24.281  18.924 -41.736  1.00 65.87 LIG-0.65  OA
ENDBRANCH 51 52
ENDBRANCH 41 51
ENDBRANCH 38 41
ENDBRANCH 36 37
BRANCH 36 55
ATOM     55  CB  VAL D1362     -19.487  19.725 -41.508  1.00 52.08 LIG 0.01  C 
ATOM     56  CG1 VAL D1362     -18.813  21.080 -41.338  1.00 50.17 LIG 0.01  C 
ATOM     57  CG2 VAL D1362     -18.460  18.610 -41.484  1.00 49.53 LIG 0.01  C 
ENDBRANCH 36 55
ENDBRANCH 33 36
ENDBRANCH 1 32
TORSDOF 24
ENDMDL
MODEL 7
USER: ADFR SOLUTION from run 116
USER: SCORE 15.987267 LL:  -3.878 LR: -14.708 RR:   0.000 FEB:  -7.549
USER: RMSD 3.715712
USER: SEED 115
USER: STATUS searching
USER: GENES 26
USER: genes 0 Translation |==|  0.40585 0.49096 0.47494
USER: genes 1 Rotation |==|  0.46938 0.54684 0.47569 0.99626
USER: genes 2 Torsion [C]-CA--CB-[OG] |==|  0.85194
USER: genes 3 Torsion [CA]-CB--OG-[HG] |==|  0.87220
USER: genes 4 Torsion [N]-CA--C-[N] |==|  0.56881
USER: genes 5 Torsion [C]-N--CA-[C] |==|  0.55320
USER: genes 6 Torsion [N]-CA--C-[N] |==|  0.42285
USER: genes 7 Torsion [C]-N--CA-[CB] |==|  0.38338
USER: genes 8 Torsion [N]-CA--CB-[OG] |==|  0.04924
USER: genes 9 Torsion [CA]-CB--OG-[HG] |==|  0.16088
USER: genes 10 Torsion [N]-CA--C-[N] |==|  0.94605
USER: genes 11 Torsion [C]-N--CA-[C] |==|  0.57027
USER: genes 12 Torsion [N]-CA--C-[O] |==|  0.92498
USER: genes 13 Torsion [N]-CA--CB-[CG2] |==|  0.38358
USER: genes 14 Torsion [CA]-CB--OG1-[HG1] |==|  0.09656
USER: genes 15 Torsion [N]-CA--CB-[OG] |==|  0.48603
USER: genes 16 Torsion [CA]-CB--OG-[HG] |==|  0.18867
USER: genes 17 Torsion [CB]-CA--N-[C] |==|  0.13344
USER: genes 18 Torsion [N]-C--CA-[N] |==|  0.46942
USER: genes 19 Torsion [C]-CA--N-[C] |==|  0.76279
USER: genes 20 Torsion [N]-C--CA-[N] |==|  0.40009
USER: genes 21 Torsion [C]-CA--N-[C] |==|  0.67795
USER: genes 22 Torsion [N]-C--CA-[N] |==|  0.22287
USER: genes 23 Torsion [C]-CA--CB-[CG] |==|  0.46479
USER: genes 24 Torsion [CA]-CB--CG-[OD1] |==|  0.72750
USER: genes 25 Torsion [C]-CA--CB-[CG1] |==|  0.22547
ROOT
ATOM      1  CA  SER D1363     -23.765  21.597 -38.485  1.00 54.34 LIG 0.20  C 
ENDROOT
BRANCH 1 2
ATOM      2  CB  SER D1363     -24.767  21.650 -37.329  1.00 54.70 LIG 0.20  C 
BRANCH 2 3
ATOM      3 OG   SER D1363     -24.122  21.889 -36.090  1.00 55.13 LIG-0.40  OA
ATOM      4 HG   SER D1363     -23.448  21.391 -36.023  1.00 55.13 LIG 0.21  HD
ENDBRANCH 2 3
ENDBRANCH 1 2
BRANCH 1 5
ATOM      5  C   SER D1363     -22.912  22.845 -38.482  1.00 54.23 LIG 0.24  C 
ATOM      6  N   SER D1364     -23.511  23.945 -38.048  1.00 54.98 LIG-0.34  N 
ATOM      7 H    SER D1364     -24.326  23.964 -37.775  1.00 54.98 LIG 0.16  HD
ATOM      8 O    SER D1363     -21.740  22.814 -38.850  1.00 54.73 LIG-0.27  OA
BRANCH 6 9
ATOM      9  CA  SER D1364     -22.840  25.236 -37.993  1.00 55.87 LIG 0.20  C 
BRANCH 9 10
ATOM     10  C   SER D1364     -23.622  26.146 -37.023  1.00 56.37 LIG 0.24  C 
ATOM     11 O    SER D1364     -24.810  25.990 -36.866  1.00 55.91 LIG-0.27  OA
ATOM     12  N   SER D1365     -22.954  27.101 -36.392  1.00 58.29 LIG-0.34  N 
ATOM     13 H    SER D1365     -22.113  27.253 -36.484  1.00 58.29 LIG 0.16  HD
BRANCH 12 14
ATOM     14  CA  SER D1365     -23.643  27.980 -35.467  1.00 60.08 LIG 0.20  C 
BRANCH 14 15
ATOM     15  CB  SER D1365     -22.805  28.209 -34.227  1.00 57.27 LIG 0.20  C 
BRANCH 15 16
ATOM     16 OG   SER D1365     -21.475  27.848 -34.513  1.00 56.70 LIG-0.40  OA
ATOM     17 HG   SER D1365     -21.195  28.299 -35.164  1.00 56.70 LIG 0.21  HD
ENDBRANCH 15 16
ENDBRANCH 14 15
BRANCH 14 18
ATOM     18  C   SER D1365     -23.712  29.282 -36.219  1.00 61.54 LIG 0.24  C 
ATOM     19  N   THR D1366     -22.842  29.381 -37.209  1.00 60.28 LIG-0.34  N 
ATOM     20 H    THR D1366     -22.406  28.724 -37.553  1.00 60.28 LIG 0.16  HD
ATOM     21 O    SER D1365     -24.550  30.138 -35.961  1.00 62.26 LIG-0.27  OA
BRANCH 19 22
ATOM     22  CA  THR D1366     -22.575  30.666 -37.784  1.00 59.76 LIG 0.19  C 
BRANCH 22 23
ATOM     23  C   THR D1366     -22.073  30.610 -39.242  1.00 59.52 LIG 0.22  C 
ATOM     24 O    THR D1366     -21.463  29.569 -39.611  1.00 43.13 LIG-0.29  OA
ENDBRANCH 22 23
BRANCH 22 25
ATOM     25  CB  THR D1366     -21.556  31.211 -36.745  1.00 59.99 LIG 0.14  C 
ATOM     26  CG2 THR D1366     -20.392  31.931 -37.356  1.00 59.85 LIG 0.04  C 
BRANCH 25 27
ATOM     27 OG1  THR D1366     -22.216  31.964 -35.726  1.00 59.97 LIG-0.39  OA
ATOM     28 HG1  THR D1366     -22.968  31.622 -35.568  1.00 59.97 LIG 0.21  HD
ENDBRANCH 25 27
ENDBRANCH 22 25
ENDBRANCH 19 22
ENDBRANCH 14 18
ENDBRANCH 12 14
ENDBRANCH 9 10
BRANCH 9 29
ATOM     29  CB  SER D1364     -22.824  25.857 -39.392  1.00 55.64 LIG 0.20  C 
BRANCH 29 30
ATOM     30 OG   SER D1364     -22.284  27.166 -39.376  1.00 56.44 LIG-0.40  OA
ATOM     31 HG   SER D1364     -21.465  27.129 -39.193  1.00 56.44 LIG 0.21  HD
ENDBRANCH 29 30
ENDBRANCH 9 29
ENDBRANCH 6 9
ENDBRANCH 1 5
BRANCH 1 32
ATOM     32  N   SER D1363     -22.960  20.392 -38.402  1.00 53.98 LIG-0.34  N 
ATOM     33  C   VAL D1362     -23.519  19.203 -38.206  1.00 54.25 LIG 0.24  C 
ATOM     34 O    VAL D1362     -24.734  19.044 -38.091  1.00 54.63 LIG-0.27  OA
ATOM     35 H    SER D1363     -22.113  20.519 -38.488  1.00 53.98 LIG 0.16  HD
BRANCH 33 36
ATOM     36  CA  VAL D1362     -22.570  18.020 -38.126  1.00 53.82 LIG 0.18  C 
BRANCH 36 37
ATOM     37  N   VAL D1362     -23.293  16.851 -37.656  1.00 55.57 LIG-0.35  N 
ATOM     38  C   ASP D1361     -23.470  16.606 -36.365  1.00 57.59 LIG 0.24  C 
ATOM     39 O    ASP D1361     -23.058  17.347 -35.473  1.00 58.12 LIG-0.27  OA
ATOM     40 H    VAL D1362     -23.590  16.343 -38.284  1.00 55.57 LIG 0.16  HD
BRANCH 38 41
ATOM     41  CA  ASP D1361     -24.247  15.348 -36.033  1.00 59.82 LIG 0.19  C 
BRANCH 41 42
ATOM     42  N   ASP D1361     -23.749  14.681 -34.830  1.00 59.55 LIG-0.34  N 
ATOM     43  C   PRO D1360     -23.210  13.463 -34.862  1.00 59.89 LIG 0.25  C 
ATOM     44 O    PRO D1360     -23.071  12.807 -35.897  1.00 59.45 LIG-0.27  OA
ATOM     45 H    ASP D1361     -23.837  15.145 -34.111  1.00 59.55 LIG 0.16  HD
BRANCH 43 46
ATOM     46  CA  PRO D1360     -22.749  12.905 -33.520  1.00 59.77 LIG 0.35  C 
ATOM     47  N   PRO D1360     -23.865  12.350 -32.727  1.00 58.11 LIG 0.32  N 
ATOM     48  CD  PRO D1360     -23.499  11.017 -32.221  1.00 58.92 LIG 0.32  C 
ATOM     49  CG  PRO D1360     -21.967  10.975 -32.451  1.00 60.40 LIG 0.04  C 
ATOM     50  CB  PRO D1360     -21.748  11.775 -33.718  1.00 59.31 LIG 0.05  C 
ENDBRANCH 43 46
ENDBRANCH 41 42
BRANCH 41 51
ATOM     51  CB  ASP D1361     -25.729  15.713 -35.888  1.00 61.63 LIG 0.15  C 
BRANCH 51 52
ATOM     52  CG  ASP D1361     -26.633  14.493 -35.860  1.00 64.71 LIG 0.17  C 
ATOM     53 OD1  ASP D1361     -27.208  14.150 -36.915  1.00 66.40 LIG-0.65  OA
ATOM     54 OD2  ASP D1361     -26.773  13.885 -34.777  1.00 65.87 LIG-0.65  OA
ENDBRANCH 51 52
ENDBRANCH 41 51
ENDBRANCH 38 41
ENDBRANCH 36 37
BRANCH 36 55
ATOM     55  CB  VAL D1362     -21.956  17.759 -39.521  1.00 52.08 LIG 0.01  C 
ATOM     56  CG1 VAL D1362     -20.795  18.712 -39.776  1.00 50.17 LIG 0.01  C 
ATOM     57  CG2 VAL D1362     -21.493  16.317 -39.609  1.00 49.53 LIG 0.01  C 
ENDBRANCH 36 55
ENDBRANCH 33 36
ENDBRANCH 1 32
TORSDOF 24
ENDMDL
MODEL 8
USER: ADFR SOLUTION from run 138
USER: SCORE 15.545833 LL:  -3.855 LR: -14.579 RR:   0.000 FEB:  -7.420
USER: RMSD 3.336015
USER: SEED 137
USER: STATUS no improvement in best in 5 clusters for 5 generations
USER: GENES 26
USER: genes 0 Translation |==|  0.44050 0.49118 0.43420
USER: genes 1 Rotation |==|  0.52269 0.61159 0.50688 0.98681
USER: genes 2 Torsion [C]-CA--CB-[OG] |==|  0.71376
USER: genes 3 Torsion [CA]-CB--OG-[HG] |==|  0.00889
USER: genes 4 Torsion [N]-CA--C-[N] |==|  0.53100
USER: genes 5 Torsion [C]-N--CA-[C] |==|  0.53889
USER: genes 6 Torsion [N]-CA--C-[N] |==|  0.43091
USER: genes 7 Torsion [C]-N--CA-[CB] |==|  0.36473
USER: genes 8 Torsion [N]-CA--CB-[OG] |==|  0.08007
USER: genes 9 Torsion [CA]-CB--OG-[HG] |==|  0.09615
USER: genes 10 Torsion [N]-CA--C-[N] |==|  0.94203
USER: genes 11 Torsion [C]-N--CA-[C] |==|  0.54255
USER: genes 12 Torsion [N]-CA--C-[O] |==|  0.03820
USER: genes 13 Torsion [N]-CA--CB-[CG2] |==|  0.37046
USER: genes 14 Torsion [CA]-CB--OG1-[HG1] |==|  0.19673
USER: genes 15 Torsion [N]-CA--CB-[OG] |==|  0.46104
USER: genes 16 Torsion [CA]-CB--OG-[HG] |==|  0.19604
USER: genes 17 Torsion [CB]-CA--N-[C] |==|  0.47779
USER: genes 18 Torsion [N]-C--CA-[N] |==|  0.32295
USER: genes 19 Torsion [C]-CA--N-[C] |==|  0.82255
USER: genes 20 Torsion [N]-C--CA-[N] |==|  0.40106
USER: genes 21 Torsion [C]-CA--N-[C] |==|  0.79836
USER: genes 22 Torsion [N]-C--CA-[N] |==|  0.24928
USER: genes 23 Torsion [C]-CA--CB-[CG] |==|  0.22891
USER: genes 24 Torsion [CA]-CB--CG-[OD1] |==|  0.12308
USER: genes 25 Torsion [C]-CA--CB-[CG1] |==|  0.09361
ROOT
ATOM      1  CA  SER D1363     -23.194  21.603 -39.096  1.00 54.34 LIG 0.20  C 
ENDROOT
BRANCH 1 2
ATOM      2  CB  SER D1363     -23.856  21.287 -37.753  1.00 54.70 LIG 0.20  C 
BRANCH 2 3
ATOM      3 OG   SER D1363     -23.141  20.293 -37.039  1.00 55.13 LIG-0.40  OA
ATOM      4 HG   SER D1363     -22.449  20.084 -37.467  1.00 55.13 LIG 0.21  HD
ENDBRANCH 2 3
ENDBRANCH 1 2
BRANCH 1 5
ATOM      5  C   SER D1363     -22.439  22.910 -39.000  1.00 54.23 LIG 0.24  C 
ATOM      6  N   SER D1364     -23.093  23.904 -38.416  1.00 54.98 LIG-0.34  N 
ATOM      7 H    SER D1364     -23.888  23.827 -38.099  1.00 54.98 LIG 0.16  HD
ATOM      8 O    SER D1363     -21.294  23.015 -39.432  1.00 54.73 LIG-0.27  OA
BRANCH 6 9
ATOM      9  CA  SER D1364     -22.520  25.233 -38.254  1.00 55.87 LIG 0.20  C 
BRANCH 9 10
ATOM     10  C   SER D1364     -23.386  26.013 -37.244  1.00 56.37 LIG 0.24  C 
ATOM     11 O    SER D1364     -24.549  25.727 -37.091  1.00 55.91 LIG-0.27  OA
ATOM     12  N   SER D1365     -22.818  27.005 -36.573  1.00 58.29 LIG-0.34  N 
ATOM     13 H    SER D1365     -21.997  27.249 -36.660  1.00 58.29 LIG 0.16  HD
BRANCH 12 14
ATOM     14  CA  SER D1365     -23.588  27.767 -35.610  1.00 60.08 LIG 0.20  C 
BRANCH 14 15
ATOM     15  CB  SER D1365     -22.834  27.888 -34.303  1.00 57.27 LIG 0.20  C 
BRANCH 15 16
ATOM     16 OG   SER D1365     -21.454  27.846 -34.577  1.00 56.70 LIG-0.40  OA
ATOM     17 HG   SER D1365     -21.303  28.224 -35.312  1.00 56.70 LIG 0.21  HD
ENDBRANCH 15 16
ENDBRANCH 14 15
BRANCH 14 18
ATOM     18  C   SER D1365     -23.654  29.136 -36.229  1.00 61.54 LIG 0.24  C 
ATOM     19  N   THR D1366     -22.711  29.370 -37.125  1.00 60.28 LIG-0.34  N 
ATOM     20 H    THR D1366     -22.220  28.769 -37.495  1.00 60.28 LIG 0.16  HD
ATOM     21 O    SER D1365     -24.548  29.930 -35.958  1.00 62.26 LIG-0.27  OA
BRANCH 19 22
ATOM     22  CA  THR D1366     -22.456  30.717 -37.541  1.00 59.76 LIG 0.19  C 
BRANCH 22 23
ATOM     23  C   THR D1366     -21.618  30.827 -38.833  1.00 59.52 LIG 0.22  C 
ATOM     24 O    THR D1366     -21.473  29.784 -39.527  1.00 43.13 LIG-0.29  OA
ENDBRANCH 22 23
BRANCH 22 25
ATOM     25  CB  THR D1366     -21.779  31.265 -36.255  1.00 59.99 LIG 0.14  C 
ATOM     26  CG2 THR D1366     -20.524  32.043 -36.513  1.00 59.85 LIG 0.04  C 
BRANCH 25 27
ATOM     27 OG1  THR D1366     -22.719  31.963 -35.438  1.00 59.97 LIG-0.39  OA
ATOM     28 HG1  THR D1366     -23.254  31.413 -35.094  1.00 59.97 LIG 0.21  HD
ENDBRANCH 25 27
ENDBRANCH 22 25
ENDBRANCH 19 22
ENDBRANCH 14 18
ENDBRANCH 12 14
ENDBRANCH 9 10
BRANCH 9 29
ATOM     29  CB  SER D1364     -22.520  25.952 -39.606  1.00 55.64 LIG 0.20  C 
BRANCH 29 30
ATOM     30 OG   SER D1364     -22.277  27.339 -39.459  1.00 56.44 LIG-0.40  OA
ATOM     31 HG   SER D1364     -21.478  27.462 -39.234  1.00 56.44 LIG 0.21  HD
ENDBRANCH 29 30
ENDBRANCH 9 29
ENDBRANCH 6 9
ENDBRANCH 1 5
BRANCH 1 32
ATOM     32  N   SER D1363     -22.330  20.510 -39.505  1.00 53.98 LIG-0.34  N 
ATOM     33  C   VAL D1362     -21.772  20.488 -40.710  1.00 54.25 LIG 0.24  C 
ATOM     34 O    VAL D1362     -21.940  21.378 -41.543  1.00 54.63 LIG-0.27  OA
ATOM     35 H    SER D1363     -22.220  19.898 -38.910  1.00 53.98 LIG 0.16  HD
BRANCH 33 36
ATOM     36  CA  VAL D1362     -20.898  19.285 -41.023  1.00 53.82 LIG 0.18  C 
BRANCH 36 37
ATOM     37  N   VAL D1362     -21.487  18.532 -42.117  1.00 55.57 LIG-0.35  N 
ATOM     38  C   ASP D1361     -22.669  17.940 -42.007  1.00 57.59 LIG 0.24  C 
ATOM     39 O    ASP D1361     -23.361  17.995 -40.991  1.00 58.12 LIG-0.27  OA
ATOM     40 H    VAL D1362     -21.005  18.508 -42.829  1.00 55.57 LIG 0.16  HD
BRANCH 38 41
ATOM     41  CA  ASP D1361     -23.149  17.194 -43.236  1.00 59.82 LIG 0.19  C 
BRANCH 41 42
ATOM     42  N   ASP D1361     -23.893  15.980 -42.900  1.00 59.55 LIG-0.34  N 
ATOM     43  C   PRO D1360     -23.297  14.888 -42.424  1.00 59.89 LIG 0.25  C 
ATOM     44 O    PRO D1360     -22.085  14.813 -42.211  1.00 59.45 LIG-0.27  OA
ATOM     45 H    ASP D1361     -24.740  16.039 -43.039  1.00 59.55 LIG 0.16  HD
BRANCH 43 46
ATOM     46  CA  PRO D1360     -24.212  13.704 -42.133  1.00 59.77 LIG 0.35  C 
ATOM     47  N   PRO D1360     -24.371  12.815 -43.302  1.00 58.11 LIG 0.32  N 
ATOM     48  CD  PRO D1360     -24.169  11.415 -42.891  1.00 58.92 LIG 0.32  C 
ATOM     49  CG  PRO D1360     -24.249  11.501 -41.346  1.00 60.40 LIG 0.04  C 
ATOM     50  CB  PRO D1360     -23.652  12.849 -41.005  1.00 59.31 LIG 0.05  C 
ENDBRANCH 43 46
ENDBRANCH 41 42
BRANCH 41 51
ATOM     51  CB  ASP D1361     -24.001  18.146 -44.083  1.00 61.63 LIG 0.15  C 
BRANCH 51 52
ATOM     52  CG  ASP D1361     -23.164  19.048 -44.972  1.00 64.71 LIG 0.17  C 
ATOM     53 OD1  ASP D1361     -22.208  18.549 -45.604  1.00 66.40 LIG-0.65  OA
ATOM     54 OD2  ASP D1361     -23.460  20.262 -45.030  1.00 65.87 LIG-0.65  OA
ENDBRANCH 51 52
ENDBRANCH 41 51
ENDBRANCH 38 41
ENDBRANCH 36 37
BRANCH 36 55
ATOM     55  CB  VAL D1362     -19.476  19.766 -41.392  1.00 52.08 LIG 0.01  C 
ATOM     56  CG1 VAL D1362     -19.115  21.014 -40.597  1.00 50.17 LIG 0.01  C 
ATOM     57  CG2 VAL D1362     -18.480  18.654 -41.124  1.00 49.53 LIG 0.01  C 
ENDBRANCH 36 55
ENDBRANCH 33 36
ENDBRANCH 1 32
TORSDOF 24
ENDMDL
MODEL 9
USER: ADFR SOLUTION from run 137
USER: SCORE 15.473127 LL:  -3.775 LR: -14.395 RR:   0.000 FEB:  -7.236
USER: RMSD 3.863439
USER: SEED 136
USER: STATUS no improvement in best in 3 clusters for 5 generations
USER: GENES 26
USER: genes 0 Translation |==|  0.45793 0.51299 0.40201
USER: genes 1 Rotation |==|  0.50011 0.52635 0.52114 0.99886
USER: genes 2 Torsion [C]-CA--CB-[OG] |==|  0.74835
USER: genes 3 Torsion [CA]-CB--OG-[HG] |==|  0.94073
USER: genes 4 Torsion [N]-CA--C-[N] |==|  0.55130
USER: genes 5 Torsion [C]-N--CA-[C] |==|  0.62132
USER: genes 6 Torsion [N]-CA--C-[N] |==|  0.46729
USER: genes 7 Torsion [C]-N--CA-[CB] |==|  0.23889
USER: genes 8 Torsion [N]-CA--CB-[OG] |==|  0.19094
USER: genes 9 Torsion [CA]-CB--OG-[HG] |==|  0.89763
USER: genes 10 Torsion [N]-CA--C-[N] |==|  0.00284
USER: genes 11 Torsion [C]-N--CA-[C] |==|  0.83331
USER: genes 12 Torsion [N]-CA--C-[O] |==|  0.29965
USER: genes 13 Torsion [N]-CA--CB-[CG2] |==|  0.18979
USER: genes 14 Torsion [CA]-CB--OG1-[HG1] |==|  0.63506
USER: genes 15 Torsion [N]-CA--CB-[OG] |==|  0.76689
USER: genes 16 Torsion [CA]-CB--OG-[HG] |==|  0.95581
USER: genes 17 Torsion [CB]-CA--N-[C] |==|  0.18608
USER: genes 18 Torsion [N]-C--CA-[N] |==|  0.38572
USER: genes 19 Torsion [C]-CA--N-[C] |==|  0.83679
USER: genes 20 Torsion [N]-C--CA-[N] |==|  0.62613
USER: genes 21 Torsion [C]-CA--N-[C] |==|  0.77624
USER: genes 22 Torsion [N]-C--CA-[N] |==|  0.72746
USER: genes 23 Torsion [C]-CA--CB-[CG] |==|  0.78536
USER: genes 24 Torsion [CA]-CB--CG-[OD1] |==|  0.30104
USER: genes 25 Torsion [C]-CA--CB-[CG1] |==|  0.16509
ROOT
ATOM      1  CA  SER D1363     -22.906  22.209 -39.579  1.00 54.34 LIG 0.20  C 
ENDROOT
BRANCH 1 2
ATOM      2  CB  SER D1363     -23.974  21.928 -38.518  1.00 54.70 LIG 0.20  C 
BRANCH 2 3
ATOM      3 OG   SER D1363     -23.427  21.272 -37.388  1.00 55.13 LIG-0.40  OA
ATOM      4 HG   SER D1363     -22.707  20.897 -37.602  1.00 55.13 LIG 0.21  HD
ENDBRANCH 2 3
ENDBRANCH 1 2
BRANCH 1 5
ATOM      5  C   SER D1363     -22.291  23.569 -39.341  1.00 54.23 LIG 0.24  C 
ATOM      6  N   SER D1364     -23.133  24.514 -38.948  1.00 54.98 LIG-0.34  N 
ATOM      7 H    SER D1364     -23.973  24.379 -38.823  1.00 54.98 LIG 0.16  HD
ATOM      8 O    SER D1363     -21.087  23.758 -39.496  1.00 54.73 LIG-0.27  OA
BRANCH 6 9
ATOM      9  CA  SER D1364     -22.711  25.883 -38.688  1.00 55.87 LIG 0.20  C 
BRANCH 9 10
ATOM     10  C   SER D1364     -23.385  26.358 -37.384  1.00 56.37 LIG 0.24  C 
ATOM     11 O    SER D1364     -24.286  25.717 -36.896  1.00 55.91 LIG-0.27  OA
ATOM     12  N   SER D1365     -22.956  27.486 -36.837  1.00 58.29 LIG-0.34  N 
ATOM     13 H    SER D1365     -22.327  27.978 -37.157  1.00 58.29 LIG 0.16  HD
BRANCH 12 14
ATOM     14  CA  SER D1365     -23.555  27.973 -35.610  1.00 60.08 LIG 0.20  C 
BRANCH 14 15
ATOM     15  CB  SER D1365     -22.884  27.347 -34.406  1.00 57.27 LIG 0.20  C 
BRANCH 15 16
ATOM     16 OG   SER D1365     -21.572  27.848 -34.314  1.00 56.70 LIG-0.40  OA
ATOM     17 HG   SER D1365     -21.253  27.943 -35.086  1.00 56.70 LIG 0.21  HD
ENDBRANCH 15 16
ENDBRANCH 14 15
BRANCH 14 18
ATOM     18  C   SER D1365     -23.208  29.437 -35.616  1.00 61.54 LIG 0.24  C 
ATOM     19  N   THR D1366     -22.525  29.826 -36.678  1.00 60.28 LIG-0.34  N 
ATOM     20 H    THR D1366     -22.442  29.376 -37.406  1.00 60.28 LIG 0.16  HD
ATOM     21 O    SER D1365     -23.589  30.200 -34.734  1.00 62.26 LIG-0.27  OA
BRANCH 19 22
ATOM     22  CA  THR D1366     -21.855  31.093 -36.657  1.00 59.76 LIG 0.19  C 
BRANCH 22 23
ATOM     23  C   THR D1366     -22.795  32.297 -36.439  1.00 59.52 LIG 0.22  C 
ATOM     24 O    THR D1366     -22.752  32.879 -35.320  1.00 43.13 LIG-0.29  OA
ENDBRANCH 22 23
BRANCH 22 25
ATOM     25  CB  THR D1366     -21.147  31.038 -38.039  1.00 59.99 LIG 0.14  C 
ATOM     26  CG2 THR D1366     -22.085  31.106 -39.206  1.00 59.85 LIG 0.04  C 
BRANCH 25 27
ATOM     27 OG1  THR D1366     -20.086  31.991 -38.109  1.00 59.97 LIG-0.39  OA
ATOM     28 HG1  THR D1366     -20.151  32.431 -38.823  1.00 59.97 LIG 0.21  HD
ENDBRANCH 25 27
ENDBRANCH 22 25
ENDBRANCH 19 22
ENDBRANCH 14 18
ENDBRANCH 12 14
ENDBRANCH 9 10
BRANCH 9 29
ATOM     29  CB  SER D1364     -23.144  26.776 -39.854  1.00 55.64 LIG 0.20  C 
BRANCH 29 30
ATOM     30 OG   SER D1364     -22.212  26.735 -40.918  1.00 56.44 LIG-0.40  OA
ATOM     31 HG   SER D1364     -21.489  26.407 -40.645  1.00 56.44 LIG 0.21  HD
ENDBRANCH 29 30
ENDBRANCH 9 29
ENDBRANCH 6 9
ENDBRANCH 1 5
BRANCH 1 32
ATOM     32  N   SER D1363     -21.905  21.156 -39.580  1.00 53.98 LIG-0.34  N 
ATOM     33  C   VAL D1362     -22.209  19.920 -39.957  1.00 54.25 LIG 0.24  C 
ATOM     34 O    VAL D1362     -23.334  19.589 -40.330  1.00 54.63 LIG-0.27  OA
ATOM     35 H    SER D1363     -21.124  21.405 -39.320  1.00 53.98 LIG 0.16  HD
BRANCH 33 36
ATOM     36  CA  VAL D1362     -21.079  18.905 -39.904  1.00 53.82 LIG 0.18  C 
BRANCH 36 37
ATOM     37  N   VAL D1362     -21.583  17.647 -39.382  1.00 55.57 LIG-0.35  N 
ATOM     38  C   ASP D1361     -22.146  17.557 -38.184  1.00 57.59 LIG 0.24  C 
ATOM     39 O    ASP D1361     -22.301  18.522 -37.435  1.00 58.12 LIG-0.27  OA
ATOM     40 H    VAL D1362     -21.484  16.979 -39.914  1.00 55.57 LIG 0.16  HD
BRANCH 38 41
ATOM     41  CA  ASP D1361     -22.624  16.177 -37.782  1.00 59.82 LIG 0.19  C 
BRANCH 41 42
ATOM     42  N   ASP D1361     -23.963  16.195 -37.194  1.00 59.55 LIG-0.34  N 
ATOM     43  C   PRO D1360     -24.177  16.527 -35.921  1.00 59.89 LIG 0.25  C 
ATOM     44 O    PRO D1360     -23.279  16.859 -35.144  1.00 59.45 LIG-0.27  OA
ATOM     45 H    ASP D1361     -24.589  15.975 -37.740  1.00 59.55 LIG 0.16  HD
BRANCH 43 46
ATOM     46  CA  PRO D1360     -25.630  16.489 -35.459  1.00 59.77 LIG 0.35  C 
ATOM     47  N   PRO D1360     -26.261  17.825 -35.475  1.00 58.11 LIG 0.32  N 
ATOM     48  CD  PRO D1360     -27.568  17.747 -36.147  1.00 58.92 LIG 0.32  C 
ATOM     49  CG  PRO D1360     -27.834  16.221 -36.197  1.00 60.40 LIG 0.04  C 
ATOM     50  CB  PRO D1360     -26.465  15.599 -36.369  1.00 59.31 LIG 0.05  C 
ENDBRANCH 43 46
ENDBRANCH 41 42
BRANCH 41 51
ATOM     51  CB  ASP D1361     -22.577  15.266 -39.014  1.00 61.63 LIG 0.15  C 
BRANCH 51 52
ATOM     52  CG  ASP D1361     -23.735  15.506 -39.966  1.00 64.71 LIG 0.17  C 
ATOM     53 OD1  ASP D1361     -23.507  16.068 -41.058  1.00 66.40 LIG-0.65  OA
ATOM     54 OD2  ASP D1361     -24.877  15.137 -39.614  1.00 65.87 LIG-0.65  OA
ENDBRANCH 51 52
ENDBRANCH 41 51
ENDBRANCH 38 41
ENDBRANCH 36 37
BRANCH 36 55
ATOM     55  CB  VAL D1362     -20.493  18.715 -41.321  1.00 52.08 LIG 0.01  C 
ATOM     56  CG1 VAL D1362     -19.964  20.038 -41.859  1.00 50.17 LIG 0.01  C 
ATOM     57  CG2 VAL D1362     -19.389  17.675 -41.277  1.00 49.53 LIG 0.01  C 
ENDBRANCH 36 55
ENDBRANCH 33 36
ENDBRANCH 1 32
TORSDOF 24
ENDMDL
MODEL 10
USER: ADFR SOLUTION from run 19
USER: SCORE 15.464943 LL:  -4.109 LR: -14.373 RR:   0.000 FEB:  -7.214
USER: RMSD 4.692604
USER: SEED 18
USER: STATUS no improvement in best in 8 clusters for 5 generations
USER: GENES 26
USER: genes 0 Translation |==|  0.44331 0.49348 0.43527
USER: genes 1 Rotation |==|  0.52802 0.62872 0.51278 0.98216
USER: genes 2 Torsion [C]-CA--CB-[OG] |==|  0.69057
USER: genes 3 Torsion [CA]-CB--OG-[HG] |==|  0.12361
USER: genes 4 Torsion [N]-CA--C-[N] |==|  0.51628
USER: genes 5 Torsion [C]-N--CA-[C] |==|  0.54181
USER: genes 6 Torsion [N]-CA--C-[N] |==|  0.41677
USER: genes 7 Torsion [C]-N--CA-[CB] |==|  0.37186
USER: genes 8 Torsion [N]-CA--CB-[OG] |==|  0.08072
USER: genes 9 Torsion [CA]-CB--OG-[HG] |==|  0.10085
USER: genes 10 Torsion [N]-CA--C-[N] |==|  0.94798
USER: genes 11 Torsion [C]-N--CA-[C] |==|  0.54390
USER: genes 12 Torsion [N]-CA--C-[O] |==|  0.02684
USER: genes 13 Torsion [N]-CA--CB-[CG2] |==|  0.37607
USER: genes 14 Torsion [CA]-CB--OG1-[HG1] |==|  0.09728
USER: genes 15 Torsion [N]-CA--CB-[OG] |==|  0.47753
USER: genes 16 Torsion [CA]-CB--OG-[HG] |==|  0.08637
USER: genes 17 Torsion [CB]-CA--N-[C] |==|  0.47327
USER: genes 18 Torsion [N]-C--CA-[N] |==|  0.36225
USER: genes 19 Torsion [C]-CA--N-[C] |==|  0.85044
USER: genes 20 Torsion [N]-C--CA-[N] |==|  0.51666
USER: genes 21 Torsion [C]-CA--N-[C] |==|  0.77606
USER: genes 22 Torsion [N]-C--CA-[N] |==|  0.65747
USER: genes 23 Torsion [C]-CA--CB-[CG] |==|  0.82371
USER: genes 24 Torsion [CA]-CB--CG-[OD1] |==|  0.42553
USER: genes 25 Torsion [C]-CA--CB-[CG1] |==|  0.08030
ROOT
ATOM      1  CA  SER D1363     -23.147  21.667 -39.080  1.00 54.34 LIG 0.20  C 
ENDROOT
BRANCH 1 2
ATOM      2  CB  SER D1363     -23.707  21.302 -37.703  1.00 54.70 LIG 0.20  C 
BRANCH 2 3
ATOM      3 OG   SER D1363     -23.041  20.180 -37.149  1.00 55.13 LIG-0.40  OA
ATOM      4 HG   SER D1363     -22.212  20.263 -37.259  1.00 55.13 LIG 0.21  HD
ENDBRANCH 2 3
ENDBRANCH 1 2
BRANCH 1 5
ATOM      5  C   SER D1363     -22.415  22.988 -39.002  1.00 54.23 LIG 0.24  C 
ATOM      6  N   SER D1364     -23.091  23.982 -38.445  1.00 54.98 LIG-0.34  N 
ATOM      7 H    SER D1364     -23.888  23.898 -38.134  1.00 54.98 LIG 0.16  HD
ATOM      8 O    SER D1363     -21.267  23.103 -39.424  1.00 54.73 LIG-0.27  OA
BRANCH 6 9
ATOM      9  CA  SER D1364     -22.541  25.323 -38.303  1.00 55.87 LIG 0.20  C 
BRANCH 9 10
ATOM     10  C   SER D1364     -23.415  26.100 -37.297  1.00 56.37 LIG 0.24  C 
ATOM     11 O    SER D1364     -24.594  25.855 -37.198  1.00 55.91 LIG-0.27  OA
ATOM     12  N   SER D1365     -22.835  27.042 -36.567  1.00 58.29 LIG-0.34  N 
ATOM     13 H    SER D1365     -22.003  27.256 -36.614  1.00 58.29 LIG 0.16  HD
BRANCH 12 14
ATOM     14  CA  SER D1365     -23.612  27.799 -35.605  1.00 60.08 LIG 0.20  C 
BRANCH 14 15
ATOM     15  CB  SER D1365     -22.876  27.895 -34.285  1.00 57.27 LIG 0.20  C 
BRANCH 15 16
ATOM     16 OG   SER D1365     -21.493  27.848 -34.540  1.00 56.70 LIG-0.40  OA
ATOM     17 HG   SER D1365     -21.325  28.256 -35.255  1.00 56.70 LIG 0.21  HD
ENDBRANCH 15 16
ENDBRANCH 14 15
BRANCH 14 18
ATOM     18  C   SER D1365     -23.654  29.177 -36.206  1.00 61.54 LIG 0.24  C 
ATOM     19  N   THR D1366     -22.724  29.398 -37.118  1.00 60.28 LIG-0.34  N 
ATOM     20 H    THR D1366     -22.255  28.790 -37.504  1.00 60.28 LIG 0.16  HD
ATOM     21 O    SER D1365     -24.523  29.990 -35.908  1.00 62.26 LIG-0.27  OA
BRANCH 19 22
ATOM     22  CA  THR D1366     -22.442  30.744 -37.522  1.00 59.76 LIG 0.19  C 
BRANCH 22 23
ATOM     23  C   THR D1366     -21.637  30.849 -38.835  1.00 59.52 LIG 0.22  C 
ATOM     24 O    THR D1366     -21.473  29.795 -39.507  1.00 43.13 LIG-0.29  OA
ENDBRANCH 22 23
BRANCH 22 25
ATOM     25  CB  THR D1366     -21.715  31.255 -36.248  1.00 59.99 LIG 0.14  C 
ATOM     26  CG2 THR D1366     -20.472  32.042 -36.531  1.00 59.85 LIG 0.04  C 
BRANCH 25 27
ATOM     27 OG1  THR D1366     -22.623  31.926 -35.374  1.00 59.97 LIG-0.39  OA
ATOM     28 HG1  THR D1366     -23.376  31.553 -35.411  1.00 59.97 LIG 0.21  HD
ENDBRANCH 25 27
ENDBRANCH 22 25
ENDBRANCH 19 22
ENDBRANCH 14 18
ENDBRANCH 12 14
ENDBRANCH 9 10
BRANCH 9 29
ATOM     29  CB  SER D1364     -22.563  26.025 -39.663  1.00 55.64 LIG 0.20  C 
BRANCH 29 30
ATOM     30 OG   SER D1364     -22.212  27.392 -39.551  1.00 56.44 LIG-0.40  OA
ATOM     31 HG   SER D1364     -21.672  27.492 -38.916  1.00 56.44 LIG 0.21  HD
ENDBRANCH 29 30
ENDBRANCH 9 29
ENDBRANCH 6 9
ENDBRANCH 1 5
BRANCH 1 32
ATOM     32  N   SER D1363     -22.292  20.604 -39.577  1.00 53.98 LIG-0.34  N 
ATOM     33  C   VAL D1362     -21.846  20.609 -40.828  1.00 54.25 LIG 0.24  C 
ATOM     34 O    VAL D1362     -22.115  21.500 -41.633  1.00 54.63 LIG-0.27  OA
ATOM     35 H    SER D1363     -22.110  19.991 -39.001  1.00 53.98 LIG 0.16  HD
BRANCH 33 36
ATOM     36  CA  VAL D1362     -20.969  19.436 -41.232  1.00 53.82 LIG 0.18  C 
BRANCH 36 37
ATOM     37  N   VAL D1362     -21.456  18.876 -42.481  1.00 55.57 LIG-0.35  N 
ATOM     38  C   ASP D1361     -22.717  18.494 -42.635  1.00 57.59 LIG 0.24  C 
ATOM     39 O    ASP D1361     -23.569  18.599 -41.753  1.00 58.12 LIG-0.27  OA
ATOM     40 H    VAL D1362     -20.860  18.817 -43.097  1.00 55.57 LIG 0.16  HD
BRANCH 38 41
ATOM     41  CA  ASP D1361     -23.072  17.931 -43.997  1.00 59.82 LIG 0.19  C 
BRANCH 41 42
ATOM     42  N   ASP D1361     -24.504  17.664 -44.137  1.00 59.55 LIG-0.34  N 
ATOM     43  C   PRO D1360     -25.074  16.563 -43.649  1.00 59.89 LIG 0.25  C 
ATOM     44 O    PRO D1360     -24.456  15.694 -43.030  1.00 59.45 LIG-0.27  OA
ATOM     45 H    ASP D1361     -24.935  18.277 -44.559  1.00 59.55 LIG 0.16  HD
BRANCH 43 46
ATOM     46  CA  PRO D1360     -26.574  16.430 -43.887  1.00 59.77 LIG 0.35  C 
ATOM     47  N   PRO D1360     -27.331  16.266 -42.628  1.00 58.11 LIG 0.32  N 
ATOM     48  CD  PRO D1360     -28.477  17.191 -42.616  1.00 58.92 LIG 0.32  C 
ATOM     49  CG  PRO D1360     -28.564  17.644 -44.095  1.00 60.40 LIG 0.04  C 
ATOM     50  CB  PRO D1360     -27.127  17.671 -44.573  1.00 59.31 LIG 0.05  C 
ENDBRANCH 43 46
ENDBRANCH 41 42
BRANCH 41 51
ATOM     51  CB  ASP D1361     -22.587  18.910 -45.072  1.00 61.63 LIG 0.15  C 
BRANCH 51 52
ATOM     52  CG  ASP D1361     -23.282  20.258 -44.996  1.00 64.71 LIG 0.17  C 
ATOM     53 OD1  ASP D1361     -22.682  21.267 -45.423  1.00 66.40 LIG-0.65  OA
ATOM     54 OD2  ASP D1361     -24.429  20.305 -44.498  1.00 65.87 LIG-0.65  OA
ENDBRANCH 51 52
ENDBRANCH 41 51
ENDBRANCH 38 41
ENDBRANCH 36 37
BRANCH 36 55
ATOM     55  CB  VAL D1362     -19.507  19.915 -41.381  1.00 52.08 LIG 0.01  C 
ATOM     56  CG1 VAL D1362     -19.239  21.096 -40.456  1.00 50.17 LIG 0.01  C 
ATOM     57  CG2 VAL D1362     -18.564  18.769 -41.071  1.00 49.53 LIG 0.01  C 
ENDBRANCH 36 55
ENDBRANCH 33 36
ENDBRANCH 1 32
TORSDOF 24
ENDMDL
MODEL 11
USER: ADFR SOLUTION from run 38
USER: SCORE 16.144396 LL:  -3.657 LR: -14.316 RR:   0.000 FEB:  -7.157
USER: RMSD 2.957842
USER: SEED 37
USER: STATUS searching
USER: GENES 26
USER: genes 0 Translation |==|  0.44484 0.51807 0.41247
USER: genes 1 Rotation |==|  0.49660 0.50165 0.49851 0.99998
USER: genes 2 Torsion [C]-CA--CB-[OG] |==|  0.72153
USER: genes 3 Torsion [CA]-CB--OG-[HG] |==|  0.91214
USER: genes 4 Torsion [N]-CA--C-[N] |==|  0.56215
USER: genes 5 Torsion [C]-N--CA-[C] |==|  0.62026
USER: genes 6 Torsion [N]-CA--C-[N] |==|  0.46974
USER: genes 7 Torsion [C]-N--CA-[CB] |==|  0.25507
USER: genes 8 Torsion [N]-CA--CB-[OG] |==|  0.15927
USER: genes 9 Torsion [CA]-CB--OG-[HG] |==|  0.91743
USER: genes 10 Torsion [N]-CA--C-[N] |==|  0.99616
USER: genes 11 Torsion [C]-N--CA-[C] |==|  0.84662
USER: genes 12 Torsion [N]-CA--C-[O] |==|  0.28654
USER: genes 13 Torsion [N]-CA--CB-[CG2] |==|  0.21885
USER: genes 14 Torsion [CA]-CB--OG1-[HG1] |==|  0.64119
USER: genes 15 Torsion [N]-CA--CB-[OG] |==|  0.54406
USER: genes 16 Torsion [CA]-CB--OG-[HG] |==|  0.06570
USER: genes 17 Torsion [CB]-CA--N-[C] |==|  0.21082
USER: genes 18 Torsion [N]-C--CA-[N] |==|  0.36615
USER: genes 19 Torsion [C]-CA--N-[C] |==|  0.82543
USER: genes 20 Torsion [N]-C--CA-[N] |==|  0.96864
USER: genes 21 Torsion [C]-CA--N-[C] |==|  0.80838
USER: genes 22 Torsion [N]-C--CA-[N] |==|  0.49205
USER: genes 23 Torsion [C]-CA--CB-[CG] |==|  0.20224
USER: genes 24 Torsion [CA]-CB--CG-[OD1] |==|  0.08125
USER: genes 25 Torsion [C]-CA--CB-[CG1] |==|  0.19998
ROOT
ATOM      1  CA  SER D1363     -23.122  22.349 -39.422  1.00 54.34 LIG 0.20  C 
ENDROOT
BRANCH 1 2
ATOM      2  CB  SER D1363     -24.310  22.185 -38.471  1.00 54.70 LIG 0.20  C 
BRANCH 2 3
ATOM      3 OG   SER D1363     -23.999  21.321 -37.392  1.00 55.13 LIG-0.40  OA
ATOM      4 HG   SER D1363     -23.450  20.739 -37.647  1.00 55.13 LIG 0.21  HD
ENDBRANCH 2 3
ENDBRANCH 1 2
BRANCH 1 5
ATOM      5  C   SER D1363     -22.413  23.654 -39.137  1.00 54.23 LIG 0.24  C 
ATOM      6  N   SER D1364     -23.194  24.657 -38.762  1.00 54.98 LIG-0.34  N 
ATOM      7 H    SER D1364     -24.046  24.586 -38.672  1.00 54.98 LIG 0.16  HD
ATOM      8 O    SER D1363     -21.193  23.750 -39.242  1.00 54.73 LIG-0.27  OA
BRANCH 6 9
ATOM      9  CA  SER D1364     -22.678  25.985 -38.463  1.00 55.87 LIG 0.20  C 
BRANCH 9 10
ATOM     10  C   SER D1364     -23.372  26.497 -37.184  1.00 56.37 LIG 0.24  C 
ATOM     11 O    SER D1364     -24.332  25.916 -36.737  1.00 55.91 LIG-0.27  OA
ATOM     12  N   SER D1365     -22.891  27.592 -36.611  1.00 58.29 LIG-0.34  N 
ATOM     13 H    SER D1365     -22.219  28.042 -36.902  1.00 58.29 LIG 0.16  HD
BRANCH 12 14
ATOM     14  CA  SER D1365     -23.506  28.111 -35.405  1.00 60.08 LIG 0.20  C 
BRANCH 14 15
ATOM     15  CB  SER D1365     -22.830  27.542 -34.176  1.00 57.27 LIG 0.20  C 
BRANCH 15 16
ATOM     16 OG   SER D1365     -21.459  27.855 -34.234  1.00 56.70 LIG-0.40  OA
ATOM     17 HG   SER D1365     -21.217  27.906 -35.037  1.00 56.70 LIG 0.21  HD
ENDBRANCH 15 16
ENDBRANCH 14 15
BRANCH 14 18
ATOM     18  C   SER D1365     -23.187  29.580 -35.463  1.00 61.54 LIG 0.24  C 
ATOM     19  N   THR D1366     -22.462  29.935 -36.509  1.00 60.28 LIG-0.34  N 
ATOM     20 H    THR D1366     -22.337  29.454 -37.211  1.00 60.28 LIG 0.16  HD
ATOM     21 O    SER D1365     -23.622  30.374 -34.635  1.00 62.26 LIG-0.27  OA
BRANCH 19 22
ATOM     22  CA  THR D1366     -21.818  31.215 -36.516  1.00 59.76 LIG 0.19  C 
BRANCH 22 23
ATOM     23  C   THR D1366     -22.776  32.401 -36.279  1.00 59.52 LIG 0.22  C 
ATOM     24 O    THR D1366     -22.777  32.935 -35.136  1.00 43.13 LIG-0.29  OA
ENDBRANCH 22 23
BRANCH 22 25
ATOM     25  CB  THR D1366     -21.147  31.164 -37.916  1.00 59.99 LIG 0.14  C 
ATOM     26  CG2 THR D1366     -22.085  31.452 -39.050  1.00 59.85 LIG 0.04  C 
BRANCH 25 27
ATOM     27 OG1  THR D1366     -19.962  31.960 -37.947  1.00 59.97 LIG-0.39  OA
ATOM     28 HG1  THR D1366     -19.989  32.478 -38.608  1.00 59.97 LIG 0.21  HD
ENDBRANCH 25 27
ENDBRANCH 22 25
ENDBRANCH 19 22
ENDBRANCH 14 18
ENDBRANCH 12 14
ENDBRANCH 9 10
BRANCH 9 29
ATOM     29  CB  SER D1364     -22.985  26.923 -39.633  1.00 55.64 LIG 0.20  C 
BRANCH 29 30
ATOM     30 OG   SER D1364     -22.212  28.107 -39.571  1.00 56.44 LIG-0.40  OA
ATOM     31 HG   SER D1364     -21.517  27.965 -39.121  1.00 56.44 LIG 0.21  HD
ENDBRANCH 29 30
ENDBRANCH 9 29
ENDBRANCH 6 9
ENDBRANCH 1 5
BRANCH 1 32
ATOM     32  N   SER D1363     -22.225  21.213 -39.312  1.00 53.98 LIG-0.34  N 
ATOM     33  C   VAL D1362     -22.529  20.042 -39.862  1.00 54.25 LIG 0.24  C 
ATOM     34 O    VAL D1362     -23.567  19.847 -40.493  1.00 54.63 LIG-0.27  OA
ATOM     35 H    SER D1363     -21.503  21.367 -38.871  1.00 53.98 LIG 0.16  HD
BRANCH 33 36
ATOM     36  CA  VAL D1362     -21.516  18.927 -39.668  1.00 53.82 LIG 0.18  C 
BRANCH 36 37
ATOM     37  N   VAL D1362     -22.199  17.724 -39.225  1.00 55.57 LIG-0.35  N 
ATOM     38  C   ASP D1361     -22.852  17.672 -38.071  1.00 57.59 LIG 0.24  C 
ATOM     39 O    ASP D1361     -22.947  18.629 -37.303  1.00 58.12 LIG-0.27  OA
ATOM     40 H    VAL D1362     -22.140  17.063 -39.771  1.00 55.57 LIG 0.16  HD
BRANCH 38 41
ATOM     41  CA  ASP D1361     -23.515  16.348 -37.749  1.00 59.82 LIG 0.19  C 
BRANCH 41 42
ATOM     42  N   ASP D1361     -23.537  15.438 -38.895  1.00 59.55 LIG-0.34  N 
ATOM     43  C   PRO D1360     -24.288  15.666 -39.972  1.00 59.89 LIG 0.25  C 
ATOM     44 O    PRO D1360     -25.007  16.659 -40.101  1.00 59.45 LIG-0.27  OA
ATOM     45 H    ASP D1361     -23.026  14.752 -38.807  1.00 59.55 LIG 0.16  HD
BRANCH 43 46
ATOM     46  CA  PRO D1360     -24.205  14.617 -41.075  1.00 59.77 LIG 0.35  C 
ATOM     47  N   PRO D1360     -25.116  14.911 -42.201  1.00 58.11 LIG 0.32  N 
ATOM     48  CD  PRO D1360     -24.386  14.790 -43.473  1.00 58.92 LIG 0.32  C 
ATOM     49  CG  PRO D1360     -23.091  14.049 -43.053  1.00 60.40 LIG 0.04  C 
ATOM     50  CB  PRO D1360     -22.799  14.550 -41.655  1.00 59.31 LIG 0.05  C 
ENDBRANCH 43 46
ENDBRANCH 41 42
BRANCH 41 51
ATOM     51  CB  ASP D1361     -22.789  15.715 -36.557  1.00 61.63 LIG 0.15  C 
BRANCH 51 52
ATOM     52  CG  ASP D1361     -23.090  16.419 -35.246  1.00 64.71 LIG 0.17  C 
ATOM     53 OD1  ASP D1361     -24.196  16.984 -35.109  1.00 66.40 LIG-0.65  OA
ATOM     54 OD2  ASP D1361     -22.212  16.412 -34.356  1.00 65.87 LIG-0.65  OA
ENDBRANCH 51 52
ENDBRANCH 41 51
ENDBRANCH 38 41
ENDBRANCH 36 37
BRANCH 36 55
ATOM     55  CB  VAL D1362     -20.771  18.674 -40.999  1.00 52.08 LIG 0.01  C 
ATOM     56  CG1 VAL D1362     -19.813  19.820 -41.297  1.00 50.17 LIG 0.01  C 
ATOM     57  CG2 VAL D1362     -20.021  17.358 -40.917  1.00 49.53 LIG 0.01  C 
ENDBRANCH 36 55
ENDBRANCH 33 36
ENDBRANCH 1 32
TORSDOF 24
ENDMDL
MODEL 12
USER: ADFR SOLUTION from run 53
USER: SCORE 15.706664 LL:  -3.908 LR: -14.269 RR:   0.000 FEB:  -7.109
USER: RMSD 1.790726
USER: SEED 52
USER: STATUS searching
USER: GENES 26
USER: genes 0 Translation |==|  0.46796 0.51612 0.39209
USER: genes 1 Rotation |==|  0.51061 0.48427 0.54524 0.99759
USER: genes 2 Torsion [C]-CA--CB-[OG] |==|  0.74365
USER: genes 3 Torsion [CA]-CB--OG-[HG] |==|  0.92062
USER: genes 4 Torsion [N]-CA--C-[N] |==|  0.41353
USER: genes 5 Torsion [C]-N--CA-[C] |==|  0.75436
USER: genes 6 Torsion [N]-CA--C-[N] |==|  0.33111
USER: genes 7 Torsion [C]-N--CA-[CB] |==|  0.43106
USER: genes 8 Torsion [N]-CA--CB-[OG] |==|  0.24888
USER: genes 9 Torsion [CA]-CB--OG-[HG] |==|  0.74146
USER: genes 10 Torsion [N]-CA--C-[N] |==|  0.94391
USER: genes 11 Torsion [C]-N--CA-[C] |==|  0.55353
USER: genes 12 Torsion [N]-CA--C-[O] |==|  0.94802
USER: genes 13 Torsion [N]-CA--CB-[CG2] |==|  0.38252
USER: genes 14 Torsion [CA]-CB--OG1-[HG1] |==|  0.04302
USER: genes 15 Torsion [N]-CA--CB-[OG] |==|  0.55498
USER: genes 16 Torsion [CA]-CB--OG-[HG] |==|  0.10925
USER: genes 17 Torsion [CB]-CA--N-[C] |==|  0.20875
USER: genes 18 Torsion [N]-C--CA-[N] |==|  0.36945
USER: genes 19 Torsion [C]-CA--N-[C] |==|  0.85386
USER: genes 20 Torsion [N]-C--CA-[N] |==|  0.03889
USER: genes 21 Torsion [C]-CA--N-[C] |==|  0.74564
USER: genes 22 Torsion [N]-C--CA-[N] |==|  0.61556
USER: genes 23 Torsion [C]-CA--CB-[CG] |==|  0.20012
USER: genes 24 Torsion [CA]-CB--CG-[OD1] |==|  0.08190
USER: genes 25 Torsion [C]-CA--CB-[CG1] |==|  0.18569
ROOT
ATOM      1  CA  SER D1363     -22.741  22.295 -39.728  1.00 54.34 LIG 0.20  C 
ENDROOT
BRANCH 1 2
ATOM      2  CB  SER D1363     -23.934  21.856 -38.875  1.00 54.70 LIG 0.20  C 
BRANCH 2 3
ATOM      3 OG   SER D1363     -23.518  21.149 -37.720  1.00 55.13 LIG-0.40  OA
ATOM      4 HG   SER D1363     -22.789  20.761 -37.875  1.00 55.13 LIG 0.21  HD
ENDBRANCH 2 3
ENDBRANCH 1 2
BRANCH 1 5
ATOM      5  C   SER D1363     -22.309  23.688 -39.327  1.00 54.23 LIG 0.24  C 
ATOM      6  N   SER D1364     -22.922  24.679 -39.959  1.00 54.98 LIG-0.34  N 
ATOM      7 H    SER D1364     -23.533  24.556 -40.552  1.00 54.98 LIG 0.16  HD
ATOM      8 O    SER D1363     -21.454  23.864 -38.463  1.00 54.73 LIG-0.27  OA
BRANCH 6 9
ATOM      9  CA  SER D1364     -22.618  26.080 -39.706  1.00 55.87 LIG 0.20  C 
BRANCH 9 10
ATOM     10  C   SER D1364     -23.514  26.567 -38.548  1.00 56.37 LIG 0.24  C 
ATOM     11 O    SER D1364     -24.716  26.558 -38.663  1.00 55.91 LIG-0.27  OA
ATOM     12  N   SER D1365     -22.922  27.006 -37.446  1.00 58.29 LIG-0.34  N 
ATOM     13 H    SER D1365     -22.071  27.041 -37.328  1.00 58.29 LIG 0.16  HD
BRANCH 12 14
ATOM     14  CA  SER D1365     -23.719  27.472 -36.329  1.00 60.08 LIG 0.20  C 
BRANCH 14 15
ATOM     15  CB  SER D1365     -22.946  27.343 -35.033  1.00 57.27 LIG 0.20  C 
BRANCH 15 16
ATOM     16 OG   SER D1365     -22.225  28.534 -34.823  1.00 56.70 LIG-0.40  OA
ATOM     17 HG   SER D1365     -21.452  28.453 -35.141  1.00 56.70 LIG 0.21  HD
ENDBRANCH 15 16
ENDBRANCH 14 15
BRANCH 14 18
ATOM     18  C   SER D1365     -23.889  28.939 -36.616  1.00 61.54 LIG 0.24  C 
ATOM     19  N   THR D1366     -22.992  29.433 -37.452  1.00 60.28 LIG-0.34  N 
ATOM     20 H    THR D1366     -22.478  28.966 -37.958  1.00 60.28 LIG 0.16  HD
ATOM     21 O    SER D1365     -24.821  29.589 -36.155  1.00 62.26 LIG-0.27  OA
BRANCH 19 22
ATOM     22  CA  THR D1366     -22.834  30.853 -37.553  1.00 59.76 LIG 0.19  C 
BRANCH 22 23
ATOM     23  C   THR D1366     -22.132  31.316 -38.847  1.00 59.52 LIG 0.22  C 
ATOM     24 O    THR D1366     -21.462  30.460 -39.488  1.00 43.13 LIG-0.29  OA
ENDBRANCH 22 23
BRANCH 22 25
ATOM     25  CB  THR D1366     -22.056  31.125 -36.236  1.00 59.99 LIG 0.14  C 
ATOM     26  CG2 THR D1366     -20.927  32.099 -36.386  1.00 59.85 LIG 0.04  C 
BRANCH 25 27
ATOM     27 OG1  THR D1366     -22.950  31.454 -35.171  1.00 59.97 LIG-0.39  OA
ATOM     28 HG1  THR D1366     -23.733  31.238 -35.386  1.00 59.97 LIG 0.21  HD
ENDBRANCH 25 27
ENDBRANCH 22 25
ENDBRANCH 19 22
ENDBRANCH 14 18
ENDBRANCH 12 14
ENDBRANCH 9 10
BRANCH 9 29
ATOM     29  CB  SER D1364     -22.907  26.896 -40.968  1.00 55.64 LIG 0.20  C 
BRANCH 29 30
ATOM     30 OG   SER D1364     -22.231  28.140 -40.951  1.00 56.44 LIG-0.40  OA
ATOM     31 HG   SER D1364     -21.462  28.038 -40.629  1.00 56.44 LIG 0.21  HD
ENDBRANCH 29 30
ENDBRANCH 9 29
ENDBRANCH 6 9
ENDBRANCH 1 5
BRANCH 1 32
ATOM     32  N   SER D1363     -21.655  21.339 -39.609  1.00 53.98 LIG-0.34  N 
ATOM     33  C   VAL D1362     -21.705  20.163 -40.225  1.00 54.25 LIG 0.24  C 
ATOM     34 O    VAL D1362     -22.652  19.813 -40.928  1.00 54.63 LIG-0.27  OA
ATOM     35 H    SER D1363     -20.999  21.600 -39.118  1.00 53.98 LIG 0.16  HD
BRANCH 33 36
ATOM     36  CA  VAL D1362     -20.512  19.244 -40.015  1.00 53.82 LIG 0.18  C 
BRANCH 36 37
ATOM     37  N   VAL D1362     -20.983  17.908 -39.693  1.00 55.57 LIG-0.35  N 
ATOM     38  C   ASP D1361     -21.851  17.685 -38.715  1.00 57.59 LIG 0.24  C 
ATOM     39 O    ASP D1361     -22.336  18.580 -38.023  1.00 58.12 LIG-0.27  OA
ATOM     40 H    VAL D1362     -20.651  17.288 -40.188  1.00 55.57 LIG 0.16  HD
BRANCH 38 41
ATOM     41  CA  ASP D1361     -22.246  16.237 -38.503  1.00 59.82 LIG 0.19  C 
BRANCH 41 42
ATOM     42  N   ASP D1361     -21.359  15.305 -39.199  1.00 59.55 LIG-0.34  N 
ATOM     43  C   PRO D1360     -21.605  14.876 -40.436  1.00 59.89 LIG 0.25  C 
ATOM     44 O    PRO D1360     -22.580  15.235 -41.099  1.00 59.45 LIG-0.27  OA
ATOM     45 H    ASP D1361     -20.673  15.065 -38.739  1.00 59.55 LIG 0.16  HD
BRANCH 43 46
ATOM     46  CA  PRO D1360     -20.587  13.900 -41.016  1.00 59.77 LIG 0.35  C 
ATOM     47  N   PRO D1360     -20.277  14.187 -42.432  1.00 58.11 LIG 0.32  N 
ATOM     48  CD  PRO D1360     -18.817  14.193 -42.628  1.00 58.92 LIG 0.32  C 
ATOM     49  CG  PRO D1360     -18.297  13.530 -41.327  1.00 60.40 LIG 0.04  C 
ATOM     50  CB  PRO D1360     -19.271  13.973 -40.255  1.00 59.31 LIG 0.05  C 
ENDBRANCH 43 46
ENDBRANCH 41 42
BRANCH 41 51
ATOM     51  CB  ASP D1361     -22.272  15.953 -36.997  1.00 61.63 LIG 0.15  C 
BRANCH 51 52
ATOM     52  CG  ASP D1361     -23.448  16.609 -36.296  1.00 64.71 LIG 0.17  C 
ATOM     53 OD1  ASP D1361     -24.503  16.792 -36.940  1.00 66.40 LIG-0.65  OA
ATOM     54 OD2  ASP D1361     -23.310  16.949 -35.101  1.00 65.87 LIG-0.65  OA
ENDBRANCH 51 52
ENDBRANCH 41 51
ENDBRANCH 38 41
ENDBRANCH 36 37
BRANCH 36 55
ATOM     55  CB  VAL D1362     -19.646  19.226 -41.295  1.00 52.08 LIG 0.01  C 
ATOM     56  CG1 VAL D1362     -19.006  20.590 -41.521  1.00 50.17 LIG 0.01  C 
ATOM     57  CG2 VAL D1362     -18.584  18.150 -41.172  1.00 49.53 LIG 0.01  C 
ENDBRANCH 36 55
ENDBRANCH 33 36
ENDBRANCH 1 32
TORSDOF 24
ENDMDL
MODEL 13
USER: ADFR SOLUTION from run 43
USER: SCORE 16.128092 LL:  -3.908 LR: -14.198 RR:   0.000 FEB:  -7.039
USER: RMSD 4.543545
USER: SEED 42
USER: STATUS searching
USER: GENES 26
USER: genes 0 Translation |==|  0.43820 0.49698 0.44210
USER: genes 1 Rotation |==|  0.51787 0.60562 0.51979 0.98799
USER: genes 2 Torsion [C]-CA--CB-[OG] |==|  0.69821
USER: genes 3 Torsion [CA]-CB--OG-[HG] |==|  0.03201
USER: genes 4 Torsion [N]-CA--C-[N] |==|  0.49650
USER: genes 5 Torsion [C]-N--CA-[C] |==|  0.62345
USER: genes 6 Torsion [N]-CA--C-[N] |==|  0.47293
USER: genes 7 Torsion [C]-N--CA-[CB] |==|  0.24436
USER: genes 8 Torsion [N]-CA--CB-[OG] |==|  0.20332
USER: genes 9 Torsion [CA]-CB--OG-[HG] |==|  0.93164
USER: genes 10 Torsion [N]-CA--C-[N] |==|  0.04882
USER: genes 11 Torsion [C]-N--CA-[C] |==|  0.84941
USER: genes 12 Torsion [N]-CA--C-[O] |==|  0.29142
USER: genes 13 Torsion [N]-CA--CB-[CG2] |==|  0.49683
USER: genes 14 Torsion [CA]-CB--OG1-[HG1] |==|  0.01122
USER: genes 15 Torsion [N]-CA--CB-[OG] |==|  0.71578
USER: genes 16 Torsion [CA]-CB--OG-[HG] |==|  0.78968
USER: genes 17 Torsion [CB]-CA--N-[C] |==|  0.48477
USER: genes 18 Torsion [N]-C--CA-[N] |==|  0.29534
USER: genes 19 Torsion [C]-CA--N-[C] |==|  0.62941
USER: genes 20 Torsion [N]-C--CA-[N] |==|  0.98043
USER: genes 21 Torsion [C]-CA--N-[C] |==|  0.78347
USER: genes 22 Torsion [N]-C--CA-[N] |==|  0.51409
USER: genes 23 Torsion [C]-CA--CB-[CG] |==|  0.59965
USER: genes 24 Torsion [CA]-CB--CG-[OD1] |==|  0.16634
USER: genes 25 Torsion [C]-CA--CB-[CG1] |==|  0.14411
ROOT
ATOM      1  CA  SER D1363     -23.232  21.764 -38.977  1.00 54.34 LIG 0.20  C 
ENDROOT
BRANCH 1 2
ATOM      2  CB  SER D1363     -23.912  21.421 -37.650  1.00 54.70 LIG 0.20  C 
BRANCH 2 3
ATOM      3 OG   SER D1363     -23.234  20.380 -36.969  1.00 55.13 LIG-0.40  OA
ATOM      4 HG   SER D1363     -22.491  20.242 -37.336  1.00 55.13 LIG 0.21  HD
ENDBRANCH 2 3
ENDBRANCH 1 2
BRANCH 1 5
ATOM      5  C   SER D1363     -22.551  23.110 -38.872  1.00 54.23 LIG 0.24  C 
ATOM      6  N   SER D1364     -23.342  24.126 -38.557  1.00 54.98 LIG-0.34  N 
ATOM      7 H    SER D1364     -24.185  24.042 -38.410  1.00 54.98 LIG 0.16  HD
ATOM      8 O    SER D1363     -21.342  23.226 -39.059  1.00 54.73 LIG-0.27  OA
BRANCH 6 9
ATOM      9  CA  SER D1364     -22.853  25.491 -38.428  1.00 55.87 LIG 0.20  C 
BRANCH 9 10
ATOM     10  C   SER D1364     -23.467  26.107 -37.154  1.00 56.37 LIG 0.24  C 
ATOM     11 O    SER D1364     -24.356  25.534 -36.568  1.00 55.91 LIG-0.27  OA
ATOM     12  N   SER D1365     -23.001  27.277 -36.741  1.00 58.29 LIG-0.34  N 
ATOM     13 H    SER D1365     -22.379  27.723 -37.134  1.00 58.29 LIG 0.16  HD
BRANCH 12 14
ATOM     14  CA  SER D1365     -23.543  27.896 -35.547  1.00 60.08 LIG 0.20  C 
BRANCH 14 15
ATOM     15  CB  SER D1365     -22.800  27.419 -34.317  1.00 57.27 LIG 0.20  C 
BRANCH 15 16
ATOM     16 OG   SER D1365     -21.529  28.023 -34.301  1.00 56.70 LIG-0.40  OA
ATOM     17 HG   SER D1365     -21.308  28.232 -35.084  1.00 56.70 LIG 0.21  HD
ENDBRANCH 15 16
ENDBRANCH 14 15
BRANCH 14 18
ATOM     18  C   SER D1365     -23.221  29.353 -35.739  1.00 61.54 LIG 0.24  C 
ATOM     19  N   THR D1366     -22.925  29.681 -36.985  1.00 60.28 LIG-0.34  N 
ATOM     20 H    THR D1366     -23.084  29.195 -37.676  1.00 60.28 LIG 0.16  HD
ATOM     21 O    SER D1365     -23.294  30.162 -34.821  1.00 62.26 LIG-0.27  OA
BRANCH 19 22
ATOM     22  CA  THR D1366     -22.289  30.937 -37.247  1.00 59.76 LIG 0.19  C 
BRANCH 22 23
ATOM     23  C   THR D1366     -23.040  32.155 -36.669  1.00 59.52 LIG 0.22  C 
ATOM     24 O    THR D1366     -22.564  32.700 -35.636  1.00 43.13 LIG-0.29  OA
ENDBRANCH 22 23
BRANCH 22 25
ATOM     25  CB  THR D1366     -22.211  30.873 -38.798  1.00 59.99 LIG 0.14  C 
ATOM     26  CG2 THR D1366     -21.599  32.089 -39.426  1.00 59.85 LIG 0.04  C 
BRANCH 25 27
ATOM     27 OG1  THR D1366     -21.614  29.651 -39.231  1.00 59.97 LIG-0.39  OA
ATOM     28 HG1  THR D1366     -21.462  29.161 -38.565  1.00 59.97 LIG 0.21  HD
ENDBRANCH 25 27
ENDBRANCH 22 25
ENDBRANCH 19 22
ENDBRANCH 14 18
ENDBRANCH 12 14
ENDBRANCH 9 10
BRANCH 9 29
ATOM     29  CB  SER D1364     -23.281  26.300 -39.656  1.00 55.64 LIG 0.20  C 
BRANCH 29 30
ATOM     30 OG   SER D1364     -22.211  26.469 -40.568  1.00 56.44 LIG-0.40  OA
ATOM     31 HG   SER D1364     -21.681  27.050 -40.273  1.00 56.44 LIG 0.21  HD
ENDBRANCH 29 30
ENDBRANCH 9 29
ENDBRANCH 6 9
ENDBRANCH 1 5
BRANCH 1 32
ATOM     32  N   SER D1363     -22.300  20.716 -39.354  1.00 53.98 LIG-0.34  N 
ATOM     33  C   VAL D1362     -21.672  20.743 -40.524  1.00 54.25 LIG 0.24  C 
ATOM     34 O    VAL D1362     -21.827  21.643 -41.349  1.00 54.63 LIG-0.27  OA
ATOM     35 H    SER D1363     -22.200  20.097 -38.766  1.00 53.98 LIG 0.16  HD
BRANCH 33 36
ATOM     36  CA  VAL D1362     -20.731  19.584 -40.807  1.00 53.82 LIG 0.18  C 
BRANCH 36 37
ATOM     37  N   VAL D1362     -21.336  18.699 -41.788  1.00 55.57 LIG-0.35  N 
ATOM     38  C   ASP D1361     -21.356  17.382 -41.629  1.00 57.59 LIG 0.24  C 
ATOM     39 O    ASP D1361     -20.887  16.812 -40.643  1.00 58.12 LIG-0.27  OA
ATOM     40 H    VAL D1362     -21.674  19.103 -42.467  1.00 55.57 LIG 0.16  HD
BRANCH 38 41
ATOM     41  CA  ASP D1361     -22.026  16.595 -42.737  1.00 59.82 LIG 0.19  C 
BRANCH 41 42
ATOM     42  N   ASP D1361     -22.682  17.457 -43.720  1.00 59.55 LIG-0.34  N 
ATOM     43  C   PRO D1360     -23.864  18.028 -43.490  1.00 59.89 LIG 0.25  C 
ATOM     44 O    PRO D1360     -24.489  17.896 -42.436  1.00 59.45 LIG-0.27  OA
ATOM     45 H    ASP D1361     -22.239  17.557 -44.450  1.00 59.55 LIG 0.16  HD
BRANCH 43 46
ATOM     46  CA  PRO D1360     -24.417  18.890 -44.619  1.00 59.77 LIG 0.35  C 
ATOM     47  N   PRO D1360     -25.666  19.581 -44.239  1.00 58.11 LIG 0.32  N 
ATOM     48  CD  PRO D1360     -25.577  21.004 -44.607  1.00 58.92 LIG 0.32  C 
ATOM     49  CG  PRO D1360     -24.353  21.034 -45.557  1.00 60.40 LIG 0.04  C 
ATOM     50  CB  PRO D1360     -23.421  19.972 -45.014  1.00 59.31 LIG 0.05  C 
ENDBRANCH 43 46
ENDBRANCH 41 42
BRANCH 41 51
ATOM     51  CB  ASP D1361     -20.975  15.700 -43.404  1.00 61.63 LIG 0.15  C 
BRANCH 51 52
ATOM     52  CG  ASP D1361     -21.189  15.559 -44.901  1.00 64.71 LIG 0.17  C 
ATOM     53 OD1  ASP D1361     -21.165  16.588 -45.609  1.00 66.40 LIG-0.65  OA
ATOM     54 OD2  ASP D1361     -21.391  14.415 -45.364  1.00 65.87 LIG-0.65  OA
ENDBRANCH 51 52
ENDBRANCH 41 51
ENDBRANCH 38 41
ENDBRANCH 36 37
BRANCH 36 55
ATOM     55  CB  VAL D1362     -19.382  20.132 -41.325  1.00 52.08 LIG 0.01  C 
ATOM     56  CG1 VAL D1362     -18.843  21.196 -40.377  1.00 50.17 LIG 0.01  C 
ATOM     57  CG2 VAL D1362     -18.392  18.991 -41.466  1.00 49.53 LIG 0.01  C 
ENDBRANCH 36 55
ENDBRANCH 33 36
ENDBRANCH 1 32
TORSDOF 24
ENDMDL
MODEL 14
USER: ADFR SOLUTION from run 67
USER: SCORE 15.449457 LL:  -3.880 LR: -14.091 RR:   0.000 FEB:  -6.931
USER: RMSD 1.811410
USER: SEED 66
USER: STATUS searching
USER: GENES 26
USER: genes 0 Translation |==|  0.46763 0.50518 0.38529
USER: genes 1 Rotation |==|  0.53369 0.49826 0.54625 0.99671
USER: genes 2 Torsion [C]-CA--CB-[OG] |==|  0.73498
USER: genes 3 Torsion [CA]-CB--OG-[HG] |==|  0.97166
USER: genes 4 Torsion [N]-CA--C-[N] |==|  0.38629
USER: genes 5 Torsion [C]-N--CA-[C] |==|  0.76732
USER: genes 6 Torsion [N]-CA--C-[N] |==|  0.35585
USER: genes 7 Torsion [C]-N--CA-[CB] |==|  0.42319
USER: genes 8 Torsion [N]-CA--CB-[OG] |==|  0.25381
USER: genes 9 Torsion [CA]-CB--OG-[HG] |==|  0.77306
USER: genes 10 Torsion [N]-CA--C-[N] |==|  0.94159
USER: genes 11 Torsion [C]-N--CA-[C] |==|  0.55888
USER: genes 12 Torsion [N]-CA--C-[O] |==|  0.92603
USER: genes 13 Torsion [N]-CA--CB-[CG2] |==|  0.38194
USER: genes 14 Torsion [CA]-CB--OG1-[HG1] |==|  0.11156
USER: genes 15 Torsion [N]-CA--CB-[OG] |==|  0.52308
USER: genes 16 Torsion [CA]-CB--OG-[HG] |==|  0.13106
USER: genes 17 Torsion [CB]-CA--N-[C] |==|  0.24952
USER: genes 18 Torsion [N]-C--CA-[N] |==|  0.42168
USER: genes 19 Torsion [C]-CA--N-[C] |==|  0.71977
USER: genes 20 Torsion [N]-C--CA-[N] |==|  0.37614
USER: genes 21 Torsion [C]-CA--N-[C] |==|  0.83956
USER: genes 22 Torsion [N]-C--CA-[N] |==|  0.32163
USER: genes 23 Torsion [C]-CA--CB-[CG] |==|  0.21975
USER: genes 24 Torsion [CA]-CB--CG-[OD1] |==|  0.04183
USER: genes 25 Torsion [C]-CA--CB-[CG1] |==|  0.16615
ROOT
ATOM      1  CA  SER D1363     -22.746  21.992 -39.830  1.00 54.34 LIG 0.20  C 
ENDROOT
BRANCH 1 2
ATOM      2  CB  SER D1363     -23.879  21.467 -38.945  1.00 54.70 LIG 0.20  C 
BRANCH 2 3
ATOM      3 OG   SER D1363     -23.393  20.610 -37.926  1.00 55.13 LIG-0.40  OA
ATOM      4 HG   SER D1363     -22.585  20.431 -38.072  1.00 55.13 LIG 0.21  HD
ENDBRANCH 2 3
ENDBRANCH 1 2
BRANCH 1 5
ATOM      5  C   SER D1363     -22.298  23.349 -39.338  1.00 54.23 LIG 0.24  C 
ATOM      6  N   SER D1364     -22.809  24.387 -39.984  1.00 54.98 LIG-0.34  N 
ATOM      7 H    SER D1364     -23.367  24.313 -40.634  1.00 54.98 LIG 0.16  HD
ATOM      8 O    SER D1363     -21.520  23.457 -38.393  1.00 54.73 LIG-0.27  OA
BRANCH 6 9
ATOM      9  CA  SER D1364     -22.474  25.764 -39.650  1.00 55.87 LIG 0.20  C 
BRANCH 9 10
ATOM     10  C   SER D1364     -23.374  26.211 -38.479  1.00 56.37 LIG 0.24  C 
ATOM     11 O    SER D1364     -24.573  26.088 -38.552  1.00 55.91 LIG-0.27  OA
ATOM     12  N   SER D1365     -22.790  26.741 -37.414  1.00 58.29 LIG-0.34  N 
ATOM     13 H    SER D1365     -21.943  26.858 -37.326  1.00 58.29 LIG 0.16  HD
BRANCH 12 14
ATOM     14  CA  SER D1365     -23.592  27.174 -36.286  1.00 60.08 LIG 0.20  C 
BRANCH 14 15
ATOM     15  CB  SER D1365     -22.791  27.098 -35.004  1.00 57.27 LIG 0.20  C 
BRANCH 15 16
ATOM     16 OG   SER D1365     -22.164  28.341 -34.794  1.00 56.70 LIG-0.40  OA
ATOM     17 HG   SER D1365     -21.462  28.381 -35.253  1.00 56.70 LIG 0.21  HD
ENDBRANCH 15 16
ENDBRANCH 14 15
BRANCH 14 18
ATOM     18  C   SER D1365     -23.845  28.627 -36.581  1.00 61.54 LIG 0.24  C 
ATOM     19  N   THR D1366     -22.980  29.166 -37.424  1.00 60.28 LIG-0.34  N 
ATOM     20 H    THR D1366     -22.442  28.725 -37.929  1.00 60.28 LIG 0.16  HD
ATOM     21 O    SER D1365     -24.810  29.227 -36.121  1.00 62.26 LIG-0.27  OA
BRANCH 19 22
ATOM     22  CA  THR D1366     -22.902  30.592 -37.534  1.00 59.76 LIG 0.19  C 
BRANCH 22 23
ATOM     23  C   THR D1366     -22.275  31.086 -38.855  1.00 59.52 LIG 0.22  C 
ATOM     24 O    THR D1366     -21.462  30.319 -39.440  1.00 43.13 LIG-0.29  OA
ENDBRANCH 22 23
BRANCH 22 25
ATOM     25  CB  THR D1366     -22.092  30.911 -36.247  1.00 59.99 LIG 0.14  C 
ATOM     26  CG2 THR D1366     -21.021  31.940 -36.443  1.00 59.85 LIG 0.04  C 
BRANCH 25 27
ATOM     27 OG1  THR D1366     -22.962  31.201 -35.152  1.00 59.97 LIG-0.39  OA
ATOM     28 HG1  THR D1366     -23.619  30.677 -35.170  1.00 59.97 LIG 0.21  HD
ENDBRANCH 25 27
ENDBRANCH 22 25
ENDBRANCH 19 22
ENDBRANCH 14 18
ENDBRANCH 12 14
ENDBRANCH 9 10
BRANCH 9 29
ATOM     29  CB  SER D1364     -22.723  26.656 -40.869  1.00 55.64 LIG 0.20  C 
BRANCH 29 30
ATOM     30 OG   SER D1364     -22.237  27.969 -40.663  1.00 56.44 LIG-0.40  OA
ATOM     31 HG   SER D1364     -21.458  27.935 -40.350  1.00 56.44 LIG 0.21  HD
ENDBRANCH 29 30
ENDBRANCH 9 29
ENDBRANCH 6 9
ENDBRANCH 1 5
BRANCH 1 32
ATOM     32  N   SER D1363     -21.649  21.041 -39.864  1.00 53.98 LIG-0.34  N 
ATOM     33  C   VAL D1362     -21.601  20.080 -40.780  1.00 54.25 LIG 0.24  C 
ATOM     34 O    VAL D1362     -22.461  19.937 -41.649  1.00 54.63 LIG-0.27  OA
ATOM     35 H    SER D1363     -21.055  21.156 -39.253  1.00 53.98 LIG 0.16  HD
BRANCH 33 36
ATOM     36  CA  VAL D1362     -20.409  19.140 -40.705  1.00 53.82 LIG 0.18  C 
BRANCH 36 37
ATOM     37  N   VAL D1362     -20.781  17.844 -41.246  1.00 55.57 LIG-0.35  N 
ATOM     38  C   ASP D1361     -21.087  16.818 -40.464  1.00 57.59 LIG 0.24  C 
ATOM     39 O    ASP D1361     -21.099  16.883 -39.234  1.00 58.12 LIG-0.27  OA
ATOM     40 H    VAL D1362     -20.784  17.808 -42.105  1.00 55.57 LIG 0.16  HD
BRANCH 38 41
ATOM     41  CA  ASP D1361     -21.456  15.533 -41.177  1.00 59.82 LIG 0.19  C 
BRANCH 41 42
ATOM     42  N   ASP D1361     -20.815  14.358 -40.586  1.00 59.55 LIG-0.34  N 
ATOM     43  C   PRO D1360     -19.491  14.249 -40.475  1.00 59.89 LIG 0.25  C 
ATOM     44 O    PRO D1360     -18.704  15.123 -40.841  1.00 59.45 LIG-0.27  OA
ATOM     45 H    ASP D1361     -21.367  13.754 -40.321  1.00 59.55 LIG 0.16  HD
BRANCH 43 46
ATOM     46  CA  PRO D1360     -18.981  12.958 -39.844  1.00 59.77 LIG 0.35  C 
ATOM     47  N   PRO D1360     -18.184  12.147 -40.787  1.00 58.11 LIG 0.32  N 
ATOM     48  CD  PRO D1360     -16.930  11.725 -40.141  1.00 58.92 LIG 0.32  C 
ATOM     49  CG  PRO D1360     -17.203  12.022 -38.644  1.00 60.40 LIG 0.04  C 
ATOM     50  CB  PRO D1360     -18.082  13.255 -38.652  1.00 59.31 LIG 0.05  C 
ENDBRANCH 43 46
ENDBRANCH 41 42
BRANCH 41 51
ATOM     51  CB  ASP D1361     -22.982  15.390 -41.169  1.00 61.63 LIG 0.15  C 
BRANCH 51 52
ATOM     52  CG  ASP D1361     -23.657  16.246 -42.226  1.00 64.71 LIG 0.17  C 
ATOM     53 OD1  ASP D1361     -22.958  16.726 -43.144  1.00 66.40 LIG-0.65  OA
ATOM     54 OD2  ASP D1361     -24.887  16.444 -42.130  1.00 65.87 LIG-0.65  OA
ENDBRANCH 51 52
ENDBRANCH 41 51
ENDBRANCH 38 41
ENDBRANCH 36 37
BRANCH 36 55
ATOM     55  CB  VAL D1362     -19.228  19.746 -41.497  1.00 52.08 LIG 0.01  C 
ATOM     56  CG1 VAL D1362     -18.837  21.098 -40.916  1.00 50.17 LIG 0.01  C 
ATOM     57  CG2 VAL D1362     -18.052  18.788 -41.462  1.00 49.53 LIG 0.01  C 
ENDBRANCH 36 55
ENDBRANCH 33 36
ENDBRANCH 1 32
TORSDOF 24
ENDMDL
MODEL 15
USER: ADFR SOLUTION from run 86
USER: SCORE 15.922346 LL:  -4.386 LR: -14.068 RR:   0.000 FEB:  -6.908
USER: RMSD 2.526625
USER: SEED 85
USER: STATUS searching
USER: GENES 26
USER: genes 0 Translation |==|  0.46590 0.50335 0.38193
USER: genes 1 Rotation |==|  0.53655 0.50472 0.54206 0.99686
USER: genes 2 Torsion [C]-CA--CB-[OG] |==|  0.75083
USER: genes 3 Torsion [CA]-CB--OG-[HG] |==|  0.95271
USER: genes 4 Torsion [N]-CA--C-[N] |==|  0.39138
USER: genes 5 Torsion [C]-N--CA-[C] |==|  0.75819
USER: genes 6 Torsion [N]-CA--C-[N] |==|  0.35928
USER: genes 7 Torsion [C]-N--CA-[CB] |==|  0.42678
USER: genes 8 Torsion [N]-CA--CB-[OG] |==|  0.26642
USER: genes 9 Torsion [CA]-CB--OG-[HG] |==|  0.73470
USER: genes 10 Torsion [N]-CA--C-[N] |==|  0.93310
USER: genes 11 Torsion [C]-N--CA-[C] |==|  0.56355
USER: genes 12 Torsion [N]-CA--C-[O] |==|  0.92666
USER: genes 13 Torsion [N]-CA--CB-[CG2] |==|  0.39319
USER: genes 14 Torsion [CA]-CB--OG1-[HG1] |==|  0.20455
USER: genes 15 Torsion [N]-CA--CB-[OG] |==|  0.51611
USER: genes 16 Torsion [CA]-CB--OG-[HG] |==|  0.14057
USER: genes 17 Torsion [CB]-CA--N-[C] |==|  0.27222
USER: genes 18 Torsion [N]-C--CA-[N] |==|  0.42788
USER: genes 19 Torsion [C]-CA--N-[C] |==|  0.78530
USER: genes 20 Torsion [N]-C--CA-[N] |==|  0.10895
USER: genes 21 Torsion [C]-CA--N-[C] |==|  0.14719
USER: genes 22 Torsion [N]-C--CA-[N] |==|  0.87416
USER: genes 23 Torsion [C]-CA--CB-[CG] |==|  0.53029
USER: genes 24 Torsion [CA]-CB--CG-[OD1] |==|  0.22655
USER: genes 25 Torsion [C]-CA--CB-[CG1] |==|  0.16239
ROOT
ATOM      1  CA  SER D1363     -22.775  21.941 -39.880  1.00 54.34 LIG 0.20  C 
ENDROOT
BRANCH 1 2
ATOM      2  CB  SER D1363     -23.891  21.425 -38.969  1.00 54.70 LIG 0.20  C 
BRANCH 2 3
ATOM      3 OG   SER D1363     -23.375  20.657 -37.895  1.00 55.13 LIG-0.40  OA
ATOM      4 HG   SER D1363     -22.587  20.425 -38.069  1.00 55.13 LIG 0.21  HD
ENDBRANCH 2 3
ENDBRANCH 1 2
BRANCH 1 5
ATOM      5  C   SER D1363     -22.292  23.287 -39.389  1.00 54.23 LIG 0.24  C 
ATOM      6  N   SER D1364     -22.834  24.339 -39.986  1.00 54.98 LIG-0.34  N 
ATOM      7 H    SER D1364     -23.428  24.279 -40.605  1.00 54.98 LIG 0.16  HD
ATOM      8 O    SER D1363     -21.462  23.374 -38.488  1.00 54.73 LIG-0.27  OA
BRANCH 6 9
ATOM      9  CA  SER D1364     -22.473  25.708 -39.645  1.00 55.87 LIG 0.20  C 
BRANCH 9 10
ATOM     10  C   SER D1364     -23.363  26.165 -38.470  1.00 56.37 LIG 0.24  C 
ATOM     11 O    SER D1364     -24.563  26.043 -38.532  1.00 55.91 LIG-0.27  OA
ATOM     12  N   SER D1365     -22.769  26.702 -37.414  1.00 58.29 LIG-0.34  N 
ATOM     13 H    SER D1365     -21.921  26.818 -37.334  1.00 58.29 LIG 0.16  HD
BRANCH 12 14
ATOM     14  CA  SER D1365     -23.561  27.144 -36.282  1.00 60.08 LIG 0.20  C 
BRANCH 14 15
ATOM     15  CB  SER D1365     -22.739  27.107 -35.012  1.00 57.27 LIG 0.20  C 
BRANCH 15 16
ATOM     16 OG   SER D1365     -22.214  28.392 -34.781  1.00 56.70 LIG-0.40  OA
ATOM     17 HG   SER D1365     -21.435  28.437 -35.091  1.00 56.70 LIG 0.21  HD
ENDBRANCH 15 16
ENDBRANCH 14 15
BRANCH 14 18
ATOM     18  C   SER D1365     -23.842  28.587 -36.603  1.00 61.54 LIG 0.24  C 
ATOM     19  N   THR D1366     -22.962  29.141 -37.419  1.00 60.28 LIG-0.34  N 
ATOM     20 H    THR D1366     -22.394  28.710 -37.900  1.00 60.28 LIG 0.16  HD
ATOM     21 O    SER D1365     -24.839  29.165 -36.183  1.00 62.26 LIG-0.27  OA
BRANCH 19 22
ATOM     22  CA  THR D1366     -22.918  30.567 -37.542  1.00 59.76 LIG 0.19  C 
BRANCH 22 23
ATOM     23  C   THR D1366     -22.294  31.065 -38.863  1.00 59.52 LIG 0.22  C 
ATOM     24 O    THR D1366     -21.462  30.311 -39.438  1.00 43.13 LIG-0.29  OA
ENDBRANCH 22 23
BRANCH 22 25
ATOM     25  CB  THR D1366     -22.125  30.918 -36.253  1.00 59.99 LIG 0.14  C 
ATOM     26  CG2 THR D1366     -21.145  32.037 -36.428  1.00 59.85 LIG 0.04  C 
BRANCH 25 27
ATOM     27 OG1  THR D1366     -23.006  31.104 -35.144  1.00 59.97 LIG-0.39  OA
ATOM     28 HG1  THR D1366     -23.300  30.359 -34.891  1.00 59.97 LIG 0.21  HD
ENDBRANCH 25 27
ENDBRANCH 22 25
ENDBRANCH 19 22
ENDBRANCH 14 18
ENDBRANCH 12 14
ENDBRANCH 9 10
BRANCH 9 29
ATOM     29  CB  SER D1364     -22.710  26.610 -40.859  1.00 55.64 LIG 0.20  C 
BRANCH 29 30
ATOM     30 OG   SER D1364     -22.251  27.929 -40.627  1.00 56.44 LIG-0.40  OA
ATOM     31 HG   SER D1364     -21.462  27.906 -40.340  1.00 56.44 LIG 0.21  HD
ENDBRANCH 29 30
ENDBRANCH 9 29
ENDBRANCH 6 9
ENDBRANCH 1 5
BRANCH 1 32
ATOM     32  N   SER D1363     -21.694  20.974 -39.953  1.00 53.98 LIG-0.34  N 
ATOM     33  C   VAL D1362     -21.600  20.124 -40.970  1.00 54.25 LIG 0.24  C 
ATOM     34 O    VAL D1362     -22.401  20.103 -41.903  1.00 54.63 LIG-0.27  OA
ATOM     35 H    SER D1363     -21.140  21.004 -39.296  1.00 53.98 LIG 0.16  HD
BRANCH 33 36
ATOM     36  CA  VAL D1362     -20.431  19.154 -40.927  1.00 53.82 LIG 0.18  C 
BRANCH 36 37
ATOM     37  N   VAL D1362     -20.767  17.959 -41.683  1.00 55.57 LIG-0.35  N 
ATOM     38  C   ASP D1361     -21.565  17.019 -41.194  1.00 57.59 LIG 0.24  C 
ATOM     39 O    ASP D1361     -22.094  17.090 -40.084  1.00 58.12 LIG-0.27  OA
ATOM     40 H    VAL D1362     -20.406  17.921 -42.462  1.00 55.57 LIG 0.16  HD
BRANCH 38 41
ATOM     41  CA  ASP D1361     -21.822  15.835 -42.103  1.00 59.82 LIG 0.19  C 
BRANCH 41 42
ATOM     42  N   ASP D1361     -20.627  15.423 -42.839  1.00 59.55 LIG-0.34  N 
ATOM     43  C   PRO D1360     -19.471  15.156 -42.230  1.00 59.89 LIG 0.25  C 
ATOM     44 O    PRO D1360     -19.317  15.217 -41.009  1.00 59.45 LIG-0.27  OA
ATOM     45 H    ASP D1361     -20.740  15.370 -43.690  1.00 59.55 LIG 0.16  HD
BRANCH 43 46
ATOM     46  CA  PRO D1360     -18.319  14.749 -43.141  1.00 59.77 LIG 0.35  C 
ATOM     47  N   PRO D1360     -18.727  13.756 -44.156  1.00 58.11 LIG 0.32  N 
ATOM     48  CD  PRO D1360     -18.245  14.176 -45.482  1.00 58.92 LIG 0.32  C 
ATOM     49  CG  PRO D1360     -17.215  15.280 -45.135  1.00 60.40 LIG 0.04  C 
ATOM     50  CB  PRO D1360     -17.774  15.952 -43.899  1.00 59.31 LIG 0.05  C 
ENDBRANCH 43 46
ENDBRANCH 41 42
BRANCH 41 51
ATOM     51  CB  ASP D1361     -22.373  14.681 -41.258  1.00 61.63 LIG 0.15  C 
BRANCH 51 52
ATOM     52  CG  ASP D1361     -22.417  13.367 -42.018  1.00 64.71 LIG 0.17  C 
ATOM     53 OD1  ASP D1361     -21.370  12.691 -42.107  1.00 66.40 LIG-0.65  OA
ATOM     54 OD2  ASP D1361     -23.501  13.017 -42.533  1.00 65.87 LIG-0.65  OA
ENDBRANCH 51 52
ENDBRANCH 41 51
ENDBRANCH 38 41
ENDBRANCH 36 37
BRANCH 36 55
ATOM     55  CB  VAL D1362     -19.175  19.837 -41.513  1.00 52.08 LIG 0.01  C 
ATOM     56  CG1 VAL D1362     -18.842  21.099 -40.729  1.00 50.17 LIG 0.01  C 
ATOM     57  CG2 VAL D1362     -18.010  18.866 -41.484  1.00 49.53 LIG 0.01  C 
ENDBRANCH 36 55
ENDBRANCH 33 36
ENDBRANCH 1 32
TORSDOF 24
ENDMDL
MODEL 16
USER: ADFR SOLUTION from run 40
USER: SCORE 15.439452 LL:  -4.010 LR: -13.714 RR:   0.000 FEB:  -6.555
USER: RMSD 3.995064
USER: SEED 39
USER: STATUS searching
USER: GENES 26
USER: genes 0 Translation |==|  0.43907 0.51620 0.40116
USER: genes 1 Rotation |==|  0.61309 0.67419 0.53306 0.95363
USER: genes 2 Torsion [C]-CA--CB-[OG] |==|  0.65829
USER: genes 3 Torsion [CA]-CB--OG-[HG] |==|  0.25919
USER: genes 4 Torsion [N]-CA--C-[N] |==|  0.41816
USER: genes 5 Torsion [C]-N--CA-[C] |==|  0.62840
USER: genes 6 Torsion [N]-CA--C-[N] |==|  0.51663
USER: genes 7 Torsion [C]-N--CA-[CB] |==|  0.22222
USER: genes 8 Torsion [N]-CA--CB-[OG] |==|  0.17102
USER: genes 9 Torsion [CA]-CB--OG-[HG] |==|  0.91134
USER: genes 10 Torsion [N]-CA--C-[N] |==|  0.05442
USER: genes 11 Torsion [C]-N--CA-[C] |==|  0.83959
USER: genes 12 Torsion [N]-CA--C-[O] |==|  0.27355
USER: genes 13 Torsion [N]-CA--CB-[CG2] |==|  0.48431
USER: genes 14 Torsion [CA]-CB--OG1-[HG1] |==|  0.06631
USER: genes 15 Torsion [N]-CA--CB-[OG] |==|  0.83048
USER: genes 16 Torsion [CA]-CB--OG-[HG] |==|  0.84955
USER: genes 17 Torsion [CB]-CA--N-[C] |==|  0.23615
USER: genes 18 Torsion [N]-C--CA-[N] |==|  0.24530
USER: genes 19 Torsion [C]-CA--N-[C] |==|  0.67268
USER: genes 20 Torsion [N]-C--CA-[N] |==|  0.91138
USER: genes 21 Torsion [C]-CA--N-[C] |==|  0.83236
USER: genes 22 Torsion [N]-C--CA-[N] |==|  0.37154
USER: genes 23 Torsion [C]-CA--CB-[CG] |==|  0.23169
USER: genes 24 Torsion [CA]-CB--CG-[OD1] |==|  0.17331
USER: genes 25 Torsion [C]-CA--CB-[CG1] |==|  0.22422
ROOT
ATOM      1  CA  SER D1363     -23.217  22.297 -39.592  1.00 54.34 LIG 0.20  C 
ENDROOT
BRANCH 1 2
ATOM      2  CB  SER D1363     -23.494  21.460 -38.341  1.00 54.70 LIG 0.20  C 
BRANCH 2 3
ATOM      3 OG   SER D1363     -22.985  20.144 -38.470  1.00 55.13 LIG-0.40  OA
ATOM      4 HG   SER D1363     -22.212  20.109 -38.144  1.00 55.13 LIG 0.21  HD
ENDBRANCH 2 3
ENDBRANCH 1 2
BRANCH 1 5
ATOM      5  C   SER D1363     -22.442  23.540 -39.216  1.00 54.23 LIG 0.24  C 
ATOM      6  N   SER D1364     -23.175  24.577 -38.837  1.00 54.98 LIG-0.34  N 
ATOM      7 H    SER D1364     -24.033  24.559 -38.793  1.00 54.98 LIG 0.16  HD
ATOM      8 O    SER D1363     -21.214  23.558 -39.255  1.00 54.73 LIG-0.27  OA
BRANCH 6 9
ATOM      9  CA  SER D1364     -22.590  25.854 -38.456  1.00 55.87 LIG 0.20  C 
BRANCH 9 10
ATOM     10  C   SER D1364     -23.265  26.325 -37.150  1.00 56.37 LIG 0.24  C 
ATOM     11 O    SER D1364     -24.055  25.609 -36.581  1.00 55.91 LIG-0.27  OA
ATOM     12  N   SER D1365     -22.962  27.531 -36.693  1.00 58.29 LIG-0.34  N 
ATOM     13 H    SER D1365     -22.415  28.076 -37.073  1.00 58.29 LIG 0.16  HD
BRANCH 12 14
ATOM     14  CA  SER D1365     -23.567  28.018 -35.469  1.00 60.08 LIG 0.20  C 
BRANCH 14 15
ATOM     15  CB  SER D1365     -22.860  27.442 -34.261  1.00 57.27 LIG 0.20  C 
BRANCH 15 16
ATOM     16 OG   SER D1365     -21.518  27.865 -34.284  1.00 56.70 LIG-0.40  OA
ATOM     17 HG   SER D1365     -21.264  27.947 -35.080  1.00 56.70 LIG 0.21  HD
ENDBRANCH 15 16
ENDBRANCH 14 15
BRANCH 14 18
ATOM     18  C   SER D1365     -23.278  29.494 -35.506  1.00 61.54 LIG 0.24  C 
ATOM     19  N   THR D1366     -22.984  29.957 -36.709  1.00 60.28 LIG-0.34  N 
ATOM     20 H    THR D1366     -23.128  29.542 -37.448  1.00 60.28 LIG 0.16  HD
ATOM     21 O    SER D1365     -23.374  30.201 -34.509  1.00 62.26 LIG-0.27  OA
BRANCH 19 22
ATOM     22  CA  THR D1366     -22.374  31.247 -36.835  1.00 59.76 LIG 0.19  C 
BRANCH 22 23
ATOM     23  C   THR D1366     -23.199  32.394 -36.213  1.00 59.52 LIG 0.22  C 
ATOM     24 O    THR D1366     -22.878  32.787 -35.058  1.00 43.13 LIG-0.29  OA
ENDBRANCH 22 23
BRANCH 22 25
ATOM     25  CB  THR D1366     -22.202  31.307 -38.378  1.00 59.99 LIG 0.14  C 
ATOM     26  CG2 THR D1366     -21.694  32.623 -38.883  1.00 59.85 LIG 0.04  C 
BRANCH 25 27
ATOM     27 OG1  THR D1366     -21.449  30.190 -38.853  1.00 59.97 LIG-0.39  OA
ATOM     28 HG1  THR D1366     -21.511  29.556 -38.304  1.00 59.97 LIG 0.21  HD
ENDBRANCH 25 27
ENDBRANCH 22 25
ENDBRANCH 19 22
ENDBRANCH 14 18
ENDBRANCH 12 14
ENDBRANCH 9 10
BRANCH 9 29
ATOM     29  CB  SER D1364     -22.838  26.877 -39.568  1.00 55.64 LIG 0.20  C 
BRANCH 29 30
ATOM     30 OG   SER D1364     -22.239  26.478 -40.787  1.00 56.44 LIG-0.40  OA
ATOM     31 HG   SER D1364     -21.423  26.322 -40.661  1.00 56.44 LIG 0.21  HD
ENDBRANCH 29 30
ENDBRANCH 9 29
ENDBRANCH 6 9
ENDBRANCH 1 5
BRANCH 1 32
ATOM     32  N   SER D1363     -22.518  21.504 -40.587  1.00 53.98 LIG-0.34  N 
ATOM     33  C   VAL D1362     -23.181  20.726 -41.435  1.00 54.25 LIG 0.24  C 
ATOM     34 O    VAL D1362     -24.407  20.630 -41.439  1.00 54.63 LIG-0.27  OA
ATOM     35 H    SER D1363     -21.662  21.586 -40.573  1.00 53.98 LIG 0.16  HD
BRANCH 33 36
ATOM     36  CA  VAL D1362     -22.336  19.937 -42.421  1.00 53.82 LIG 0.18  C 
BRANCH 36 37
ATOM     37  N   VAL D1362     -21.959  18.667 -41.827  1.00 55.57 LIG-0.35  N 
ATOM     38  C   ASP D1361     -20.691  18.342 -41.606  1.00 57.59 LIG 0.24  C 
ATOM     39 O    ASP D1361     -19.747  19.088 -41.865  1.00 58.12 LIG-0.27  OA
ATOM     40 H    VAL D1362     -22.623  18.155 -41.636  1.00 55.57 LIG 0.16  HD
BRANCH 38 41
ATOM     41  CA  ASP D1361     -20.459  16.983 -40.978  1.00 59.82 LIG 0.19  C 
BRANCH 41 42
ATOM     42  N   ASP D1361     -21.543  16.588 -40.078  1.00 59.55 LIG-0.34  N 
ATOM     43  C   PRO D1360     -21.869  17.300 -38.999  1.00 59.89 LIG 0.25  C 
ATOM     44 O    PRO D1360     -21.304  18.347 -38.680  1.00 59.45 LIG-0.27  OA
ATOM     45 H    ASP D1361     -21.944  15.863 -40.309  1.00 59.55 LIG 0.16  HD
BRANCH 43 46
ATOM     46  CA  PRO D1360     -23.016  16.748 -38.160  1.00 59.77 LIG 0.35  C 
ATOM     47  N   PRO D1360     -22.708  16.750 -36.715  1.00 58.11 LIG 0.32  N 
ATOM     48  CD  PRO D1360     -23.834  17.338 -35.970  1.00 58.92 LIG 0.32  C 
ATOM     49  CG  PRO D1360     -24.972  17.342 -37.021  1.00 60.40 LIG 0.04  C 
ATOM     50  CB  PRO D1360     -24.274  17.586 -38.342  1.00 59.31 LIG 0.05  C 
ENDBRANCH 43 46
ENDBRANCH 41 42
BRANCH 41 51
ATOM     51  CB  ASP D1361     -20.270  15.953 -42.097  1.00 61.63 LIG 0.15  C 
BRANCH 51 52
ATOM     52  CG  ASP D1361     -18.846  15.914 -42.624  1.00 64.71 LIG 0.17  C 
ATOM     53 OD1  ASP D1361     -17.928  15.587 -41.843  1.00 66.40 LIG-0.65  OA
ATOM     54 OD2  ASP D1361     -18.650  16.221 -43.820  1.00 65.87 LIG-0.65  OA
ENDBRANCH 51 52
ENDBRANCH 41 51
ENDBRANCH 38 41
ENDBRANCH 36 37
BRANCH 36 55
ATOM     55  CB  VAL D1362     -23.140  19.715 -43.723  1.00 52.08 LIG 0.01  C 
ATOM     56  CG1 VAL D1362     -23.080  20.958 -44.602  1.00 50.17 LIG 0.01  C 
ATOM     57  CG2 VAL D1362     -22.587  18.511 -44.460  1.00 49.53 LIG 0.01  C 
ENDBRANCH 36 55
ENDBRANCH 33 36
ENDBRANCH 1 32
TORSDOF 24
ENDMDL
MODEL 17
USER: ADFR SOLUTION from run 70
USER: SCORE 15.905780 LL:  -4.649 LR: -13.679 RR:   0.000 FEB:  -6.520
USER: RMSD 3.051491
USER: SEED 69
USER: STATUS no improvement in best in 3 clusters for 5 generations
USER: GENES 26
USER: genes 0 Translation |==|  0.45628 0.49732 0.39543
USER: genes 1 Rotation |==|  0.48648 0.51536 0.52985 0.99869
USER: genes 2 Torsion [C]-CA--CB-[OG] |==|  0.73939
USER: genes 3 Torsion [CA]-CB--OG-[HG] |==|  0.82273
USER: genes 4 Torsion [N]-CA--C-[N] |==|  0.49966
USER: genes 5 Torsion [C]-N--CA-[C] |==|  0.66739
USER: genes 6 Torsion [N]-CA--C-[N] |==|  0.36723
USER: genes 7 Torsion [C]-N--CA-[CB] |==|  0.39517
USER: genes 8 Torsion [N]-CA--CB-[OG] |==|  0.26589
USER: genes 9 Torsion [CA]-CB--OG-[HG] |==|  0.77741
USER: genes 10 Torsion [N]-CA--C-[N] |==|  0.93045
USER: genes 11 Torsion [C]-N--CA-[C] |==|  0.54635
USER: genes 12 Torsion [N]-CA--C-[O] |==|  0.97351
USER: genes 13 Torsion [N]-CA--CB-[CG2] |==|  0.40039
USER: genes 14 Torsion [CA]-CB--OG1-[HG1] |==|  0.30577
USER: genes 15 Torsion [N]-CA--CB-[OG] |==|  0.66829
USER: genes 16 Torsion [CA]-CB--OG-[HG] |==|  0.84952
USER: genes 17 Torsion [CB]-CA--N-[C] |==|  0.47778
USER: genes 18 Torsion [N]-C--CA-[N] |==|  0.12085
USER: genes 19 Torsion [C]-CA--N-[C] |==|  0.15265
USER: genes 20 Torsion [N]-C--CA-[N] |==|  0.10094
USER: genes 21 Torsion [C]-CA--N-[C] |==|  0.14291
USER: genes 22 Torsion [N]-C--CA-[N] |==|  0.67370
USER: genes 23 Torsion [C]-CA--CB-[CG] |==|  0.46798
USER: genes 24 Torsion [CA]-CB--CG-[OD1] |==|  0.66710
USER: genes 25 Torsion [C]-CA--CB-[CG1] |==|  0.17909
ROOT
ATOM      1  CA  SER D1363     -22.933  21.774 -39.677  1.00 54.34 LIG 0.20  C 
ENDROOT
BRANCH 1 2
ATOM      2  CB  SER D1363     -24.039  21.505 -38.653  1.00 54.70 LIG 0.20  C 
BRANCH 2 3
ATOM      3 OG   SER D1363     -23.534  20.861 -37.496  1.00 55.13 LIG-0.40  OA
ATOM      4 HG   SER D1363     -23.236  20.103 -37.705  1.00 55.13 LIG 0.21  HD
ENDBRANCH 2 3
ENDBRANCH 1 2
BRANCH 1 5
ATOM      5  C   SER D1363     -22.381  23.167 -39.482  1.00 54.23 LIG 0.24  C 
ATOM      6  N   SER D1364     -23.267  24.149 -39.560  1.00 54.98 LIG-0.34  N 
ATOM      7 H    SER D1364     -24.106  24.020 -39.702  1.00 54.98 LIG 0.16  HD
ATOM      8 O    SER D1363     -21.187  23.351 -39.255  1.00 54.73 LIG-0.27  OA
BRANCH 6 9
ATOM      9  CA  SER D1364     -22.903  25.550 -39.411  1.00 55.87 LIG 0.20  C 
BRANCH 9 10
ATOM     10  C   SER D1364     -23.677  26.125 -38.206  1.00 56.37 LIG 0.24  C 
ATOM     11 O    SER D1364     -24.866  25.941 -38.102  1.00 55.91 LIG-0.27  OA
ATOM     12  N   SER D1365     -23.000  26.832 -37.312  1.00 58.29 LIG-0.34  N 
ATOM     13 H    SER D1365     -22.157  26.997 -37.354  1.00 58.29 LIG 0.16  HD
BRANCH 12 14
ATOM     14  CA  SER D1365     -23.681  27.391 -36.161  1.00 60.08 LIG 0.20  C 
BRANCH 14 15
ATOM     15  CB  SER D1365     -22.800  27.312 -34.932  1.00 57.27 LIG 0.20  C 
BRANCH 15 16
ATOM     16 OG   SER D1365     -22.133  28.542 -34.780  1.00 56.70 LIG-0.40  OA
ATOM     17 HG   SER D1365     -21.474  28.570 -35.300  1.00 56.70 LIG 0.21  HD
ENDBRANCH 15 16
ENDBRANCH 14 15
BRANCH 14 18
ATOM     18  C   SER D1365     -23.832  28.844 -36.523  1.00 61.54 LIG 0.24  C 
ATOM     19  N   THR D1366     -22.933  29.281 -37.388  1.00 60.28 LIG-0.34  N 
ATOM     20 H    THR D1366     -22.429  28.781 -37.872  1.00 60.28 LIG 0.16  HD
ATOM     21 O    SER D1365     -24.751  29.530 -36.090  1.00 62.26 LIG-0.27  OA
BRANCH 19 22
ATOM     22  CA  THR D1366     -22.755  30.692 -37.563  1.00 59.76 LIG 0.19  C 
BRANCH 22 23
ATOM     23  C   THR D1366     -22.000  31.074 -38.853  1.00 59.52 LIG 0.22  C 
ATOM     24 O    THR D1366     -21.462  30.143 -39.514  1.00 43.13 LIG-0.29  OA
ENDBRANCH 22 23
BRANCH 22 25
ATOM     25  CB  THR D1366     -22.026  31.031 -36.234  1.00 59.99 LIG 0.14  C 
ATOM     26  CG2 THR D1366     -20.982  32.098 -36.369  1.00 59.85 LIG 0.04  C 
BRANCH 25 27
ATOM     27 OG1  THR D1366     -22.962  31.284 -35.186  1.00 59.97 LIG-0.39  OA
ATOM     28 HG1  THR D1366     -22.933  30.657 -34.627  1.00 59.97 LIG 0.21  HD
ENDBRANCH 25 27
ENDBRANCH 22 25
ENDBRANCH 19 22
ENDBRANCH 14 18
ENDBRANCH 12 14
ENDBRANCH 9 10
BRANCH 9 29
ATOM     29  CB  SER D1364     -23.282  26.310 -40.685  1.00 55.64 LIG 0.20  C 
BRANCH 29 30
ATOM     30 OG   SER D1364     -22.150  26.894 -41.301  1.00 56.44 LIG-0.40  OA
ATOM     31 HG   SER D1364     -21.742  27.373 -40.744  1.00 56.44 LIG 0.21  HD
ENDBRANCH 29 30
ENDBRANCH 9 29
ENDBRANCH 6 9
ENDBRANCH 1 5
BRANCH 1 32
ATOM     32  N   SER D1363     -21.896  20.762 -39.579  1.00 53.98 LIG-0.34  N 
ATOM     33  C   VAL D1362     -20.914  20.697 -40.470  1.00 54.25 LIG 0.24  C 
ATOM     34 O    VAL D1362     -20.813  21.476 -41.417  1.00 54.63 LIG-0.27  OA
ATOM     35 H    SER D1363     -21.978  20.228 -38.910  1.00 53.98 LIG 0.16  HD
BRANCH 33 36
ATOM     36  CA  VAL D1362     -19.895  19.587 -40.266  1.00 53.82 LIG 0.18  C 
BRANCH 36 37
ATOM     37  N   VAL D1362     -20.585  18.355 -39.925  1.00 55.57 LIG-0.35  N 
ATOM     38  C   ASP D1361     -21.542  17.850 -40.692  1.00 57.59 LIG 0.24  C 
ATOM     39 O    ASP D1361     -21.905  18.366 -41.750  1.00 58.12 LIG-0.27  OA
ATOM     40 H    VAL D1362     -20.319  17.993 -39.193  1.00 55.57 LIG 0.16  HD
BRANCH 38 41
ATOM     41  CA  ASP D1361     -22.165  16.558 -40.203  1.00 59.82 LIG 0.19  C 
BRANCH 41 42
ATOM     42  N   ASP D1361     -22.287  16.510 -38.746  1.00 59.55 LIG-0.34  N 
ATOM     43  C   PRO D1360     -22.859  17.490 -38.047  1.00 59.89 LIG 0.25  C 
ATOM     44 O    PRO D1360     -23.342  18.501 -38.562  1.00 59.45 LIG-0.27  OA
ATOM     45 H    ASP D1361     -21.960  15.800 -38.390  1.00 59.55 LIG 0.16  HD
BRANCH 43 46
ATOM     46  CA  PRO D1360     -22.899  17.293 -36.536  1.00 59.77 LIG 0.35  C 
ATOM     47  N   PRO D1360     -24.280  17.220 -36.015  1.00 58.11 LIG 0.32  N 
ATOM     48  CD  PRO D1360     -24.411  16.061 -35.116  1.00 58.92 LIG 0.32  C 
ATOM     49  CG  PRO D1360     -22.935  15.671 -34.849  1.00 60.40 LIG 0.04  C 
ATOM     50  CB  PRO D1360     -22.213  15.993 -36.140  1.00 59.31 LIG 0.05  C 
ENDBRANCH 43 46
ENDBRANCH 41 42
BRANCH 41 51
ATOM     51  CB  ASP D1361     -23.532  16.389 -40.876  1.00 61.63 LIG 0.15  C 
BRANCH 51 52
ATOM     52  CG  ASP D1361     -24.117  15.002 -40.675  1.00 64.71 LIG 0.17  C 
ATOM     53 OD1  ASP D1361     -24.359  14.302 -41.680  1.00 66.40 LIG-0.65  OA
ATOM     54 OD2  ASP D1361     -24.342  14.619 -39.506  1.00 65.87 LIG-0.65  OA
ENDBRANCH 51 52
ENDBRANCH 41 51
ENDBRANCH 38 41
ENDBRANCH 36 37
BRANCH 36 55
ATOM     55  CB  VAL D1362     -19.064  19.410 -41.557  1.00 52.08 LIG 0.01  C 
ATOM     56  CG1 VAL D1362     -18.245  20.663 -41.837  1.00 50.17 LIG 0.01  C 
ATOM     57  CG2 VAL D1362     -18.159  18.201 -41.414  1.00 49.53 LIG 0.01  C 
ENDBRANCH 36 55
ENDBRANCH 33 36
ENDBRANCH 1 32
TORSDOF 24
ENDMDL
