MODEL 1
USER: ADFR SOLUTION from run 36
USER: SCORE 25.411060 LL:  -4.695 LR: -23.890 RR:   0.000 FEB: -15.239
USER: RMSD 1.047436
USER: SEED 35
USER: STATUS 1 or 2 clusters left
USER: GENES 31
USER: genes 0 Translation |==|  0.51659 0.61352 0.53893
USER: genes 1 Rotation |==|  0.51795 0.48055 0.46109 0.99778
USER: genes 2 Torsion [CB]-CA--N-[C] |==|  0.42779
USER: genes 3 Torsion [N]-C--CA-[N] |==|  0.99182
USER: genes 4 Torsion [C]-CA--N-[C] |==|  0.77320
USER: genes 5 Torsion [N]-C--CA-[N] |==|  0.41014
USER: genes 6 Torsion [C]-CA--N-[C] |==|  0.59570
USER: genes 7 Torsion [N]-C--CA-[N] |==|  0.26425
USER: genes 8 Torsion [C]-CA--CB-[OG] |==|  0.52582
USER: genes 9 Torsion [CA]-CB--OG-[HG] |==|  0.42895
USER: genes 10 Torsion [C]-CA--CB-[OG] |==|  0.15710
USER: genes 11 Torsion [CA]-CB--OG-[HG] |==|  0.34371
USER: genes 12 Torsion [C]-CA--CB-[CG] |==|  0.47983
USER: genes 13 Torsion [CA]-CB--CG-[CD2] |==|  0.71507
USER: genes 14 Torsion [N]-CA--C-[N] |==|  0.36995
USER: genes 15 Torsion [C]-N--CA-[C] |==|  0.78931
USER: genes 16 Torsion [N]-CA--C-[N] |==|  0.92398
USER: genes 17 Torsion [C]-N--CA-[CB] |==|  0.38839
USER: genes 18 Torsion [N]-CA--C-[N] |==|  0.97778
USER: genes 19 Torsion [C]-N--CA-[C] |==|  0.64600
USER: genes 20 Torsion [N]-CA--C-[O] |==|  0.11615
USER: genes 21 Torsion [N]-CA--CB-[CG] |==|  0.78665
USER: genes 22 Torsion [CA]-CB--CG-[CD] |==|  0.72832
USER: genes 23 Torsion [CB]-CG--CD-[NE] |==|  0.80068
USER: genes 24 Torsion [CG]-CD--NE-[HE] |==|  0.11729
USER: genes 25 Torsion [N]-CA--CB-[CG] |==|  0.24450
USER: genes 26 Torsion [CA]-CB--CG-[OD2] |==|  0.86906
USER: genes 27 Torsion [N]-CA--CB-[OG] |==|  0.83904
USER: genes 28 Torsion [CA]-CB--OG-[HG] |==|  0.67805
USER: genes 29 Torsion [N]-CA--CB-[CG] |==|  0.72767
USER: genes 30 Torsion [CA]-CB--CG-[CD2] |==|  0.80926
ROOT
ATOM      1  CA  PHE D  85      22.668  12.452  -6.289  1.00 13.62 LIG 0.18  C 
ENDROOT
BRANCH 1 2
ATOM      2  N   PHE D  85      21.281  12.076  -5.896  1.00 12.64 LIG-0.35  N 
ATOM      3  C   PHE D  84      20.310  12.970  -5.958  1.00 12.54 LIG 0.24  C 
ATOM      4 O    PHE D  84      20.517  14.141  -6.269  1.00 13.45 LIG-0.27  OA
ATOM      5 H    PHE D  85      21.182  11.262  -5.637  1.00 12.64 LIG 0.16  HD
BRANCH 3 6
ATOM      6  CA  PHE D  84      18.918  12.486  -5.577  1.00 10.99 LIG 0.18  C 
BRANCH 6 7
ATOM      7  N   PHE D  84      18.870  11.066  -5.261  1.00 11.22 LIG-0.35  N 
ATOM      8  C   SER D  83      18.795  10.159  -6.224  1.00 13.00 LIG 0.24  C 
ATOM      9 O    SER D  83      18.591  10.442  -7.402  1.00 14.46 LIG-0.27  OA
ATOM     10 H    PHE D  84      18.895  10.882  -4.422  1.00 11.22 LIG 0.16  HD
BRANCH 8 11
ATOM     11  CA  SER D  83      18.982   8.708  -5.813  1.00 14.43 LIG 0.20  C 
BRANCH 11 12
ATOM     12  N   SER D  83      18.160   7.890  -6.690  1.00 17.69 LIG-0.34  N 
ATOM     13 H    SER D  83      18.101   8.191  -7.494  1.00 17.69 LIG 0.16  HD
ATOM     14  C   SER D  82      17.558   6.783  -6.278  1.00 24.18 LIG 0.26  C 
ATOM     15 O    SER D  82      17.645   6.366  -5.131  1.00 25.18 LIG-0.27  OA
BRANCH 14 16
ATOM     16  CA  SER D  82      16.687   6.055  -7.291  1.00 26.20 LIG 0.42  C 
ATOM     17  N   SER D  82      17.475   4.977  -7.948  1.00 29.40 LIG 0.62  N 
BRANCH 16 18
ATOM     18  CB  SER D  82      15.532   5.451  -6.534  1.00 30.27 LIG 0.21  C 
BRANCH 18 19
ATOM     19 OG   SER D  82      14.787   4.581  -7.359  1.00 31.34 LIG-0.40  OA
ATOM     20 HG   SER D  82      14.397   4.009  -6.884  1.00 31.34 LIG 0.21  HD
ENDBRANCH 18 19
ENDBRANCH 16 18
ENDBRANCH 14 16
ENDBRANCH 11 12
BRANCH 11 21
ATOM     21  CB  SER D  83      20.466   8.391  -6.025  1.00 14.68 LIG 0.20  C 
BRANCH 21 22
ATOM     22 OG   SER D  83      21.270   9.292  -5.294  1.00 13.30 LIG-0.40  OA
ATOM     23 HG   SER D  83      21.778   8.861  -4.781  1.00 13.30 LIG 0.21  HD
ENDBRANCH 21 22
ENDBRANCH 11 21
ENDBRANCH 8 11
ENDBRANCH 6 7
BRANCH 6 24
ATOM     24  CB  PHE D  84      18.250  13.280  -4.460  1.00  8.98 LIG 0.07  C 
BRANCH 24 25
ATOM     25  CG  PHE D  84      16.818  12.856  -4.263  1.00  8.49 LIG-0.06  A 
ATOM     26  CD2 PHE D  84      15.779  13.657  -4.769  1.00 10.31 LIG 0.01  A 
ATOM     27  CE2 PHE D  84      14.456  13.235  -4.663  1.00 10.65 LIG 0.00  A 
ATOM     28  CZ  PHE D  84      14.131  12.035  -4.019  1.00 10.75 LIG 0.00  A 
ATOM     29  CE1 PHE D  84      15.167  11.234  -3.469  1.00 10.66 LIG 0.00  A 
ATOM     30  CD1 PHE D  84      16.501  11.626  -3.657  1.00  9.98 LIG 0.01  A 
ENDBRANCH 24 25
ENDBRANCH 6 24
ENDBRANCH 3 6
ENDBRANCH 1 2
BRANCH 1 31
ATOM     31  C   PHE D  85      22.853  12.362  -7.802  1.00 16.85 LIG 0.24  C 
ATOM     32 O    PHE D  85      22.511  11.351  -8.408  1.00 18.00 LIG-0.27  OA
ATOM     33  N   SER D  86      23.456  13.401  -8.388  1.00 18.10 LIG-0.34  N 
ATOM     34 H    SER D  86      23.914  13.982  -7.949  1.00 18.10 LIG 0.16  HD
BRANCH 33 35
ATOM     35  CA  SER D  86      23.407  13.665  -9.812  1.00 22.43 LIG 0.20  C 
BRANCH 35 36
ATOM     36  C   SER D  86      24.321  12.730 -10.581  1.00 23.81 LIG 0.24  C 
ATOM     37  N   ASP D  87      25.364  12.280  -9.894  1.00 23.40 LIG-0.34  N 
ATOM     38 H    ASP D  87      25.481  12.430  -9.056  1.00 23.40 LIG 0.16  HD
ATOM     39 O    SER D  86      24.100  12.440 -11.771  1.00 25.32 LIG-0.27  OA
BRANCH 37 40
ATOM     40  CA  ASP D  87      26.425  11.474 -10.508  1.00 26.51 LIG 0.19  C 
BRANCH 40 41
ATOM     41  C   ASP D  87      26.216   9.974 -10.296  1.00 27.38 LIG 0.24  C 
ATOM     42 O    ASP D  87      26.952   9.138 -10.858  1.00 28.73 LIG-0.27  OA
ATOM     43  N   ARG D  88      25.227   9.644  -9.469  1.00 28.82 LIG-0.35  N 
ATOM     44 H    ARG D  88      24.735  10.231  -9.078  1.00 28.82 LIG 0.16  HD
BRANCH 43 45
ATOM     45  CA  ARG D  88      24.864   8.266  -9.130  1.00 28.71 LIG 0.16  C 
BRANCH 45 46
ATOM     46  C   ARG D  88      23.368   8.025  -9.363  1.00 31.71 LIG 0.22  C 
ATOM     47 O    ARG D  88      22.813   8.485 -10.379  1.00 33.51 LIG-0.29  OA
ENDBRANCH 45 46
BRANCH 45 48
ATOM     48  CB  ARG D  88      25.176   7.926  -7.662  1.00 27.82 LIG 0.04  C 
BRANCH 48 49
ATOM     49  CG  ARG D  88      26.646   7.650  -7.296  1.00 22.71 LIG 0.02  C 
BRANCH 49 50
ATOM     50  CD  ARG D  88      26.899   6.163  -7.268  1.00 22.91 LIG 0.14  C 
BRANCH 50 51
ATOM     51  NE  ARG D  88      26.252   5.573  -6.102  1.00 22.66 LIG-0.23  N 
ATOM     52  CZ  ARG D  88      26.784   4.647  -5.308  1.00 22.61 LIG 0.67  C 
ATOM     53  NH2 ARG D  88      26.075   4.206  -4.283  1.00 21.99 LIG-0.23  N 
ATOM     54  NH1 ARG D  88      27.955   4.079  -5.613  1.00 25.76 LIG-0.23  N 
ATOM     55 2HH2 ARG D  88      26.402   3.608  -3.759  1.00 21.99 LIG 0.17  HD
ATOM     56 1HH2 ARG D  88      25.286   4.518  -4.140  1.00 21.99 LIG 0.17  HD
ATOM     57 2HH1 ARG D  88      28.291   3.482  -5.094  1.00 25.76 LIG 0.17  HD
ATOM     58 1HH1 ARG D  88      28.372   4.311  -6.328  1.00 25.76 LIG 0.17  HD
ATOM     59 HE   ARG D  88      25.459   5.847  -5.911  1.00 22.66 LIG 0.18  HD
ENDBRANCH 50 51
ENDBRANCH 49 50
ENDBRANCH 48 49
ENDBRANCH 45 48
ENDBRANCH 43 45
ENDBRANCH 40 41
BRANCH 40 60
ATOM     60  CB  ASP D  87      27.785  11.920  -9.949  1.00 26.50 LIG 0.15  C 
BRANCH 60 61
ATOM     61  CG  ASP D  87      28.186  11.182  -8.656  1.00 24.52 LIG 0.17  C 
ATOM     62 OD2  ASP D  87      27.293  11.101  -7.769  1.00 24.79 LIG-0.65  OA
ATOM     63 OD1  ASP D  87      29.350  10.700  -8.494  1.00 24.25 LIG-0.65  OA
ENDBRANCH 60 61
ENDBRANCH 40 60
ENDBRANCH 37 40
ENDBRANCH 35 36
BRANCH 35 64
ATOM     64  CB  SER D  86      23.870  15.107 -10.043  1.00 23.53 LIG 0.20  C 
BRANCH 64 65
ATOM     65 OG   SER D  86      23.039  15.983  -9.314  1.00 29.54 LIG-0.40  OA
ATOM     66 HG   SER D  86      22.617  16.478  -9.845  1.00 29.54 LIG 0.21  HD
ENDBRANCH 64 65
ENDBRANCH 35 64
ENDBRANCH 33 35
ENDBRANCH 1 31
BRANCH 1 67
ATOM     67  CB  PHE D  85      23.701  11.560  -5.568  1.00 13.93 LIG 0.07  C 
BRANCH 67 68
ATOM     68  CG  PHE D  85      24.288  12.200  -4.354  1.00 11.63 LIG-0.06  A 
ATOM     69  CD1 PHE D  85      23.906  11.783  -3.056  1.00 12.04 LIG 0.01  A 
ATOM     70  CE1 PHE D  85      24.444  12.391  -1.896  1.00 12.49 LIG 0.00  A 
ATOM     71  CZ  PHE D  85      25.370  13.477  -2.063  1.00 15.08 LIG 0.00  A 
ATOM     72  CE2 PHE D  85      25.695  13.915  -3.363  1.00 13.94 LIG 0.00  A 
ATOM     73  CD2 PHE D  85      25.138  13.299  -4.485  1.00 14.09 LIG 0.01  A 
ENDBRANCH 67 68
ENDBRANCH 1 67
TORSDOF 29
ENDMDL
MODEL 2
USER: ADFR SOLUTION from run 100
USER: SCORE 25.448559 LL:  -4.439 LR: -23.409 RR:   0.000 FEB: -14.758
USER: RMSD 2.014577
USER: SEED 99
USER: STATUS no improvement in best in 2 clusters for 5 generations
USER: GENES 31
USER: genes 0 Translation |==|  0.53686 0.60987 0.55432
USER: genes 1 Rotation |==|  0.50780 0.52311 0.58532 0.99206
USER: genes 2 Torsion [CB]-CA--N-[C] |==|  0.51312
USER: genes 3 Torsion [N]-C--CA-[N] |==|  0.87410
USER: genes 4 Torsion [C]-CA--N-[C] |==|  0.63453
USER: genes 5 Torsion [N]-C--CA-[N] |==|  0.39189
USER: genes 6 Torsion [C]-CA--N-[C] |==|  0.72618
USER: genes 7 Torsion [N]-C--CA-[N] |==|  0.14968
USER: genes 8 Torsion [C]-CA--CB-[OG] |==|  0.22551
USER: genes 9 Torsion [CA]-CB--OG-[HG] |==|  0.51150
USER: genes 10 Torsion [C]-CA--CB-[OG] |==|  0.32967
USER: genes 11 Torsion [CA]-CB--OG-[HG] |==|  0.08835
USER: genes 12 Torsion [C]-CA--CB-[CG] |==|  0.27704
USER: genes 13 Torsion [CA]-CB--CG-[CD2] |==|  0.82219
USER: genes 14 Torsion [N]-CA--C-[N] |==|  0.44715
USER: genes 15 Torsion [C]-N--CA-[C] |==|  0.79720
USER: genes 16 Torsion [N]-CA--C-[N] |==|  0.90066
USER: genes 17 Torsion [C]-N--CA-[CB] |==|  0.42240
USER: genes 18 Torsion [N]-CA--C-[N] |==|  0.94280
USER: genes 19 Torsion [C]-N--CA-[C] |==|  0.71906
USER: genes 20 Torsion [N]-CA--C-[O] |==|  0.05894
USER: genes 21 Torsion [N]-CA--CB-[CG] |==|  0.83499
USER: genes 22 Torsion [CA]-CB--CG-[CD] |==|  0.71168
USER: genes 23 Torsion [CB]-CG--CD-[NE] |==|  0.81949
USER: genes 24 Torsion [CG]-CD--NE-[HE] |==|  0.03684
USER: genes 25 Torsion [N]-CA--CB-[CG] |==|  0.17038
USER: genes 26 Torsion [CA]-CB--CG-[OD2] |==|  0.43783
USER: genes 27 Torsion [N]-CA--CB-[OG] |==|  0.81466
USER: genes 28 Torsion [CA]-CB--OG-[HG] |==|  0.75238
USER: genes 29 Torsion [N]-CA--CB-[CG] |==|  0.80984
USER: genes 30 Torsion [CA]-CB--CG-[CD2] |==|  0.75319
ROOT
ATOM      1  CA  PHE D  85      23.139  12.373  -6.000  1.00 13.62 LIG 0.18  C 
ENDROOT
BRANCH 1 2
ATOM      2  N   PHE D  85      22.176  11.415  -5.388  1.00 12.64 LIG-0.35  N 
ATOM      3  C   PHE D  84      20.920  11.386  -5.798  1.00 12.54 LIG 0.24  C 
ATOM      4 O    PHE D  84      20.485  12.176  -6.633  1.00 13.45 LIG-0.27  OA
ATOM      5 H    PHE D  85      22.503  10.910  -4.773  1.00 12.64 LIG 0.16  HD
BRANCH 3 6
ATOM      6  CA  PHE D  84      20.018  10.347  -5.146  1.00 10.99 LIG 0.18  C 
BRANCH 6 7
ATOM      7  N   PHE D  84      20.634   9.032  -5.048  1.00 11.22 LIG-0.35  N 
ATOM      8  C   SER D  83      19.980   7.946  -5.435  1.00 13.00 LIG 0.24  C 
ATOM      9 O    SER D  83      18.789   7.947  -5.731  1.00 14.46 LIG-0.27  OA
ATOM     10 H    PHE D  84      21.432   9.030  -4.727  1.00 11.22 LIG 0.16  HD
BRANCH 8 11
ATOM     11  CA  SER D  83      20.782   6.657  -5.512  1.00 14.43 LIG 0.20  C 
BRANCH 11 12
ATOM     12  N   SER D  83      19.932   5.580  -5.031  1.00 17.69 LIG-0.34  N 
ATOM     13 H    SER D  83      19.382   5.280  -5.620  1.00 17.69 LIG 0.16  HD
ATOM     14  C   SER D  82      20.006   5.110  -3.793  1.00 24.18 LIG 0.26  C 
ATOM     15 O    SER D  82      20.790   5.547  -2.961  1.00 25.18 LIG-0.27  OA
BRANCH 14 16
ATOM     16  CA  SER D  82      19.020   4.016  -3.413  1.00 26.20 LIG 0.42  C 
ATOM     17  N   SER D  82      19.111   2.896  -4.390  1.00 29.40 LIG 0.62  N 
BRANCH 16 18
ATOM     18  CB  SER D  82      19.406   3.525  -2.040  1.00 30.27 LIG 0.21  C 
BRANCH 18 19
ATOM     19 OG   SER D  82      18.907   4.385  -1.038  1.00 31.34 LIG-0.40  OA
ATOM     20 HG   SER D  82      19.179   4.127  -0.286  1.00 31.34 LIG 0.21  HD
ENDBRANCH 18 19
ENDBRANCH 16 18
ENDBRANCH 14 16
ENDBRANCH 11 12
BRANCH 11 21
ATOM     21  CB  SER D  83      21.120   6.450  -6.992  1.00 14.68 LIG 0.20  C 
BRANCH 21 22
ATOM     22 OG   SER D  83      22.519   6.450  -7.181  1.00 13.30 LIG-0.40  OA
ATOM     23 HG   SER D  83      22.894   6.134  -6.499  1.00 13.30 LIG 0.21  HD
ENDBRANCH 21 22
ENDBRANCH 11 21
ENDBRANCH 8 11
ENDBRANCH 6 7
BRANCH 6 24
ATOM     24  CB  PHE D  84      19.459  10.752  -3.787  1.00  8.98 LIG 0.07  C 
BRANCH 24 25
ATOM     25  CG  PHE D  84      18.043  11.256  -3.902  1.00  8.49 LIG-0.06  A 
ATOM     26  CD2 PHE D  84      17.779  12.428  -4.634  1.00 10.31 LIG 0.01  A 
ATOM     27  CE2 PHE D  84      16.467  12.858  -4.815  1.00 10.65 LIG 0.00  A 
ATOM     28  CZ  PHE D  84      15.395  12.164  -4.242  1.00 10.75 LIG 0.00  A 
ATOM     29  CE1 PHE D  84      15.649  11.000  -3.468  1.00 10.66 LIG 0.00  A 
ATOM     30  CD1 PHE D  84      16.966  10.528  -3.364  1.00  9.98 LIG 0.01  A 
ENDBRANCH 24 25
ENDBRANCH 6 24
ENDBRANCH 3 6
ENDBRANCH 1 2
BRANCH 1 31
ATOM     31  C   PHE D  85      23.135  12.257  -7.523  1.00 16.85 LIG 0.24  C 
ATOM     32 O    PHE D  85      22.741  11.229  -8.064  1.00 18.00 LIG-0.27  OA
ATOM     33  N   SER D  86      23.638  13.296  -8.197  1.00 18.10 LIG-0.34  N 
ATOM     34 H    SER D  86      24.136  13.893  -7.829  1.00 18.10 LIG 0.16  HD
BRANCH 33 35
ATOM     35  CA  SER D  86      23.406  13.533  -9.608  1.00 22.43 LIG 0.20  C 
BRANCH 35 36
ATOM     36  C   SER D  86      24.182  12.555 -10.468  1.00 23.81 LIG 0.24  C 
ATOM     37  N   ASP D  87      25.377  12.221  -9.996  1.00 23.40 LIG-0.34  N 
ATOM     38 H    ASP D  87      25.667  12.467  -9.225  1.00 23.40 LIG 0.16  HD
ATOM     39 O    SER D  86      23.721  12.129 -11.544  1.00 25.32 LIG-0.27  OA
BRANCH 37 40
ATOM     40  CA  ASP D  87      26.324  11.395 -10.753  1.00 26.51 LIG 0.19  C 
BRANCH 40 41
ATOM     41  C   ASP D  87      26.060   9.898 -10.579  1.00 27.38 LIG 0.24  C 
ATOM     42 O    ASP D  87      26.506   9.069 -11.398  1.00 28.73 LIG-0.27  OA
ATOM     43  N   ARG D  88      25.356   9.562  -9.501  1.00 28.82 LIG-0.35  N 
ATOM     44 H    ARG D  88      25.065  10.142  -8.937  1.00 28.82 LIG 0.16  HD
BRANCH 43 45
ATOM     45  CA  ARG D  88      24.998   8.185  -9.150  1.00 28.71 LIG 0.16  C 
BRANCH 45 46
ATOM     46  C   ARG D  88      23.543   7.887  -9.533  1.00 31.71 LIG 0.22  C 
ATOM     47 O    ARG D  88      22.970   8.582 -10.394  1.00 33.51 LIG-0.29  OA
ENDBRANCH 45 46
BRANCH 45 48
ATOM     48  CB  ARG D  88      25.158   7.906  -7.646  1.00 27.82 LIG 0.04  C 
BRANCH 48 49
ATOM     49  CG  ARG D  88      26.559   8.097  -7.035  1.00 22.71 LIG 0.02  C 
BRANCH 49 50
ATOM     50  CD  ARG D  88      27.206   6.754  -6.804  1.00 22.91 LIG 0.14  C 
BRANCH 50 51
ATOM     51  NE  ARG D  88      26.455   6.010  -5.800  1.00 22.66 LIG-0.23  N 
ATOM     52  CZ  ARG D  88      26.876   4.910  -5.179  1.00 22.61 LIG 0.67  C 
ATOM     53  NH2 ARG D  88      26.082   4.343  -4.286  1.00 21.99 LIG-0.23  N 
ATOM     54  NH1 ARG D  88      28.017   4.317  -5.541  1.00 25.76 LIG-0.23  N 
ATOM     55 2HH2 ARG D  88      26.336   3.632  -3.875  1.00 21.99 LIG 0.17  HD
ATOM     56 1HH2 ARG D  88      25.311   4.685  -4.117  1.00 21.99 LIG 0.17  HD
ATOM     57 2HH1 ARG D  88      28.281   3.606  -5.134  1.00 25.76 LIG 0.17  HD
ATOM     58 1HH1 ARG D  88      28.488   4.644  -6.181  1.00 25.76 LIG 0.17  HD
ATOM     59 HE   ARG D  88      25.676   6.306  -5.592  1.00 22.66 LIG 0.18  HD
ENDBRANCH 50 51
ENDBRANCH 49 50
ENDBRANCH 48 49
ENDBRANCH 45 48
ENDBRANCH 43 45
ENDBRANCH 40 41
BRANCH 40 60
ATOM     60  CB  ASP D  87      27.757  11.750 -10.328  1.00 26.50 LIG 0.15  C 
BRANCH 60 61
ATOM     61  CG  ASP D  87      28.035  11.483  -8.835  1.00 24.52 LIG 0.17  C 
ATOM     62 OD2  ASP D  87      29.246  11.328  -8.519  1.00 24.79 LIG-0.65  OA
ATOM     63 OD1  ASP D  87      27.097  11.408  -7.982  1.00 24.25 LIG-0.65  OA
ENDBRANCH 60 61
ENDBRANCH 40 60
ENDBRANCH 37 40
ENDBRANCH 35 36
BRANCH 35 64
ATOM     64  CB  SER D  86      23.873  14.955  -9.934  1.00 23.53 LIG 0.20  C 
BRANCH 64 65
ATOM     65 OG   SER D  86      23.036  15.880  -9.274  1.00 29.54 LIG-0.40  OA
ATOM     66 HG   SER D  86      22.383  16.068  -9.767  1.00 29.54 LIG 0.21  HD
ENDBRANCH 64 65
ENDBRANCH 35 64
ENDBRANCH 33 35
ENDBRANCH 1 31
BRANCH 1 67
ATOM     67  CB  PHE D  85      24.563  12.144  -5.448  1.00 13.93 LIG 0.07  C 
BRANCH 67 68
ATOM     68  CG  PHE D  85      24.704  12.514  -4.010  1.00 11.63 LIG-0.06  A 
ATOM     69  CD1 PHE D  85      24.379  11.590  -2.987  1.00 12.04 LIG 0.01  A 
ATOM     70  CE1 PHE D  85      24.493  11.931  -1.618  1.00 12.49 LIG 0.00  A 
ATOM     71  CZ  PHE D  85      24.918  13.262  -1.281  1.00 15.08 LIG 0.00  A 
ATOM     72  CE2 PHE D  85      25.184  14.185  -2.313  1.00 13.94 LIG 0.00  A 
ATOM     73  CD2 PHE D  85      25.051  13.817  -3.653  1.00 14.09 LIG 0.01  A 
ENDBRANCH 67 68
ENDBRANCH 1 67
TORSDOF 29
ENDMDL
MODEL 3
USER: ADFR SOLUTION from run 174
USER: SCORE 23.988227 LL:  -5.269 LR: -22.554 RR:   0.000 FEB: -13.903
USER: RMSD 2.521330
USER: SEED 173
USER: STATUS no improvement in best in 2 clusters for 5 generations
USER: GENES 31
USER: genes 0 Translation |==|  0.53961 0.62245 0.52572
USER: genes 1 Rotation |==|  0.49962 0.48805 0.51170 0.99972
USER: genes 2 Torsion [CB]-CA--N-[C] |==|  0.42178
USER: genes 3 Torsion [N]-C--CA-[N] |==|  0.94099
USER: genes 4 Torsion [C]-CA--N-[C] |==|  0.74504
USER: genes 5 Torsion [N]-C--CA-[N] |==|  0.82788
USER: genes 6 Torsion [C]-CA--N-[C] |==|  0.79945
USER: genes 7 Torsion [N]-C--CA-[N] |==|  0.90762
USER: genes 8 Torsion [C]-CA--CB-[OG] |==|  0.60045
USER: genes 9 Torsion [CA]-CB--OG-[HG] |==|  0.29722
USER: genes 10 Torsion [C]-CA--CB-[OG] |==|  0.18122
USER: genes 11 Torsion [CA]-CB--OG-[HG] |==|  0.19190
USER: genes 12 Torsion [C]-CA--CB-[CG] |==|  0.42296
USER: genes 13 Torsion [CA]-CB--CG-[CD2] |==|  0.29274
USER: genes 14 Torsion [N]-CA--C-[N] |==|  0.37752
USER: genes 15 Torsion [C]-N--CA-[C] |==|  0.80699
USER: genes 16 Torsion [N]-CA--C-[N] |==|  0.97139
USER: genes 17 Torsion [C]-N--CA-[CB] |==|  0.35096
USER: genes 18 Torsion [N]-CA--C-[N] |==|  0.53406
USER: genes 19 Torsion [C]-N--CA-[C] |==|  0.18672
USER: genes 20 Torsion [N]-CA--C-[O] |==|  0.30933
USER: genes 21 Torsion [N]-CA--CB-[CG] |==|  0.81828
USER: genes 22 Torsion [CA]-CB--CG-[CD] |==|  0.67506
USER: genes 23 Torsion [CB]-CG--CD-[NE] |==|  0.79188
USER: genes 24 Torsion [CG]-CD--NE-[HE] |==|  0.99643
USER: genes 25 Torsion [N]-CA--CB-[CG] |==|  0.22820
USER: genes 26 Torsion [CA]-CB--CG-[OD2] |==|  0.38460
USER: genes 27 Torsion [N]-CA--CB-[OG] |==|  0.87081
USER: genes 28 Torsion [CA]-CB--OG-[HG] |==|  0.76209
USER: genes 29 Torsion [N]-CA--CB-[CG] |==|  0.78602
USER: genes 30 Torsion [CA]-CB--CG-[CD2] |==|  0.28651
ROOT
ATOM      1  CA  PHE D  85      23.203  12.646  -6.537  1.00 13.62 LIG 0.18  C 
ENDROOT
BRANCH 1 2
ATOM      2  N   PHE D  85      21.928  12.036  -6.066  1.00 12.64 LIG-0.35  N 
ATOM      3  C   PHE D  84      20.803  12.728  -6.121  1.00 12.54 LIG 0.24  C 
ATOM      4 O    PHE D  84      20.773  13.901  -6.488  1.00 13.45 LIG-0.27  OA
ATOM      5 H    PHE D  85      21.994  11.231  -5.770  1.00 12.64 LIG 0.16  HD
BRANCH 3 6
ATOM      6  CA  PHE D  84      19.543  12.011  -5.657  1.00 10.99 LIG 0.18  C 
BRANCH 6 7
ATOM      7  N   PHE D  84      19.664  10.560  -5.687  1.00 11.22 LIG-0.35  N 
ATOM      8  C   SER D  83      19.299   9.871  -6.759  1.00 13.00 LIG 0.24  C 
ATOM      9 O    SER D  83      18.693  10.367  -7.705  1.00 14.46 LIG-0.27  OA
ATOM     10 H    PHE D  84      19.983  10.210  -4.970  1.00 11.22 LIG 0.16  HD
BRANCH 8 11
ATOM     11  CA  SER D  83      19.676   8.398  -6.785  1.00 14.43 LIG 0.20  C 
BRANCH 11 12
ATOM     12  N   SER D  83      21.126   8.313  -6.750  1.00 17.69 LIG-0.34  N 
ATOM     13 H    SER D  83      21.442   8.035  -6.000  1.00 17.69 LIG 0.16  HD
ATOM     14  C   SER D  82      21.887   8.638  -7.787  1.00 24.18 LIG 0.26  C 
ATOM     15 O    SER D  82      21.428   9.037  -8.849  1.00 25.18 LIG-0.27  OA
BRANCH 14 16
ATOM     16  CA  SER D  82      23.392   8.549  -7.590  1.00 26.20 LIG 0.42  C 
ATOM     17  N   SER D  82      23.737   8.893  -6.184  1.00 29.40 LIG 0.62  N 
BRANCH 16 18
ATOM     18  CB  SER D  82      23.796   7.125  -7.878  1.00 30.27 LIG 0.21  C 
BRANCH 18 19
ATOM     19 OG   SER D  82      24.838   6.712  -7.019  1.00 31.34 LIG-0.40  OA
ATOM     20 HG   SER D  82      24.535   6.175  -6.448  1.00 31.34 LIG 0.21  HD
ENDBRANCH 18 19
ENDBRANCH 16 18
ENDBRANCH 14 16
ENDBRANCH 11 12
BRANCH 11 21
ATOM     21  CB  SER D  83      19.074   7.780  -5.519  1.00 14.68 LIG 0.20  C 
BRANCH 21 22
ATOM     22 OG   SER D  83      17.664   7.829  -5.571  1.00 13.30 LIG-0.40  OA
ATOM     23 HG   SER D  83      17.387   7.301  -6.163  1.00 13.30 LIG 0.21  HD
ENDBRANCH 21 22
ENDBRANCH 11 21
ENDBRANCH 8 11
ENDBRANCH 6 7
BRANCH 6 24
ATOM     24  CB  PHE D  84      19.023  12.452  -4.295  1.00  8.98 LIG 0.07  C 
BRANCH 24 25
ATOM     25  CG  PHE D  84      17.532  12.259  -4.185  1.00  8.49 LIG-0.06  A 
ATOM     26  CD2 PHE D  84      17.022  11.199  -3.415  1.00 10.31 LIG 0.01  A 
ATOM     27  CE2 PHE D  84      15.648  11.059  -3.240  1.00 10.65 LIG 0.00  A 
ATOM     28  CZ  PHE D  84      14.749  11.938  -3.858  1.00 10.75 LIG 0.00  A 
ATOM     29  CE1 PHE D  84      15.249  12.991  -4.671  1.00 10.66 LIG 0.00  A 
ATOM     30  CD1 PHE D  84      16.636  13.174  -4.769  1.00  9.98 LIG 0.01  A 
ENDBRANCH 24 25
ENDBRANCH 6 24
ENDBRANCH 3 6
ENDBRANCH 1 2
BRANCH 1 31
ATOM     31  C   PHE D  85      23.371  12.472  -8.044  1.00 16.85 LIG 0.24  C 
ATOM     32 O    PHE D  85      23.178  11.379  -8.566  1.00 18.00 LIG-0.27  OA
ATOM     33  N   SER D  86      23.796  13.544  -8.721  1.00 18.10 LIG-0.34  N 
ATOM     34 H    SER D  86      24.168  14.219  -8.339  1.00 18.10 LIG 0.16  HD
BRANCH 33 35
ATOM     35  CA  SER D  86      23.680  13.690 -10.158  1.00 22.43 LIG 0.20  C 
BRANCH 35 36
ATOM     36  C   SER D  86      24.605  12.735 -10.888  1.00 23.81 LIG 0.24  C 
ATOM     37  N   ASP D  87      25.487  12.111 -10.116  1.00 23.40 LIG-0.34  N 
ATOM     38 H    ASP D  87      25.491  12.170  -9.258  1.00 23.40 LIG 0.16  HD
ATOM     39 O    SER D  86      24.538  12.582 -12.122  1.00 25.32 LIG-0.27  OA
BRANCH 37 40
ATOM     40  CA  ASP D  87      26.546  11.254 -10.659  1.00 26.51 LIG 0.19  C 
BRANCH 40 41
ATOM     41  C   ASP D  87      26.318   9.774 -10.346  1.00 27.38 LIG 0.24  C 
ATOM     42 O    ASP D  87      25.217   9.371  -9.920  1.00 28.73 LIG-0.27  OA
ATOM     43  N   ARG D  88      27.354   8.973 -10.581  1.00 28.82 LIG-0.35  N 
ATOM     44 H    ARG D  88      28.104   9.262 -10.886  1.00 28.82 LIG 0.16  HD
BRANCH 43 45
ATOM     45  CA  ARG D  88      27.342   7.526 -10.352  1.00 28.71 LIG 0.16  C 
BRANCH 45 46
ATOM     46  C   ARG D  88      26.383   6.829 -11.325  1.00 31.71 LIG 0.22  C 
ATOM     47 O    ARG D  88      26.833   6.088 -12.219  1.00 33.51 LIG-0.29  OA
ENDBRANCH 45 46
BRANCH 45 48
ATOM     48  CB  ARG D  88      26.909   7.166  -8.920  1.00 27.82 LIG 0.04  C 
BRANCH 48 49
ATOM     49  CG  ARG D  88      27.834   7.602  -7.769  1.00 22.71 LIG 0.02  C 
BRANCH 49 50
ATOM     50  CD  ARG D  88      28.362   6.388  -7.046  1.00 22.91 LIG 0.14  C 
BRANCH 50 51
ATOM     51  NE  ARG D  88      27.314   5.816  -6.210  1.00 22.66 LIG-0.23  N 
ATOM     52  CZ  ARG D  88      27.435   4.725  -5.457  1.00 22.61 LIG 0.67  C 
ATOM     53  NH2 ARG D  88      26.394   4.324  -4.748  1.00 21.99 LIG-0.23  N 
ATOM     54  NH1 ARG D  88      28.540   3.975  -5.516  1.00 25.76 LIG-0.23  N 
ATOM     55 2HH2 ARG D  88      26.453   3.622  -4.255  1.00 21.99 LIG 0.17  HD
ATOM     56 1HH2 ARG D  88      25.657   4.766  -4.778  1.00 21.99 LIG 0.17  HD
ATOM     57 2HH1 ARG D  88      28.610   3.272  -5.026  1.00 25.76 LIG 0.17  HD
ATOM     58 1HH1 ARG D  88      29.182   4.196  -6.044  1.00 25.76 LIG 0.17  HD
ATOM     59 HE   ARG D  88      26.554   6.216  -6.202  1.00 22.66 LIG 0.18  HD
ENDBRANCH 50 51
ENDBRANCH 49 50
ENDBRANCH 48 49
ENDBRANCH 45 48
ENDBRANCH 43 45
ENDBRANCH 40 41
BRANCH 40 60
ATOM     60  CB  ASP D  87      27.904  11.724 -10.116  1.00 26.50 LIG 0.15  C 
BRANCH 60 61
ATOM     61  CG  ASP D  87      28.217  11.186  -8.705  1.00 24.52 LIG 0.17  C 
ATOM     62 OD2  ASP D  87      29.403  10.800  -8.513  1.00 24.79 LIG-0.65  OA
ATOM     63 OD1  ASP D  87      27.328  11.121  -7.800  1.00 24.25 LIG-0.65  OA
ENDBRANCH 60 61
ENDBRANCH 40 60
ENDBRANCH 37 40
ENDBRANCH 35 36
BRANCH 35 64
ATOM     64  CB  SER D  86      24.068  15.127 -10.522  1.00 23.53 LIG 0.20  C 
BRANCH 64 65
ATOM     65 OG   SER D  86      23.417  16.018  -9.644  1.00 29.54 LIG-0.40  OA
ATOM     66 HG   SER D  86      22.648  16.189  -9.936  1.00 29.54 LIG 0.21  HD
ENDBRANCH 64 65
ENDBRANCH 35 64
ENDBRANCH 33 35
ENDBRANCH 1 31
BRANCH 1 67
ATOM     67  CB  PHE D  85      24.408  12.038  -5.788  1.00 13.93 LIG 0.07  C 
BRANCH 67 68
ATOM     68  CG  PHE D  85      24.572  12.570  -4.404  1.00 11.63 LIG-0.06  A 
ATOM     69  CD1 PHE D  85      25.227  13.804  -4.173  1.00 12.04 LIG 0.01  A 
ATOM     70  CE1 PHE D  85      25.403  14.314  -2.864  1.00 12.49 LIG 0.00  A 
ATOM     71  CZ  PHE D  85      24.929  13.531  -1.757  1.00 15.08 LIG 0.00  A 
ATOM     72  CE2 PHE D  85      24.328  12.279  -2.004  1.00 13.94 LIG 0.00  A 
ATOM     73  CD2 PHE D  85      24.180  11.801  -3.307  1.00 14.09 LIG 0.01  A 
ENDBRANCH 67 68
ENDBRANCH 1 67
TORSDOF 29
ENDMDL
