MODEL 1
USER: ADFR SOLUTION from run 79
USER: SCORE 25.379847 LL:  -5.700 LR: -22.463 RR:   0.000 FEB: -12.619
USER: RMSD 2.991860
USER: SEED 78
USER: STATUS no improvement in best in 3 clusters for 5 generations
USER: GENES 35
USER: genes 0 Translation |==|  0.49570 0.40601 0.51961
USER: genes 1 Rotation |==|  0.49959 0.48896 0.48400 0.99962
USER: genes 2 Torsion [C]-CA--N-[C] |==|  0.72606
USER: genes 3 Torsion [N]-C--CA-[N] |==|  0.36575
USER: genes 4 Torsion [C]-CA--N-[C] |==|  0.84281
USER: genes 5 Torsion [N]-C--CA-[N] |==|  0.07663
USER: genes 6 Torsion [C]-CA--N-[C] |==|  0.74132
USER: genes 7 Torsion [N]-C--CA-[N] |==|  0.32816
USER: genes 8 Torsion [C]-CA--CB-[CG2] |==|  0.41910
USER: genes 9 Torsion [CA]-CB--OG1-[HG1] |==|  0.24336
USER: genes 10 Torsion [C]-CA--CB-[CG] |==|  0.46441
USER: genes 11 Torsion [CA]-CB--CG-[CD1] |==|  0.02060
USER: genes 12 Torsion [CE2]-CZ--OH-[HH] |==|  0.69764
USER: genes 13 Torsion [C]-CA--CB-[CG] |==|  0.62216
USER: genes 14 Torsion [CA]-CB--CG-[CD] |==|  0.48806
USER: genes 15 Torsion [CB]-CG--CD-[CE] |==|  0.52474
USER: genes 16 Torsion [CG]-CD--CE-[NZ] |==|  0.31295
USER: genes 17 Torsion [CD]-CE--NZ-[HZ2] |==|  0.78827
USER: genes 18 Torsion [N]-CA--C-[N] |==|  0.43880
USER: genes 19 Torsion [C]-N--CA-[CB] |==|  0.25441
USER: genes 20 Torsion [N]-CA--C-[N] |==|  0.44306
USER: genes 21 Torsion [C]-N--CA-[CB] |==|  0.41565
USER: genes 22 Torsion [N]-CA--CB-[CG] |==|  0.85838
USER: genes 23 Torsion [CA]-CB--CG-[CD] |==|  0.87372
USER: genes 24 Torsion [CB]-CG--CD-[OE2] |==|  0.29684
USER: genes 25 Torsion [N]-CA--C-[N] |==|  0.93992
USER: genes 26 Torsion [C]-N--CA-[C] |==|  0.47576
USER: genes 27 Torsion [N]-CA--C-[OXT] |==|  0.04668
USER: genes 28 Torsion [N]-CA--CB-[CG] |==|  0.53196
USER: genes 29 Torsion [CA]-CB--CG-[CD] |==|  0.09497
USER: genes 30 Torsion [CB]-CG--CD-[OE1] |==|  0.13422
USER: genes 31 Torsion [N]-CA--CB-[CG] |==|  0.15100
USER: genes 32 Torsion [CA]-CB--CG-[CD2] |==|  0.70966
USER: genes 33 Torsion [N]-CA--CB-[CG] |==|  0.76155
USER: genes 34 Torsion [CA]-CB--CG-[CD1] |==|  0.47346
ROOT
ATOM      1  CA  PHE B 689     -24.775   4.977  26.914  1.00 23.75 LIG 0.18  C 
ENDROOT
BRANCH 1 2
ATOM      2  N   PHE B 689     -24.149   5.894  27.886  1.00 25.36 LIG-0.35  N 
ATOM      3 H    PHE B 689     -24.680   6.503  28.182  1.00 25.36 LIG 0.16  HD
ATOM      4  C   LYS B 688     -22.880   5.784  28.264  1.00 27.14 LIG 0.24  C 
ATOM      5 O    LYS B 688     -22.118   4.936  27.818  1.00 24.82 LIG-0.27  OA
BRANCH 4 6
ATOM      6  CA  LYS B 688     -22.378   6.796  29.288  1.00 29.11 LIG 0.18  C 
BRANCH 6 7
ATOM      7  N   LYS B 688     -21.665   6.102  30.371  1.00 31.24 LIG-0.35  N 
ATOM      8  C   TYR B 687     -22.245   5.141  31.088  1.00 34.73 LIG 0.24  C 
ATOM      9 O    TYR B 687     -23.419   4.781  30.914  1.00 34.89 LIG-0.27  OA
ATOM     10 H    LYS B 688     -20.858   6.371  30.493  1.00 31.24 LIG 0.16  HD
BRANCH 8 11
ATOM     11  CA  TYR B 687     -21.382   4.464  32.142  1.00 37.40 LIG 0.18  C 
BRANCH 11 12
ATOM     12  N   TYR B 687     -20.320   5.320  32.659  1.00 39.68 LIG-0.34  N 
ATOM     13 H    TYR B 687     -20.556   5.819  33.319  1.00 39.68 LIG 0.16  HD
ATOM     14  C   THR B 686     -19.096   5.310  32.133  1.00 41.22 LIG 0.26  C 
ATOM     15 O    THR B 686     -18.821   4.753  31.067  1.00 41.89 LIG-0.27  OA
BRANCH 14 16
ATOM     16  CA  THR B 686     -18.007   6.031  32.931  1.00 42.81 LIG 0.43  C 
ATOM     17  N   THR B 686     -16.910   5.108  33.373  1.00 43.04 LIG 0.62  N 
BRANCH 16 18
ATOM     18  CB  THR B 686     -17.493   7.195  32.027  1.00 43.12 LIG 0.16  C 
ATOM     19  CG2 THR B 686     -16.979   8.387  32.884  1.00 43.85 LIG 0.04  C 
BRANCH 18 20
ATOM     20 OG1  THR B 686     -16.467   6.734  31.142  1.00 44.58 LIG-0.39  OA
ATOM     21 HG1  THR B 686     -16.816   6.434  30.440  1.00 44.58 LIG 0.21  HD
ENDBRANCH 18 20
ENDBRANCH 16 18
ENDBRANCH 14 16
ENDBRANCH 11 12
BRANCH 11 22
ATOM     22  CB  TYR B 687     -22.268   4.014  33.293  1.00 38.54 LIG 0.07  C 
BRANCH 22 23
ATOM     23  CG  TYR B 687     -21.613   3.069  34.264  1.00 40.36 LIG-0.06  A 
ATOM     24  CD2 TYR B 687     -22.363   2.446  35.268  1.00 43.44 LIG 0.01  A 
ATOM     25  CE2 TYR B 687     -21.764   1.556  36.164  1.00 43.74 LIG 0.04  A 
ATOM     26  CZ  TYR B 687     -20.403   1.296  36.046  1.00 42.51 LIG 0.07  A 
ATOM     27  CE1 TYR B 687     -19.644   1.906  35.052  1.00 41.41 LIG 0.04  A 
ATOM     28  CD1 TYR B 687     -20.252   2.784  34.174  1.00 40.86 LIG 0.01  A 
BRANCH 26 29
ATOM     29 OH   TYR B 687     -19.816   0.418  36.926  1.00 42.23 LIG-0.36  OA
ATOM     30 HH   TYR B 687     -19.321   0.841  37.456  1.00 42.23 LIG 0.22  HD
ENDBRANCH 26 29
ENDBRANCH 22 23
ENDBRANCH 11 22
ENDBRANCH 8 11
ENDBRANCH 6 7
BRANCH 6 31
ATOM     31  CB  LYS B 688     -21.432   7.784  28.618  1.00 31.14 LIG 0.04  C 
BRANCH 31 32
ATOM     32  CG  LYS B 688     -20.190   8.087  29.395  1.00 35.59 LIG 0.00  C 
BRANCH 32 33
ATOM     33  CD  LYS B 688     -19.243   8.997  28.626  1.00 43.16 LIG 0.03  C 
BRANCH 33 34
ATOM     34  CE  LYS B 688     -17.890   9.111  29.349  1.00 45.87 LIG 0.23  C 
BRANCH 34 35
ATOM     35  NZ  LYS B 688     -16.763   8.464  28.570  1.00 48.40 LIG-0.08  N 
ATOM     36 HZ2  LYS B 688     -16.815   7.580  28.652  1.00 48.40 LIG 0.27  HD
ATOM     37 HZ3  LYS B 688     -16.832   8.685  27.711  1.00 48.40 LIG 0.27  HD
ATOM     38 HZ1  LYS B 688     -15.982   8.747  28.888  1.00 48.40 LIG 0.27  HD
ENDBRANCH 34 35
ENDBRANCH 33 34
ENDBRANCH 32 33
ENDBRANCH 31 32
ENDBRANCH 6 31
ENDBRANCH 4 6
ENDBRANCH 1 2
BRANCH 1 39
ATOM     39  C   PHE B 689     -24.811   5.578  25.517  1.00 24.45 LIG 0.24  C 
ATOM     40  N   PHE B 690     -24.918   4.735  24.508  1.00 21.51 LIG-0.35  N 
ATOM     41 H    PHE B 690     -24.877   3.879  24.588  1.00 21.51 LIG 0.16  HD
ATOM     42 O    PHE B 689     -24.728   6.800  25.344  1.00 26.25 LIG-0.27  OA
BRANCH 40 43
ATOM     43  CA  PHE B 690     -25.119   5.208  23.143  1.00 22.61 LIG 0.18  C 
BRANCH 43 44
ATOM     44  C   PHE B 690     -25.963   4.196  22.412  1.00 22.66 LIG 0.24  C 
ATOM     45 O    PHE B 690     -26.041   3.060  22.818  1.00 22.36 LIG-0.27  OA
ATOM     46  N   GLU B 691     -26.590   4.639  21.326  1.00 25.08 LIG-0.35  N 
ATOM     47 H    GLU B 691     -26.539   5.451  21.050  1.00 25.08 LIG 0.16  HD
BRANCH 46 48
ATOM     48  CA  GLU B 691     -27.431   3.785  20.495  1.00 27.99 LIG 0.18  C 
BRANCH 48 49
ATOM     49  CB  GLU B 691     -28.543   4.617  19.856  1.00 28.84 LIG 0.04  C 
BRANCH 49 50
ATOM     50  CG  GLU B 691     -29.302   5.461  20.885  1.00 33.53 LIG 0.12  C 
BRANCH 50 51
ATOM     51  CD  GLU B 691     -29.674   4.682  22.153  1.00 40.22 LIG 0.17  C 
ATOM     52 OE1  GLU B 691     -30.597   3.830  22.105  1.00 42.38 LIG-0.65  OA
ATOM     53 OE2  GLU B 691     -29.032   4.935  23.207  1.00 45.19 LIG-0.65  OA
ENDBRANCH 50 51
ENDBRANCH 49 50
ENDBRANCH 48 49
BRANCH 48 54
ATOM     54  C   GLU B 691     -26.658   3.030  19.423  1.00 29.69 LIG 0.24  C 
ATOM     55 O    GLU B 691     -27.122   1.989  18.919  1.00 29.49 LIG-0.27  OA
ATOM     56  N   GLN B 692     -25.483   3.539  19.079  1.00 30.92 LIG-0.34  N 
ATOM     57 H    GLN B 692     -25.159   4.277  19.379  1.00 30.92 LIG 0.16  HD
BRANCH 56 58
ATOM     58  CA  GLN B 692     -24.634   2.828  18.120  1.00 33.57 LIG 0.19  C 
BRANCH 58 59
ATOM     59  C   GLN B 692     -23.445   3.676  17.706  1.00 34.50 LIG 0.20  C 
ATOM     60 O    GLN B 692     -22.816   3.397  16.670  1.00 34.98 LIG-0.65  OA
ATOM     61 OXT  GLN B 692     -23.122   4.666  18.392  1.00 35.71 LIG-0.65  OA
ENDBRANCH 58 59
BRANCH 58 62
ATOM     62  CB  GLN B 692     -25.463   2.425  16.882  1.00 33.00 LIG 0.04  C 
BRANCH 62 63
ATOM     63  CG  GLN B 692     -24.752   1.443  15.947  0.80 34.02 LIG 0.10  C 
BRANCH 63 64
ATOM     64  CD  GLN B 692     -23.857   0.450  16.669  0.80 34.38 LIG 0.21  C 
ATOM     65  NE2 GLN B 692     -22.617   0.316  16.194  0.80 37.28 LIG-0.37  N 
ATOM     66 21HE GLN B 692     -22.368   0.769  15.507  0.80 37.28 LIG 0.16  HD
ATOM     67 22HE GLN B 692     -22.066  -0.223  16.577  0.80 37.28 LIG 0.16  HD
ATOM     68 OE1  GLN B 692     -24.264  -0.174  17.649  0.80 37.51 LIG-0.27  OA
ENDBRANCH 63 64
ENDBRANCH 62 63
ENDBRANCH 58 62
ENDBRANCH 56 58
ENDBRANCH 48 54
ENDBRANCH 46 48
ENDBRANCH 43 44
BRANCH 43 69
ATOM     69  CB  PHE B 690     -23.776   5.402  22.414  1.00 21.72 LIG 0.07  C 
BRANCH 69 70
ATOM     70  CG  PHE B 690     -22.879   4.184  22.414  1.00 20.05 LIG-0.06  A 
ATOM     71  CD2 PHE B 690     -21.775   4.130  23.246  1.00 19.86 LIG 0.01  A 
ATOM     72  CE2 PHE B 690     -20.917   3.015  23.267  1.00 20.22 LIG 0.00  A 
ATOM     73  CZ  PHE B 690     -21.165   1.971  22.380  1.00 19.78 LIG 0.00  A 
ATOM     74  CE1 PHE B 690     -22.248   2.017  21.551  1.00 19.59 LIG 0.00  A 
ATOM     75  CD1 PHE B 690     -23.104   3.140  21.537  1.00 20.29 LIG 0.01  A 
ENDBRANCH 69 70
ENDBRANCH 43 69
ENDBRANCH 40 43
ENDBRANCH 1 39
BRANCH 1 76
ATOM     76  CB  PHE B 689     -26.194   4.578  27.341  1.00 23.35 LIG 0.07  C 
BRANCH 76 77
ATOM     77  CG  PHE B 689     -26.216   3.423  28.261  1.00 24.01 LIG-0.06  A 
ATOM     78  CD2 PHE B 689     -25.054   2.692  28.517  1.00 25.22 LIG 0.01  A 
ATOM     79  CE2 PHE B 689     -25.062   1.619  29.422  1.00 25.32 LIG 0.00  A 
ATOM     80  CZ  PHE B 689     -26.265   1.238  30.038  1.00 27.81 LIG 0.00  A 
ATOM     81  CE1 PHE B 689     -27.435   1.954  29.782  1.00 24.81 LIG 0.00  A 
ATOM     82  CD1 PHE B 689     -27.406   3.053  28.904  1.00 27.61 LIG 0.01  A 
ENDBRANCH 76 77
ENDBRANCH 1 76
TORSDOF 33
ENDMDL
MODEL 2
USER: ADFR SOLUTION from run 40
USER: SCORE 24.513553 LL:  -5.825 LR: -21.317 RR:   0.000 FEB: -11.473
USER: RMSD 3.213690
USER: SEED 39
USER: STATUS no improvement in best in 6 clusters for 5 generations
USER: GENES 35
USER: genes 0 Translation |==|  0.50701 0.40389 0.52854
USER: genes 1 Rotation |==|  0.51429 0.50284 0.43450 0.99548
USER: genes 2 Torsion [C]-CA--N-[C] |==|  0.64206
USER: genes 3 Torsion [N]-C--CA-[N] |==|  0.38262
USER: genes 4 Torsion [C]-CA--N-[C] |==|  0.85341
USER: genes 5 Torsion [N]-C--CA-[N] |==|  0.08155
USER: genes 6 Torsion [C]-CA--N-[C] |==|  0.66285
USER: genes 7 Torsion [N]-C--CA-[N] |==|  0.15220
USER: genes 8 Torsion [C]-CA--CB-[CG2] |==|  0.23868
USER: genes 9 Torsion [CA]-CB--OG1-[HG1] |==|  0.33719
USER: genes 10 Torsion [C]-CA--CB-[CG] |==|  0.29395
USER: genes 11 Torsion [CA]-CB--CG-[CD1] |==|  0.79317
USER: genes 12 Torsion [CE2]-CZ--OH-[HH] |==|  0.54188
USER: genes 13 Torsion [C]-CA--CB-[CG] |==|  0.31596
USER: genes 14 Torsion [CA]-CB--CG-[CD] |==|  0.36583
USER: genes 15 Torsion [CB]-CG--CD-[CE] |==|  0.35913
USER: genes 16 Torsion [CG]-CD--CE-[NZ] |==|  0.62426
USER: genes 17 Torsion [CD]-CE--NZ-[HZ2] |==|  0.03700
USER: genes 18 Torsion [N]-CA--C-[N] |==|  0.43181
USER: genes 19 Torsion [C]-N--CA-[CB] |==|  0.23473
USER: genes 20 Torsion [N]-CA--C-[N] |==|  0.42778
USER: genes 21 Torsion [C]-N--CA-[CB] |==|  0.46406
USER: genes 22 Torsion [N]-CA--CB-[CG] |==|  0.77737
USER: genes 23 Torsion [CA]-CB--CG-[CD] |==|  0.97410
USER: genes 24 Torsion [CB]-CG--CD-[OE2] |==|  0.25621
USER: genes 25 Torsion [N]-CA--C-[N] |==|  0.90482
USER: genes 26 Torsion [C]-N--CA-[C] |==|  0.46909
USER: genes 27 Torsion [N]-CA--C-[OXT] |==|  0.03460
USER: genes 28 Torsion [N]-CA--CB-[CG] |==|  0.68793
USER: genes 29 Torsion [CA]-CB--CG-[CD] |==|  0.86266
USER: genes 30 Torsion [CB]-CG--CD-[OE1] |==|  0.70670
USER: genes 31 Torsion [N]-CA--CB-[CG] |==|  0.16107
USER: genes 32 Torsion [CA]-CB--CG-[CD2] |==|  0.70504
USER: genes 33 Torsion [N]-CA--CB-[CG] |==|  0.75150
USER: genes 34 Torsion [CA]-CB--CG-[CD1] |==|  0.97103
ROOT
ATOM      1  CA  PHE B 689     -24.554   4.936  27.209  1.00 23.75 LIG 0.18  C 
ENDROOT
BRANCH 1 2
ATOM      2  N   PHE B 689     -23.715   5.644  28.194  1.00 25.36 LIG-0.35  N 
ATOM      3 H    PHE B 689     -23.882   6.486  28.252  1.00 25.36 LIG 0.16  HD
ATOM      4  C   LYS B 688     -22.789   5.030  28.924  1.00 27.14 LIG 0.24  C 
ATOM      5 O    LYS B 688     -22.534   3.837  28.817  1.00 24.82 LIG-0.27  OA
BRANCH 4 6
ATOM      6  CA  LYS B 688     -22.011   5.890  29.912  1.00 29.11 LIG 0.18  C 
BRANCH 6 7
ATOM      7  N   LYS B 688     -21.855   5.173  31.186  1.00 31.24 LIG-0.35  N 
ATOM      8  C   TYR B 687     -22.899   4.657  31.832  1.00 34.73 LIG 0.24  C 
ATOM      9 O    TYR B 687     -24.066   4.761  31.426  1.00 34.89 LIG-0.27  OA
ATOM     10 H    LYS B 688     -21.044   5.121  31.467  1.00 31.24 LIG 0.16  HD
BRANCH 8 11
ATOM     11  CA  TYR B 687     -22.596   3.891  33.112  1.00 37.40 LIG 0.18  C 
BRANCH 11 12
ATOM     12  N   TYR B 687     -21.403   4.366  33.803  1.00 39.68 LIG-0.34  N 
ATOM     13 H    TYR B 687     -21.429   5.195  34.028  1.00 39.68 LIG 0.16  HD
ATOM     14  C   THR B 686     -20.372   3.559  34.051  1.00 41.22 LIG 0.26  C 
ATOM     15 O    THR B 686     -20.252   2.439  33.549  1.00 41.89 LIG-0.27  OA
BRANCH 14 16
ATOM     16  CA  THR B 686     -19.311   4.089  35.020  1.00 42.81 LIG 0.43  C 
ATOM     17  N   THR B 686     -19.894   4.510  36.337  1.00 43.04 LIG 0.62  N 
BRANCH 16 18
ATOM     18  CB  THR B 686     -18.240   2.964  35.163  1.00 43.12 LIG 0.16  C 
ATOM     19  CG2 THR B 686     -17.172   3.060  34.036  1.00 43.85 LIG 0.04  C 
BRANCH 18 20
ATOM     20 OG1  THR B 686     -17.617   3.017  36.450  1.00 44.58 LIG-0.39  OA
ATOM     21 HG1  THR B 686     -17.732   2.286  36.848  1.00 44.58 LIG 0.21  HD
ENDBRANCH 18 20
ENDBRANCH 16 18
ENDBRANCH 14 16
ENDBRANCH 11 12
BRANCH 11 22
ATOM     22  CB  TYR B 687     -23.792   3.995  34.046  1.00 38.54 LIG 0.07  C 
BRANCH 22 23
ATOM     23  CG  TYR B 687     -24.619   2.743  34.156  1.00 40.36 LIG-0.06  A 
ATOM     24  CD2 TYR B 687     -24.560   1.950  35.307  1.00 43.44 LIG 0.01  A 
ATOM     25  CE2 TYR B 687     -25.337   0.793  35.423  1.00 43.74 LIG 0.04  A 
ATOM     26  CZ  TYR B 687     -26.175   0.437  34.372  1.00 42.51 LIG 0.07  A 
ATOM     27  CE1 TYR B 687     -26.246   1.217  33.221  1.00 41.41 LIG 0.04  A 
ATOM     28  CD1 TYR B 687     -25.471   2.358  33.123  1.00 40.86 LIG 0.01  A 
BRANCH 26 29
ATOM     29 OH   TYR B 687     -26.941  -0.698  34.488  1.00 42.23 LIG-0.36  OA
ATOM     30 HH   TYR B 687     -27.237  -0.915  33.733  1.00 42.23 LIG 0.22  HD
ENDBRANCH 26 29
ENDBRANCH 22 23
ENDBRANCH 11 22
ENDBRANCH 8 11
ENDBRANCH 6 7
BRANCH 6 31
ATOM     31  CB  LYS B 688     -20.635   6.212  29.346  1.00 31.14 LIG 0.04  C 
BRANCH 31 32
ATOM     32  CG  LYS B 688     -20.410   7.658  29.033  1.00 35.59 LIG 0.00  C 
BRANCH 32 33
ATOM     33  CD  LYS B 688     -19.089   8.166  29.595  1.00 43.16 LIG 0.03  C 
BRANCH 33 34
ATOM     34  CE  LYS B 688     -18.277   8.889  28.509  1.00 45.87 LIG 0.23  C 
BRANCH 34 35
ATOM     35  NZ  LYS B 688     -16.816   8.486  28.517  1.00 48.40 LIG-0.08  N 
ATOM     36 HZ2  LYS B 688     -16.712   7.759  29.020  1.00 48.40 LIG 0.27  HD
ATOM     37 HZ3  LYS B 688     -16.552   8.310  27.686  1.00 48.40 LIG 0.27  HD
ATOM     38 HZ1  LYS B 688     -16.327   9.150  28.850  1.00 48.40 LIG 0.27  HD
ENDBRANCH 34 35
ENDBRANCH 33 34
ENDBRANCH 32 33
ENDBRANCH 31 32
ENDBRANCH 6 31
ENDBRANCH 4 6
ENDBRANCH 1 2
BRANCH 1 39
ATOM     39  C   PHE B 689     -24.535   5.629  25.855  1.00 24.45 LIG 0.24  C 
ATOM     40  N   PHE B 690     -24.803   4.883  24.800  1.00 21.51 LIG-0.35  N 
ATOM     41 H    PHE B 690     -24.896   4.028  24.824  1.00 21.51 LIG 0.16  HD
ATOM     42 O    PHE B 689     -24.265   6.832  25.755  1.00 26.25 LIG-0.27  OA
BRANCH 40 43
ATOM     43  CA  PHE B 690     -24.967   5.473  23.476  1.00 22.61 LIG 0.18  C 
BRANCH 43 44
ATOM     44  C   PHE B 690     -25.845   4.561  22.657  1.00 22.66 LIG 0.24  C 
ATOM     45 O    PHE B 690     -25.899   3.380  22.910  1.00 22.36 LIG-0.27  OA
ATOM     46  N   GLU B 691     -26.528   5.140  21.675  1.00 25.08 LIG-0.35  N 
ATOM     47 H    GLU B 691     -26.493   5.983  21.508  1.00 25.08 LIG 0.16  HD
BRANCH 46 48
ATOM     48  CA  GLU B 691     -27.408   4.399  20.778  1.00 27.99 LIG 0.18  C 
BRANCH 48 49
ATOM     49  CB  GLU B 691     -28.278   5.373  19.984  1.00 28.84 LIG 0.04  C 
BRANCH 49 50
ATOM     50  CG  GLU B 691     -29.475   5.877  20.795  1.00 33.53 LIG 0.12  C 
BRANCH 50 51
ATOM     51  CD  GLU B 691     -29.667   5.132  22.123  1.00 40.22 LIG 0.17  C 
ATOM     52 OE1  GLU B 691     -30.359   4.082  22.146  1.00 42.38 LIG-0.65  OA
ATOM     53 OE2  GLU B 691     -29.118   5.611  23.150  1.00 45.19 LIG-0.65  OA
ENDBRANCH 50 51
ENDBRANCH 49 50
ENDBRANCH 48 49
BRANCH 48 54
ATOM     54  C   GLU B 691     -26.665   3.467  19.832  1.00 29.69 LIG 0.24  C 
ATOM     55 O    GLU B 691     -27.161   2.374  19.496  1.00 29.49 LIG-0.27  OA
ATOM     56  N   GLN B 692     -25.479   3.883  19.408  1.00 30.92 LIG-0.34  N 
ATOM     57 H    GLN B 692     -25.133   4.650  19.590  1.00 30.92 LIG 0.16  HD
BRANCH 56 58
ATOM     58  CA  GLN B 692     -24.659   3.010  18.566  1.00 33.57 LIG 0.19  C 
BRANCH 58 59
ATOM     59  C   GLN B 692     -23.482   3.766  17.974  1.00 34.50 LIG 0.20  C 
ATOM     60 O    GLN B 692     -22.834   3.267  17.038  1.00 34.98 LIG-0.65  OA
ATOM     61 OXT  GLN B 692     -23.191   4.897  18.410  1.00 35.71 LIG-0.65  OA
ENDBRANCH 58 59
BRANCH 58 62
ATOM     62  CB  GLN B 692     -25.523   2.398  17.444  1.00 33.00 LIG 0.04  C 
BRANCH 62 63
ATOM     63  CG  GLN B 692     -25.731   0.886  17.570  0.80 34.02 LIG 0.10  C 
BRANCH 63 64
ATOM     64  CD  GLN B 692     -24.446   0.109  17.796  0.80 34.38 LIG 0.21  C 
ATOM     65  NE2 GLN B 692     -23.921   0.174  19.021  0.80 37.28 LIG-0.37  N 
ATOM     66 21HE GLN B 692     -24.302   0.650  19.627  0.80 37.28 LIG 0.16  HD
ATOM     67 22HE GLN B 692     -23.202  -0.261  19.205  0.80 37.28 LIG 0.16  HD
ATOM     68 OE1  GLN B 692     -23.941  -0.557  16.892  0.80 37.51 LIG-0.27  OA
ENDBRANCH 63 64
ENDBRANCH 62 63
ENDBRANCH 58 62
ENDBRANCH 56 58
ENDBRANCH 48 54
ENDBRANCH 46 48
ENDBRANCH 43 44
BRANCH 43 69
ATOM     69  CB  PHE B 690     -23.608   5.665  22.777  1.00 21.72 LIG 0.07  C 
BRANCH 69 70
ATOM     70  CG  PHE B 690     -22.802   4.396  22.609  1.00 20.05 LIG-0.06  A 
ATOM     71  CD2 PHE B 690     -21.691   4.166  23.400  1.00 19.86 LIG 0.01  A 
ATOM     72  CE2 PHE B 690     -20.916   3.000  23.267  1.00 20.22 LIG 0.00  A 
ATOM     73  CZ  PHE B 690     -21.253   2.089  22.269  1.00 19.78 LIG 0.00  A 
ATOM     74  CE1 PHE B 690     -22.344   2.311  21.479  1.00 19.59 LIG 0.00  A 
ATOM     75  CD1 PHE B 690     -23.116   3.484  21.620  1.00 20.29 LIG 0.01  A 
ENDBRANCH 69 70
ENDBRANCH 43 69
ENDBRANCH 40 43
ENDBRANCH 1 39
BRANCH 1 76
ATOM     76  CB  PHE B 689     -26.003   4.792  27.695  1.00 23.35 LIG 0.07  C 
BRANCH 76 77
ATOM     77  CG  PHE B 689     -26.230   3.557  28.473  1.00 24.01 LIG-0.06  A 
ATOM     78  CD2 PHE B 689     -27.428   3.356  29.161  1.00 25.22 LIG 0.01  A 
ATOM     79  CE2 PHE B 689     -27.663   2.166  29.867  1.00 25.32 LIG 0.00  A 
ATOM     80  CZ  PHE B 689     -26.660   1.185  29.931  1.00 27.81 LIG 0.00  A 
ATOM     81  CE1 PHE B 689     -25.453   1.379  29.256  1.00 24.81 LIG 0.00  A 
ATOM     82  CD1 PHE B 689     -25.246   2.559  28.517  1.00 27.61 LIG 0.01  A 
ENDBRANCH 76 77
ENDBRANCH 1 76
TORSDOF 33
ENDMDL
MODEL 3
USER: ADFR SOLUTION from run 118
USER: SCORE 23.810780 LL:  -6.266 LR: -21.225 RR:   0.000 FEB: -11.381
USER: RMSD 3.442664
USER: SEED 117
USER: STATUS no improvement in best in 7 clusters for 5 generations
USER: GENES 35
USER: genes 0 Translation |==|  0.51833 0.42206 0.51916
USER: genes 1 Rotation |==|  0.48423 0.49869 0.46460 0.99849
USER: genes 2 Torsion [C]-CA--N-[C] |==|  0.65000
USER: genes 3 Torsion [N]-C--CA-[N] |==|  0.34110
USER: genes 4 Torsion [C]-CA--N-[C] |==|  0.18109
USER: genes 5 Torsion [N]-C--CA-[N] |==|  0.46143
USER: genes 6 Torsion [C]-CA--N-[C] |==|  0.55185
USER: genes 7 Torsion [N]-C--CA-[N] |==|  0.13436
USER: genes 8 Torsion [C]-CA--CB-[CG2] |==|  0.21523
USER: genes 9 Torsion [CA]-CB--OG1-[HG1] |==|  0.26310
USER: genes 10 Torsion [C]-CA--CB-[CG] |==|  0.88737
USER: genes 11 Torsion [CA]-CB--CG-[CD1] |==|  0.77150
USER: genes 12 Torsion [CE2]-CZ--OH-[HH] |==|  0.59481
USER: genes 13 Torsion [C]-CA--CB-[CG] |==|  0.25406
USER: genes 14 Torsion [CA]-CB--CG-[CD] |==|  0.39074
USER: genes 15 Torsion [CB]-CG--CD-[CE] |==|  0.24234
USER: genes 16 Torsion [CG]-CD--CE-[NZ] |==|  0.61835
USER: genes 17 Torsion [CD]-CE--NZ-[HZ2] |==|  0.87308
USER: genes 18 Torsion [N]-CA--C-[N] |==|  0.44564
USER: genes 19 Torsion [C]-N--CA-[CB] |==|  0.24137
USER: genes 20 Torsion [N]-CA--C-[N] |==|  0.42638
USER: genes 21 Torsion [C]-N--CA-[CB] |==|  0.42177
USER: genes 22 Torsion [N]-CA--CB-[CG] |==|  0.86683
USER: genes 23 Torsion [CA]-CB--CG-[CD] |==|  0.83102
USER: genes 24 Torsion [CB]-CG--CD-[OE2] |==|  0.37522
USER: genes 25 Torsion [N]-CA--C-[N] |==|  0.95046
USER: genes 26 Torsion [C]-N--CA-[C] |==|  0.48935
USER: genes 27 Torsion [N]-CA--C-[OXT] |==|  0.01747
USER: genes 28 Torsion [N]-CA--CB-[CG] |==|  0.62102
USER: genes 29 Torsion [CA]-CB--CG-[CD] |==|  0.09391
USER: genes 30 Torsion [CB]-CG--CD-[OE1] |==|  0.72178
USER: genes 31 Torsion [N]-CA--CB-[CG] |==|  0.14785
USER: genes 32 Torsion [CA]-CB--CG-[CD2] |==|  0.70556
USER: genes 33 Torsion [N]-CA--CB-[CG] |==|  0.73826
USER: genes 34 Torsion [CA]-CB--CG-[CD1] |==|  0.00773
ROOT
ATOM      1  CA  PHE B 689     -24.333   5.290  26.899  1.00 23.75 LIG 0.18  C 
ENDROOT
BRANCH 1 2
ATOM      2  N   PHE B 689     -23.597   6.208  27.789  1.00 25.36 LIG-0.35  N 
ATOM      3 H    PHE B 689     -23.890   7.017  27.774  1.00 25.36 LIG 0.16  HD
ATOM      4  C   LYS B 688     -22.576   5.813  28.543  1.00 27.14 LIG 0.24  C 
ATOM      5 O    LYS B 688     -22.143   4.668  28.540  1.00 24.82 LIG-0.27  OA
BRANCH 4 6
ATOM      6  CA  LYS B 688     -21.923   6.872  29.424  1.00 29.11 LIG 0.18  C 
BRANCH 6 7
ATOM      7  N   LYS B 688     -21.962   6.447  30.831  1.00 31.24 LIG-0.35  N 
ATOM      8  C   TYR B 687     -21.293   5.378  31.259  1.00 34.73 LIG 0.24  C 
ATOM      9 O    TYR B 687     -20.615   4.659  30.510  1.00 34.89 LIG-0.27  OA
ATOM     10 H    LYS B 688     -22.448   6.943  31.338  1.00 31.24 LIG 0.16  HD
BRANCH 8 11
ATOM     11  CA  TYR B 687     -21.372   5.077  32.748  1.00 37.40 LIG 0.18  C 
BRANCH 11 12
ATOM     12  N   TYR B 687     -20.897   3.742  33.096  1.00 39.68 LIG-0.34  N 
ATOM     13 H    TYR B 687     -20.403   3.374  32.496  1.00 39.68 LIG 0.16  HD
ATOM     14  C   THR B 686     -21.218   3.166  34.254  1.00 41.22 LIG 0.26  C 
ATOM     15 O    THR B 686     -22.086   3.606  35.012  1.00 41.89 LIG-0.27  OA
BRANCH 14 16
ATOM     16  CA  THR B 686     -20.439   1.900  34.622  1.00 42.81 LIG 0.43  C 
ATOM     17  N   THR B 686     -18.957   2.071  34.463  1.00 43.04 LIG 0.62  N 
BRANCH 16 18
ATOM     18  CB  THR B 686     -20.854   1.534  36.081  1.00 43.12 LIG 0.16  C 
ATOM     19  CG2 THR B 686     -22.253   0.855  36.113  1.00 43.85 LIG 0.04  C 
BRANCH 18 20
ATOM     20 OG1  THR B 686     -19.872   0.690  36.690  1.00 44.58 LIG-0.39  OA
ATOM     21 HG1  THR B 686     -19.334   1.159  37.133  1.00 44.58 LIG 0.21  HD
ENDBRANCH 18 20
ENDBRANCH 16 18
ENDBRANCH 14 16
ENDBRANCH 11 12
BRANCH 11 22
ATOM     22  CB  TYR B 687     -20.558   6.113  33.508  1.00 38.54 LIG 0.07  C 
BRANCH 22 23
ATOM     23  CG  TYR B 687     -19.252   6.488  32.863  1.00 40.36 LIG-0.06  A 
ATOM     24  CD2 TYR B 687     -19.148   7.651  32.090  1.00 43.44 LIG 0.01  A 
ATOM     25  CE2 TYR B 687     -17.934   8.014  31.499  1.00 43.74 LIG 0.04  A 
ATOM     26  CZ  TYR B 687     -16.822   7.200  31.689  1.00 42.51 LIG 0.07  A 
ATOM     27  CE1 TYR B 687     -16.910   6.042  32.456  1.00 41.41 LIG 0.04  A 
ATOM     28  CD1 TYR B 687     -18.118   5.697  33.034  1.00 40.86 LIG 0.01  A 
BRANCH 26 29
ATOM     29 OH   TYR B 687     -15.629   7.560  31.111  1.00 42.23 LIG-0.36  OA
ATOM     30 HH   TYR B 687     -15.208   6.869  30.883  1.00 42.23 LIG 0.22  HD
ENDBRANCH 26 29
ENDBRANCH 22 23
ENDBRANCH 11 22
ENDBRANCH 8 11
ENDBRANCH 6 7
BRANCH 6 31
ATOM     31  CB  LYS B 688     -20.475   7.075  29.002  1.00 31.14 LIG 0.04  C 
BRANCH 31 32
ATOM     32  CG  LYS B 688     -20.265   8.149  27.981  1.00 35.59 LIG 0.00  C 
BRANCH 32 33
ATOM     33  CD  LYS B 688     -19.006   8.959  28.255  1.00 43.16 LIG 0.03  C 
BRANCH 33 34
ATOM     34  CE  LYS B 688     -17.780   8.297  27.604  1.00 45.87 LIG 0.23  C 
BRANCH 34 35
ATOM     35  NZ  LYS B 688     -16.569   8.304  28.516  1.00 48.40 LIG-0.08  N 
ATOM     36 HZ2  LYS B 688     -16.478   9.110  28.881  1.00 48.40 LIG 0.27  HD
ATOM     37 HZ3  LYS B 688     -16.678   7.698  29.158  1.00 48.40 LIG 0.27  HD
ATOM     38 HZ1  LYS B 688     -15.841   8.108  28.043  1.00 48.40 LIG 0.27  HD
ENDBRANCH 34 35
ENDBRANCH 33 34
ENDBRANCH 32 33
ENDBRANCH 31 32
ENDBRANCH 6 31
ENDBRANCH 4 6
ENDBRANCH 1 2
BRANCH 1 39
ATOM     39  C   PHE B 689     -24.383   5.812  25.471  1.00 24.45 LIG 0.24  C 
ATOM     40  N   PHE B 690     -24.647   4.933  24.524  1.00 21.51 LIG-0.35  N 
ATOM     41 H    PHE B 690     -24.703   4.084  24.655  1.00 21.51 LIG 0.16  HD
ATOM     42 O    PHE B 689     -24.168   7.004  25.218  1.00 26.25 LIG-0.27  OA
BRANCH 40 43
ATOM     43  CA  PHE B 690     -24.873   5.349  23.144  1.00 22.61 LIG 0.18  C 
BRANCH 43 44
ATOM     44  C   PHE B 690     -25.782   4.341  22.489  1.00 22.66 LIG 0.24  C 
ATOM     45 O    PHE B 690     -25.811   3.199  22.886  1.00 22.36 LIG-0.27  OA
ATOM     46  N   GLU B 691     -26.519   4.793  21.479  1.00 25.08 LIG-0.35  N 
ATOM     47 H    GLU B 691     -26.501   5.609  21.210  1.00 25.08 LIG 0.16  HD
BRANCH 46 48
ATOM     48  CA  GLU B 691     -27.435   3.944  20.726  1.00 27.99 LIG 0.18  C 
BRANCH 48 49
ATOM     49  CB  GLU B 691     -28.582   4.787  20.168  1.00 28.84 LIG 0.04  C 
BRANCH 49 50
ATOM     50  CG  GLU B 691     -29.196   5.707  21.228  1.00 33.53 LIG 0.12  C 
BRANCH 50 51
ATOM     51  CD  GLU B 691     -29.795   4.946  22.419  1.00 40.22 LIG 0.17  C 
ATOM     52 OE1  GLU B 691     -30.512   3.935  22.208  1.00 42.38 LIG-0.65  OA
ATOM     53 OE2  GLU B 691     -29.543   5.375  23.576  1.00 45.19 LIG-0.65  OA
ENDBRANCH 50 51
ENDBRANCH 49 50
ENDBRANCH 48 49
BRANCH 48 54
ATOM     54  C   GLU B 691     -26.761   3.168  19.604  1.00 29.69 LIG 0.24  C 
ATOM     55 O    GLU B 691     -27.311   2.169  19.102  1.00 29.49 LIG-0.27  OA
ATOM     56  N   GLN B 692     -25.572   3.611  19.216  1.00 30.92 LIG-0.34  N 
ATOM     57 H    GLN B 692     -25.190   4.321  19.515  1.00 30.92 LIG 0.16  HD
BRANCH 56 58
ATOM     58  CA  GLN B 692     -24.814   2.871  18.204  1.00 33.57 LIG 0.19  C 
BRANCH 58 59
ATOM     59  C   GLN B 692     -23.532   3.598  17.839  1.00 34.50 LIG 0.20  C 
ATOM     60 O    GLN B 692     -22.837   3.190  16.892  1.00 34.98 LIG-0.65  OA
ATOM     61 OXT  GLN B 692     -23.197   4.617  18.474  1.00 35.71 LIG-0.65  OA
ENDBRANCH 58 59
BRANCH 58 62
ATOM     62  CB  GLN B 692     -25.684   2.656  16.948  1.00 33.00 LIG 0.04  C 
BRANCH 62 63
ATOM     63  CG  GLN B 692     -25.595   1.246  16.360  0.80 34.02 LIG 0.10  C 
BRANCH 63 64
ATOM     64  CD  GLN B 692     -25.405   0.158  17.403  0.80 34.38 LIG 0.21  C 
ATOM     65  NE2 GLN B 692     -26.504  -0.249  18.042  0.80 37.28 LIG-0.37  N 
ATOM     66 21HE GLN B 692     -27.264   0.111  17.862  0.80 37.28 LIG 0.16  HD
ATOM     67 22HE GLN B 692     -26.453  -0.873  18.631  0.80 37.28 LIG 0.16  HD
ATOM     68 OE1  GLN B 692     -24.294  -0.324  17.622  0.80 37.51 LIG-0.27  OA
ENDBRANCH 63 64
ENDBRANCH 62 63
ENDBRANCH 58 62
ENDBRANCH 56 58
ENDBRANCH 48 54
ENDBRANCH 46 48
ENDBRANCH 43 44
BRANCH 43 69
ATOM     69  CB  PHE B 690     -23.548   5.451  22.367  1.00 21.72 LIG 0.07  C 
BRANCH 69 70
ATOM     70  CG  PHE B 690     -22.690   4.207  22.420  1.00 20.05 LIG-0.06  A 
ATOM     71  CD2 PHE B 690     -21.547   4.180  23.198  1.00 19.86 LIG 0.01  A 
ATOM     72  CE2 PHE B 690     -20.724   3.042  23.266  1.00 20.22 LIG 0.00  A 
ATOM     73  CZ  PHE B 690     -21.049   1.940  22.479  1.00 19.78 LIG 0.00  A 
ATOM     74  CE1 PHE B 690     -22.171   1.958  21.704  1.00 19.59 LIG 0.00  A 
ATOM     75  CD1 PHE B 690     -22.992   3.105  21.642  1.00 20.29 LIG 0.01  A 
ENDBRANCH 69 70
ENDBRANCH 43 69
ENDBRANCH 40 43
ENDBRANCH 1 39
BRANCH 1 76
ATOM     76  CB  PHE B 689     -25.760   5.031  27.403  1.00 23.35 LIG 0.07  C 
BRANCH 76 77
ATOM     77  CG  PHE B 689     -25.865   3.816  28.235  1.00 24.01 LIG-0.06  A 
ATOM     78  CD2 PHE B 689     -27.103   3.386  28.719  1.00 25.22 LIG 0.01  A 
ATOM     79  CE2 PHE B 689     -27.211   2.208  29.475  1.00 25.32 LIG 0.00  A 
ATOM     80  CZ  PHE B 689     -26.055   1.480  29.799  1.00 27.81 LIG 0.00  A 
ATOM     81  CE1 PHE B 689     -24.811   1.906  29.331  1.00 24.81 LIG 0.00  A 
ATOM     82  CD1 PHE B 689     -24.720   3.066  28.539  1.00 27.61 LIG 0.01  A 
ENDBRANCH 76 77
ENDBRANCH 1 76
TORSDOF 33
ENDMDL
MODEL 4
USER: ADFR SOLUTION from run 17
USER: SCORE 24.466811 LL:  -6.332 LR: -21.056 RR:   0.000 FEB: -11.212
USER: RMSD 3.196964
USER: SEED 16
USER: STATUS no improvement in best in 2 clusters for 5 generations
USER: GENES 35
USER: genes 0 Translation |==|  0.55872 0.43500 0.51916
USER: genes 1 Rotation |==|  0.46741 0.51164 0.43975 0.99515
USER: genes 2 Torsion [C]-CA--N-[C] |==|  0.62701
USER: genes 3 Torsion [N]-C--CA-[N] |==|  0.52737
USER: genes 4 Torsion [C]-CA--N-[C] |==|  0.73683
USER: genes 5 Torsion [N]-C--CA-[N] |==|  0.28799
USER: genes 6 Torsion [C]-CA--N-[C] |==|  0.72575
USER: genes 7 Torsion [N]-C--CA-[N] |==|  0.73304
USER: genes 8 Torsion [C]-CA--CB-[CG2] |==|  0.42900
USER: genes 9 Torsion [CA]-CB--OG1-[HG1] |==|  0.62201
USER: genes 10 Torsion [C]-CA--CB-[CG] |==|  0.60474
USER: genes 11 Torsion [CA]-CB--CG-[CD1] |==|  0.28122
USER: genes 12 Torsion [CE2]-CZ--OH-[HH] |==|  0.79245
USER: genes 13 Torsion [C]-CA--CB-[CG] |==|  0.39874
USER: genes 14 Torsion [CA]-CB--CG-[CD] |==|  0.33448
USER: genes 15 Torsion [CB]-CG--CD-[CE] |==|  0.86328
USER: genes 16 Torsion [CG]-CD--CE-[NZ] |==|  0.33814
USER: genes 17 Torsion [CD]-CE--NZ-[HZ2] |==|  0.95624
USER: genes 18 Torsion [N]-CA--C-[N] |==|  0.46661
USER: genes 19 Torsion [C]-N--CA-[CB] |==|  0.21387
USER: genes 20 Torsion [N]-CA--C-[N] |==|  0.42385
USER: genes 21 Torsion [C]-N--CA-[CB] |==|  0.42578
USER: genes 22 Torsion [N]-CA--CB-[CG] |==|  0.84521
USER: genes 23 Torsion [CA]-CB--CG-[CD] |==|  0.84093
USER: genes 24 Torsion [CB]-CG--CD-[OE2] |==|  0.35988
USER: genes 25 Torsion [N]-CA--C-[N] |==|  0.94411
USER: genes 26 Torsion [C]-N--CA-[C] |==|  0.48332
USER: genes 27 Torsion [N]-CA--C-[OXT] |==|  0.02333
USER: genes 28 Torsion [N]-CA--CB-[CG] |==|  0.56658
USER: genes 29 Torsion [CA]-CB--CG-[CD] |==|  0.16643
USER: genes 30 Torsion [CB]-CG--CD-[OE1] |==|  0.60119
USER: genes 31 Torsion [N]-CA--CB-[CG] |==|  0.15700
USER: genes 32 Torsion [CA]-CB--CG-[CD2] |==|  0.72442
USER: genes 33 Torsion [N]-CA--CB-[CG] |==|  0.70719
USER: genes 34 Torsion [CA]-CB--CG-[CD1] |==|  0.57502
ROOT
ATOM      1  CA  PHE B 689     -23.546   5.543  26.899  1.00 23.75 LIG 0.18  C 
ENDROOT
BRANCH 1 2
ATOM      2  N   PHE B 689     -22.673   6.432  27.689  1.00 25.36 LIG-0.35  N 
ATOM      3 H    PHE B 689     -22.810   7.269  27.549  1.00 25.36 LIG 0.16  HD
ATOM      4  C   LYS B 688     -21.759   5.973  28.539  1.00 27.14 LIG 0.24  C 
ATOM      5 O    LYS B 688     -21.546   4.780  28.714  1.00 24.82 LIG-0.27  OA
BRANCH 4 6
ATOM      6  CA  LYS B 688     -20.942   7.013  29.296  1.00 29.11 LIG 0.18  C 
BRANCH 6 7
ATOM      7  N   LYS B 688     -19.833   6.358  30.005  1.00 31.24 LIG-0.35  N 
ATOM      8  C   TYR B 687     -19.936   5.990  31.281  1.00 34.73 LIG 0.24  C 
ATOM      9 O    TYR B 687     -20.953   6.190  31.963  1.00 34.89 LIG-0.27  OA
ATOM     10 H    LYS B 688     -19.127   6.240  29.528  1.00 31.24 LIG 0.16  HD
BRANCH 8 11
ATOM     11  CA  TYR B 687     -18.737   5.273  31.882  1.00 37.40 LIG 0.18  C 
BRANCH 11 12
ATOM     12  N   TYR B 687     -17.935   6.120  32.758  1.00 39.68 LIG-0.34  N 
ATOM     13 H    TYR B 687     -18.245   6.200  33.556  1.00 39.68 LIG 0.16  HD
ATOM     14  C   THR B 686     -16.817   6.706  32.331  1.00 41.22 LIG 0.26  C 
ATOM     15 O    THR B 686     -16.490   6.756  31.143  1.00 41.89 LIG-0.27  OA
BRANCH 14 16
ATOM     16  CA  THR B 686     -15.923   7.330  33.406  1.00 42.81 LIG 0.43  C 
ATOM     17  N   THR B 686     -16.168   8.801  33.576  1.00 43.04 LIG 0.62  N 
BRANCH 16 18
ATOM     18  CB  THR B 686     -16.172   6.518  34.715  1.00 43.12 LIG 0.16  C 
ATOM     19  CG2 THR B 686     -14.941   6.591  35.663  1.00 43.85 LIG 0.04  C 
BRANCH 18 20
ATOM     20 OG1  THR B 686     -17.348   6.984  35.384  1.00 44.58 LIG-0.39  OA
ATOM     21 HG1  THR B 686     -17.196   7.049  36.207  1.00 44.58 LIG 0.21  HD
ENDBRANCH 18 20
ENDBRANCH 16 18
ENDBRANCH 14 16
ENDBRANCH 11 12
BRANCH 11 22
ATOM     22  CB  TYR B 687     -19.223   4.062  32.663  1.00 38.54 LIG 0.07  C 
BRANCH 22 23
ATOM     23  CG  TYR B 687     -18.470   3.785  33.935  1.00 40.36 LIG-0.06  A 
ATOM     24  CD2 TYR B 687     -17.215   3.168  33.900  1.00 43.44 LIG 0.01  A 
ATOM     25  CE2 TYR B 687     -16.503   2.921  35.077  1.00 43.74 LIG 0.04  A 
ATOM     26  CZ  TYR B 687     -17.061   3.298  36.294  1.00 42.51 LIG 0.07  A 
ATOM     27  CE1 TYR B 687     -18.308   3.914  36.345  1.00 41.41 LIG 0.04  A 
ATOM     28  CD1 TYR B 687     -18.999   4.151  35.171  1.00 40.86 LIG 0.01  A 
BRANCH 26 29
ATOM     29 OH   TYR B 687     -16.358   3.058  37.450  1.00 42.23 LIG-0.36  OA
ATOM     30 HH   TYR B 687     -16.393   2.239  37.635  1.00 42.23 LIG 0.22  HD
ENDBRANCH 26 29
ENDBRANCH 22 23
ENDBRANCH 11 22
ENDBRANCH 8 11
ENDBRANCH 6 7
BRANCH 6 31
ATOM     31  CB  LYS B 688     -20.378   8.038  28.322  1.00 31.14 LIG 0.04  C 
BRANCH 31 32
ATOM     32  CG  LYS B 688     -20.331   9.439  28.845  1.00 35.59 LIG 0.00  C 
BRANCH 32 33
ATOM     33  CD  LYS B 688     -18.914   9.995  28.862  1.00 43.16 LIG 0.03  C 
BRANCH 33 34
ATOM     34  CE  LYS B 688     -17.947   9.003  29.528  1.00 45.87 LIG 0.23  C 
BRANCH 34 35
ATOM     35  NZ  LYS B 688     -16.816   8.594  28.608  1.00 48.40 LIG-0.08  N 
ATOM     36 HZ2  LYS B 688     -17.020   8.814  27.770  1.00 48.40 LIG 0.27  HD
ATOM     37 HZ3  LYS B 688     -16.070   9.014  28.850  1.00 48.40 LIG 0.27  HD
ATOM     38 HZ1  LYS B 688     -16.692   7.714  28.662  1.00 48.40 LIG 0.27  HD
ENDBRANCH 34 35
ENDBRANCH 33 34
ENDBRANCH 32 33
ENDBRANCH 31 32
ENDBRANCH 6 31
ENDBRANCH 4 6
ENDBRANCH 1 2
BRANCH 1 39
ATOM     39  C   PHE B 689     -23.623   5.979  25.444  1.00 24.45 LIG 0.24  C 
ATOM     40  N   PHE B 690     -24.171   5.130  24.596  1.00 21.51 LIG-0.35  N 
ATOM     41 H    PHE B 690     -24.399   4.325  24.797  1.00 21.51 LIG 0.16  HD
ATOM     42 O    PHE B 689     -23.177   7.074  25.080  1.00 26.25 LIG-0.27  OA
BRANCH 40 43
ATOM     43  CA  PHE B 690     -24.438   5.507  23.212  1.00 22.61 LIG 0.18  C 
BRANCH 43 44
ATOM     44  C   PHE B 690     -25.438   4.535  22.641  1.00 22.66 LIG 0.24  C 
ATOM     45 O    PHE B 690     -25.508   3.408  23.075  1.00 22.36 LIG-0.27  OA
ATOM     46  N   GLU B 691     -26.207   5.000  21.662  1.00 25.08 LIG-0.35  N 
ATOM     47 H    GLU B 691     -26.160   5.806  21.367  1.00 25.08 LIG 0.16  HD
BRANCH 46 48
ATOM     48  CA  GLU B 691     -27.212   4.184  20.990  1.00 27.99 LIG 0.18  C 
BRANCH 48 49
ATOM     49  CB  GLU B 691     -28.324   5.080  20.441  1.00 28.84 LIG 0.04  C 
BRANCH 49 50
ATOM     50  CG  GLU B 691     -28.955   5.954  21.529  1.00 33.53 LIG 0.12  C 
BRANCH 50 51
ATOM     51  CD  GLU B 691     -29.532   5.145  22.699  1.00 40.22 LIG 0.17  C 
ATOM     52 OE1  GLU B 691     -30.310   4.187  22.462  1.00 42.38 LIG-0.65  OA
ATOM     53 OE2  GLU B 691     -29.199   5.483  23.866  1.00 45.19 LIG-0.65  OA
ENDBRANCH 50 51
ENDBRANCH 49 50
ENDBRANCH 48 49
BRANCH 48 54
ATOM     54  C   GLU B 691     -26.644   3.313  19.878  1.00 29.69 LIG 0.24  C 
ATOM     55 O    GLU B 691     -27.263   2.310  19.477  1.00 29.49 LIG-0.27  OA
ATOM     56  N   GLN B 692     -25.468   3.682  19.387  1.00 30.92 LIG-0.34  N 
ATOM     57 H    GLN B 692     -25.040   4.392  19.616  1.00 30.92 LIG 0.16  HD
BRANCH 56 58
ATOM     58  CA  GLN B 692     -24.808   2.851  18.378  1.00 33.57 LIG 0.19  C 
BRANCH 58 59
ATOM     59  C   GLN B 692     -23.554   3.524  17.848  1.00 34.50 LIG 0.20  C 
ATOM     60 O    GLN B 692     -22.970   3.052  16.857  1.00 34.98 LIG-0.65  OA
ATOM     61 OXT  GLN B 692     -23.133   4.564  18.392  1.00 35.71 LIG-0.65  OA
ENDBRANCH 58 59
BRANCH 58 62
ATOM     62  CB  GLN B 692     -25.785   2.551  17.223  1.00 33.00 LIG 0.04  C 
BRANCH 62 63
ATOM     63  CG  GLN B 692     -25.450   1.281  16.436  0.80 34.02 LIG 0.10  C 
BRANCH 63 64
ATOM     64  CD  GLN B 692     -25.451   0.019  17.281  0.80 34.38 LIG 0.21  C 
ATOM     65  NE2 GLN B 692     -26.386  -0.058  18.231  0.80 37.28 LIG-0.37  N 
ATOM     66 21HE GLN B 692     -26.936   0.593  18.347  0.80 37.28 LIG 0.16  HD
ATOM     67 22HE GLN B 692     -26.438  -0.758  18.728  0.80 37.28 LIG 0.16  HD
ATOM     68 OE1  GLN B 692     -24.641  -0.884  17.074  0.80 37.51 LIG-0.27  OA
ENDBRANCH 63 64
ENDBRANCH 62 63
ENDBRANCH 58 62
ENDBRANCH 56 58
ENDBRANCH 48 54
ENDBRANCH 46 48
ENDBRANCH 43 44
BRANCH 43 69
ATOM     69  CB  PHE B 690     -23.148   5.494  22.370  1.00 21.72 LIG 0.07  C 
BRANCH 69 70
ATOM     70  CG  PHE B 690     -22.409   4.175  22.372  1.00 20.05 LIG-0.06  A 
ATOM     71  CD2 PHE B 690     -21.316   3.988  23.199  1.00 19.86 LIG 0.01  A 
ATOM     72  CE2 PHE B 690     -20.603   2.777  23.223  1.00 20.22 LIG 0.00  A 
ATOM     73  CZ  PHE B 690     -20.982   1.766  22.342  1.00 19.78 LIG 0.00  A 
ATOM     74  CE1 PHE B 690     -22.054   1.943  21.518  1.00 19.59 LIG 0.00  A 
ATOM     75  CD1 PHE B 690     -22.765   3.162  21.501  1.00 20.29 LIG 0.01  A 
ENDBRANCH 69 70
ENDBRANCH 43 69
ENDBRANCH 40 43
ENDBRANCH 1 39
BRANCH 1 76
ATOM     76  CB  PHE B 689     -24.961   5.464  27.490  1.00 23.35 LIG 0.07  C 
BRANCH 76 77
ATOM     77  CG  PHE B 689     -25.223   4.189  28.189  1.00 24.01 LIG-0.06  A 
ATOM     78  CD2 PHE B 689     -24.180   3.467  28.773  1.00 25.22 LIG 0.01  A 
ATOM     79  CE2 PHE B 689     -24.431   2.277  29.473  1.00 25.32 LIG 0.00  A 
ATOM     80  CZ  PHE B 689     -25.740   1.773  29.542  1.00 27.81 LIG 0.00  A 
ATOM     81  CE1 PHE B 689     -26.789   2.480  28.953  1.00 24.81 LIG 0.00  A 
ATOM     82  CD1 PHE B 689     -26.531   3.694  28.288  1.00 27.61 LIG 0.01  A 
ENDBRANCH 76 77
ENDBRANCH 1 76
TORSDOF 33
ENDMDL
MODEL 5
USER: ADFR SOLUTION from run 153
USER: SCORE 23.324848 LL:  -5.506 LR: -20.885 RR:   0.000 FEB: -11.041
USER: RMSD 2.839222
USER: SEED 152
USER: STATUS searching
USER: GENES 35
USER: genes 0 Translation |==|  0.53562 0.41911 0.52381
USER: genes 1 Rotation |==|  0.48960 0.48296 0.43503 0.99536
USER: genes 2 Torsion [C]-CA--N-[C] |==|  0.64366
USER: genes 3 Torsion [N]-C--CA-[N] |==|  0.41262
USER: genes 4 Torsion [C]-CA--N-[C] |==|  0.83148
USER: genes 5 Torsion [N]-C--CA-[N] |==|  0.49915
USER: genes 6 Torsion [C]-CA--N-[C] |==|  0.60561
USER: genes 7 Torsion [N]-C--CA-[N] |==|  0.82393
USER: genes 8 Torsion [C]-CA--CB-[CG2] |==|  0.24600
USER: genes 9 Torsion [CA]-CB--OG1-[HG1] |==|  0.31854
USER: genes 10 Torsion [C]-CA--CB-[CG] |==|  0.40759
USER: genes 11 Torsion [CA]-CB--CG-[CD1] |==|  0.73001
USER: genes 12 Torsion [CE2]-CZ--OH-[HH] |==|  0.95075
USER: genes 13 Torsion [C]-CA--CB-[CG] |==|  0.20892
USER: genes 14 Torsion [CA]-CB--CG-[CD] |==|  0.45315
USER: genes 15 Torsion [CB]-CG--CD-[CE] |==|  0.93779
USER: genes 16 Torsion [CG]-CD--CE-[NZ] |==|  0.38815
USER: genes 17 Torsion [CD]-CE--NZ-[HZ2] |==|  0.02270
USER: genes 18 Torsion [N]-CA--C-[N] |==|  0.45892
USER: genes 19 Torsion [C]-N--CA-[CB] |==|  0.22109
USER: genes 20 Torsion [N]-CA--C-[N] |==|  0.44882
USER: genes 21 Torsion [C]-N--CA-[CB] |==|  0.36605
USER: genes 22 Torsion [N]-CA--CB-[CG] |==|  0.79908
USER: genes 23 Torsion [CA]-CB--CG-[CD] |==|  0.78448
USER: genes 24 Torsion [CB]-CG--CD-[OE2] |==|  0.50420
USER: genes 25 Torsion [N]-CA--C-[N] |==|  0.18546
USER: genes 26 Torsion [C]-N--CA-[C] |==|  0.21079
USER: genes 27 Torsion [N]-CA--C-[OXT] |==|  0.51033
USER: genes 28 Torsion [N]-CA--CB-[CG] |==|  0.56169
USER: genes 29 Torsion [CA]-CB--CG-[CD] |==|  0.21665
USER: genes 30 Torsion [CB]-CG--CD-[OE1] |==|  0.88377
USER: genes 31 Torsion [N]-CA--CB-[CG] |==|  0.17162
USER: genes 32 Torsion [CA]-CB--CG-[CD2] |==|  0.70695
USER: genes 33 Torsion [N]-CA--CB-[CG] |==|  0.73082
USER: genes 34 Torsion [CA]-CB--CG-[CD1] |==|  0.00768
ROOT
ATOM      1  CA  PHE B 689     -23.996   5.233  27.053  1.00 23.75 LIG 0.18  C 
ENDROOT
BRANCH 1 2
ATOM      2  N   PHE B 689     -23.222   6.046  28.009  1.00 25.36 LIG-0.35  N 
ATOM      3 H    PHE B 689     -23.394   6.888  27.970  1.00 25.36 LIG 0.16  HD
ATOM      4  C   LYS B 688     -22.339   5.519  28.852  1.00 27.14 LIG 0.24  C 
ATOM      5 O    LYS B 688     -22.074   4.325  28.884  1.00 24.82 LIG-0.27  OA
BRANCH 4 6
ATOM      6  CA  LYS B 688     -21.626   6.484  29.792  1.00 29.11 LIG 0.18  C 
BRANCH 6 7
ATOM      7  N   LYS B 688     -21.315   5.810  31.061  1.00 31.24 LIG-0.35  N 
ATOM      8  C   TYR B 687     -22.272   5.310  31.841  1.00 34.73 LIG 0.24  C 
ATOM      9 O    TYR B 687     -23.479   5.395  31.572  1.00 34.89 LIG-0.27  OA
ATOM     10 H    LYS B 688     -20.477   5.771  31.246  1.00 31.24 LIG 0.16  HD
BRANCH 8 11
ATOM     11  CA  TYR B 687     -21.814   4.588  33.100  1.00 37.40 LIG 0.18  C 
BRANCH 11 12
ATOM     12  N   TYR B 687     -22.916   4.075  33.907  1.00 39.68 LIG-0.34  N 
ATOM     13 H    TYR B 687     -23.573   3.759  33.450  1.00 39.68 LIG 0.16  HD
ATOM     14  C   THR B 686     -22.881   4.106  35.238  1.00 41.22 LIG 0.26  C 
ATOM     15 O    THR B 686     -22.040   4.741  35.879  1.00 41.89 LIG-0.27  OA
BRANCH 14 16
ATOM     16  CA  THR B 686     -23.954   3.291  35.966  1.00 42.81 LIG 0.43  C 
ATOM     17  N   THR B 686     -25.341   3.792  35.690  1.00 43.04 LIG 0.62  N 
BRANCH 16 18
ATOM     18  CB  THR B 686     -23.748   1.805  35.538  1.00 43.12 LIG 0.16  C 
ATOM     19  CG2 THR B 686     -22.741   1.084  36.478  1.00 43.85 LIG 0.04  C 
BRANCH 18 20
ATOM     20 OG1  THR B 686     -24.998   1.108  35.512  1.00 44.58 LIG-0.39  OA
ATOM     21 HG1  THR B 686     -25.177   0.882  34.723  1.00 44.58 LIG 0.21  HD
ENDBRANCH 18 20
ENDBRANCH 16 18
ENDBRANCH 14 16
ENDBRANCH 11 12
BRANCH 11 22
ATOM     22  CB  TYR B 687     -20.901   3.437  32.708  1.00 38.54 LIG 0.07  C 
BRANCH 22 23
ATOM     23  CG  TYR B 687     -19.802   3.138  33.691  1.00 40.36 LIG-0.06  A 
ATOM     24  CD2 TYR B 687     -20.045   2.330  34.807  1.00 43.44 LIG 0.01  A 
ATOM     25  CE2 TYR B 687     -19.025   2.037  35.717  1.00 43.74 LIG 0.04  A 
ATOM     26  CZ  TYR B 687     -17.756   2.561  35.498  1.00 42.51 LIG 0.07  A 
ATOM     27  CE1 TYR B 687     -17.498   3.365  34.391  1.00 41.41 LIG 0.04  A 
ATOM     28  CD1 TYR B 687     -18.518   3.645  33.501  1.00 40.86 LIG 0.01  A 
BRANCH 26 29
ATOM     29 OH   TYR B 687     -16.753   2.268  36.391  1.00 42.23 LIG-0.36  OA
ATOM     30 HH   TYR B 687     -17.089   1.991  37.109  1.00 42.23 LIG 0.22  HD
ENDBRANCH 26 29
ENDBRANCH 22 23
ENDBRANCH 11 22
ENDBRANCH 8 11
ENDBRANCH 6 7
BRANCH 6 31
ATOM     31  CB  LYS B 688     -20.333   6.969  29.152  1.00 31.14 LIG 0.04  C 
BRANCH 31 32
ATOM     32  CG  LYS B 688     -20.513   7.982  28.066  1.00 35.59 LIG 0.00  C 
BRANCH 32 33
ATOM     33  CD  LYS B 688     -19.220   8.722  27.754  1.00 43.16 LIG 0.03  C 
BRANCH 33 34
ATOM     34  CE  LYS B 688     -18.254   8.657  28.948  1.00 45.87 LIG 0.23  C 
BRANCH 34 35
ATOM     35  NZ  LYS B 688     -16.817   8.442  28.516  1.00 48.40 LIG-0.08  N 
ATOM     36 HZ2  LYS B 688     -16.760   8.508  27.631  1.00 48.40 LIG 0.27  HD
ATOM     37 HZ3  LYS B 688     -16.299   9.060  28.892  1.00 48.40 LIG 0.27  HD
ATOM     38 HZ1  LYS B 688     -16.548   7.634  28.771  1.00 48.40 LIG 0.27  HD
ENDBRANCH 34 35
ENDBRANCH 33 34
ENDBRANCH 32 33
ENDBRANCH 31 32
ENDBRANCH 6 31
ENDBRANCH 4 6
ENDBRANCH 1 2
BRANCH 1 39
ATOM     39  C   PHE B 689     -23.886   5.775  25.636  1.00 24.45 LIG 0.24  C 
ATOM     40  N   PHE B 690     -24.278   4.978  24.660  1.00 21.51 LIG-0.35  N 
ATOM     41 H    PHE B 690     -24.501   4.154  24.770  1.00 21.51 LIG 0.16  HD
ATOM     42 O    PHE B 689     -23.435   6.906  25.417  1.00 26.25 LIG-0.27  OA
BRANCH 40 43
ATOM     43  CA  PHE B 690     -24.363   5.450  23.283  1.00 22.61 LIG 0.18  C 
BRANCH 43 44
ATOM     44  C   PHE B 690     -25.289   4.533  22.525  1.00 22.66 LIG 0.24  C 
ATOM     45 O    PHE B 690     -25.546   3.434  22.958  1.00 22.36 LIG-0.27  OA
ATOM     46  N   GLU B 691     -25.779   5.014  21.387  1.00 25.08 LIG-0.35  N 
ATOM     47 H    GLU B 691     -25.600   5.801  21.090  1.00 25.08 LIG 0.16  HD
BRANCH 46 48
ATOM     48  CA  GLU B 691     -26.673   4.249  20.524  1.00 27.99 LIG 0.18  C 
BRANCH 48 49
ATOM     49  CB  GLU B 691     -27.878   5.107  20.137  1.00 28.84 LIG 0.04  C 
BRANCH 49 50
ATOM     50  CG  GLU B 691     -28.844   5.313  21.307  1.00 33.53 LIG 0.12  C 
BRANCH 50 51
ATOM     51  CD  GLU B 691     -29.736   4.096  21.582  1.00 40.22 LIG 0.17  C 
ATOM     52 OE1  GLU B 691     -29.600   3.060  20.881  1.00 42.38 LIG-0.65  OA
ATOM     53 OE2  GLU B 691     -30.583   4.185  22.510  1.00 45.19 LIG-0.65  OA
ENDBRANCH 50 51
ENDBRANCH 49 50
ENDBRANCH 48 49
BRANCH 48 54
ATOM     54  C   GLU B 691     -25.994   3.704  19.276  1.00 29.69 LIG 0.24  C 
ATOM     55 O    GLU B 691     -26.316   4.116  18.146  1.00 29.49 LIG-0.27  OA
ATOM     56  N   GLN B 692     -25.066   2.775  19.470  1.00 30.92 LIG-0.34  N 
ATOM     57 H    GLN B 692     -24.796   2.504  20.240  1.00 30.92 LIG 0.16  HD
BRANCH 56 58
ATOM     58  CA  GLN B 692     -24.426   2.134  18.320  1.00 33.57 LIG 0.19  C 
BRANCH 58 59
ATOM     59  C   GLN B 692     -23.406   3.055  17.675  1.00 34.50 LIG 0.20  C 
ATOM     60 O    GLN B 692     -23.143   4.151  18.198  1.00 34.98 LIG-0.65  OA
ATOM     61 OXT  GLN B 692     -22.816   2.694  16.637  1.00 35.71 LIG-0.65  OA
ENDBRANCH 58 59
BRANCH 58 62
ATOM     62  CB  GLN B 692     -25.495   1.712  17.290  1.00 33.00 LIG 0.04  C 
BRANCH 62 63
ATOM     63  CG  GLN B 692     -25.045   0.597  16.343  0.80 34.02 LIG 0.10  C 
BRANCH 63 64
ATOM     64  CD  GLN B 692     -25.080  -0.787  16.966  0.80 34.38 LIG 0.21  C 
ATOM     65  NE2 GLN B 692     -25.530  -1.776  16.191  0.80 37.28 LIG-0.37  N 
ATOM     66 21HE GLN B 692     -25.793  -1.608  15.390  0.80 37.28 LIG 0.16  HD
ATOM     67 22HE GLN B 692     -25.555  -2.581  16.492  0.80 37.28 LIG 0.16  HD
ATOM     68 OE1  GLN B 692     -24.691  -0.973  18.119  0.80 37.51 LIG-0.27  OA
ENDBRANCH 63 64
ENDBRANCH 62 63
ENDBRANCH 58 62
ENDBRANCH 56 58
ENDBRANCH 48 54
ENDBRANCH 46 48
ENDBRANCH 43 44
BRANCH 43 69
ATOM     69  CB  PHE B 690     -22.977   5.475  22.613  1.00 21.72 LIG 0.07  C 
BRANCH 69 70
ATOM     70  CG  PHE B 690     -22.306   4.123  22.507  1.00 20.05 LIG-0.06  A 
ATOM     71  CD2 PHE B 690     -21.252   3.800  23.342  1.00 19.86 LIG 0.01  A 
ATOM     72  CE2 PHE B 690     -20.601   2.556  23.268  1.00 20.22 LIG 0.00  A 
ATOM     73  CZ  PHE B 690     -21.002   1.656  22.283  1.00 19.78 LIG 0.00  A 
ATOM     74  CE1 PHE B 690     -22.037   1.967  21.450  1.00 19.59 LIG 0.00  A 
ATOM     75  CD1 PHE B 690     -22.684   3.219  21.533  1.00 20.29 LIG 0.01  A 
ENDBRANCH 69 70
ENDBRANCH 43 69
ENDBRANCH 40 43
ENDBRANCH 1 39
BRANCH 1 76
ATOM     76  CB  PHE B 689     -25.475   5.136  27.455  1.00 23.35 LIG 0.07  C 
BRANCH 76 77
ATOM     77  CG  PHE B 689     -25.790   3.900  28.198  1.00 24.01 LIG-0.06  A 
ATOM     78  CD2 PHE B 689     -27.101   3.610  28.580  1.00 25.22 LIG 0.01  A 
ATOM     79  CE2 PHE B 689     -27.410   2.416  29.251  1.00 25.32 LIG 0.00  A 
ATOM     80  CZ  PHE B 689     -26.381   1.524  29.593  1.00 27.81 LIG 0.00  A 
ATOM     81  CE1 PHE B 689     -25.064   1.808  29.227  1.00 24.81 LIG 0.00  A 
ATOM     82  CD1 PHE B 689     -24.773   2.989  28.518  1.00 27.61 LIG 0.01  A 
ENDBRANCH 76 77
ENDBRANCH 1 76
TORSDOF 33
ENDMDL
