MODEL 1
USER: ADFR SOLUTION from run 34
USER: SCORE 15.611754 LL:  -2.274 LR: -13.828 RR:   0.000 FEB:  -9.055
USER: RMSD 3.195732
USER: SEED 33
USER: STATUS no improvement in best in 4 clusters for 5 generations
USER: GENES 18
USER: genes 0 Translation |==|  0.50941 0.52405 0.51328
USER: genes 1 Rotation |==|  0.34173 0.53583 0.34939 0.94831
USER: genes 2 Torsion [N]-C--CA-[N] |==|  0.21888
USER: genes 3 Torsion [C]-CA--CB-[CG] |==|  0.19434
USER: genes 4 Torsion [CA]-CB--CG-[CD] |==|  0.63291
USER: genes 5 Torsion [CB]-CG--CD-[OE2] |==|  0.84617
USER: genes 6 Torsion [C]-CA--N-[C] |==|  0.63984
USER: genes 7 Torsion [N]-C--CA-[N] |==|  0.57899
USER: genes 8 Torsion [C]-CA--CB-[CG] |==|  0.30976
USER: genes 9 Torsion [CA]-CB--CG-[CD] |==|  0.71151
USER: genes 10 Torsion [CB]-CG--CD-[OE2] |==|  0.59861
USER: genes 11 Torsion [C]-N--CA-[C] |==|  0.81192
USER: genes 12 Torsion [N]-CA--C-[N] |==|  0.39649
USER: genes 13 Torsion [C]-N--CA-[CB] |==|  0.85766
USER: genes 14 Torsion [N]-CA--CB-[CG] |==|  0.63923
USER: genes 15 Torsion [CA]-CB--CG-[OD1] |==|  0.19419
USER: genes 16 Torsion [N]-CA--C-[O] |==|  0.04330
USER: genes 17 Torsion [N]-CA--CB-[CG2] |==|  0.65276
ROOT
ATOM      1  C   GLU Q 640      31.071  56.626  71.494  1.00 42.49 LIG 0.24  C 
ATOM      2 O    GLU Q 640      32.060  56.229  70.882  1.00 42.42 LIG-0.27  OA
ATOM      3  N   VAL Q 641      31.055  56.822  72.808  1.00 42.52 LIG-0.35  N 
ATOM      4 H    VAL Q 641      30.349  57.041  73.247  1.00 42.52 LIG 0.16  HD
ENDROOT
BRANCH 1 5
ATOM      5  CA  GLU Q 640      29.753  56.907  70.778  1.00 42.54 LIG 0.18  C 
BRANCH 5 6
ATOM      6  CB  GLU Q 640      29.683  56.113  69.472  1.00 42.65 LIG 0.04  C 
BRANCH 6 7
ATOM      7  CG  GLU Q 640      29.528  54.611  69.665  1.00 42.42 LIG 0.12  C 
BRANCH 7 8
ATOM      8  CD  GLU Q 640      30.494  53.796  68.818  1.00 42.56 LIG 0.17  C 
ATOM      9 OE2  GLU Q 640      30.498  53.988  67.579  1.00 42.27 LIG-0.65  OA
ATOM     10 OE1  GLU Q 640      31.248  52.967  69.386  1.00 42.60 LIG-0.65  OA
ENDBRANCH 7 8
ENDBRANCH 6 7
ENDBRANCH 5 6
BRANCH 5 11
ATOM     11  N   GLU Q 640      29.490  58.328  70.541  1.00 42.67 LIG-0.35  N 
ATOM     12  C   GLU Q 639      28.330  58.887  70.880  1.00 42.69 LIG 0.26  C 
ATOM     13 O    GLU Q 639      27.462  58.292  71.521  1.00 42.71 LIG-0.27  OA
ATOM     14 H    GLU Q 640      30.140  58.754  70.173  1.00 42.67 LIG 0.16  HD
BRANCH 12 15
ATOM     15  CA  GLU Q 639      28.103  60.329  70.428  1.00 42.78 LIG 0.40  C 
ATOM     16  N   GLU Q 639      27.195  61.096  71.332  1.00 42.84 LIG 0.61  N 
BRANCH 15 17
ATOM     17  CB  GLU Q 639      29.455  61.037  70.286  1.00 42.78 LIG 0.06  C 
BRANCH 17 18
ATOM     18  CG  GLU Q 639      29.837  61.377  68.856  1.00 43.01 LIG 0.12  C 
BRANCH 18 19
ATOM     19  CD  GLU Q 639      30.892  60.440  68.285  1.00 43.16 LIG 0.17  C 
ATOM     20 OE1  GLU Q 639      30.873  59.232  68.607  1.00 43.27 LIG-0.65  OA
ATOM     21 OE2  GLU Q 639      31.743  60.917  67.505  1.00 43.17 LIG-0.65  OA
ENDBRANCH 18 19
ENDBRANCH 17 18
ENDBRANCH 15 17
ENDBRANCH 12 15
ENDBRANCH 5 11
ENDBRANCH 1 5
BRANCH 3 22
ATOM     22  CA  VAL Q 641      32.246  56.683  73.634  1.00 42.43 LIG 0.18  C 
BRANCH 22 23
ATOM     23  C   VAL Q 641      32.713  55.216  73.697  1.00 42.31 LIG 0.24  C 
ATOM     24 O    VAL Q 641      31.891  54.296  73.722  1.00 42.15 LIG-0.27  OA
ATOM     25  N   ASP Q 642      34.029  55.006  73.703  1.00 42.19 LIG-0.35  N 
ATOM     26 H    ASP Q 642      34.614  55.635  73.686  1.00 42.19 LIG 0.16  HD
BRANCH 25 27
ATOM     27  CA  ASP Q 642      34.599  53.654  73.741  1.00 42.17 LIG 0.17  C 
BRANCH 27 28
ATOM     28  CB  ASP Q 642      33.985  52.831  74.880  1.00 42.21 LIG 0.15  C 
BRANCH 28 29
ATOM     29  CG  ASP Q 642      35.030  52.154  75.755  1.00 42.38 LIG 0.17  C 
ATOM     30 OD1  ASP Q 642      35.748  52.854  76.505  1.00 42.36 LIG-0.65  OA
ATOM     31 OD2  ASP Q 642      35.134  50.909  75.685  1.00 42.41 LIG-0.65  OA
ENDBRANCH 28 29
ENDBRANCH 27 28
BRANCH 27 32
ATOM     32  C   ASP Q 642      34.445  52.907  72.413  1.00 42.05 LIG 0.22  C 
ATOM     33 O    ASP Q 642      34.160  53.507  71.377  1.00 41.78 LIG-0.29  OA
ENDBRANCH 27 32
ENDBRANCH 25 27
ENDBRANCH 22 23
BRANCH 22 34
ATOM     34  CB  VAL Q 641      31.988  57.300  75.039  1.00 42.38 LIG 0.01  C 
ATOM     35  CG2 VAL Q 641      33.023  58.327  75.366  1.00 42.63 LIG 0.01  C 
ATOM     36  CG1 VAL Q 641      31.902  56.230  76.131  1.00 42.36 LIG 0.01  C 
ENDBRANCH 22 34
ENDBRANCH 3 22
TORSDOF 16
ENDMDL
MODEL 2
USER: ADFR SOLUTION from run 63
USER: SCORE 14.862194 LL:  -1.845 LR: -13.550 RR:   0.000 FEB:  -8.778
USER: RMSD 2.747739
USER: SEED 62
USER: STATUS searching
USER: GENES 18
USER: genes 0 Translation |==|  0.50986 0.52815 0.51234
USER: genes 1 Rotation |==|  0.32520 0.53472 0.34429 0.94045
USER: genes 2 Torsion [N]-C--CA-[N] |==|  0.20339
USER: genes 3 Torsion [C]-CA--CB-[CG] |==|  0.20389
USER: genes 4 Torsion [CA]-CB--CG-[CD] |==|  0.63149
USER: genes 5 Torsion [CB]-CG--CD-[OE2] |==|  0.33312
USER: genes 6 Torsion [C]-CA--N-[C] |==|  0.63555
USER: genes 7 Torsion [N]-C--CA-[N] |==|  0.59258
USER: genes 8 Torsion [C]-CA--CB-[CG] |==|  0.29817
USER: genes 9 Torsion [CA]-CB--CG-[CD] |==|  0.69611
USER: genes 10 Torsion [CB]-CG--CD-[OE2] |==|  0.60983
USER: genes 11 Torsion [C]-N--CA-[C] |==|  0.85556
USER: genes 12 Torsion [N]-CA--C-[N] |==|  0.36118
USER: genes 13 Torsion [C]-N--CA-[CB] |==|  0.49939
USER: genes 14 Torsion [N]-CA--CB-[CG] |==|  0.87565
USER: genes 15 Torsion [CA]-CB--CG-[OD1] |==|  0.10182
USER: genes 16 Torsion [N]-CA--C-[O] |==|  0.80878
USER: genes 17 Torsion [N]-CA--CB-[CG2] |==|  0.66654
ROOT
ATOM      1  C   GLU Q 640      31.080  56.693  71.477  1.00 42.49 LIG 0.24  C 
ATOM      2 O    GLU Q 640      32.053  56.232  70.885  1.00 42.42 LIG-0.27  OA
ATOM      3  N   VAL Q 641      31.085  56.984  72.773  1.00 42.52 LIG-0.35  N 
ATOM      4 H    VAL Q 641      30.389  57.250  73.203  1.00 42.52 LIG 0.16  HD
ENDROOT
BRANCH 1 5
ATOM      5  CA  GLU Q 640      29.760  56.951  70.757  1.00 42.54 LIG 0.18  C 
BRANCH 5 6
ATOM      6  CB  GLU Q 640      29.716  56.172  69.441  1.00 42.65 LIG 0.04  C 
BRANCH 6 7
ATOM      7  CG  GLU Q 640      29.513  54.673  69.613  1.00 42.42 LIG 0.12  C 
BRANCH 7 8
ATOM      8  CD  GLU Q 640      30.480  53.840  68.784  1.00 42.56 LIG 0.17  C 
ATOM      9 OE2  GLU Q 640      31.248  53.054  69.388  1.00 42.27 LIG-0.65  OA
ATOM     10 OE1  GLU Q 640      30.474  53.967  67.534  1.00 42.60 LIG-0.65  OA
ENDBRANCH 7 8
ENDBRANCH 6 7
ENDBRANCH 5 6
BRANCH 5 11
ATOM     11  N   GLU Q 640      29.464  58.368  70.536  1.00 42.67 LIG-0.35  N 
ATOM     12  C   GLU Q 639      28.279  58.888  70.847  1.00 42.69 LIG 0.26  C 
ATOM     13 O    GLU Q 639      27.408  58.258  71.450  1.00 42.71 LIG-0.27  OA
ATOM     14 H    GLU Q 640      30.112  58.819  70.196  1.00 42.67 LIG 0.16  HD
BRANCH 12 15
ATOM     15  CA  GLU Q 639      28.024  60.332  70.412  1.00 42.78 LIG 0.40  C 
ATOM     16  N   GLU Q 639      27.159  61.092  71.362  1.00 42.84 LIG 0.61  N 
BRANCH 15 17
ATOM     17  CB  GLU Q 639      29.365  61.045  70.207  1.00 42.78 LIG 0.06  C 
BRANCH 17 18
ATOM     18  CG  GLU Q 639      29.722  61.302  68.754  1.00 43.01 LIG 0.12  C 
BRANCH 18 19
ATOM     19  CD  GLU Q 639      30.873  60.436  68.262  1.00 43.16 LIG 0.17  C 
ATOM     20 OE1  GLU Q 639      30.933  59.241  68.624  1.00 43.27 LIG-0.65  OA
ATOM     21 OE2  GLU Q 639      31.719  60.955  67.505  1.00 43.17 LIG-0.65  OA
ENDBRANCH 18 19
ENDBRANCH 17 18
ENDBRANCH 15 17
ENDBRANCH 12 15
ENDBRANCH 5 11
ENDBRANCH 1 5
BRANCH 3 22
ATOM     22  CA  VAL Q 641      32.282  56.879  73.594  1.00 42.43 LIG 0.18  C 
BRANCH 22 23
ATOM     23  C   VAL Q 641      32.942  55.493  73.445  1.00 42.31 LIG 0.24  C 
ATOM     24 O    VAL Q 641      32.268  54.464  73.547  1.00 42.15 LIG-0.27  OA
ATOM     25  N   ASP Q 642      34.249  55.476  73.186  1.00 42.19 LIG-0.35  N 
ATOM     26 H    ASP Q 642      34.731  56.183  73.112  1.00 42.19 LIG 0.16  HD
BRANCH 25 27
ATOM     27  CA  ASP Q 642      34.986  54.221  73.001  1.00 42.17 LIG 0.17  C 
BRANCH 27 28
ATOM     28  CB  ASP Q 642      36.467  54.492  72.711  1.00 42.21 LIG 0.15  C 
BRANCH 28 29
ATOM     29  CG  ASP Q 642      36.680  55.604  71.693  1.00 42.38 LIG 0.17  C 
ATOM     30 OD1  ASP Q 642      35.913  56.593  71.696  1.00 42.36 LIG-0.65  OA
ATOM     31 OD2  ASP Q 642      37.623  55.479  70.880  1.00 42.41 LIG-0.65  OA
ENDBRANCH 28 29
ENDBRANCH 27 28
BRANCH 27 32
ATOM     32  C   ASP Q 642      34.852  53.271  74.195  1.00 42.05 LIG 0.22  C 
ATOM     33 O    ASP Q 642      35.369  53.539  75.279  1.00 41.78 LIG-0.29  OA
ENDBRANCH 27 32
ENDBRANCH 25 27
ENDBRANCH 22 23
BRANCH 22 34
ATOM     34  CB  VAL Q 641      31.943  57.234  75.071  1.00 42.38 LIG 0.01  C 
ATOM     35  CG2 VAL Q 641      32.748  58.405  75.533  1.00 42.63 LIG 0.01  C 
ATOM     36  CG1 VAL Q 641      32.117  56.035  76.007  1.00 42.36 LIG 0.01  C 
ENDBRANCH 22 34
ENDBRANCH 3 22
TORSDOF 16
ENDMDL
MODEL 3
USER: ADFR SOLUTION from run 66
USER: SCORE 15.598477 LL:  -2.373 LR: -13.320 RR:   0.000 FEB:  -8.548
USER: RMSD 3.848827
USER: SEED 65
USER: STATUS no improvement in best in 6 clusters for 5 generations
USER: GENES 18
USER: genes 0 Translation |==|  0.51950 0.51489 0.50238
USER: genes 1 Rotation |==|  0.36066 0.50416 0.35634 0.95818
USER: genes 2 Torsion [N]-C--CA-[N] |==|  0.44641
USER: genes 3 Torsion [C]-CA--CB-[CG] |==|  0.89203
USER: genes 4 Torsion [CA]-CB--CG-[CD] |==|  0.81216
USER: genes 5 Torsion [CB]-CG--CD-[OE2] |==|  0.43829
USER: genes 6 Torsion [C]-CA--N-[C] |==|  0.74447
USER: genes 7 Torsion [N]-C--CA-[N] |==|  0.35289
USER: genes 8 Torsion [C]-CA--CB-[CG] |==|  0.36944
USER: genes 9 Torsion [CA]-CB--CG-[CD] |==|  0.85379
USER: genes 10 Torsion [CB]-CG--CD-[OE2] |==|  0.58071
USER: genes 11 Torsion [C]-N--CA-[C] |==|  0.81774
USER: genes 12 Torsion [N]-CA--C-[N] |==|  0.39426
USER: genes 13 Torsion [C]-N--CA-[CB] |==|  0.86232
USER: genes 14 Torsion [N]-CA--CB-[CG] |==|  0.64439
USER: genes 15 Torsion [CA]-CB--CG-[OD1] |==|  0.16146
USER: genes 16 Torsion [N]-CA--C-[O] |==|  0.11353
USER: genes 17 Torsion [N]-CA--CB-[CG2] |==|  0.65253
ROOT
ATOM      1  C   GLU Q 640      31.282  56.475  71.298  1.00 42.49 LIG 0.24  C 
ATOM      2 O    GLU Q 640      32.369  56.177  70.806  1.00 42.42 LIG-0.27  OA
ATOM      3  N   VAL Q 641      31.083  56.605  72.605  1.00 42.52 LIG-0.35  N 
ATOM      4 H    VAL Q 641      30.312  56.754  72.955  1.00 42.52 LIG 0.16  HD
ENDROOT
BRANCH 1 5
ATOM      5  CA  GLU Q 640      30.051  56.700  70.427  1.00 42.54 LIG 0.18  C 
BRANCH 5 6
ATOM      6  CB  GLU Q 640      29.098  55.507  70.542  1.00 42.65 LIG 0.04  C 
BRANCH 6 7
ATOM      7  CG  GLU Q 640      29.799  54.157  70.607  1.00 42.42 LIG 0.12  C 
BRANCH 7 8
ATOM      8  CD  GLU Q 640      30.499  53.783  69.309  1.00 42.56 LIG 0.17  C 
ATOM      9 OE2  GLU Q 640      31.431  52.945  69.362  1.00 42.27 LIG-0.65  OA
ATOM     10 OE1  GLU Q 640      30.123  54.322  68.239  1.00 42.60 LIG-0.65  OA
ENDBRANCH 7 8
ENDBRANCH 6 7
ENDBRANCH 5 6
BRANCH 5 11
ATOM     11  N   GLU Q 640      30.353  56.993  69.024  1.00 42.67 LIG-0.35  N 
ATOM     12  C   GLU Q 639      30.491  58.244  68.589  1.00 42.69 LIG 0.26  C 
ATOM     13 O    GLU Q 639      30.504  59.218  69.343  1.00 42.71 LIG-0.27  OA
ATOM     14 H    GLU Q 640      30.430  56.298  68.523  1.00 42.67 LIG 0.16  HD
BRANCH 12 15
ATOM     15  CA  GLU Q 639      30.631  58.436  67.079  1.00 42.78 LIG 0.40  C 
ATOM     16  N   GLU Q 639      29.657  59.416  66.515  1.00 42.84 LIG 0.61  N 
BRANCH 15 17
ATOM     17  CB  GLU Q 639      32.070  58.849  66.750  1.00 42.78 LIG 0.06  C 
BRANCH 17 18
ATOM     18  CG  GLU Q 639      32.695  58.080  65.599  1.00 43.01 LIG 0.12  C 
BRANCH 18 19
ATOM     19  CD  GLU Q 639      32.604  56.571  65.772  1.00 43.16 LIG 0.17  C 
ATOM     20 OE1  GLU Q 639      31.649  56.088  66.419  1.00 43.27 LIG-0.65  OA
ATOM     21 OE2  GLU Q 639      33.494  55.864  65.255  1.00 43.17 LIG-0.65  OA
ENDBRANCH 18 19
ENDBRANCH 17 18
ENDBRANCH 15 17
ENDBRANCH 12 15
ENDBRANCH 5 11
ENDBRANCH 1 5
BRANCH 3 22
ATOM     22  CA  VAL Q 641      32.165  56.508  73.574  1.00 42.43 LIG 0.18  C 
BRANCH 22 23
ATOM     23  C   VAL Q 641      32.763  55.088  73.603  1.00 42.31 LIG 0.24  C 
ATOM     24 O    VAL Q 641      32.037  54.099  73.470  1.00 42.15 LIG-0.27  OA
ATOM     25  N   ASP Q 642      34.083  54.996  73.758  1.00 42.19 LIG-0.35  N 
ATOM     26 H    ASP Q 642      34.602  55.675  73.852  1.00 42.19 LIG 0.16  HD
BRANCH 25 27
ATOM     27  CA  ASP Q 642      34.774  53.701  73.781  1.00 42.17 LIG 0.17  C 
BRANCH 27 28
ATOM     28  CB  ASP Q 642      34.089  52.732  74.752  1.00 42.21 LIG 0.15  C 
BRANCH 28 29
ATOM     29  CG  ASP Q 642      35.055  52.110  75.751  1.00 42.38 LIG 0.17  C 
ATOM     30 OD1  ASP Q 642      35.721  52.855  76.505  1.00 42.36 LIG-0.65  OA
ATOM     31 OD2  ASP Q 642      35.148  50.862  75.775  1.00 42.41 LIG-0.65  OA
ENDBRANCH 28 29
ENDBRANCH 27 28
BRANCH 27 32
ATOM     32  C   ASP Q 642      34.885  53.062  72.394  1.00 42.05 LIG 0.22  C 
ATOM     33 O    ASP Q 642      35.152  53.741  71.403  1.00 41.78 LIG-0.29  OA
ENDBRANCH 27 32
ENDBRANCH 25 27
ENDBRANCH 22 23
BRANCH 22 34
ATOM     34  CB  VAL Q 641      31.668  56.987  74.969  1.00 42.38 LIG 0.01  C 
ATOM     35  CG2 VAL Q 641      32.547  58.071  75.502  1.00 42.63 LIG 0.01  C 
ATOM     36  CG1 VAL Q 641      31.546  55.830  75.965  1.00 42.36 LIG 0.01  C 
ENDBRANCH 22 34
ENDBRANCH 3 22
TORSDOF 16
ENDMDL
MODEL 4
USER: ADFR SOLUTION from run 200
USER: SCORE 14.951382 LL:  -1.722 LR: -13.256 RR:   0.000 FEB:  -8.483
USER: RMSD 3.300941
USER: SEED 199
USER: STATUS no improvement in best in 5 clusters for 5 generations
USER: GENES 18
USER: genes 0 Translation |==|  0.50676 0.51937 0.49590
USER: genes 1 Rotation |==|  0.33661 0.53111 0.36928 0.95304
USER: genes 2 Torsion [N]-C--CA-[N] |==|  0.42640
USER: genes 3 Torsion [C]-CA--CB-[CG] |==|  0.71659
USER: genes 4 Torsion [CA]-CB--CG-[CD] |==|  0.17112
USER: genes 5 Torsion [CB]-CG--CD-[OE2] |==|  0.61511
USER: genes 6 Torsion [C]-CA--N-[C] |==|  0.79540
USER: genes 7 Torsion [N]-C--CA-[N] |==|  0.28209
USER: genes 8 Torsion [C]-CA--CB-[CG] |==|  0.30566
USER: genes 9 Torsion [CA]-CB--CG-[CD] |==|  0.85851
USER: genes 10 Torsion [CB]-CG--CD-[OE2] |==|  0.94147
USER: genes 11 Torsion [C]-N--CA-[C] |==|  0.83647
USER: genes 12 Torsion [N]-CA--C-[N] |==|  0.38668
USER: genes 13 Torsion [C]-N--CA-[CB] |==|  0.47917
USER: genes 14 Torsion [N]-CA--CB-[CG] |==|  0.88239
USER: genes 15 Torsion [CA]-CB--CG-[OD1] |==|  0.11277
USER: genes 16 Torsion [N]-CA--C-[O] |==|  0.82103
USER: genes 17 Torsion [N]-CA--CB-[CG2] |==|  0.64838
ROOT
ATOM      1  C   GLU Q 640      31.015  56.549  71.181  1.00 42.49 LIG 0.24  C 
ATOM      2 O    GLU Q 640      32.027  56.229  70.561  1.00 42.42 LIG-0.27  OA
ATOM      3  N   VAL Q 641      30.999  56.760  72.493  1.00 42.52 LIG-0.35  N 
ATOM      4 H    VAL Q 641      30.282  56.924  72.939  1.00 42.52 LIG 0.16  HD
ENDROOT
BRANCH 1 5
ATOM      5  CA  GLU Q 640      29.669  56.708  70.480  1.00 42.54 LIG 0.18  C 
BRANCH 5 6
ATOM      6  CB  GLU Q 640      28.831  55.440  70.654  1.00 42.65 LIG 0.04  C 
BRANCH 6 7
ATOM      7  CG  GLU Q 640      28.811  54.536  69.429  1.00 42.42 LIG 0.12  C 
BRANCH 7 8
ATOM      8  CD  GLU Q 640      30.188  54.012  69.050  1.00 42.56 LIG 0.17  C 
ATOM      9 OE2  GLU Q 640      30.491  53.979  67.833  1.00 42.27 LIG-0.65  OA
ATOM     10 OE1  GLU Q 640      30.966  53.635  69.961  1.00 42.60 LIG-0.65  OA
ENDBRANCH 7 8
ENDBRANCH 6 7
ENDBRANCH 5 6
BRANCH 5 11
ATOM     11  N   GLU Q 640      29.769  57.079  69.067  1.00 42.67 LIG-0.35  N 
ATOM     12  C   GLU Q 639      30.117  58.309  68.694  1.00 42.69 LIG 0.26  C 
ATOM     13 O    GLU Q 639      30.498  59.169  69.490  1.00 42.71 LIG-0.27  OA
ATOM     14 H    GLU Q 640      29.587  56.444  68.518  1.00 42.67 LIG 0.16  HD
BRANCH 12 15
ATOM     15  CA  GLU Q 639      30.019  58.629  67.202  1.00 42.78 LIG 0.40  C 
ATOM     16  N   GLU Q 639      28.803  59.419  66.846  1.00 42.84 LIG 0.61  N 
BRANCH 15 17
ATOM     17  CB  GLU Q 639      31.290  59.357  66.753  1.00 42.78 LIG 0.06  C 
BRANCH 17 18
ATOM     18  CG  GLU Q 639      32.193  58.539  65.846  1.00 43.01 LIG 0.12  C 
BRANCH 18 19
ATOM     19  CD  GLU Q 639      32.507  57.160  66.407  1.00 43.16 LIG 0.17  C 
ATOM     20 OE1  GLU Q 639      32.890  56.258  65.630  1.00 43.27 LIG-0.65  OA
ATOM     21 OE2  GLU Q 639      32.373  56.979  67.636  1.00 43.17 LIG-0.65  OA
ENDBRANCH 18 19
ENDBRANCH 17 18
ENDBRANCH 15 17
ENDBRANCH 12 15
ENDBRANCH 5 11
ENDBRANCH 1 5
BRANCH 3 22
ATOM     22  CA  VAL Q 641      32.207  56.733  73.304  1.00 42.43 LIG 0.18  C 
BRANCH 22 23
ATOM     23  C   VAL Q 641      32.918  55.369  73.201  1.00 42.31 LIG 0.24  C 
ATOM     24 O    VAL Q 641      32.266  54.322  73.182  1.00 42.15 LIG-0.27  OA
ATOM     25  N   ASP Q 642      34.248  55.390  73.118  1.00 42.19 LIG-0.35  N 
ATOM     26 H    ASP Q 642      34.716  56.111  73.130  1.00 42.19 LIG 0.16  HD
BRANCH 25 27
ATOM     27  CA  ASP Q 642      35.038  54.160  72.995  1.00 42.17 LIG 0.17  C 
BRANCH 27 28
ATOM     28  CB  ASP Q 642      36.514  54.479  72.732  1.00 42.21 LIG 0.15  C 
BRANCH 28 29
ATOM     29  CG  ASP Q 642      36.710  55.604  71.725  1.00 42.38 LIG 0.17  C 
ATOM     30 OD1  ASP Q 642      35.958  56.604  71.770  1.00 42.36 LIG-0.65  OA
ATOM     31 OD2  ASP Q 642      37.623  55.479  70.880  1.00 42.41 LIG-0.65  OA
ENDBRANCH 28 29
ENDBRANCH 27 28
BRANCH 27 32
ATOM     32  C   ASP Q 642      34.909  53.246  74.217  1.00 42.05 LIG 0.22  C 
ATOM     33 O    ASP Q 642      35.316  53.604  75.322  1.00 41.78 LIG-0.29  OA
ENDBRANCH 27 32
ENDBRANCH 25 27
ENDBRANCH 22 23
BRANCH 22 34
ATOM     34  CB  VAL Q 641      31.868  57.132  74.770  1.00 42.38 LIG 0.01  C 
ATOM     35  CG2 VAL Q 641      32.745  58.252  75.230  1.00 42.63 LIG 0.01  C 
ATOM     36  CG1 VAL Q 641      31.943  55.938  75.725  1.00 42.36 LIG 0.01  C 
ENDBRANCH 22 34
ENDBRANCH 3 22
TORSDOF 16
ENDMDL
MODEL 5
USER: ADFR SOLUTION from run 98
USER: SCORE 14.868558 LL:  -2.698 LR: -12.910 RR:   0.000 FEB:  -8.137
USER: RMSD 4.741622
USER: SEED 97
USER: STATUS no improvement in best in 9 clusters for 5 generations
USER: GENES 18
USER: genes 0 Translation |==|  0.53573 0.54762 0.52107
USER: genes 1 Rotation |==|  0.34900 0.51123 0.25471 0.90854
USER: genes 2 Torsion [N]-C--CA-[N] |==|  0.72543
USER: genes 3 Torsion [C]-CA--CB-[CG] |==|  0.41301
USER: genes 4 Torsion [CA]-CB--CG-[CD] |==|  0.87997
USER: genes 5 Torsion [CB]-CG--CD-[OE2] |==|  0.18859
USER: genes 6 Torsion [C]-CA--N-[C] |==|  0.71096
USER: genes 7 Torsion [N]-C--CA-[N] |==|  0.43263
USER: genes 8 Torsion [C]-CA--CB-[CG] |==|  0.94646
USER: genes 9 Torsion [CA]-CB--CG-[CD] |==|  0.80101
USER: genes 10 Torsion [CB]-CG--CD-[OE2] |==|  0.55984
USER: genes 11 Torsion [C]-N--CA-[C] |==|  0.84990
USER: genes 12 Torsion [N]-CA--C-[N] |==|  0.36914
USER: genes 13 Torsion [C]-N--CA-[CB] |==|  0.52536
USER: genes 14 Torsion [N]-CA--CB-[CG] |==|  0.31686
USER: genes 15 Torsion [CA]-CB--CG-[OD1] |==|  0.24742
USER: genes 16 Torsion [N]-CA--C-[O] |==|  0.28565
USER: genes 17 Torsion [N]-CA--CB-[CG2] |==|  0.69682
ROOT
ATOM      1  C   GLU Q 640      31.623  57.015  71.634  1.00 42.49 LIG 0.24  C 
ATOM      2 O    GLU Q 640      32.500  56.235  71.268  1.00 42.42 LIG-0.27  OA
ATOM      3  N   VAL Q 641      31.434  57.356  72.904  1.00 42.52 LIG-0.35  N 
ATOM      4 H    VAL Q 641      30.785  57.853  73.171  1.00 42.52 LIG 0.16  HD
ENDROOT
BRANCH 1 5
ATOM      5  CA  GLU Q 640      30.652  57.644  70.640  1.00 42.54 LIG 0.18  C 
BRANCH 5 6
ATOM      6  CB  GLU Q 640      30.131  58.977  71.184  1.00 42.65 LIG 0.04  C 
BRANCH 6 7
ATOM      7  CG  GLU Q 640      29.812  60.005  70.108  1.00 42.42 LIG 0.12  C 
BRANCH 7 8
ATOM      8  CD  GLU Q 640      30.870  60.075  69.016  1.00 42.56 LIG 0.17  C 
ATOM      9 OE2  GLU Q 640      30.994  59.088  68.251  1.00 42.27 LIG-0.65  OA
ATOM     10 OE1  GLU Q 640      31.576  61.110  68.919  1.00 42.60 LIG-0.65  OA
ENDBRANCH 7 8
ENDBRANCH 6 7
ENDBRANCH 5 6
BRANCH 5 11
ATOM     11  N   GLU Q 640      29.545  56.771  70.248  1.00 42.67 LIG-0.35  N 
ATOM     12  C   GLU Q 639      29.522  56.165  69.063  1.00 42.69 LIG 0.26  C 
ATOM     13 O    GLU Q 639      30.473  56.191  68.279  1.00 42.71 LIG-0.27  OA
ATOM     14 H    GLU Q 640      28.927  56.690  70.841  1.00 42.67 LIG 0.16  HD
BRANCH 12 15
ATOM     15  CA  GLU Q 639      28.239  55.421  68.694  1.00 42.78 LIG 0.40  C 
ATOM     16  N   GLU Q 639      28.044  55.272  67.221  1.00 42.84 LIG 0.61  N 
BRANCH 15 17
ATOM     17  CB  GLU Q 639      28.227  54.054  69.385  1.00 42.78 LIG 0.06  C 
BRANCH 17 18
ATOM     18  CG  GLU Q 639      29.591  53.574  69.848  1.00 43.01 LIG 0.12  C 
BRANCH 18 19
ATOM     19  CD  GLU Q 639      30.498  53.160  68.698  1.00 43.16 LIG 0.17  C 
ATOM     20 OE1  GLU Q 639      30.269  53.604  67.552  1.00 43.27 LIG-0.65  OA
ATOM     21 OE2  GLU Q 639      31.448  52.389  68.945  1.00 43.17 LIG-0.65  OA
ENDBRANCH 18 19
ENDBRANCH 17 18
ENDBRANCH 15 17
ENDBRANCH 12 15
ENDBRANCH 5 11
ENDBRANCH 1 5
BRANCH 3 22
ATOM     22  CA  VAL Q 641      32.320  56.915  73.972  1.00 42.43 LIG 0.18  C 
BRANCH 22 23
ATOM     23  C   VAL Q 641      32.470  55.381  73.976  1.00 42.31 LIG 0.24  C 
ATOM     24 O    VAL Q 641      31.478  54.654  73.872  1.00 42.15 LIG-0.27  OA
ATOM     25  N   ASP Q 642      33.709  54.899  74.075  1.00 42.19 LIG-0.35  N 
ATOM     26 H    ASP Q 642      34.409  55.393  74.148  1.00 42.19 LIG 0.16  HD
BRANCH 25 27
ATOM     27  CA  ASP Q 642      33.984  53.458  74.069  1.00 42.17 LIG 0.17  C 
BRANCH 27 28
ATOM     28  CB  ASP Q 642      35.450  53.178  74.421  1.00 42.21 LIG 0.15  C 
BRANCH 28 29
ATOM     29  CG  ASP Q 642      35.614  52.444  75.744  1.00 42.38 LIG 0.17  C 
ATOM     30 OD1  ASP Q 642      35.606  51.192  75.755  1.00 42.36 LIG-0.65  OA
ATOM     31 OD2  ASP Q 642      35.748  53.131  76.781  1.00 42.41 LIG-0.65  OA
ENDBRANCH 28 29
ENDBRANCH 27 28
BRANCH 27 32
ATOM     32  C   ASP Q 642      33.061  52.672  75.004  1.00 42.05 LIG 0.22  C 
ATOM     33 O    ASP Q 642      32.114  52.023  74.561  1.00 41.78 LIG-0.29  OA
ENDBRANCH 27 32
ENDBRANCH 25 27
ENDBRANCH 22 23
BRANCH 22 34
ATOM     34  CB  VAL Q 641      31.824  57.480  75.336  1.00 42.38 LIG 0.01  C 
ATOM     35  CG2 VAL Q 641      32.750  58.540  75.838  1.00 42.63 LIG 0.01  C 
ATOM     36  CG1 VAL Q 641      31.623  56.376  76.378  1.00 42.36 LIG 0.01  C 
ENDBRANCH 22 34
ENDBRANCH 3 22
TORSDOF 16
ENDMDL
MODEL 6
USER: ADFR SOLUTION from run 98
USER: SCORE 14.476679 LL:  -2.524 LR: -12.722 RR:   0.000 FEB:  -7.950
USER: RMSD 4.407094
USER: SEED 97
USER: STATUS no improvement in best in 9 clusters for 5 generations
USER: GENES 18
USER: genes 0 Translation |==|  0.47788 0.50672 0.56131
USER: genes 1 Rotation |==|  0.54224 0.61065 0.66402 0.95724
USER: genes 2 Torsion [N]-C--CA-[N] |==|  0.35885
USER: genes 3 Torsion [C]-CA--CB-[CG] |==|  0.82994
USER: genes 4 Torsion [CA]-CB--CG-[CD] |==|  0.34058
USER: genes 5 Torsion [CB]-CG--CD-[OE2] |==|  0.13126
USER: genes 6 Torsion [C]-CA--N-[C] |==|  0.66645
USER: genes 7 Torsion [N]-C--CA-[N] |==|  0.19654
USER: genes 8 Torsion [C]-CA--CB-[CG] |==|  0.38959
USER: genes 9 Torsion [CA]-CB--CG-[CD] |==|  0.25782
USER: genes 10 Torsion [CB]-CG--CD-[OE2] |==|  0.34411
USER: genes 11 Torsion [C]-N--CA-[C] |==|  0.69106
USER: genes 12 Torsion [N]-CA--C-[N] |==|  0.78153
USER: genes 13 Torsion [C]-N--CA-[CB] |==|  0.46984
USER: genes 14 Torsion [N]-CA--CB-[CG] |==|  0.97036
USER: genes 15 Torsion [CA]-CB--CG-[OD1] |==|  0.13185
USER: genes 16 Torsion [N]-CA--C-[O] |==|  0.87507
USER: genes 17 Torsion [N]-CA--CB-[CG2] |==|  0.02115
ROOT
ATOM      1  C   GLU Q 640      30.408  56.340  72.359  1.00 42.49 LIG 0.24  C 
ATOM      2 O    GLU Q 640      30.571  57.453  71.864  1.00 42.42 LIG-0.27  OA
ATOM      3  N   VAL Q 641      31.287  55.769  73.176  1.00 42.52 LIG-0.35  N 
ATOM      4 H    VAL Q 641      31.205  54.967  73.476  1.00 42.52 LIG 0.16  HD
ENDROOT
BRANCH 1 5
ATOM      5  CA  GLU Q 640      29.171  55.504  72.047  1.00 42.54 LIG 0.18  C 
BRANCH 5 6
ATOM      6  CB  GLU Q 640      29.262  54.935  70.630  1.00 42.65 LIG 0.04  C 
BRANCH 6 7
ATOM      7  CG  GLU Q 640      29.332  55.994  69.538  1.00 42.42 LIG 0.12  C 
BRANCH 7 8
ATOM      8  CD  GLU Q 640      30.570  55.868  68.662  1.00 42.56 LIG 0.17  C 
ATOM      9 OE2  GLU Q 640      30.866  54.732  68.220  1.00 42.27 LIG-0.65  OA
ATOM     10 OE1  GLU Q 640      31.245  56.898  68.414  1.00 42.60 LIG-0.65  OA
ENDBRANCH 7 8
ENDBRANCH 6 7
ENDBRANCH 5 6
BRANCH 5 11
ATOM     11  N   GLU Q 640      27.904  56.211  72.246  1.00 42.67 LIG-0.35  N 
ATOM     12  C   GLU Q 639      26.991  55.774  73.110  1.00 42.69 LIG 0.26  C 
ATOM     13 O    GLU Q 639      27.195  54.836  73.884  1.00 42.71 LIG-0.27  OA
ATOM     14 H    GLU Q 640      27.810  56.916  71.763  1.00 42.67 LIG 0.16  HD
BRANCH 12 15
ATOM     15  CA  GLU Q 639      25.640  56.489  73.106  1.00 42.78 LIG 0.40  C 
ATOM     16  N   GLU Q 639      24.823  56.204  71.889  1.00 42.84 LIG 0.61  N 
BRANCH 15 17
ATOM     17  CB  GLU Q 639      24.867  56.123  74.378  1.00 42.78 LIG 0.06  C 
BRANCH 17 18
ATOM     18  CG  GLU Q 639      24.107  57.279  75.004  1.00 43.01 LIG 0.12  C 
BRANCH 18 19
ATOM     19  CD  GLU Q 639      22.665  57.371  74.525  1.00 43.16 LIG 0.17  C 
ATOM     20 OE1  GLU Q 639      22.434  57.456  73.299  1.00 43.27 LIG-0.65  OA
ATOM     21 OE2  GLU Q 639      21.757  57.354  75.382  1.00 43.17 LIG-0.65  OA
ENDBRANCH 18 19
ENDBRANCH 17 18
ENDBRANCH 15 17
ENDBRANCH 12 15
ENDBRANCH 5 11
ENDBRANCH 1 5
BRANCH 3 22
ATOM     22  CA  VAL Q 641      32.481  56.457  73.644  1.00 42.43 LIG 0.18  C 
BRANCH 22 23
ATOM     23  C   VAL Q 641      33.756  55.837  73.041  1.00 42.31 LIG 0.24  C 
ATOM     24 O    VAL Q 641      34.339  56.389  72.104  1.00 42.15 LIG-0.27  OA
ATOM     25  N   ASP Q 642      34.191  54.704  73.593  1.00 42.19 LIG-0.35  N 
ATOM     26 H    ASP Q 642      33.796  54.308  74.245  1.00 42.19 LIG 0.16  HD
BRANCH 25 27
ATOM     27  CA  ASP Q 642      35.405  54.028  73.122  1.00 42.17 LIG 0.17  C 
BRANCH 27 28
ATOM     28  CB  ASP Q 642      35.822  52.913  74.088  1.00 42.21 LIG 0.15  C 
BRANCH 28 29
ATOM     29  CG  ASP Q 642      35.054  52.946  75.401  1.00 42.38 LIG 0.17  C 
ATOM     30 OD1  ASP Q 642      33.808  53.065  75.380  1.00 42.36 LIG-0.65  OA
ATOM     31 OD2  ASP Q 642      35.709  52.856  76.464  1.00 42.41 LIG-0.65  OA
ENDBRANCH 28 29
ENDBRANCH 27 28
BRANCH 27 32
ATOM     32  C   ASP Q 642      35.260  53.466  71.704  1.00 42.05 LIG 0.22  C 
ATOM     33 O    ASP Q 642      34.251  52.848  71.368  1.00 41.78 LIG-0.29  OA
ENDBRANCH 27 32
ENDBRANCH 25 27
ENDBRANCH 22 23
BRANCH 22 34
ATOM     34  CB  VAL Q 641      32.497  56.486  75.201  1.00 42.38 LIG 0.01  C 
ATOM     35  CG2 VAL Q 641      31.392  55.648  75.758  1.00 42.63 LIG 0.01  C 
ATOM     36  CG1 VAL Q 641      32.445  57.914  75.752  1.00 42.36 LIG 0.01  C 
ENDBRANCH 22 34
ENDBRANCH 3 22
TORSDOF 16
ENDMDL
MODEL 7
USER: ADFR SOLUTION from run 126
USER: SCORE 14.420076 LL:  -2.404 LR: -12.711 RR:   0.000 FEB:  -7.938
USER: RMSD 4.796755
USER: SEED 125
USER: STATUS no improvement in best in 12 clusters for 5 generations
USER: GENES 18
USER: genes 0 Translation |==|  0.56851 0.49341 0.53581
USER: genes 1 Rotation |==|  0.41073 0.48607 0.41865 0.98500
USER: genes 2 Torsion [N]-C--CA-[N] |==|  0.81428
USER: genes 3 Torsion [C]-CA--CB-[CG] |==|  0.39458
USER: genes 4 Torsion [CA]-CB--CG-[CD] |==|  0.85748
USER: genes 5 Torsion [CB]-CG--CD-[OE2] |==|  0.73047
USER: genes 6 Torsion [C]-CA--N-[C] |==|  0.64461
USER: genes 7 Torsion [N]-C--CA-[N] |==|  0.43906
USER: genes 8 Torsion [C]-CA--CB-[CG] |==|  0.71849
USER: genes 9 Torsion [CA]-CB--CG-[CD] |==|  0.17724
USER: genes 10 Torsion [CB]-CG--CD-[OE2] |==|  0.80497
USER: genes 11 Torsion [C]-N--CA-[C] |==|  0.75372
USER: genes 12 Torsion [N]-CA--C-[N] |==|  0.30929
USER: genes 13 Torsion [C]-N--CA-[CB] |==|  0.43534
USER: genes 14 Torsion [N]-CA--CB-[CG] |==|  0.95806
USER: genes 15 Torsion [CA]-CB--CG-[OD1] |==|  0.82819
USER: genes 16 Torsion [N]-CA--C-[O] |==|  0.14462
USER: genes 17 Torsion [N]-CA--CB-[CG2] |==|  0.14140
ROOT
ATOM      1  C   GLU Q 640      32.312  56.120  71.900  1.00 42.49 LIG 0.24  C 
ATOM      2 O    GLU Q 640      33.451  56.229  71.452  1.00 42.42 LIG-0.27  OA
ATOM      3  N   VAL Q 641      32.048  55.929  73.188  1.00 42.52 LIG-0.35  N 
ATOM      4 H    VAL Q 641      31.257  55.793  73.496  1.00 42.52 LIG 0.16  HD
ENDROOT
BRANCH 1 5
ATOM      5  CA  GLU Q 640      31.090  56.176  70.987  1.00 42.54 LIG 0.18  C 
BRANCH 5 6
ATOM      6  CB  GLU Q 640      30.154  57.303  71.428  1.00 42.65 LIG 0.04  C 
BRANCH 6 7
ATOM      7  CG  GLU Q 640      29.496  58.050  70.275  1.00 42.42 LIG 0.12  C 
BRANCH 7 8
ATOM      8  CD  GLU Q 640      30.491  58.531  69.229  1.00 42.56 LIG 0.17  C 
ATOM      9 OE2  GLU Q 640      30.891  59.718  69.299  1.00 42.27 LIG-0.65  OA
ATOM     10 OE1  GLU Q 640      30.873  57.731  68.341  1.00 42.60 LIG-0.65  OA
ENDBRANCH 7 8
ENDBRANCH 6 7
ENDBRANCH 5 6
BRANCH 5 11
ATOM     11  N   GLU Q 640      30.366  54.908  70.877  1.00 42.67 LIG-0.35  N 
ATOM     12  C   GLU Q 639      30.075  54.373  69.693  1.00 42.69 LIG 0.26  C 
ATOM     13 O    GLU Q 639      30.498  54.830  68.629  1.00 42.71 LIG-0.27  OA
ATOM     14 H    GLU Q 640      30.153  54.552  71.630  1.00 42.67 LIG 0.16  HD
BRANCH 12 15
ATOM     15  CA  GLU Q 639      29.167  53.143  69.697  1.00 42.78 LIG 0.40  C 
ATOM     16  N   GLU Q 639      28.475  52.916  68.394  1.00 42.84 LIG 0.61  N 
BRANCH 15 17
ATOM     17  CB  GLU Q 639      29.982  51.911  70.102  1.00 42.78 LIG 0.06  C 
BRANCH 17 18
ATOM     18  CG  GLU Q 639      30.397  51.024  68.942  1.00 43.01 LIG 0.12  C 
BRANCH 18 19
ATOM     19  CD  GLU Q 639      31.336  51.720  67.968  1.00 43.16 LIG 0.17  C 
ATOM     20 OE1  GLU Q 639      32.532  51.358  67.910  1.00 43.27 LIG-0.65  OA
ATOM     21 OE2  GLU Q 639      30.873  52.632  67.253  1.00 43.17 LIG-0.65  OA
ENDBRANCH 18 19
ENDBRANCH 17 18
ENDBRANCH 15 17
ENDBRANCH 12 15
ENDBRANCH 5 11
ENDBRANCH 1 5
BRANCH 3 22
ATOM     22  CA  VAL Q 641      33.087  55.934  74.207  1.00 42.43 LIG 0.18  C 
BRANCH 22 23
ATOM     23  C   VAL Q 641      33.687  54.528  74.401  1.00 42.31 LIG 0.24  C 
ATOM     24 O    VAL Q 641      33.008  53.618  74.886  1.00 42.15 LIG-0.27  OA
ATOM     25  N   ASP Q 642      34.947  54.353  74.005  1.00 42.19 LIG-0.35  N 
ATOM     26 H    ASP Q 642      35.432  54.976  73.665  1.00 42.19 LIG 0.16  HD
BRANCH 25 27
ATOM     27  CA  ASP Q 642      35.623  53.055  74.117  1.00 42.17 LIG 0.17  C 
BRANCH 27 28
ATOM     28  CB  ASP Q 642      36.781  52.951  73.118  1.00 42.21 LIG 0.15  C 
BRANCH 28 29
ATOM     29  CG  ASP Q 642      36.728  54.017  72.033  1.00 42.38 LIG 0.17  C 
ATOM     30 OD1  ASP Q 642      35.749  54.050  71.253  1.00 42.36 LIG-0.65  OA
ATOM     31 OD2  ASP Q 642      37.681  54.825  71.959  1.00 42.41 LIG-0.65  OA
ENDBRANCH 28 29
ENDBRANCH 27 28
BRANCH 27 32
ATOM     32  C   ASP Q 642      36.125  52.767  75.534  1.00 42.05 LIG 0.22  C 
ATOM     33 O    ASP Q 642      35.373  52.857  76.504  1.00 41.78 LIG-0.29  OA
ENDBRANCH 27 32
ENDBRANCH 25 27
ENDBRANCH 22 23
BRANCH 22 34
ATOM     34  CB  VAL Q 641      32.529  56.544  75.527  1.00 42.38 LIG 0.01  C 
ATOM     35  CG2 VAL Q 641      31.244  55.886  75.913  1.00 42.63 LIG 0.01  C 
ATOM     36  CG1 VAL Q 641      32.371  58.064  75.437  1.00 42.36 LIG 0.01  C 
ENDBRANCH 22 34
ENDBRANCH 3 22
TORSDOF 16
ENDMDL
MODEL 8
USER: ADFR SOLUTION from run 188
USER: SCORE 15.009485 LL:  -2.486 LR: -12.548 RR:   0.000 FEB:  -7.775
USER: RMSD 4.387859
USER: SEED 187
USER: STATUS no improvement in best in 9 clusters for 5 generations
USER: GENES 18
USER: genes 0 Translation |==|  0.54513 0.54356 0.54365
USER: genes 1 Rotation |==|  0.54029 0.44115 0.41373 0.98731
USER: genes 2 Torsion [N]-C--CA-[N] |==|  0.92841
USER: genes 3 Torsion [C]-CA--CB-[CG] |==|  0.45271
USER: genes 4 Torsion [CA]-CB--CG-[CD] |==|  0.85270
USER: genes 5 Torsion [CB]-CG--CD-[OE2] |==|  0.68867
USER: genes 6 Torsion [C]-CA--N-[C] |==|  0.83245
USER: genes 7 Torsion [N]-C--CA-[N] |==|  0.86945
USER: genes 8 Torsion [C]-CA--CB-[CG] |==|  0.05142
USER: genes 9 Torsion [CA]-CB--CG-[CD] |==|  0.19596
USER: genes 10 Torsion [CB]-CG--CD-[OE2] |==|  0.45643
USER: genes 11 Torsion [C]-N--CA-[C] |==|  0.80575
USER: genes 12 Torsion [N]-CA--C-[N] |==|  0.37830
USER: genes 13 Torsion [C]-N--CA-[CB] |==|  0.82922
USER: genes 14 Torsion [N]-CA--CB-[CG] |==|  0.78034
USER: genes 15 Torsion [CA]-CB--CG-[OD1] |==|  0.96769
USER: genes 16 Torsion [N]-CA--C-[O] |==|  0.10753
USER: genes 17 Torsion [N]-CA--CB-[CG2] |==|  0.66606
ROOT
ATOM      1  C   GLU Q 640      31.821  56.948  72.041  1.00 42.49 LIG 0.24  C 
ATOM      2 O    GLU Q 640      33.021  57.211  72.003  1.00 42.42 LIG-0.27  OA
ATOM      3  N   VAL Q 641      31.268  56.193  72.984  1.00 42.52 LIG-0.35  N 
ATOM      4 H    VAL Q 641      30.441  55.957  72.980  1.00 42.52 LIG 0.16  HD
ENDROOT
BRANCH 1 5
ATOM      5  CA  GLU Q 640      30.860  57.460  70.972  1.00 42.54 LIG 0.18  C 
BRANCH 5 6
ATOM      6  CB  GLU Q 640      30.463  58.907  71.270  1.00 42.65 LIG 0.04  C 
BRANCH 6 7
ATOM      7  CG  GLU Q 640      29.853  59.641  70.083  1.00 42.42 LIG 0.12  C 
BRANCH 7 8
ATOM      8  CD  GLU Q 640      30.719  59.581  68.834  1.00 42.56 LIG 0.17  C 
ATOM      9 OE2  GLU Q 640      31.248  60.646  68.432  1.00 42.27 LIG-0.65  OA
ATOM     10 OE1  GLU Q 640      30.874  58.478  68.254  1.00 42.60 LIG-0.65  OA
ENDBRANCH 7 8
ENDBRANCH 6 7
ENDBRANCH 5 6
BRANCH 5 11
ATOM     11  N   GLU Q 640      29.675  56.622  70.779  1.00 42.67 LIG-0.35  N 
ATOM     12  C   GLU Q 639      29.776  55.349  70.403  1.00 42.69 LIG 0.26  C 
ATOM     13 O    GLU Q 639      30.855  54.759  70.317  1.00 42.71 LIG-0.27  OA
ATOM     14 H    GLU Q 640      28.928  57.021  70.928  1.00 42.67 LIG 0.16  HD
BRANCH 12 15
ATOM     15  CA  GLU Q 639      28.473  54.625  70.064  1.00 42.78 LIG 0.40  C 
ATOM     16  N   GLU Q 639      27.399  54.833  71.080  1.00 42.84 LIG 0.61  N 
BRANCH 15 17
ATOM     17  CB  GLU Q 639      27.998  55.058  68.673  1.00 42.78 LIG 0.06  C 
BRANCH 17 18
ATOM     18  CG  GLU Q 639      29.074  55.696  67.813  1.00 43.01 LIG 0.12  C 
BRANCH 18 19
ATOM     19  CD  GLU Q 639      30.125  54.702  67.341  1.00 43.16 LIG 0.17  C 
ATOM     20 OE1  GLU Q 639      30.203  53.586  67.900  1.00 43.27 LIG-0.65  OA
ATOM     21 OE2  GLU Q 639      30.876  55.039  66.403  1.00 43.17 LIG-0.65  OA
ENDBRANCH 18 19
ENDBRANCH 17 18
ENDBRANCH 15 17
ENDBRANCH 12 15
ENDBRANCH 5 11
ENDBRANCH 1 5
BRANCH 3 22
ATOM     22  CA  VAL Q 641      32.020  55.691  74.125  1.00 42.43 LIG 0.18  C 
BRANCH 22 23
ATOM     23  C   VAL Q 641      33.035  54.614  73.694  1.00 42.31 LIG 0.24  C 
ATOM     24 O    VAL Q 641      32.716  53.740  72.884  1.00 42.15 LIG-0.27  OA
ATOM     25  N   ASP Q 642      34.256  54.694  74.223  1.00 42.19 LIG-0.35  N 
ATOM     26 H    ASP Q 642      34.493  55.297  74.788  1.00 42.19 LIG 0.16  HD
BRANCH 25 27
ATOM     27  CA  ASP Q 642      35.316  53.741  73.876  1.00 42.17 LIG 0.17  C 
BRANCH 27 28
ATOM     28  CB  ASP Q 642      34.921  52.313  74.273  1.00 42.21 LIG 0.15  C 
BRANCH 28 29
ATOM     29  CG  ASP Q 642      35.108  52.035  75.758  1.00 42.38 LIG 0.17  C 
ATOM     30 OD1  ASP Q 642      35.744  52.854  76.460  1.00 42.36 LIG-0.65  OA
ATOM     31 OD2  ASP Q 642      34.616  50.983  76.222  1.00 42.41 LIG-0.65  OA
ENDBRANCH 28 29
ENDBRANCH 27 28
BRANCH 27 32
ATOM     32  C   ASP Q 642      35.696  53.787  72.394  1.00 42.05 LIG 0.22  C 
ATOM     33 O    ASP Q 642      35.749  54.855  71.786  1.00 41.78 LIG-0.29  OA
ENDBRANCH 27 32
ENDBRANCH 25 27
ENDBRANCH 22 23
BRANCH 22 34
ATOM     34  CB  VAL Q 641      31.040  55.196  75.227  1.00 42.38 LIG 0.01  C 
ATOM     35  CG2 VAL Q 641      31.245  55.953  76.499  1.00 42.63 LIG 0.01  C 
ATOM     36  CG1 VAL Q 641      31.145  53.685  75.456  1.00 42.36 LIG 0.01  C 
ENDBRANCH 22 34
ENDBRANCH 3 22
TORSDOF 16
ENDMDL
MODEL 9
USER: ADFR SOLUTION from run 147
USER: SCORE 14.210873 LL:  -1.756 LR: -12.517 RR:   0.000 FEB:  -7.744
USER: RMSD 4.236689
USER: SEED 146
USER: STATUS no improvement in best in 6 clusters for 5 generations
USER: GENES 18
USER: genes 0 Translation |==|  0.53814 0.54723 0.54618
USER: genes 1 Rotation |==|  0.53265 0.44555 0.40960 0.98764
USER: genes 2 Torsion [N]-C--CA-[N] |==|  0.93625
USER: genes 3 Torsion [C]-CA--CB-[CG] |==|  0.44958
USER: genes 4 Torsion [CA]-CB--CG-[CD] |==|  0.82898
USER: genes 5 Torsion [CB]-CG--CD-[OE2] |==|  0.19593
USER: genes 6 Torsion [C]-CA--N-[C] |==|  0.83333
USER: genes 7 Torsion [N]-C--CA-[N] |==|  0.06770
USER: genes 8 Torsion [C]-CA--CB-[CG] |==|  0.81711
USER: genes 9 Torsion [CA]-CB--CG-[CD] |==|  0.30989
USER: genes 10 Torsion [CB]-CG--CD-[OE2] |==|  0.48964
USER: genes 11 Torsion [C]-N--CA-[C] |==|  0.79969
USER: genes 12 Torsion [N]-CA--C-[N] |==|  0.36009
USER: genes 13 Torsion [C]-N--CA-[CB] |==|  0.30569
USER: genes 14 Torsion [N]-CA--CB-[CG] |==|  0.93643
USER: genes 15 Torsion [CA]-CB--CG-[OD1] |==|  0.33106
USER: genes 16 Torsion [N]-CA--C-[O] |==|  0.07383
USER: genes 17 Torsion [N]-CA--CB-[CG2] |==|  0.66285
ROOT
ATOM      1  C   GLU Q 640      31.674  57.008  72.086  1.00 42.49 LIG 0.24  C 
ATOM      2 O    GLU Q 640      32.877  57.249  72.014  1.00 42.42 LIG-0.27  OA
ATOM      3  N   VAL Q 641      31.131  56.287  73.061  1.00 42.52 LIG-0.35  N 
ATOM      4 H    VAL Q 641      30.300  56.067  73.082  1.00 42.52 LIG 0.16  HD
ENDROOT
BRANCH 1 5
ATOM      5  CA  GLU Q 640      30.697  57.511  71.028  1.00 42.54 LIG 0.18  C 
BRANCH 5 6
ATOM      6  CB  GLU Q 640      30.388  58.992  71.258  1.00 42.65 LIG 0.04  C 
BRANCH 6 7
ATOM      7  CG  GLU Q 640      29.792  59.698  70.047  1.00 42.42 LIG 0.12  C 
BRANCH 7 8
ATOM      8  CD  GLU Q 640      30.720  59.702  68.841  1.00 42.56 LIG 0.17  C 
ATOM      9 OE2  GLU Q 640      30.919  58.616  68.246  1.00 42.27 LIG-0.65  OA
ATOM     10 OE1  GLU Q 640      31.250  60.785  68.487  1.00 42.60 LIG-0.65  OA
ENDBRANCH 7 8
ENDBRANCH 6 7
ENDBRANCH 5 6
BRANCH 5 11
ATOM     11  N   GLU Q 640      29.464  56.729  70.929  1.00 42.67 LIG-0.35  N 
ATOM     12  C   GLU Q 639      29.484  55.432  70.629  1.00 42.69 LIG 0.26  C 
ATOM     13 O    GLU Q 639      30.527  54.781  70.542  1.00 42.71 LIG-0.27  OA
ATOM     14 H    GLU Q 640      28.745  57.176  71.080  1.00 42.67 LIG 0.16  HD
BRANCH 12 15
ATOM     15  CA  GLU Q 639      28.133  54.760  70.382  1.00 42.78 LIG 0.40  C 
ATOM     16  N   GLU Q 639      27.069  55.714  69.950  1.00 42.84 LIG 0.61  N 
BRANCH 15 17
ATOM     17  CB  GLU Q 639      28.305  53.636  69.355  1.00 42.78 LIG 0.06  C 
BRANCH 17 18
ATOM     18  CG  GLU Q 639      28.692  54.110  67.965  1.00 43.01 LIG 0.12  C 
BRANCH 18 19
ATOM     19  CD  GLU Q 639      30.107  53.709  67.574  1.00 43.16 LIG 0.17  C 
ATOM     20 OE1  GLU Q 639      30.825  53.115  68.408  1.00 43.27 LIG-0.65  OA
ATOM     21 OE2  GLU Q 639      30.501  53.988  66.423  1.00 43.17 LIG-0.65  OA
ENDBRANCH 18 19
ENDBRANCH 17 18
ENDBRANCH 15 17
ENDBRANCH 12 15
ENDBRANCH 5 11
ENDBRANCH 1 5
BRANCH 3 22
ATOM     22  CA  VAL Q 641      31.902  55.800  74.196  1.00 42.43 LIG 0.18  C 
BRANCH 22 23
ATOM     23  C   VAL Q 641      32.848  54.657  73.779  1.00 42.31 LIG 0.24  C 
ATOM     24 O    VAL Q 641      32.426  53.702  73.121  1.00 42.15 LIG-0.27  OA
ATOM     25  N   ASP Q 642      34.124  54.770  74.147  1.00 42.19 LIG-0.35  N 
ATOM     26 H    ASP Q 642      34.432  55.428  74.605  1.00 42.19 LIG 0.16  HD
BRANCH 25 27
ATOM     27  CA  ASP Q 642      35.126  53.758  73.793  1.00 42.17 LIG 0.17  C 
BRANCH 27 28
ATOM     28  CB  ASP Q 642      36.115  54.305  72.757  1.00 42.21 LIG 0.15  C 
BRANCH 28 29
ATOM     29  CG  ASP Q 642      35.552  55.468  71.952  1.00 42.38 LIG 0.17  C 
ATOM     30 OD1  ASP Q 642      36.121  56.582  72.004  1.00 42.36 LIG-0.65  OA
ATOM     31 OD2  ASP Q 642      34.526  55.261  71.267  1.00 42.41 LIG-0.65  OA
ENDBRANCH 28 29
ENDBRANCH 27 28
BRANCH 27 32
ATOM     32  C   ASP Q 642      35.885  53.222  75.010  1.00 42.05 LIG 0.22  C 
ATOM     33 O    ASP Q 642      35.373  53.227  76.129  1.00 41.78 LIG-0.29  OA
ENDBRANCH 27 32
ENDBRANCH 25 27
ENDBRANCH 22 23
BRANCH 22 34
ATOM     34  CB  VAL Q 641      30.941  55.402  75.354  1.00 42.38 LIG 0.01  C 
ATOM     35  CG2 VAL Q 641      31.248  56.184  76.590  1.00 42.63 LIG 0.01  C 
ATOM     36  CG1 VAL Q 641      30.963  53.895  75.629  1.00 42.36 LIG 0.01  C 
ENDBRANCH 22 34
ENDBRANCH 3 22
TORSDOF 16
ENDMDL
MODEL 10
USER: ADFR SOLUTION from run 72
USER: SCORE 15.423242 LL:  -3.179 LR: -12.450 RR:   0.000 FEB:  -7.678
USER: RMSD 2.908701
USER: SEED 71
USER: STATUS searching
USER: GENES 18
USER: genes 0 Translation |==|  0.54489 0.49717 0.53999
USER: genes 1 Rotation |==|  0.40729 0.53187 0.41115 0.98218
USER: genes 2 Torsion [N]-C--CA-[N] |==|  0.43400
USER: genes 3 Torsion [C]-CA--CB-[CG] |==|  0.62564
USER: genes 4 Torsion [CA]-CB--CG-[CD] |==|  0.21612
USER: genes 5 Torsion [CB]-CG--CD-[OE2] |==|  0.19400
USER: genes 6 Torsion [C]-CA--N-[C] |==|  0.61834
USER: genes 7 Torsion [N]-C--CA-[N] |==|  0.19871
USER: genes 8 Torsion [C]-CA--CB-[CG] |==|  0.23745
USER: genes 9 Torsion [CA]-CB--CG-[CD] |==|  0.04069
USER: genes 10 Torsion [CB]-CG--CD-[OE2] |==|  0.16385
USER: genes 11 Torsion [C]-N--CA-[C] |==|  0.73214
USER: genes 12 Torsion [N]-CA--C-[N] |==|  0.36139
USER: genes 13 Torsion [C]-N--CA-[CB] |==|  0.49429
USER: genes 14 Torsion [N]-CA--CB-[CG] |==|  0.47989
USER: genes 15 Torsion [CA]-CB--CG-[OD1] |==|  0.78990
USER: genes 16 Torsion [N]-CA--C-[O] |==|  0.85231
USER: genes 17 Torsion [N]-CA--CB-[CG2] |==|  0.14851
ROOT
ATOM      1  C   GLU Q 640      31.816  56.182  71.975  1.00 42.49 LIG 0.24  C 
ATOM      2 O    GLU Q 640      32.865  56.229  71.337  1.00 42.42 LIG-0.27  OA
ATOM      3  N   VAL Q 641      31.768  55.981  73.287  1.00 42.52 LIG-0.35  N 
ATOM      4 H    VAL Q 641      31.034  55.888  73.727  1.00 42.52 LIG 0.16  HD
ENDROOT
BRANCH 1 5
ATOM      5  CA  GLU Q 640      30.461  56.333  71.289  1.00 42.54 LIG 0.18  C 
BRANCH 5 6
ATOM      6  CB  GLU Q 640      29.813  54.960  71.097  1.00 42.65 LIG 0.04  C 
BRANCH 6 7
ATOM      7  CG  GLU Q 640      29.212  54.745  69.714  1.00 42.42 LIG 0.12  C 
BRANCH 7 8
ATOM      8  CD  GLU Q 640      30.255  54.431  68.652  1.00 42.56 LIG 0.17  C 
ATOM      9 OE2  GLU Q 640      30.834  53.319  68.705  1.00 42.27 LIG-0.65  OA
ATOM     10 OE1  GLU Q 640      30.498  55.288  67.766  1.00 42.60 LIG-0.65  OA
ENDBRANCH 7 8
ENDBRANCH 6 7
ENDBRANCH 5 6
BRANCH 5 11
ATOM     11  N   GLU Q 640      30.507  57.071  70.026  1.00 42.67 LIG-0.35  N 
ATOM     12  C   GLU Q 639      29.585  57.980  69.717  1.00 42.69 LIG 0.26  C 
ATOM     13 O    GLU Q 639      28.718  58.352  70.511  1.00 42.71 LIG-0.27  OA
ATOM     14 H    GLU Q 640      31.169  56.866  69.517  1.00 42.67 LIG 0.16  HD
BRANCH 12 15
ATOM     15  CA  GLU Q 639      29.634  58.559  68.303  1.00 42.78 LIG 0.40  C 
ATOM     16  N   GLU Q 639      29.204  57.590  67.252  1.00 42.84 LIG 0.61  N 
BRANCH 15 17
ATOM     17  CB  GLU Q 639      28.786  59.834  68.246  1.00 42.78 LIG 0.06  C 
BRANCH 17 18
ATOM     18  CG  GLU Q 639      29.519  61.094  68.673  1.00 43.01 LIG 0.12  C 
BRANCH 18 19
ATOM     19  CD  GLU Q 639      31.029  60.911  68.734  1.00 43.16 LIG 0.17  C 
ATOM     20 OE1  GLU Q 639      31.623  61.106  69.817  1.00 43.27 LIG-0.65  OA
ATOM     21 OE2  GLU Q 639      31.623  60.567  67.691  1.00 43.17 LIG-0.65  OA
ENDBRANCH 18 19
ENDBRANCH 17 18
ENDBRANCH 15 17
ENDBRANCH 12 15
ENDBRANCH 5 11
ENDBRANCH 1 5
BRANCH 3 22
ATOM     22  CA  VAL Q 641      32.965  55.900  74.110  1.00 42.43 LIG 0.18  C 
BRANCH 22 23
ATOM     23  C   VAL Q 641      33.386  54.436  74.343  1.00 42.31 LIG 0.24  C 
ATOM     24 O    VAL Q 641      32.560  53.598  74.714  1.00 42.15 LIG-0.27  OA
ATOM     25  N   ASP Q 642      34.661  54.133  74.104  1.00 42.19 LIG-0.35  N 
ATOM     26 H    ASP Q 642      35.248  54.705  73.845  1.00 42.19 LIG 0.16  HD
BRANCH 25 27
ATOM     27  CA  ASP Q 642      35.179  52.770  74.268  1.00 42.17 LIG 0.17  C 
BRANCH 27 28
ATOM     28  CB  ASP Q 642      36.661  52.695  73.879  1.00 42.21 LIG 0.15  C 
BRANCH 28 29
ATOM     29  CG  ASP Q 642      37.291  51.347  74.196  1.00 42.38 LIG 0.17  C 
ATOM     30 OD1  ASP Q 642      37.579  51.068  75.382  1.00 42.36 LIG-0.65  OA
ATOM     31 OD2  ASP Q 642      37.505  50.563  73.244  1.00 42.41 LIG-0.65  OA
ENDBRANCH 28 29
ENDBRANCH 27 28
BRANCH 27 32
ATOM     32  C   ASP Q 642      34.980  52.225  75.685  1.00 42.05 LIG 0.22  C 
ATOM     33 O    ASP Q 642      35.373  52.854  76.667  1.00 41.78 LIG-0.29  OA
ENDBRANCH 27 32
ENDBRANCH 25 27
ENDBRANCH 22 23
BRANCH 22 34
ATOM     34  CB  VAL Q 641      32.749  56.688  75.436  1.00 42.38 LIG 0.01  C 
ATOM     35  CG2 VAL Q 641      31.508  56.227  76.130  1.00 42.63 LIG 0.01  C 
ATOM     36  CG1 VAL Q 641      32.731  58.202  75.210  1.00 42.36 LIG 0.01  C 
ENDBRANCH 22 34
ENDBRANCH 3 22
TORSDOF 16
ENDMDL
MODEL 11
USER: ADFR SOLUTION from run 199
USER: SCORE 14.441606 LL:  -2.431 LR: -12.426 RR:   0.000 FEB:  -7.653
USER: RMSD 4.015067
USER: SEED 198
USER: STATUS no improvement in best in 3 clusters for 5 generations
USER: GENES 18
USER: genes 0 Translation |==|  0.47841 0.45734 0.59270
USER: genes 1 Rotation |==|  0.56095 0.58353 0.62574 0.97276
USER: genes 2 Torsion [N]-C--CA-[N] |==|  0.35176
USER: genes 3 Torsion [C]-CA--CB-[CG] |==|  0.80146
USER: genes 4 Torsion [CA]-CB--CG-[CD] |==|  0.35340
USER: genes 5 Torsion [CB]-CG--CD-[OE2] |==|  0.15768
USER: genes 6 Torsion [C]-CA--N-[C] |==|  0.65752
USER: genes 7 Torsion [N]-C--CA-[N] |==|  0.30641
USER: genes 8 Torsion [C]-CA--CB-[CG] |==|  0.45417
USER: genes 9 Torsion [CA]-CB--CG-[CD] |==|  0.19924
USER: genes 10 Torsion [CB]-CG--CD-[OE2] |==|  0.75740
USER: genes 11 Torsion [C]-N--CA-[C] |==|  0.61113
USER: genes 12 Torsion [N]-CA--C-[N] |==|  0.37201
USER: genes 13 Torsion [C]-N--CA-[CB] |==|  0.45733
USER: genes 14 Torsion [N]-CA--CB-[CG] |==|  0.90457
USER: genes 15 Torsion [CA]-CB--CG-[OD1] |==|  0.91088
USER: genes 16 Torsion [N]-CA--C-[O] |==|  0.08668
USER: genes 17 Torsion [N]-CA--CB-[CG2] |==|  0.04722
ROOT
ATOM      1  C   GLU Q 640      30.420  55.525  72.924  1.00 42.49 LIG 0.24  C 
ATOM      2 O    GLU Q 640      30.822  56.615  72.522  1.00 42.42 LIG-0.27  OA
ATOM      3  N   VAL Q 641      31.110  54.754  73.757  1.00 42.52 LIG-0.35  N 
ATOM      4 H    VAL Q 641      30.859  53.965  73.992  1.00 42.52 LIG 0.16  HD
ENDROOT
BRANCH 1 5
ATOM      5  CA  GLU Q 640      29.080  54.955  72.469  1.00 42.54 LIG 0.18  C 
BRANCH 5 6
ATOM      6  CB  GLU Q 640      29.162  54.519  71.004  1.00 42.65 LIG 0.04  C 
BRANCH 6 7
ATOM      7  CG  GLU Q 640      29.235  55.675  70.015  1.00 42.42 LIG 0.12  C 
BRANCH 7 8
ATOM      8  CD  GLU Q 640      30.407  55.564  69.052  1.00 42.56 LIG 0.17  C 
ATOM      9 OE2  GLU Q 640      30.498  54.528  68.351  1.00 42.27 LIG-0.65  OA
ATOM     10 OE1  GLU Q 640      31.236  56.506  68.993  1.00 42.60 LIG-0.65  OA
ENDBRANCH 7 8
ENDBRANCH 6 7
ENDBRANCH 5 6
BRANCH 5 11
ATOM     11  N   GLU Q 640      27.942  55.852  72.684  1.00 42.67 LIG-0.35  N 
ATOM     12  C   GLU Q 639      26.886  55.477  73.402  1.00 42.69 LIG 0.26  C 
ATOM     13 O    GLU Q 639      26.847  54.419  74.033  1.00 42.71 LIG-0.27  OA
ATOM     14 H    GLU Q 640      28.021  56.623  72.311  1.00 42.67 LIG 0.16  HD
BRANCH 12 15
ATOM     15  CA  GLU Q 639      25.688  56.427  73.413  1.00 42.78 LIG 0.40  C 
ATOM     16  N   GLU Q 639      24.504  55.893  72.676  1.00 42.84 LIG 0.61  N 
BRANCH 15 17
ATOM     17  CB  GLU Q 639      25.320  56.764  74.862  1.00 42.78 LIG 0.06  C 
BRANCH 17 18
ATOM     18  CG  GLU Q 639      24.423  57.980  75.013  1.00 43.01 LIG 0.12  C 
BRANCH 18 19
ATOM     19  CD  GLU Q 639      22.997  57.729  74.545  1.00 43.16 LIG 0.17  C 
ATOM     20 OE1  GLU Q 639      22.140  57.354  75.376  1.00 43.27 LIG-0.65  OA
ATOM     21 OE2  GLU Q 639      22.732  57.912  73.339  1.00 43.17 LIG-0.65  OA
ENDBRANCH 18 19
ENDBRANCH 17 18
ENDBRANCH 15 17
ENDBRANCH 12 15
ENDBRANCH 5 11
ENDBRANCH 1 5
BRANCH 3 22
ATOM     22  CA  VAL Q 641      32.367  55.178  74.354  1.00 42.43 LIG 0.18  C 
BRANCH 22 23
ATOM     23  C   VAL Q 641      33.383  54.019  74.399  1.00 42.31 LIG 0.24  C 
ATOM     24 O    VAL Q 641      33.037  52.896  74.775  1.00 42.15 LIG-0.27  OA
ATOM     25  N   ASP Q 642      34.624  54.294  73.997  1.00 42.19 LIG-0.35  N 
ATOM     26 H    ASP Q 642      34.880  55.070  73.733  1.00 42.19 LIG 0.16  HD
BRANCH 25 27
ATOM     27  CA  ASP Q 642      35.676  53.271  73.973  1.00 42.17 LIG 0.17  C 
BRANCH 27 28
ATOM     28  CB  ASP Q 642      36.872  53.733  73.132  1.00 42.21 LIG 0.15  C 
BRANCH 28 29
ATOM     29  CG  ASP Q 642      36.465  54.587  71.939  1.00 42.38 LIG 0.17  C 
ATOM     30 OD1  ASP Q 642      35.368  54.372  71.376  1.00 42.36 LIG-0.65  OA
ATOM     31 OD2  ASP Q 642      37.258  55.479  71.562  1.00 42.41 LIG-0.65  OA
ENDBRANCH 28 29
ENDBRANCH 27 28
BRANCH 27 32
ATOM     32  C   ASP Q 642      36.145  52.868  75.374  1.00 42.05 LIG 0.22  C 
ATOM     33 O    ASP Q 642      35.373  52.891  76.332  1.00 41.78 LIG-0.29  OA
ENDBRANCH 27 32
ENDBRANCH 25 27
ENDBRANCH 22 23
BRANCH 22 34
ATOM     34  CB  VAL Q 641      32.101  55.806  75.754  1.00 42.38 LIG 0.01  C 
ATOM     35  CG2 VAL Q 641      30.743  55.434  76.253  1.00 42.63 LIG 0.01  C 
ATOM     36  CG1 VAL Q 641      32.295  57.325  75.749  1.00 42.36 LIG 0.01  C 
ENDBRANCH 22 34
ENDBRANCH 3 22
TORSDOF 16
ENDMDL
MODEL 12
USER: ADFR SOLUTION from run 62
USER: SCORE 14.952089 LL:  -3.014 LR: -12.267 RR:   0.000 FEB:  -7.494
USER: RMSD 3.273919
USER: SEED 61
USER: STATUS no improvement in best in 5 clusters for 5 generations
USER: GENES 18
USER: genes 0 Translation |==|  0.51355 0.48221 0.50530
USER: genes 1 Rotation |==|  0.43339 0.49584 0.45076 0.99307
USER: genes 2 Torsion [N]-C--CA-[N] |==|  0.49444
USER: genes 3 Torsion [C]-CA--CB-[CG] |==|  0.63995
USER: genes 4 Torsion [CA]-CB--CG-[CD] |==|  0.18231
USER: genes 5 Torsion [CB]-CG--CD-[OE2] |==|  0.66001
USER: genes 6 Torsion [C]-CA--N-[C] |==|  0.57538
USER: genes 7 Torsion [N]-C--CA-[N] |==|  0.29580
USER: genes 8 Torsion [C]-CA--CB-[CG] |==|  0.31762
USER: genes 9 Torsion [CA]-CB--CG-[CD] |==|  0.81830
USER: genes 10 Torsion [CB]-CG--CD-[OE2] |==|  0.55778
USER: genes 11 Torsion [C]-N--CA-[C] |==|  0.80324
USER: genes 12 Torsion [N]-CA--C-[N] |==|  0.46320
USER: genes 13 Torsion [C]-N--CA-[CB] |==|  0.82582
USER: genes 14 Torsion [N]-CA--CB-[CG] |==|  0.76830
USER: genes 15 Torsion [CA]-CB--CG-[OD1] |==|  0.96255
USER: genes 16 Torsion [N]-CA--C-[O] |==|  0.10949
USER: genes 17 Torsion [N]-CA--CB-[CG2] |==|  0.59826
ROOT
ATOM      1  C   GLU Q 640      31.158  55.935  71.350  1.00 42.49 LIG 0.24  C 
ATOM      2 O    GLU Q 640      32.250  56.230  70.870  1.00 42.42 LIG-0.27  OA
ATOM      3  N   VAL Q 641      30.988  55.593  72.623  1.00 42.52 LIG-0.35  N 
ATOM      4 H    VAL Q 641      30.237  55.329  72.948  1.00 42.52 LIG 0.16  HD
ENDROOT
BRANCH 1 5
ATOM      5  CA  GLU Q 640      29.892  55.920  70.499  1.00 42.54 LIG 0.18  C 
BRANCH 5 6
ATOM      6  CB  GLU Q 640      29.236  54.539  70.555  1.00 42.65 LIG 0.04  C 
BRANCH 6 7
ATOM      7  CG  GLU Q 640      28.901  53.954  69.189  1.00 42.42 LIG 0.12  C 
BRANCH 7 8
ATOM      8  CD  GLU Q 640      30.133  53.648  68.352  1.00 42.56 LIG 0.17  C 
ATOM      9 OE2  GLU Q 640      30.232  54.194  67.227  1.00 42.27 LIG-0.65  OA
ATOM     10 OE1  GLU Q 640      31.002  52.865  68.812  1.00 42.60 LIG-0.65  OA
ENDBRANCH 7 8
ENDBRANCH 6 7
ENDBRANCH 5 6
BRANCH 5 11
ATOM     11  N   GLU Q 640      30.097  56.345  69.112  1.00 42.67 LIG-0.35  N 
ATOM     12  C   GLU Q 639      29.114  56.894  68.401  1.00 42.69 LIG 0.26  C 
ATOM     13 O    GLU Q 639      28.023  57.196  68.887  1.00 42.71 LIG-0.27  OA
ATOM     14 H    GLU Q 640      30.890  56.209  68.811  1.00 42.67 LIG 0.16  HD
BRANCH 12 15
ATOM     15  CA  GLU Q 639      29.391  57.136  66.917  1.00 42.78 LIG 0.40  C 
ATOM     16  N   GLU Q 639      28.677  56.182  66.018  1.00 42.84 LIG 0.61  N 
BRANCH 15 17
ATOM     17  CB  GLU Q 639      29.037  58.585  66.564  1.00 42.78 LIG 0.06  C 
BRANCH 17 18
ATOM     18  CG  GLU Q 639      30.225  59.439  66.156  1.00 43.01 LIG 0.12  C 
BRANCH 18 19
ATOM     19  CD  GLU Q 639      31.218  59.656  67.289  1.00 43.16 LIG 0.17  C 
ATOM     20 OE1  GLU Q 639      31.225  58.859  68.254  1.00 43.27 LIG-0.65  OA
ATOM     21 OE2  GLU Q 639      31.997  60.628  67.211  1.00 43.17 LIG-0.65  OA
ENDBRANCH 18 19
ENDBRANCH 17 18
ENDBRANCH 15 17
ENDBRANCH 12 15
ENDBRANCH 5 11
ENDBRANCH 1 5
BRANCH 3 22
ATOM     22  CA  VAL Q 641      32.071  55.635  73.595  1.00 42.43 LIG 0.18  C 
BRANCH 22 23
ATOM     23  C   VAL Q 641      33.103  54.521  73.330  1.00 42.31 LIG 0.24  C 
ATOM     24 O    VAL Q 641      32.848  53.604  72.545  1.00 42.15 LIG-0.27  OA
ATOM     25  N   ASP Q 642      34.267  54.618  73.971  1.00 42.19 LIG-0.35  N 
ATOM     26 H    ASP Q 642      34.459  55.250  74.521  1.00 42.19 LIG 0.16  HD
BRANCH 25 27
ATOM     27  CA  ASP Q 642      35.338  53.631  73.787  1.00 42.17 LIG 0.17  C 
BRANCH 27 28
ATOM     28  CB  ASP Q 642      34.890  52.241  74.255  1.00 42.21 LIG 0.15  C 
BRANCH 28 29
ATOM     29  CG  ASP Q 642      35.047  52.039  75.755  1.00 42.38 LIG 0.17  C 
ATOM     30 OD1  ASP Q 642      35.729  52.854  76.416  1.00 42.36 LIG-0.65  OA
ATOM     31 OD2  ASP Q 642      34.483  51.049  76.273  1.00 42.41 LIG-0.65  OA
ENDBRANCH 28 29
ENDBRANCH 27 28
BRANCH 27 32
ATOM     32  C   ASP Q 642      35.841  53.562  72.343  1.00 42.05 LIG 0.22  C 
ATOM     33 O    ASP Q 642      35.973  54.582  71.668  1.00 41.78 LIG-0.29  OA
ENDBRANCH 27 32
ENDBRANCH 25 27
ENDBRANCH 22 23
BRANCH 22 34
ATOM     34  CB  VAL Q 641      31.488  55.593  75.037  1.00 42.38 LIG 0.01  C 
ATOM     35  CG2 VAL Q 641      32.304  56.433  75.965  1.00 42.63 LIG 0.01  C 
ATOM     36  CG1 VAL Q 641      31.347  54.161  75.560  1.00 42.36 LIG 0.01  C 
ENDBRANCH 22 34
ENDBRANCH 3 22
TORSDOF 16
ENDMDL
MODEL 13
USER: ADFR SOLUTION from run 25
USER: SCORE 14.931303 LL:  -2.847 LR: -12.208 RR:   0.000 FEB:  -7.436
USER: RMSD 4.447417
USER: SEED 24
USER: STATUS no improvement in best in 4 clusters for 5 generations
USER: GENES 18
USER: genes 0 Translation |==|  0.51072 0.54991 0.52240
USER: genes 1 Rotation |==|  0.34908 0.55035 0.30232 0.93083
USER: genes 2 Torsion [N]-C--CA-[N] |==|  0.88377
USER: genes 3 Torsion [C]-CA--CB-[CG] |==|  0.37302
USER: genes 4 Torsion [CA]-CB--CG-[CD] |==|  0.74175
USER: genes 5 Torsion [CB]-CG--CD-[OE2] |==|  0.21723
USER: genes 6 Torsion [C]-CA--N-[C] |==|  0.82222
USER: genes 7 Torsion [N]-C--CA-[N] |==|  0.68879
USER: genes 8 Torsion [C]-CA--CB-[CG] |==|  0.47645
USER: genes 9 Torsion [CA]-CB--CG-[CD] |==|  0.25066
USER: genes 10 Torsion [CB]-CG--CD-[OE2] |==|  0.43123
USER: genes 11 Torsion [C]-N--CA-[C] |==|  0.82847
USER: genes 12 Torsion [N]-CA--C-[N] |==|  0.42338
USER: genes 13 Torsion [C]-N--CA-[CB] |==|  0.49691
USER: genes 14 Torsion [N]-CA--CB-[CG] |==|  0.33482
USER: genes 15 Torsion [CA]-CB--CG-[OD1] |==|  0.80283
USER: genes 16 Torsion [N]-CA--C-[O] |==|  0.40496
USER: genes 17 Torsion [N]-CA--CB-[CG2] |==|  0.66651
ROOT
ATOM      1  C   GLU Q 640      31.098  57.052  71.658  1.00 42.49 LIG 0.24  C 
ATOM      2 O    GLU Q 640      31.990  56.462  71.053  1.00 42.42 LIG-0.27  OA
ATOM      3  N   VAL Q 641      31.108  57.239  72.974  1.00 42.52 LIG-0.35  N 
ATOM      4 H    VAL Q 641      30.458  57.598  73.407  1.00 42.52 LIG 0.16  HD
ENDROOT
BRANCH 1 5
ATOM      5  CA  GLU Q 640      29.877  57.608  70.932  1.00 42.54 LIG 0.18  C 
BRANCH 5 6
ATOM      6  CB  GLU Q 640      30.072  59.097  70.636  1.00 42.65 LIG 0.04  C 
BRANCH 6 7
ATOM      7  CG  GLU Q 640      29.695  59.503  69.218  1.00 42.42 LIG 0.12  C 
BRANCH 7 8
ATOM      8  CD  GLU Q 640      30.873  59.477  68.255  1.00 42.56 LIG 0.17  C 
ATOM      9 OE2  GLU Q 640      31.247  58.364  67.812  1.00 42.27 LIG-0.65  OA
ATOM     10 OE1  GLU Q 640      31.425  60.561  67.941  1.00 42.60 LIG-0.65  OA
ENDBRANCH 7 8
ENDBRANCH 6 7
ENDBRANCH 5 6
BRANCH 5 11
ATOM     11  N   GLU Q 640      28.609  57.374  71.624  1.00 42.67 LIG-0.35  N 
ATOM     12  C   GLU Q 639      28.141  56.144  71.824  1.00 42.69 LIG 0.26  C 
ATOM     13 O    GLU Q 639      28.790  55.129  71.561  1.00 42.71 LIG-0.27  OA
ATOM     14 H    GLU Q 640      28.207  58.089  71.883  1.00 42.67 LIG 0.16  HD
BRANCH 12 15
ATOM     15  CA  GLU Q 639      26.729  56.028  72.399  1.00 42.78 LIG 0.40  C 
ATOM     16  N   GLU Q 639      26.700  55.479  73.787  1.00 42.84 LIG 0.61  N 
BRANCH 15 17
ATOM     17  CB  GLU Q 639      26.043  57.397  72.341  1.00 42.78 LIG 0.06  C 
BRANCH 17 18
ATOM     18  CG  GLU Q 639      24.566  57.373  72.696  1.00 43.01 LIG 0.12  C 
BRANCH 18 19
ATOM     19  CD  GLU Q 639      24.309  57.587  74.181  1.00 43.16 LIG 0.17  C 
ATOM     20 OE1  GLU Q 639      25.207  57.301  75.003  1.00 43.27 LIG-0.65  OA
ATOM     21 OE2  GLU Q 639      23.201  58.049  74.526  1.00 43.17 LIG-0.65  OA
ENDBRANCH 18 19
ENDBRANCH 17 18
ENDBRANCH 15 17
ENDBRANCH 12 15
ENDBRANCH 5 11
ENDBRANCH 1 5
BRANCH 3 22
ATOM     22  CA  VAL Q 641      32.233  56.848  73.810  1.00 42.43 LIG 0.18  C 
BRANCH 22 23
ATOM     23  C   VAL Q 641      32.474  55.327  73.748  1.00 42.31 LIG 0.24  C 
ATOM     24 O    VAL Q 641      31.547  54.555  73.490  1.00 42.15 LIG-0.27  OA
ATOM     25  N   ASP Q 642      33.720  54.908  73.964  1.00 42.19 LIG-0.35  N 
ATOM     26 H    ASP Q 642      34.377  55.433  74.145  1.00 42.19 LIG 0.16  HD
BRANCH 25 27
ATOM     27  CA  ASP Q 642      34.081  53.487  73.911  1.00 42.17 LIG 0.17  C 
BRANCH 27 28
ATOM     28  CB  ASP Q 642      35.580  53.291  74.171  1.00 42.21 LIG 0.15  C 
BRANCH 28 29
ATOM     29  CG  ASP Q 642      35.865  52.412  75.380  1.00 42.38 LIG 0.17  C 
ATOM     30 OD1  ASP Q 642      35.634  52.856  76.528  1.00 42.36 LIG-0.65  OA
ATOM     31 OD2  ASP Q 642      36.329  51.269  75.175  1.00 42.41 LIG-0.65  OA
ENDBRANCH 28 29
ENDBRANCH 27 28
BRANCH 27 32
ATOM     32  C   ASP Q 642      33.265  52.629  74.882  1.00 42.05 LIG 0.22  C 
ATOM     33 O    ASP Q 642      32.947  51.475  74.596  1.00 41.78 LIG-0.29  OA
ENDBRANCH 27 32
ENDBRANCH 25 27
ENDBRANCH 22 23
BRANCH 22 34
ATOM     34  CB  VAL Q 641      32.018  57.369  75.261  1.00 42.38 LIG 0.01  C 
ATOM     35  CG2 VAL Q 641      33.123  58.291  75.663  1.00 42.63 LIG 0.01  C 
ATOM     36  CG1 VAL Q 641      31.853  56.226  76.266  1.00 42.36 LIG 0.01  C 
ENDBRANCH 22 34
ENDBRANCH 3 22
TORSDOF 16
ENDMDL
MODEL 14
USER: ADFR SOLUTION from run 34
USER: SCORE 14.454230 LL:  -2.480 LR: -12.134 RR:   0.000 FEB:  -7.361
USER: RMSD 3.822449
USER: SEED 33
USER: STATUS no improvement in best in 4 clusters for 5 generations
USER: GENES 18
USER: genes 0 Translation |==|  0.50429 0.51677 0.50324
USER: genes 1 Rotation |==|  0.34201 0.52771 0.37485 0.95674
USER: genes 2 Torsion [N]-C--CA-[N] |==|  0.03889
USER: genes 3 Torsion [C]-CA--CB-[CG] |==|  0.23918
USER: genes 4 Torsion [CA]-CB--CG-[CD] |==|  0.63916
USER: genes 5 Torsion [CB]-CG--CD-[OE2] |==|  0.95487
USER: genes 6 Torsion [C]-CA--N-[C] |==|  0.66320
USER: genes 7 Torsion [N]-C--CA-[N] |==|  0.24993
USER: genes 8 Torsion [C]-CA--CB-[CG] |==|  0.41677
USER: genes 9 Torsion [CA]-CB--CG-[CD] |==|  0.21912
USER: genes 10 Torsion [CB]-CG--CD-[OE2] |==|  0.34105
USER: genes 11 Torsion [C]-N--CA-[C] |==|  0.83731
USER: genes 12 Torsion [N]-CA--C-[N] |==|  0.37238
USER: genes 13 Torsion [C]-N--CA-[CB] |==|  0.49383
USER: genes 14 Torsion [N]-CA--CB-[CG] |==|  0.86488
USER: genes 15 Torsion [CA]-CB--CG-[OD1] |==|  0.11541
USER: genes 16 Torsion [N]-CA--C-[O] |==|  0.83520
USER: genes 17 Torsion [N]-CA--CB-[CG2] |==|  0.62878
ROOT
ATOM      1  C   GLU Q 640      30.963  56.506  71.313  1.00 42.49 LIG 0.24  C 
ATOM      2 O    GLU Q 640      31.990  56.227  70.698  1.00 42.42 LIG-0.27  OA
ATOM      3  N   VAL Q 641      30.927  56.687  72.629  1.00 42.52 LIG-0.35  N 
ATOM      4 H    VAL Q 641      30.201  56.822  73.070  1.00 42.52 LIG 0.16  HD
ENDROOT
BRANCH 1 5
ATOM      5  CA  GLU Q 640      29.622  56.645  70.600  1.00 42.54 LIG 0.18  C 
BRANCH 5 6
ATOM      6  CB  GLU Q 640      29.803  57.391  69.277  1.00 42.65 LIG 0.04  C 
BRANCH 6 7
ATOM      7  CG  GLU Q 640      30.190  56.496  68.107  1.00 42.42 LIG 0.12  C 
BRANCH 7 8
ATOM      8  CD  GLU Q 640      31.395  57.011  67.333  1.00 42.56 LIG 0.17  C 
ATOM      9 OE2  GLU Q 640      31.739  58.205  67.505  1.00 42.27 LIG-0.65  OA
ATOM     10 OE1  GLU Q 640      31.997  56.229  66.556  1.00 42.60 LIG-0.65  OA
ENDBRANCH 7 8
ENDBRANCH 6 7
ENDBRANCH 5 6
BRANCH 5 11
ATOM     11  N   GLU Q 640      28.573  57.266  71.411  1.00 42.67 LIG-0.35  N 
ATOM     12  C   GLU Q 639      27.431  56.634  71.675  1.00 42.69 LIG 0.26  C 
ATOM     13 O    GLU Q 639      27.232  55.456  71.373  1.00 42.71 LIG-0.27  OA
ATOM     14 H    GLU Q 640      28.760  58.057  71.691  1.00 42.67 LIG 0.16  HD
BRANCH 12 15
ATOM     15  CA  GLU Q 639      26.343  57.443  72.380  1.00 42.78 LIG 0.40  C 
ATOM     16  N   GLU Q 639      25.424  58.147  71.437  1.00 42.84 LIG 0.61  N 
BRANCH 15 17
ATOM     17  CB  GLU Q 639      25.556  56.526  73.322  1.00 42.78 LIG 0.06  C 
BRANCH 17 18
ATOM     18  CG  GLU Q 639      24.987  57.223  74.546  1.00 43.01 LIG 0.12  C 
BRANCH 18 19
ATOM     19  CD  GLU Q 639      23.717  58.006  74.246  1.00 43.16 LIG 0.17  C 
ATOM     20 OE1  GLU Q 639      23.741  58.895  73.367  1.00 43.27 LIG-0.65  OA
ATOM     21 OE2  GLU Q 639      22.686  57.726  74.893  1.00 43.17 LIG-0.65  OA
ENDBRANCH 18 19
ENDBRANCH 17 18
ENDBRANCH 15 17
ENDBRANCH 12 15
ENDBRANCH 5 11
ENDBRANCH 1 5
BRANCH 3 22
ATOM     22  CA  VAL Q 641      32.126  56.674  73.454  1.00 42.43 LIG 0.18  C 
BRANCH 22 23
ATOM     23  C   VAL Q 641      32.879  55.335  73.324  1.00 42.31 LIG 0.24  C 
ATOM     24 O    VAL Q 641      32.266  54.265  73.363  1.00 42.15 LIG-0.27  OA
ATOM     25  N   ASP Q 642      34.199  55.404  73.150  1.00 42.19 LIG-0.35  N 
ATOM     26 H    ASP Q 642      34.639  56.141  73.121  1.00 42.19 LIG 0.16  HD
BRANCH 25 27
ATOM     27  CA  ASP Q 642      35.024  54.201  72.993  1.00 42.17 LIG 0.17  C 
BRANCH 27 28
ATOM     28  CB  ASP Q 642      36.493  54.570  72.756  1.00 42.21 LIG 0.15  C 
BRANCH 28 29
ATOM     29  CG  ASP Q 642      36.673  55.629  71.678  1.00 42.38 LIG 0.17  C 
ATOM     30 OD1  ASP Q 642      35.887  56.603  71.637  1.00 42.36 LIG-0.65  OA
ATOM     31 OD2  ASP Q 642      37.610  55.479  70.862  1.00 42.41 LIG-0.65  OA
ENDBRANCH 28 29
ENDBRANCH 27 28
BRANCH 27 32
ATOM     32  C   ASP Q 642      34.910  53.242  74.182  1.00 42.05 LIG 0.22  C 
ATOM     33 O    ASP Q 642      35.210  53.604  75.319  1.00 41.78 LIG-0.29  OA
ENDBRANCH 27 32
ENDBRANCH 25 27
ENDBRANCH 22 23
BRANCH 22 34
ATOM     34  CB  VAL Q 641      31.759  57.024  74.925  1.00 42.38 LIG 0.01  C 
ATOM     35  CG2 VAL Q 641      32.706  58.037  75.482  1.00 42.63 LIG 0.01  C 
ATOM     36  CG1 VAL Q 641      31.690  55.779  75.814  1.00 42.36 LIG 0.01  C 
ENDBRANCH 22 34
ENDBRANCH 3 22
TORSDOF 16
ENDMDL
MODEL 15
USER: ADFR SOLUTION from run 88
USER: SCORE 13.645622 LL:  -2.055 LR: -11.881 RR:   0.000 FEB:  -7.108
USER: RMSD 2.803561
USER: SEED 87
USER: STATUS no improvement in best in 8 clusters for 5 generations
USER: GENES 18
USER: genes 0 Translation |==|  0.50245 0.52570 0.50094
USER: genes 1 Rotation |==|  0.32627 0.54539 0.36058 0.94533
USER: genes 2 Torsion [N]-C--CA-[N] |==|  0.13815
USER: genes 3 Torsion [C]-CA--CB-[CG] |==|  0.28745
USER: genes 4 Torsion [CA]-CB--CG-[CD] |==|  0.67973
USER: genes 5 Torsion [CB]-CG--CD-[OE2] |==|  0.28141
USER: genes 6 Torsion [C]-CA--N-[C] |==|  0.17222
USER: genes 7 Torsion [N]-C--CA-[N] |==|  0.53492
USER: genes 8 Torsion [C]-CA--CB-[CG] |==|  0.39507
USER: genes 9 Torsion [CA]-CB--CG-[CD] |==|  0.64872
USER: genes 10 Torsion [CB]-CG--CD-[OE2] |==|  0.59715
USER: genes 11 Torsion [C]-N--CA-[C] |==|  0.84737
USER: genes 12 Torsion [N]-CA--C-[N] |==|  0.40145
USER: genes 13 Torsion [C]-N--CA-[CB] |==|  0.47056
USER: genes 14 Torsion [N]-CA--CB-[CG] |==|  0.87290
USER: genes 15 Torsion [CA]-CB--CG-[OD1] |==|  0.10852
USER: genes 16 Torsion [N]-CA--C-[O] |==|  0.82087
USER: genes 17 Torsion [N]-CA--CB-[CG2] |==|  0.66831
ROOT
ATOM      1  C   GLU Q 640      30.924  56.653  71.272  1.00 42.49 LIG 0.24  C 
ATOM      2 O    GLU Q 640      31.882  56.256  70.612  1.00 42.42 LIG-0.27  OA
ATOM      3  N   VAL Q 641      30.991  56.908  72.574  1.00 42.52 LIG-0.35  N 
ATOM      4 H    VAL Q 641      30.309  57.128  73.050  1.00 42.52 LIG 0.16  HD
ENDROOT
BRANCH 1 5
ATOM      5  CA  GLU Q 640      29.554  56.865  70.637  1.00 42.54 LIG 0.18  C 
BRANCH 5 6
ATOM      6  CB  GLU Q 640      29.636  56.653  69.123  1.00 42.65 LIG 0.04  C 
BRANCH 6 7
ATOM      7  CG  GLU Q 640      29.071  55.319  68.652  1.00 42.42 LIG 0.12  C 
BRANCH 7 8
ATOM      8  CD  GLU Q 640      30.123  54.408  68.038  1.00 42.56 LIG 0.17  C 
ATOM      9 OE2  GLU Q 640      30.577  53.474  68.743  1.00 42.27 LIG-0.65  OA
ATOM     10 OE1  GLU Q 640      30.497  54.620  66.858  1.00 42.60 LIG-0.65  OA
ENDBRANCH 7 8
ENDBRANCH 6 7
ENDBRANCH 5 6
BRANCH 5 11
ATOM     11  N   GLU Q 640      28.941  58.157  70.950  1.00 42.67 LIG-0.35  N 
ATOM     12  C   GLU Q 639      29.510  59.305  70.587  1.00 42.69 LIG 0.26  C 
ATOM     13 O    GLU Q 639      30.507  59.358  69.863  1.00 42.71 LIG-0.27  OA
ATOM     14 H    GLU Q 640      28.198  58.105  71.380  1.00 42.67 LIG 0.16  HD
BRANCH 12 15
ATOM     15  CA  GLU Q 639      28.874  60.589  71.119  1.00 42.78 LIG 0.40  C 
ATOM     16  N   GLU Q 639      29.373  61.821  70.440  1.00 42.84 LIG 0.61  N 
BRANCH 15 17
ATOM     17  CB  GLU Q 639      27.349  60.485  71.005  1.00 42.78 LIG 0.06  C 
BRANCH 17 18
ATOM     18  CG  GLU Q 639      26.591  61.104  72.166  1.00 43.01 LIG 0.12  C 
BRANCH 18 19
ATOM     19  CD  GLU Q 639      25.599  60.144  72.808  1.00 43.16 LIG 0.17  C 
ATOM     20 OE1  GLU Q 639      25.887  58.929  72.880  1.00 43.27 LIG-0.65  OA
ATOM     21 OE2  GLU Q 639      24.527  60.610  73.246  1.00 43.17 LIG-0.65  OA
ENDBRANCH 18 19
ENDBRANCH 17 18
ENDBRANCH 15 17
ENDBRANCH 12 15
ENDBRANCH 5 11
ENDBRANCH 1 5
BRANCH 3 22
ATOM     22  CA  VAL Q 641      32.238  56.840  73.321  1.00 42.43 LIG 0.18  C 
BRANCH 22 23
ATOM     23  C   VAL Q 641      32.916  55.466  73.152  1.00 42.31 LIG 0.24  C 
ATOM     24 O    VAL Q 641      32.237  54.441  73.044  1.00 42.15 LIG-0.27  OA
ATOM     25  N   ASP Q 642      34.248  55.455  73.111  1.00 42.19 LIG-0.35  N 
ATOM     26 H    ASP Q 642      34.734  56.160  73.185  1.00 42.19 LIG 0.16  HD
BRANCH 25 27
ATOM     27  CA  ASP Q 642      35.009  54.213  72.932  1.00 42.17 LIG 0.17  C 
BRANCH 27 28
ATOM     28  CB  ASP Q 642      36.488  54.510  72.660  1.00 42.21 LIG 0.15  C 
BRANCH 28 29
ATOM     29  CG  ASP Q 642      36.694  55.611  71.629  1.00 42.38 LIG 0.17  C 
ATOM     30 OD1  ASP Q 642      35.935  56.607  71.636  1.00 42.36 LIG-0.65  OA
ATOM     31 OD2  ASP Q 642      37.623  55.472  70.803  1.00 42.41 LIG-0.65  OA
ENDBRANCH 28 29
ENDBRANCH 27 28
BRANCH 27 32
ATOM     32  C   ASP Q 642      34.876  53.259  74.122  1.00 42.05 LIG 0.22  C 
ATOM     33 O    ASP Q 642      35.307  53.567  75.233  1.00 41.78 LIG-0.29  OA
ENDBRANCH 27 32
ENDBRANCH 25 27
ENDBRANCH 22 23
BRANCH 22 34
ATOM     34  CB  VAL Q 641      31.982  57.211  74.811  1.00 42.38 LIG 0.01  C 
ATOM     35  CG2 VAL Q 641      32.776  58.414  75.202  1.00 42.63 LIG 0.01  C 
ATOM     36  CG1 VAL Q 641      32.253  56.034  75.753  1.00 42.36 LIG 0.01  C 
ENDBRANCH 22 34
ENDBRANCH 3 22
TORSDOF 16
ENDMDL
MODEL 16
USER: ADFR SOLUTION from run 6
USER: SCORE 14.002267 LL:  -2.748 LR: -11.848 RR:   0.000 FEB:  -7.075
USER: RMSD 3.131279
USER: SEED 291579
USER: STATUS no improvement in best in 10 clusters for 5 generations
USER: GENES 18
USER: genes 0 Translation |==|  0.51883 0.51189 0.53584
USER: genes 1 Rotation |==|  0.52061 0.48074 0.39148 0.98727
USER: genes 2 Torsion [N]-C--CA-[N] |==|  0.32447
USER: genes 3 Torsion [C]-CA--CB-[CG] |==|  0.23535
USER: genes 4 Torsion [CA]-CB--CG-[CD] |==|  0.65846
USER: genes 5 Torsion [CB]-CG--CD-[OE2] |==|  0.72745
USER: genes 6 Torsion [C]-CA--N-[C] |==|  0.57919
USER: genes 7 Torsion [N]-C--CA-[N] |==|  0.96319
USER: genes 8 Torsion [C]-CA--CB-[CG] |==|  0.89583
USER: genes 9 Torsion [CA]-CB--CG-[CD] |==|  0.83140
USER: genes 10 Torsion [CB]-CG--CD-[OE2] |==|  0.40198
USER: genes 11 Torsion [C]-N--CA-[C] |==|  0.67777
USER: genes 12 Torsion [N]-CA--C-[N] |==|  0.47591
USER: genes 13 Torsion [C]-N--CA-[CB] |==|  0.45781
USER: genes 14 Torsion [N]-CA--CB-[CG] |==|  0.94988
USER: genes 15 Torsion [CA]-CB--CG-[OD1] |==|  0.29594
USER: genes 16 Torsion [N]-CA--C-[O] |==|  0.71845
USER: genes 17 Torsion [N]-CA--CB-[CG2] |==|  0.61767
ROOT
ATOM      1  C   GLU Q 640      31.269  56.425  71.900  1.00 42.49 LIG 0.24  C 
ATOM      2 O    GLU Q 640      32.460  56.583  71.644  1.00 42.42 LIG-0.27  OA
ATOM      3  N   VAL Q 641      30.832  55.751  72.958  1.00 42.52 LIG-0.35  N 
ATOM      4 H    VAL Q 641      30.001  55.587  73.108  1.00 42.52 LIG 0.16  HD
ENDROOT
BRANCH 1 5
ATOM      5  CA  GLU Q 640      30.179  56.984  70.991  1.00 42.54 LIG 0.18  C 
BRANCH 5 6
ATOM      6  CB  GLU Q 640      30.284  56.360  69.597  1.00 42.65 LIG 0.04  C 
BRANCH 6 7
ATOM      7  CG  GLU Q 640      29.576  55.019  69.463  1.00 42.42 LIG 0.12  C 
BRANCH 7 8
ATOM      8  CD  GLU Q 640      30.498  53.900  69.002  1.00 42.56 LIG 0.17  C 
ATOM      9 OE2  GLU Q 640      30.495  53.597  67.785  1.00 42.27 LIG-0.65  OA
ATOM     10 OE1  GLU Q 640      31.224  53.323  69.850  1.00 42.60 LIG-0.65  OA
ENDBRANCH 7 8
ENDBRANCH 6 7
ENDBRANCH 5 6
BRANCH 5 11
ATOM     11  N   GLU Q 640      30.158  58.446  70.908  1.00 42.67 LIG-0.35  N 
ATOM     12  C   GLU Q 639      29.032  59.113  70.663  1.00 42.69 LIG 0.26  C 
ATOM     13 O    GLU Q 639      27.927  58.569  70.617  1.00 42.71 LIG-0.27  OA
ATOM     14 H    GLU Q 640      30.922  58.821  71.030  1.00 42.67 LIG 0.16  HD
BRANCH 12 15
ATOM     15  CA  GLU Q 639      29.161  60.618  70.426  1.00 42.78 LIG 0.40  C 
ATOM     16  N   GLU Q 639      30.495  61.166  70.813  1.00 42.84 LIG 0.61  N 
BRANCH 15 17
ATOM     17  CB  GLU Q 639      28.851  60.930  68.958  1.00 42.78 LIG 0.06  C 
BRANCH 17 18
ATOM     18  CG  GLU Q 639      29.361  59.892  67.975  1.00 43.01 LIG 0.12  C 
BRANCH 18 19
ATOM     19  CD  GLU Q 639      30.873  59.727  68.015  1.00 43.16 LIG 0.17  C 
ATOM     20 OE1  GLU Q 639      31.590  60.728  68.232  1.00 43.27 LIG-0.65  OA
ATOM     21 OE2  GLU Q 639      31.346  58.586  67.833  1.00 43.17 LIG-0.65  OA
ENDBRANCH 18 19
ENDBRANCH 17 18
ENDBRANCH 15 17
ENDBRANCH 12 15
ENDBRANCH 5 11
ENDBRANCH 1 5
BRANCH 3 22
ATOM     22  CA  VAL Q 641      31.731  55.222  73.974  1.00 42.43 LIG 0.18  C 
BRANCH 22 23
ATOM     23  C   VAL Q 641      31.682  53.682  74.016  1.00 42.31 LIG 0.24  C 
ATOM     24 O    VAL Q 641      30.846  53.063  73.353  1.00 42.15 LIG-0.27  OA
ATOM     25  N   ASP Q 642      32.590  53.074  74.779  1.00 42.19 LIG-0.35  N 
ATOM     26 H    ASP Q 642      33.178  53.491  75.247  1.00 42.19 LIG 0.16  HD
BRANCH 25 27
ATOM     27  CA  ASP Q 642      32.660  51.612  74.886  1.00 42.17 LIG 0.17  C 
BRANCH 27 28
ATOM     28  CB  ASP Q 642      33.991  51.170  75.506  1.00 42.21 LIG 0.15  C 
BRANCH 28 29
ATOM     29  CG  ASP Q 642      35.060  52.252  75.453  1.00 42.38 LIG 0.17  C 
ATOM     30 OD1  ASP Q 642      35.376  52.854  76.505  1.00 42.36 LIG-0.65  OA
ATOM     31 OD2  ASP Q 642      35.583  52.503  74.345  1.00 42.41 LIG-0.65  OA
ENDBRANCH 28 29
ENDBRANCH 27 28
BRANCH 27 32
ATOM     32  C   ASP Q 642      31.491  51.017  75.676  1.00 42.05 LIG 0.22  C 
ATOM     33 O    ASP Q 642      31.629  50.671  76.848  1.00 41.78 LIG-0.29  OA
ENDBRANCH 27 32
ENDBRANCH 25 27
ENDBRANCH 22 23
BRANCH 22 34
ATOM     34  CB  VAL Q 641      31.416  55.878  75.350  1.00 42.38 LIG 0.01  C 
ATOM     35  CG2 VAL Q 641      32.677  56.234  76.069  1.00 42.63 LIG 0.01  C 
ATOM     36  CG1 VAL Q 641      30.512  54.995  76.216  1.00 42.36 LIG 0.01  C 
ENDBRANCH 22 34
ENDBRANCH 3 22
TORSDOF 16
ENDMDL
