MODEL 1
USER: ADFR SOLUTION from run 105
USER: SCORE 16.086244 LL:  -3.882 LR: -15.621 RR:   0.000 FEB:  -9.356
USER: RMSD 2.992548
USER: SEED 104
USER: STATUS no improvement in best in 2 clusters for 5 generations
USER: GENES 23
USER: genes 0 Translation |==|  0.48229 0.37021 0.53013
USER: genes 1 Rotation |==|  0.50496 0.46675 0.55790 0.99550
USER: genes 2 Torsion [C]-CA--CB-[CG2] |==|  0.58137
USER: genes 3 Torsion [N]-CA--C-[N] |==|  0.44202
USER: genes 4 Torsion [C]-N--CA-[CB] |==|  0.23038
USER: genes 5 Torsion [N]-CA--C-[N] |==|  0.33029
USER: genes 6 Torsion [C]-N--CA-[CB] |==|  0.49392
USER: genes 7 Torsion [N]-CA--C-[N] |==|  0.39232
USER: genes 8 Torsion [C]-N--CA-[CB] |==|  0.27024
USER: genes 9 Torsion [N]-CA--C-[O] |==|  0.50659
USER: genes 10 Torsion [N]-CA--CB-[CG2] |==|  0.09903
USER: genes 11 Torsion [N]-CA--CB-[OG] |==|  0.78578
USER: genes 12 Torsion [CA]-CB--OG-[HG] |==|  0.29613
USER: genes 13 Torsion [CB]-CA--N-[C] |==|  0.31997
USER: genes 14 Torsion [N]-C--CA-[N] |==|  0.40431
USER: genes 15 Torsion [C]-CA--CB-[CG] |==|  0.87230
USER: genes 16 Torsion [CA]-CB--CG-[CD] |==|  0.83611
USER: genes 17 Torsion [CB]-CG--CD-[OE1] |==|  0.32524
USER: genes 18 Torsion [C]-CA--N-[C] |==|  0.84444
USER: genes 19 Torsion [N]-C--CA-[N] |==|  0.23055
USER: genes 20 Torsion [C]-CA--CB-[CG] |==|  0.15102
USER: genes 21 Torsion [CA]-CB--CG-[CD] |==|  0.54860
USER: genes 22 Torsion [CB]-CG--CD-[OE1] |==|  0.50771
ROOT
ATOM      1  CA  VAL B   5      11.662 -25.186   4.876  1.00 23.44 LIG 0.18  C 
ENDROOT
BRANCH 1 2
ATOM      2  CB  VAL B   5      11.984 -26.583   4.344  1.00 27.20 LIG 0.01  C 
ATOM      3  CG2 VAL B   5      10.899 -27.561   4.680  1.00 32.91 LIG 0.01  C 
ATOM      4  CG1 VAL B   5      13.329 -27.070   4.839  1.00 27.01 LIG 0.01  C 
ENDBRANCH 1 2
BRANCH 1 5
ATOM      5  C   VAL B   5      12.303 -24.131   3.982  1.00 21.98 LIG 0.24  C 
ATOM      6 O    VAL B   5      11.637 -23.595   3.100  1.00 26.26 LIG-0.27  OA
ATOM      7  N   SER B   6      13.599 -23.867   4.158  1.00 19.41 LIG-0.34  N 
ATOM      8 H    SER B   6      14.087 -24.284   4.730  1.00 19.41 LIG 0.16  HD
BRANCH 7 9
ATOM      9  CA  SER B   6      14.319 -22.858   3.412  1.00 20.84 LIG 0.20  C 
BRANCH 9 10
ATOM     10  C   SER B   6      15.807 -23.127   3.360  1.00 18.76 LIG 0.24  C 
ATOM     11 O    SER B   6      16.505 -23.091   4.356  1.00 19.89 LIG-0.27  OA
ATOM     12  N   ALA B   7      16.294 -23.302   2.154  1.00 19.53 LIG-0.35  N 
ATOM     13 H    ALA B   7      15.797 -23.298   1.452  1.00 19.53 LIG 0.16  HD
BRANCH 12 14
ATOM     14  CA  ALA B   7      17.703 -23.517   1.853  1.00 19.70 LIG 0.17  C 
ATOM     15  CB  ALA B   7      17.875 -23.733   0.339  1.00 20.39 LIG 0.04  C 
BRANCH 14 16
ATOM     16  C   ALA B   7      18.562 -22.329   2.248  1.00 16.34 LIG 0.24  C 
ATOM     17  N   VAL B   8      19.748 -22.571   2.773  1.00 16.85 LIG-0.34  N 
ATOM     18 H    VAL B   8      20.036 -23.355   2.977  1.00 16.85 LIG 0.16  HD
ATOM     19 O    ALA B   7      18.170 -21.202   2.022  1.00 20.16 LIG-0.27  OA
BRANCH 17 20
ATOM     20  CA  VAL B   8      20.692 -21.480   3.053  1.00 17.28 LIG 0.19  C 
BRANCH 20 21
ATOM     21  C   VAL B   8      22.093 -21.934   2.661  1.00 17.19 LIG 0.20  C 
ATOM     22 O    VAL B   8      23.069 -21.173   2.856  1.00 24.30 LIG-0.65  OA
ATOM     23 OXT  VAL B   8      22.287 -23.039   2.106  1.00 16.53 LIG-0.65  OA
ENDBRANCH 20 21
BRANCH 20 24
ATOM     24  CB  VAL B   8      20.645 -21.017   4.543  1.00 17.38 LIG 0.01  C 
ATOM     25  CG2 VAL B   8      20.395 -22.223   5.441  1.00 18.61 LIG 0.01  C 
ATOM     26  CG1 VAL B   8      19.628 -19.923   4.731  1.00 19.61 LIG 0.01  C 
ENDBRANCH 20 24
ENDBRANCH 17 20
ENDBRANCH 14 16
ENDBRANCH 12 14
ENDBRANCH 9 10
BRANCH 9 27
ATOM     27  CB  SER B   6      14.110 -21.482   4.030  1.00 25.59 LIG 0.20  C 
BRANCH 27 28
ATOM     28 OG   SER B   6      12.839 -20.975   3.686  1.00 27.26 LIG-0.40  OA
ATOM     29 HG   SER B   6      12.333 -21.009   4.356  1.00 27.26 LIG 0.21  HD
ENDBRANCH 27 28
ENDBRANCH 9 27
ENDBRANCH 7 9
ENDBRANCH 1 5
BRANCH 1 30
ATOM     30  N   VAL B   5      10.237 -24.948   4.859  1.00 22.92 LIG-0.35  N 
ATOM     31 H    VAL B   5       9.902 -24.935   4.067  1.00 22.92 LIG 0.16  HD
ATOM     32  C   GLN B   4       9.512 -24.767   5.952  1.00 24.29 LIG 0.24  C 
ATOM     33 O    GLN B   4       9.944 -24.821   7.086  1.00 26.90 LIG-0.27  OA
BRANCH 32 34
ATOM     34  CA  GLN B   4       8.027 -24.487   5.704  1.00 30.52 LIG 0.18  C 
BRANCH 34 35
ATOM     35  CB  GLN B   4       7.827 -22.973   5.655  1.00 36.61 LIG 0.04  C 
BRANCH 35 36
ATOM     36  CG  GLN B   4       8.532 -22.234   6.780  1.00 50.94 LIG 0.10  C 
BRANCH 36 37
ATOM     37  CD  GLN B   4       8.042 -22.715   8.143  1.00 60.90 LIG 0.21  C 
ATOM     38  NE2 GLN B   4       6.755 -22.523   8.425  1.00 82.36 LIG-0.37  N 
ATOM     39 21HE GLN B   4       6.242 -22.137   7.853  1.00 82.36 LIG 0.16  HD
ATOM     40 22HE GLN B   4       6.436 -22.785   9.180  1.00 82.36 LIG 0.16  HD
ATOM     41 OE1  GLN B   4       8.818 -23.260   8.925  1.00 55.22 LIG-0.27  OA
ENDBRANCH 36 37
ENDBRANCH 35 36
ENDBRANCH 34 35
BRANCH 34 42
ATOM     42  N   GLN B   4       7.216 -25.073   6.752  1.00 37.98 LIG-0.35  N 
ATOM     43  C   GLU B   3       7.272 -26.367   7.052  1.00 56.89 LIG 0.26  C 
ATOM     44 O    GLU B   3       7.956 -27.163   6.423  1.00 56.58 LIG-0.27  OA
ATOM     45 H    GLN B   4       6.703 -24.513   7.155  1.00 37.98 LIG 0.16  HD
BRANCH 43 46
ATOM     46  CA  GLU B   3       6.419 -26.829   8.231  1.00 80.09 LIG 0.40  C 
ATOM     47  N   GLU B   3       5.045 -27.068   7.810  1.00 75.44 LIG 0.61  N 
BRANCH 46 48
ATOM     48  CB  GLU B   3       7.005 -28.100   8.837  1.00107.85 LIG 0.06  C 
BRANCH 48 49
ATOM     49  CG  GLU B   3       8.458 -27.972   9.229  1.00114.95 LIG 0.12  C 
BRANCH 49 50
ATOM     50  CD  GLU B   3       9.121 -29.322   9.421  1.00 96.82 LIG 0.17  C 
ATOM     51 OE1  GLU B   3      10.316 -29.356   9.800  1.00 91.15 LIG-0.65  OA
ATOM     52 OE2  GLU B   3       8.443 -30.354   9.206  1.00 91.13 LIG-0.65  OA
ENDBRANCH 49 50
ENDBRANCH 48 49
ENDBRANCH 46 48
ENDBRANCH 43 46
ENDBRANCH 34 42
ENDBRANCH 32 34
ENDBRANCH 1 30
TORSDOF 21
ENDMDL
MODEL 2
USER: ADFR SOLUTION from run 46
USER: SCORE 15.863017 LL:  -3.541 LR: -15.378 RR:   0.000 FEB:  -9.114
USER: RMSD 4.750201
USER: SEED 45
USER: STATUS no improvement in best in 5 clusters for 5 generations
USER: GENES 23
USER: genes 0 Translation |==|  0.46214 0.43104 0.57771
USER: genes 1 Rotation |==|  0.53083 0.56074 0.45644 0.99342
USER: genes 2 Torsion [C]-CA--CB-[CG2] |==|  0.14923
USER: genes 3 Torsion [N]-CA--C-[N] |==|  0.40792
USER: genes 4 Torsion [C]-N--CA-[CB] |==|  0.19820
USER: genes 5 Torsion [N]-CA--C-[N] |==|  0.38800
USER: genes 6 Torsion [C]-N--CA-[CB] |==|  0.48899
USER: genes 7 Torsion [N]-CA--C-[N] |==|  0.39056
USER: genes 8 Torsion [C]-N--CA-[CB] |==|  0.23275
USER: genes 9 Torsion [N]-CA--C-[O] |==|  0.77523
USER: genes 10 Torsion [N]-CA--CB-[CG2] |==|  0.06316
USER: genes 11 Torsion [N]-CA--CB-[OG] |==|  0.78336
USER: genes 12 Torsion [CA]-CB--OG-[HG] |==|  0.22390
USER: genes 13 Torsion [CB]-CA--N-[C] |==|  0.21508
USER: genes 14 Torsion [N]-C--CA-[N] |==|  0.01667
USER: genes 15 Torsion [C]-CA--CB-[CG] |==|  0.19144
USER: genes 16 Torsion [CA]-CB--CG-[CD] |==|  0.41115
USER: genes 17 Torsion [CB]-CG--CD-[OE1] |==|  0.85606
USER: genes 18 Torsion [C]-CA--N-[C] |==|  0.60045
USER: genes 19 Torsion [N]-C--CA-[N] |==|  0.18697
USER: genes 20 Torsion [C]-CA--CB-[CG] |==|  0.27362
USER: genes 21 Torsion [CA]-CB--CG-[CD] |==|  0.57278
USER: genes 22 Torsion [CB]-CG--CD-[OE1] |==|  0.72191
ROOT
ATOM      1  CA  VAL B   5      11.057 -24.137   5.697  1.00 23.44 LIG 0.18  C 
ENDROOT
BRANCH 1 2
ATOM      2  CB  VAL B   5      10.594 -25.453   5.071  1.00 27.20 LIG 0.01  C 
ATOM      3  CG2 VAL B   5      11.710 -26.131   4.333  1.00 32.91 LIG 0.01  C 
ATOM      4  CG1 VAL B   5       9.393 -25.250   4.174  1.00 27.01 LIG 0.01  C 
ENDBRANCH 1 2
BRANCH 1 5
ATOM      5  C   VAL B   5      11.696 -23.254   4.631  1.00 21.98 LIG 0.24  C 
ATOM      6 O    VAL B   5      10.987 -22.543   3.925  1.00 26.26 LIG-0.27  OA
ATOM      7  N   SER B   6      13.019 -23.332   4.466  1.00 19.41 LIG-0.34  N 
ATOM      8 H    SER B   6      13.514 -23.874   4.913  1.00 19.41 LIG 0.16  HD
BRANCH 7 9
ATOM      9  CA  SER B   6      13.757 -22.518   3.526  1.00 20.84 LIG 0.20  C 
BRANCH 9 10
ATOM     10  C   SER B   6      15.176 -23.006   3.326  1.00 18.76 LIG 0.24  C 
ATOM     11 O    SER B   6      15.887 -23.325   4.261  1.00 19.89 LIG-0.27  OA
ATOM     12  N   ALA B   7      15.604 -22.961   2.086  1.00 19.53 LIG-0.35  N 
ATOM     13 H    ALA B   7      15.103 -22.708   1.435  1.00 19.53 LIG 0.16  HD
BRANCH 12 14
ATOM     14  CA  ALA B   7      16.950 -23.325   1.662  1.00 19.70 LIG 0.17  C 
ATOM     15  CB  ALA B   7      17.044 -23.238   0.129  1.00 20.39 LIG 0.04  C 
BRANCH 14 16
ATOM     16  C   ALA B   7      18.003 -22.397   2.240  1.00 16.34 LIG 0.24  C 
ATOM     17  N   VAL B   8      19.142 -22.928   2.642  1.00 16.85 LIG-0.34  N 
ATOM     18 H    VAL B   8      19.298 -23.773   2.671  1.00 16.85 LIG 0.16  HD
ATOM     19 O    ALA B   7      17.801 -21.200   2.264  1.00 20.16 LIG-0.27  OA
BRANCH 17 20
ATOM     20  CA  VAL B   8      20.261 -22.084   3.084  1.00 17.28 LIG 0.19  C 
BRANCH 20 21
ATOM     21  C   VAL B   8      21.566 -22.831   2.832  1.00 17.19 LIG 0.20  C 
ATOM     22 O    VAL B   8      21.949 -23.702   3.647  1.00 24.30 LIG-0.65  OA
ATOM     23 OXT  VAL B   8      22.289 -22.562   1.846  1.00 16.53 LIG-0.65  OA
ENDBRANCH 20 21
BRANCH 20 24
ATOM     24  CB  VAL B   8      20.134 -21.658   4.580  1.00 17.38 LIG 0.01  C 
ATOM     25  CG2 VAL B   8      19.238 -22.649   5.316  1.00 18.61 LIG 0.01  C 
ATOM     26  CG1 VAL B   8      19.654 -20.236   4.693  1.00 19.61 LIG 0.01  C 
ENDBRANCH 20 24
ENDBRANCH 17 20
ENDBRANCH 14 16
ENDBRANCH 12 14
ENDBRANCH 9 10
BRANCH 9 27
ATOM     27  CB  SER B   6      13.817 -21.071   3.998  1.00 25.59 LIG 0.20  C 
BRANCH 27 28
ATOM     28 OG   SER B   6      12.596 -20.415   3.736  1.00 27.26 LIG-0.40  OA
ATOM     29 HG   SER B   6      12.039 -20.611   4.333  1.00 27.26 LIG 0.21  HD
ENDBRANCH 27 28
ENDBRANCH 9 27
ENDBRANCH 7 9
ENDBRANCH 1 5
BRANCH 1 30
ATOM     30  N   VAL B   5       9.936 -23.405   6.238  1.00 22.92 LIG-0.35  N 
ATOM     31 H    VAL B   5       9.681 -22.751   5.740  1.00 22.92 LIG 0.16  HD
ATOM     32  C   GLN B   4       9.351 -23.704   7.388  1.00 24.29 LIG 0.24  C 
ATOM     33 O    GLN B   4       9.656 -24.644   8.095  1.00 26.90 LIG-0.27  OA
BRANCH 32 34
ATOM     34  CA  GLN B   4       8.208 -22.771   7.795  1.00 30.52 LIG 0.18  C 
BRANCH 34 35
ATOM     35  CB  GLN B   4       6.977 -23.625   8.096  1.00 36.61 LIG 0.04  C 
BRANCH 35 36
ATOM     36  CG  GLN B   4       7.120 -24.468   9.351  1.00 50.94 LIG 0.10  C 
BRANCH 36 37
ATOM     37  CD  GLN B   4       5.772 -24.655  10.042  1.00 60.90 LIG 0.21  C 
ATOM     38  NE2 GLN B   4       5.416 -25.902  10.346  1.00 82.36 LIG-0.37  N 
ATOM     39 21HE GLN B   4       5.934 -26.558  10.146  1.00 82.36 LIG 0.16  HD
ATOM     40 22HE GLN B   4       4.667 -26.050  10.742  1.00 82.36 LIG 0.16  HD
ATOM     41 OE1  GLN B   4       5.069 -23.682  10.306  1.00 55.22 LIG-0.27  OA
ENDBRANCH 36 37
ENDBRANCH 35 36
ENDBRANCH 34 35
BRANCH 34 42
ATOM     42  N   GLN B   4       7.923 -21.823   6.736  1.00 37.98 LIG-0.35  N 
ATOM     43  C   GLU B   3       7.565 -20.568   6.986  1.00 56.89 LIG 0.26  C 
ATOM     44 O    GLU B   3       7.385 -20.145   8.120  1.00 56.58 LIG-0.27  OA
ATOM     45 H    GLN B   4       8.006 -22.147   5.943  1.00 37.98 LIG 0.16  HD
BRANCH 43 46
ATOM     46  CA  GLU B   3       7.372 -19.662   5.772  1.00 80.09 LIG 0.40  C 
ATOM     47  N   GLU B   3       6.222 -20.090   4.988  1.00 75.44 LIG 0.61  N 
BRANCH 46 48
ATOM     48  CB  GLU B   3       7.186 -18.216   6.221  1.00107.85 LIG 0.06  C 
BRANCH 48 49
ATOM     49  CG  GLU B   3       8.445 -17.387   6.136  1.00114.95 LIG 0.12  C 
BRANCH 49 50
ATOM     50  CD  GLU B   3       8.439 -16.233   7.120  1.00 96.82 LIG 0.17  C 
ATOM     51 OE1  GLU B   3       8.144 -15.088   6.703  1.00 91.15 LIG-0.65  OA
ATOM     52 OE2  GLU B   3       8.718 -16.473   8.318  1.00 91.13 LIG-0.65  OA
ENDBRANCH 49 50
ENDBRANCH 48 49
ENDBRANCH 46 48
ENDBRANCH 43 46
ENDBRANCH 34 42
ENDBRANCH 32 34
ENDBRANCH 1 30
TORSDOF 21
ENDMDL
MODEL 3
USER: ADFR SOLUTION from run 180
USER: SCORE 15.231126 LL:  -4.852 LR: -14.090 RR:   0.000 FEB:  -7.825
USER: RMSD 2.128734
USER: SEED 179
USER: STATUS searching
USER: GENES 23
USER: genes 0 Translation |==|  0.47456 0.42196 0.56355
USER: genes 1 Rotation |==|  0.47169 0.50939 0.51537 0.99887
USER: genes 2 Torsion [C]-CA--CB-[CG2] |==|  0.14002
USER: genes 3 Torsion [N]-CA--C-[N] |==|  0.42186
USER: genes 4 Torsion [C]-N--CA-[CB] |==|  0.21891
USER: genes 5 Torsion [N]-CA--C-[N] |==|  0.37241
USER: genes 6 Torsion [C]-N--CA-[CB] |==|  0.49455
USER: genes 7 Torsion [N]-CA--C-[N] |==|  0.40556
USER: genes 8 Torsion [C]-N--CA-[CB] |==|  0.25133
USER: genes 9 Torsion [N]-CA--C-[O] |==|  0.52697
USER: genes 10 Torsion [N]-CA--CB-[CG2] |==|  0.10112
USER: genes 11 Torsion [N]-CA--CB-[OG] |==|  0.84028
USER: genes 12 Torsion [CA]-CB--OG-[HG] |==|  0.19499
USER: genes 13 Torsion [CB]-CA--N-[C] |==|  0.27637
USER: genes 14 Torsion [N]-C--CA-[N] |==|  0.32845
USER: genes 15 Torsion [C]-CA--CB-[CG] |==|  0.43157
USER: genes 16 Torsion [CA]-CB--CG-[CD] |==|  0.47709
USER: genes 17 Torsion [CB]-CG--CD-[OE1] |==|  0.20843
USER: genes 18 Torsion [C]-CA--N-[C] |==|  0.19715
USER: genes 19 Torsion [N]-C--CA-[N] |==|  0.52498
USER: genes 20 Torsion [C]-CA--CB-[CG] |==|  0.88967
USER: genes 21 Torsion [CA]-CB--CG-[CD] |==|  0.80546
USER: genes 22 Torsion [CB]-CG--CD-[OE1] |==|  0.95920
ROOT
ATOM      1  CA  VAL B   5      11.430 -24.293   5.452  1.00 23.44 LIG 0.18  C 
ENDROOT
BRANCH 1 2
ATOM      2  CB  VAL B   5      11.425 -25.781   5.100  1.00 27.20 LIG 0.01  C 
ATOM      3  CG2 VAL B   5      12.784 -26.248   4.671  1.00 32.91 LIG 0.01  C 
ATOM      4  CG1 VAL B   5      10.383 -26.100   4.049  1.00 27.01 LIG 0.01  C 
ENDBRANCH 1 2
BRANCH 1 5
ATOM      5  C   VAL B   5      12.077 -23.497   4.325  1.00 21.98 LIG 0.24  C 
ATOM      6 O    VAL B   5      11.384 -23.074   3.404  1.00 26.26 LIG-0.27  OA
ATOM      7  N   SER B   6      13.402 -23.335   4.356  1.00 19.41 LIG-0.34  N 
ATOM      8 H    SER B   6      13.901 -23.683   4.963  1.00 19.41 LIG 0.16  HD
BRANCH 7 9
ATOM      9  CA  SER B   6      14.136 -22.564   3.377  1.00 20.84 LIG 0.20  C 
BRANCH 9 10
ATOM     10  C   SER B   6      15.608 -22.917   3.346  1.00 18.76 LIG 0.24  C 
ATOM     11 O    SER B   6      16.286 -22.948   4.357  1.00 19.89 LIG-0.27  OA
ATOM     12  N   ALA B   7      16.108 -23.087   2.146  1.00 19.53 LIG-0.35  N 
ATOM     13 H    ALA B   7      15.627 -23.036   1.435  1.00 19.53 LIG 0.16  HD
BRANCH 12 14
ATOM     14  CA  ALA B   7      17.509 -23.375   1.866  1.00 19.70 LIG 0.17  C 
ATOM     15  CB  ALA B   7      17.701 -23.555   0.350  1.00 20.39 LIG 0.04  C 
BRANCH 14 16
ATOM     16  C   ALA B   7      18.426 -22.252   2.316  1.00 16.34 LIG 0.24  C 
ATOM     17  N   VAL B   8      19.624 -22.574   2.767  1.00 16.85 LIG-0.34  N 
ATOM     18 H    VAL B   8      19.890 -23.382   2.897  1.00 16.85 LIG 0.16  HD
ATOM     19 O    ALA B   7      18.067 -21.098   2.197  1.00 20.16 LIG-0.27  OA
BRANCH 17 20
ATOM     20  CA  VAL B   8      20.618 -21.542   3.090  1.00 17.28 LIG 0.19  C 
BRANCH 20 21
ATOM     21  C   VAL B   8      22.005 -22.078   2.758  1.00 17.19 LIG 0.20  C 
ATOM     22 O    VAL B   8      23.020 -21.440   3.122  1.00 24.30 LIG-0.65  OA
ATOM     23 OXT  VAL B   8      22.154 -23.126   2.090  1.00 16.53 LIG-0.65  OA
ENDBRANCH 20 21
BRANCH 20 24
ATOM     24  CB  VAL B   8      20.534 -21.077   4.578  1.00 17.38 LIG 0.01  C 
ATOM     25  CG2 VAL B   8      20.192 -22.270   5.464  1.00 18.61 LIG 0.01  C 
ATOM     26  CG1 VAL B   8      19.563 -19.936   4.728  1.00 19.61 LIG 0.01  C 
ENDBRANCH 20 24
ENDBRANCH 17 20
ENDBRANCH 14 16
ENDBRANCH 12 14
ENDBRANCH 9 10
BRANCH 9 27
ATOM     27  CB  SER B   6      14.015 -21.073   3.667  1.00 25.59 LIG 0.20  C 
BRANCH 27 28
ATOM     28 OG   SER B   6      12.659 -20.683   3.682  1.00 27.26 LIG-0.40  OA
ATOM     29 HG   SER B   6      12.283 -21.002   4.362  1.00 27.26 LIG 0.21  HD
ENDBRANCH 27 28
ENDBRANCH 9 27
ENDBRANCH 7 9
ENDBRANCH 1 5
BRANCH 1 30
ATOM     30  N   VAL B   5      10.081 -23.798   5.603  1.00 22.92 LIG-0.35  N 
ATOM     31 H    VAL B   5       9.697 -23.620   4.854  1.00 22.92 LIG 0.16  HD
ATOM     32  C   GLN B   4       9.488 -23.632   6.774  1.00 24.29 LIG 0.24  C 
ATOM     33 O    GLN B   4       9.984 -23.913   7.847  1.00 26.90 LIG-0.27  OA
BRANCH 32 34
ATOM     34  CA  GLN B   4       8.072 -23.054   6.706  1.00 30.52 LIG 0.18  C 
BRANCH 34 35
ATOM     35  CB  GLN B   4       8.051 -21.744   7.493  1.00 36.61 LIG 0.04  C 
BRANCH 35 36
ATOM     36  CG  GLN B   4       6.957 -20.790   7.048  1.00 50.94 LIG 0.10  C 
BRANCH 36 37
ATOM     37  CD  GLN B   4       6.852 -19.596   7.993  1.00 60.90 LIG 0.21  C 
ATOM     38  NE2 GLN B   4       5.828 -19.587   8.844  1.00 82.36 LIG-0.37  N 
ATOM     39 21HE GLN B   4       5.259 -20.231   8.839  1.00 82.36 LIG 0.16  HD
ATOM     40 22HE GLN B   4       5.735 -18.935   9.399  1.00 82.36 LIG 0.16  HD
ATOM     41 OE1  GLN B   4       7.693 -18.700   7.957  1.00 55.22 LIG-0.27  OA
ENDBRANCH 36 37
ENDBRANCH 35 36
ENDBRANCH 34 35
BRANCH 34 42
ATOM     42  N   GLN B   4       7.112 -23.991   7.254  1.00 37.98 LIG-0.35  N 
ATOM     43  C   GLU B   3       7.043 -24.256   8.555  1.00 56.89 LIG 0.26  C 
ATOM     44 O    GLU B   3       7.825 -23.784   9.369  1.00 56.58 LIG-0.27  OA
ATOM     45 H    GLN B   4       6.600 -24.353   6.666  1.00 37.98 LIG 0.16  HD
BRANCH 43 46
ATOM     46  CA  GLU B   3       5.931 -25.205   8.996  1.00 80.09 LIG 0.40  C 
ATOM     47  N   GLU B   3       5.834 -25.243  10.449  1.00 75.44 LIG 0.61  N 
BRANCH 46 48
ATOM     48  CB  GLU B   3       4.599 -24.765   8.398  1.00107.85 LIG 0.06  C 
BRANCH 48 49
ATOM     49  CG  GLU B   3       4.402 -23.268   8.388  1.00114.95 LIG 0.12  C 
BRANCH 49 50
ATOM     50  CD  GLU B   3       4.200 -22.706   9.782  1.00 96.82 LIG 0.17  C 
ATOM     51 OE1  GLU B   3       3.935 -23.498  10.717  1.00 91.15 LIG-0.65  OA
ATOM     52 OE2  GLU B   3       4.318 -21.469   9.947  1.00 91.13 LIG-0.65  OA
ENDBRANCH 49 50
ENDBRANCH 48 49
ENDBRANCH 46 48
ENDBRANCH 43 46
ENDBRANCH 34 42
ENDBRANCH 32 34
ENDBRANCH 1 30
TORSDOF 21
ENDMDL
MODEL 4
USER: ADFR SOLUTION from run 58
USER: SCORE 14.596610 LL:  -3.998 LR: -13.973 RR:   0.000 FEB:  -7.709
USER: RMSD 4.690508
USER: SEED 57
USER: STATUS no improvement in best in 2 clusters for 5 generations
USER: GENES 23
USER: genes 0 Translation |==|  0.47139 0.41559 0.54574
USER: genes 1 Rotation |==|  0.51259 0.50336 0.50562 0.99980
USER: genes 2 Torsion [C]-CA--CB-[CG2] |==|  0.57211
USER: genes 3 Torsion [N]-CA--C-[N] |==|  0.42446
USER: genes 4 Torsion [C]-N--CA-[CB] |==|  0.21349
USER: genes 5 Torsion [N]-CA--C-[N] |==|  0.35235
USER: genes 6 Torsion [C]-N--CA-[CB] |==|  0.48384
USER: genes 7 Torsion [N]-CA--C-[N] |==|  0.40134
USER: genes 8 Torsion [C]-N--CA-[CB] |==|  0.26246
USER: genes 9 Torsion [N]-CA--C-[O] |==|  0.01049
USER: genes 10 Torsion [N]-CA--CB-[CG2] |==|  0.11292
USER: genes 11 Torsion [N]-CA--CB-[OG] |==|  0.80694
USER: genes 12 Torsion [CA]-CB--OG-[HG] |==|  0.24504
USER: genes 13 Torsion [CB]-CA--N-[C] |==|  0.29444
USER: genes 14 Torsion [N]-C--CA-[N] |==|  0.83779
USER: genes 15 Torsion [C]-CA--CB-[CG] |==|  0.68128
USER: genes 16 Torsion [CA]-CB--CG-[CD] |==|  0.22435
USER: genes 17 Torsion [CB]-CG--CD-[OE1] |==|  0.12320
USER: genes 18 Torsion [C]-CA--N-[C] |==|  0.65646
USER: genes 19 Torsion [N]-C--CA-[N] |==|  0.23208
USER: genes 20 Torsion [C]-CA--CB-[CG] |==|  0.47788
USER: genes 21 Torsion [CA]-CB--CG-[CD] |==|  0.51354
USER: genes 22 Torsion [CB]-CG--CD-[OE1] |==|  0.09021
ROOT
ATOM      1  CA  VAL B   5      11.335 -24.403   5.145  1.00 23.44 LIG 0.18  C 
ENDROOT
BRANCH 1 2
ATOM      2  CB  VAL B   5      11.280 -25.813   4.554  1.00 27.20 LIG 0.01  C 
ATOM      3  CG2 VAL B   5      10.124 -26.593   5.104  1.00 32.91 LIG 0.01  C 
ATOM      4  CG1 VAL B   5      12.584 -26.553   4.761  1.00 27.01 LIG 0.01  C 
ENDBRANCH 1 2
BRANCH 1 5
ATOM      5  C   VAL B   5      12.040 -23.462   4.175  1.00 21.98 LIG 0.24  C 
ATOM      6 O    VAL B   5      11.385 -22.853   3.334  1.00 26.26 LIG-0.27  OA
ATOM      7  N   SER B   6      13.371 -23.378   4.243  1.00 19.41 LIG-0.34  N 
ATOM      8 H    SER B   6      13.841 -23.850   4.786  1.00 19.41 LIG 0.16  HD
BRANCH 7 9
ATOM      9  CA  SER B   6      14.159 -22.492   3.415  1.00 20.84 LIG 0.20  C 
BRANCH 9 10
ATOM     10  C   SER B   6      15.620 -22.885   3.373  1.00 18.76 LIG 0.24  C 
ATOM     11 O    SER B   6      16.296 -22.966   4.382  1.00 19.89 LIG-0.27  OA
ATOM     12  N   ALA B   7      16.117 -23.032   2.168  1.00 19.53 LIG-0.35  N 
ATOM     13 H    ALA B   7      15.638 -22.946   1.459  1.00 19.53 LIG 0.16  HD
BRANCH 12 14
ATOM     14  CA  ALA B   7      17.509 -23.350   1.880  1.00 19.70 LIG 0.17  C 
ATOM     15  CB  ALA B   7      17.678 -23.584   0.368  1.00 20.39 LIG 0.04  C 
BRANCH 14 16
ATOM     16  C   ALA B   7      18.449 -22.226   2.279  1.00 16.34 LIG 0.24  C 
ATOM     17  N   VAL B   8      19.637 -22.552   2.754  1.00 16.85 LIG-0.34  N 
ATOM     18 H    VAL B   8      19.884 -23.357   2.925  1.00 16.85 LIG 0.16  HD
ATOM     19 O    ALA B   7      18.116 -21.072   2.100  1.00 20.16 LIG-0.27  OA
BRANCH 17 20
ATOM     20  CA  VAL B   8      20.651 -21.526   3.032  1.00 17.28 LIG 0.19  C 
BRANCH 20 21
ATOM     21  C   VAL B   8      22.019 -22.074   2.642  1.00 17.19 LIG 0.20  C 
ATOM     22 O    VAL B   8      22.105 -23.203   2.106  1.00 24.30 LIG-0.65  OA
ATOM     23 OXT  VAL B   8      23.068 -21.436   2.885  1.00 16.53 LIG-0.65  OA
ENDBRANCH 20 21
BRANCH 20 24
ATOM     24  CB  VAL B   8      20.635 -21.058   4.521  1.00 17.38 LIG 0.01  C 
ATOM     25  CG2 VAL B   8      20.428 -22.265   5.430  1.00 18.61 LIG 0.01  C 
ATOM     26  CG1 VAL B   8      19.606 -19.980   4.731  1.00 19.61 LIG 0.01  C 
ENDBRANCH 20 24
ENDBRANCH 17 20
ENDBRANCH 14 16
ENDBRANCH 12 14
ENDBRANCH 9 10
BRANCH 9 27
ATOM     27  CB  SER B   6      14.070 -21.060   3.925  1.00 25.59 LIG 0.20  C 
BRANCH 27 28
ATOM     28 OG   SER B   6      12.778 -20.537   3.706  1.00 27.26 LIG-0.40  OA
ATOM     29 HG   SER B   6      12.286 -20.722   4.362  1.00 27.26 LIG 0.21  HD
ENDBRANCH 27 28
ENDBRANCH 9 27
ENDBRANCH 7 9
ENDBRANCH 1 5
BRANCH 1 30
ATOM     30  N   VAL B   5      10.003 -23.882   5.350  1.00 22.92 LIG-0.35  N 
ATOM     31 H    VAL B   5       9.610 -23.650   4.621  1.00 22.92 LIG 0.16  HD
ATOM     32  C   GLN B   4       9.436 -23.769   6.541  1.00 24.29 LIG 0.24  C 
ATOM     33 O    GLN B   4       9.943 -24.125   7.586  1.00 26.90 LIG-0.27  OA
BRANCH 32 34
ATOM     34  CA  GLN B   4       8.035 -23.151   6.534  1.00 30.52 LIG 0.18  C 
BRANCH 34 35
ATOM     35  CB  GLN B   4       7.110 -24.069   5.738  1.00 36.61 LIG 0.04  C 
BRANCH 35 36
ATOM     36  CG  GLN B   4       6.583 -23.436   4.461  1.00 50.94 LIG 0.10  C 
BRANCH 36 37
ATOM     37  CD  GLN B   4       7.616 -23.519   3.341  1.00 60.90 LIG 0.21  C 
ATOM     38  NE2 GLN B   4       7.809 -22.420   2.614  1.00 82.36 LIG-0.37  N 
ATOM     39 21HE GLN B   4       7.356 -21.709   2.781  1.00 82.36 LIG 0.16  HD
ATOM     40 22HE GLN B   4       8.387 -22.422   1.977  1.00 82.36 LIG 0.16  HD
ATOM     41 OE1  GLN B   4       8.236 -24.562   3.145  1.00 55.22 LIG-0.27  OA
ENDBRANCH 36 37
ENDBRANCH 35 36
ENDBRANCH 34 35
BRANCH 34 42
ATOM     42  N   GLN B   4       8.066 -21.826   5.946  1.00 37.98 LIG-0.35  N 
ATOM     43  C   GLU B   3       7.627 -20.753   6.595  1.00 56.89 LIG 0.26  C 
ATOM     44 O    GLU B   3       7.105 -20.815   7.700  1.00 56.58 LIG-0.27  OA
ATOM     45 H    GLN B   4       8.391 -21.803   5.150  1.00 37.98 LIG 0.16  HD
BRANCH 43 46
ATOM     46  CA  GLU B   3       7.794 -19.413   5.881  1.00 80.09 LIG 0.40  C 
ATOM     47  N   GLU B   3       6.697 -19.186   4.950  1.00 75.44 LIG 0.61  N 
BRANCH 46 48
ATOM     48  CB  GLU B   3       7.853 -18.280   6.900  1.00107.85 LIG 0.06  C 
BRANCH 48 49
ATOM     49  CG  GLU B   3       8.207 -16.940   6.300  1.00114.95 LIG 0.12  C 
BRANCH 49 50
ATOM     50  CD  GLU B   3       8.372 -15.864   7.355  1.00 96.82 LIG 0.17  C 
ATOM     51 OE1  GLU B   3       8.818 -16.189   8.481  1.00 91.15 LIG-0.65  OA
ATOM     52 OE2  GLU B   3       8.068 -14.686   7.055  1.00 91.13 LIG-0.65  OA
ENDBRANCH 49 50
ENDBRANCH 48 49
ENDBRANCH 46 48
ENDBRANCH 43 46
ENDBRANCH 34 42
ENDBRANCH 32 34
ENDBRANCH 1 30
TORSDOF 21
ENDMDL
