MODEL 1
USER: ADFR SOLUTION from run 151
USER: SCORE 17.837395 LL:  -4.780 LR: -14.778 RR:   0.000 FEB:  -7.022
USER: RMSD 1.817722
USER: SEED 150
USER: STATUS no improvement in best in 4 clusters for 5 generations
USER: GENES 28
USER: genes 0 Translation |==|  0.41700 0.42477 0.47822
USER: genes 1 Rotation |==|  0.51766 0.53377 0.48228 0.99823
USER: genes 2 Torsion [C]-CA--N-[C] |==|  0.78523
USER: genes 3 Torsion [N]-C--CA-[N] |==|  0.23682
USER: genes 4 Torsion [C]-CA--CB-[SG] |==|  0.57843
USER: genes 5 Torsion [CA]-CB--SG-[HG] |==|  0.24040
USER: genes 6 Torsion [C]-CA--N-[C] |==|  0.78009
USER: genes 7 Torsion [N]-C--CA-[N] |==|  0.10001
USER: genes 8 Torsion [C]-CA--CB-[CG] |==|  0.39955
USER: genes 9 Torsion [CA]-CB--CG-[CD] |==|  0.85569
USER: genes 10 Torsion [CB]-CG--CD-[OE1] |==|  0.89487
USER: genes 11 Torsion [C]-CA--N-[C] |==|  0.14397
USER: genes 12 Torsion [N]-C--CA-[N] |==|  0.10964
USER: genes 13 Torsion [C]-CA--CB-[OG] |==|  0.64127
USER: genes 14 Torsion [CA]-CB--OG-[HG] |==|  0.60574
USER: genes 15 Torsion [C]-CA--N-[H1] |==|  0.78188
USER: genes 16 Torsion [N]-CA--CB-[OG1] |==|  0.75854
USER: genes 17 Torsion [CA]-CB--OG1-[HG1] |==|  0.69077
USER: genes 18 Torsion [N]-CA--C-[N] |==|  0.36173
USER: genes 19 Torsion [C]-N--CA-[CB] |==|  0.29090
USER: genes 20 Torsion [N]-CA--C-[N] |==|  0.33205
USER: genes 21 Torsion [N]-CA--C-[N] |==|  0.37712
USER: genes 22 Torsion [C]-N--CA-[CB] |==|  0.35299
USER: genes 23 Torsion [N]-CA--CB-[SG] |==|  0.82454
USER: genes 24 Torsion [CA]-CB--SG-[HG] |==|  0.14898
USER: genes 25 Torsion [N]-CA--C-[OXT] |==|  0.76035
USER: genes 26 Torsion [N]-CA--CB-[OG1] |==|  0.95206
USER: genes 27 Torsion [CA]-CB--OG1-[HG1] |==|  0.11170
ROOT
ATOM      1  CA  THR F   4      38.059 -28.329  33.633  1.00 50.77 LIG 0.20  C 
ENDROOT
BRANCH 1 2
ATOM      2  N   THR F   4      39.479 -28.359  33.272  1.00 51.40 LIG-0.34  N 
ATOM      3 H    THR F   4      39.768 -29.138  33.048  1.00 51.40 LIG 0.16  HD
ATOM      4  C   CYS F   3      40.245 -27.265  33.295  1.00 52.18 LIG 0.24  C 
ATOM      5 O    CYS F   3      39.799 -26.133  33.502  1.00 51.89 LIG-0.27  OA
BRANCH 4 6
ATOM      6  CA  CYS F   3      41.735 -27.459  32.992  1.00 52.92 LIG 0.18  C 
BRANCH 6 7
ATOM      7  CB  CYS F   3      42.587 -26.391  33.692  1.00 52.86 LIG 0.10  C 
BRANCH 7 8
ATOM      8 SG   CYS F   3      44.152 -25.996  32.834  1.00 55.16 LIG-0.18  SA
ATOM      9 HG   CYS F   3      43.953 -25.148  32.008  1.00 55.16 LIG 0.10  HD
ENDBRANCH 7 8
ENDBRANCH 6 7
BRANCH 6 10
ATOM     10  N   CYS F   3      41.943 -27.433  31.542  1.00 53.02 LIG-0.34  N 
ATOM     11 H    CYS F   3      42.243 -26.685  31.244  1.00 53.02 LIG 0.16  HD
ATOM     12  C   GLU F   2      41.687 -28.483  30.764  1.00 53.57 LIG 0.24  C 
ATOM     13 O    GLU F   2      41.412 -29.603  31.206  1.00 53.07 LIG-0.27  OA
BRANCH 12 14
ATOM     14  CA  GLU F   2      41.704 -28.228  29.255  1.00 54.00 LIG 0.18  C 
BRANCH 14 15
ATOM     15  CB  GLU F   2      41.913 -29.593  28.581  1.00 54.10 LIG 0.04  C 
BRANCH 15 16
ATOM     16  CG  GLU F   2      41.182 -29.835  27.268  1.00 55.55 LIG 0.12  C 
BRANCH 16 17
ATOM     17  CD  GLU F   2      39.682 -29.538  27.367  1.00 57.36 LIG 0.17  C 
ATOM     18 OE1  GLU F   2      39.050 -29.832  28.410  1.00 58.39 LIG-0.65  OA
ATOM     19 OE2  GLU F   2      39.118 -28.989  26.397  1.00 58.95 LIG-0.65  OA
ENDBRANCH 16 17
ENDBRANCH 15 16
ENDBRANCH 14 15
BRANCH 14 20
ATOM     20  N   GLU F   2      42.723 -27.255  28.832  1.00 53.99 LIG-0.35  N 
ATOM     21 H    GLU F   2      42.404 -26.623  28.344  1.00 53.99 LIG 0.16  HD
ATOM     22  C   SER F   1      44.016 -27.326  29.161  1.00 54.35 LIG 0.25  C 
ATOM     23 O    SER F   1      44.522 -28.278  29.771  1.00 54.45 LIG-0.27  OA
BRANCH 22 24
ATOM     24  CA  SER F   1      44.887 -26.146  28.712  1.00 54.58 LIG 0.30  C 
BRANCH 24 25
ATOM     25  CB  SER F   1      46.211 -26.133  29.485  1.00 54.63 LIG 0.21  C 
BRANCH 25 26
ATOM     26 OG   SER F   1      46.460 -24.852  30.047  1.00 54.91 LIG-0.40  OA
ATOM     27 HG   SER F   1      47.280 -24.677  29.994  1.00 54.91 LIG 0.21  HD
ENDBRANCH 25 26
ENDBRANCH 24 25
BRANCH 24 28
ATOM     28  N   SER F   1      44.178 -24.838  28.862  1.00 54.74 LIG-0.06  N 
ATOM     29 H1   SER F   1      43.607 -24.730  28.187  1.00 54.74 LIG 0.28  HD
ATOM     30 H2   SER F   1      43.731 -24.828  29.632  1.00 54.74 LIG 0.28  HD
ATOM     31 H3   SER F   1      44.772 -24.176  28.856  1.00 54.74 LIG 0.28  HD
ENDBRANCH 24 28
ENDBRANCH 22 24
ENDBRANCH 14 20
ENDBRANCH 12 14
ENDBRANCH 6 10
ENDBRANCH 4 6
ENDBRANCH 1 2
BRANCH 1 32
ATOM     32  CB  THR F   4      37.283 -29.574  33.168  1.00 51.21 LIG 0.15  C 
ATOM     33  CG2 THR F   4      36.111 -29.842  34.113  1.00 50.61 LIG 0.04  C 
BRANCH 32 34
ATOM     34 OG1  THR F   4      36.813 -29.385  31.829  1.00 51.15 LIG-0.39  OA
ATOM     35 HG1  THR F   4      35.976 -29.316  31.832  1.00 51.15 LIG 0.21  HD
ENDBRANCH 32 34
ENDBRANCH 1 32
BRANCH 1 36
ATOM     36  C   THR F   4      37.985 -28.271  35.150  1.00 49.53 LIG 0.24  C 
ATOM     37  N   THR F   5      37.199 -27.334  35.667  1.00 47.76 LIG-0.34  N 
ATOM     38 H    THR F   5      36.656 -26.866  35.192  1.00 47.76 LIG 0.16  HD
ATOM     39 O    THR F   4      38.653 -29.050  35.823  1.00 50.01 LIG-0.27  OA
BRANCH 37 40
ATOM     40  CA  THR F   5      37.170 -26.996  37.086  1.00 46.83 LIG 0.20  C 
BRANCH 40 41
ATOM     41  C   THR F   5      35.714 -26.844  37.527  1.00 45.74 LIG 0.24  C 
ATOM     42  N   PRO F   6      35.276 -27.668  38.490  1.00 45.40 LIG-0.34  N 
ATOM     43  CA  PRO F   6      33.957 -27.440  39.095  1.00 45.02 LIG 0.18  C 
ATOM     44  CD  PRO F   6      35.910 -28.902  38.993  1.00 45.45 LIG 0.13  C 
ATOM     45  CB  PRO F   6      33.866 -28.519  40.177  1.00 45.11 LIG 0.04  C 
ATOM     46  CG  PRO F   6      34.770 -29.609  39.710  1.00 45.75 LIG 0.02  C 
ATOM     47 O    THR F   5      34.990 -26.004  36.990  1.00 44.21 LIG-0.27  OA
BRANCH 43 48
ATOM     48  C   PRO F   6      33.931 -26.062  39.733  1.00 45.08 LIG 0.24  C 
ATOM     49  N   CYS F   7      32.855 -25.302  39.534  1.00 44.40 LIG-0.34  N 
ATOM     50 H    CYS F   7      32.135 -25.555  39.139  1.00 44.40 LIG 0.16  HD
ATOM     51 O    PRO F   6      34.904 -25.693  40.393  1.00 44.91 LIG-0.27  OA
BRANCH 49 52
ATOM     52  CA  CYS F   7      32.864 -23.922  40.011  1.00 45.02 LIG 0.19  C 
BRANCH 52 53
ATOM     53  CB  CYS F   7      32.493 -22.960  38.870  1.00 44.51 LIG 0.11  C 
BRANCH 53 54
ATOM     54 SG   CYS F   7      33.735 -23.018  37.507  1.00 46.73 LIG-0.18  SA
ATOM     55 HG   CYS F   7      33.882 -24.152  37.146  1.00 46.73 LIG 0.10  HD
ENDBRANCH 53 54
ENDBRANCH 52 53
BRANCH 52 56
ATOM     56  C   CYS F   7      32.066 -23.713  41.313  1.00 45.05 LIG 0.20  C 
ATOM     57 OXT  CYS F   7      30.845 -23.491  41.307  1.00 44.33 LIG-0.65  OA
ATOM     58 O    CYS F   7      32.681 -23.713  42.397  1.00 44.51 LIG-0.65  OA
ENDBRANCH 52 56
ENDBRANCH 49 52
ENDBRANCH 43 48
ENDBRANCH 40 41
BRANCH 40 59
ATOM     59  CB  THR F   5      37.904 -25.666  37.329  1.00 46.83 LIG 0.15  C 
ATOM     60  CG2 THR F   5      38.741 -25.690  38.599  1.00 46.88 LIG 0.04  C 
BRANCH 59 61
ATOM     61 OG1  THR F   5      38.728 -25.365  36.194  1.00 48.31 LIG-0.39  OA
ATOM     62 HG1  THR F   5      38.316 -25.563  35.489  1.00 48.31 LIG 0.21  HD
ENDBRANCH 59 61
ENDBRANCH 40 59
ENDBRANCH 37 40
ENDBRANCH 1 36
TORSDOF 26
ENDMDL
MODEL 2
USER: ADFR SOLUTION from run 53
USER: SCORE 17.206510 LL:  -4.230 LR: -14.422 RR:   0.000 FEB:  -6.666
USER: RMSD 3.635273
USER: SEED 52
USER: STATUS searching
USER: GENES 28
USER: genes 0 Translation |==|  0.44447 0.42868 0.45635
USER: genes 1 Rotation |==|  0.51333 0.53909 0.44380 0.99511
USER: genes 2 Torsion [C]-CA--N-[C] |==|  0.75767
USER: genes 3 Torsion [N]-C--CA-[N] |==|  0.43660
USER: genes 4 Torsion [C]-CA--CB-[SG] |==|  0.13233
USER: genes 5 Torsion [CA]-CB--SG-[HG] |==|  0.79897
USER: genes 6 Torsion [C]-CA--N-[C] |==|  0.55333
USER: genes 7 Torsion [N]-C--CA-[N] |==|  0.86985
USER: genes 8 Torsion [C]-CA--CB-[CG] |==|  0.33969
USER: genes 9 Torsion [CA]-CB--CG-[CD] |==|  0.49326
USER: genes 10 Torsion [CB]-CG--CD-[OE1] |==|  0.06569
USER: genes 11 Torsion [C]-CA--N-[C] |==|  0.84051
USER: genes 12 Torsion [N]-C--CA-[N] |==|  0.91855
USER: genes 13 Torsion [C]-CA--CB-[OG] |==|  0.62191
USER: genes 14 Torsion [CA]-CB--OG-[HG] |==|  0.73577
USER: genes 15 Torsion [C]-CA--N-[H1] |==|  0.35889
USER: genes 16 Torsion [N]-CA--CB-[OG1] |==|  0.60560
USER: genes 17 Torsion [CA]-CB--OG1-[HG1] |==|  0.51274
USER: genes 18 Torsion [N]-CA--C-[N] |==|  0.43267
USER: genes 19 Torsion [C]-N--CA-[CB] |==|  0.21944
USER: genes 20 Torsion [N]-CA--C-[N] |==|  0.31186
USER: genes 21 Torsion [N]-CA--C-[N] |==|  0.44243
USER: genes 22 Torsion [C]-N--CA-[CB] |==|  0.26031
USER: genes 23 Torsion [N]-CA--CB-[SG] |==|  0.68364
USER: genes 24 Torsion [CA]-CB--SG-[HG] |==|  0.58726
USER: genes 25 Torsion [N]-CA--C-[OXT] |==|  0.80202
USER: genes 26 Torsion [N]-CA--CB-[OG1] |==|  0.99575
USER: genes 27 Torsion [CA]-CB--OG1-[HG1] |==|  0.10818
ROOT
ATOM      1  CA  THR F   4      38.780 -28.265  33.108  1.00 50.77 LIG 0.20  C 
ENDROOT
BRANCH 1 2
ATOM      2  N   THR F   4      40.168 -28.518  32.712  1.00 51.40 LIG-0.34  N 
ATOM      3 H    THR F   4      40.364 -29.352  32.633  1.00 51.40 LIG 0.16  HD
ATOM      4  C   CYS F   3      41.041 -27.531  32.495  1.00 52.18 LIG 0.24  C 
ATOM      5 O    CYS F   3      40.725 -26.338  32.494  1.00 51.89 LIG-0.27  OA
BRANCH 4 6
ATOM      6  CA  CYS F   3      42.484 -27.942  32.186  1.00 52.92 LIG 0.18  C 
BRANCH 6 7
ATOM      7  CB  CYS F   3      43.246 -28.303  33.469  1.00 52.86 LIG 0.10  C 
BRANCH 7 8
ATOM      8 SG   CYS F   3      42.343 -29.431  34.588  1.00 55.16 LIG-0.18  SA
ATOM      9 HG   CYS F   3      41.442 -28.837  35.114  1.00 55.16 LIG 0.10  HD
ENDBRANCH 7 8
ENDBRANCH 6 7
BRANCH 6 10
ATOM     10  N   CYS F   3      43.154 -26.857  31.462  1.00 53.02 LIG-0.34  N 
ATOM     11 H    CYS F   3      42.769 -26.092  31.544  1.00 53.02 LIG 0.16  HD
ATOM     12  C   GLU F   2      44.259 -27.050  30.745  1.00 53.57 LIG 0.24  C 
ATOM     13 O    GLU F   2      44.898 -28.107  30.758  1.00 53.07 LIG-0.27  OA
BRANCH 12 14
ATOM     14  CA  GLU F   2      44.693 -25.893  29.843  1.00 54.00 LIG 0.18  C 
BRANCH 14 15
ATOM     15  CB  GLU F   2      45.334 -24.839  30.759  1.00 54.10 LIG 0.04  C 
BRANCH 15 16
ATOM     16  CG  GLU F   2      46.770 -24.438  30.452  1.00 55.55 LIG 0.12  C 
BRANCH 16 17
ATOM     17  CD  GLU F   2      47.288 -23.341  31.389  1.00 57.36 LIG 0.17  C 
ATOM     18 OE1  GLU F   2      46.769 -23.183  32.519  1.00 58.39 LIG-0.65  OA
ATOM     19 OE2  GLU F   2      48.239 -22.630  31.003  1.00 58.95 LIG-0.65  OA
ENDBRANCH 16 17
ENDBRANCH 15 16
ENDBRANCH 14 15
BRANCH 14 20
ATOM     20  N   GLU F   2      43.595 -25.322  29.047  1.00 53.99 LIG-0.35  N 
ATOM     21 H    GLU F   2      43.483 -24.480  29.182  1.00 53.99 LIG 0.16  HD
ATOM     22  C   SER F   1      42.838 -26.020  28.197  1.00 54.35 LIG 0.25  C 
ATOM     23 O    SER F   1      42.905 -27.249  28.062  1.00 54.45 LIG-0.27  OA
BRANCH 22 24
ATOM     24  CA  SER F   1      41.823 -25.208  27.381  1.00 54.58 LIG 0.30  C 
BRANCH 24 25
ATOM     25  CB  SER F   1      42.415 -24.826  26.019  1.00 54.63 LIG 0.21  C 
BRANCH 25 26
ATOM     26 OG   SER F   1      42.131 -23.470  25.703  1.00 54.91 LIG-0.40  OA
ATOM     27 HG   SER F   1      41.440 -23.432  25.226  1.00 54.91 LIG 0.21  HD
ENDBRANCH 25 26
ENDBRANCH 24 25
BRANCH 24 28
ATOM     28  N   SER F   1      41.363 -23.989  28.115  1.00 54.74 LIG-0.06  N 
ATOM     29 H1   SER F   1      41.445 -23.276  27.589  1.00 54.74 LIG 0.28  HD
ATOM     30 H2   SER F   1      40.510 -24.088  28.350  1.00 54.74 LIG 0.28  HD
ATOM     31 H3   SER F   1      41.859 -23.877  28.845  1.00 54.74 LIG 0.28  HD
ENDBRANCH 24 28
ENDBRANCH 22 24
ENDBRANCH 14 20
ENDBRANCH 12 14
ENDBRANCH 6 10
ENDBRANCH 4 6
ENDBRANCH 1 2
BRANCH 1 32
ATOM     32  CB  THR F   4      37.811 -29.387  32.699  1.00 51.21 LIG 0.15  C 
ATOM     33  CG2 THR F   4      37.602 -30.350  33.869  1.00 50.61 LIG 0.04  C 
BRANCH 32 34
ATOM     34 OG1  THR F   4      36.561 -28.827  32.282  1.00 51.15 LIG-0.39  OA
ATOM     35 HG1  THR F   4      36.016 -29.445  32.120  1.00 51.15 LIG 0.21  HD
ENDBRANCH 32 34
ENDBRANCH 1 32
BRANCH 1 36
ATOM     36  C   THR F   4      38.762 -28.159  34.624  1.00 49.53 LIG 0.24  C 
ATOM     37  N   THR F   5      37.762 -27.464  35.155  1.00 47.76 LIG-0.34  N 
ATOM     38 H    THR F   5      37.086 -27.195  34.697  1.00 47.76 LIG 0.16  HD
ATOM     39 O    THR F   4      39.656 -28.680  35.282  1.00 50.01 LIG-0.27  OA
BRANCH 37 40
ATOM     40  CA  THR F   5      37.701 -27.083  36.562  1.00 46.83 LIG 0.20  C 
BRANCH 40 41
ATOM     41  C   THR F   5      36.259 -26.714  36.911  1.00 45.74 LIG 0.24  C 
ATOM     42  N   PRO F   6      35.604 -27.528  37.752  1.00 45.40 LIG-0.34  N 
ATOM     43  CA  PRO F   6      34.295 -27.124  38.281  1.00 45.02 LIG 0.18  C 
ATOM     44  CD  PRO F   6      35.973 -28.894  38.172  1.00 45.45 LIG 0.13  C 
ATOM     45  CB  PRO F   6      33.927 -28.259  39.239  1.00 45.11 LIG 0.04  C 
ATOM     46  CG  PRO F   6      34.670 -29.447  38.730  1.00 45.75 LIG 0.02  C 
ATOM     47 O    THR F   5      35.738 -25.715  36.411  1.00 44.21 LIG-0.27  OA
BRANCH 43 48
ATOM     48  C   PRO F   6      34.447 -25.823  39.051  1.00 45.08 LIG 0.24  C 
ATOM     49  N   CYS F   7      33.358 -25.081  39.244  1.00 44.40 LIG-0.34  N 
ATOM     50 H    CYS F   7      32.556 -25.313  39.039  1.00 44.40 LIG 0.16  HD
ATOM     51 O    PRO F   6      35.566 -25.496  39.452  1.00 44.91 LIG-0.27  OA
BRANCH 49 52
ATOM     52  CA  CYS F   7      33.498 -23.760  39.851  1.00 45.02 LIG 0.19  C 
BRANCH 52 53
ATOM     53  CB  CYS F   7      33.622 -22.682  38.762  1.00 44.51 LIG 0.11  C 
BRANCH 53 54
ATOM     54 SG   CYS F   7      35.288 -21.889  38.784  1.00 46.73 LIG-0.18  SA
ATOM     55 HG   CYS F   7      35.193 -20.747  38.429  1.00 46.73 LIG 0.10  HD
ENDBRANCH 53 54
ENDBRANCH 52 53
BRANCH 52 56
ATOM     56  C   CYS F   7      32.441 -23.462  40.933  1.00 45.05 LIG 0.20  C 
ATOM     57 OXT  CYS F   7      31.251 -23.257  40.650  1.00 44.33 LIG-0.65  OA
ATOM     58 O    CYS F   7      32.811 -23.371  42.120  1.00 44.51 LIG-0.65  OA
ENDBRANCH 52 56
ENDBRANCH 49 52
ENDBRANCH 43 48
ENDBRANCH 40 41
BRANCH 40 59
ATOM     59  CB  THR F   5      38.602 -25.863  36.819  1.00 46.83 LIG 0.15  C 
ATOM     60  CG2 THR F   5      39.626 -26.120  37.915  1.00 46.88 LIG 0.04  C 
BRANCH 59 61
ATOM     61 OG1  THR F   5      39.258 -25.492  35.599  1.00 48.31 LIG-0.39  OA
ATOM     62 HG1  THR F   5      38.724 -25.578  34.956  1.00 48.31 LIG 0.21  HD
ENDBRANCH 59 61
ENDBRANCH 40 59
ENDBRANCH 37 40
ENDBRANCH 1 36
TORSDOF 26
ENDMDL
MODEL 3
USER: ADFR SOLUTION from run 184
USER: SCORE 18.143078 LL:  -5.612 LR: -14.062 RR:   0.000 FEB:  -6.306
USER: RMSD 3.265775
USER: SEED 183
USER: STATUS no improvement in best in 2 clusters for 5 generations
USER: GENES 28
USER: genes 0 Translation |==|  0.43142 0.44359 0.46029
USER: genes 1 Rotation |==|  0.53660 0.55019 0.42554 0.99051
USER: genes 2 Torsion [C]-CA--N-[C] |==|  0.77380
USER: genes 3 Torsion [N]-C--CA-[N] |==|  0.46749
USER: genes 4 Torsion [C]-CA--CB-[SG] |==|  0.32697
USER: genes 5 Torsion [CA]-CB--SG-[HG] |==|  0.19055
USER: genes 6 Torsion [C]-CA--N-[C] |==|  0.54177
USER: genes 7 Torsion [N]-C--CA-[N] |==|  0.15468
USER: genes 8 Torsion [C]-CA--CB-[CG] |==|  0.50536
USER: genes 9 Torsion [CA]-CB--CG-[CD] |==|  0.18982
USER: genes 10 Torsion [CB]-CG--CD-[OE1] |==|  0.72941
USER: genes 11 Torsion [C]-CA--N-[C] |==|  0.14968
USER: genes 12 Torsion [N]-C--CA-[N] |==|  0.80384
USER: genes 13 Torsion [C]-CA--CB-[OG] |==|  0.73321
USER: genes 14 Torsion [CA]-CB--OG-[HG] |==|  0.42716
USER: genes 15 Torsion [C]-CA--N-[H1] |==|  0.17695
USER: genes 16 Torsion [N]-CA--CB-[OG1] |==|  0.57604
USER: genes 17 Torsion [CA]-CB--OG1-[HG1] |==|  0.43955
USER: genes 18 Torsion [N]-CA--C-[N] |==|  0.45298
USER: genes 19 Torsion [C]-N--CA-[CB] |==|  0.21648
USER: genes 20 Torsion [N]-CA--C-[N] |==|  0.32313
USER: genes 21 Torsion [N]-CA--C-[N] |==|  0.38293
USER: genes 22 Torsion [C]-N--CA-[CB] |==|  0.30420
USER: genes 23 Torsion [N]-CA--CB-[SG] |==|  0.97281
USER: genes 24 Torsion [CA]-CB--SG-[HG] |==|  0.08107
USER: genes 25 Torsion [N]-CA--C-[OXT] |==|  0.78715
USER: genes 26 Torsion [N]-CA--CB-[OG1] |==|  0.00183
USER: genes 27 Torsion [CA]-CB--OG1-[HG1] |==|  0.09440
ROOT
ATOM      1  CA  THR F   4      38.438 -28.019  33.203  1.00 50.77 LIG 0.20  C 
ENDROOT
BRANCH 1 2
ATOM      2  N   THR F   4      39.786 -28.342  32.729  1.00 51.40 LIG-0.34  N 
ATOM      3 H    THR F   4      39.887 -29.163  32.493  1.00 51.40 LIG 0.16  HD
ATOM      4  C   CYS F   3      40.762 -27.432  32.675  1.00 52.18 LIG 0.24  C 
ATOM      5 O    CYS F   3      40.580 -26.233  32.902  1.00 51.89 LIG-0.27  OA
BRANCH 4 6
ATOM      6  CA  CYS F   3      42.149 -27.932  32.256  1.00 52.92 LIG 0.18  C 
BRANCH 6 7
ATOM      7  CB  CYS F   3      42.760 -28.840  33.333  1.00 52.86 LIG 0.10  C 
BRANCH 7 8
ATOM      8 SG   CYS F   3      43.075 -30.554  32.782  1.00 55.16 LIG-0.18  SA
ATOM      9 HG   CYS F   3      43.962 -30.558  31.974  1.00 55.16 LIG 0.10  HD
ENDBRANCH 7 8
ENDBRANCH 6 7
BRANCH 6 10
ATOM     10  N   CYS F   3      43.016 -26.783  31.980  1.00 53.02 LIG-0.34  N 
ATOM     11 H    CYS F   3      42.713 -26.036  32.278  1.00 53.02 LIG 0.16  HD
ATOM     12  C   GLU F   2      44.169 -26.899  31.324  1.00 53.57 LIG 0.24  C 
ATOM     13 O    GLU F   2      44.680 -27.986  31.039  1.00 53.07 LIG-0.27  OA
BRANCH 12 14
ATOM     14  CA  GLU F   2      44.833 -25.591  30.885  1.00 54.00 LIG 0.18  C 
BRANCH 14 15
ATOM     15  CB  GLU F   2      46.142 -25.979  30.181  1.00 54.10 LIG 0.04  C 
BRANCH 15 16
ATOM     16  CG  GLU F   2      47.023 -24.840  29.684  1.00 55.55 LIG 0.12  C 
BRANCH 16 17
ATOM     17  CD  GLU F   2      47.644 -24.035  30.831  1.00 57.36 LIG 0.17  C 
ATOM     18 OE1  GLU F   2      47.112 -22.963  31.208  1.00 58.39 LIG-0.65  OA
ATOM     19 OE2  GLU F   2      48.673 -24.479  31.381  1.00 58.95 LIG-0.65  OA
ENDBRANCH 16 17
ENDBRANCH 15 16
ENDBRANCH 14 15
BRANCH 14 20
ATOM     20  N   GLU F   2      45.071 -24.651  31.991  1.00 53.99 LIG-0.35  N 
ATOM     21 H    GLU F   2      44.738 -23.871  31.849  1.00 53.99 LIG 0.16  HD
ATOM     22  C   SER F   1      45.734 -24.955  33.110  1.00 54.35 LIG 0.25  C 
ATOM     23 O    SER F   1      46.315 -26.033  33.297  1.00 54.45 LIG-0.27  OA
BRANCH 22 24
ATOM     24  CA  SER F   1      45.770 -23.862  34.186  1.00 54.58 LIG 0.30  C 
BRANCH 24 25
ATOM     25  CB  SER F   1      44.350 -23.383  34.509  1.00 54.63 LIG 0.21  C 
BRANCH 25 26
ATOM     26 OG   SER F   1      44.027 -22.213  33.771  1.00 54.91 LIG-0.40  OA
ATOM     27 HG   SER F   1      43.194 -22.167  33.668  1.00 54.91 LIG 0.21  HD
ENDBRANCH 25 26
ENDBRANCH 24 25
BRANCH 24 28
ATOM     28  N   SER F   1      46.635 -22.710  33.785  1.00 54.74 LIG-0.06  N 
ATOM     29 H1   SER F   1      46.291 -22.317  33.064  1.00 54.74 LIG 0.28  HD
ATOM     30 H2   SER F   1      46.675 -22.122  34.452  1.00 54.74 LIG 0.28  HD
ATOM     31 H3   SER F   1      47.454 -23.004  33.599  1.00 54.74 LIG 0.28  HD
ENDBRANCH 24 28
ENDBRANCH 22 24
ENDBRANCH 14 20
ENDBRANCH 12 14
ENDBRANCH 6 10
ENDBRANCH 4 6
ENDBRANCH 1 2
BRANCH 1 32
ATOM     32  CB  THR F   4      37.367 -29.019  32.734  1.00 51.21 LIG 0.15  C 
ATOM     33  CG2 THR F   4      37.306 -30.208  33.693  1.00 50.61 LIG 0.04  C 
BRANCH 32 34
ATOM     34 OG1  THR F   4      36.092 -28.370  32.657  1.00 51.15 LIG-0.39  OA
ATOM     35 HG1  THR F   4      35.590 -28.800  32.138  1.00 51.15 LIG 0.21  HD
ENDBRANCH 32 34
ENDBRANCH 1 32
BRANCH 1 36
ATOM     36  C   THR F   4      38.478 -28.054  34.722  1.00 49.53 LIG 0.24  C 
ATOM     37  N   THR F   5      37.472 -27.460  35.352  1.00 47.76 LIG-0.34  N 
ATOM     38 H    THR F   5      36.765 -27.183  34.947  1.00 47.76 LIG 0.16  HD
ATOM     39 O    THR F   4      39.422 -28.589  35.294  1.00 50.01 LIG-0.27  OA
BRANCH 37 40
ATOM     40  CA  THR F   5      37.452 -27.213  36.790  1.00 46.83 LIG 0.20  C 
BRANCH 40 41
ATOM     41  C   THR F   5      36.015 -26.922  37.222  1.00 45.74 LIG 0.24  C 
ATOM     42  N   PRO F   6      35.443 -27.788  38.072  1.00 45.40 LIG-0.34  N 
ATOM     43  CA  PRO F   6      34.145 -27.460  38.677  1.00 45.02 LIG 0.18  C 
ATOM     44  CD  PRO F   6      35.896 -29.145  38.434  1.00 45.45 LIG 0.13  C 
ATOM     45  CB  PRO F   6      33.880 -28.635  39.621  1.00 45.11 LIG 0.04  C 
ATOM     46  CG  PRO F   6      34.651 -29.774  39.042  1.00 45.75 LIG 0.02  C 
ATOM     47 O    THR F   5      35.423 -25.937  36.777  1.00 44.21 LIG-0.27  OA
BRANCH 43 48
ATOM     48  C   PRO F   6      34.276 -26.174  39.475  1.00 45.08 LIG 0.24  C 
ATOM     49  N   CYS F   7      33.294 -25.279  39.382  1.00 44.40 LIG-0.34  N 
ATOM     50 H    CYS F   7      32.550 -25.399  38.970  1.00 44.40 LIG 0.16  HD
ATOM     51 O    PRO F   6      35.286 -25.999  40.160  1.00 44.91 LIG-0.27  OA
BRANCH 49 52
ATOM     52  CA  CYS F   7      33.460 -23.976  40.020  1.00 45.02 LIG 0.19  C 
BRANCH 52 53
ATOM     53  CB  CYS F   7      33.636 -22.879  38.957  1.00 44.51 LIG 0.11  C 
BRANCH 53 54
ATOM     54 SG   CYS F   7      33.870 -23.601  37.274  1.00 46.73 LIG-0.18  SA
ATOM     55 HG   CYS F   7      33.303 -24.656  37.209  1.00 46.73 LIG 0.10  HD
ENDBRANCH 53 54
ENDBRANCH 52 53
BRANCH 52 56
ATOM     56  C   CYS F   7      32.392 -23.670  41.088  1.00 45.05 LIG 0.20  C 
ATOM     57 OXT  CYS F   7      31.238 -23.329  40.784  1.00 44.33 LIG-0.65  OA
ATOM     58 O    CYS F   7      32.718 -23.713  42.290  1.00 44.51 LIG-0.65  OA
ENDBRANCH 52 56
ENDBRANCH 49 52
ENDBRANCH 43 48
ENDBRANCH 40 41
BRANCH 40 59
ATOM     59  CB  THR F   5      38.328 -25.995  37.130  1.00 46.83 LIG 0.15  C 
ATOM     60  CG2 THR F   5      39.433 -26.334  38.120  1.00 46.88 LIG 0.04  C 
BRANCH 59 61
ATOM     61 OG1  THR F   5      38.888 -25.462  35.922  1.00 48.31 LIG-0.39  OA
ATOM     62 HG1  THR F   5      38.339 -25.558  35.293  1.00 48.31 LIG 0.21  HD
ENDBRANCH 59 61
ENDBRANCH 40 59
ENDBRANCH 37 40
ENDBRANCH 1 36
TORSDOF 26
ENDMDL
MODEL 4
USER: ADFR SOLUTION from run 196
USER: SCORE 18.262189 LL:  -5.865 LR: -14.051 RR:   0.000 FEB:  -6.295
USER: RMSD 3.341951
USER: SEED 195
USER: STATUS no improvement in best in 6 clusters for 5 generations
USER: GENES 28
USER: genes 0 Translation |==|  0.48405 0.51570 0.49310
USER: genes 1 Rotation |==|  0.58048 0.47529 0.54383 0.99091
USER: genes 2 Torsion [C]-CA--N-[C] |==|  0.84761
USER: genes 3 Torsion [N]-C--CA-[N] |==|  0.08132
USER: genes 4 Torsion [C]-CA--CB-[SG] |==|  0.69595
USER: genes 5 Torsion [CA]-CB--SG-[HG] |==|  0.21491
USER: genes 6 Torsion [C]-CA--N-[C] |==|  0.67425
USER: genes 7 Torsion [N]-C--CA-[N] |==|  0.97274
USER: genes 8 Torsion [C]-CA--CB-[CG] |==|  0.87908
USER: genes 9 Torsion [CA]-CB--CG-[CD] |==|  0.79265
USER: genes 10 Torsion [CB]-CG--CD-[OE1] |==|  0.01098
USER: genes 11 Torsion [C]-CA--N-[C] |==|  0.63415
USER: genes 12 Torsion [N]-C--CA-[N] |==|  0.07532
USER: genes 13 Torsion [C]-CA--CB-[OG] |==|  0.62639
USER: genes 14 Torsion [CA]-CB--OG-[HG] |==|  0.47808
USER: genes 15 Torsion [C]-CA--N-[H1] |==|  0.60853
USER: genes 16 Torsion [N]-CA--CB-[OG1] |==|  0.84621
USER: genes 17 Torsion [CA]-CB--OG1-[HG1] |==|  0.54734
USER: genes 18 Torsion [N]-CA--C-[N] |==|  0.35840
USER: genes 19 Torsion [C]-N--CA-[CB] |==|  0.24287
USER: genes 20 Torsion [N]-CA--C-[N] |==|  0.36304
USER: genes 21 Torsion [N]-CA--C-[N] |==|  0.37912
USER: genes 22 Torsion [C]-N--CA-[CB] |==|  0.33924
USER: genes 23 Torsion [N]-CA--CB-[SG] |==|  0.73358
USER: genes 24 Torsion [CA]-CB--SG-[HG] |==|  0.62950
USER: genes 25 Torsion [N]-CA--C-[OXT] |==|  0.75058
USER: genes 26 Torsion [N]-CA--CB-[OG1] |==|  0.77457
USER: genes 27 Torsion [CA]-CB--OG1-[HG1] |==|  0.08032
ROOT
ATOM      1  CA  THR F   4      39.819 -26.829  33.990  1.00 50.77 LIG 0.20  C 
ENDROOT
BRANCH 1 2
ATOM      2  N   THR F   4      41.246 -26.497  34.032  1.00 51.40 LIG-0.34  N 
ATOM      3 H    THR F   4      41.726 -26.942  33.474  1.00 51.40 LIG 0.16  HD
ATOM      4  C   CYS F   3      41.742 -25.582  34.868  1.00 52.18 LIG 0.24  C 
ATOM      5 O    CYS F   3      41.036 -24.864  35.581  1.00 51.89 LIG-0.27  OA
BRANCH 4 6
ATOM      6  CA  CYS F   3      43.265 -25.408  34.876  1.00 52.92 LIG 0.18  C 
BRANCH 6 7
ATOM      7  CB  CYS F   3      43.660 -23.983  35.288  1.00 52.86 LIG 0.10  C 
BRANCH 7 8
ATOM      8 SG   CYS F   3      44.346 -22.969  33.930  1.00 55.16 LIG-0.18  SA
ATOM      9 HG   CYS F   3      43.453 -22.584  33.227  1.00 55.16 LIG 0.10  HD
ENDBRANCH 7 8
ENDBRANCH 6 7
BRANCH 6 10
ATOM     10  N   CYS F   3      43.799 -25.741  33.552  1.00 53.02 LIG-0.34  N 
ATOM     11 H    CYS F   3      43.519 -25.227  32.922  1.00 53.02 LIG 0.16  HD
ATOM     12  C   GLU F   2      44.642 -26.752  33.354  1.00 53.57 LIG 0.24  C 
ATOM     13 O    GLU F   2      45.167 -27.386  34.275  1.00 53.07 LIG-0.27  OA
BRANCH 12 14
ATOM     14  CA  GLU F   2      44.907 -27.139  31.897  1.00 54.00 LIG 0.18  C 
BRANCH 14 15
ATOM     15  CB  GLU F   2      46.380 -26.805  31.615  1.00 54.10 LIG 0.04  C 
BRANCH 15 16
ATOM     16  CG  GLU F   2      46.898 -25.473  32.139  1.00 55.55 LIG 0.12  C 
BRANCH 16 17
ATOM     17  CD  GLU F   2      46.400 -24.282  31.313  1.00 57.36 LIG 0.17  C 
ATOM     18 OE1  GLU F   2      45.590 -24.463  30.372  1.00 58.39 LIG-0.65  OA
ATOM     19 OE2  GLU F   2      46.807 -23.139  31.611  1.00 58.95 LIG-0.65  OA
ENDBRANCH 16 17
ENDBRANCH 15 16
ENDBRANCH 14 15
BRANCH 14 20
ATOM     20  N   GLU F   2      44.009 -26.476  30.938  1.00 53.99 LIG-0.35  N 
ATOM     21 H    GLU F   2      43.945 -25.628  31.066  1.00 53.99 LIG 0.16  HD
ATOM     22  C   SER F   1      43.350 -27.107  29.962  1.00 54.35 LIG 0.25  C 
ATOM     23 O    SER F   1      43.337 -28.337  29.820  1.00 54.45 LIG-0.27  OA
BRANCH 22 24
ATOM     24  CA  SER F   1      42.556 -26.211  29.002  1.00 54.58 LIG 0.30  C 
BRANCH 24 25
ATOM     25  CB  SER F   1      42.469 -26.858  27.615  1.00 54.63 LIG 0.21  C 
BRANCH 25 26
ATOM     26 OG   SER F   1      42.747 -25.911  26.593  1.00 54.91 LIG-0.40  OA
ATOM     27 HG   SER F   1      42.801 -26.305  25.853  1.00 54.91 LIG 0.21  HD
ENDBRANCH 25 26
ENDBRANCH 24 25
BRANCH 24 28
ATOM     28  N   SER F   1      43.141 -24.838  28.906  1.00 54.74 LIG-0.06  N 
ATOM     29 H1   SER F   1      42.485 -24.238  28.865  1.00 54.74 LIG 0.28  HD
ATOM     30 H2   SER F   1      43.645 -24.679  29.622  1.00 54.74 LIG 0.28  HD
ATOM     31 H3   SER F   1      43.642 -24.779  28.173  1.00 54.74 LIG 0.28  HD
ENDBRANCH 24 28
ENDBRANCH 22 24
ENDBRANCH 14 20
ENDBRANCH 12 14
ENDBRANCH 6 10
ENDBRANCH 4 6
ENDBRANCH 1 2
BRANCH 1 32
ATOM     32  CB  THR F   4      39.492 -28.012  33.062  1.00 51.21 LIG 0.15  C 
ATOM     33  CG2 THR F   4      37.981 -28.245  33.027  1.00 50.61 LIG 0.04  C 
BRANCH 32 34
ATOM     34 OG1  THR F   4      39.990 -27.752  31.745  1.00 51.15 LIG-0.39  OA
ATOM     35 HG1  THR F   4      39.619 -28.270  31.198  1.00 51.15 LIG 0.21  HD
ENDBRANCH 32 34
ENDBRANCH 1 32
BRANCH 1 36
ATOM     36  C   THR F   4      39.409 -27.214  35.402  1.00 49.53 LIG 0.24  C 
ATOM     37  N   THR F   5      38.339 -26.601  35.894  1.00 47.76 LIG-0.34  N 
ATOM     38 H    THR F   5      37.819 -26.112  35.413  1.00 47.76 LIG 0.16  HD
ATOM     39 O    THR F   4      40.076 -28.032  36.028  1.00 50.01 LIG-0.27  OA
BRANCH 37 40
ATOM     40  CA  THR F   5      37.929 -26.687  37.292  1.00 46.83 LIG 0.20  C 
BRANCH 40 41
ATOM     41  C   THR F   5      36.419 -26.468  37.377  1.00 45.74 LIG 0.24  C 
ATOM     42  N   PRO F   6      35.711 -27.357  38.090  1.00 45.40 LIG-0.34  N 
ATOM     43  CA  PRO F   6      34.294 -27.093  38.376  1.00 45.02 LIG 0.18  C 
ATOM     44  CD  PRO F   6      36.135 -28.686  38.572  1.00 45.45 LIG 0.13  C 
ATOM     45  CB  PRO F   6      33.878 -28.274  39.256  1.00 45.11 LIG 0.04  C 
ATOM     46  CG  PRO F   6      34.816 -29.375  38.891  1.00 45.75 LIG 0.02  C 
ATOM     47 O    THR F   5      35.897 -25.519  36.790  1.00 44.21 LIG-0.27  OA
BRANCH 43 48
ATOM     48  C   PRO F   6      34.175 -25.797  39.158  1.00 45.08 LIG 0.24  C 
ATOM     49  N   CYS F   7      33.215 -24.942  38.808  1.00 44.40 LIG-0.34  N 
ATOM     50 H    CYS F   7      32.601 -25.096  38.227  1.00 44.40 LIG 0.16  HD
ATOM     51 O    PRO F   6      34.975 -25.575  40.070  1.00 44.91 LIG-0.27  OA
BRANCH 49 52
ATOM     52  CA  CYS F   7      33.168 -23.628  39.444  1.00 45.02 LIG 0.19  C 
BRANCH 52 53
ATOM     53  CB  CYS F   7      33.252 -22.519  38.383  1.00 44.51 LIG 0.11  C 
BRANCH 53 54
ATOM     54 SG   CYS F   7      34.983 -21.912  38.175  1.00 46.73 LIG-0.18  SA
ATOM     55 HG   CYS F   7      34.988 -20.712  38.170  1.00 46.73 LIG 0.10  HD
ENDBRANCH 53 54
ENDBRANCH 52 53
BRANCH 52 56
ATOM     56  C   CYS F   7      32.012 -23.469  40.451  1.00 45.05 LIG 0.20  C 
ATOM     57 OXT  CYS F   7      30.895 -23.054  40.107  1.00 44.33 LIG-0.65  OA
ATOM     58 O    CYS F   7      32.229 -23.713  41.654  1.00 44.51 LIG-0.65  OA
ENDBRANCH 52 56
ENDBRANCH 49 52
ENDBRANCH 43 48
ENDBRANCH 40 41
BRANCH 40 59
ATOM     59  CB  THR F   5      38.635 -25.598  38.118  1.00 46.83 LIG 0.15  C 
ATOM     60  CG2 THR F   5      37.868 -25.242  39.382  1.00 46.88 LIG 0.04  C 
BRANCH 59 61
ATOM     61 OG1  THR F   5      39.961 -26.037  38.446  1.00 48.31 LIG-0.39  OA
ATOM     62 HG1  THR F   5      40.239 -26.558  37.848  1.00 48.31 LIG 0.21  HD
ENDBRANCH 59 61
ENDBRANCH 40 59
ENDBRANCH 37 40
ENDBRANCH 1 36
TORSDOF 26
ENDMDL
MODEL 5
USER: ADFR SOLUTION from run 151
USER: SCORE 16.642326 LL:  -4.922 LR: -13.330 RR:   0.000 FEB:  -5.574
USER: RMSD 3.213922
USER: SEED 150
USER: STATUS no improvement in best in 4 clusters for 5 generations
USER: GENES 28
USER: genes 0 Translation |==|  0.40784 0.42820 0.48471
USER: genes 1 Rotation |==|  0.48927 0.53234 0.49484 0.99881
USER: genes 2 Torsion [C]-CA--N-[C] |==|  0.80983
USER: genes 3 Torsion [N]-C--CA-[N] |==|  0.22687
USER: genes 4 Torsion [C]-CA--CB-[SG] |==|  0.57233
USER: genes 5 Torsion [CA]-CB--SG-[HG] |==|  0.13739
USER: genes 6 Torsion [C]-CA--N-[C] |==|  0.78812
USER: genes 7 Torsion [N]-C--CA-[N] |==|  0.10259
USER: genes 8 Torsion [C]-CA--CB-[CG] |==|  0.42692
USER: genes 9 Torsion [CA]-CB--CG-[CD] |==|  0.83525
USER: genes 10 Torsion [CB]-CG--CD-[OE1] |==|  0.86760
USER: genes 11 Torsion [C]-CA--N-[C] |==|  0.14647
USER: genes 12 Torsion [N]-C--CA-[N] |==|  0.10390
USER: genes 13 Torsion [C]-CA--CB-[OG] |==|  0.64107
USER: genes 14 Torsion [CA]-CB--OG-[HG] |==|  0.61192
USER: genes 15 Torsion [C]-CA--N-[H1] |==|  0.80161
USER: genes 16 Torsion [N]-CA--CB-[OG1] |==|  0.73156
USER: genes 17 Torsion [CA]-CB--OG1-[HG1] |==|  0.61132
USER: genes 18 Torsion [N]-CA--C-[N] |==|  0.35924
USER: genes 19 Torsion [C]-N--CA-[CB] |==|  0.17423
USER: genes 20 Torsion [N]-CA--C-[N] |==|  0.34834
USER: genes 21 Torsion [N]-CA--C-[N] |==|  0.90614
USER: genes 22 Torsion [C]-N--CA-[CB] |==|  0.31894
USER: genes 23 Torsion [N]-CA--CB-[SG] |==|  0.91511
USER: genes 24 Torsion [CA]-CB--SG-[HG] |==|  0.94388
USER: genes 25 Torsion [N]-CA--C-[OXT] |==|  0.94309
USER: genes 26 Torsion [N]-CA--CB-[OG1] |==|  0.04687
USER: genes 27 Torsion [CA]-CB--OG1-[HG1] |==|  0.11060
ROOT
ATOM      1  CA  THR F   4      37.819 -28.273  33.789  1.00 50.77 LIG 0.20  C 
ENDROOT
BRANCH 1 2
ATOM      2  N   THR F   4      39.241 -28.260  33.434  1.00 51.40 LIG-0.34  N 
ATOM      3 H    THR F   4      39.546 -29.023  33.181  1.00 51.40 LIG 0.16  HD
ATOM      4  C   CYS F   3      39.984 -27.152  33.503  1.00 52.18 LIG 0.24  C 
ATOM      5 O    CYS F   3      39.515 -26.039  33.753  1.00 51.89 LIG-0.27  OA
BRANCH 4 6
ATOM      6  CA  CYS F   3      41.479 -27.305  33.201  1.00 52.92 LIG 0.18  C 
BRANCH 6 7
ATOM      7  CB  CYS F   3      42.298 -26.195  33.875  1.00 52.86 LIG 0.10  C 
BRANCH 7 8
ATOM      8 SG   CYS F   3      43.878 -25.812  33.040  1.00 55.16 LIG-0.18  SA
ATOM      9 HG   CYS F   3      43.682 -25.653  31.866  1.00 55.16 LIG 0.10  HD
ENDBRANCH 7 8
ENDBRANCH 6 7
BRANCH 6 10
ATOM     10  N   CYS F   3      41.683 -27.303  31.750  1.00 53.02 LIG-0.34  N 
ATOM     11 H    CYS F   3      41.995 -26.564  31.441  1.00 53.02 LIG 0.16  HD
ATOM     12  C   GLU F   2      41.406 -28.359  30.987  1.00 53.57 LIG 0.24  C 
ATOM     13 O    GLU F   2      41.112 -29.468  31.446  1.00 53.07 LIG-0.27  OA
BRANCH 12 14
ATOM     14  CA  GLU F   2      41.422 -28.126  29.474  1.00 54.00 LIG 0.18  C 
BRANCH 14 15
ATOM     15  CB  GLU F   2      41.581 -29.506  28.819  1.00 54.10 LIG 0.04  C 
BRANCH 15 16
ATOM     16  CG  GLU F   2      41.031 -29.669  27.409  1.00 55.55 LIG 0.12  C 
BRANCH 16 17
ATOM     17  CD  GLU F   2      39.527 -29.384  27.329  1.00 57.36 LIG 0.17  C 
ATOM     18 OE1  GLU F   2      38.744 -29.899  28.162  1.00 58.39 LIG-0.65  OA
ATOM     19 OE2  GLU F   2      39.113 -28.622  26.430  1.00 58.95 LIG-0.65  OA
ENDBRANCH 16 17
ENDBRANCH 15 16
ENDBRANCH 14 15
BRANCH 14 20
ATOM     20  N   GLU F   2      42.471 -27.193  29.033  1.00 53.99 LIG-0.35  N 
ATOM     21 H    GLU F   2      42.168 -26.551  28.548  1.00 53.99 LIG 0.16  HD
ATOM     22  C   SER F   1      43.765 -27.313  29.342  1.00 54.35 LIG 0.25  C 
ATOM     23 O    SER F   1      44.244 -28.282  29.946  1.00 54.45 LIG-0.27  OA
BRANCH 22 24
ATOM     24  CA  SER F   1      44.674 -26.168  28.875  1.00 54.58 LIG 0.30  C 
BRANCH 24 25
ATOM     25  CB  SER F   1      45.988 -26.173  29.663  1.00 54.63 LIG 0.21  C 
BRANCH 25 26
ATOM     26 OG   SER F   1      46.267 -24.886  30.196  1.00 54.91 LIG-0.40  OA
ATOM     27 HG   SER F   1      47.088 -24.723  30.121  1.00 54.91 LIG 0.21  HD
ENDBRANCH 25 26
ENDBRANCH 24 25
BRANCH 24 28
ATOM     28  N   SER F   1      43.999 -24.838  28.985  1.00 54.74 LIG-0.06  N 
ATOM     29 H1   SER F   1      43.366 -24.773  28.363  1.00 54.74 LIG 0.28  HD
ATOM     30 H2   SER F   1      43.631 -24.758  29.792  1.00 54.74 LIG 0.28  HD
ATOM     31 H3   SER F   1      44.598 -24.191  28.868  1.00 54.74 LIG 0.28  HD
ENDBRANCH 24 28
ENDBRANCH 22 24
ENDBRANCH 14 20
ENDBRANCH 12 14
ENDBRANCH 6 10
ENDBRANCH 4 6
ENDBRANCH 1 2
BRANCH 1 32
ATOM     32  CB  THR F   4      37.118 -29.603  33.463  1.00 51.21 LIG 0.15  C 
ATOM     33  CG2 THR F   4      36.120 -29.952  34.567  1.00 50.61 LIG 0.04  C 
BRANCH 32 34
ATOM     34 OG1  THR F   4      36.453 -29.509  32.198  1.00 51.15 LIG-0.39  OA
ATOM     35 HG1  THR F   4      35.710 -29.897  32.242  1.00 51.15 LIG 0.21  HD
ENDBRANCH 32 34
ENDBRANCH 1 32
BRANCH 1 36
ATOM     36  C   THR F   4      37.731 -28.053  35.290  1.00 49.53 LIG 0.24  C 
ATOM     37  N   THR F   5      36.903 -27.099  35.699  1.00 47.76 LIG-0.34  N 
ATOM     38 H    THR F   5      36.345 -26.708  35.174  1.00 47.76 LIG 0.16  HD
ATOM     39 O    THR F   4      38.426 -28.724  36.045  1.00 50.01 LIG-0.27  OA
BRANCH 37 40
ATOM     40  CA  THR F   5      36.850 -26.610  37.073  1.00 46.83 LIG 0.20  C 
BRANCH 40 41
ATOM     41  C   THR F   5      35.750 -25.553  37.178  1.00 45.74 LIG 0.24  C 
ATOM     42  N   PRO F   6      34.807 -25.740  38.113  1.00 45.40 LIG-0.34  N 
ATOM     43  CA  PRO F   6      33.844 -24.668  38.397  1.00 45.02 LIG 0.18  C 
ATOM     44  CD  PRO F   6      34.507 -26.969  38.872  1.00 45.45 LIG 0.13  C 
ATOM     45  CB  PRO F   6      33.008 -25.230  39.549  1.00 45.11 LIG 0.04  C 
ATOM     46  CG  PRO F   6      33.105 -26.711  39.407  1.00 45.75 LIG 0.02  C 
ATOM     47 O    THR F   5      35.744 -24.589  36.410  1.00 44.21 LIG-0.27  OA
BRANCH 43 48
ATOM     48  C   PRO F   6      34.596 -23.431  38.858  1.00 45.08 LIG 0.24  C 
ATOM     49  N   CYS F   7      35.708 -23.605  39.570  1.00 44.40 LIG-0.34  N 
ATOM     50 H    CYS F   7      36.084 -24.361  39.726  1.00 44.40 LIG 0.16  HD
ATOM     51 O    PRO F   6      34.145 -22.319  38.572  1.00 44.91 LIG-0.27  OA
BRANCH 49 52
ATOM     52  CA  CYS F   7      36.369 -22.438  40.149  1.00 45.02 LIG 0.19  C 
BRANCH 52 53
ATOM     53  CB  CYS F   7      36.320 -22.503  41.684  1.00 44.51 LIG 0.11  C 
BRANCH 53 54
ATOM     54 SG   CYS F   7      34.808 -23.382  42.275  1.00 46.73 LIG-0.18  SA
ATOM     55 HG   CYS F   7      33.981 -23.384  41.406  1.00 46.73 LIG 0.10  HD
ENDBRANCH 53 54
ENDBRANCH 52 53
BRANCH 52 56
ATOM     56  C   CYS F   7      37.768 -22.166  39.562  1.00 45.05 LIG 0.20  C 
ATOM     57 OXT  CYS F   7      38.419 -23.047  38.979  1.00 44.33 LIG-0.65  OA
ATOM     58 O    CYS F   7      38.278 -21.040  39.729  1.00 44.51 LIG-0.65  OA
ENDBRANCH 52 56
ENDBRANCH 49 52
ENDBRANCH 43 48
ENDBRANCH 40 41
BRANCH 40 59
ATOM     59  CB  THR F   5      38.193 -25.968  37.460  1.00 46.83 LIG 0.15  C 
ATOM     60  CG2 THR F   5      39.004 -26.846  38.402  1.00 46.88 LIG 0.04  C 
BRANCH 59 61
ATOM     61 OG1  THR F   5      38.944 -25.687  36.270  1.00 48.31 LIG-0.39  OA
ATOM     62 HG1  THR F   5      38.427 -25.399  35.674  1.00 48.31 LIG 0.21  HD
ENDBRANCH 59 61
ENDBRANCH 40 59
ENDBRANCH 37 40
ENDBRANCH 1 36
TORSDOF 26
ENDMDL
MODEL 6
USER: ADFR SOLUTION from run 53
USER: SCORE 16.498666 LL:  -5.489 LR: -13.299 RR:   0.000 FEB:  -5.544
USER: RMSD 3.159336
USER: SEED 52
USER: STATUS searching
USER: GENES 28
USER: genes 0 Translation |==|  0.41944 0.43038 0.45867
USER: genes 1 Rotation |==|  0.52599 0.55337 0.39358 0.98492
USER: genes 2 Torsion [C]-CA--N-[C] |==|  0.75098
USER: genes 3 Torsion [N]-C--CA-[N] |==|  0.60000
USER: genes 4 Torsion [C]-CA--CB-[SG] |==|  0.82215
USER: genes 5 Torsion [CA]-CB--SG-[HG] |==|  0.00406
USER: genes 6 Torsion [C]-CA--N-[C] |==|  0.72564
USER: genes 7 Torsion [N]-C--CA-[N] |==|  0.50820
USER: genes 8 Torsion [C]-CA--CB-[CG] |==|  0.50187
USER: genes 9 Torsion [CA]-CB--CG-[CD] |==|  0.19695
USER: genes 10 Torsion [CB]-CG--CD-[OE1] |==|  0.22501
USER: genes 11 Torsion [C]-CA--N-[C] |==|  0.72837
USER: genes 12 Torsion [N]-C--CA-[N] |==|  0.21516
USER: genes 13 Torsion [C]-CA--CB-[OG] |==|  0.57632
USER: genes 14 Torsion [CA]-CB--OG-[HG] |==|  0.46417
USER: genes 15 Torsion [C]-CA--N-[H1] |==|  0.34667
USER: genes 16 Torsion [N]-CA--CB-[OG1] |==|  0.53850
USER: genes 17 Torsion [CA]-CB--OG1-[HG1] |==|  0.39012
USER: genes 18 Torsion [N]-CA--C-[N] |==|  0.45939
USER: genes 19 Torsion [C]-N--CA-[CB] |==|  0.23063
USER: genes 20 Torsion [N]-CA--C-[N] |==|  0.31796
USER: genes 21 Torsion [N]-CA--C-[N] |==|  0.39278
USER: genes 22 Torsion [C]-N--CA-[CB] |==|  0.29527
USER: genes 23 Torsion [N]-CA--CB-[SG] |==|  0.70732
USER: genes 24 Torsion [CA]-CB--SG-[HG] |==|  0.57633
USER: genes 25 Torsion [N]-CA--C-[OXT] |==|  0.29287
USER: genes 26 Torsion [N]-CA--CB-[OG1] |==|  0.97912
USER: genes 27 Torsion [CA]-CB--OG1-[HG1] |==|  0.11461
ROOT
ATOM      1  CA  THR F   4      38.123 -28.237  33.164  1.00 50.77 LIG 0.20  C 
ENDROOT
BRANCH 1 2
ATOM      2  N   THR F   4      39.405 -28.748  32.671  1.00 51.40 LIG-0.34  N 
ATOM      3 H    THR F   4      39.431 -29.603  32.582  1.00 51.40 LIG 0.16  HD
ATOM      4  C   CYS F   3      40.434 -27.944  32.391  1.00 52.18 LIG 0.24  C 
ATOM      5 O    CYS F   3      40.354 -26.713  32.408  1.00 51.89 LIG-0.27  OA
BRANCH 4 6
ATOM      6  CA  CYS F   3      41.747 -28.622  31.981  1.00 52.92 LIG 0.18  C 
BRANCH 6 7
ATOM      7  CB  CYS F   3      41.791 -30.081  32.459  1.00 52.86 LIG 0.10  C 
BRANCH 7 8
ATOM      8 SG   CYS F   3      41.779 -30.278  34.276  1.00 55.16 LIG-0.18  SA
ATOM      9 HG   CYS F   3      41.708 -29.199  34.796  1.00 55.16 LIG 0.10  HD
ENDBRANCH 7 8
ENDBRANCH 6 7
BRANCH 6 10
ATOM     10  N   CYS F   3      42.876 -27.857  32.518  1.00 53.02 LIG-0.34  N 
ATOM     11 H    CYS F   3      43.051 -28.023  33.343  1.00 53.02 LIG 0.16  HD
ATOM     12  C   GLU F   2      43.563 -26.984  31.783  1.00 53.57 LIG 0.24  C 
ATOM     13 O    GLU F   2      43.416 -26.864  30.563  1.00 53.07 LIG-0.27  OA
BRANCH 12 14
ATOM     14  CA  GLU F   2      44.537 -26.078  32.541  1.00 54.00 LIG 0.18  C 
BRANCH 14 15
ATOM     15  CB  GLU F   2      43.727 -25.398  33.655  1.00 54.10 LIG 0.04  C 
BRANCH 15 16
ATOM     16  CG  GLU F   2      44.473 -24.422  34.553  1.00 55.55 LIG 0.12  C 
BRANCH 16 17
ATOM     17  CD  GLU F   2      44.845 -23.123  33.829  1.00 57.36 LIG 0.17  C 
ATOM     18 OE1  GLU F   2      43.992 -22.213  33.691  1.00 58.39 LIG-0.65  OA
ATOM     19 OE2  GLU F   2      46.010 -22.994  33.400  1.00 58.95 LIG-0.65  OA
ENDBRANCH 16 17
ENDBRANCH 15 16
ENDBRANCH 14 15
BRANCH 14 20
ATOM     20  N   GLU F   2      45.212 -25.092  31.684  1.00 53.99 LIG-0.35  N 
ATOM     21 H    GLU F   2      44.736 -24.392  31.535  1.00 53.99 LIG 0.16  HD
ATOM     22  C   SER F   1      46.440 -25.247  31.179  1.00 54.35 LIG 0.25  C 
ATOM     23 O    SER F   1      47.105 -26.286  31.288  1.00 54.45 LIG-0.27  OA
BRANCH 22 24
ATOM     24  CA  SER F   1      47.002 -24.048  30.405  1.00 54.58 LIG 0.30  C 
BRANCH 24 25
ATOM     25  CB  SER F   1      48.124 -24.498  29.462  1.00 54.63 LIG 0.21  C 
BRANCH 25 26
ATOM     26 OG   SER F   1      49.047 -23.443  29.229  1.00 54.91 LIG-0.40  OA
ATOM     27 HG   SER F   1      49.738 -23.751  28.862  1.00 54.91 LIG 0.21  HD
ENDBRANCH 25 26
ENDBRANCH 24 25
BRANCH 24 28
ATOM     28  N   SER F   1      47.486 -22.969  31.321  1.00 54.74 LIG-0.06  N 
ATOM     29 H1   SER F   1      48.335 -22.778  31.133  1.00 54.74 LIG 0.28  HD
ATOM     30 H2   SER F   1      46.987 -22.240  31.211  1.00 54.74 LIG 0.28  HD
ATOM     31 H3   SER F   1      47.425 -23.245  32.164  1.00 54.74 LIG 0.28  HD
ENDBRANCH 24 28
ENDBRANCH 22 24
ENDBRANCH 14 20
ENDBRANCH 12 14
ENDBRANCH 6 10
ENDBRANCH 4 6
ENDBRANCH 1 2
BRANCH 1 32
ATOM     32  CB  THR F   4      36.923 -29.118  32.777  1.00 51.21 LIG 0.15  C 
ATOM     33  CG2 THR F   4      36.945 -30.415  33.585  1.00 50.61 LIG 0.04  C 
BRANCH 32 34
ATOM     34 OG1  THR F   4      35.701 -28.407  33.004  1.00 51.15 LIG-0.39  OA
ATOM     35 HG1  THR F   4      35.162 -28.568  32.380  1.00 51.15 LIG 0.21  HD
ENDBRANCH 32 34
ENDBRANCH 1 32
BRANCH 1 36
ATOM     36  C   THR F   4      38.210 -28.202  34.681  1.00 49.53 LIG 0.24  C 
ATOM     37  N   THR F   5      37.277 -27.496  35.309  1.00 47.76 LIG-0.34  N 
ATOM     38 H    THR F   5      36.583 -27.181  34.911  1.00 47.76 LIG 0.16  HD
ATOM     39 O    THR F   4      39.124 -28.786  35.252  1.00 50.01 LIG-0.27  OA
BRANCH 37 40
ATOM     40  CA  THR F   5      37.325 -27.180  36.733  1.00 46.83 LIG 0.20  C 
BRANCH 40 41
ATOM     41  C   THR F   5      35.908 -26.872  37.217  1.00 45.74 LIG 0.24  C 
ATOM     42  N   PRO F   6      35.367 -27.719  38.106  1.00 45.40 LIG-0.34  N 
ATOM     43  CA  PRO F   6      34.097 -27.372  38.758  1.00 45.02 LIG 0.18  C 
ATOM     44  CD  PRO F   6      35.827 -29.072  38.474  1.00 45.45 LIG 0.13  C 
ATOM     45  CB  PRO F   6      33.865 -28.529  39.733  1.00 45.11 LIG 0.04  C 
ATOM     46  CG  PRO F   6      34.604 -29.682  39.145  1.00 45.75 LIG 0.02  C 
ATOM     47 O    THR F   5      35.303 -25.892  36.779  1.00 44.21 LIG-0.27  OA
BRANCH 43 48
ATOM     48  C   PRO F   6      34.268 -26.073  39.526  1.00 45.08 LIG 0.24  C 
ATOM     49  N   CYS F   7      33.258 -25.204  39.517  1.00 44.40 LIG-0.34  N 
ATOM     50 H    CYS F   7      32.482 -25.349  39.178  1.00 44.40 LIG 0.16  HD
ATOM     51 O    PRO F   6      35.333 -25.863  40.112  1.00 44.91 LIG-0.27  OA
BRANCH 49 52
ATOM     52  CA  CYS F   7      33.448 -23.889  40.122  1.00 45.02 LIG 0.19  C 
BRANCH 52 53
ATOM     53  CB  CYS F   7      33.575 -22.813  39.032  1.00 44.51 LIG 0.11  C 
BRANCH 53 54
ATOM     54 SG   CYS F   7      35.321 -22.244  38.843  1.00 46.73 LIG-0.18  SA
ATOM     55 HG   CYS F   7      35.333 -21.116  38.435  1.00 46.73 LIG 0.10  HD
ENDBRANCH 53 54
ENDBRANCH 52 53
BRANCH 52 56
ATOM     56  C   CYS F   7      32.427 -23.565  41.230  1.00 45.05 LIG 0.20  C 
ATOM     57 OXT  CYS F   7      32.733 -23.584  42.432  1.00 44.33 LIG-0.65  OA
ATOM     58 O    CYS F   7      31.246 -23.331  40.904  1.00 44.51 LIG-0.65  OA
ENDBRANCH 52 56
ENDBRANCH 49 52
ENDBRANCH 43 48
ENDBRANCH 40 41
BRANCH 40 59
ATOM     59  CB  THR F   5      38.210 -25.944  36.971  1.00 46.83 LIG 0.15  C 
ATOM     60  CG2 THR F   5      39.238 -26.172  38.068  1.00 46.88 LIG 0.04  C 
BRANCH 59 61
ATOM     61 OG1  THR F   5      38.860 -25.584  35.744  1.00 48.31 LIG-0.39  OA
ATOM     62 HG1  THR F   5      38.317 -25.656  35.107  1.00 48.31 LIG 0.21  HD
ENDBRANCH 59 61
ENDBRANCH 40 59
ENDBRANCH 37 40
ENDBRANCH 1 36
TORSDOF 26
ENDMDL
MODEL 7
USER: ADFR SOLUTION from run 99
USER: SCORE 16.841827 LL:  -5.247 LR: -13.275 RR:   0.000 FEB:  -5.520
USER: RMSD 4.313234
USER: SEED 98
USER: STATUS no improvement in best in 6 clusters for 5 generations
USER: GENES 28
USER: genes 0 Translation |==|  0.42257 0.45418 0.50637
USER: genes 1 Rotation |==|  0.50873 0.40064 0.54117 0.98822
USER: genes 2 Torsion [C]-CA--N-[C] |==|  0.60477
USER: genes 3 Torsion [N]-C--CA-[N] |==|  0.41707
USER: genes 4 Torsion [C]-CA--CB-[SG] |==|  0.59867
USER: genes 5 Torsion [CA]-CB--SG-[HG] |==|  0.21424
USER: genes 6 Torsion [C]-CA--N-[C] |==|  0.65384
USER: genes 7 Torsion [N]-C--CA-[N] |==|  0.95875
USER: genes 8 Torsion [C]-CA--CB-[CG] |==|  0.59348
USER: genes 9 Torsion [CA]-CB--CG-[CD] |==|  0.33352
USER: genes 10 Torsion [CB]-CG--CD-[OE1] |==|  0.93987
USER: genes 11 Torsion [C]-CA--N-[C] |==|  0.75256
USER: genes 12 Torsion [N]-C--CA-[N] |==|  0.03501
USER: genes 13 Torsion [C]-CA--CB-[OG] |==|  0.74324
USER: genes 14 Torsion [CA]-CB--OG-[HG] |==|  0.44156
USER: genes 15 Torsion [C]-CA--N-[H1] |==|  0.63584
USER: genes 16 Torsion [N]-CA--CB-[OG1] |==|  0.86367
USER: genes 17 Torsion [CA]-CB--OG1-[HG1] |==|  0.99642
USER: genes 18 Torsion [N]-CA--C-[N] |==|  0.22061
USER: genes 19 Torsion [C]-N--CA-[CB] |==|  0.23889
USER: genes 20 Torsion [N]-CA--C-[N] |==|  0.41474
USER: genes 21 Torsion [N]-CA--C-[N] |==|  0.89175
USER: genes 22 Torsion [C]-N--CA-[CB] |==|  0.39697
USER: genes 23 Torsion [N]-CA--CB-[SG] |==|  0.92102
USER: genes 24 Torsion [CA]-CB--SG-[HG] |==|  0.98636
USER: genes 25 Torsion [N]-CA--C-[OXT] |==|  0.88627
USER: genes 26 Torsion [N]-CA--CB-[OG1] |==|  0.86555
USER: genes 27 Torsion [CA]-CB--OG1-[HG1] |==|  0.94857
ROOT
ATOM      1  CA  THR F   4      38.205 -27.844  34.309  1.00 50.77 LIG 0.20  C 
ENDROOT
BRANCH 1 2
ATOM      2  N   THR F   4      39.581 -27.556  34.724  1.00 51.40 LIG-0.34  N 
ATOM      3 H    THR F   4      39.804 -27.916  35.473  1.00 51.40 LIG 0.16  HD
ATOM      4  C   CYS F   3      40.403 -26.798  33.994  1.00 52.18 LIG 0.24  C 
ATOM      5 O    CYS F   3      40.118 -26.383  32.868  1.00 51.89 LIG-0.27  OA
BRANCH 4 6
ATOM      6  CA  CYS F   3      41.779 -26.495  34.597  1.00 52.92 LIG 0.18  C 
BRANCH 6 7
ATOM      7  CB  CYS F   3      41.729 -25.254  35.500  1.00 52.86 LIG 0.10  C 
BRANCH 7 8
ATOM      8 SG   CYS F   3      43.236 -24.222  35.446  1.00 55.16 LIG-0.18  SA
ATOM      9 HG   CYS F   3      43.238 -23.569  34.439  1.00 55.16 LIG 0.10  HD
ENDBRANCH 7 8
ENDBRANCH 6 7
BRANCH 6 10
ATOM     10  N   CYS F   3      42.755 -26.322  33.517  1.00 53.02 LIG-0.34  N 
ATOM     11 H    CYS F   3      42.537 -25.723  32.941  1.00 53.02 LIG 0.16  HD
ATOM     12  C   GLU F   2      43.878 -27.035  33.447  1.00 53.57 LIG 0.24  C 
ATOM     13 O    GLU F   2      44.268 -27.775  34.355  1.00 53.07 LIG-0.27  OA
BRANCH 12 14
ATOM     14  CA  GLU F   2      44.665 -26.931  32.138  1.00 54.00 LIG 0.18  C 
BRANCH 14 15
ATOM     15  CB  GLU F   2      45.929 -26.116  32.450  1.00 54.10 LIG 0.04  C 
BRANCH 15 16
ATOM     16  CG  GLU F   2      46.460 -25.214  31.344  1.00 55.55 LIG 0.12  C 
BRANCH 16 17
ATOM     17  CD  GLU F   2      46.499 -23.738  31.757  1.00 57.36 LIG 0.17  C 
ATOM     18 OE1  GLU F   2      45.772 -23.327  32.693  1.00 58.39 LIG-0.65  OA
ATOM     19 OE2  GLU F   2      47.276 -22.971  31.151  1.00 58.95 LIG-0.65  OA
ENDBRANCH 16 17
ENDBRANCH 15 16
ENDBRANCH 14 15
BRANCH 14 20
ATOM     20  N   GLU F   2      43.897 -26.337  31.033  1.00 53.99 LIG-0.35  N 
ATOM     21 H    GLU F   2      43.985 -25.483  30.982  1.00 53.99 LIG 0.16  HD
ATOM     22  C   SER F   1      43.135 -27.033  30.185  1.00 54.35 LIG 0.25  C 
ATOM     23 O    SER F   1      42.904 -28.244  30.298  1.00 54.45 LIG-0.27  OA
BRANCH 22 24
ATOM     24  CA  SER F   1      42.511 -26.232  29.034  1.00 54.58 LIG 0.30  C 
BRANCH 24 25
ATOM     25  CB  SER F   1      42.637 -27.005  27.716  1.00 54.63 LIG 0.21  C 
BRANCH 25 26
ATOM     26 OG   SER F   1      43.820 -26.638  27.021  1.00 54.91 LIG-0.40  OA
ATOM     27 HG   SER F   1      44.025 -27.244  26.476  1.00 54.91 LIG 0.21  HD
ENDBRANCH 25 26
ENDBRANCH 24 25
BRANCH 24 28
ATOM     28  N   SER F   1      43.117 -24.871  28.906  1.00 54.74 LIG-0.06  N 
ATOM     29 H1   SER F   1      42.471 -24.262  28.850  1.00 54.74 LIG 0.28  HD
ATOM     30 H2   SER F   1      43.623 -24.703  29.619  1.00 54.74 LIG 0.28  HD
ATOM     31 H3   SER F   1      43.620 -24.838  28.173  1.00 54.74 LIG 0.28  HD
ENDBRANCH 24 28
ENDBRANCH 22 24
ENDBRANCH 14 20
ENDBRANCH 12 14
ENDBRANCH 6 10
ENDBRANCH 4 6
ENDBRANCH 1 2
BRANCH 1 32
ATOM     32  CB  THR F   4      38.044 -29.217  33.632  1.00 51.21 LIG 0.15  C 
ATOM     33  CG2 THR F   4      36.643 -29.343  33.035  1.00 50.61 LIG 0.04  C 
BRANCH 32 34
ATOM     34 OG1  THR F   4      39.039 -29.381  32.616  1.00 51.15 LIG-0.39  OA
ATOM     35 HG1  THR F   4      39.511 -28.687  32.571  1.00 51.15 LIG 0.21  HD
ENDBRANCH 32 34
ENDBRANCH 1 32
BRANCH 1 36
ATOM     36  C   THR F   4      37.349 -27.837  35.565  1.00 49.53 LIG 0.24  C 
ATOM     37  N   THR F   5      36.996 -26.646  36.031  1.00 47.76 LIG-0.34  N 
ATOM     38 H    THR F   5      37.122 -25.916  35.593  1.00 47.76 LIG 0.16  HD
ATOM     39 O    THR F   4      37.046 -28.898  36.100  1.00 50.01 LIG-0.27  OA
BRANCH 37 40
ATOM     40  CA  THR F   5      36.362 -26.442  37.330  1.00 46.83 LIG 0.20  C 
BRANCH 40 41
ATOM     41  C   THR F   5      35.553 -25.145  37.285  1.00 45.74 LIG 0.24  C 
ATOM     42  N   PRO F   6      34.454 -25.082  38.052  1.00 45.40 LIG-0.34  N 
ATOM     43  CA  PRO F   6      33.751 -23.801  38.208  1.00 45.02 LIG 0.18  C 
ATOM     44  CD  PRO F   6      33.743 -26.188  38.721  1.00 45.45 LIG 0.13  C 
ATOM     45  CB  PRO F   6      32.628 -24.124  39.195  1.00 45.11 LIG 0.04  C 
ATOM     46  CG  PRO F   6      32.381 -25.586  39.032  1.00 45.75 LIG 0.02  C 
ATOM     47 O    THR F   5      35.907 -24.220  36.553  1.00 44.21 LIG-0.27  OA
BRANCH 43 48
ATOM     48  C   PRO F   6      34.699 -22.781  38.815  1.00 45.08 LIG 0.24  C 
ATOM     49  N   CYS F   7      35.533 -23.193  39.768  1.00 44.40 LIG-0.34  N 
ATOM     50 H    CYS F   7      35.639 -24.009  40.016  1.00 44.40 LIG 0.16  HD
ATOM     51 O    PRO F   6      34.651 -21.614  38.419  1.00 44.91 LIG-0.27  OA
BRANCH 49 52
ATOM     52  CA  CYS F   7      36.351 -22.208  40.470  1.00 45.02 LIG 0.19  C 
BRANCH 52 53
ATOM     53  CB  CYS F   7      36.488 -22.587  41.953  1.00 44.51 LIG 0.11  C 
BRANCH 53 54
ATOM     54 SG   CYS F   7      35.026 -23.546  42.544  1.00 46.73 LIG-0.18  SA
ATOM     55 HG   CYS F   7      34.205 -23.602  41.671  1.00 46.73 LIG 0.10  HD
ENDBRANCH 53 54
ENDBRANCH 52 53
BRANCH 52 56
ATOM     56  C   CYS F   7      37.682 -21.891  39.761  1.00 45.05 LIG 0.20  C 
ATOM     57 OXT  CYS F   7      38.373 -22.778  39.234  1.00 44.33 LIG-0.65  OA
ATOM     58 O    CYS F   7      38.100 -20.717  39.770  1.00 44.51 LIG-0.65  OA
ENDBRANCH 52 56
ENDBRANCH 49 52
ENDBRANCH 43 48
ENDBRANCH 40 41
BRANCH 40 59
ATOM     59  CB  THR F   5      37.431 -26.323  38.429  1.00 46.83 LIG 0.15  C 
ATOM     60  CG2 THR F   5      36.828 -26.321  39.826  1.00 46.88 LIG 0.04  C 
BRANCH 59 61
ATOM     61 OG1  THR F   5      38.373 -27.396  38.292  1.00 48.31 LIG-0.39  OA
ATOM     62 HG1  THR F   5      38.035 -28.007  37.824  1.00 48.31 LIG 0.21  HD
ENDBRANCH 59 61
ENDBRANCH 40 59
ENDBRANCH 37 40
ENDBRANCH 1 36
TORSDOF 26
ENDMDL
MODEL 8
USER: ADFR SOLUTION from run 160
USER: SCORE 16.413270 LL:  -4.695 LR: -13.051 RR:   0.000 FEB:  -5.295
USER: RMSD 2.237646
USER: SEED 159
USER: STATUS no improvement in best in 7 clusters for 5 generations
USER: GENES 28
USER: genes 0 Translation |==|  0.44972 0.45681 0.47969
USER: genes 1 Rotation |==|  0.53332 0.52033 0.49689 0.99846
USER: genes 2 Torsion [C]-CA--N-[C] |==|  0.79444
USER: genes 3 Torsion [N]-C--CA-[N] |==|  0.19802
USER: genes 4 Torsion [C]-CA--CB-[SG] |==|  0.60210
USER: genes 5 Torsion [CA]-CB--SG-[HG] |==|  0.18764
USER: genes 6 Torsion [C]-CA--N-[C] |==|  0.75561
USER: genes 7 Torsion [N]-C--CA-[N] |==|  0.39916
USER: genes 8 Torsion [C]-CA--CB-[CG] |==|  0.57862
USER: genes 9 Torsion [CA]-CB--CG-[CD] |==|  0.45907
USER: genes 10 Torsion [CB]-CG--CD-[OE1] |==|  0.84667
USER: genes 11 Torsion [C]-CA--N-[C] |==|  0.82937
USER: genes 12 Torsion [N]-C--CA-[N] |==|  0.52429
USER: genes 13 Torsion [C]-CA--CB-[OG] |==|  0.73877
USER: genes 14 Torsion [CA]-CB--OG-[HG] |==|  0.54022
USER: genes 15 Torsion [C]-CA--N-[H1] |==|  0.54174
USER: genes 16 Torsion [N]-CA--CB-[OG1] |==|  0.90559
USER: genes 17 Torsion [CA]-CB--OG1-[HG1] |==|  0.39651
USER: genes 18 Torsion [N]-CA--C-[N] |==|  0.39429
USER: genes 19 Torsion [C]-N--CA-[CB] |==|  0.24166
USER: genes 20 Torsion [N]-CA--C-[N] |==|  0.34278
USER: genes 21 Torsion [N]-CA--C-[N] |==|  0.43285
USER: genes 22 Torsion [C]-N--CA-[CB] |==|  0.32566
USER: genes 23 Torsion [N]-CA--CB-[SG] |==|  0.82638
USER: genes 24 Torsion [CA]-CB--SG-[HG] |==|  0.01903
USER: genes 25 Torsion [N]-CA--C-[OXT] |==|  0.75710
USER: genes 26 Torsion [N]-CA--CB-[OG1] |==|  0.85283
USER: genes 27 Torsion [CA]-CB--OG1-[HG1] |==|  0.13757
ROOT
ATOM      1  CA  THR F   4      38.918 -27.801  33.669  1.00 50.77 LIG 0.20  C 
ENDROOT
BRANCH 1 2
ATOM      2  N   THR F   4      40.356 -27.735  33.392  1.00 51.40 LIG-0.34  N 
ATOM      3 H    THR F   4      40.690 -28.470  33.094  1.00 51.40 LIG 0.16  HD
ATOM      4  C   CYS F   3      41.071 -26.625  33.590  1.00 52.18 LIG 0.24  C 
ATOM      5 O    CYS F   3      40.567 -25.543  33.904  1.00 51.89 LIG-0.27  OA
BRANCH 4 6
ATOM      6  CA  CYS F   3      42.582 -26.727  33.355  1.00 52.92 LIG 0.18  C 
BRANCH 6 7
ATOM      7  CB  CYS F   3      43.319 -25.517  33.947  1.00 52.86 LIG 0.10  C 
BRANCH 7 8
ATOM      8 SG   CYS F   3      44.742 -24.943  32.954  1.00 55.16 LIG-0.18  SA
ATOM      9 HG   CYS F   3      44.348 -24.486  31.916  1.00 55.16 LIG 0.10  HD
ENDBRANCH 7 8
ENDBRANCH 6 7
BRANCH 6 10
ATOM     10  N   CYS F   3      42.844 -26.853  31.919  1.00 53.02 LIG-0.34  N 
ATOM     11 H    CYS F   3      42.977 -26.103  31.520  1.00 53.02 LIG 0.16  HD
ATOM     12  C   GLU F   2      42.870 -28.030  31.297  1.00 53.57 LIG 0.24  C 
ATOM     13 O    GLU F   2      42.839 -29.112  31.893  1.00 53.07 LIG-0.27  OA
BRANCH 12 14
ATOM     14  CA  GLU F   2      42.894 -27.988  29.767  1.00 54.00 LIG 0.18  C 
BRANCH 14 15
ATOM     15  CB  GLU F   2      41.433 -28.072  29.302  1.00 54.10 LIG 0.04  C 
BRANCH 15 16
ATOM     16  CG  GLU F   2      41.177 -28.697  27.938  1.00 55.55 LIG 0.12  C 
BRANCH 16 17
ATOM     17  CD  GLU F   2      39.703 -29.061  27.725  1.00 57.36 LIG 0.17  C 
ATOM     18 OE1  GLU F   2      39.113 -29.804  28.545  1.00 58.39 LIG-0.65  OA
ATOM     19 OE2  GLU F   2      39.111 -28.588  26.732  1.00 58.95 LIG-0.65  OA
ENDBRANCH 16 17
ENDBRANCH 15 16
ENDBRANCH 14 15
BRANCH 14 20
ATOM     20  N   GLU F   2      43.717 -29.046  29.161  1.00 53.99 LIG-0.35  N 
ATOM     21 H    GLU F   2      43.266 -29.577  28.656  1.00 53.99 LIG 0.16  HD
ATOM     22  C   SER F   1      45.030 -29.187  29.359  1.00 54.35 LIG 0.25  C 
ATOM     23 O    SER F   1      45.685 -28.506  30.160  1.00 54.45 LIG-0.27  OA
BRANCH 22 24
ATOM     24  CA  SER F   1      45.717 -30.288  28.541  1.00 54.58 LIG 0.30  C 
BRANCH 24 25
ATOM     25  CB  SER F   1      44.915 -31.593  28.621  1.00 54.63 LIG 0.21  C 
BRANCH 25 26
ATOM     26 OG   SER F   1      45.405 -32.429  29.660  1.00 54.91 LIG-0.40  OA
ATOM     27 HG   SER F   1      45.097 -33.205  29.565  1.00 54.91 LIG 0.21  HD
ENDBRANCH 25 26
ENDBRANCH 24 25
BRANCH 24 28
ATOM     28  N   SER F   1      47.130 -30.512  28.978  1.00 54.74 LIG-0.06  N 
ATOM     29 H1   SER F   1      47.561 -30.986  28.360  1.00 54.74 LIG 0.28  HD
ATOM     30 H2   SER F   1      47.535 -29.727  29.085  1.00 54.74 LIG 0.28  HD
ATOM     31 H3   SER F   1      47.135 -30.956  29.749  1.00 54.74 LIG 0.28  HD
ENDBRANCH 24 28
ENDBRANCH 22 24
ENDBRANCH 14 20
ENDBRANCH 12 14
ENDBRANCH 6 10
ENDBRANCH 4 6
ENDBRANCH 1 2
BRANCH 1 32
ATOM     32  CB  THR F   4      38.237 -29.049  33.081  1.00 51.21 LIG 0.15  C 
ATOM     33  CG2 THR F   4      36.746 -28.781  32.873  1.00 50.61 LIG 0.04  C 
BRANCH 32 34
ATOM     34 OG1  THR F   4      38.860 -29.408  31.842  1.00 51.15 LIG-0.39  OA
ATOM     35 HG1  THR F   4      38.894 -30.245  31.778  1.00 51.15 LIG 0.21  HD
ENDBRANCH 32 34
ENDBRANCH 1 32
BRANCH 1 36
ATOM     36  C   THR F   4      38.756 -27.846  35.179  1.00 49.53 LIG 0.24  C 
ATOM     37  N   THR F   5      37.733 -27.167  35.683  1.00 47.76 LIG-0.34  N 
ATOM     38 H    THR F   5      37.113 -26.825  35.194  1.00 47.76 LIG 0.16  HD
ATOM     39 O    THR F   4      39.566 -28.467  35.860  1.00 50.01 LIG-0.27  OA
BRANCH 37 40
ATOM     40  CA  THR F   5      37.548 -26.925  37.110  1.00 46.83 LIG 0.20  C 
BRANCH 40 41
ATOM     41  C   THR F   5      36.057 -26.730  37.388  1.00 45.74 LIG 0.24  C 
ATOM     42  N   PRO F   6      35.490 -27.545  38.291  1.00 45.40 LIG-0.34  N 
ATOM     43  CA  PRO F   6      34.120 -27.280  38.747  1.00 45.02 LIG 0.18  C 
ATOM     44  CD  PRO F   6      36.027 -28.800  38.851  1.00 45.45 LIG 0.13  C 
ATOM     45  CB  PRO F   6      33.876 -28.360  39.804  1.00 45.11 LIG 0.04  C 
ATOM     46  CG  PRO F   6      34.793 -29.475  39.432  1.00 45.75 LIG 0.02  C 
ATOM     47 O    THR F   5      35.423 -25.866  36.781  1.00 44.21 LIG-0.27  OA
BRANCH 43 48
ATOM     48  C   PRO F   6      34.064 -25.904  39.389  1.00 45.08 LIG 0.24  C 
ATOM     49  N   CYS F   7      32.890 -25.277  39.420  1.00 44.40 LIG-0.34  N 
ATOM     50 H    CYS F   7      32.138 -25.617  39.179  1.00 44.40 LIG 0.16  HD
ATOM     51 O    PRO F   6      35.102 -25.415  39.840  1.00 44.91 LIG-0.27  OA
BRANCH 49 52
ATOM     52  CA  CYS F   7      32.835 -23.898  39.898  1.00 45.02 LIG 0.19  C 
BRANCH 52 53
ATOM     53  CB  CYS F   7      32.356 -22.963  38.775  1.00 44.51 LIG 0.11  C 
BRANCH 53 54
ATOM     54 SG   CYS F   7      33.529 -22.962  37.350  1.00 46.73 LIG-0.18  SA
ATOM     55 HG   CYS F   7      34.372 -23.797  37.525  1.00 46.73 LIG 0.10  HD
ENDBRANCH 53 54
ENDBRANCH 52 53
BRANCH 52 56
ATOM     56  C   CYS F   7      32.084 -23.736  41.234  1.00 45.05 LIG 0.20  C 
ATOM     57 OXT  CYS F   7      30.855 -23.567  41.281  1.00 44.33 LIG-0.65  OA
ATOM     58 O    CYS F   7      32.743 -23.718  42.292  1.00 44.51 LIG-0.65  OA
ENDBRANCH 52 56
ENDBRANCH 49 52
ENDBRANCH 43 48
ENDBRANCH 40 41
BRANCH 40 59
ATOM     59  CB  THR F   5      38.302 -25.654  37.534  1.00 46.83 LIG 0.15  C 
ATOM     60  CG2 THR F   5      38.227 -25.408  39.034  1.00 46.88 LIG 0.04  C 
BRANCH 59 61
ATOM     61 OG1  THR F   5      39.670 -25.751  37.113  1.00 48.31 LIG-0.39  OA
ATOM     62 HG1  THR F   5      39.698 -25.973  36.303  1.00 48.31 LIG 0.21  HD
ENDBRANCH 59 61
ENDBRANCH 40 59
ENDBRANCH 37 40
ENDBRANCH 1 36
TORSDOF 26
ENDMDL
MODEL 9
USER: ADFR SOLUTION from run 86
USER: SCORE 16.663458 LL:  -5.240 LR: -12.934 RR:   0.000 FEB:  -5.179
USER: RMSD 2.034417
USER: SEED 85
USER: STATUS no improvement in best in 7 clusters for 5 generations
USER: GENES 28
USER: genes 0 Translation |==|  0.43228 0.42921 0.46961
USER: genes 1 Rotation |==|  0.52204 0.53767 0.44111 0.99460
USER: genes 2 Torsion [C]-CA--N-[C] |==|  0.76009
USER: genes 3 Torsion [N]-C--CA-[N] |==|  0.42868
USER: genes 4 Torsion [C]-CA--CB-[SG] |==|  0.70827
USER: genes 5 Torsion [CA]-CB--SG-[HG] |==|  0.51169
USER: genes 6 Torsion [C]-CA--N-[C] |==|  0.55761
USER: genes 7 Torsion [N]-C--CA-[N] |==|  0.37057
USER: genes 8 Torsion [C]-CA--CB-[CG] |==|  0.52864
USER: genes 9 Torsion [CA]-CB--CG-[CD] |==|  0.17948
USER: genes 10 Torsion [CB]-CG--CD-[OE1] |==|  0.08934
USER: genes 11 Torsion [C]-CA--N-[C] |==|  0.70003
USER: genes 12 Torsion [N]-C--CA-[N] |==|  0.11794
USER: genes 13 Torsion [C]-CA--CB-[OG] |==|  0.12098
USER: genes 14 Torsion [CA]-CB--OG-[HG] |==|  0.60758
USER: genes 15 Torsion [C]-CA--N-[H1] |==|  0.58455
USER: genes 16 Torsion [N]-CA--CB-[OG1] |==|  0.64497
USER: genes 17 Torsion [CA]-CB--OG1-[HG1] |==|  0.48973
USER: genes 18 Torsion [N]-CA--C-[N] |==|  0.41971
USER: genes 19 Torsion [C]-N--CA-[CB] |==|  0.24321
USER: genes 20 Torsion [N]-CA--C-[N] |==|  0.32370
USER: genes 21 Torsion [N]-CA--C-[N] |==|  0.37188
USER: genes 22 Torsion [C]-N--CA-[CB] |==|  0.32751
USER: genes 23 Torsion [N]-CA--CB-[SG] |==|  0.68830
USER: genes 24 Torsion [CA]-CB--SG-[HG] |==|  0.60823
USER: genes 25 Torsion [N]-CA--C-[OXT] |==|  0.76219
USER: genes 26 Torsion [N]-CA--CB-[OG1] |==|  0.98844
USER: genes 27 Torsion [CA]-CB--OG1-[HG1] |==|  0.11599
ROOT
ATOM      1  CA  THR F   4      38.460 -28.256  33.427  1.00 50.77 LIG 0.20  C 
ENDROOT
BRANCH 1 2
ATOM      2  N   THR F   4      39.848 -28.516  33.034  1.00 51.40 LIG-0.34  N 
ATOM      3 H    THR F   4      40.030 -29.348  32.918  1.00 51.40 LIG 0.16  HD
ATOM      4  C   CYS F   3      40.741 -27.535  32.875  1.00 52.18 LIG 0.24  C 
ATOM      5 O    CYS F   3      40.446 -26.338  32.927  1.00 51.89 LIG-0.27  OA
BRANCH 4 6
ATOM      6  CA  CYS F   3      42.180 -27.957  32.562  1.00 52.92 LIG 0.18  C 
BRANCH 6 7
ATOM      7  CB  CYS F   3      42.942 -28.325  33.844  1.00 52.86 LIG 0.10  C 
BRANCH 7 8
ATOM      8 SG   CYS F   3      44.148 -27.064  34.390  1.00 55.16 LIG-0.18  SA
ATOM      9 HG   CYS F   3      44.749 -27.473  35.346  1.00 55.16 LIG 0.10  HD
ENDBRANCH 7 8
ENDBRANCH 6 7
BRANCH 6 10
ATOM     10  N   CYS F   3      42.857 -26.876  31.839  1.00 53.02 LIG-0.34  N 
ATOM     11 H    CYS F   3      42.491 -26.105  31.939  1.00 53.02 LIG 0.16  HD
ATOM     12  C   GLU F   2      43.942 -27.084  31.095  1.00 53.57 LIG 0.24  C 
ATOM     13 O    GLU F   2      44.559 -28.154  31.081  1.00 53.07 LIG-0.27  OA
BRANCH 12 14
ATOM     14  CA  GLU F   2      44.381 -25.923  30.198  1.00 54.00 LIG 0.18  C 
BRANCH 14 15
ATOM     15  CB  GLU F   2      43.944 -26.283  28.770  1.00 54.10 LIG 0.04  C 
BRANCH 15 16
ATOM     16  CG  GLU F   2      44.473 -25.405  27.645  1.00 55.55 LIG 0.12  C 
BRANCH 16 17
ATOM     17  CD  GLU F   2      45.996 -25.494  27.496  1.00 57.36 LIG 0.17  C 
ATOM     18 OE1  GLU F   2      46.592 -26.565  27.762  1.00 58.39 LIG-0.65  OA
ATOM     19 OE2  GLU F   2      46.614 -24.487  27.092  1.00 58.95 LIG-0.65  OA
ENDBRANCH 16 17
ENDBRANCH 15 16
ENDBRANCH 14 15
BRANCH 14 20
ATOM     20  N   GLU F   2      45.822 -25.637  30.267  1.00 53.99 LIG-0.35  N 
ATOM     21 H    GLU F   2      46.303 -26.235  29.880  1.00 53.99 LIG 0.16  HD
ATOM     22  C   SER F   1      46.350 -24.565  30.865  1.00 54.35 LIG 0.25  C 
ATOM     23 O    SER F   1      45.692 -23.746  31.520  1.00 54.45 LIG-0.27  OA
BRANCH 22 24
ATOM     24  CA  SER F   1      47.868 -24.399  30.721  1.00 54.58 LIG 0.30  C 
BRANCH 24 25
ATOM     25  CB  SER F   1      48.294 -22.987  31.140  1.00 54.63 LIG 0.21  C 
BRANCH 25 26
ATOM     26 OG   SER F   1      47.632 -22.588  32.333  1.00 54.91 LIG-0.40  OA
ATOM     27 HG   SER F   1      47.426 -21.775  32.281  1.00 54.91 LIG 0.21  HD
ENDBRANCH 25 26
ENDBRANCH 24 25
BRANCH 24 28
ATOM     28  N   SER F   1      48.335 -24.698  29.333  1.00 54.74 LIG-0.06  N 
ATOM     29 H1   SER F   1      49.164 -25.022  29.361  1.00 54.74 LIG 0.28  HD
ATOM     30 H2   SER F   1      47.795 -25.299  28.960  1.00 54.74 LIG 0.28  HD
ATOM     31 H3   SER F   1      48.326 -23.951  28.849  1.00 54.74 LIG 0.28  HD
ENDBRANCH 24 28
ENDBRANCH 22 24
ENDBRANCH 14 20
ENDBRANCH 12 14
ENDBRANCH 6 10
ENDBRANCH 4 6
ENDBRANCH 1 2
BRANCH 1 32
ATOM     32  CB  THR F   4      37.480 -29.351  32.972  1.00 51.21 LIG 0.15  C 
ATOM     33  CG2 THR F   4      36.974 -30.135  34.183  1.00 50.61 LIG 0.04  C 
BRANCH 32 34
ATOM     34 OG1  THR F   4      36.384 -28.763  32.262  1.00 51.15 LIG-0.39  OA
ATOM     35 HG1  THR F   4      35.879 -29.369  31.973  1.00 51.15 LIG 0.21  HD
ENDBRANCH 32 34
ENDBRANCH 1 32
BRANCH 1 36
ATOM     36  C   THR F   4      38.429 -28.200  34.945  1.00 49.53 LIG 0.24  C 
ATOM     37  N   THR F   5      37.492 -27.432  35.488  1.00 47.76 LIG-0.34  N 
ATOM     38 H    THR F   5      36.851 -27.084  35.032  1.00 47.76 LIG 0.16  HD
ATOM     39 O    THR F   4      39.260 -28.826  35.595  1.00 50.01 LIG-0.27  OA
BRANCH 37 40
ATOM     40  CA  THR F   5      37.446 -27.094  36.907  1.00 46.83 LIG 0.20  C 
BRANCH 40 41
ATOM     41  C   THR F   5      35.997 -26.807  37.299  1.00 45.74 LIG 0.24  C 
ATOM     42  N   PRO F   6      35.432 -27.627  38.198  1.00 45.40 LIG-0.34  N 
ATOM     43  CA  PRO F   6      34.118 -27.288  38.763  1.00 45.02 LIG 0.18  C 
ATOM     44  CD  PRO F   6      35.909 -28.945  38.657  1.00 45.45 LIG 0.13  C 
ATOM     45  CB  PRO F   6      33.865 -28.403  39.780  1.00 45.11 LIG 0.04  C 
ATOM     46  CG  PRO F   6      34.668 -29.560  39.290  1.00 45.75 LIG 0.02  C 
ATOM     47 O    THR F   5      35.390 -25.868  36.781  1.00 44.21 LIG-0.27  OA
BRANCH 43 48
ATOM     48  C   PRO F   6      34.210 -25.949  39.474  1.00 45.08 LIG 0.24  C 
ATOM     49  N   CYS F   7      33.251 -25.054  39.245  1.00 44.40 LIG-0.34  N 
ATOM     50 H    CYS F   7      32.537 -25.197  38.789  1.00 44.40 LIG 0.16  HD
ATOM     51 O    PRO F   6      35.169 -25.734  40.218  1.00 44.91 LIG-0.27  OA
BRANCH 49 52
ATOM     52  CA  CYS F   7      33.389 -23.709  39.797  1.00 45.02 LIG 0.19  C 
BRANCH 52 53
ATOM     53  CB  CYS F   7      33.450 -22.670  38.666  1.00 44.51 LIG 0.11  C 
BRANCH 53 54
ATOM     54 SG   CYS F   7      35.115 -21.882  38.561  1.00 46.73 LIG-0.18  SA
ATOM     55 HG   CYS F   7      34.991 -20.714  38.316  1.00 46.73 LIG 0.10  HD
ENDBRANCH 53 54
ENDBRANCH 52 53
BRANCH 52 56
ATOM     56  C   CYS F   7      32.370 -23.390  40.909  1.00 45.05 LIG 0.20  C 
ATOM     57 OXT  CYS F   7      31.233 -22.963  40.656  1.00 44.33 LIG-0.65  OA
ATOM     58 O    CYS F   7      32.725 -23.514  42.098  1.00 44.51 LIG-0.65  OA
ENDBRANCH 52 56
ENDBRANCH 49 52
ENDBRANCH 43 48
ENDBRANCH 40 41
BRANCH 40 59
ATOM     59  CB  THR F   5      38.292 -25.838  37.179  1.00 46.83 LIG 0.15  C 
ATOM     60  CG2 THR F   5      39.311 -26.056  38.288  1.00 46.88 LIG 0.04  C 
BRANCH 59 61
ATOM     61 OG1  THR F   5      38.948 -25.437  35.969  1.00 48.31 LIG-0.39  OA
ATOM     62 HG1  THR F   5      38.414 -25.507  35.324  1.00 48.31 LIG 0.21  HD
ENDBRANCH 59 61
ENDBRANCH 40 59
ENDBRANCH 37 40
ENDBRANCH 1 36
TORSDOF 26
ENDMDL
