MODEL 1
USER: ADFR SOLUTION from run 106
USER: SCORE 32.726362 LL:  -5.717 LR: -27.683 RR:   0.000 FEB: -18.734
USER: RMSD 2.422673
USER: SEED 105
USER: STATUS 1 or 2 clusters left
USER: GENES 32
USER: genes 0 Translation |==|  0.50200 0.43250 0.59781
USER: genes 1 Rotation |==|  0.47596 0.49130 0.53972 0.99776
USER: genes 2 Torsion [N]-CA--C-[N] |==|  0.42266
USER: genes 3 Torsion [C]-N--CA-[C] |==|  0.81475
USER: genes 4 Torsion [N]-CA--CB-[CG] |==|  0.81249
USER: genes 5 Torsion [CA]-CB--CG-[CD2] |==|  0.86224
USER: genes 6 Torsion [N]-CA--C-[N] |==|  0.44442
USER: genes 7 Torsion [C]-N--CA-[C] |==|  0.75593
USER: genes 8 Torsion [N]-CA--CB-[CG] |==|  0.53864
USER: genes 9 Torsion [CA]-CB--CG-[CD] |==|  0.18101
USER: genes 10 Torsion [CB]-CG--CD-[OE1] |==|  0.26400
USER: genes 11 Torsion [N]-CA--C-[N] |==|  0.15905
USER: genes 12 Torsion [C]-N--CA-[CB] |==|  0.19313
USER: genes 13 Torsion [N]-CA--CB-[OG] |==|  0.07956
USER: genes 14 Torsion [CA]-CB--OG-[HG] |==|  0.69856
USER: genes 15 Torsion [N]-CA--C-[O] |==|  0.82994
USER: genes 16 Torsion [C]-CA--CB-[CG] |==|  0.19746
USER: genes 17 Torsion [CA]-CB--CG-[CD] |==|  0.30807
USER: genes 18 Torsion [CB]-CG--CD-[NE] |==|  0.54570
USER: genes 19 Torsion [CG]-CD--NE-[HE] |==|  0.68141
USER: genes 20 Torsion [C]-CA--N-[C] |==|  0.64198
USER: genes 21 Torsion [N]-C--CA-[N] |==|  0.43179
USER: genes 22 Torsion [C]-CA--N-[C] |==|  0.64738
USER: genes 23 Torsion [N]-C--CA-[N] |==|  0.33626
USER: genes 24 Torsion [C]-CA--CB-[CG2] |==|  0.46031
USER: genes 25 Torsion [CA]-CB--OG1-[HG1] |==|  0.16579
USER: genes 26 Torsion [C]-CA--N-[C] |==|  0.79734
USER: genes 27 Torsion [N]-C--CA-[N] |==|  0.35452
USER: genes 28 Torsion [C]-CA--CB-[CG] |==|  0.50846
USER: genes 29 Torsion [CA]-CB--CG-[CD] |==|  0.26132
USER: genes 30 Torsion [CB]-CG--CD-[OE1] |==|  0.07722
USER: genes 31 Torsion [C]-CA--CB-[CG2] |==|  0.75248
ROOT
ATOM      1  CA  ARG C   5      37.608  -8.231 -15.741  1.00 18.48 LIG 0.18  C 
ENDROOT
BRANCH 1 2
ATOM      2  C   ARG C   5      36.278  -7.964 -15.039  1.00 18.17 LIG 0.24  C 
ATOM      3 O    ARG C   5      35.466  -7.145 -15.493  1.00 17.19 LIG-0.27  OA
ATOM      4  N   PHE C   6      36.042  -8.685 -13.950  1.00 18.83 LIG-0.35  N 
ATOM      5 H    PHE C   6      36.519  -9.352 -13.693  1.00 18.83 LIG 0.16  HD
BRANCH 4 6
ATOM      6  CA  PHE C   6      34.902  -8.367 -13.087  1.00 19.26 LIG 0.18  C 
BRANCH 6 7
ATOM      7  CB  PHE C   6      34.732  -9.448 -12.037  1.00 18.47 LIG 0.07  C 
BRANCH 7 8
ATOM      8  CG  PHE C   6      34.312 -10.757 -12.599  1.00 17.36 LIG-0.06  A 
ATOM      9  CD2 PHE C   6      33.232 -10.834 -13.483  1.00 17.83 LIG 0.01  A 
ATOM     10  CE2 PHE C   6      32.837 -12.056 -14.006  1.00 17.21 LIG 0.00  A 
ATOM     11  CZ  PHE C   6      33.540 -13.235 -13.667  1.00 18.37 LIG 0.00  A 
ATOM     12  CE1 PHE C   6      34.616 -13.163 -12.808  1.00 15.49 LIG 0.00  A 
ATOM     13  CD1 PHE C   6      35.004 -11.925 -12.268  1.00 15.20 LIG 0.01  A 
ENDBRANCH 7 8
ENDBRANCH 6 7
BRANCH 6 14
ATOM     14  C   PHE C   6      35.092  -7.012 -12.406  1.00 20.73 LIG 0.24  C 
ATOM     15 O    PHE C   6      36.221  -6.516 -12.310  1.00 20.81 LIG-0.27  OA
ATOM     16  N   GLN C   7      33.996  -6.412 -11.934  1.00 22.42 LIG-0.35  N 
ATOM     17 H    GLN C   7      33.210  -6.761 -11.928  1.00 22.42 LIG 0.16  HD
BRANCH 16 18
ATOM     18  CA  GLN C   7      34.080  -5.067 -11.377  1.00 25.26 LIG 0.18  C 
BRANCH 18 19
ATOM     19  CB  GLN C   7      32.846  -4.215 -11.674  1.00 25.69 LIG 0.04  C 
BRANCH 19 20
ATOM     20  CG  GLN C   7      33.116  -2.747 -11.380  1.00 27.68 LIG 0.10  C 
BRANCH 20 21
ATOM     21  CD  GLN C   7      34.154  -2.155 -12.280  1.00 27.15 LIG 0.21  C 
ATOM     22  NE2 GLN C   7      35.426  -2.325 -11.924  1.00 28.04 LIG-0.37  N 
ATOM     23 21HE GLN C   7      35.617  -2.754 -11.204  1.00 28.04 LIG 0.16  HD
ATOM     24 22HE GLN C   7      36.056  -2.006 -12.415  1.00 28.04 LIG 0.16  HD
ATOM     25 OE1  GLN C   7      33.825  -1.555 -13.290  1.00 23.97 LIG-0.27  OA
ENDBRANCH 20 21
ENDBRANCH 19 20
ENDBRANCH 18 19
BRANCH 18 26
ATOM     26  C   GLN C   7      34.415  -5.070  -9.900  1.00 26.49 LIG 0.24  C 
ATOM     27 O    GLN C   7      33.690  -4.496  -9.042  1.00 27.60 LIG-0.27  OA
ATOM     28  N   SER C   8      35.555  -5.704  -9.630  1.00 27.61 LIG-0.34  N 
ATOM     29 H    SER C   8      36.087  -5.994 -10.241  1.00 27.61 LIG 0.16  HD
BRANCH 28 30
ATOM     30  CA  SER C   8      36.021  -5.972  -8.279  1.00 28.42 LIG 0.19  C 
BRANCH 30 31
ATOM     31  CB  SER C   8      35.115  -7.018  -7.643  1.00 28.45 LIG 0.20  C 
BRANCH 31 32
ATOM     32 OG   SER C   8      34.575  -7.859  -8.657  1.00 26.71 LIG-0.40  OA
ATOM     33 HG   SER C   8      33.758  -7.691  -8.754  1.00 26.71 LIG 0.21  HD
ENDBRANCH 31 32
ENDBRANCH 30 31
BRANCH 30 34
ATOM     34  C   SER C   8      37.459  -6.468  -8.333  1.00 29.48 LIG 0.22  C 
ATOM     35 O    SER C   8      37.738  -7.513  -8.937  1.00 30.60 LIG-0.29  OA
ENDBRANCH 30 34
ENDBRANCH 28 30
ENDBRANCH 18 26
ENDBRANCH 16 18
ENDBRANCH 6 14
ENDBRANCH 4 6
ENDBRANCH 1 2
BRANCH 1 36
ATOM     36  CB  ARG C   5      38.747  -7.431 -15.098  1.00 18.58 LIG 0.04  C 
BRANCH 36 37
ATOM     37  CG  ARG C   5      39.150  -7.926 -13.723  1.00 19.48 LIG 0.02  C 
BRANCH 37 38
ATOM     38  CD  ARG C   5      40.527  -8.562 -13.723  1.00 24.05 LIG 0.14  C 
BRANCH 38 39
ATOM     39  NE  ARG C   5      40.683  -9.346 -12.507  1.00 29.23 LIG-0.23  N 
ATOM     40 HE   ARG C   5      41.276  -9.086 -11.940  1.00 29.23 LIG 0.18  HD
ATOM     41  CZ  ARG C   5      39.976 -10.435 -12.203  1.00 30.64 LIG 0.67  C 
ATOM     42  NH1 ARG C   5      39.074 -10.928 -13.049  1.00 31.79 LIG-0.23  N 
ATOM     43  NH2 ARG C   5      40.197 -11.056 -11.050  1.00 32.60 LIG-0.23  N 
ATOM     44 2HH1 ARG C   5      38.627 -11.631 -12.839  1.00 31.79 LIG 0.17  HD
ATOM     45 1HH1 ARG C   5      38.940 -10.543 -13.806  1.00 31.79 LIG 0.17  HD
ATOM     46 2HH2 ARG C   5      39.746 -11.760 -10.847  1.00 32.60 LIG 0.17  HD
ATOM     47 1HH2 ARG C   5      40.792 -10.755 -10.507  1.00 32.60 LIG 0.17  HD
ENDBRANCH 38 39
ENDBRANCH 37 38
ENDBRANCH 36 37
ENDBRANCH 1 36
BRANCH 1 48
ATOM     48  N   ARG C   5      37.474  -7.930 -17.161  1.00 18.21 LIG-0.35  N 
ATOM     49  C   VAL C   4      37.843  -8.804 -18.091  1.00 18.34 LIG 0.24  C 
ATOM     50 O    VAL C   4      38.399  -9.880 -17.826  1.00 18.10 LIG-0.27  OA
ATOM     51 H    ARG C   5      37.144  -7.154 -17.331  1.00 18.21 LIG 0.16  HD
BRANCH 49 52
ATOM     52  CA  VAL C   4      37.536  -8.421 -19.523  1.00 18.53 LIG 0.18  C 
BRANCH 52 53
ATOM     53  N   VAL C   4      38.463  -9.116 -20.439  1.00 19.37 LIG-0.35  N 
ATOM     54  C   THR C   3      39.180  -8.454 -21.342  1.00 20.69 LIG 0.24  C 
ATOM     55 O    THR C   3      39.198  -7.230 -21.430  1.00 20.32 LIG-0.27  OA
ATOM     56 H    VAL C   4      38.494  -9.968 -20.333  1.00 19.37 LIG 0.16  HD
BRANCH 54 57
ATOM     57  CA  THR C   3      40.010  -9.315 -22.286  1.00 21.56 LIG 0.20  C 
BRANCH 57 58
ATOM     58  CB  THR C   3      41.499  -9.083 -21.976  1.00 22.09 LIG 0.15  C 
ATOM     59  CG2 THR C   3      42.347 -10.160 -22.633  1.00 23.63 LIG 0.04  C 
BRANCH 58 60
ATOM     60 OG1  THR C   3      41.896  -7.779 -22.432  1.00 21.54 LIG-0.39  OA
ATOM     61 HG1  THR C   3      41.435  -7.194 -22.044  1.00 21.54 LIG 0.21  HD
ENDBRANCH 58 60
ENDBRANCH 57 58
BRANCH 57 62
ATOM     62  N   THR C   3      39.691  -9.135 -23.709  1.00 23.16 LIG-0.34  N 
ATOM     63  C   GLU C   2      38.556  -9.622 -24.223  1.00 24.83 LIG 0.26  C 
ATOM     64 O    GLU C   2      37.688 -10.138 -23.535  1.00 23.95 LIG-0.27  OA
ATOM     65 H    THR C   3      40.282  -8.702 -24.159  1.00 23.16 LIG 0.16  HD
BRANCH 63 66
ATOM     66  CA  GLU C   2      38.320  -9.513 -25.731  1.00 26.47 LIG 0.40  C 
ATOM     67  N   GLU C   2      37.971 -10.822 -26.349  1.00 27.26 LIG 0.61  N 
BRANCH 66 68
ATOM     68  CB  GLU C   2      37.295  -8.457 -26.072  1.00 27.59 LIG 0.06  C 
BRANCH 68 69
ATOM     69  CG  GLU C   2      37.019  -8.412 -27.557  1.00 31.29 LIG 0.12  C 
BRANCH 69 70
ATOM     70  CD  GLU C   2      35.838  -9.259 -27.916  1.00 36.63 LIG 0.17  C 
ATOM     71 OE1  GLU C   2      34.947  -9.437 -27.049  1.00 39.47 LIG-0.65  OA
ATOM     72 OE2  GLU C   2      35.806  -9.757 -29.066  1.00 40.70 LIG-0.65  OA
ENDBRANCH 69 70
ENDBRANCH 68 69
ENDBRANCH 66 68
ENDBRANCH 63 66
ENDBRANCH 57 62
ENDBRANCH 54 57
ENDBRANCH 52 53
BRANCH 52 73
ATOM     73  CB  VAL C   4      36.058  -8.768 -19.855  1.00 18.61 LIG 0.01  C 
ATOM     74  CG2 VAL C   4      35.929 -10.196 -20.385  1.00 18.43 LIG 0.01  C 
ATOM     75  CG1 VAL C   4      35.495  -7.767 -20.850  1.00 18.06 LIG 0.01  C 
ENDBRANCH 52 73
ENDBRANCH 49 52
ENDBRANCH 1 48
TORSDOF 30
ENDMDL
MODEL 2
USER: ADFR SOLUTION from run 13
USER: SCORE 31.562570 LL:  -4.891 LR: -27.500 RR:   0.000 FEB: -18.551
USER: RMSD 1.679766
USER: SEED 321439
USER: STATUS no improvement in best in 1 clusters for 5 generations
USER: GENES 32
USER: genes 0 Translation |==|  0.51018 0.42734 0.59260
USER: genes 1 Rotation |==|  0.46821 0.49040 0.52273 0.99838
USER: genes 2 Torsion [N]-CA--C-[N] |==|  0.40721
USER: genes 3 Torsion [C]-N--CA-[C] |==|  0.82136
USER: genes 4 Torsion [N]-CA--CB-[CG] |==|  0.80193
USER: genes 5 Torsion [CA]-CB--CG-[CD2] |==|  0.85418
USER: genes 6 Torsion [N]-CA--C-[N] |==|  0.42731
USER: genes 7 Torsion [C]-N--CA-[C] |==|  0.76558
USER: genes 8 Torsion [N]-CA--CB-[CG] |==|  0.53415
USER: genes 9 Torsion [CA]-CB--CG-[CD] |==|  0.24940
USER: genes 10 Torsion [CB]-CG--CD-[OE1] |==|  0.18668
USER: genes 11 Torsion [N]-CA--C-[N] |==|  0.16667
USER: genes 12 Torsion [C]-N--CA-[CB] |==|  0.22210
USER: genes 13 Torsion [N]-CA--CB-[OG] |==|  0.86599
USER: genes 14 Torsion [CA]-CB--OG-[HG] |==|  0.31419
USER: genes 15 Torsion [N]-CA--C-[O] |==|  0.68346
USER: genes 16 Torsion [C]-CA--CB-[CG] |==|  0.86960
USER: genes 17 Torsion [CA]-CB--CG-[CD] |==|  0.51241
USER: genes 18 Torsion [CB]-CG--CD-[NE] |==|  0.50561
USER: genes 19 Torsion [CG]-CD--NE-[HE] |==|  0.78405
USER: genes 20 Torsion [C]-CA--N-[C] |==|  0.65863
USER: genes 21 Torsion [N]-C--CA-[N] |==|  0.39431
USER: genes 22 Torsion [C]-CA--N-[C] |==|  0.66510
USER: genes 23 Torsion [N]-C--CA-[N] |==|  0.31827
USER: genes 24 Torsion [C]-CA--CB-[CG2] |==|  0.44151
USER: genes 25 Torsion [CA]-CB--OG1-[HG1] |==|  0.18266
USER: genes 26 Torsion [C]-CA--N-[C] |==|  0.80959
USER: genes 27 Torsion [N]-C--CA-[N] |==|  0.21301
USER: genes 28 Torsion [C]-CA--CB-[CG] |==|  0.53090
USER: genes 29 Torsion [CA]-CB--CG-[CD] |==|  0.54510
USER: genes 30 Torsion [CB]-CG--CD-[OE1] |==|  0.02883
USER: genes 31 Torsion [C]-CA--CB-[CG2] |==|  0.79052
ROOT
ATOM      1  CA  ARG C   5      37.755  -8.343 -15.897  1.00 18.48 LIG 0.18  C 
ENDROOT
BRANCH 1 2
ATOM      2  C   ARG C   5      36.441  -7.965 -15.217  1.00 18.17 LIG 0.24  C 
ATOM      3 O    ARG C   5      35.740  -7.037 -15.646  1.00 17.19 LIG-0.27  OA
ATOM      4  N   PHE C   6      36.090  -8.712 -14.178  1.00 18.83 LIG-0.35  N 
ATOM      5 H    PHE C   6      36.482  -9.442 -13.946  1.00 18.83 LIG 0.16  HD
BRANCH 4 6
ATOM      6  CA  PHE C   6      34.966  -8.314 -13.329  1.00 19.26 LIG 0.18  C 
BRANCH 6 7
ATOM      7  CB  PHE C   6      34.680  -9.398 -12.307  1.00 18.47 LIG 0.07  C 
BRANCH 7 8
ATOM      8  CG  PHE C   6      34.075 -10.620 -12.897  1.00 17.36 LIG-0.06  A 
ATOM      9  CD2 PHE C   6      32.936 -10.529 -13.701  1.00 17.83 LIG 0.01  A 
ATOM     10  CE2 PHE C   6      32.368 -11.669 -14.250  1.00 17.21 LIG 0.00  A 
ATOM     11  CZ  PHE C   6      32.953 -12.936 -14.017  1.00 18.37 LIG 0.00  A 
ATOM     12  CE1 PHE C   6      34.086 -13.031 -13.238  1.00 15.49 LIG 0.00  A 
ATOM     13  CD1 PHE C   6      34.649 -11.875 -12.671  1.00 15.20 LIG 0.01  A 
ENDBRANCH 7 8
ENDBRANCH 6 7
BRANCH 6 14
ATOM     14  C   PHE C   6      35.259  -6.997 -12.613  1.00 20.73 LIG 0.24  C 
ATOM     15 O    PHE C   6      36.426  -6.659 -12.382  1.00 20.81 LIG-0.27  OA
ATOM     16  N   GLN C   7      34.208  -6.251 -12.259  1.00 22.42 LIG-0.35  N 
ATOM     17 H    GLN C   7      33.386  -6.490 -12.346  1.00 22.42 LIG 0.16  HD
BRANCH 16 18
ATOM     18  CA  GLN C   7      34.411  -4.929 -11.678  1.00 25.26 LIG 0.18  C 
BRANCH 18 19
ATOM     19  CB  GLN C   7      33.300  -3.941 -12.033  1.00 25.69 LIG 0.04  C 
BRANCH 19 20
ATOM     20  CG  GLN C   7      33.700  -2.520 -11.665  1.00 27.68 LIG 0.10  C 
BRANCH 20 21
ATOM     21  CD  GLN C   7      34.408  -1.809 -12.775  1.00 27.15 LIG 0.21  C 
ATOM     22  NE2 GLN C   7      35.695  -1.525 -12.582  1.00 28.04 LIG-0.37  N 
ATOM     23 21HE GLN C   7      36.077  -1.744 -11.844  1.00 28.04 LIG 0.16  HD
ATOM     24 22HE GLN C   7      36.142  -1.121 -13.196  1.00 28.04 LIG 0.16  HD
ATOM     25 OE1  GLN C   7      33.815  -1.521 -13.801  1.00 23.97 LIG-0.27  OA
ENDBRANCH 20 21
ENDBRANCH 19 20
ENDBRANCH 18 19
BRANCH 18 26
ATOM     26  C   GLN C   7      34.656  -4.983 -10.184  1.00 26.49 LIG 0.24  C 
ATOM     27 O    GLN C   7      33.919  -4.377  -9.357  1.00 27.60 LIG-0.27  OA
ATOM     28  N   SER C   8      35.733  -5.696  -9.862  1.00 27.61 LIG-0.34  N 
ATOM     29 H    SER C   8      36.280  -6.010 -10.448  1.00 27.61 LIG 0.16  HD
BRANCH 28 30
ATOM     30  CA  SER C   8      36.099  -6.020  -8.493  1.00 28.42 LIG 0.19  C 
BRANCH 30 31
ATOM     31  CB  SER C   8      35.256  -7.198  -8.022  1.00 28.45 LIG 0.20  C 
BRANCH 31 32
ATOM     32 OG   SER C   8      33.887  -6.957  -8.334  1.00 26.71 LIG-0.40  OA
ATOM     33 HG   SER C   8      33.631  -7.506  -8.916  1.00 26.71 LIG 0.21  HD
ENDBRANCH 31 32
ENDBRANCH 30 31
BRANCH 30 34
ATOM     34  C   SER C   8      37.581  -6.364  -8.437  1.00 29.48 LIG 0.22  C 
ATOM     35 O    SER C   8      37.946  -7.513  -8.152  1.00 30.60 LIG-0.29  OA
ENDBRANCH 30 34
ENDBRANCH 28 30
ENDBRANCH 18 26
ENDBRANCH 16 18
ENDBRANCH 6 14
ENDBRANCH 4 6
ENDBRANCH 1 2
BRANCH 1 36
ATOM     36  CB  ARG C   5      38.941  -7.604 -15.267  1.00 18.58 LIG 0.04  C 
BRANCH 36 37
ATOM     37  CG  ARG C   5      38.707  -6.119 -15.069  1.00 19.48 LIG 0.02  C 
BRANCH 37 38
ATOM     38  CD  ARG C   5      39.941  -5.409 -14.544  1.00 24.05 LIG 0.14  C 
BRANCH 38 39
ATOM     39  NE  ARG C   5      39.622  -4.004 -14.336  1.00 29.23 LIG-0.23  N 
ATOM     40 HE   ARG C   5      39.594  -3.496 -15.030  1.00 29.23 LIG 0.18  HD
ATOM     41  CZ  ARG C   5      39.371  -3.444 -13.152  1.00 30.64 LIG 0.67  C 
ATOM     42  NH1 ARG C   5      39.443  -4.151 -12.028  1.00 31.79 LIG-0.23  N 
ATOM     43  NH2 ARG C   5      39.072  -2.151 -13.092  1.00 32.60 LIG-0.23  N 
ATOM     44 2HH1 ARG C   5      39.278  -3.776 -11.272  1.00 31.79 LIG 0.17  HD
ATOM     45 1HH1 ARG C   5      39.655  -4.984 -12.056  1.00 31.79 LIG 0.17  HD
ATOM     46 2HH2 ARG C   5      38.909  -1.782 -12.333  1.00 32.60 LIG 0.17  HD
ATOM     47 1HH2 ARG C   5      39.042  -1.683 -13.813  1.00 32.60 LIG 0.17  HD
ENDBRANCH 38 39
ENDBRANCH 37 38
ENDBRANCH 36 37
ENDBRANCH 1 36
BRANCH 1 48
ATOM     48  N   ARG C   5      37.654  -8.076 -17.327  1.00 18.21 LIG-0.35  N 
ATOM     49  C   VAL C   4      37.856  -9.033 -18.226  1.00 18.34 LIG 0.24  C 
ATOM     50 O    VAL C   4      38.225 -10.178 -17.924  1.00 18.10 LIG-0.27  OA
ATOM     51 H    ARG C   5      37.458  -7.262 -17.524  1.00 18.21 LIG 0.16  HD
BRANCH 49 52
ATOM     52  CA  VAL C   4      37.598  -8.656 -19.669  1.00 18.53 LIG 0.18  C 
BRANCH 52 53
ATOM     53  N   VAL C   4      38.604  -9.294 -20.542  1.00 19.37 LIG-0.35  N 
ATOM     54  C   THR C   3      39.412  -8.577 -21.316  1.00 20.69 LIG 0.24  C 
ATOM     55 O    THR C   3      39.452  -7.351 -21.304  1.00 20.32 LIG-0.27  OA
ATOM     56 H    VAL C   4      38.614 -10.153 -20.502  1.00 19.37 LIG 0.16  HD
BRANCH 54 57
ATOM     57  CA  THR C   3      40.322  -9.376 -22.240  1.00 21.56 LIG 0.20  C 
BRANCH 57 58
ATOM     58  CB  THR C   3      41.785  -9.068 -21.872  1.00 22.09 LIG 0.15  C 
ATOM     59  CG2 THR C   3      42.697 -10.177 -22.370  1.00 23.63 LIG 0.04  C 
BRANCH 58 60
ATOM     60 OG1  THR C   3      42.174  -7.802 -22.432  1.00 21.54 LIG-0.39  OA
ATOM     61 HG1  THR C   3      41.731  -7.187 -22.069  1.00 21.54 LIG 0.21  HD
ENDBRANCH 58 60
ENDBRANCH 57 58
BRANCH 57 62
ATOM     62  N   THR C   3      40.046  -9.191 -23.671  1.00 23.16 LIG-0.34  N 
ATOM     63  C   GLU C   2      38.916  -9.657 -24.215  1.00 24.83 LIG 0.26  C 
ATOM     64 O    GLU C   2      38.020 -10.155 -23.551  1.00 23.95 LIG-0.27  OA
ATOM     65 H    THR C   3      40.657  -8.771 -24.105  1.00 23.16 LIG 0.16  HD
BRANCH 63 66
ATOM     66  CA  GLU C   2      38.723  -9.545 -25.730  1.00 26.47 LIG 0.40  C 
ATOM     67  N   GLU C   2      39.507 -10.565 -26.480  1.00 27.26 LIG 0.61  N 
BRANCH 66 68
ATOM     68  CB  GLU C   2      37.264  -9.581 -26.122  1.00 27.59 LIG 0.06  C 
BRANCH 68 69
ATOM     69  CG  GLU C   2      37.096  -9.743 -27.615  1.00 31.29 LIG 0.12  C 
BRANCH 69 70
ATOM     70  CD  GLU C   2      35.708  -9.391 -28.046  1.00 36.63 LIG 0.17  C 
ATOM     71 OE1  GLU C   2      34.947  -8.837 -27.214  1.00 39.47 LIG-0.65  OA
ATOM     72 OE2  GLU C   2      35.371  -9.680 -29.219  1.00 40.70 LIG-0.65  OA
ENDBRANCH 69 70
ENDBRANCH 68 69
ENDBRANCH 66 68
ENDBRANCH 63 66
ENDBRANCH 57 62
ENDBRANCH 54 57
ENDBRANCH 52 53
BRANCH 52 73
ATOM     73  CB  VAL C   4      36.158  -9.079 -20.073  1.00 18.61 LIG 0.01  C 
ATOM     74  CG2 VAL C   4      36.064 -10.588 -20.293  1.00 18.43 LIG 0.01  C 
ATOM     75  CG1 VAL C   4      35.718  -8.321 -21.315  1.00 18.06 LIG 0.01  C 
ENDBRANCH 52 73
ENDBRANCH 49 52
ENDBRANCH 1 48
TORSDOF 30
ENDMDL
