MODEL 1
USER: ADFR SOLUTION from run 43
USER: SCORE 11.762736 LL:  -1.703 LR: -10.328 RR:   0.000 FEB:  -6.450
USER: RMSD 1.267093
USER: SEED 42
USER: STATUS 1 or 2 clusters left
USER: GENES 15
USER: genes 0 Translation |==|  0.48611 0.54981 0.57718
USER: genes 1 Rotation |==|  0.47593 0.48558 0.51873 0.99886
USER: genes 2 Torsion [N]-C--CA-[N] |==|  0.45228
USER: genes 3 Torsion [C]-CA--N-[C] |==|  0.56005
USER: genes 4 Torsion [N]-C--CA-[N] |==|  0.57735
USER: genes 5 Torsion [C]-CA--CB-[CG] |==|  0.79958
USER: genes 6 Torsion [CA]-CB--CG-[CD2] |==|  0.29566
USER: genes 7 Torsion [C]-N--CA-[C] |==|  0.81111
USER: genes 8 Torsion [N]-CA--C-[N] |==|  0.47127
USER: genes 9 Torsion [C]-N--CA-[C] |==|  0.87188
USER: genes 10 Torsion [N]-CA--C-[O] |==|  0.30629
USER: genes 11 Torsion [N]-CA--CB-[OG] |==|  0.08275
USER: genes 12 Torsion [CA]-CB--OG-[HG] |==|  0.70854
USER: genes 13 Torsion [N]-CA--CB-[OG] |==|  0.73200
USER: genes 14 Torsion [CA]-CB--OG-[HG] |==|  0.96079
ROOT
ATOM      1  C   HIS B 399      35.400 -12.343  -9.241  1.00 17.93 LIG 0.24  C 
ATOM      2 O    HIS B 399      34.706 -12.424 -10.255  1.00 15.41 LIG-0.27  OA
ATOM      3  N   SER B 400      36.609 -11.793  -9.226  1.00 17.64 LIG-0.34  N 
ATOM      4 H    SER B 400      37.094 -11.728  -8.519  1.00 17.64 LIG 0.16  HD
ENDROOT
BRANCH 1 5
ATOM      5  CA  HIS B 399      34.896 -12.885  -7.908  1.00 18.55 LIG 0.18  C 
BRANCH 5 6
ATOM      6  N   HIS B 399      33.454 -13.079  -7.960  1.00 19.43 LIG-0.34  N 
ATOM      7 H    HIS B 399      33.135 -13.157  -8.755  1.00 19.43 LIG 0.16  HD
ATOM      8  C   ALA B 398      32.717 -13.129  -6.855  1.00 22.32 LIG 0.26  C 
ATOM      9 O    ALA B 398      33.195 -13.003  -5.726  1.00 22.30 LIG-0.27  OA
BRANCH 8 10
ATOM     10  CA  ALA B 398      31.220 -13.348  -7.055  1.00 21.39 LIG 0.40  C 
ATOM     11  N   ALA B 398      30.428 -12.749  -5.940  1.00 23.95 LIG 0.61  N 
ATOM     12  CB  ALA B 398      30.776 -12.753  -8.384  1.00 21.38 LIG 0.06  C 
ENDBRANCH 8 10
ENDBRANCH 5 6
BRANCH 5 13
ATOM     13  CB  HIS B 399      35.583 -14.216  -7.599  1.00 22.49 LIG 0.10  C 
BRANCH 13 14
ATOM     14  CG  HIS B 399      35.112 -15.346  -8.458  1.00 24.90 LIG 0.06  A 
ATOM     15  CD2 HIS B 399      35.708 -15.991  -9.488  1.00 26.88 LIG 0.14  A 
ATOM     16 NE2  HIS B 399      34.862 -16.999  -9.880  1.00 28.66 LIG-0.25  NA
ATOM     17  CE1 HIS B 399      33.782 -16.973  -9.120  1.00 27.08 LIG 0.23  A 
ATOM     18 ND1  HIS B 399      33.906 -15.983  -8.253  1.00 26.64 LIG-0.24  NA
ENDBRANCH 13 14
ENDBRANCH 5 13
ENDBRANCH 1 5
BRANCH 3 19
ATOM     19  CA  SER B 400      37.231 -11.242 -10.427  1.00 19.59 LIG 0.20  C 
BRANCH 19 20
ATOM     20  C   SER B 400      37.561 -12.366 -11.402  1.00 19.52 LIG 0.24  C 
ATOM     21  N   SER B 401      37.936 -12.003 -12.626  1.00 18.79 LIG-0.34  N 
ATOM     22 H    SER B 401      38.000 -11.187 -12.888  1.00 18.79 LIG 0.16  HD
ATOM     23 O    SER B 400      37.482 -13.542 -11.047  1.00 19.53 LIG-0.27  OA
BRANCH 21 24
ATOM     24  CA  SER B 401      38.275 -12.994 -13.644  1.00 20.07 LIG 0.19  C 
BRANCH 24 25
ATOM     25  C   SER B 401      39.193 -14.057 -13.060  1.00 22.19 LIG 0.22  C 
ATOM     26 O    SER B 401      38.730 -15.207 -12.901  1.00 22.82 LIG-0.29  OA
ENDBRANCH 24 25
BRANCH 24 27
ATOM     27  CB  SER B 401      38.955 -12.331 -14.848  1.00 19.03 LIG 0.20  C 
BRANCH 27 28
ATOM     28 OG   SER B 401      39.681 -11.174 -14.465  1.00 19.07 LIG-0.40  OA
ATOM     29 HG   SER B 401      39.258 -10.488 -14.698  1.00 19.07 LIG 0.21  HD
ENDBRANCH 27 28
ENDBRANCH 24 27
ENDBRANCH 21 24
ENDBRANCH 19 20
BRANCH 19 30
ATOM     30  CB  SER B 400      38.516 -10.497 -10.057  1.00 20.99 LIG 0.20  C 
BRANCH 30 31
ATOM     31 OG   SER B 400      38.273  -9.106  -9.926  1.00 29.12 LIG-0.40  OA
ATOM     32 HG   SER B 400      37.525  -8.919 -10.258  1.00 29.12 LIG 0.21  HD
ENDBRANCH 30 31
ENDBRANCH 19 30
ENDBRANCH 3 19
TORSDOF 13
ENDMDL
MODEL 2
USER: ADFR SOLUTION from run 159
USER: SCORE 10.383401 LL:  -1.492 LR:  -9.171 RR:   0.000 FEB:  -5.293
USER: RMSD 2.338802
USER: SEED 158
USER: STATUS no improvement in best in 3 clusters for 5 generations
USER: GENES 15
USER: genes 0 Translation |==|  0.49570 0.56202 0.56303
USER: genes 1 Rotation |==|  0.44901 0.48323 0.53691 0.99574
USER: genes 2 Torsion [N]-C--CA-[N] |==|  0.47534
USER: genes 3 Torsion [C]-CA--N-[C] |==|  0.55538
USER: genes 4 Torsion [N]-C--CA-[N] |==|  0.49328
USER: genes 5 Torsion [C]-CA--CB-[CG] |==|  0.25049
USER: genes 6 Torsion [CA]-CB--CG-[CD2] |==|  0.73475
USER: genes 7 Torsion [C]-N--CA-[C] |==|  0.81988
USER: genes 8 Torsion [N]-CA--C-[N] |==|  0.45555
USER: genes 9 Torsion [C]-N--CA-[C] |==|  0.87644
USER: genes 10 Torsion [N]-CA--C-[O] |==|  0.31607
USER: genes 11 Torsion [N]-CA--CB-[OG] |==|  0.09030
USER: genes 12 Torsion [CA]-CB--OG-[HG] |==|  0.78121
USER: genes 13 Torsion [N]-CA--CB-[OG] |==|  0.78355
USER: genes 14 Torsion [CA]-CB--OG-[HG] |==|  0.93006
ROOT
ATOM      1  C   HIS B 399      35.573 -12.151  -9.495  1.00 17.93 LIG 0.24  C 
ATOM      2 O    HIS B 399      34.900 -12.391 -10.499  1.00 15.41 LIG-0.27  OA
ATOM      3  N   SER B 400      36.740 -11.518  -9.534  1.00 17.64 LIG-0.34  N 
ATOM      4 H    SER B 400      37.209 -11.342  -8.835  1.00 17.64 LIG 0.16  HD
ENDROOT
BRANCH 1 5
ATOM      5  CA  HIS B 399      35.089 -12.578  -8.115  1.00 18.55 LIG 0.18  C 
BRANCH 5 6
ATOM      6  N   HIS B 399      33.719 -13.065  -8.193  1.00 19.43 LIG-0.34  N 
ATOM      7 H    HIS B 399      33.471 -13.302  -8.981  1.00 19.43 LIG 0.16  HD
ATOM      8  C   ALA B 398      32.939 -13.128  -7.118  1.00 22.32 LIG 0.26  C 
ATOM      9 O    ALA B 398      33.312 -12.771  -5.999  1.00 22.30 LIG-0.27  OA
BRANCH 8 10
ATOM     10  CA  ALA B 398      31.529 -13.668  -7.342  1.00 21.39 LIG 0.40  C 
ATOM     11  N   ALA B 398      30.766 -13.747  -6.060  1.00 23.95 LIG 0.61  N 
ATOM     12  CB  ALA B 398      30.782 -12.789  -8.335  1.00 21.38 LIG 0.06  C 
ENDBRANCH 8 10
ENDBRANCH 5 6
BRANCH 5 13
ATOM     13  CB  HIS B 399      35.996 -13.682  -7.568  1.00 22.49 LIG 0.10  C 
BRANCH 13 14
ATOM     14  CG  HIS B 399      37.154 -13.166  -6.775  1.00 24.90 LIG 0.06  A 
ATOM     15  CD2 HIS B 399      38.434 -12.908  -7.133  1.00 26.88 LIG 0.14  A 
ATOM     16 NE2  HIS B 399      39.065 -12.383  -6.031  1.00 28.66 LIG-0.25  NA
ATOM     17  CE1 HIS B 399      38.204 -12.322  -5.031  1.00 27.08 LIG 0.23  A 
ATOM     18 ND1  HIS B 399      37.042 -12.791  -5.453  1.00 26.64 LIG-0.24  NA
ENDBRANCH 13 14
ENDBRANCH 5 13
ENDBRANCH 1 5
BRANCH 3 19
ATOM     19  CA  SER B 400      37.339 -11.059 -10.784  1.00 19.59 LIG 0.20  C 
BRANCH 19 20
ATOM     20  C   SER B 400      37.688 -12.255 -11.661  1.00 19.52 LIG 0.24  C 
ATOM     21  N   SER B 401      37.932 -12.003 -12.945  1.00 18.79 LIG-0.34  N 
ATOM     22 H    SER B 401      37.903 -11.218 -13.296  1.00 18.79 LIG 0.16  HD
ATOM     23 O    SER B 400      37.742 -13.387 -11.179  1.00 19.53 LIG-0.27  OA
BRANCH 21 24
ATOM     24  CA  SER B 401      38.276 -13.071 -13.880  1.00 20.07 LIG 0.19  C 
BRANCH 24 25
ATOM     25  C   SER B 401      39.298 -14.010 -13.255  1.00 22.19 LIG 0.22  C 
ATOM     26 O    SER B 401      38.943 -15.184 -13.013  1.00 22.82 LIG-0.29  OA
ENDBRANCH 24 25
BRANCH 24 27
ATOM     27  CB  SER B 401      38.836 -12.496 -15.186  1.00 19.03 LIG 0.20  C 
BRANCH 27 28
ATOM     28 OG   SER B 401      39.555 -11.296 -14.961  1.00 19.07 LIG-0.40  OA
ATOM     29 HG   SER B 401      39.016 -10.659 -14.864  1.00 19.07 LIG 0.21  HD
ENDBRANCH 27 28
ENDBRANCH 24 27
ENDBRANCH 21 24
ENDBRANCH 19 20
BRANCH 19 30
ATOM     30  CB  SER B 400      38.608 -10.255 -10.493  1.00 20.99 LIG 0.20  C 
BRANCH 30 31
ATOM     31 OG   SER B 400      38.286  -8.942 -10.062  1.00 29.12 LIG-0.40  OA
ATOM     32 HG   SER B 400      37.531  -8.726 -10.359  1.00 29.12 LIG 0.21  HD
ENDBRANCH 30 31
ENDBRANCH 19 30
ENDBRANCH 3 19
TORSDOF 13
ENDMDL
MODEL 3
USER: ADFR SOLUTION from run 56
USER: SCORE 10.352782 LL:  -1.991 LR:  -8.630 RR:   0.000 FEB:  -4.753
USER: RMSD 1.949404
USER: SEED 55
USER: STATUS no improvement in best in 4 clusters for 5 generations
USER: GENES 15
USER: genes 0 Translation |==|  0.50959 0.51977 0.54557
USER: genes 1 Rotation |==|  0.63454 0.58453 0.42300 0.96779
USER: genes 2 Torsion [N]-C--CA-[N] |==|  0.44847
USER: genes 3 Torsion [C]-CA--N-[C] |==|  0.62831
USER: genes 4 Torsion [N]-C--CA-[N] |==|  0.63308
USER: genes 5 Torsion [C]-CA--CB-[CG] |==|  0.17646
USER: genes 6 Torsion [CA]-CB--CG-[CD2] |==|  0.62453
USER: genes 7 Torsion [C]-N--CA-[C] |==|  0.63620
USER: genes 8 Torsion [N]-CA--C-[N] |==|  0.35595
USER: genes 9 Torsion [C]-N--CA-[C] |==|  0.56778
USER: genes 10 Torsion [N]-CA--C-[O] |==|  0.52601
USER: genes 11 Torsion [N]-CA--CB-[OG] |==|  0.84927
USER: genes 12 Torsion [CA]-CB--OG-[HG] |==|  0.95302
USER: genes 13 Torsion [N]-CA--CB-[OG] |==|  0.73586
USER: genes 14 Torsion [CA]-CB--OG-[HG] |==|  0.98860
ROOT
ATOM      1  C   HIS B 399      35.823 -12.817  -9.810  1.00 17.93 LIG 0.24  C 
ATOM      2 O    HIS B 399      34.949 -12.071 -10.254  1.00 15.41 LIG-0.27  OA
ATOM      3  N   SER B 400      37.111 -12.688 -10.107  1.00 17.64 LIG-0.34  N 
ATOM      4 H    SER B 400      37.725 -13.201  -9.793  1.00 17.64 LIG 0.16  HD
ENDROOT
BRANCH 1 5
ATOM      5  CA  HIS B 399      35.465 -13.959  -8.866  1.00 18.55 LIG 0.18  C 
BRANCH 5 6
ATOM      6  N   HIS B 399      34.150 -13.734  -8.285  1.00 19.43 LIG-0.34  N 
ATOM      7 H    HIS B 399      33.547 -13.496  -8.850  1.00 19.43 LIG 0.16  HD
ATOM      8  C   ALA B 398      33.926 -13.890  -6.983  1.00 22.32 LIG 0.26  C 
ATOM      9 O    ALA B 398      34.809 -14.220  -6.188  1.00 22.30 LIG-0.27  OA
BRANCH 8 10
ATOM     10  CA  ALA B 398      32.499 -13.632  -6.510  1.00 21.39 LIG 0.40  C 
ATOM     11  N   ALA B 398      32.475 -12.747  -5.307  1.00 23.95 LIG 0.61  N 
ATOM     12  CB  ALA B 398      31.681 -13.005  -7.630  1.00 21.38 LIG 0.06  C 
ENDBRANCH 8 10
ENDBRANCH 5 6
BRANCH 5 13
ATOM     13  CB  HIS B 399      35.468 -15.283  -9.633  1.00 22.49 LIG 0.10  C 
BRANCH 13 14
ATOM     14  CG  HIS B 399      36.811 -15.655 -10.177  1.00 24.90 LIG 0.06  A 
ATOM     15  CD2 HIS B 399      37.180 -16.128 -11.391  1.00 26.88 LIG 0.14  A 
ATOM     16 NE2  HIS B 399      38.549 -16.237 -11.384  1.00 28.66 LIG-0.25  NA
ATOM     17  CE1 HIS B 399      39.005 -15.847 -10.207  1.00 27.08 LIG 0.23  A 
ATOM     18 ND1  HIS B 399      37.976 -15.491  -9.459  1.00 26.64 LIG-0.24  NA
ENDBRANCH 13 14
ENDBRANCH 5 13
ENDBRANCH 1 5
BRANCH 3 19
ATOM     19  CA  SER B 400      37.605 -11.650 -11.006  1.00 19.59 LIG 0.20  C 
BRANCH 19 20
ATOM     20  C   SER B 400      38.531 -12.265 -12.050  1.00 19.52 LIG 0.24  C 
ATOM     21  N   SER B 401      38.265 -11.985 -13.323  1.00 18.79 LIG-0.34  N 
ATOM     22 H    SER B 401      37.613 -11.487 -13.581  1.00 18.79 LIG 0.16  HD
ATOM     23 O    SER B 400      39.474 -12.978 -11.704  1.00 19.53 LIG-0.27  OA
BRANCH 21 24
ATOM     24  CA  SER B 401      39.083 -12.520 -14.408  1.00 20.07 LIG 0.19  C 
BRANCH 24 25
ATOM     25  C   SER B 401      38.980 -11.628 -15.637  1.00 22.19 LIG 0.22  C 
ATOM     26 O    SER B 401      39.478 -12.043 -16.705  1.00 22.82 LIG-0.29  OA
ENDBRANCH 24 25
BRANCH 24 27
ATOM     27  CB  SER B 401      38.650 -13.946 -14.769  1.00 19.03 LIG 0.20  C 
BRANCH 27 28
ATOM     28 OG   SER B 401      38.650 -14.794 -13.632  1.00 19.07 LIG-0.40  OA
ATOM     29 HG   SER B 401      39.100 -14.439 -13.018  1.00 19.07 LIG 0.21  HD
ENDBRANCH 27 28
ENDBRANCH 24 27
ENDBRANCH 21 24
ENDBRANCH 19 20
BRANCH 19 30
ATOM     30  CB  SER B 400      38.371 -10.589 -10.212  1.00 20.99 LIG 0.20  C 
BRANCH 30 31
ATOM     31 OG   SER B 400      37.525  -9.499  -9.880  1.00 29.12 LIG-0.40  OA
ATOM     32 HG   SER B 400      36.770  -9.613 -10.230  1.00 29.12 LIG 0.21  HD
ENDBRANCH 30 31
ENDBRANCH 19 30
ENDBRANCH 3 19
TORSDOF 13
ENDMDL
MODEL 4
USER: ADFR SOLUTION from run 146
USER: SCORE 10.352534 LL:  -1.967 LR:  -8.544 RR:   0.000 FEB:  -4.666
USER: RMSD 2.198140
USER: SEED 145
USER: STATUS 1 or 2 clusters left
USER: GENES 15
USER: genes 0 Translation |==|  0.50360 0.55751 0.57127
USER: genes 1 Rotation |==|  0.48616 0.46709 0.52360 0.99816
USER: genes 2 Torsion [N]-C--CA-[N] |==|  0.45820
USER: genes 3 Torsion [C]-CA--N-[C] |==|  0.54829
USER: genes 4 Torsion [N]-C--CA-[N] |==|  0.52693
USER: genes 5 Torsion [C]-CA--CB-[CG] |==|  0.81106
USER: genes 6 Torsion [CA]-CB--CG-[CD2] |==|  0.72166
USER: genes 7 Torsion [C]-N--CA-[C] |==|  0.76687
USER: genes 8 Torsion [N]-CA--C-[N] |==|  0.98669
USER: genes 9 Torsion [C]-N--CA-[C] |==|  0.79184
USER: genes 10 Torsion [N]-CA--C-[O] |==|  0.34921
USER: genes 11 Torsion [N]-CA--CB-[OG] |==|  0.39008
USER: genes 12 Torsion [CA]-CB--OG-[HG] |==|  0.73830
USER: genes 13 Torsion [N]-CA--CB-[OG] |==|  0.66193
USER: genes 14 Torsion [CA]-CB--OG-[HG] |==|  0.01711
ROOT
ATOM      1  C   HIS B 399      35.715 -12.222  -9.347  1.00 17.93 LIG 0.24  C 
ATOM      2 O    HIS B 399      35.097 -12.274 -10.411  1.00 15.41 LIG-0.27  OA
ATOM      3  N   SER B 400      36.905 -11.645  -9.223  1.00 17.64 LIG-0.34  N 
ATOM      4 H    SER B 400      37.337 -11.601  -8.481  1.00 17.64 LIG 0.16  HD
ENDROOT
BRANCH 1 5
ATOM      5  CA  HIS B 399      35.132 -12.833  -8.078  1.00 18.55 LIG 0.18  C 
BRANCH 5 6
ATOM      6  N   HIS B 399      33.713 -13.104  -8.260  1.00 19.43 LIG-0.34  N 
ATOM      7 H    HIS B 399      33.456 -13.117  -9.080  1.00 19.43 LIG 0.16  HD
ATOM      8  C   ALA B 398      32.905 -13.312  -7.224  1.00 22.32 LIG 0.26  C 
ATOM      9 O    ALA B 398      33.293 -13.276  -6.055  1.00 22.30 LIG-0.27  OA
BRANCH 8 10
ATOM     10  CA  ALA B 398      31.443 -13.595  -7.559  1.00 21.39 LIG 0.40  C 
ATOM     11  N   ALA B 398      30.591 -13.580  -6.333  1.00 23.95 LIG 0.61  N 
ATOM     12  CB  ALA B 398      30.927 -12.572  -8.561  1.00 21.38 LIG 0.06  C 
ENDBRANCH 8 10
ENDBRANCH 5 6
BRANCH 5 13
ATOM     13  CB  HIS B 399      35.865 -14.134  -7.747  1.00 22.49 LIG 0.10  C 
BRANCH 13 14
ATOM     14  CG  HIS B 399      35.610 -15.231  -8.730  1.00 24.90 LIG 0.06  A 
ATOM     15  CD2 HIS B 399      34.780 -16.299  -8.677  1.00 26.88 LIG 0.14  A 
ATOM     16 NE2  HIS B 399      34.885 -16.955  -9.880  1.00 28.66 LIG-0.25  NA
ATOM     17  CE1 HIS B 399      35.752 -16.314 -10.644  1.00 27.08 LIG 0.23  A 
ATOM     18 ND1  HIS B 399      36.206 -15.270  -9.973  1.00 26.64 LIG-0.24  NA
ENDBRANCH 13 14
ENDBRANCH 5 13
ENDBRANCH 1 5
BRANCH 3 19
ATOM     19  CA  SER B 400      37.596 -11.029 -10.351  1.00 19.59 LIG 0.20  C 
BRANCH 19 20
ATOM     20  C   SER B 400      38.359 -12.090 -11.135  1.00 19.52 LIG 0.24  C 
ATOM     21  N   SER B 401      38.356 -13.322 -10.632  1.00 18.79 LIG-0.34  N 
ATOM     22 H    SER B 401      37.955 -13.544  -9.904  1.00 18.79 LIG 0.16  HD
ATOM     23 O    SER B 400      38.936 -11.797 -12.183  1.00 19.53 LIG-0.27  OA
BRANCH 21 24
ATOM     24  CA  SER B 401      39.054 -14.419 -11.297  1.00 20.07 LIG 0.19  C 
BRANCH 24 25
ATOM     25  C   SER B 401      38.275 -14.873 -12.523  1.00 22.19 LIG 0.22  C 
ATOM     26 O    SER B 401      38.874 -14.902 -13.619  1.00 22.82 LIG-0.29  OA
ENDBRANCH 24 25
BRANCH 24 27
ATOM     27  CB  SER B 401      39.248 -15.602 -10.342  1.00 19.03 LIG 0.20  C 
BRANCH 27 28
ATOM     28 OG   SER B 401      39.048 -16.842 -11.001  1.00 19.07 LIG-0.40  OA
ATOM     29 HG   SER B 401      38.253 -17.091 -10.895  1.00 19.07 LIG 0.21  HD
ENDBRANCH 27 28
ENDBRANCH 24 27
ENDBRANCH 21 24
ENDBRANCH 19 20
BRANCH 19 30
ATOM     30  CB  SER B 400      38.577  -9.966  -9.849  1.00 20.99 LIG 0.20  C 
BRANCH 30 31
ATOM     31 OG   SER B 400      38.278  -8.698 -10.409  1.00 29.12 LIG-0.40  OA
ATOM     32 HG   SER B 400      37.564  -8.747 -10.849  1.00 29.12 LIG 0.21  HD
ENDBRANCH 30 31
ENDBRANCH 19 30
ENDBRANCH 3 19
TORSDOF 13
ENDMDL
