MODEL 1
USER: ADFR SOLUTION from run 157
USER: SCORE 18.534691 LL:  -3.385 LR: -15.559 RR:   0.000 FEB:  -9.593
USER: RMSD 2.786622
USER: SEED 156
USER: STATUS searching
USER: GENES 22
USER: genes 0 Translation |==|  0.36488 0.49175 0.46877
USER: genes 1 Rotation |==|  0.50043 0.54003 0.49333 0.99835
USER: genes 2 Torsion [C]-N--CA-[C] |==|  0.76667
USER: genes 3 Torsion [N]-CA--C-[N] |==|  0.43714
USER: genes 4 Torsion [C]-N--CA-[CB] |==|  0.26881
USER: genes 5 Torsion [N]-CA--CB-[CG] |==|  0.87151
USER: genes 6 Torsion [CA]-CB--CG-[CD1] |==|  0.84329
USER: genes 7 Torsion [N]-CA--C-[O] |==|  0.84369
USER: genes 8 Torsion [N]-CA--CB-[CG] |==|  0.37018
USER: genes 9 Torsion [CA]-CB--CG-[CD] |==|  0.31384
USER: genes 10 Torsion [CB]-CG--CD-[NE] |==|  0.94112
USER: genes 11 Torsion [CG]-CD--NE-[CZ] |==|  0.47253
USER: genes 12 Torsion [N]-C--CA-[N] |==|  0.38569
USER: genes 13 Torsion [C]-CA--N-[C] |==|  0.64522
USER: genes 14 Torsion [N]-C--CA-[N] |==|  0.35282
USER: genes 15 Torsion [C]-CA--CB-[CG] |==|  0.16338
USER: genes 16 Torsion [CA]-CB--CG-[CD] |==|  0.48853
USER: genes 17 Torsion [CB]-CG--CD-[OE2] |==|  0.52363
USER: genes 18 Torsion [C]-CA--N-[C] |==|  0.66899
USER: genes 19 Torsion [N]-C--CA-[N] |==|  0.75227
USER: genes 20 Torsion [C]-CA--CB-[OG1] |==|  0.49425
USER: genes 21 Torsion [CA]-CB--OG1-[HG1] |==|  0.25051
ROOT
ATOM      1  C   THR D  11      33.550   0.677   1.927  1.00 18.55 LIG 0.24  C 
ATOM      2 O    THR D  11      32.796   0.854   0.966  1.00 18.02 LIG-0.27  OA
ATOM      3  N   ARG D  12      34.651  -0.088   1.872  1.00 18.77 LIG-0.35  N 
ATOM      4 H    ARG D  12      35.183  -0.177   2.541  1.00 18.77 LIG 0.16  HD
ENDROOT
BRANCH 3 5
ATOM      5  CA  ARG D  12      35.075  -0.848   0.705  1.00 18.70 LIG 0.18  C 
BRANCH 5 6
ATOM      6  C   ARG D  12      34.307  -2.184   0.731  1.00 21.86 LIG 0.24  C 
ATOM      7  N   LEU D  13      34.169  -2.829  -0.430  1.00 17.74 LIG-0.34  N 
ATOM      8 H    LEU D  13      34.487  -2.518  -1.166  1.00 17.74 LIG 0.16  HD
ATOM      9 O    ARG D  12      33.832  -2.607   1.798  1.00 22.92 LIG-0.27  OA
BRANCH 7 10
ATOM     10  CA  LEU D  13      33.479  -4.119  -0.611  1.00 16.59 LIG 0.18  C 
BRANCH 10 11
ATOM     11  CB  LEU D  13      32.004  -3.922  -1.089  1.00 17.18 LIG 0.04  C 
BRANCH 11 12
ATOM     12  CG  LEU D  13      31.079  -2.877  -0.405  1.00 22.98 LIG-0.02  C 
ATOM     13  CD2 LEU D  13      31.433  -1.463  -0.775  1.00 23.47 LIG 0.01  C 
ATOM     14  CD1 LEU D  13      30.941  -3.082   1.078  1.00 23.63 LIG 0.01  C 
ENDBRANCH 11 12
ENDBRANCH 10 11
BRANCH 10 15
ATOM     15  C   LEU D  13      34.155  -4.982  -1.643  1.00 15.64 LIG 0.20  C 
ATOM     16 OXT  LEU D  13      34.622  -6.084  -1.284  1.00 16.77 LIG-0.65  OA
ATOM     17 O    LEU D  13      34.310  -4.503  -2.782  1.00 16.70 LIG-0.65  OA
ENDBRANCH 10 15
ENDBRANCH 7 10
ENDBRANCH 5 6
BRANCH 5 18
ATOM     18  CB  ARG D  12      36.591  -1.120   0.795  1.00 21.73 LIG 0.04  C 
BRANCH 18 19
ATOM     19  CG  ARG D  12      36.985  -2.576   0.494  1.00 32.78 LIG 0.02  C 
BRANCH 19 20
ATOM     20  CD  ARG D  12      37.790  -2.718  -0.790  1.00 50.92 LIG 0.14  C 
BRANCH 20 21
ATOM     21  NE  ARG D  12      37.594  -1.576  -1.689  1.00 62.40 LIG-0.23  N 
ATOM     22  CZ  ARG D  12      38.307  -1.341  -2.784  1.00 78.74 LIG 0.67  C 
ATOM     23  NH2 ARG D  12      38.060  -0.269  -3.524  1.00 63.99 LIG-0.23  N 
ATOM     24  NH1 ARG D  12      39.260  -2.186  -3.159  1.00 69.89 LIG-0.23  N 
ATOM     25 1HH2 ARG D  12      37.436   0.278  -3.294  1.00 63.99 LIG 0.17  HD
ATOM     26 2HH2 ARG D  12      38.523  -0.119  -4.233  1.00 63.99 LIG 0.17  HD
ATOM     27 2HH1 ARG D  12      39.718  -2.028  -3.869  1.00 69.89 LIG 0.17  HD
ATOM     28 1HH1 ARG D  12      39.419  -2.890  -2.692  1.00 69.89 LIG 0.17  HD
ATOM     29 HE   ARG D  12      36.971  -1.016  -1.491  1.00 62.40 LIG 0.18  HD
ENDBRANCH 20 21
ENDBRANCH 19 20
ENDBRANCH 18 19
ENDBRANCH 5 18
ENDBRANCH 3 5
BRANCH 1 30
ATOM     30  CA  THR D  11      33.238   1.317   3.280  1.00 18.14 LIG 0.20  C 
BRANCH 30 31
ATOM     31  N   THR D  11      32.787   2.696   3.070  1.00 19.39 LIG-0.34  N 
ATOM     32 H    THR D  11      32.144   2.774   2.504  1.00 19.39 LIG 0.16  HD
ATOM     33  C   GLU D  10      33.341   3.737   3.716  1.00 24.62 LIG 0.24  C 
ATOM     34 O    GLU D  10      34.272   3.613   4.511  1.00 23.89 LIG-0.27  OA
BRANCH 33 35
ATOM     35  CA  GLU D  10      32.828   5.132   3.350  1.00 24.68 LIG 0.18  C 
BRANCH 35 36
ATOM     36  CB  GLU D  10      33.937   5.925   2.640  1.00 26.38 LIG 0.04  C 
BRANCH 36 37
ATOM     37  CG  GLU D  10      34.460   5.285   1.369  1.00 32.13 LIG 0.12  C 
BRANCH 37 38
ATOM     38  CD  GLU D  10      35.484   6.090   0.594  1.00 44.28 LIG 0.17  C 
ATOM     39 OE2  GLU D  10      35.810   5.665  -0.534  1.00 30.19 LIG-0.65  OA
ATOM     40 OE1  GLU D  10      35.980   7.120   1.107  1.00 43.79 LIG-0.65  OA
ENDBRANCH 37 38
ENDBRANCH 36 37
ENDBRANCH 35 36
BRANCH 35 41
ATOM     41  N   GLU D  10      32.404   5.890   4.524  1.00 26.35 LIG-0.35  N 
ATOM     42 H    GLU D  10      33.042   6.018   5.086  1.00 26.35 LIG 0.16  HD
ATOM     43  C   GLY D   9      31.171   6.348   4.733  1.00 30.50 LIG 0.25  C 
ATOM     44 O    GLY D   9      30.226   6.129   3.966  1.00 29.84 LIG-0.27  OA
BRANCH 43 45
ATOM     45  CA  GLY D   9      30.958   7.152   6.002  1.00 28.17 LIG 0.47  C 
ATOM     46  N   GLY D   9      30.588   6.347   7.165  1.00 29.20 LIG 0.61  N 
ENDBRANCH 43 45
ENDBRANCH 35 41
ENDBRANCH 33 35
ENDBRANCH 30 31
BRANCH 30 47
ATOM     47  CB  THR D  11      32.189   0.473   4.053  1.00 19.92 LIG 0.15  C 
ATOM     48  CG2 THR D  11      32.622  -0.999   4.249  1.00 18.13 LIG 0.04  C 
BRANCH 47 49
ATOM     49 OG1  THR D  11      31.942   1.055   5.334  1.00 18.56 LIG-0.39  OA
ATOM     50 HG1  THR D  11      31.310   1.605   5.275  1.00 18.56 LIG 0.21  HD
ENDBRANCH 47 49
ENDBRANCH 30 47
ENDBRANCH 1 30
TORSDOF 20
ENDMDL
MODEL 2
USER: ADFR SOLUTION from run 101
USER: SCORE 18.243119 LL:  -4.521 LR: -14.101 RR:   0.000 FEB:  -8.135
USER: RMSD 1.763737
USER: SEED 100
USER: STATUS searching
USER: GENES 22
USER: genes 0 Translation |==|  0.37860 0.48968 0.47744
USER: genes 1 Rotation |==|  0.51710 0.47288 0.45934 0.99731
USER: genes 2 Torsion [C]-N--CA-[C] |==|  0.75008
USER: genes 3 Torsion [N]-CA--C-[N] |==|  0.37986
USER: genes 4 Torsion [C]-N--CA-[CB] |==|  0.30401
USER: genes 5 Torsion [N]-CA--CB-[CG] |==|  0.87240
USER: genes 6 Torsion [CA]-CB--CG-[CD1] |==|  0.85613
USER: genes 7 Torsion [N]-CA--C-[O] |==|  0.80798
USER: genes 8 Torsion [N]-CA--CB-[CG] |==|  0.70998
USER: genes 9 Torsion [CA]-CB--CG-[CD] |==|  0.28086
USER: genes 10 Torsion [CB]-CG--CD-[NE] |==|  0.87191
USER: genes 11 Torsion [CG]-CD--NE-[CZ] |==|  0.62951
USER: genes 12 Torsion [N]-C--CA-[N] |==|  0.41538
USER: genes 13 Torsion [C]-CA--N-[C] |==|  0.65866
USER: genes 14 Torsion [N]-C--CA-[N] |==|  0.38015
USER: genes 15 Torsion [C]-CA--CB-[CG] |==|  0.16078
USER: genes 16 Torsion [CA]-CB--CG-[CD] |==|  0.55824
USER: genes 17 Torsion [CB]-CG--CD-[OE2] |==|  0.66158
USER: genes 18 Torsion [C]-CA--N-[C] |==|  0.67790
USER: genes 19 Torsion [N]-C--CA-[N] |==|  0.75518
USER: genes 20 Torsion [C]-CA--CB-[OG1] |==|  0.47154
USER: genes 21 Torsion [CA]-CB--OG1-[HG1] |==|  0.19962
ROOT
ATOM      1  C   THR D  11      33.818   0.633   2.077  1.00 18.55 LIG 0.24  C 
ATOM      2 O    THR D  11      33.379   0.949   0.967  1.00 18.02 LIG-0.27  OA
ATOM      3  N   ARG D  12      34.781  -0.284   2.257  1.00 18.77 LIG-0.35  N 
ATOM      4 H    ARG D  12      35.098  -0.471   3.035  1.00 18.77 LIG 0.16  HD
ENDROOT
BRANCH 3 5
ATOM      5  CA  ARG D  12      35.399  -1.059   1.191  1.00 18.70 LIG 0.18  C 
BRANCH 5 6
ATOM      6  C   ARG D  12      34.565  -2.344   1.025  1.00 21.86 LIG 0.24  C 
ATOM      7  N   LEU D  13      34.292  -2.736  -0.222  1.00 17.74 LIG-0.34  N 
ATOM      8 H    LEU D  13      34.561  -2.294  -0.909  1.00 17.74 LIG 0.16  HD
ATOM      9 O    ARG D  12      34.164  -2.958   2.028  1.00 22.92 LIG-0.27  OA
BRANCH 7 10
ATOM     10  CA  LEU D  13      33.520  -3.938  -0.588  1.00 16.59 LIG 0.18  C 
BRANCH 10 11
ATOM     11  CB  LEU D  13      32.121  -3.567  -1.177  1.00 17.18 LIG 0.04  C 
BRANCH 11 12
ATOM     12  CG  LEU D  13      31.225  -2.502  -0.487  1.00 22.98 LIG-0.02  C 
ATOM     13  CD2 LEU D  13      31.666  -1.095  -0.784  1.00 23.47 LIG 0.01  C 
ATOM     14  CD1 LEU D  13      31.017  -2.757   0.981  1.00 23.63 LIG 0.01  C 
ENDBRANCH 11 12
ENDBRANCH 10 11
BRANCH 10 15
ATOM     15  C   LEU D  13      34.223  -4.764  -1.632  1.00 15.64 LIG 0.20  C 
ATOM     16 OXT  LEU D  13      34.775  -5.828  -1.278  1.00 16.77 LIG-0.65  OA
ATOM     17 O    LEU D  13      34.310  -4.288  -2.781  1.00 16.70 LIG-0.65  OA
ENDBRANCH 10 15
ENDBRANCH 7 10
ENDBRANCH 5 6
BRANCH 5 18
ATOM     18  CB  ARG D  12      36.842  -1.425   1.595  1.00 21.73 LIG 0.04  C 
BRANCH 18 19
ATOM     19  CG  ARG D  12      37.922  -0.593   0.882  1.00 32.78 LIG 0.02  C 
BRANCH 19 20
ATOM     20  CD  ARG D  12      38.481   0.523   1.754  1.00 50.92 LIG 0.14  C 
BRANCH 20 21
ATOM     21  NE  ARG D  12      37.418   1.271   2.435  1.00 62.40 LIG-0.23  N 
ATOM     22  CZ  ARG D  12      37.343   2.595   2.496  1.00 78.74 LIG 0.67  C 
ATOM     23  NH2 ARG D  12      36.347   3.178   3.150  1.00 63.99 LIG-0.23  N 
ATOM     24  NH1 ARG D  12      38.252   3.348   1.888  1.00 69.89 LIG-0.23  N 
ATOM     25 1HH2 ARG D  12      35.748   2.697   3.537  1.00 63.99 LIG 0.17  HD
ATOM     26 2HH2 ARG D  12      36.301   4.036   3.188  1.00 63.99 LIG 0.17  HD
ATOM     27 2HH1 ARG D  12      38.198   4.205   1.932  1.00 69.89 LIG 0.17  HD
ATOM     28 1HH1 ARG D  12      38.895   2.980   1.452  1.00 69.89 LIG 0.17  HD
ATOM     29 HE   ARG D  12      36.799   0.819   2.823  1.00 62.40 LIG 0.18  HD
ENDBRANCH 20 21
ENDBRANCH 19 20
ENDBRANCH 18 19
ENDBRANCH 5 18
ENDBRANCH 3 5
BRANCH 1 30
ATOM     30  CA  THR D  11      33.241   1.266   3.342  1.00 18.14 LIG 0.20  C 
BRANCH 30 31
ATOM     31  N   THR D  11      32.812   2.636   3.044  1.00 19.39 LIG-0.34  N 
ATOM     32 H    THR D  11      32.237   2.694   2.407  1.00 19.39 LIG 0.16  HD
ATOM     33  C   GLU D  10      33.287   3.699   3.719  1.00 24.62 LIG 0.24  C 
ATOM     34 O    GLU D  10      34.123   3.603   4.616  1.00 23.89 LIG-0.27  OA
BRANCH 33 35
ATOM     35  CA  GLU D  10      32.814   5.079   3.259  1.00 24.68 LIG 0.18  C 
BRANCH 35 36
ATOM     36  CB  GLU D  10      33.920   5.763   2.439  1.00 26.38 LIG 0.04  C 
BRANCH 36 37
ATOM     37  CG  GLU D  10      34.376   4.987   1.219  1.00 32.13 LIG 0.12  C 
BRANCH 37 38
ATOM     38  CD  GLU D  10      35.747   5.346   0.679  1.00 44.28 LIG 0.17  C 
ATOM     39 OE2  GLU D  10      35.810   5.732  -0.507  1.00 30.19 LIG-0.65  OA
ATOM     40 OE1  GLU D  10      36.754   5.224   1.415  1.00 43.79 LIG-0.65  OA
ENDBRANCH 37 38
ENDBRANCH 36 37
ENDBRANCH 35 36
BRANCH 35 41
ATOM     41  N   GLU D  10      32.474   5.949   4.382  1.00 26.35 LIG-0.35  N 
ATOM     42 H    GLU D  10      33.150   6.131   4.880  1.00 26.35 LIG 0.16  HD
ATOM     43  C   GLY D   9      31.256   6.427   4.636  1.00 30.50 LIG 0.25  C 
ATOM     44 O    GLY D   9      30.258   6.135   3.966  1.00 29.84 LIG-0.27  OA
BRANCH 43 45
ATOM     45  CA  GLY D   9      31.133   7.351   5.832  1.00 28.17 LIG 0.47  C 
ATOM     46  N   GLY D   9      30.879   6.663   7.096  1.00 29.20 LIG 0.61  N 
ENDBRANCH 43 45
ENDBRANCH 35 41
ENDBRANCH 33 35
ENDBRANCH 30 31
BRANCH 30 47
ATOM     47  CB  THR D  11      32.080   0.403   3.905  1.00 19.92 LIG 0.15  C 
ATOM     48  CG2 THR D  11      32.434  -1.100   3.997  1.00 18.13 LIG 0.04  C 
BRANCH 47 49
ATOM     49 OG1  THR D  11      31.709   0.869   5.203  1.00 18.56 LIG-0.39  OA
ATOM     50 HG1  THR D  11      31.310   1.605   5.133  1.00 18.56 LIG 0.21  HD
ENDBRANCH 47 49
ENDBRANCH 30 47
ENDBRANCH 1 30
TORSDOF 20
ENDMDL
MODEL 3
USER: ADFR SOLUTION from run 67
USER: SCORE 18.207155 LL:  -4.771 LR: -13.800 RR:   0.000 FEB:  -7.834
USER: RMSD 2.481604
USER: SEED 66
USER: STATUS searching
USER: GENES 22
USER: genes 0 Translation |==|  0.36626 0.48797 0.47265
USER: genes 1 Rotation |==|  0.49835 0.52386 0.49156 0.99936
USER: genes 2 Torsion [C]-N--CA-[C] |==|  0.77563
USER: genes 3 Torsion [N]-CA--C-[N] |==|  0.42830
USER: genes 4 Torsion [C]-N--CA-[CB] |==|  0.27361
USER: genes 5 Torsion [N]-CA--CB-[CG] |==|  0.84678
USER: genes 6 Torsion [CA]-CB--CG-[CD1] |==|  0.85426
USER: genes 7 Torsion [N]-CA--C-[O] |==|  0.82198
USER: genes 8 Torsion [N]-CA--CB-[CG] |==|  0.51281
USER: genes 9 Torsion [CA]-CB--CG-[CD] |==|  0.66691
USER: genes 10 Torsion [CB]-CG--CD-[NE] |==|  0.22133
USER: genes 11 Torsion [CG]-CD--NE-[CZ] |==|  0.69520
USER: genes 12 Torsion [N]-C--CA-[N] |==|  0.38518
USER: genes 13 Torsion [C]-CA--N-[C] |==|  0.65027
USER: genes 14 Torsion [N]-C--CA-[N] |==|  0.37149
USER: genes 15 Torsion [C]-CA--CB-[CG] |==|  0.18072
USER: genes 16 Torsion [CA]-CB--CG-[CD] |==|  0.58119
USER: genes 17 Torsion [CB]-CG--CD-[OE2] |==|  0.14281
USER: genes 18 Torsion [C]-CA--N-[C] |==|  0.65840
USER: genes 19 Torsion [N]-C--CA-[N] |==|  0.76678
USER: genes 20 Torsion [C]-CA--CB-[OG1] |==|  0.48278
USER: genes 21 Torsion [CA]-CB--OG1-[HG1] |==|  0.22462
ROOT
ATOM      1  C   THR D  11      33.577   0.595   1.994  1.00 18.55 LIG 0.24  C 
ATOM      2 O    THR D  11      32.887   0.767   0.985  1.00 18.02 LIG-0.27  OA
ATOM      3  N   ARG D  12      34.674  -0.178   2.017  1.00 18.77 LIG-0.35  N 
ATOM      4 H    ARG D  12      35.161  -0.263   2.721  1.00 18.77 LIG 0.16  HD
ENDROOT
BRANCH 3 5
ATOM      5  CA  ARG D  12      35.167  -0.952   0.887  1.00 18.70 LIG 0.18  C 
BRANCH 5 6
ATOM      6  C   ARG D  12      34.334  -2.246   0.827  1.00 21.86 LIG 0.24  C 
ATOM      7  N   LEU D  13      34.220  -2.842  -0.363  1.00 17.74 LIG-0.34  N 
ATOM      8 H    LEU D  13      34.587  -2.521  -1.071  1.00 17.74 LIG 0.16  HD
ATOM      9 O    ARG D  12      33.789  -2.682   1.854  1.00 22.92 LIG-0.27  OA
BRANCH 7 10
ATOM     10  CA  LEU D  13      33.476  -4.088  -0.624  1.00 16.59 LIG 0.18  C 
BRANCH 10 11
ATOM     11  CB  LEU D  13      32.054  -3.799  -1.203  1.00 17.18 LIG 0.04  C 
BRANCH 11 12
ATOM     12  CG  LEU D  13      31.061  -2.873  -0.447  1.00 22.98 LIG-0.02  C 
ATOM     13  CD2 LEU D  13      31.386  -1.415  -0.620  1.00 23.47 LIG 0.01  C 
ATOM     14  CD1 LEU D  13      30.854  -3.264   0.991  1.00 23.63 LIG 0.01  C 
ENDBRANCH 11 12
ENDBRANCH 10 11
BRANCH 10 15
ATOM     15  C   LEU D  13      34.179  -4.966  -1.625  1.00 15.64 LIG 0.20  C 
ATOM     16 OXT  LEU D  13      34.689  -6.035  -1.226  1.00 16.77 LIG-0.65  OA
ATOM     17 O    LEU D  13      34.310  -4.528  -2.784  1.00 16.70 LIG-0.65  OA
ENDBRANCH 10 15
ENDBRANCH 7 10
ENDBRANCH 5 6
BRANCH 5 18
ATOM     18  CB  ARG D  12      36.652  -1.301   1.117  1.00 21.73 LIG 0.04  C 
BRANCH 18 19
ATOM     19  CG  ARG D  12      37.316  -2.025  -0.068  1.00 32.78 LIG 0.02  C 
BRANCH 19 20
ATOM     20  CD  ARG D  12      37.848  -3.402   0.304  1.00 50.92 LIG 0.14  C 
BRANCH 20 21
ATOM     21  NE  ARG D  12      36.783  -4.410   0.339  1.00 62.40 LIG-0.23  N 
ATOM     22  CZ  ARG D  12      36.318  -4.982   1.443  1.00 78.74 LIG 0.67  C 
ATOM     23  NH2 ARG D  12      35.360  -5.897   1.368  1.00 63.99 LIG-0.23  N 
ATOM     24  NH1 ARG D  12      36.792  -4.634   2.633  1.00 69.89 LIG-0.23  N 
ATOM     25 1HH2 ARG D  12      35.039  -6.121   0.602  1.00 63.99 LIG 0.17  HD
ATOM     26 2HH2 ARG D  12      35.060  -6.266   2.084  1.00 63.99 LIG 0.17  HD
ATOM     27 2HH1 ARG D  12      36.487  -5.008   3.344  1.00 69.89 LIG 0.17  HD
ATOM     28 1HH1 ARG D  12      37.405  -4.034   2.692  1.00 69.89 LIG 0.17  HD
ATOM     29 HE   ARG D  12      36.435  -4.648  -0.410  1.00 62.40 LIG 0.18  HD
ENDBRANCH 20 21
ENDBRANCH 19 20
ENDBRANCH 18 19
ENDBRANCH 5 18
ENDBRANCH 3 5
BRANCH 1 30
ATOM     30  CA  THR D  11      33.182   1.250   3.318  1.00 18.14 LIG 0.20  C 
BRANCH 30 31
ATOM     31  N   THR D  11      32.759   2.631   3.067  1.00 19.39 LIG-0.34  N 
ATOM     32 H    THR D  11      32.138   2.707   2.476  1.00 19.39 LIG 0.16  HD
ATOM     33  C   GLU D  10      33.305   3.677   3.713  1.00 24.62 LIG 0.24  C 
ATOM     34 O    GLU D  10      34.205   3.554   4.543  1.00 23.89 LIG-0.27  OA
BRANCH 33 35
ATOM     35  CA  GLU D  10      32.826   5.071   3.304  1.00 24.68 LIG 0.18  C 
BRANCH 35 36
ATOM     36  CB  GLU D  10      33.912   5.773   2.473  1.00 26.38 LIG 0.04  C 
BRANCH 36 37
ATOM     37  CG  GLU D  10      34.211   5.119   1.138  1.00 32.13 LIG 0.12  C 
BRANCH 37 38
ATOM     38  CD  GLU D  10      35.624   5.289   0.618  1.00 44.28 LIG 0.17  C 
ATOM     39 OE2  GLU D  10      36.557   4.995   1.394  1.00 30.19 LIG-0.65  OA
ATOM     40 OE1  GLU D  10      35.810   5.733  -0.540  1.00 43.79 LIG-0.65  OA
ENDBRANCH 37 38
ENDBRANCH 36 37
ENDBRANCH 35 36
BRANCH 35 41
ATOM     41  N   GLU D  10      32.519   5.911   4.459  1.00 26.35 LIG-0.35  N 
ATOM     42 H    GLU D  10      33.186   5.997   4.994  1.00 26.35 LIG 0.16  HD
ATOM     43  C   GLY D   9      31.344   6.494   4.688  1.00 30.50 LIG 0.25  C 
ATOM     44 O    GLY D   9      30.355   6.340   3.962  1.00 29.84 LIG-0.27  OA
BRANCH 43 45
ATOM     45  CA  GLY D   9      31.255   7.363   5.929  1.00 28.17 LIG 0.47  C 
ATOM     46  N   GLY D   9      30.970   6.624   7.157  1.00 29.20 LIG 0.61  N 
ENDBRANCH 43 45
ENDBRANCH 35 41
ENDBRANCH 33 35
ENDBRANCH 30 31
BRANCH 30 47
ATOM     47  CB  THR D  11      32.077   0.423   4.027  1.00 19.92 LIG 0.15  C 
ATOM     48  CG2 THR D  11      32.441  -1.074   4.173  1.00 18.13 LIG 0.04  C 
BRANCH 47 49
ATOM     49 OG1  THR D  11      31.820   0.962   5.324  1.00 18.56 LIG-0.39  OA
ATOM     50 HG1  THR D  11      31.310   1.627   5.255  1.00 18.56 LIG 0.21  HD
ENDBRANCH 47 49
ENDBRANCH 30 47
ENDBRANCH 1 30
TORSDOF 20
ENDMDL
