MODEL 1
USER: ADFR SOLUTION from run 126
USER: SCORE 16.642281 LL:  -2.323 LR: -15.430 RR:   0.000 FEB:  -9.763
USER: RMSD 2.598347
USER: SEED 125
USER: STATUS 1 or 2 clusters left
USER: GENES 21
USER: genes 0 Translation |==|  0.51448 0.47612 0.37035
USER: genes 1 Rotation |==|  0.45457 0.51768 0.47600 0.99704
USER: genes 2 Torsion [CB]-CA--N-[C] |==|  0.22812
USER: genes 3 Torsion [N]-C--CA-[N] |==|  0.43650
USER: genes 4 Torsion [C]-CA--CB-[CG] |==|  0.27660
USER: genes 5 Torsion [CA]-CB--CG-[CD] |==|  0.72394
USER: genes 6 Torsion [CB]-CG--CD-[OE2] |==|  0.18310
USER: genes 7 Torsion [C]-CA--N-[C] |==|  0.67640
USER: genes 8 Torsion [N]-C--CA-[N] |==|  0.91302
USER: genes 9 Torsion [C]-CA--CB-[CG2] |==|  0.71778
USER: genes 10 Torsion [CA]-CB--CG1-[CD1] |==|  0.33688
USER: genes 11 Torsion [N]-CA--CB-[OG] |==|  0.76604
USER: genes 12 Torsion [CA]-CB--OG-[HG] |==|  0.20250
USER: genes 13 Torsion [N]-CA--C-[N] |==|  0.45837
USER: genes 14 Torsion [C]-N--CA-[C] |==|  0.79483
USER: genes 15 Torsion [N]-CA--C-[N] |==|  0.41592
USER: genes 16 Torsion [C]-N--CA-[CB] |==|  0.18345
USER: genes 17 Torsion [N]-CA--C-[OXT] |==|  0.26808
USER: genes 18 Torsion [N]-CA--CB-[CG1] |==|  0.74263
USER: genes 19 Torsion [N]-CA--CB-[CG] |==|  0.17034
USER: genes 20 Torsion [CA]-CB--CG-[OD1] |==|  0.83007
ROOT
ATOM      1  CA  SER G  14      50.527 -16.873   9.938  1.00 44.70 LIG 0.20  C 
ENDROOT
BRANCH 1 2
ATOM      2  N   SER G  14      50.397 -17.593  11.208  1.00 46.20 LIG-0.34  N 
ATOM      3 H    SER G  14      49.928 -17.170  11.791  1.00 46.20 LIG 0.16  HD
ATOM      4  C   GLU G  13      50.952 -18.805  11.455  1.00 51.44 LIG 0.24  C 
ATOM      5 O    GLU G  13      51.643 -19.417  10.630  1.00 50.95 LIG-0.27  OA
BRANCH 4 6
ATOM      6  CA  GLU G  13      50.681 -19.437  12.840  1.00 50.06 LIG 0.18  C 
BRANCH 6 7
ATOM      7  CB  GLU G  13      51.612 -18.869  13.926  1.00 50.83 LIG 0.04  C 
BRANCH 7 8
ATOM      8  CG  GLU G  13      51.027 -17.792  14.820  1.00 52.88 LIG 0.12  C 
BRANCH 8 9
ATOM      9  CD  GLU G  13      51.416 -16.384  14.425  1.00 63.45 LIG 0.17  C 
ATOM     10 OE2  GLU G  13      51.006 -15.925  13.328  1.00 51.34 LIG-0.65  OA
ATOM     11 OE1  GLU G  13      52.163 -15.749  15.207  1.00 49.18 LIG-0.65  OA
ENDBRANCH 8 9
ENDBRANCH 7 8
ENDBRANCH 6 7
BRANCH 6 12
ATOM     12  N   GLU G  13      50.863 -20.884  12.737  1.00 52.96 LIG-0.35  N 
ATOM     13  C   ILE G  12      49.964 -21.870  12.906  1.00 61.55 LIG 0.26  C 
ATOM     14 O    ILE G  12      48.794 -21.685  13.253  1.00 62.55 LIG-0.27  OA
ATOM     15 H    GLU G  13      51.677 -21.076  12.539  1.00 52.96 LIG 0.16  HD
BRANCH 13 16
ATOM     16  CA  ILE G  12      50.487 -23.286  12.653  1.00 62.28 LIG 0.40  C 
ATOM     17  N   ILE G  12      51.540 -23.352  11.634  1.00 63.47 LIG 0.61  N 
BRANCH 16 18
ATOM     18  CB  ILE G  12      50.840 -24.029  13.986  1.00 65.80 LIG 0.03  C 
ATOM     19  CG2 ILE G  12      52.355 -24.031  14.244  1.00 67.40 LIG 0.01  C 
BRANCH 18 20
ATOM     20  CG1 ILE G  12      50.018 -23.501  15.202  1.00 66.47 LIG 0.00  C 
ATOM     21  CD1 ILE G  12      49.140 -24.578  15.939  1.00 71.32 LIG 0.01  C 
ENDBRANCH 18 20
ENDBRANCH 16 18
ENDBRANCH 13 16
ENDBRANCH 6 12
ENDBRANCH 4 6
ENDBRANCH 1 2
BRANCH 1 22
ATOM     22  CB  SER G  14      49.510 -17.393   8.922  1.00 46.99 LIG 0.20  C 
BRANCH 22 23
ATOM     23 OG   SER G  14      49.958 -18.547   8.232  1.00 54.54 LIG-0.40  OA
ATOM     24 HG   SER G  14      49.937 -19.208   8.749  1.00 54.54 LIG 0.21  HD
ENDBRANCH 22 23
ENDBRANCH 1 22
BRANCH 1 25
ATOM     25  C   SER G  14      50.356 -15.361  10.094  1.00 46.83 LIG 0.24  C 
ATOM     26 O    SER G  14      49.820 -14.892  11.088  1.00 45.69 LIG-0.27  OA
ATOM     27  N   ASP G  15      50.756 -14.614   9.076  1.00 44.02 LIG-0.34  N 
ATOM     28 H    ASP G  15      51.115 -14.950   8.371  1.00 44.02 LIG 0.16  HD
BRANCH 27 29
ATOM     29  CA  ASP G  15      50.642 -13.155   9.020  1.00 44.06 LIG 0.19  C 
BRANCH 29 30
ATOM     30  C   ASP G  15      49.193 -12.722   8.784  1.00 44.73 LIG 0.24  C 
ATOM     31 O    ASP G  15      48.428 -13.442   8.148  1.00 45.25 LIG-0.27  OA
ATOM     32  N   VAL G  16      48.820 -11.552   9.302  1.00 39.33 LIG-0.34  N 
ATOM     33 H    VAL G  16      49.350 -11.043   9.750  1.00 39.33 LIG 0.16  HD
BRANCH 32 34
ATOM     34  CA  VAL G  16      47.470 -11.019   9.155  1.00 42.56 LIG 0.19  C 
BRANCH 34 35
ATOM     35  C   VAL G  16      47.396  -9.506   9.487  1.00 36.49 LIG 0.20  C 
ATOM     36 OXT  VAL G  16      47.451  -8.694   8.567  1.00 48.65 LIG-0.65  OA
ATOM     37 O    VAL G  16      47.289  -9.146  10.675  1.00 44.52 LIG-0.65  OA
ENDBRANCH 34 35
BRANCH 34 38
ATOM     38  CB  VAL G  16      46.399 -11.881   9.901  1.00 46.62 LIG 0.01  C 
ATOM     39  CG1 VAL G  16      45.788 -12.934   8.970  1.00 46.76 LIG 0.01  C 
ATOM     40  CG2 VAL G  16      46.983 -12.550  11.137  1.00 45.99 LIG 0.01  C 
ENDBRANCH 34 38
ENDBRANCH 32 34
ENDBRANCH 29 30
BRANCH 29 41
ATOM     41  CB  ASP G  15      51.593 -12.572   7.947  1.00 46.49 LIG 0.15  C 
BRANCH 41 42
ATOM     42  CG  ASP G  15      51.322 -13.040   6.532  1.00 64.67 LIG 0.17  C 
ATOM     43 OD1  ASP G  15      51.415 -14.269   6.284  1.00 66.12 LIG-0.65  OA
ATOM     44 OD2  ASP G  15      51.050 -12.176   5.662  1.00 71.61 LIG-0.65  OA
ENDBRANCH 41 42
ENDBRANCH 29 41
ENDBRANCH 27 29
ENDBRANCH 1 25
TORSDOF 19
ENDMDL
MODEL 2
USER: ADFR SOLUTION from run 192
USER: SCORE 16.058955 LL:  -2.388 LR: -14.867 RR:   0.000 FEB:  -9.199
USER: RMSD 1.278618
USER: SEED 191
USER: STATUS 1 or 2 clusters left
USER: GENES 21
USER: genes 0 Translation |==|  0.52693 0.48402 0.38404
USER: genes 1 Rotation |==|  0.50017 0.46693 0.49594 0.99889
USER: genes 2 Torsion [CB]-CA--N-[C] |==|  0.24426
USER: genes 3 Torsion [N]-C--CA-[N] |==|  0.45556
USER: genes 4 Torsion [C]-CA--CB-[CG] |==|  0.93810
USER: genes 5 Torsion [CA]-CB--CG-[CD] |==|  0.31890
USER: genes 6 Torsion [CB]-CG--CD-[OE2] |==|  0.30817
USER: genes 7 Torsion [C]-CA--N-[C] |==|  0.70701
USER: genes 8 Torsion [N]-C--CA-[N] |==|  0.33236
USER: genes 9 Torsion [C]-CA--CB-[CG2] |==|  0.65904
USER: genes 10 Torsion [CA]-CB--CG1-[CD1] |==|  0.63715
USER: genes 11 Torsion [N]-CA--CB-[OG] |==|  0.84462
USER: genes 12 Torsion [CA]-CB--OG-[HG] |==|  0.13917
USER: genes 13 Torsion [N]-CA--C-[N] |==|  0.44619
USER: genes 14 Torsion [C]-N--CA-[C] |==|  0.76916
USER: genes 15 Torsion [N]-CA--C-[N] |==|  0.45651
USER: genes 16 Torsion [C]-N--CA-[CB] |==|  0.18776
USER: genes 17 Torsion [N]-CA--C-[OXT] |==|  0.35523
USER: genes 18 Torsion [N]-CA--CB-[CG1] |==|  0.74153
USER: genes 19 Torsion [N]-CA--CB-[CG] |==|  0.16711
USER: genes 20 Torsion [CA]-CB--CG-[OD1] |==|  0.62343
ROOT
ATOM      1  CA  SER G  14      50.732 -16.684  10.174  1.00 44.70 LIG 0.20  C 
ENDROOT
BRANCH 1 2
ATOM      2  N   SER G  14      50.438 -17.631  11.253  1.00 46.20 LIG-0.34  N 
ATOM      3 H    SER G  14      49.769 -17.394  11.739  1.00 46.20 LIG 0.16  HD
ATOM      4  C   GLU G  13      51.137 -18.770  11.476  1.00 51.44 LIG 0.24  C 
ATOM      5 O    GLU G  13      52.112 -19.114  10.794  1.00 50.95 LIG-0.27  OA
BRANCH 4 6
ATOM      6  CA  GLU G  13      50.664 -19.674  12.638  1.00 50.06 LIG 0.18  C 
BRANCH 6 7
ATOM      7  CB  GLU G  13      51.033 -19.087  14.013  1.00 50.83 LIG 0.04  C 
BRANCH 7 8
ATOM      8  CG  GLU G  13      52.180 -18.096  14.037  1.00 52.88 LIG 0.12  C 
BRANCH 8 9
ATOM      9  CD  GLU G  13      51.775 -16.693  14.436  1.00 63.45 LIG 0.17  C 
ATOM     10 OE2  GLU G  13      52.163 -16.240  15.543  1.00 51.34 LIG-0.65  OA
ATOM     11 OE1  GLU G  13      51.038 -16.057  13.645  1.00 49.18 LIG-0.65  OA
ENDBRANCH 8 9
ENDBRANCH 7 8
ENDBRANCH 6 7
BRANCH 6 12
ATOM     12  N   GLU G  13      51.274 -20.994  12.482  1.00 52.96 LIG-0.35  N 
ATOM     13  C   ILE G  12      50.716 -22.146  12.071  1.00 61.55 LIG 0.26  C 
ATOM     14 O    ILE G  12      49.518 -22.278  11.805  1.00 62.55 LIG-0.27  OA
ATOM     15 H    GLU G  13      52.106 -20.973  12.697  1.00 52.96 LIG 0.16  HD
BRANCH 13 16
ATOM     16  CA  ILE G  12      51.674 -23.336  11.959  1.00 62.28 LIG 0.40  C 
ATOM     17  N   ILE G  12      51.314 -24.466  12.824  1.00 63.47 LIG 0.61  N 
BRANCH 16 18
ATOM     18  CB  ILE G  12      51.946 -23.733  10.470  1.00 65.80 LIG 0.03  C 
ATOM     19  CG2 ILE G  12      51.576 -25.201  10.202  1.00 67.40 LIG 0.01  C 
BRANCH 18 20
ATOM     20  CG1 ILE G  12      51.288 -22.747   9.456  1.00 66.47 LIG 0.00  C 
ATOM     21  CD1 ILE G  12      50.445 -23.421   8.312  1.00 71.32 LIG 0.01  C 
ENDBRANCH 18 20
ENDBRANCH 16 18
ENDBRANCH 13 16
ENDBRANCH 6 12
ENDBRANCH 4 6
ENDBRANCH 1 2
BRANCH 1 22
ATOM     22  CB  SER G  14      49.994 -17.081   8.896  1.00 46.99 LIG 0.20  C 
BRANCH 22 23
ATOM     23 OG   SER G  14      50.283 -18.405   8.480  1.00 54.54 LIG-0.40  OA
ATOM     24 HG   SER G  14      50.185 -18.930   9.128  1.00 54.54 LIG 0.21  HD
ENDBRANCH 22 23
ENDBRANCH 1 22
BRANCH 1 25
ATOM     25  C   SER G  14      50.372 -15.242  10.537  1.00 46.83 LIG 0.24  C 
ATOM     26 O    SER G  14      49.545 -15.004  11.406  1.00 45.69 LIG-0.27  OA
ATOM     27  N   ASP G  15      50.948 -14.291   9.818  1.00 44.02 LIG-0.34  N 
ATOM     28 H    ASP G  15      51.514 -14.464   9.194  1.00 44.02 LIG 0.16  HD
BRANCH 27 29
ATOM     29  CA  ASP G  15      50.704 -12.857   9.987  1.00 44.06 LIG 0.19  C 
BRANCH 29 30
ATOM     30  C   ASP G  15      49.443 -12.418   9.237  1.00 44.73 LIG 0.24  C 
ATOM     31 O    ASP G  15      48.946 -13.148   8.383  1.00 45.25 LIG-0.27  OA
ATOM     32  N   VAL G  16      48.930 -11.232   9.560  1.00 39.33 LIG-0.34  N 
ATOM     33 H    VAL G  16      49.272 -10.716  10.157  1.00 39.33 LIG 0.16  HD
BRANCH 32 34
ATOM     34  CA  VAL G  16      47.732 -10.692   8.926  1.00 42.56 LIG 0.19  C 
BRANCH 34 35
ATOM     35  C   VAL G  16      47.590  -9.163   9.144  1.00 36.49 LIG 0.20  C 
ATOM     36 OXT  VAL G  16      47.414  -8.439   8.167  1.00 48.65 LIG-0.65  OA
ATOM     37 O    VAL G  16      47.663  -8.702  10.299  1.00 44.52 LIG-0.65  OA
ENDBRANCH 34 35
BRANCH 34 38
ATOM     38  CB  VAL G  16      46.444 -11.503   9.286  1.00 46.62 LIG 0.01  C 
ATOM     39  CG1 VAL G  16      46.161 -12.589   8.242  1.00 46.76 LIG 0.01  C 
ATOM     40  CG2 VAL G  16      46.544 -12.122  10.673  1.00 45.99 LIG 0.01  C 
ENDBRANCH 34 38
ENDBRANCH 32 34
ENDBRANCH 29 30
BRANCH 29 41
ATOM     41  CB  ASP G  15      51.941 -12.035   9.553  1.00 46.49 LIG 0.15  C 
BRANCH 41 42
ATOM     42  CG  ASP G  15      52.352 -12.217   8.106  1.00 64.67 LIG 0.17  C 
ATOM     43 OD1  ASP G  15      53.573 -12.370   7.849  1.00 66.12 LIG-0.65  OA
ATOM     44 OD2  ASP G  15      51.457 -12.174   7.224  1.00 71.61 LIG-0.65  OA
ENDBRANCH 41 42
ENDBRANCH 29 41
ENDBRANCH 27 29
ENDBRANCH 1 25
TORSDOF 19
ENDMDL
MODEL 3
USER: ADFR SOLUTION from run 148
USER: SCORE 16.066545 LL:  -3.230 LR: -14.111 RR:   0.000 FEB:  -8.443
USER: RMSD 2.135176
USER: SEED 147
USER: STATUS no improvement in best in 2 clusters for 5 generations
USER: GENES 21
USER: genes 0 Translation |==|  0.50286 0.49279 0.37894
USER: genes 1 Rotation |==|  0.43141 0.54815 0.46326 0.99156
USER: genes 2 Torsion [CB]-CA--N-[C] |==|  0.47238
USER: genes 3 Torsion [N]-C--CA-[N] |==|  0.24603
USER: genes 4 Torsion [C]-CA--CB-[CG] |==|  0.62885
USER: genes 5 Torsion [CA]-CB--CG-[CD] |==|  0.80420
USER: genes 6 Torsion [CB]-CG--CD-[OE2] |==|  0.27644
USER: genes 7 Torsion [C]-CA--N-[C] |==|  0.70858
USER: genes 8 Torsion [N]-C--CA-[N] |==|  0.34576
USER: genes 9 Torsion [C]-CA--CB-[CG2] |==|  0.70914
USER: genes 10 Torsion [CA]-CB--CG1-[CD1] |==|  0.46204
USER: genes 11 Torsion [N]-CA--CB-[OG] |==|  0.73229
USER: genes 12 Torsion [CA]-CB--OG-[HG] |==|  0.23063
USER: genes 13 Torsion [N]-CA--C-[N] |==|  0.44734
USER: genes 14 Torsion [C]-N--CA-[C] |==|  0.77990
USER: genes 15 Torsion [N]-CA--C-[N] |==|  0.36128
USER: genes 16 Torsion [C]-N--CA-[CB] |==|  0.21978
USER: genes 17 Torsion [N]-CA--C-[OXT] |==|  0.79403
USER: genes 18 Torsion [N]-CA--CB-[CG1] |==|  0.76932
USER: genes 19 Torsion [N]-CA--CB-[CG] |==|  0.17205
USER: genes 20 Torsion [CA]-CB--CG-[OD1] |==|  0.85898
ROOT
ATOM      1  CA  SER G  14      50.335 -16.473  10.086  1.00 44.70 LIG 0.20  C 
ENDROOT
BRANCH 1 2
ATOM      2  N   SER G  14      50.325 -17.071  11.424  1.00 46.20 LIG-0.34  N 
ATOM      3 H    SER G  14      49.610 -17.519  11.590  1.00 46.20 LIG 0.16  HD
ATOM      4  C   GLU G  13      51.332 -16.942  12.322  1.00 51.44 LIG 0.24  C 
ATOM      5 O    GLU G  13      52.358 -16.286  12.102  1.00 50.95 LIG-0.27  OA
BRANCH 4 6
ATOM      6  CA  GLU G  13      51.171 -17.672  13.675  1.00 50.06 LIG 0.18  C 
BRANCH 6 7
ATOM      7  CB  GLU G  13      51.889 -16.933  14.819  1.00 50.83 LIG 0.04  C 
BRANCH 7 8
ATOM      8  CG  GLU G  13      52.739 -17.785  15.742  1.00 52.88 LIG 0.12  C 
BRANCH 8 9
ATOM      9  CD  GLU G  13      51.942 -18.700  16.646  1.00 63.45 LIG 0.17  C 
ATOM     10 OE2  GLU G  13      51.816 -19.910  16.327  1.00 51.34 LIG-0.65  OA
ATOM     11 OE1  GLU G  13      51.415 -18.193  17.665  1.00 49.18 LIG-0.65  OA
ENDBRANCH 8 9
ENDBRANCH 7 8
ENDBRANCH 6 7
BRANCH 6 12
ATOM     12  N   GLU G  13      51.709 -19.025  13.543  1.00 52.96 LIG-0.35  N 
ATOM     13  C   ILE G  12      51.055 -20.195  13.435  1.00 61.55 LIG 0.26  C 
ATOM     14 O    ILE G  12      49.828 -20.309  13.495  1.00 62.55 LIG-0.27  OA
ATOM     15 H    GLU G  13      52.569 -19.012  13.541  1.00 52.96 LIG 0.16  HD
BRANCH 13 16
ATOM     16  CA  ILE G  12      51.943 -21.428  13.243  1.00 62.28 LIG 0.40  C 
ATOM     17  N   ILE G  12      51.721 -22.477  14.245  1.00 63.47 LIG 0.61  N 
BRANCH 16 18
ATOM     18  CB  ILE G  12      51.922 -21.943  11.765  1.00 65.80 LIG 0.03  C 
ATOM     19  CG2 ILE G  12      51.070 -23.214  11.624  1.00 67.40 LIG 0.01  C 
BRANCH 18 20
ATOM     20  CG1 ILE G  12      51.522 -20.829  10.748  1.00 66.47 LIG 0.00  C 
ATOM     21  CD1 ILE G  12      51.799 -21.166   9.237  1.00 71.32 LIG 0.01  C 
ENDBRANCH 18 20
ENDBRANCH 16 18
ENDBRANCH 13 16
ENDBRANCH 6 12
ENDBRANCH 4 6
ENDBRANCH 1 2
BRANCH 1 22
ATOM     22  CB  SER G  14      49.174 -17.011   9.251  1.00 46.99 LIG 0.20  C 
BRANCH 22 23
ATOM     23 OG   SER G  14      49.549 -18.089   8.411  1.00 54.54 LIG-0.40  OA
ATOM     24 HG   SER G  14      49.537 -18.804   8.851  1.00 54.54 LIG 0.21  HD
ENDBRANCH 22 23
ENDBRANCH 1 22
BRANCH 1 25
ATOM     25  C   SER G  14      50.267 -14.945  10.119  1.00 46.83 LIG 0.24  C 
ATOM     26 O    SER G  14      49.817 -14.361  11.095  1.00 45.69 LIG-0.27  OA
ATOM     27  N   ASP G  15      50.655 -14.314   9.022  1.00 44.02 LIG-0.34  N 
ATOM     28 H    ASP G  15      50.952 -14.730   8.331  1.00 44.02 LIG 0.16  HD
BRANCH 27 29
ATOM     29  CA  ASP G  15      50.628 -12.859   8.846  1.00 44.06 LIG 0.19  C 
BRANCH 29 30
ATOM     30  C   ASP G  15      49.216 -12.368   8.515  1.00 44.73 LIG 0.24  C 
ATOM     31 O    ASP G  15      48.567 -12.908   7.624  1.00 45.25 LIG-0.27  OA
ATOM     32  N   VAL G  16      48.746 -11.352   9.237  1.00 39.33 LIG-0.34  N 
ATOM     33 H    VAL G  16      49.194 -10.970   9.864  1.00 39.33 LIG 0.16  HD
BRANCH 32 34
ATOM     34  CA  VAL G  16      47.417 -10.786   9.030  1.00 42.56 LIG 0.19  C 
BRANCH 34 35
ATOM     35  C   VAL G  16      47.354  -9.282   9.405  1.00 36.49 LIG 0.20  C 
ATOM     36 OXT  VAL G  16      47.355  -8.967  10.592  1.00 48.65 LIG-0.65  OA
ATOM     37 O    VAL G  16      47.296  -8.429   8.498  1.00 44.52 LIG-0.65  OA
ENDBRANCH 34 35
BRANCH 34 38
ATOM     38  CB  VAL G  16      46.288 -11.647   9.685  1.00 46.62 LIG 0.01  C 
ATOM     39  CG1 VAL G  16      45.876 -12.808   8.773  1.00 46.76 LIG 0.01  C 
ATOM     40  CG2 VAL G  16      46.709 -12.175  11.049  1.00 45.99 LIG 0.01  C 
ENDBRANCH 34 38
ENDBRANCH 32 34
ENDBRANCH 29 30
BRANCH 29 41
ATOM     41  CB  ASP G  15      51.652 -12.418   7.772  1.00 46.49 LIG 0.15  C 
BRANCH 41 42
ATOM     42  CG  ASP G  15      51.399 -12.973   6.385  1.00 64.67 LIG 0.17  C 
ATOM     43 OD1  ASP G  15      51.222 -14.211   6.263  1.00 66.12 LIG-0.65  OA
ATOM     44 OD2  ASP G  15      51.413 -12.175   5.415  1.00 71.61 LIG-0.65  OA
ENDBRANCH 41 42
ENDBRANCH 29 41
ENDBRANCH 27 29
ENDBRANCH 1 25
TORSDOF 19
ENDMDL
