MODEL 1
USER: ADFR SOLUTION from run 5
USER: SCORE 13.780242 LL:  -0.929 LR: -14.555 RR:   0.000 FEB: -10.976
USER: RMSD 1.338201
USER: SEED 138820
USER: STATUS no improvement in best in 6 clusters for 5 generations
USER: GENES 14
USER: genes 0 Translation |==|  0.34081 0.55932 0.51755
USER: genes 1 Rotation |==|  0.52372 0.50983 0.59250 0.99070
USER: genes 2 Torsion [CB]-CA--N-[H1] |==|  0.09861
USER: genes 3 Torsion [N]-CA--CB-[CG] |==|  0.74062
USER: genes 4 Torsion [CA]-CB--CG-[CD] |==|  0.31951
USER: genes 5 Torsion [CB]-CG--CD-[NE] |==|  0.85569
USER: genes 6 Torsion [CG]-CD--NE-[CZ] |==|  0.55454
USER: genes 7 Torsion [N]-CA--C-[N] |==|  0.34392
USER: genes 8 Torsion [C]-N--CA-[CB] |==|  0.38148
USER: genes 9 Torsion [N]-CA--CB-[CG2] |==|  0.38461
USER: genes 10 Torsion [CA]-CB--CG1-[CD1] |==|  0.72697
USER: genes 11 Torsion [N]-CA--C-[N] |==|  0.30941
USER: genes 12 Torsion [C]-N--CA-[CB] |==|  0.39262
USER: genes 13 Torsion [N]-CA--C-[O] |==|  0.98226
ROOT
ATOM      1  CA  ARG B   1      26.763  10.892  -8.357  1.00 59.17 LIG 0.27  C 
ENDROOT
BRANCH 1 2
ATOM      2  N   ARG B   1      25.776  11.938  -8.739  1.00 58.83 LIG-0.07  N 
ATOM      3 H3   ARG B   1      25.990  12.707  -8.345  1.00 58.83 LIG 0.28  HD
ATOM      4 H2   ARG B   1      24.963  11.688  -8.478  1.00 58.83 LIG 0.28  HD
ATOM      5 H1   ARG B   1      25.784  12.046  -9.622  1.00 58.83 LIG 0.28  HD
ENDBRANCH 1 2
BRANCH 1 6
ATOM      6  CB  ARG B   1      28.005  10.942  -9.257  1.00 59.00 LIG 0.04  C 
BRANCH 6 7
ATOM      7  CG  ARG B   1      27.973  10.017 -10.477  1.00 58.73 LIG 0.02  C 
BRANCH 7 8
ATOM      8  CD  ARG B   1      27.963  10.774 -11.807  1.00 57.79 LIG 0.14  C 
BRANCH 8 9
ATOM      9  NE  ARG B   1      26.903  11.785 -11.841  1.00 57.71 LIG-0.23  N 
ATOM     10  CZ  ARG B   1      26.406  12.330 -12.950  1.00 57.43 LIG 0.67  C 
ATOM     11  NH1 ARG B   1      26.862  11.980 -14.146  1.00 56.57 LIG-0.23  N 
ATOM     12  NH2 ARG B   1      25.437  13.234 -12.864  1.00 57.93 LIG-0.23  N 
ATOM     13 2HH1 ARG B   1      26.533  12.339 -14.854  1.00 56.57 LIG 0.17  HD
ATOM     14 1HH1 ARG B   1      27.488  11.393 -14.213  1.00 56.57 LIG 0.17  HD
ATOM     15 2HH2 ARG B   1      25.115  13.587 -13.578  1.00 57.93 LIG 0.17  HD
ATOM     16 1HH2 ARG B   1      25.133  13.465 -12.094  1.00 57.93 LIG 0.17  HD
ATOM     17 HE   ARG B   1      26.578  12.046 -11.089  1.00 57.71 LIG 0.18  HD
ENDBRANCH 8 9
ENDBRANCH 7 8
ENDBRANCH 6 7
ENDBRANCH 1 6
BRANCH 1 18
ATOM     18  C   ARG B   1      27.178  11.060  -6.908  1.00 59.69 LIG 0.25  C 
ATOM     19 O    ARG B   1      27.640  12.127  -6.514  1.00 59.48 LIG-0.27  OA
ATOM     20  N   ILE B   2      27.002  10.005  -6.120  1.00 60.56 LIG-0.35  N 
ATOM     21 H    ILE B   2      26.615   9.277  -6.366  1.00 60.56 LIG 0.16  HD
BRANCH 20 22
ATOM     22  CA  ILE B   2      27.465  10.008  -4.738  1.00 61.73 LIG 0.18  C 
BRANCH 22 23
ATOM     23  CB  ILE B   2      26.419   9.382  -3.762  1.00 61.78 LIG 0.01  C 
ATOM     24  CG2 ILE B   2      27.077   8.476  -2.709  1.00 61.94 LIG 0.01  C 
BRANCH 23 25
ATOM     25  CG1 ILE B   2      25.555  10.471  -3.119  1.00 62.37 LIG 0.00  C 
ATOM     26  CD1 ILE B   2      26.010  10.875  -1.722  1.00 63.06 LIG 0.01  C 
ENDBRANCH 23 25
ENDBRANCH 22 23
BRANCH 22 27
ATOM     27  C   ILE B   2      28.829   9.324  -4.660  1.00 62.33 LIG 0.24  C 
ATOM     28 O    ILE B   2      28.938   8.113  -4.888  1.00 62.62 LIG-0.27  OA
ATOM     29  N   ALA B   3      29.865  10.110  -4.369  1.00 63.04 LIG-0.35  N 
ATOM     30 H    ALA B   3      29.792  10.943  -4.168  1.00 63.04 LIG 0.16  HD
BRANCH 29 31
ATOM     31  CA  ALA B   3      31.243   9.607  -4.370  1.00 63.50 LIG 0.16  C 
ATOM     32  CB  ALA B   3      32.198  10.656  -4.948  1.00 63.68 LIG 0.04  C 
BRANCH 31 33
ATOM     33  C   ALA B   3      31.708   9.159  -2.986  1.00 63.68 LIG 0.22  C 
ATOM     34 O    ALA B   3      31.006   9.341  -1.990  1.00 63.94 LIG-0.29  OA
ENDBRANCH 31 33
ENDBRANCH 29 31
ENDBRANCH 22 27
ENDBRANCH 20 22
ENDBRANCH 1 18
TORSDOF 12
ENDMDL
MODEL 2
USER: ADFR SOLUTION from run 49
USER: SCORE 14.922710 LL:  -1.069 LR: -14.503 RR:   0.000 FEB: -10.924
USER: RMSD 3.062283
USER: SEED 48
USER: STATUS no improvement in best in 11 clusters for 5 generations
USER: GENES 14
USER: genes 0 Translation |==|  0.39294 0.57811 0.46673
USER: genes 1 Rotation |==|  0.53996 0.54305 0.92030 0.76437
USER: genes 2 Torsion [CB]-CA--N-[H1] |==|  0.70826
USER: genes 3 Torsion [N]-CA--CB-[CG] |==|  0.77873
USER: genes 4 Torsion [CA]-CB--CG-[CD] |==|  0.19288
USER: genes 5 Torsion [CB]-CG--CD-[NE] |==|  0.37949
USER: genes 6 Torsion [CG]-CD--NE-[CZ] |==|  0.31297
USER: genes 7 Torsion [N]-CA--C-[N] |==|  0.11555
USER: genes 8 Torsion [C]-N--CA-[CB] |==|  0.22175
USER: genes 9 Torsion [N]-CA--CB-[CG2] |==|  0.08590
USER: genes 10 Torsion [CA]-CB--CG1-[CD1] |==|  0.68614
USER: genes 11 Torsion [N]-CA--C-[N] |==|  0.95000
USER: genes 12 Torsion [C]-N--CA-[CB] |==|  0.83926
USER: genes 13 Torsion [N]-CA--C-[O] |==|  0.20648
ROOT
ATOM      1  CA  ARG B   1      27.545  11.145  -9.463  1.00 59.17 LIG 0.27  C 
ENDROOT
BRANCH 1 2
ATOM      2  N   ARG B   1      26.526  10.088  -9.701  1.00 58.83 LIG-0.07  N 
ATOM      3 H3   ARG B   1      26.929   9.299  -9.781  1.00 58.83 LIG 0.28  HD
ATOM      4 H2   ARG B   1      26.079  10.269 -10.448  1.00 58.83 LIG 0.28  HD
ATOM      5 H1   ARG B   1      25.959  10.061  -9.015  1.00 58.83 LIG 0.28  HD
ENDBRANCH 1 2
BRANCH 1 6
ATOM      6  CB  ARG B   1      27.279  12.382 -10.331  1.00 59.00 LIG 0.04  C 
BRANCH 6 7
ATOM      7  CG  ARG B   1      27.740  12.278 -11.787  1.00 58.73 LIG 0.02  C 
BRANCH 7 8
ATOM      8  CD  ARG B   1      26.913  11.290 -12.612  1.00 57.79 LIG 0.14  C 
BRANCH 8 9
ATOM      9  NE  ARG B   1      26.589  11.834 -13.933  1.00 57.71 LIG-0.23  N 
ATOM     10  CZ  ARG B   1      27.061  11.363 -15.087  1.00 57.43 LIG 0.67  C 
ATOM     11  NH1 ARG B   1      27.893  10.331 -15.113  1.00 56.57 LIG-0.23  N 
ATOM     12  NH2 ARG B   1      26.692  11.930 -16.230  1.00 57.93 LIG-0.23  N 
ATOM     13 2HH1 ARG B   1      28.190  10.037 -15.865  1.00 56.57 LIG 0.17  HD
ATOM     14 1HH1 ARG B   1      28.136   9.955 -14.378  1.00 56.57 LIG 0.17  HD
ATOM     15 2HH2 ARG B   1      26.995  11.628 -16.976  1.00 57.93 LIG 0.17  HD
ATOM     16 1HH2 ARG B   1      26.151  12.598 -16.224  1.00 57.93 LIG 0.17  HD
ATOM     17 HE   ARG B   1      26.055  12.507 -13.966  1.00 57.71 LIG 0.18  HD
ENDBRANCH 8 9
ENDBRANCH 7 8
ENDBRANCH 6 7
ENDBRANCH 1 6
BRANCH 1 18
ATOM     18  C   ARG B   1      27.561  11.545  -8.000  1.00 59.69 LIG 0.25  C 
ATOM     19 O    ARG B   1      27.651  12.727  -7.679  1.00 59.48 LIG-0.27  OA
ATOM     20  N   ILE B   2      27.463  10.556  -7.118  1.00 60.56 LIG-0.35  N 
ATOM     21 H    ILE B   2      27.329   9.732  -7.329  1.00 60.56 LIG 0.16  HD
BRANCH 20 22
ATOM     22  CA  ILE B   2      27.580  10.804  -5.687  1.00 61.73 LIG 0.18  C 
BRANCH 22 23
ATOM     23  CB  ILE B   2      26.257  11.362  -5.074  1.00 61.78 LIG 0.01  C 
ATOM     24  CG2 ILE B   2      25.012  10.841  -5.808  1.00 61.94 LIG 0.01  C 
BRANCH 23 25
ATOM     25  CG1 ILE B   2      26.193  11.079  -3.569  1.00 62.37 LIG 0.00  C 
ATOM     26  CD1 ILE B   2      25.102  10.092  -3.173  1.00 63.06 LIG 0.01  C 
ENDBRANCH 23 25
ENDBRANCH 22 23
BRANCH 22 27
ATOM     27  C   ILE B   2      28.063   9.532  -4.991  1.00 62.33 LIG 0.24  C 
ATOM     28 O    ILE B   2      28.521   9.580  -3.843  1.00 62.62 LIG-0.27  OA
ATOM     29  N   ALA B   3      27.929   8.399  -5.678  1.00 63.04 LIG-0.35  N 
ATOM     30 H    ALA B   3      27.651   8.362  -6.491  1.00 63.04 LIG 0.16  HD
BRANCH 29 31
ATOM     31  CA  ALA B   3      28.250   7.093  -5.090  1.00 63.50 LIG 0.16  C 
ATOM     32  CB  ALA B   3      29.706   7.061  -4.617  1.00 63.68 LIG 0.04  C 
BRANCH 31 33
ATOM     33  C   ALA B   3      27.305   6.709  -3.955  1.00 63.68 LIG 0.22  C 
ATOM     34 O    ALA B   3      26.152   6.341  -4.185  1.00 63.94 LIG-0.29  OA
ENDBRANCH 31 33
ENDBRANCH 29 31
ENDBRANCH 22 27
ENDBRANCH 20 22
ENDBRANCH 1 18
TORSDOF 12
ENDMDL
MODEL 3
USER: ADFR SOLUTION from run 125
USER: SCORE 14.146211 LL:  -0.791 LR: -14.397 RR:   0.000 FEB: -10.817
USER: RMSD 2.855696
USER: SEED 124
USER: STATUS no improvement in best in 5 clusters for 5 generations
USER: GENES 14
USER: genes 0 Translation |==|  0.34443 0.55653 0.51640
USER: genes 1 Rotation |==|  0.52709 0.51252 0.58425 0.99195
USER: genes 2 Torsion [CB]-CA--N-[H1] |==|  0.43657
USER: genes 3 Torsion [N]-CA--CB-[CG] |==|  0.74253
USER: genes 4 Torsion [CA]-CB--CG-[CD] |==|  0.31892
USER: genes 5 Torsion [CB]-CG--CD-[NE] |==|  0.84960
USER: genes 6 Torsion [CG]-CD--NE-[CZ] |==|  0.55558
USER: genes 7 Torsion [N]-CA--C-[N] |==|  0.36262
USER: genes 8 Torsion [C]-N--CA-[CB] |==|  0.18354
USER: genes 9 Torsion [N]-CA--CB-[CG2] |==|  0.09559
USER: genes 10 Torsion [CA]-CB--CG1-[CD1] |==|  0.50849
USER: genes 11 Torsion [N]-CA--C-[N] |==|  0.40214
USER: genes 12 Torsion [C]-N--CA-[CB] |==|  0.79704
USER: genes 13 Torsion [N]-CA--C-[O] |==|  0.75781
ROOT
ATOM      1  CA  ARG B   1      26.818  10.854  -8.382  1.00 59.17 LIG 0.27  C 
ENDROOT
BRANCH 1 2
ATOM      2  N   ARG B   1      25.860  11.936  -8.739  1.00 58.83 LIG-0.07  N 
ATOM      3 H3   ARG B   1      25.841  12.037  -9.623  1.00 58.83 LIG 0.28  HD
ATOM      4 H2   ARG B   1      26.119  12.699  -8.360  1.00 58.83 LIG 0.28  HD
ATOM      5 H1   ARG B   1      25.047  11.722  -8.448  1.00 58.83 LIG 0.28  HD
ENDBRANCH 1 2
BRANCH 1 6
ATOM      6  CB  ARG B   1      28.047  10.872  -9.300  1.00 59.00 LIG 0.04  C 
BRANCH 6 7
ATOM      7  CG  ARG B   1      27.961   9.975 -10.537  1.00 58.73 LIG 0.02  C 
BRANCH 7 8
ATOM      8  CD  ARG B   1      27.957  10.759 -11.851  1.00 57.79 LIG 0.14  C 
BRANCH 8 9
ATOM      9  NE  ARG B   1      26.901  11.774 -11.867  1.00 57.71 LIG-0.23  N 
ATOM     10  CZ  ARG B   1      26.404  12.339 -12.967  1.00 57.43 LIG 0.67  C 
ATOM     11  NH1 ARG B   1      26.856  12.005 -14.169  1.00 56.57 LIG-0.23  N 
ATOM     12  NH2 ARG B   1      25.439  13.245 -12.864  1.00 57.93 LIG-0.23  N 
ATOM     13 2HH1 ARG B   1      26.526  12.377 -14.870  1.00 56.57 LIG 0.17  HD
ATOM     14 1HH1 ARG B   1      27.479  11.417 -14.246  1.00 56.57 LIG 0.17  HD
ATOM     15 2HH2 ARG B   1      25.116  13.611 -13.572  1.00 57.93 LIG 0.17  HD
ATOM     16 1HH2 ARG B   1      25.137  13.466 -12.090  1.00 57.93 LIG 0.17  HD
ATOM     17 HE   ARG B   1      26.579  12.025 -11.110  1.00 57.71 LIG 0.18  HD
ENDBRANCH 8 9
ENDBRANCH 7 8
ENDBRANCH 6 7
ENDBRANCH 1 6
BRANCH 1 18
ATOM     18  C   ARG B   1      27.259  10.993  -6.938  1.00 59.69 LIG 0.25  C 
ATOM     19 O    ARG B   1      27.646  12.076  -6.508  1.00 59.48 LIG-0.27  OA
ATOM     20  N   ILE B   2      27.188   9.895  -6.193  1.00 60.56 LIG-0.35  N 
ATOM     21 H    ILE B   2      26.853   9.150  -6.462  1.00 60.56 LIG 0.16  HD
BRANCH 20 22
ATOM     22  CA  ILE B   2      27.688   9.876  -4.824  1.00 61.73 LIG 0.18  C 
BRANCH 22 23
ATOM     23  CB  ILE B   2      26.862  10.805  -3.880  1.00 61.78 LIG 0.01  C 
ATOM     24  CG2 ILE B   2      25.373  10.841  -4.258  1.00 61.94 LIG 0.01  C 
BRANCH 23 25
ATOM     25  CG1 ILE B   2      27.071  10.413  -2.413  1.00 62.37 LIG 0.00  C 
ATOM     26  CD1 ILE B   2      26.238  11.229  -1.432  1.00 63.06 LIG 0.01  C 
ENDBRANCH 23 25
ENDBRANCH 22 23
BRANCH 22 27
ATOM     27  C   ILE B   2      27.748   8.433  -4.327  1.00 62.33 LIG 0.24  C 
ATOM     28 O    ILE B   2      26.910   7.604  -4.702  1.00 62.62 LIG-0.27  OA
ATOM     29  N   ALA B   3      28.759   8.133  -3.512  1.00 63.04 LIG-0.35  N 
ATOM     30 H    ALA B   3      29.321   8.712  -3.214  1.00 63.04 LIG 0.16  HD
BRANCH 29 31
ATOM     31  CA  ALA B   3      29.000   6.762  -3.048  1.00 63.50 LIG 0.16  C 
ATOM     32  CB  ALA B   3      27.950   6.354  -2.011  1.00 63.68 LIG 0.04  C 
BRANCH 31 33
ATOM     33  C   ALA B   3      29.052   5.753  -4.192  1.00 63.68 LIG 0.22  C 
ATOM     34 O    ALA B   3      28.026   5.217  -4.614  1.00 63.94 LIG-0.29  OA
ENDBRANCH 31 33
ENDBRANCH 29 31
ENDBRANCH 22 27
ENDBRANCH 20 22
ENDBRANCH 1 18
TORSDOF 12
ENDMDL
MODEL 4
USER: ADFR SOLUTION from run 16
USER: SCORE 13.852576 LL:  -0.898 LR: -14.071 RR:   0.000 FEB: -10.492
USER: RMSD 2.848575
USER: SEED 638305
USER: STATUS no improvement in best in 11 clusters for 5 generations
USER: GENES 14
USER: genes 0 Translation |==|  0.41244 0.55248 0.48827
USER: genes 1 Rotation |==|  0.48560 0.47051 0.77125 0.91875
USER: genes 2 Torsion [CB]-CA--N-[H1] |==|  0.78662
USER: genes 3 Torsion [N]-CA--CB-[CG] |==|  0.15065
USER: genes 4 Torsion [CA]-CB--CG-[CD] |==|  0.71629
USER: genes 5 Torsion [CB]-CG--CD-[NE] |==|  0.28426
USER: genes 6 Torsion [CG]-CD--NE-[CZ] |==|  0.49862
USER: genes 7 Torsion [N]-CA--C-[N] |==|  0.27167
USER: genes 8 Torsion [C]-N--CA-[CB] |==|  0.19345
USER: genes 9 Torsion [N]-CA--CB-[CG2] |==|  0.07950
USER: genes 10 Torsion [CA]-CB--CG1-[CD1] |==|  0.70015
USER: genes 11 Torsion [N]-CA--C-[N] |==|  0.33209
USER: genes 12 Torsion [C]-N--CA-[CB] |==|  0.14242
USER: genes 13 Torsion [N]-CA--C-[O] |==|  0.03517
ROOT
ATOM      1  CA  ARG B   1      27.838  10.799  -8.994  1.00 59.17 LIG 0.27  C 
ENDROOT
BRANCH 1 2
ATOM      2  N   ARG B   1      26.526  10.853  -9.695  1.00 58.83 LIG-0.07  N 
ATOM      3 H3   ARG B   1      26.026  10.162  -9.443  1.00 58.83 LIG 0.28  HD
ATOM      4 H2   ARG B   1      26.658  10.818 -10.575  1.00 58.83 LIG 0.28  HD
ATOM      5 H1   ARG B   1      26.109  11.611  -9.488  1.00 58.83 LIG 0.28  HD
ENDBRANCH 1 2
BRANCH 1 6
ATOM      6  CB  ARG B   1      28.874  11.699  -9.681  1.00 59.00 LIG 0.04  C 
BRANCH 6 7
ATOM      7  CG  ARG B   1      28.457  13.158  -9.875  1.00 58.73 LIG 0.02  C 
BRANCH 7 8
ATOM      8  CD  ARG B   1      28.014  13.474 -11.306  1.00 57.79 LIG 0.14  C 
BRANCH 8 9
ATOM      9  NE  ARG B   1      26.555  13.544 -11.413  1.00 57.71 LIG-0.23  N 
ATOM     10  CZ  ARG B   1      25.886  13.811 -12.533  1.00 57.43 LIG 0.67  C 
ATOM     11  NH1 ARG B   1      26.526  14.045 -13.671  1.00 56.57 LIG-0.23  N 
ATOM     12  NH2 ARG B   1      24.558  13.841 -12.517  1.00 57.93 LIG-0.23  N 
ATOM     13 2HH1 ARG B   1      26.082  14.216 -14.387  1.00 56.57 LIG 0.17  HD
ATOM     14 1HH1 ARG B   1      27.386  14.026 -13.693  1.00 56.57 LIG 0.17  HD
ATOM     15 2HH2 ARG B   1      24.124  14.013 -13.239  1.00 57.93 LIG 0.17  HD
ATOM     16 1HH2 ARG B   1      24.134  13.688 -11.785  1.00 57.93 LIG 0.17  HD
ATOM     17 HE   ARG B   1      26.096  13.402 -10.699  1.00 57.71 LIG 0.18  HD
ENDBRANCH 8 9
ENDBRANCH 7 8
ENDBRANCH 6 7
ENDBRANCH 1 6
BRANCH 1 18
ATOM     18  C   ARG B   1      27.681  11.219  -7.546  1.00 59.69 LIG 0.25  C 
ATOM     19 O    ARG B   1      27.651  12.409  -7.243  1.00 59.48 LIG-0.27  OA
ATOM     20  N   ILE B   2      27.571  10.237  -6.657  1.00 60.56 LIG-0.35  N 
ATOM     21 H    ILE B   2      27.520   9.403  -6.862  1.00 60.56 LIG 0.16  HD
BRANCH 20 22
ATOM     22  CA  ILE B   2      27.529  10.513  -5.226  1.00 61.73 LIG 0.18  C 
BRANCH 22 23
ATOM     23  CB  ILE B   2      26.201  11.214  -4.798  1.00 61.78 LIG 0.01  C 
ATOM     24  CG2 ILE B   2      25.026  10.841  -5.716  1.00 61.94 LIG 0.01  C 
BRANCH 23 25
ATOM     25  CG1 ILE B   2      25.888  10.934  -3.325  1.00 62.37 LIG 0.00  C 
ATOM     26  CD1 ILE B   2      24.722   9.977  -3.113  1.00 63.06 LIG 0.01  C 
ENDBRANCH 23 25
ENDBRANCH 22 23
BRANCH 22 27
ATOM     27  C   ILE B   2      27.789   9.220  -4.454  1.00 62.33 LIG 0.24  C 
ATOM     28 O    ILE B   2      27.051   8.239  -4.604  1.00 62.62 LIG-0.27  OA
ATOM     29  N   ALA B   3      28.856   9.218  -3.656  1.00 63.04 LIG-0.35  N 
ATOM     30 H    ALA B   3      29.349   9.908  -3.514  1.00 63.04 LIG 0.16  HD
BRANCH 29 31
ATOM     31  CA  ALA B   3      29.286   8.010  -2.941  1.00 63.50 LIG 0.16  C 
ATOM     32  CB  ALA B   3      29.407   6.828  -3.907  1.00 63.68 LIG 0.04  C 
BRANCH 31 33
ATOM     33  C   ALA B   3      30.587   8.214  -2.170  1.00 63.68 LIG 0.22  C 
ATOM     34 O    ALA B   3      31.050   9.341  -1.989  1.00 63.94 LIG-0.29  OA
ENDBRANCH 31 33
ENDBRANCH 29 31
ENDBRANCH 22 27
ENDBRANCH 20 22
ENDBRANCH 1 18
TORSDOF 12
ENDMDL
MODEL 5
USER: ADFR SOLUTION from run 140
USER: SCORE 13.924829 LL:  -1.215 LR: -13.989 RR:   0.000 FEB: -10.410
USER: RMSD 2.970214
USER: SEED 139
USER: STATUS no improvement in best in 10 clusters for 5 generations
USER: GENES 14
USER: genes 0 Translation |==|  0.32883 0.55869 0.53176
USER: genes 1 Rotation |==|  0.45997 0.50979 0.54158 0.99656
USER: genes 2 Torsion [CB]-CA--N-[H1] |==|  0.38976
USER: genes 3 Torsion [N]-CA--CB-[CG] |==|  0.94667
USER: genes 4 Torsion [CA]-CB--CG-[CD] |==|  0.78811
USER: genes 5 Torsion [CB]-CG--CD-[NE] |==|  0.80079
USER: genes 6 Torsion [CG]-CD--NE-[CZ] |==|  0.63323
USER: genes 7 Torsion [N]-CA--C-[N] |==|  0.33875
USER: genes 8 Torsion [C]-N--CA-[CB] |==|  0.35242
USER: genes 9 Torsion [N]-CA--CB-[CG2] |==|  0.18463
USER: genes 10 Torsion [CA]-CB--CG1-[CD1] |==|  0.73180
USER: genes 11 Torsion [N]-CA--C-[N] |==|  0.90488
USER: genes 12 Torsion [C]-N--CA-[CB] |==|  0.14055
USER: genes 13 Torsion [N]-CA--C-[O] |==|  0.93937
ROOT
ATOM      1  CA  ARG B   1      26.583  10.883  -8.048  1.00 59.17 LIG 0.27  C 
ENDROOT
BRANCH 1 2
ATOM      2  N   ARG B   1      25.832  11.966  -8.739  1.00 58.83 LIG-0.07  N 
ATOM      3 H3   ARG B   1      26.048  11.974  -9.602  1.00 58.83 LIG 0.28  HD
ATOM      4 H2   ARG B   1      26.039  12.751  -8.374  1.00 58.83 LIG 0.28  HD
ATOM      5 H1   ARG B   1      24.958  11.822  -8.655  1.00 58.83 LIG 0.28  HD
ENDBRANCH 1 2
BRANCH 1 6
ATOM      6  CB  ARG B   1      27.821  10.462  -8.852  1.00 59.00 LIG 0.04  C 
BRANCH 6 7
ATOM      7  CG  ARG B   1      27.808  10.849 -10.333  1.00 58.73 LIG 0.02  C 
BRANCH 7 8
ATOM      8  CD  ARG B   1      26.901   9.955 -11.182  1.00 57.79 LIG 0.14  C 
BRANCH 8 9
ATOM      9  NE  ARG B   1      27.472   8.616 -11.348  1.00 57.71 LIG-0.23  N 
ATOM     10  CZ  ARG B   1      27.574   7.970 -12.509  1.00 57.43 LIG 0.67  C 
ATOM     11  NH1 ARG B   1      27.143   8.522 -13.636  1.00 56.57 LIG-0.23  N 
ATOM     12  NH2 ARG B   1      28.118   6.760 -12.545  1.00 57.93 LIG-0.23  N 
ATOM     13 2HH1 ARG B   1      27.216   8.095 -14.379  1.00 56.57 LIG 0.17  HD
ATOM     14 1HH1 ARG B   1      26.792   9.307 -13.624  1.00 56.57 LIG 0.17  HD
ATOM     15 2HH2 ARG B   1      28.186   6.341 -13.293  1.00 57.93 LIG 0.17  HD
ATOM     16 1HH2 ARG B   1      28.403   6.395 -11.820  1.00 57.93 LIG 0.17  HD
ATOM     17 HE   ARG B   1      27.762   8.216 -10.644  1.00 57.71 LIG 0.18  HD
ENDBRANCH 8 9
ENDBRANCH 7 8
ENDBRANCH 6 7
ENDBRANCH 1 6
BRANCH 1 18
ATOM     18  C   ARG B   1      27.006  11.333  -6.663  1.00 59.69 LIG 0.25  C 
ATOM     19 O    ARG B   1      27.697  12.338  -6.520  1.00 59.48 LIG-0.27  OA
ATOM     20  N   ILE B   2      26.579  10.591  -5.647  1.00 60.56 LIG-0.35  N 
ATOM     21 H    ILE B   2      26.038   9.927  -5.728  1.00 60.56 LIG 0.16  HD
BRANCH 20 22
ATOM     22  CA  ILE B   2      27.011  10.858  -4.281  1.00 61.73 LIG 0.18  C 
BRANCH 22 23
ATOM     23  CB  ILE B   2      25.807  11.017  -3.300  1.00 61.78 LIG 0.01  C 
ATOM     24  CG2 ILE B   2      25.026   9.706  -3.123  1.00 61.94 LIG 0.01  C 
BRANCH 23 25
ATOM     25  CG1 ILE B   2      26.272  11.591  -1.958  1.00 62.37 LIG 0.00  C 
ATOM     26  CD1 ILE B   2      26.526  10.535  -0.889  1.00 63.06 LIG 0.01  C 
ENDBRANCH 23 25
ENDBRANCH 22 23
BRANCH 22 27
ATOM     27  C   ILE B   2      27.993   9.773  -3.840  1.00 62.33 LIG 0.24  C 
ATOM     28 O    ILE B   2      28.914  10.040  -3.059  1.00 62.62 LIG-0.27  OA
ATOM     29  N   ALA B   3      27.771   8.550  -4.318  1.00 63.04 LIG-0.35  N 
ATOM     30 H    ALA B   3      27.159   8.365  -4.894  1.00 63.04 LIG 0.16  HD
BRANCH 29 31
ATOM     31  CA  ALA B   3      28.568   7.394  -3.892  1.00 63.50 LIG 0.16  C 
ATOM     32  CB  ALA B   3      28.630   7.318  -2.364  1.00 63.68 LIG 0.04  C 
BRANCH 31 33
ATOM     33  C   ALA B   3      28.061   6.079  -4.478  1.00 63.68 LIG 0.22  C 
ATOM     34 O    ALA B   3      26.901   5.966  -4.877  1.00 63.94 LIG-0.29  OA
ENDBRANCH 31 33
ENDBRANCH 29 31
ENDBRANCH 22 27
ENDBRANCH 20 22
ENDBRANCH 1 18
TORSDOF 12
ENDMDL
MODEL 6
USER: ADFR SOLUTION from run 179
USER: SCORE 13.463113 LL:  -1.249 LR: -13.919 RR:   0.000 FEB: -10.339
USER: RMSD 1.480512
USER: SEED 178
USER: STATUS no improvement in best in 14 clusters for 5 generations
USER: GENES 14
USER: genes 0 Translation |==|  0.33419 0.55565 0.51857
USER: genes 1 Rotation |==|  0.51692 0.51352 0.56836 0.99483
USER: genes 2 Torsion [CB]-CA--N-[H1] |==|  0.75979
USER: genes 3 Torsion [N]-CA--CB-[CG] |==|  0.86647
USER: genes 4 Torsion [CA]-CB--CG-[CD] |==|  0.84124
USER: genes 5 Torsion [CB]-CG--CD-[NE] |==|  0.76942
USER: genes 6 Torsion [CG]-CD--NE-[CZ] |==|  0.68943
USER: genes 7 Torsion [N]-CA--C-[N] |==|  0.35995
USER: genes 8 Torsion [C]-N--CA-[CB] |==|  0.40273
USER: genes 9 Torsion [N]-CA--CB-[CG2] |==|  0.41060
USER: genes 10 Torsion [CA]-CB--CG1-[CD1] |==|  0.75499
USER: genes 11 Torsion [N]-CA--C-[N] |==|  0.28673
USER: genes 12 Torsion [C]-N--CA-[CB] |==|  0.40252
USER: genes 13 Torsion [N]-CA--C-[O] |==|  0.00162
ROOT
ATOM      1  CA  ARG B   1      26.664  10.842  -8.335  1.00 59.17 LIG 0.27  C 
ENDROOT
BRANCH 1 2
ATOM      2  N   ARG B   1      25.776  11.966  -8.739  1.00 58.83 LIG-0.07  N 
ATOM      3 H3   ARG B   1      24.941  11.792  -8.486  1.00 58.83 LIG 0.28  HD
ATOM      4 H2   ARG B   1      25.804  12.063  -9.623  1.00 58.83 LIG 0.28  HD
ATOM      5 H1   ARG B   1      26.052  12.717  -8.350  1.00 58.83 LIG 0.28  HD
ENDBRANCH 1 2
BRANCH 1 6
ATOM      6  CB  ARG B   1      27.891  10.743  -9.252  1.00 59.00 LIG 0.04  C 
BRANCH 6 7
ATOM      7  CG  ARG B   1      27.599  10.794 -10.753  1.00 58.73 LIG 0.02  C 
BRANCH 7 8
ATOM      8  CD  ARG B   1      26.630   9.704 -11.215  1.00 57.79 LIG 0.14  C 
BRANCH 8 9
ATOM      9  NE  ARG B   1      27.323   8.435 -11.453  1.00 57.71 LIG-0.23  N 
ATOM     10  CZ  ARG B   1      27.491   7.871 -12.648  1.00 57.43 LIG 0.67  C 
ATOM     11  NH1 ARG B   1      27.016   8.445 -13.746  1.00 56.57 LIG-0.23  N 
ATOM     12  NH2 ARG B   1      28.145   6.720 -12.748  1.00 57.93 LIG-0.23  N 
ATOM     13 2HH1 ARG B   1      27.132   8.070 -14.511  1.00 56.57 LIG 0.17  HD
ATOM     14 1HH1 ARG B   1      26.594   9.192 -13.693  1.00 56.57 LIG 0.17  HD
ATOM     15 2HH2 ARG B   1      28.255   6.353 -13.518  1.00 57.93 LIG 0.17  HD
ATOM     16 1HH2 ARG B   1      28.458   6.341 -12.042  1.00 57.93 LIG 0.17  HD
ATOM     17 HE   ARG B   1      27.645   8.023 -10.770  1.00 57.71 LIG 0.18  HD
ENDBRANCH 8 9
ENDBRANCH 7 8
ENDBRANCH 6 7
ENDBRANCH 1 6
BRANCH 1 18
ATOM     18  C   ARG B   1      27.115  11.014  -6.898  1.00 59.69 LIG 0.25  C 
ATOM     19 O    ARG B   1      27.587  12.083  -6.518  1.00 59.48 LIG-0.27  OA
ATOM     20  N   ILE B   2      26.958   9.963  -6.101  1.00 60.56 LIG-0.35  N 
ATOM     21 H    ILE B   2      26.565   9.234  -6.335  1.00 60.56 LIG 0.16  HD
BRANCH 20 22
ATOM     22  CA  ILE B   2      27.456   9.970  -4.731  1.00 61.73 LIG 0.18  C 
BRANCH 22 23
ATOM     23  CB  ILE B   2      26.523   9.180  -3.759  1.00 61.78 LIG 0.01  C 
ATOM     24  CG2 ILE B   2      27.308   8.508  -2.621  1.00 61.94 LIG 0.01  C 
BRANCH 23 25
ATOM     25  CG1 ILE B   2      25.403  10.081  -3.229  1.00 62.37 LIG 0.00  C 
ATOM     26  CD1 ILE B   2      25.774  10.846  -1.965  1.00 63.06 LIG 0.01  C 
ENDBRANCH 23 25
ENDBRANCH 22 23
BRANCH 22 27
ATOM     27  C   ILE B   2      28.896   9.460  -4.714  1.00 62.33 LIG 0.24  C 
ATOM     28 O    ILE B   2      29.136   8.254  -4.846  1.00 62.62 LIG-0.27  OA
ATOM     29  N   ALA B   3      29.845  10.385  -4.582  1.00 63.04 LIG-0.35  N 
ATOM     30 H    ALA B   3      29.685  11.219  -4.447  1.00 63.04 LIG 0.16  HD
BRANCH 29 31
ATOM     31  CA  ALA B   3      31.271  10.048  -4.658  1.00 63.50 LIG 0.16  C 
ATOM     32  CB  ALA B   3      32.056  11.182  -5.325  1.00 63.68 LIG 0.04  C 
BRANCH 31 33
ATOM     33  C   ALA B   3      31.870   9.706  -3.296  1.00 63.68 LIG 0.22  C 
ATOM     34 O    ALA B   3      31.179   9.716  -2.277  1.00 63.94 LIG-0.29  OA
ENDBRANCH 31 33
ENDBRANCH 29 31
ENDBRANCH 22 27
ENDBRANCH 20 22
ENDBRANCH 1 18
TORSDOF 12
ENDMDL
MODEL 7
USER: ADFR SOLUTION from run 66
USER: SCORE 14.005374 LL:  -1.227 LR: -13.832 RR:   0.000 FEB: -10.252
USER: RMSD 2.221354
USER: SEED 65
USER: STATUS no improvement in best in 9 clusters for 5 generations
USER: GENES 14
USER: genes 0 Translation |==|  0.42071 0.49325 0.43503
USER: genes 1 Rotation |==|  0.51000 0.58547 0.77887 0.90599
USER: genes 2 Torsion [CB]-CA--N-[H1] |==|  0.88048
USER: genes 3 Torsion [N]-CA--CB-[CG] |==|  0.01538
USER: genes 4 Torsion [CA]-CB--CG-[CD] |==|  0.68448
USER: genes 5 Torsion [CB]-CG--CD-[NE] |==|  0.56258
USER: genes 6 Torsion [CG]-CD--NE-[CZ] |==|  0.44722
USER: genes 7 Torsion [N]-CA--C-[N] |==|  0.08643
USER: genes 8 Torsion [C]-N--CA-[CB] |==|  0.45707
USER: genes 9 Torsion [N]-CA--CB-[CG2] |==|  0.99923
USER: genes 10 Torsion [CA]-CB--CG1-[CD1] |==|  0.39815
USER: genes 11 Torsion [N]-CA--C-[N] |==|  0.40239
USER: genes 12 Torsion [C]-N--CA-[CB] |==|  0.40769
USER: genes 13 Torsion [N]-CA--C-[O] |==|  0.96664
ROOT
ATOM      1  CA  ARG B   1      27.962  10.000 -10.152  1.00 59.17 LIG 0.27  C 
ENDROOT
BRANCH 1 2
ATOM      2  N   ARG B   1      26.477   9.920 -10.223  1.00 58.83 LIG-0.07  N 
ATOM      3 H3   ARG B   1      26.153   9.697  -9.426  1.00 58.83 LIG 0.28  HD
ATOM      4 H2   ARG B   1      26.242   9.304 -10.822  1.00 58.83 LIG 0.28  HD
ATOM      5 H1   ARG B   1      26.148  10.710 -10.466  1.00 58.83 LIG 0.28  HD
ENDBRANCH 1 2
BRANCH 1 6
ATOM      6  CB  ARG B   1      28.537  10.771 -11.347  1.00 59.00 LIG 0.04  C 
BRANCH 6 7
ATOM      7  CG  ARG B   1      27.504  11.407 -12.281  1.00 58.73 LIG 0.02  C 
BRANCH 7 8
ATOM      8  CD  ARG B   1      27.489  10.782 -13.678  1.00 57.79 LIG 0.14  C 
BRANCH 8 9
ATOM      9  NE  ARG B   1      26.921  11.699 -14.670  1.00 57.71 LIG-0.23  N 
ATOM     10  CZ  ARG B   1      27.096  11.600 -15.986  1.00 57.43 LIG 0.67  C 
ATOM     11  NH1 ARG B   1      27.831  10.624 -16.505  1.00 56.57 LIG-0.23  N 
ATOM     12  NH2 ARG B   1      26.526  12.484 -16.796  1.00 57.93 LIG-0.23  N 
ATOM     13 2HH1 ARG B   1      27.936  10.572 -17.357  1.00 56.57 LIG 0.17  HD
ATOM     14 1HH1 ARG B   1      28.203  10.045 -15.990  1.00 56.57 LIG 0.17  HD
ATOM     15 2HH2 ARG B   1      26.637  12.422 -17.646  1.00 57.93 LIG 0.17  HD
ATOM     16 1HH2 ARG B   1      26.045  13.118 -16.470  1.00 57.93 LIG 0.17  HD
ATOM     17 HE   ARG B   1      26.439  12.350 -14.380  1.00 57.71 LIG 0.18  HD
ENDBRANCH 8 9
ENDBRANCH 7 8
ENDBRANCH 6 7
ENDBRANCH 1 6
BRANCH 1 18
ATOM     18  C   ARG B   1      28.394  10.667  -8.861  1.00 59.69 LIG 0.25  C 
ATOM     19 O    ARG B   1      29.421  11.340  -8.822  1.00 59.48 LIG-0.27  OA
ATOM     20  N   ILE B   2      27.601  10.485  -7.810  1.00 60.56 LIG-0.35  N 
ATOM     21 H    ILE B   2      26.845  10.076  -7.841  1.00 60.56 LIG 0.16  HD
BRANCH 20 22
ATOM     22  CA  ILE B   2      27.968  10.982  -6.490  1.00 61.73 LIG 0.18  C 
BRANCH 22 23
ATOM     23  CB  ILE B   2      26.755  11.006  -5.508  1.00 61.78 LIG 0.01  C 
ATOM     24  CG2 ILE B   2      25.462  10.506  -6.172  1.00 61.94 LIG 0.01  C 
BRANCH 23 25
ATOM     25  CG1 ILE B   2      27.077  10.230  -4.227  1.00 62.37 LIG 0.00  C 
ATOM     26  CD1 ILE B   2      26.483  10.846  -2.966  1.00 63.06 LIG 0.01  C 
ENDBRANCH 23 25
ENDBRANCH 22 23
BRANCH 22 27
ATOM     27  C   ILE B   2      29.146  10.170  -5.953  1.00 62.33 LIG 0.24  C 
ATOM     28 O    ILE B   2      29.258   8.969  -6.228  1.00 62.62 LIG-0.27  OA
ATOM     29  N   ALA B   3      30.034  10.838  -5.218  1.00 63.04 LIG-0.35  N 
ATOM     30 H    ALA B   3      29.942  11.662  -4.988  1.00 63.04 LIG 0.16  HD
BRANCH 29 31
ATOM     31  CA  ALA B   3      31.267  10.209  -4.732  1.00 63.50 LIG 0.16  C 
ATOM     32  CB  ALA B   3      32.406  11.232  -4.676  1.00 63.68 LIG 0.04  C 
BRANCH 31 33
ATOM     33  C   ALA B   3      31.087   9.527  -3.378  1.00 63.68 LIG 0.22  C 
ATOM     34 O    ALA B   3      30.076   9.716  -2.700  1.00 63.94 LIG-0.29  OA
ENDBRANCH 31 33
ENDBRANCH 29 31
ENDBRANCH 22 27
ENDBRANCH 20 22
ENDBRANCH 1 18
TORSDOF 12
ENDMDL
MODEL 8
USER: ADFR SOLUTION from run 124
USER: SCORE 13.484852 LL:  -0.700 LR: -13.781 RR:   0.000 FEB: -10.201
USER: RMSD 3.134430
USER: SEED 123
USER: STATUS no improvement in best in 10 clusters for 5 generations
USER: GENES 14
USER: genes 0 Translation |==|  0.37252 0.57273 0.53542
USER: genes 1 Rotation |==|  0.59860 0.45357 0.78000 0.89965
USER: genes 2 Torsion [CB]-CA--N-[H1] |==|  0.11955
USER: genes 3 Torsion [N]-CA--CB-[CG] |==|  0.89477
USER: genes 4 Torsion [CA]-CB--CG-[CD] |==|  0.80197
USER: genes 5 Torsion [CB]-CG--CD-[NE] |==|  0.19911
USER: genes 6 Torsion [CG]-CD--NE-[CZ] |==|  0.67560
USER: genes 7 Torsion [N]-CA--C-[N] |==|  0.21976
USER: genes 8 Torsion [C]-N--CA-[CB] |==|  0.21524
USER: genes 9 Torsion [N]-CA--CB-[CG2] |==|  0.37279
USER: genes 10 Torsion [CA]-CB--CG1-[CD1] |==|  0.64303
USER: genes 11 Torsion [N]-CA--C-[N] |==|  0.38907
USER: genes 12 Torsion [C]-N--CA-[CB] |==|  0.27013
USER: genes 13 Torsion [N]-CA--C-[O] |==|  0.36419
ROOT
ATOM      1  CA  ARG B   1      27.239  11.073  -7.969  1.00 59.17 LIG 0.27  C 
ENDROOT
BRANCH 1 2
ATOM      2  N   ARG B   1      25.812  11.219  -8.367  1.00 58.83 LIG-0.07  N 
ATOM      3 H3   ARG B   1      25.401  11.771  -7.803  1.00 58.83 LIG 0.28  HD
ATOM      4 H2   ARG B   1      25.415  10.423  -8.345  1.00 58.83 LIG 0.28  HD
ATOM      5 H1   ARG B   1      25.767  11.550  -9.191  1.00 58.83 LIG 0.28  HD
ENDBRANCH 1 2
BRANCH 1 6
ATOM      6  CB  ARG B   1      28.062  12.300  -8.383  1.00 59.00 LIG 0.04  C 
BRANCH 6 7
ATOM      7  CG  ARG B   1      27.694  12.915  -9.735  1.00 58.73 LIG 0.02  C 
BRANCH 7 8
ATOM      8  CD  ARG B   1      28.110  12.049 -10.926  1.00 57.79 LIG 0.14  C 
BRANCH 8 9
ATOM      9  NE  ARG B   1      27.274  10.851 -11.036  1.00 57.71 LIG-0.23  N 
ATOM     10  CZ  ARG B   1      27.716   9.600 -10.919  1.00 57.43 LIG 0.67  C 
ATOM     11  NH1 ARG B   1      28.998   9.348 -10.688  1.00 56.57 LIG-0.23  N 
ATOM     12  NH2 ARG B   1      26.865   8.587 -11.029  1.00 57.93 LIG-0.23  N 
ATOM     13 2HH1 ARG B   1      29.270   8.536 -10.614  1.00 56.57 LIG 0.17  HD
ATOM     14 1HH1 ARG B   1      29.557   9.998 -10.612  1.00 56.57 LIG 0.17  HD
ATOM     15 2HH2 ARG B   1      27.147   7.778 -10.953  1.00 57.93 LIG 0.17  HD
ATOM     16 1HH2 ARG B   1      26.031   8.739 -11.175  1.00 57.93 LIG 0.17  HD
ATOM     17 HE   ARG B   1      26.435  10.964 -11.189  1.00 57.71 LIG 0.18  HD
ENDBRANCH 8 9
ENDBRANCH 7 8
ENDBRANCH 6 7
ENDBRANCH 1 6
BRANCH 1 18
ATOM     18  C   ARG B   1      27.351  10.868  -6.470  1.00 59.69 LIG 0.25  C 
ATOM     19 O    ARG B   1      27.654  11.804  -5.736  1.00 59.48 LIG-0.27  OA
ATOM     20  N   ILE B   2      27.096   9.643  -6.023  1.00 60.56 LIG-0.35  N 
ATOM     21 H    ILE B   2      26.814   8.997  -6.517  1.00 60.56 LIG 0.16  HD
BRANCH 20 22
ATOM     22  CA  ILE B   2      27.279   9.296  -4.619  1.00 61.73 LIG 0.18  C 
BRANCH 22 23
ATOM     23  CB  ILE B   2      26.116   9.824  -3.722  1.00 61.78 LIG 0.01  C 
ATOM     24  CG2 ILE B   2      25.612   8.757  -2.738  1.00 61.94 LIG 0.01  C 
BRANCH 23 25
ATOM     25  CG1 ILE B   2      26.524  11.115  -3.006  1.00 62.37 LIG 0.00  C 
ATOM     26  CD1 ILE B   2      26.290  11.087  -1.501  1.00 63.06 LIG 0.01  C 
ENDBRANCH 23 25
ENDBRANCH 22 23
BRANCH 22 27
ATOM     27  C   ILE B   2      27.484   7.788  -4.493  1.00 62.33 LIG 0.24  C 
ATOM     28 O    ILE B   2      26.843   7.005  -5.205  1.00 62.62 LIG-0.27  OA
ATOM     29  N   ALA B   3      28.400   7.391  -3.611  1.00 63.04 LIG-0.35  N 
ATOM     30 H    ALA B   3      28.820   7.925  -3.083  1.00 63.04 LIG 0.16  HD
BRANCH 29 31
ATOM     31  CA  ALA B   3      28.776   5.980  -3.466  1.00 63.50 LIG 0.16  C 
ATOM     32  CB  ALA B   3      30.049   5.678  -4.262  1.00 63.68 LIG 0.04  C 
BRANCH 31 33
ATOM     33  C   ALA B   3      28.940   5.560  -2.007  1.00 63.68 LIG 0.22  C 
ATOM     34 O    ALA B   3      28.401   4.540  -1.574  1.00 63.94 LIG-0.29  OA
ENDBRANCH 31 33
ENDBRANCH 29 31
ENDBRANCH 22 27
ENDBRANCH 20 22
ENDBRANCH 1 18
TORSDOF 12
ENDMDL
MODEL 9
USER: ADFR SOLUTION from run 187
USER: SCORE 13.869740 LL:  -0.857 LR: -13.403 RR:   0.000 FEB:  -9.824
USER: RMSD 2.601357
USER: SEED 186
USER: STATUS no improvement in best in 14 clusters for 5 generations
USER: GENES 14
USER: genes 0 Translation |==|  0.33973 0.54523 0.58042
USER: genes 1 Rotation |==|  0.53338 0.46014 0.82078 0.88000
USER: genes 2 Torsion [CB]-CA--N-[H1] |==|  0.80315
USER: genes 3 Torsion [N]-CA--CB-[CG] |==|  0.94899
USER: genes 4 Torsion [CA]-CB--CG-[CD] |==|  0.74279
USER: genes 5 Torsion [CB]-CG--CD-[NE] |==|  0.25349
USER: genes 6 Torsion [CG]-CD--NE-[CZ] |==|  0.65257
USER: genes 7 Torsion [N]-CA--C-[N] |==|  0.37943
USER: genes 8 Torsion [C]-N--CA-[CB] |==|  0.14984
USER: genes 9 Torsion [N]-CA--CB-[CG2] |==|  0.18405
USER: genes 10 Torsion [CA]-CB--CG1-[CD1] |==|  0.19539
USER: genes 11 Torsion [N]-CA--C-[N] |==|  0.17778
USER: genes 12 Torsion [C]-N--CA-[CB] |==|  0.28292
USER: genes 13 Torsion [N]-CA--C-[O] |==|  0.02168
ROOT
ATOM      1  CA  ARG B   1      26.747  10.702  -6.990  1.00 59.17 LIG 0.27  C 
ENDROOT
BRANCH 1 2
ATOM      2  N   ARG B   1      25.409  10.515  -7.614  1.00 58.83 LIG-0.07  N 
ATOM      3 H3   ARG B   1      25.086   9.716  -7.392  1.00 58.83 LIG 0.28  HD
ATOM      4 H2   ARG B   1      25.484  10.567  -8.499  1.00 58.83 LIG 0.28  HD
ATOM      5 H1   ARG B   1      24.855  11.148  -7.325  1.00 58.83 LIG 0.28  HD
ENDBRANCH 1 2
BRANCH 1 6
ATOM      6  CB  ARG B   1      27.458  11.939  -7.555  1.00 59.00 LIG 0.04  C 
BRANCH 6 7
ATOM      7  CG  ARG B   1      26.915  12.461  -8.887  1.00 58.73 LIG 0.02  C 
BRANCH 7 8
ATOM      8  CD  ARG B   1      27.642  11.881 -10.103  1.00 57.79 LIG 0.14  C 
BRANCH 8 9
ATOM      9  NE  ARG B   1      26.989  10.663 -10.588  1.00 57.71 LIG-0.23  N 
ATOM     10  CZ  ARG B   1      27.595   9.488 -10.753  1.00 57.43 LIG 0.67  C 
ATOM     11  NH1 ARG B   1      28.885   9.341 -10.479  1.00 56.57 LIG-0.23  N 
ATOM     12  NH2 ARG B   1      26.901   8.444 -11.192  1.00 57.93 LIG-0.23  N 
ATOM     13 2HH1 ARG B   1      29.263   8.577 -10.590  1.00 56.57 LIG 0.17  HD
ATOM     14 1HH1 ARG B   1      29.342  10.010 -10.192  1.00 56.57 LIG 0.17  HD
ATOM     15 2HH2 ARG B   1      27.289   7.685 -11.299  1.00 57.93 LIG 0.17  HD
ATOM     16 1HH2 ARG B   1      26.064   8.528 -11.369  1.00 57.93 LIG 0.17  HD
ATOM     17 HE   ARG B   1      26.152  10.710 -10.781  1.00 57.71 LIG 0.18  HD
ENDBRANCH 8 9
ENDBRANCH 7 8
ENDBRANCH 6 7
ENDBRANCH 1 6
BRANCH 1 18
ATOM     18  C   ARG B   1      26.615  10.834  -5.485  1.00 59.69 LIG 0.25  C 
ATOM     19 O    ARG B   1      25.723  11.523  -4.998  1.00 59.48 LIG-0.27  OA
ATOM     20  N   ILE B   2      27.499  10.162  -4.755  1.00 60.56 LIG-0.35  N 
ATOM     21 H    ILE B   2      28.083   9.621  -5.081  1.00 60.56 LIG 0.16  HD
BRANCH 20 22
ATOM     22  CA  ILE B   2      27.543  10.299  -3.305  1.00 61.73 LIG 0.18  C 
BRANCH 22 23
ATOM     23  CB  ILE B   2      26.156  10.024  -2.642  1.00 61.78 LIG 0.01  C 
ATOM     24  CG2 ILE B   2      25.717   8.561  -2.803  1.00 61.94 LIG 0.01  C 
BRANCH 23 25
ATOM     25  CG1 ILE B   2      26.159  10.463  -1.175  1.00 62.37 LIG 0.00  C 
ATOM     26  CD1 ILE B   2      26.198  11.974  -0.982  1.00 63.06 LIG 0.01  C 
ENDBRANCH 23 25
ENDBRANCH 22 23
BRANCH 22 27
ATOM     27  C   ILE B   2      28.652   9.408  -2.746  1.00 62.33 LIG 0.24  C 
ATOM     28 O    ILE B   2      28.377   8.446  -2.019  1.00 62.62 LIG-0.27  OA
ATOM     29  N   ALA B   3      29.894   9.716  -3.115  1.00 63.04 LIG-0.35  N 
ATOM     30 H    ALA B   3      30.097  10.407  -3.584  1.00 63.04 LIG 0.16  HD
BRANCH 29 31
ATOM     31  CA  ALA B   3      31.042   8.882  -2.741  1.00 63.50 LIG 0.16  C 
ATOM     32  CB  ALA B   3      31.480   8.011  -3.922  1.00 63.68 LIG 0.04  C 
BRANCH 31 33
ATOM     33  C   ALA B   3      32.217   9.699  -2.208  1.00 63.68 LIG 0.22  C 
ATOM     34 O    ALA B   3      32.104  10.906  -1.989  1.00 63.94 LIG-0.29  OA
ENDBRANCH 31 33
ENDBRANCH 29 31
ENDBRANCH 22 27
ENDBRANCH 20 22
ENDBRANCH 1 18
TORSDOF 12
ENDMDL
MODEL 10
USER: ADFR SOLUTION from run 72
USER: SCORE 13.334162 LL:  -1.049 LR: -13.366 RR:   0.000 FEB:  -9.787
USER: RMSD 2.540948
USER: SEED 71
USER: STATUS no improvement in best in 11 clusters for 5 generations
USER: GENES 14
USER: genes 0 Translation |==|  0.41118 0.54323 0.48756
USER: genes 1 Rotation |==|  0.47556 0.47384 0.74923 0.93198
USER: genes 2 Torsion [CB]-CA--N-[H1] |==|  0.77142
USER: genes 3 Torsion [N]-CA--CB-[CG] |==|  0.80708
USER: genes 4 Torsion [CA]-CB--CG-[CD] |==|  0.88332
USER: genes 5 Torsion [CB]-CG--CD-[NE] |==|  0.37413
USER: genes 6 Torsion [CG]-CD--NE-[CZ] |==|  0.44972
USER: genes 7 Torsion [N]-CA--C-[N] |==|  0.27880
USER: genes 8 Torsion [C]-N--CA-[CB] |==|  0.22992
USER: genes 9 Torsion [N]-CA--CB-[CG2] |==|  0.02818
USER: genes 10 Torsion [CA]-CB--CG1-[CD1] |==|  0.25279
USER: genes 11 Torsion [N]-CA--C-[N] |==|  0.33010
USER: genes 12 Torsion [C]-N--CA-[CB] |==|  0.15080
USER: genes 13 Torsion [N]-CA--C-[O] |==|  0.99847
ROOT
ATOM      1  CA  ARG B   1      27.819  10.675  -9.009  1.00 59.17 LIG 0.27  C 
ENDROOT
BRANCH 1 2
ATOM      2  N   ARG B   1      26.526  10.841  -9.727  1.00 58.83 LIG-0.07  N 
ATOM      3 H3   ARG B   1      25.981  10.170  -9.518  1.00 58.83 LIG 0.28  HD
ATOM      4 H2   ARG B   1      26.671  10.841 -10.605  1.00 58.83 LIG 0.28  HD
ATOM      5 H1   ARG B   1      26.151  11.612  -9.489  1.00 58.83 LIG 0.28  HD
ENDBRANCH 1 2
BRANCH 1 6
ATOM      6  CB  ARG B   1      28.950  11.436  -9.714  1.00 59.00 LIG 0.04  C 
BRANCH 6 7
ATOM      7  CG  ARG B   1      29.384  10.868 -11.067  1.00 58.73 LIG 0.02  C 
BRANCH 7 8
ATOM      8  CD  ARG B   1      29.478   9.341 -11.078  1.00 57.79 LIG 0.14  C 
BRANCH 8 9
ATOM      9  NE  ARG B   1      28.854   8.773 -12.276  1.00 57.71 LIG-0.23  N 
ATOM     10  CZ  ARG B   1      29.069   7.542 -12.736  1.00 57.43 LIG 0.67  C 
ATOM     11  NH1 ARG B   1      29.901   6.717 -12.114  1.00 56.57 LIG-0.23  N 
ATOM     12  NH2 ARG B   1      28.440   7.127 -13.830  1.00 57.93 LIG-0.23  N 
ATOM     13 2HH1 ARG B   1      30.031   5.924 -12.422  1.00 56.57 LIG 0.17  HD
ATOM     14 1HH1 ARG B   1      30.311   6.974 -11.403  1.00 56.57 LIG 0.17  HD
ATOM     15 2HH2 ARG B   1      28.577   6.333 -14.129  1.00 57.93 LIG 0.17  HD
ATOM     16 1HH2 ARG B   1      27.896   7.653 -14.238  1.00 57.93 LIG 0.17  HD
ATOM     17 HE   ARG B   1      28.308   9.273 -12.715  1.00 57.71 LIG 0.18  HD
ENDBRANCH 8 9
ENDBRANCH 7 8
ENDBRANCH 6 7
ENDBRANCH 1 6
BRANCH 1 18
ATOM     18  C   ARG B   1      27.695  11.158  -7.578  1.00 59.69 LIG 0.25  C 
ATOM     19 O    ARG B   1      27.741  12.358  -7.321  1.00 59.48 LIG-0.27  OA
ATOM     20  N   ILE B   2      27.528  10.220  -6.652  1.00 60.56 LIG-0.35  N 
ATOM     21 H    ILE B   2      27.424   9.383  -6.825  1.00 60.56 LIG 0.16  HD
BRANCH 20 22
ATOM     22  CA  ILE B   2      27.509  10.552  -5.233  1.00 61.73 LIG 0.18  C 
BRANCH 22 23
ATOM     23  CB  ILE B   2      26.108  11.052  -4.761  1.00 61.78 LIG 0.01  C 
ATOM     24  CG2 ILE B   2      25.026  10.841  -5.832  1.00 61.94 LIG 0.01  C 
BRANCH 23 25
ATOM     25  CG1 ILE B   2      25.723  10.409  -3.425  1.00 62.37 LIG 0.00  C 
ATOM     26  CD1 ILE B   2      26.152  11.216  -2.205  1.00 63.06 LIG 0.01  C 
ENDBRANCH 23 25
ENDBRANCH 22 23
BRANCH 22 27
ATOM     27  C   ILE B   2      28.012   9.355  -4.426  1.00 62.33 LIG 0.24  C 
ATOM     28 O    ILE B   2      27.428   8.267  -4.488  1.00 62.62 LIG-0.27  OA
ATOM     29  N   ALA B   3      29.110   9.556  -3.700  1.00 63.04 LIG-0.35  N 
ATOM     30 H    ALA B   3      29.497  10.319  -3.618  1.00 63.04 LIG 0.16  HD
BRANCH 29 31
ATOM     31  CA  ALA B   3      29.763   8.466  -2.964  1.00 63.50 LIG 0.16  C 
ATOM     32  CB  ALA B   3      30.079   7.299  -3.903  1.00 63.68 LIG 0.04  C 
BRANCH 31 33
ATOM     33  C   ALA B   3      31.020   8.922  -2.228  1.00 63.68 LIG 0.22  C 
ATOM     34 O    ALA B   3      31.404  10.091  -2.288  1.00 63.94 LIG-0.29  OA
ENDBRANCH 31 33
ENDBRANCH 29 31
ENDBRANCH 22 27
ENDBRANCH 20 22
ENDBRANCH 1 18
TORSDOF 12
ENDMDL
MODEL 11
USER: ADFR SOLUTION from run 172
USER: SCORE 13.850243 LL:  -0.716 LR: -13.174 RR:   0.000 FEB:  -9.595
USER: RMSD 3.698320
USER: SEED 171
USER: STATUS no improvement in best in 9 clusters for 5 generations
USER: GENES 14
USER: genes 0 Translation |==|  0.35964 0.56872 0.49696
USER: genes 1 Rotation |==|  0.53666 0.51205 0.56451 0.99432
USER: genes 2 Torsion [CB]-CA--N-[H1] |==|  0.31257
USER: genes 3 Torsion [N]-CA--CB-[CG] |==|  0.70113
USER: genes 4 Torsion [CA]-CB--CG-[CD] |==|  0.27522
USER: genes 5 Torsion [CB]-CG--CD-[NE] |==|  0.92244
USER: genes 6 Torsion [CG]-CD--NE-[CZ] |==|  0.48072
USER: genes 7 Torsion [N]-CA--C-[N] |==|  0.40923
USER: genes 8 Torsion [C]-N--CA-[CB] |==|  0.83312
USER: genes 9 Torsion [N]-CA--CB-[CG2] |==|  0.54706
USER: genes 10 Torsion [CA]-CB--CG1-[CD1] |==|  0.35006
USER: genes 11 Torsion [N]-CA--C-[N] |==|  0.41339
USER: genes 12 Torsion [C]-N--CA-[CB] |==|  0.17142
USER: genes 13 Torsion [N]-CA--C-[O] |==|  0.31176
ROOT
ATOM      1  CA  ARG B   1      27.046  11.019  -8.805  1.00 59.17 LIG 0.27  C 
ENDROOT
BRANCH 1 2
ATOM      2  N   ARG B   1      26.176  12.186  -9.114  1.00 58.83 LIG-0.07  N 
ATOM      3 H3   ARG B   1      26.579  12.707  -9.712  1.00 58.83 LIG 0.28  HD
ATOM      4 H2   ARG B   1      26.027  12.651  -8.370  1.00 58.83 LIG 0.28  HD
ATOM      5 H1   ARG B   1      25.401  11.900  -9.445  1.00 58.83 LIG 0.28  HD
ENDBRANCH 1 2
BRANCH 1 6
ATOM      6  CB  ARG B   1      28.266  10.971  -9.734  1.00 59.00 LIG 0.04  C 
BRANCH 6 7
ATOM      7  CG  ARG B   1      28.243   9.871 -10.798  1.00 58.73 LIG 0.02  C 
BRANCH 7 8
ATOM      8  CD  ARG B   1      27.795  10.371 -12.173  1.00 57.79 LIG 0.14  C 
BRANCH 8 9
ATOM      9  NE  ARG B   1      26.900  11.525 -12.058  1.00 57.71 LIG-0.23  N 
ATOM     10  CZ  ARG B   1      26.458  12.251 -13.084  1.00 57.43 LIG 0.67  C 
ATOM     11  NH1 ARG B   1      26.819  11.965 -14.328  1.00 56.57 LIG-0.23  N 
ATOM     12  NH2 ARG B   1      25.640  13.274 -12.864  1.00 57.93 LIG-0.23  N 
ATOM     13 2HH1 ARG B   1      26.526  12.442 -14.981  1.00 56.57 LIG 0.17  HD
ATOM     14 1HH1 ARG B   1      27.346  11.303 -14.481  1.00 56.57 LIG 0.17  HD
ATOM     15 2HH2 ARG B   1      25.353  13.744 -13.524  1.00 57.93 LIG 0.17  HD
ATOM     16 1HH2 ARG B   1      25.398  13.466 -12.062  1.00 57.93 LIG 0.17  HD
ATOM     17 HE   ARG B   1      26.640  11.751 -11.269  1.00 57.71 LIG 0.18  HD
ENDBRANCH 8 9
ENDBRANCH 7 8
ENDBRANCH 6 7
ENDBRANCH 1 6
BRANCH 1 18
ATOM     18  C   ARG B   1      27.507  11.070  -7.362  1.00 59.69 LIG 0.25  C 
ATOM     19 O    ARG B   1      27.692  12.149  -6.806  1.00 59.48 LIG-0.27  OA
ATOM     20  N   ILE B   2      27.680   9.899  -6.757  1.00 60.56 LIG-0.35  N 
ATOM     21 H    ILE B   2      27.487   9.139  -7.111  1.00 60.56 LIG 0.16  HD
BRANCH 20 22
ATOM     22  CA  ILE B   2      28.228   9.818  -5.409  1.00 61.73 LIG 0.18  C 
BRANCH 22 23
ATOM     23  CB  ILE B   2      29.661  10.430  -5.314  1.00 61.78 LIG 0.01  C 
ATOM     24  CG2 ILE B   2      30.398   9.986  -4.041  1.00 61.94 LIG 0.01  C 
BRANCH 23 25
ATOM     25  CG1 ILE B   2      30.468  10.122  -6.579  1.00 62.37 LIG 0.00  C 
ATOM     26  CD1 ILE B   2      31.058  11.356  -7.250  1.00 63.06 LIG 0.01  C 
ENDBRANCH 23 25
ENDBRANCH 22 23
BRANCH 22 27
ATOM     27  C   ILE B   2      27.247  10.455  -4.425  1.00 62.33 LIG 0.24  C 
ATOM     28 O    ILE B   2      26.502  11.374  -4.787  1.00 62.62 LIG-0.27  OA
ATOM     29  N   ALA B   3      27.230   9.941  -3.196  1.00 63.04 LIG-0.35  N 
ATOM     30 H    ALA B   3      27.773   9.332  -2.925  1.00 63.04 LIG 0.16  HD
BRANCH 29 31
ATOM     31  CA  ALA B   3      26.264  10.383  -2.184  1.00 63.50 LIG 0.16  C 
ATOM     32  CB  ALA B   3      24.833  10.089  -2.644  1.00 63.68 LIG 0.04  C 
BRANCH 31 33
ATOM     33  C   ALA B   3      26.526   9.771  -0.811  1.00 63.68 LIG 0.22  C 
ATOM     34 O    ALA B   3      26.901  10.466   0.134  1.00 63.94 LIG-0.29  OA
ENDBRANCH 31 33
ENDBRANCH 29 31
ENDBRANCH 22 27
ENDBRANCH 20 22
ENDBRANCH 1 18
TORSDOF 12
ENDMDL
MODEL 12
USER: ADFR SOLUTION from run 181
USER: SCORE 13.606363 LL:  -1.210 LR: -13.075 RR:   0.000 FEB:  -9.495
USER: RMSD 3.351653
USER: SEED 180
USER: STATUS no improvement in best in 14 clusters for 5 generations
USER: GENES 14
USER: genes 0 Translation |==|  0.39568 0.46506 0.41335
USER: genes 1 Rotation |==|  0.53996 0.63487 0.80053 0.87402
USER: genes 2 Torsion [CB]-CA--N-[H1] |==|  0.08788
USER: genes 3 Torsion [N]-CA--CB-[CG] |==|  0.79222
USER: genes 4 Torsion [CA]-CB--CG-[CD] |==|  0.28165
USER: genes 5 Torsion [CB]-CG--CD-[NE] |==|  0.23817
USER: genes 6 Torsion [CG]-CD--NE-[CZ] |==|  0.22971
USER: genes 7 Torsion [N]-CA--C-[N] |==|  0.15016
USER: genes 8 Torsion [C]-N--CA-[CB] |==|  0.21955
USER: genes 9 Torsion [N]-CA--CB-[CG2] |==|  0.76825
USER: genes 10 Torsion [CA]-CB--CG1-[CD1] |==|  0.30286
USER: genes 11 Torsion [N]-CA--C-[N] |==|  0.86055
USER: genes 12 Torsion [C]-N--CA-[CB] |==|  0.84826
USER: genes 13 Torsion [N]-CA--C-[O] |==|  0.98494
ROOT
ATOM      1  CA  ARG B   1      27.586   9.619 -10.624  1.00 59.17 LIG 0.27  C 
ENDROOT
BRANCH 1 2
ATOM      2  N   ARG B   1      26.151   9.354 -10.331  1.00 58.83 LIG-0.07  N 
ATOM      3 H3   ARG B   1      25.819  10.020  -9.844  1.00 58.83 LIG 0.28  HD
ATOM      4 H2   ARG B   1      26.077   8.591  -9.879  1.00 58.83 LIG 0.28  HD
ATOM      5 H1   ARG B   1      25.699   9.292 -11.095  1.00 58.83 LIG 0.28  HD
ENDBRANCH 1 2
BRANCH 1 6
ATOM      6  CB  ARG B   1      27.751  10.443 -11.908  1.00 59.00 LIG 0.04  C 
BRANCH 6 7
ATOM      7  CG  ARG B   1      27.525   9.680 -13.215  1.00 58.73 LIG 0.02  C 
BRANCH 7 8
ATOM      8  CD  ARG B   1      26.150   9.940 -13.834  1.00 57.79 LIG 0.14  C 
BRANCH 8 9
ATOM      9  NE  ARG B   1      26.159  11.139 -14.675  1.00 57.71 LIG-0.23  N 
ATOM     10  CZ  ARG B   1      26.570  11.179 -15.942  1.00 57.43 LIG 0.67  C 
ATOM     11  NH1 ARG B   1      27.022  10.088 -16.547  1.00 56.57 LIG-0.23  N 
ATOM     12  NH2 ARG B   1      26.526  12.323 -16.614  1.00 57.93 LIG-0.23  N 
ATOM     13 2HH1 ARG B   1      27.285  10.127 -17.364  1.00 56.57 LIG 0.17  HD
ATOM     14 1HH1 ARG B   1      27.052   9.341 -16.121  1.00 56.57 LIG 0.17  HD
ATOM     15 2HH2 ARG B   1      26.791  12.352 -17.431  1.00 57.93 LIG 0.17  HD
ATOM     16 1HH2 ARG B   1      26.232  13.035 -16.232  1.00 57.93 LIG 0.17  HD
ATOM     17 HE   ARG B   1      25.877  11.873 -14.325  1.00 57.71 LIG 0.18  HD
ENDBRANCH 8 9
ENDBRANCH 7 8
ENDBRANCH 6 7
ENDBRANCH 1 6
BRANCH 1 18
ATOM     18  C   ARG B   1      28.236  10.349  -9.464  1.00 59.69 LIG 0.25  C 
ATOM     19 O    ARG B   1      28.824  11.412  -9.650  1.00 59.48 LIG-0.27  OA
ATOM     20  N   ILE B   2      28.119   9.780  -8.270  1.00 60.56 LIG-0.35  N 
ATOM     21 H    ILE B   2      27.651   9.074  -8.115  1.00 60.56 LIG 0.16  HD
BRANCH 20 22
ATOM     22  CA  ILE B   2      28.795  10.327  -7.100  1.00 61.73 LIG 0.18  C 
BRANCH 22 23
ATOM     23  CB  ILE B   2      28.044  11.560  -6.506  1.00 61.78 LIG 0.01  C 
ATOM     24  CG2 ILE B   2      28.401  12.864  -7.237  1.00 61.94 LIG 0.01  C 
BRANCH 23 25
ATOM     25  CG1 ILE B   2      26.532  11.315  -6.480  1.00 62.37 LIG 0.00  C 
ATOM     26  CD1 ILE B   2      25.965  11.110  -5.081  1.00 63.06 LIG 0.01  C 
ENDBRANCH 23 25
ENDBRANCH 22 23
BRANCH 22 27
ATOM     27  C   ILE B   2      29.011   9.216  -6.074  1.00 62.33 LIG 0.24  C 
ATOM     28 O    ILE B   2      30.119   9.051  -5.551  1.00 62.62 LIG-0.27  OA
ATOM     29  N   ALA B   3      27.941   8.482  -5.769  1.00 63.04 LIG-0.35  N 
ATOM     30 H    ALA B   3      27.179   8.563  -6.159  1.00 63.04 LIG 0.16  HD
BRANCH 29 31
ATOM     31  CA  ALA B   3      27.979   7.455  -4.722  1.00 63.50 LIG 0.16  C 
ATOM     32  CB  ALA B   3      29.112   6.459  -4.987  1.00 63.68 LIG 0.04  C 
BRANCH 31 33
ATOM     33  C   ALA B   3      28.096   8.047  -3.320  1.00 63.68 LIG 0.22  C 
ATOM     34 O    ALA B   3      28.250   9.257  -3.151  1.00 63.94 LIG-0.29  OA
ENDBRANCH 31 33
ENDBRANCH 29 31
ENDBRANCH 22 27
ENDBRANCH 20 22
ENDBRANCH 1 18
TORSDOF 12
ENDMDL
MODEL 13
USER: ADFR SOLUTION from run 34
USER: SCORE 13.235552 LL:  -1.173 LR: -13.031 RR:   0.000 FEB:  -9.451
USER: RMSD 2.295770
USER: SEED 33
USER: STATUS no improvement in best in 10 clusters for 5 generations
USER: GENES 14
USER: genes 0 Translation |==|  0.40558 0.47254 0.44597
USER: genes 1 Rotation |==|  0.44481 0.56591 0.62819 0.97558
USER: genes 2 Torsion [CB]-CA--N-[H1] |==|  0.07696
USER: genes 3 Torsion [N]-CA--CB-[CG] |==|  0.89529
USER: genes 4 Torsion [CA]-CB--CG-[CD] |==|  0.86359
USER: genes 5 Torsion [CB]-CG--CD-[NE] |==|  0.68058
USER: genes 6 Torsion [CG]-CD--NE-[CZ] |==|  0.69359
USER: genes 7 Torsion [N]-CA--C-[N] |==|  0.18627
USER: genes 8 Torsion [C]-N--CA-[CB] |==|  0.46278
USER: genes 9 Torsion [N]-CA--CB-[CG2] |==|  0.98230
USER: genes 10 Torsion [CA]-CB--CG1-[CD1] |==|  0.43760
USER: genes 11 Torsion [N]-CA--C-[N] |==|  0.41978
USER: genes 12 Torsion [C]-N--CA-[CB] |==|  0.38989
USER: genes 13 Torsion [N]-CA--C-[O] |==|  0.99138
ROOT
ATOM      1  CA  ARG B   1      27.735   9.720  -9.914  1.00 59.17 LIG 0.27  C 
ENDROOT
BRANCH 1 2
ATOM      2  N   ARG B   1      26.526  10.419 -10.429  1.00 58.83 LIG-0.07  N 
ATOM      3 H3   ARG B   1      26.586  11.289 -10.250  1.00 58.83 LIG 0.28  HD
ATOM      4 H2   ARG B   1      25.800  10.086 -10.036  1.00 58.83 LIG 0.28  HD
ATOM      5 H1   ARG B   1      26.467  10.302 -11.309  1.00 58.83 LIG 0.28  HD
ENDBRANCH 1 2
BRANCH 1 6
ATOM      6  CB  ARG B   1      28.823   9.621 -10.992  1.00 59.00 LIG 0.04  C 
BRANCH 6 7
ATOM      7  CG  ARG B   1      28.321   9.362 -12.414  1.00 58.73 LIG 0.02  C 
BRANCH 7 8
ATOM      8  CD  ARG B   1      27.325   8.204 -12.501  1.00 57.79 LIG 0.14  C 
BRANCH 8 9
ATOM      9  NE  ARG B   1      27.863   7.090 -13.285  1.00 57.71 LIG-0.23  N 
ATOM     10  CZ  ARG B   1      27.424   6.723 -14.488  1.00 57.43 LIG 0.67  C 
ATOM     11  NH1 ARG B   1      26.425   7.368 -15.075  1.00 56.57 LIG-0.23  N 
ATOM     12  NH2 ARG B   1      27.994   5.700 -15.114  1.00 57.93 LIG-0.23  N 
ATOM     13 2HH1 ARG B   1      26.151   7.121 -15.852  1.00 56.57 LIG 0.17  HD
ATOM     14 1HH1 ARG B   1      26.051   8.034 -14.679  1.00 56.57 LIG 0.17  HD
ATOM     15 2HH2 ARG B   1      27.713   5.461 -15.890  1.00 57.93 LIG 0.17  HD
ATOM     16 1HH2 ARG B   1      28.644   5.277 -14.743  1.00 57.93 LIG 0.17  HD
ATOM     17 HE   ARG B   1      28.511   6.639 -12.943  1.00 57.71 LIG 0.18  HD
ENDBRANCH 8 9
ENDBRANCH 7 8
ENDBRANCH 6 7
ENDBRANCH 1 6
BRANCH 1 18
ATOM     18  C   ARG B   1      28.286  10.442  -8.700  1.00 59.69 LIG 0.25  C 
ATOM     19 O    ARG B   1      29.372  11.012  -8.755  1.00 59.48 LIG-0.27  OA
ATOM     20  N   ILE B   2      27.527  10.422  -7.609  1.00 60.56 LIG-0.35  N 
ATOM     21 H    ILE B   2      26.735  10.088  -7.577  1.00 60.56 LIG 0.16  HD
BRANCH 20 22
ATOM     22  CA  ILE B   2      27.999  10.983  -6.349  1.00 61.73 LIG 0.18  C 
BRANCH 22 23
ATOM     23  CB  ILE B   2      26.847  11.156  -5.310  1.00 61.78 LIG 0.01  C 
ATOM     24  CG2 ILE B   2      25.469  10.841  -5.914  1.00 61.94 LIG 0.01  C 
BRANCH 23 25
ATOM     25  CG1 ILE B   2      27.122  10.327  -4.051  1.00 62.37 LIG 0.00  C 
ATOM     26  CD1 ILE B   2      26.385  10.823  -2.813  1.00 63.06 LIG 0.01  C 
ENDBRANCH 23 25
ENDBRANCH 22 23
BRANCH 22 27
ATOM     27  C   ILE B   2      29.152  10.134  -5.817  1.00 62.33 LIG 0.24  C 
ATOM     28 O    ILE B   2      29.233   8.934  -6.106  1.00 62.62 LIG-0.27  OA
ATOM     29  N   ALA B   3      30.054  10.769  -5.069  1.00 63.04 LIG-0.35  N 
ATOM     30 H    ALA B   3      29.982  11.591  -4.829  1.00 63.04 LIG 0.16  HD
BRANCH 29 31
ATOM     31  CA  ALA B   3      31.267  10.101  -4.584  1.00 63.50 LIG 0.16  C 
ATOM     32  CB  ALA B   3      32.468  11.048  -4.660  1.00 63.68 LIG 0.04  C 
BRANCH 31 33
ATOM     33  C   ALA B   3      31.109   9.542  -3.173  1.00 63.68 LIG 0.22  C 
ATOM     34 O    ALA B   3      30.071   9.716  -2.532  1.00 63.94 LIG-0.29  OA
ENDBRANCH 31 33
ENDBRANCH 29 31
ENDBRANCH 22 27
ENDBRANCH 20 22
ENDBRANCH 1 18
TORSDOF 12
ENDMDL
MODEL 14
USER: ADFR SOLUTION from run 34
USER: SCORE 12.888343 LL:  -1.185 LR: -12.866 RR:   0.000 FEB:  -9.286
USER: RMSD 3.963383
USER: SEED 33
USER: STATUS no improvement in best in 10 clusters for 5 generations
USER: GENES 14
USER: genes 0 Translation |==|  0.39289 0.43352 0.42044
USER: genes 1 Rotation |==|  0.49592 0.64533 0.67659 0.94461
USER: genes 2 Torsion [CB]-CA--N-[H1] |==|  0.18936
USER: genes 3 Torsion [N]-CA--CB-[CG] |==|  0.07888
USER: genes 4 Torsion [CA]-CB--CG-[CD] |==|  0.68947
USER: genes 5 Torsion [CB]-CG--CD-[NE] |==|  0.53528
USER: genes 6 Torsion [CG]-CD--NE-[CZ] |==|  0.33276
USER: genes 7 Torsion [N]-CA--C-[N] |==|  0.08639
USER: genes 8 Torsion [C]-N--CA-[CB] |==|  0.17241
USER: genes 9 Torsion [N]-CA--CB-[CG2] |==|  0.11839
USER: genes 10 Torsion [CA]-CB--CG1-[CD1] |==|  0.25376
USER: genes 11 Torsion [N]-CA--C-[N] |==|  0.35379
USER: genes 12 Torsion [C]-N--CA-[CB] |==|  0.16957
USER: genes 13 Torsion [N]-CA--C-[O] |==|  0.02564
ROOT
ATOM      1  CA  ARG B   1      27.544   9.193 -10.469  1.00 59.17 LIG 0.27  C 
ENDROOT
BRANCH 1 2
ATOM      2  N   ARG B   1      26.153   9.715 -10.383  1.00 58.83 LIG-0.07  N 
ATOM      3 H3   ARG B   1      26.129  10.551 -10.688  1.00 58.83 LIG 0.28  HD
ATOM      4 H2   ARG B   1      25.883   9.701  -9.536  1.00 58.83 LIG 0.28  HD
ATOM      5 H1   ARG B   1      25.614   9.205 -10.874  1.00 58.83 LIG 0.28  HD
ENDBRANCH 1 2
BRANCH 1 6
ATOM      6  CB  ARG B   1      28.126   9.385 -11.877  1.00 59.00 LIG 0.04  C 
BRANCH 6 7
ATOM      7  CG  ARG B   1      27.568  10.572 -12.665  1.00 58.73 LIG 0.02  C 
BRANCH 7 8
ATOM      8  CD  ARG B   1      26.722  10.152 -13.869  1.00 57.79 LIG 0.14  C 
BRANCH 8 9
ATOM      9  NE  ARG B   1      26.458  11.284 -14.761  1.00 57.71 LIG-0.23  N 
ATOM     10  CZ  ARG B   1      26.827  11.349 -16.039  1.00 57.43 LIG 0.67  C 
ATOM     11  NH1 ARG B   1      27.488  10.350 -16.610  1.00 56.57 LIG-0.23  N 
ATOM     12  NH2 ARG B   1      26.526  12.424 -16.758  1.00 57.93 LIG-0.23  N 
ATOM     13 2HH1 ARG B   1      27.720  10.405 -17.436  1.00 56.57 LIG 0.17  HD
ATOM     14 1HH1 ARG B   1      27.685   9.649 -16.153  1.00 56.57 LIG 0.17  HD
ATOM     15 2HH2 ARG B   1      26.762  12.468 -17.584  1.00 57.93 LIG 0.17  HD
ATOM     16 1HH2 ARG B   1      26.095  13.075 -16.399  1.00 57.93 LIG 0.17  HD
ATOM     17 HE   ARG B   1      26.034  11.958 -14.434  1.00 57.71 LIG 0.18  HD
ENDBRANCH 8 9
ENDBRANCH 7 8
ENDBRANCH 6 7
ENDBRANCH 1 6
BRANCH 1 18
ATOM     18  C   ARG B   1      28.432   9.885  -9.454  1.00 59.69 LIG 0.25  C 
ATOM     19 O    ARG B   1      29.623  10.070  -9.693  1.00 59.48 LIG-0.27  OA
ATOM     20  N   ILE B   2      27.846  10.275  -8.327  1.00 60.56 LIG-0.35  N 
ATOM     21 H    ILE B   2      27.001  10.216  -8.177  1.00 60.56 LIG 0.16  HD
BRANCH 20 22
ATOM     22  CA  ILE B   2      28.617  10.849  -7.232  1.00 61.73 LIG 0.18  C 
BRANCH 22 23
ATOM     23  CB  ILE B   2      29.328  12.178  -7.641  1.00 61.78 LIG 0.01  C 
ATOM     24  CG2 ILE B   2      28.415  13.091  -8.474  1.00 61.94 LIG 0.01  C 
BRANCH 23 25
ATOM     25  CG1 ILE B   2      29.887  12.897  -6.410  1.00 62.37 LIG 0.00  C 
ATOM     26  CD1 ILE B   2      31.326  12.523  -6.076  1.00 63.06 LIG 0.01  C 
ENDBRANCH 23 25
ENDBRANCH 22 23
BRANCH 22 27
ATOM     27  C   ILE B   2      27.715  11.015  -6.010  1.00 62.33 LIG 0.24  C 
ATOM     28 O    ILE B   2      26.624  11.591  -6.108  1.00 62.62 LIG-0.27  OA
ATOM     29  N   ALA B   3      28.160  10.480  -4.874  1.00 63.04 LIG-0.35  N 
ATOM     30 H    ALA B   3      28.934  10.116  -4.788  1.00 63.04 LIG 0.16  HD
BRANCH 29 31
ATOM     31  CA  ALA B   3      27.348  10.470  -3.652  1.00 63.50 LIG 0.16  C 
ATOM     32  CB  ALA B   3      26.054   9.682  -3.873  1.00 63.68 LIG 0.04  C 
BRANCH 31 33
ATOM     33  C   ALA B   3      28.108   9.931  -2.443  1.00 63.68 LIG 0.22  C 
ATOM     34 O    ALA B   3      29.320   9.716  -2.498  1.00 63.94 LIG-0.29  OA
ENDBRANCH 31 33
ENDBRANCH 29 31
ENDBRANCH 22 27
ENDBRANCH 20 22
ENDBRANCH 1 18
TORSDOF 12
ENDMDL
MODEL 15
USER: ADFR SOLUTION from run 188
USER: SCORE 13.742062 LL:  -1.129 LR: -12.629 RR:   0.000 FEB:  -9.049
USER: RMSD 3.812809
USER: SEED 187
USER: STATUS no improvement in best in 9 clusters for 5 generations
USER: GENES 14
USER: genes 0 Translation |==|  0.33631 0.55532 0.50917
USER: genes 1 Rotation |==|  0.54081 0.54215 0.56130 0.99275
USER: genes 2 Torsion [CB]-CA--N-[H1] |==|  0.06317
USER: genes 3 Torsion [N]-CA--CB-[CG] |==|  0.85757
USER: genes 4 Torsion [CA]-CB--CG-[CD] |==|  0.76048
USER: genes 5 Torsion [CB]-CG--CD-[NE] |==|  0.83576
USER: genes 6 Torsion [CG]-CD--NE-[CZ] |==|  0.60497
USER: genes 7 Torsion [N]-CA--C-[N] |==|  0.43358
USER: genes 8 Torsion [C]-N--CA-[CB] |==|  0.84415
USER: genes 9 Torsion [N]-CA--CB-[CG2] |==|  0.56012
USER: genes 10 Torsion [CA]-CB--CG1-[CD1] |==|  0.81775
USER: genes 11 Torsion [N]-CA--C-[N] |==|  0.36499
USER: genes 12 Torsion [C]-N--CA-[CB] |==|  0.45553
USER: genes 13 Torsion [N]-CA--C-[O] |==|  0.30063
ROOT
ATOM      1  CA  ARG B   1      26.696  10.838  -8.540  1.00 59.17 LIG 0.27  C 
ENDROOT
BRANCH 1 2
ATOM      2  N   ARG B   1      25.799  12.008  -8.739  1.00 58.83 LIG-0.07  N 
ATOM      3 H3   ARG B   1      26.057  12.675  -8.209  1.00 58.83 LIG 0.28  HD
ATOM      4 H2   ARG B   1      24.962  11.779  -8.540  1.00 58.83 LIG 0.28  HD
ATOM      5 H1   ARG B   1      25.839  12.273  -9.588  1.00 58.83 LIG 0.28  HD
ENDBRANCH 1 2
BRANCH 1 6
ATOM      6  CB  ARG B   1      27.794  10.787  -9.611  1.00 59.00 LIG 0.04  C 
BRANCH 6 7
ATOM      7  CG  ARG B   1      27.308  10.887 -11.058  1.00 58.73 LIG 0.02  C 
BRANCH 7 8
ATOM      8  CD  ARG B   1      26.910   9.535 -11.655  1.00 57.79 LIG 0.14  C 
BRANCH 8 9
ATOM      9  NE  ARG B   1      28.030   8.591 -11.640  1.00 57.71 LIG-0.23  N 
ATOM     10  CZ  ARG B   1      28.299   7.712 -12.604  1.00 57.43 LIG 0.67  C 
ATOM     11  NH1 ARG B   1      27.534   7.629 -13.684  1.00 56.57 LIG-0.23  N 
ATOM     12  NH2 ARG B   1      29.350   6.908 -12.489  1.00 57.93 LIG-0.23  N 
ATOM     13 2HH1 ARG B   1      27.718   7.057 -14.299  1.00 56.57 LIG 0.17  HD
ATOM     14 1HH1 ARG B   1      26.852   8.147 -13.769  1.00 56.57 LIG 0.17  HD
ATOM     15 2HH2 ARG B   1      29.526   6.340 -13.110  1.00 57.93 LIG 0.17  HD
ATOM     16 1HH2 ARG B   1      29.854   6.956 -11.794  1.00 57.93 LIG 0.17  HD
ATOM     17 HE   ARG B   1      28.554   8.605 -10.957  1.00 57.71 LIG 0.18  HD
ENDBRANCH 8 9
ENDBRANCH 7 8
ENDBRANCH 6 7
ENDBRANCH 1 6
BRANCH 1 18
ATOM     18  C   ARG B   1      27.330  10.885  -7.163  1.00 59.69 LIG 0.25  C 
ATOM     19 O    ARG B   1      27.438  11.953  -6.565  1.00 59.48 LIG-0.27  OA
ATOM     20  N   ILE B   2      27.737   9.724  -6.662  1.00 60.56 LIG-0.35  N 
ATOM     21 H    ILE B   2      27.603   8.962  -7.038  1.00 60.56 LIG 0.16  HD
BRANCH 20 22
ATOM     22  CA  ILE B   2      28.461   9.658  -5.398  1.00 61.73 LIG 0.18  C 
BRANCH 22 23
ATOM     23  CB  ILE B   2      29.747  10.541  -5.407  1.00 61.78 LIG 0.01  C 
ATOM     24  CG2 ILE B   2      30.767  10.091  -4.349  1.00 61.94 LIG 0.01  C 
BRANCH 23 25
ATOM     25  CG1 ILE B   2      30.362  10.593  -6.809  1.00 62.37 LIG 0.00  C 
ATOM     26  CD1 ILE B   2      30.893   9.251  -7.299  1.00 63.06 LIG 0.01  C 
ENDBRANCH 23 25
ENDBRANCH 22 23
BRANCH 22 27
ATOM     27  C   ILE B   2      27.512  10.006  -4.252  1.00 62.33 LIG 0.24  C 
ATOM     28 O    ILE B   2      26.774  10.996  -4.327  1.00 62.62 LIG-0.27  OA
ATOM     29  N   ALA B   3      27.515   9.173  -3.213  1.00 63.04 LIG-0.35  N 
ATOM     30 H    ALA B   3      28.054   8.508  -3.135  1.00 63.04 LIG 0.16  HD
BRANCH 29 31
ATOM     31  CA  ALA B   3      26.578   9.326  -2.094  1.00 63.50 LIG 0.16  C 
ATOM     32  CB  ALA B   3      26.526   8.044  -1.257  1.00 63.68 LIG 0.04  C 
BRANCH 31 33
ATOM     33  C   ALA B   3      26.901  10.532  -1.215  1.00 63.68 LIG 0.22  C 
ATOM     34 O    ALA B   3      26.189  11.537  -1.228  1.00 63.94 LIG-0.29  OA
ENDBRANCH 31 33
ENDBRANCH 29 31
ENDBRANCH 22 27
ENDBRANCH 20 22
ENDBRANCH 1 18
TORSDOF 12
ENDMDL
