MODEL 1
USER: ADFR SOLUTION from run 149
USER: SCORE 14.587672 LL:  -1.263 LR: -14.432 RR:   0.000 FEB: -10.554
USER: RMSD 3.033432
USER: SEED 148
USER: STATUS no improvement in best in 5 clusters for 5 generations
USER: GENES 15
USER: genes 0 Translation |==|  0.35269 0.54240 0.58680
USER: genes 1 Rotation |==|  0.44963 0.47044 0.39960 0.98632
USER: genes 2 Torsion [N]-C--CA-[N] |==|  0.39421
USER: genes 3 Torsion [C]-CA--N-[H3] |==|  0.36149
USER: genes 4 Torsion [C]-CA--CB-[CG] |==|  0.50423
USER: genes 5 Torsion [CA]-CB--CG-[CD] |==|  0.75921
USER: genes 6 Torsion [CB]-CG--CD-[CE] |==|  0.59669
USER: genes 7 Torsion [CG]-CD--CE-[NZ] |==|  0.36819
USER: genes 8 Torsion [CD]-CE--NZ-[HZ3] |==|  0.03997
USER: genes 9 Torsion [C]-N--CA-[CB] |==|  0.28889
USER: genes 10 Torsion [N]-CA--CB-[CG2] |==|  0.29490
USER: genes 11 Torsion [CA]-CB--CG1-[CD1] |==|  0.61737
USER: genes 12 Torsion [N]-CA--C-[N] |==|  0.98787
USER: genes 13 Torsion [C]-N--CA-[CB] |==|  0.86598
USER: genes 14 Torsion [N]-CA--C-[O] |==|  0.04678
ROOT
ATOM      1  C   LYS B   1      26.886  11.396  -7.112  1.00 69.77 LIG 0.25  C 
ATOM      2 O    LYS B   1      27.357  12.460  -6.718  1.00 69.73 LIG-0.27  OA
ATOM      3  N   ILE B   2      26.712  10.336  -6.325  1.00 70.01 LIG-0.35  N 
ATOM      4 H    ILE B   2      26.343   9.604  -6.586  1.00 70.01 LIG 0.16  HD
ENDROOT
BRANCH 1 5
ATOM      5  CA  LYS B   1      26.455  11.234  -8.562  1.00 69.63 LIG 0.27  C 
BRANCH 5 6
ATOM      6  N   LYS B   1      25.831  12.489  -9.070  1.00 69.58 LIG-0.07  N 
ATOM      7 H3   LYS B   1      26.204  12.714  -9.847  1.00 69.58 LIG 0.28  HD
ATOM      8 H2   LYS B   1      25.959  13.144  -8.481  1.00 69.58 LIG 0.28  HD
ATOM      9 H1   LYS B   1      24.959  12.361  -9.186  1.00 69.58 LIG 0.28  HD
ENDBRANCH 5 6
BRANCH 5 10
ATOM     10  CB  LYS B   1      27.658  10.837  -9.427  1.00 69.57 LIG 0.04  C 
BRANCH 10 11
ATOM     11  CG  LYS B   1      27.359  10.680 -10.915  1.00 69.38 LIG 0.00  C 
BRANCH 11 12
ATOM     12  CD  LYS B   1      26.866   9.282 -11.262  1.00 68.73 LIG 0.03  C 
BRANCH 12 13
ATOM     13  CE  LYS B   1      27.360   8.854 -12.635  1.00 68.60 LIG 0.23  C 
BRANCH 13 14
ATOM     14  NZ  LYS B   1      27.936   7.480 -12.624  1.00 68.55 LIG-0.08  N 
ATOM     15 HZ1  LYS B   1      27.623   7.022 -13.320  1.00 68.55 LIG 0.27  HD
ATOM     16 HZ2  LYS B   1      28.823   7.529 -12.677  1.00 68.55 LIG 0.27  HD
ATOM     17 HZ3  LYS B   1      27.706   7.067 -11.870  1.00 68.55 LIG 0.27  HD
ENDBRANCH 13 14
ENDBRANCH 12 13
ENDBRANCH 11 12
ENDBRANCH 10 11
ENDBRANCH 5 10
ENDBRANCH 1 5
BRANCH 3 18
ATOM     18  CA  ILE B   2      27.140  10.325  -4.929  1.00 70.34 LIG 0.18  C 
BRANCH 18 19
ATOM     19  CB  ILE B   2      25.933  10.489  -3.952  1.00 70.35 LIG 0.01  C 
ATOM     20  CG2 ILE B   2      25.579   9.170  -3.245  1.00 70.46 LIG 0.01  C 
BRANCH 19 21
ATOM     21  CG1 ILE B   2      26.206  11.605  -2.931  1.00 70.36 LIG 0.00  C 
ATOM     22  CD1 ILE B   2      25.794  11.306  -1.488  1.00 70.48 LIG 0.01  C 
ENDBRANCH 19 21
ENDBRANCH 18 19
BRANCH 18 23
ATOM     23  C   ILE B   2      27.943   9.064  -4.619  1.00 70.53 LIG 0.24  C 
ATOM     24 O    ILE B   2      28.452   8.896  -3.507  1.00 70.63 LIG-0.27  OA
ATOM     25  N   ALA B   3      28.033   8.179  -5.610  1.00 70.71 LIG-0.35  N 
ATOM     26 H    ALA B   3      27.646   8.278  -6.371  1.00 70.71 LIG 0.16  HD
BRANCH 25 27
ATOM     27  CA  ALA B   3      28.808   6.945  -5.495  1.00 70.82 LIG 0.16  C 
ATOM     28  CB  ALA B   3      30.195   7.238  -4.939  1.00 70.79 LIG 0.04  C 
BRANCH 27 29
ATOM     29  C   ALA B   3      28.083   5.922  -4.622  1.00 70.87 LIG 0.22  C 
ATOM     30 O    ALA B   3      26.882   6.041  -4.370  1.00 70.95 LIG-0.29  OA
ENDBRANCH 27 29
ENDBRANCH 25 27
ENDBRANCH 18 23
ENDBRANCH 3 18
TORSDOF 13
ENDMDL
MODEL 2
USER: ADFR SOLUTION from run 197
USER: SCORE 14.151950 LL:  -0.837 LR: -14.369 RR:   0.000 FEB: -10.491
USER: RMSD 3.352072
USER: SEED 196
USER: STATUS searching
USER: GENES 15
USER: genes 0 Translation |==|  0.39294 0.55256 0.58939
USER: genes 1 Rotation |==|  0.47626 0.44234 0.39832 0.98556
USER: genes 2 Torsion [N]-C--CA-[N] |==|  0.21619
USER: genes 3 Torsion [C]-CA--N-[H3] |==|  0.08449
USER: genes 4 Torsion [C]-CA--CB-[CG] |==|  0.64264
USER: genes 5 Torsion [CA]-CB--CG-[CD] |==|  0.78621
USER: genes 6 Torsion [CB]-CG--CD-[CE] |==|  0.52752
USER: genes 7 Torsion [CG]-CD--CE-[NZ] |==|  0.66703
USER: genes 8 Torsion [CD]-CE--NZ-[HZ3] |==|  0.13012
USER: genes 9 Torsion [C]-N--CA-[CB] |==|  0.28206
USER: genes 10 Torsion [N]-CA--CB-[CG2] |==|  0.32034
USER: genes 11 Torsion [CA]-CB--CG1-[CD1] |==|  0.62402
USER: genes 12 Torsion [N]-CA--C-[N] |==|  0.96113
USER: genes 13 Torsion [C]-N--CA-[CB] |==|  0.87373
USER: genes 14 Torsion [N]-CA--C-[O] |==|  0.03421
ROOT
ATOM      1  C   LYS B   1      27.520  11.525  -7.060  1.00 69.77 LIG 0.25  C 
ATOM      2 O    LYS B   1      27.917  12.557  -6.523  1.00 69.73 LIG-0.27  OA
ATOM      3  N   ILE B   2      27.263  10.404  -6.390  1.00 70.01 LIG-0.35  N 
ATOM      4 H    ILE B   2      26.944   9.693  -6.754  1.00 70.01 LIG 0.16  HD
ENDROOT
BRANCH 1 5
ATOM      5  CA  LYS B   1      27.285  11.479  -8.562  1.00 69.63 LIG 0.27  C 
BRANCH 5 6
ATOM      6  N   LYS B   1      25.831  11.591  -8.872  1.00 69.58 LIG-0.07  N 
ATOM      7 H3   LYS B   1      25.430  12.079  -8.245  1.00 69.58 LIG 0.28  HD
ATOM      8 H2   LYS B   1      25.468  10.778  -8.891  1.00 69.58 LIG 0.28  HD
ATOM      9 H1   LYS B   1      25.726  11.981  -9.665  1.00 69.58 LIG 0.28  HD
ENDBRANCH 5 6
BRANCH 5 10
ATOM     10  CB  LYS B   1      28.075  12.599  -9.252  1.00 69.57 LIG 0.04  C 
BRANCH 10 11
ATOM     11  CG  LYS B   1      27.257  13.476 -10.196  1.00 69.38 LIG 0.00  C 
BRANCH 11 12
ATOM     12  CD  LYS B   1      26.980  12.791 -11.528  1.00 68.73 LIG 0.03  C 
BRANCH 12 13
ATOM     13  CE  LYS B   1      26.382  13.766 -12.530  1.00 68.60 LIG 0.23  C 
BRANCH 13 14
ATOM     14  NZ  LYS B   1      25.032  13.341 -12.995  1.00 68.55 LIG-0.08  N 
ATOM     15 HZ1  LYS B   1      24.639  14.016 -13.421  1.00 68.55 LIG 0.27  HD
ATOM     16 HZ2  LYS B   1      25.113  12.648 -13.548  1.00 68.55 LIG 0.27  HD
ATOM     17 HZ3  LYS B   1      24.537  13.105 -12.294  1.00 68.55 LIG 0.27  HD
ENDBRANCH 13 14
ENDBRANCH 12 13
ENDBRANCH 11 12
ENDBRANCH 10 11
ENDBRANCH 5 10
ENDBRANCH 1 5
BRANCH 3 18
ATOM     18  CA  ILE B   2      27.506  10.282  -4.954  1.00 70.34 LIG 0.18  C 
BRANCH 18 19
ATOM     19  CB  ILE B   2      26.186  10.419  -4.132  1.00 70.35 LIG 0.01  C 
ATOM     20  CG2 ILE B   2      25.831   9.120  -3.388  1.00 70.46 LIG 0.01  C 
BRANCH 19 21
ATOM     21  CG1 ILE B   2      26.273  11.605  -3.157  1.00 70.36 LIG 0.00  C 
ATOM     22  CD1 ILE B   2      25.767  11.341  -1.737  1.00 70.48 LIG 0.01  C 
ENDBRANCH 19 21
ENDBRANCH 18 19
BRANCH 18 23
ATOM     23  C   ILE B   2      28.230   8.976  -4.638  1.00 70.53 LIG 0.24  C 
ATOM     24 O    ILE B   2      28.740   8.789  -3.529  1.00 70.63 LIG-0.27  OA
ATOM     25  N   ALA B   3      28.251   8.074  -5.618  1.00 70.71 LIG-0.35  N 
ATOM     26 H    ALA B   3      27.861   8.188  -6.376  1.00 70.71 LIG 0.16  HD
BRANCH 25 27
ATOM     27  CA  ALA B   3      28.946   6.795  -5.495  1.00 70.82 LIG 0.16  C 
ATOM     28  CB  ALA B   3      30.331   6.997  -4.894  1.00 70.79 LIG 0.04  C 
BRANCH 27 29
ATOM     29  C   ALA B   3      28.135   5.808  -4.657  1.00 70.87 LIG 0.22  C 
ATOM     30 O    ALA B   3      26.958   6.037  -4.370  1.00 70.95 LIG-0.29  OA
ENDBRANCH 27 29
ENDBRANCH 25 27
ENDBRANCH 18 23
ENDBRANCH 3 18
TORSDOF 13
ENDMDL
MODEL 3
USER: ADFR SOLUTION from run 89
USER: SCORE 13.350672 LL:  -0.800 LR: -14.255 RR:   0.000 FEB: -10.378
USER: RMSD 2.004041
USER: SEED 88
USER: STATUS searching
USER: GENES 15
USER: genes 0 Translation |==|  0.40072 0.56227 0.58341
USER: genes 1 Rotation |==|  0.45773 0.45604 0.41222 0.98844
USER: genes 2 Torsion [N]-C--CA-[N] |==|  0.22166
USER: genes 3 Torsion [C]-CA--N-[H3] |==|  0.39150
USER: genes 4 Torsion [C]-CA--CB-[CG] |==|  0.66365
USER: genes 5 Torsion [CA]-CB--CG-[CD] |==|  0.73394
USER: genes 6 Torsion [CB]-CG--CD-[CE] |==|  0.50878
USER: genes 7 Torsion [CG]-CD--CE-[NZ] |==|  0.67831
USER: genes 8 Torsion [CD]-CE--NZ-[HZ3] |==|  0.16684
USER: genes 9 Torsion [C]-N--CA-[CB] |==|  0.37819
USER: genes 10 Torsion [N]-CA--CB-[CG2] |==|  0.39624
USER: genes 11 Torsion [CA]-CB--CG1-[CD1] |==|  0.70520
USER: genes 12 Torsion [N]-CA--C-[N] |==|  0.30439
USER: genes 13 Torsion [C]-N--CA-[CB] |==|  0.35745
USER: genes 14 Torsion [N]-CA--C-[O] |==|  0.75639
ROOT
ATOM      1  C   LYS B   1      27.642  11.649  -7.181  1.00 69.77 LIG 0.25  C 
ATOM      2 O    LYS B   1      28.027  12.731  -6.743  1.00 69.73 LIG-0.27  OA
ATOM      3  N   ILE B   2      27.487  10.566  -6.422  1.00 70.01 LIG-0.35  N 
ATOM      4 H    ILE B   2      27.177   9.819  -6.715  1.00 70.01 LIG 0.16  HD
ENDROOT
BRANCH 1 5
ATOM      5  CA  LYS B   1      27.304  11.491  -8.656  1.00 69.63 LIG 0.27  C 
BRANCH 5 6
ATOM      6  N   LYS B   1      25.831  11.566  -8.870  1.00 69.58 LIG-0.07  N 
ATOM      7 H3   LYS B   1      25.662  12.020  -9.617  1.00 69.58 LIG 0.28  HD
ATOM      8 H2   LYS B   1      25.451  11.981  -8.180  1.00 69.58 LIG 0.28  HD
ATOM      9 H1   LYS B   1      25.499  10.743  -8.941  1.00 69.58 LIG 0.28  HD
ENDBRANCH 5 6
BRANCH 5 10
ATOM     10  CB  LYS B   1      28.028  12.564  -9.479  1.00 69.57 LIG 0.04  C 
BRANCH 10 11
ATOM     11  CG  LYS B   1      27.115  13.480 -10.288  1.00 69.38 LIG 0.00  C 
BRANCH 11 12
ATOM     12  CD  LYS B   1      26.956  13.015 -11.729  1.00 68.73 LIG 0.03  C 
BRANCH 12 13
ATOM     13  CE  LYS B   1      26.105  13.989 -12.527  1.00 68.60 LIG 0.23  C 
BRANCH 13 14
ATOM     14  NZ  LYS B   1      24.831  13.374 -12.995  1.00 68.55 LIG-0.08  N 
ATOM     15 HZ1  LYS B   1      24.364  13.974 -13.457  1.00 68.55 LIG 0.27  HD
ATOM     16 HZ2  LYS B   1      25.012  12.675 -13.515  1.00 68.55 LIG 0.27  HD
ATOM     17 HZ3  LYS B   1      24.355  13.106 -12.292  1.00 68.55 LIG 0.27  HD
ENDBRANCH 13 14
ENDBRANCH 12 13
ENDBRANCH 11 12
ENDBRANCH 10 11
ENDBRANCH 5 10
ENDBRANCH 1 5
BRANCH 3 18
ATOM     18  CA  ILE B   2      27.836  10.553  -5.004  1.00 70.34 LIG 0.18  C 
BRANCH 18 19
ATOM     19  CB  ILE B   2      26.741   9.844  -4.146  1.00 70.35 LIG 0.01  C 
ATOM     20  CG2 ILE B   2      27.348   9.020  -2.999  1.00 70.46 LIG 0.01  C 
BRANCH 19 21
ATOM     21  CG1 ILE B   2      25.723  10.866  -3.610  1.00 70.36 LIG 0.00  C 
ATOM     22  CD1 ILE B   2      25.830  11.196  -2.121  1.00 70.48 LIG 0.01  C 
ENDBRANCH 19 21
ENDBRANCH 18 19
BRANCH 18 23
ATOM     23  C   ILE B   2      29.209   9.921  -4.791  1.00 70.53 LIG 0.24  C 
ATOM     24 O    ILE B   2      29.384   8.712  -4.970  1.00 70.63 LIG-0.27  OA
ATOM     25  N   ALA B   3      30.179  10.757  -4.423  1.00 70.71 LIG-0.35  N 
ATOM     26 H    ALA B   3      30.067  11.605  -4.337  1.00 70.71 LIG 0.16  HD
BRANCH 25 27
ATOM     27  CA  ALA B   3      31.537  10.305  -4.130  1.00 70.82 LIG 0.16  C 
ATOM     28  CB  ALA B   3      32.553  11.126  -4.913  1.00 70.79 LIG 0.04  C 
BRANCH 27 29
ATOM     29  C   ALA B   3      31.828  10.379  -2.632  1.00 70.87 LIG 0.22  C 
ATOM     30 O    ALA B   3      32.264  11.413  -2.120  1.00 70.95 LIG-0.29  OA
ENDBRANCH 27 29
ENDBRANCH 25 27
ENDBRANCH 18 23
ENDBRANCH 3 18
TORSDOF 13
ENDMDL
MODEL 4
USER: ADFR SOLUTION from run 126
USER: SCORE 13.730133 LL:  -1.196 LR: -14.238 RR:   0.000 FEB: -10.360
USER: RMSD 1.217602
USER: SEED 125
USER: STATUS searching
USER: GENES 15
USER: genes 0 Translation |==|  0.36270 0.55511 0.57027
USER: genes 1 Rotation |==|  0.43704 0.47792 0.44714 0.99270
USER: genes 2 Torsion [N]-C--CA-[N] |==|  0.45961
USER: genes 3 Torsion [C]-CA--N-[H3] |==|  0.80378
USER: genes 4 Torsion [C]-CA--CB-[CG] |==|  0.54040
USER: genes 5 Torsion [CA]-CB--CG-[CD] |==|  0.75605
USER: genes 6 Torsion [CB]-CG--CD-[CE] |==|  0.60218
USER: genes 7 Torsion [CG]-CD--CE-[NZ] |==|  0.25778
USER: genes 8 Torsion [CD]-CE--NZ-[HZ3] |==|  0.48454
USER: genes 9 Torsion [C]-N--CA-[CB] |==|  0.35670
USER: genes 10 Torsion [N]-CA--CB-[CG2] |==|  0.37346
USER: genes 11 Torsion [CA]-CB--CG1-[CD1] |==|  0.65014
USER: genes 12 Torsion [N]-CA--C-[N] |==|  0.35270
USER: genes 13 Torsion [C]-N--CA-[CB] |==|  0.36294
USER: genes 14 Torsion [N]-CA--C-[O] |==|  0.71153
ROOT
ATOM      1  C   LYS B   1      27.044  11.558  -7.447  1.00 69.77 LIG 0.25  C 
ATOM      2 O    LYS B   1      27.331  12.711  -7.134  1.00 69.73 LIG-0.27  OA
ATOM      3  N   ILE B   2      27.112  10.531  -6.603  1.00 70.01 LIG-0.35  N 
ATOM      4 H    ILE B   2      26.871   9.730  -6.805  1.00 70.01 LIG 0.16  HD
ENDROOT
BRANCH 1 5
ATOM      5  CA  LYS B   1      26.571  11.238  -8.858  1.00 69.63 LIG 0.27  C 
BRANCH 5 6
ATOM      6  N   LYS B   1      26.206  12.486  -9.587  1.00 69.58 LIG-0.07  N 
ATOM      7 H3   LYS B   1      25.456  12.822  -9.244  1.00 69.58 LIG 0.28  HD
ATOM      8 H2   LYS B   1      26.081  12.301 -10.448  1.00 69.58 LIG 0.28  HD
ATOM      9 H1   LYS B   1      26.862  13.081  -9.503  1.00 69.58 LIG 0.28  HD
ENDBRANCH 5 6
BRANCH 5 10
ATOM     10  CB  LYS B   1      27.660  10.466  -9.614  1.00 69.57 LIG 0.04  C 
BRANCH 10 11
ATOM     11  CG  LYS B   1      27.462  10.389 -11.125  1.00 69.38 LIG 0.00  C 
BRANCH 11 12
ATOM     12  CD  LYS B   1      26.607   9.198 -11.537  1.00 68.73 LIG 0.03  C 
BRANCH 12 13
ATOM     13  CE  LYS B   1      27.102   8.595 -12.842  1.00 68.60 LIG 0.23  C 
BRANCH 13 14
ATOM     14  NZ  LYS B   1      28.069   7.484 -12.620  1.00 68.55 LIG-0.08  N 
ATOM     15 HZ1  LYS B   1      28.809   7.805 -12.245  1.00 68.55 LIG 0.27  HD
ATOM     16 HZ2  LYS B   1      27.705   6.875 -12.083  1.00 68.55 LIG 0.27  HD
ATOM     17 HZ3  LYS B   1      28.273   7.106 -13.400  1.00 68.55 LIG 0.27  HD
ENDBRANCH 13 14
ENDBRANCH 12 13
ENDBRANCH 11 12
ENDBRANCH 10 11
ENDBRANCH 5 10
ENDBRANCH 1 5
BRANCH 3 18
ATOM     18  CA  ILE B   2      27.611  10.677  -5.237  1.00 70.34 LIG 0.18  C 
BRANCH 18 19
ATOM     19  CB  ILE B   2      26.615  10.084  -4.191  1.00 70.35 LIG 0.01  C 
ATOM     20  CG2 ILE B   2      27.329   9.220  -3.139  1.00 70.46 LIG 0.01  C 
BRANCH 19 21
ATOM     21  CG1 ILE B   2      25.797  11.201  -3.523  1.00 70.36 LIG 0.00  C 
ATOM     22  CD1 ILE B   2      25.831  11.230  -1.994  1.00 70.48 LIG 0.01  C 
ENDBRANCH 19 21
ENDBRANCH 18 19
BRANCH 18 23
ATOM     23  C   ILE B   2      29.000  10.060  -5.101  1.00 70.53 LIG 0.24  C 
ATOM     24 O    ILE B   2      29.216   8.901  -5.465  1.00 70.63 LIG-0.27  OA
ATOM     25  N   ALA B   3      29.938  10.855  -4.587  1.00 70.71 LIG-0.35  N 
ATOM     26 H    ALA B   3      29.798  11.675  -4.370  1.00 70.71 LIG 0.16  HD
BRANCH 25 27
ATOM     27  CA  ALA B   3      31.305  10.402  -4.342  1.00 70.82 LIG 0.16  C 
ATOM     28  CB  ALA B   3      32.306  11.391  -4.925  1.00 70.79 LIG 0.04  C 
BRANCH 27 29
ATOM     29  C   ALA B   3      31.557  10.199  -2.849  1.00 70.87 LIG 0.22  C 
ATOM     30 O    ALA B   3      32.208  11.020  -2.198  1.00 70.95 LIG-0.29  OA
ENDBRANCH 27 29
ENDBRANCH 25 27
ENDBRANCH 18 23
ENDBRANCH 3 18
TORSDOF 13
ENDMDL
MODEL 5
USER: ADFR SOLUTION from run 47
USER: SCORE 13.821940 LL:  -1.632 LR: -13.420 RR:   0.000 FEB:  -9.542
USER: RMSD 2.316345
USER: SEED 46
USER: STATUS 1 or 2 clusters left
USER: GENES 15
USER: genes 0 Translation |==|  0.35192 0.54965 0.57546
USER: genes 1 Rotation |==|  0.43490 0.46290 0.40194 0.98453
USER: genes 2 Torsion [N]-C--CA-[N] |==|  0.43814
USER: genes 3 Torsion [C]-CA--N-[H3] |==|  0.13768
USER: genes 4 Torsion [C]-CA--CB-[CG] |==|  0.53396
USER: genes 5 Torsion [CA]-CB--CG-[CD] |==|  0.74795
USER: genes 6 Torsion [CB]-CG--CD-[CE] |==|  0.59356
USER: genes 7 Torsion [CG]-CD--CE-[NZ] |==|  0.26564
USER: genes 8 Torsion [CD]-CE--NZ-[HZ3] |==|  0.14490
USER: genes 9 Torsion [C]-N--CA-[CB] |==|  0.42050
USER: genes 10 Torsion [N]-CA--CB-[CG2] |==|  0.34132
USER: genes 11 Torsion [CA]-CB--CG1-[CD1] |==|  0.80505
USER: genes 12 Torsion [N]-CA--C-[N] |==|  0.92033
USER: genes 13 Torsion [C]-N--CA-[CB] |==|  0.30909
USER: genes 14 Torsion [N]-CA--C-[O] |==|  0.99343
ROOT
ATOM      1  C   LYS B   1      26.874  11.488  -7.342  1.00 69.77 LIG 0.25  C 
ATOM      2 O    LYS B   1      27.331  12.580  -7.010  1.00 69.73 LIG-0.27  OA
ATOM      3  N   ILE B   2      26.694  10.480  -6.491  1.00 70.01 LIG-0.35  N 
ATOM      4 H    ILE B   2      26.334   9.730  -6.710  1.00 70.01 LIG 0.16  HD
ENDROOT
BRANCH 1 5
ATOM      5  CA  LYS B   1      26.469  11.230  -8.786  1.00 69.63 LIG 0.27  C 
BRANCH 5 6
ATOM      6  N   LYS B   1      26.206  12.513  -9.497  1.00 69.58 LIG-0.07  N 
ATOM      7 H3   LYS B   1      26.885  13.073  -9.362  1.00 69.58 LIG 0.28  HD
ATOM      8 H2   LYS B   1      25.456  12.877  -9.185  1.00 69.58 LIG 0.28  HD
ATOM      9 H1   LYS B   1      26.120  12.357 -10.369  1.00 69.58 LIG 0.28  HD
ENDBRANCH 5 6
BRANCH 5 10
ATOM     10  CB  LYS B   1      27.562  10.426  -9.502  1.00 69.57 LIG 0.04  C 
BRANCH 10 11
ATOM     11  CG  LYS B   1      27.417  10.352 -11.019  1.00 69.38 LIG 0.00  C 
BRANCH 11 12
ATOM     12  CD  LYS B   1      26.603   9.145 -11.465  1.00 68.73 LIG 0.03  C 
BRANCH 12 13
ATOM     13  CE  LYS B   1      27.108   8.607 -12.794  1.00 68.60 LIG 0.23  C 
BRANCH 13 14
ATOM     14  NZ  LYS B   1      28.067   7.480 -12.620  1.00 68.55 LIG-0.08  N 
ATOM     15 HZ1  LYS B   1      28.250   7.121 -13.413  1.00 68.55 LIG 0.27  HD
ATOM     16 HZ2  LYS B   1      28.818   7.783 -12.252  1.00 68.55 LIG 0.27  HD
ATOM     17 HZ3  LYS B   1      27.706   6.862 -12.091  1.00 68.55 LIG 0.27  HD
ENDBRANCH 13 14
ENDBRANCH 12 13
ENDBRANCH 11 12
ENDBRANCH 10 11
ENDBRANCH 5 10
ENDBRANCH 1 5
BRANCH 3 18
ATOM     18  CA  ILE B   2      27.098  10.563  -5.090  1.00 70.34 LIG 0.18  C 
BRANCH 18 19
ATOM     19  CB  ILE B   2      26.206   9.663  -4.177  1.00 70.35 LIG 0.01  C 
ATOM     20  CG2 ILE B   2      27.037   8.641  -3.384  1.00 70.46 LIG 0.01  C 
BRANCH 19 21
ATOM     21  CG1 ILE B   2      25.349  10.525  -3.234  1.00 70.36 LIG 0.00  C 
ATOM     22  CD1 ILE B   2      26.105  11.251  -2.121  1.00 70.48 LIG 0.01  C 
ENDBRANCH 19 21
ENDBRANCH 18 19
BRANCH 18 23
ATOM     23  C   ILE B   2      28.578  10.225  -4.933  1.00 70.53 LIG 0.24  C 
ATOM     24 O    ILE B   2      29.240  10.699  -4.005  1.00 70.63 LIG-0.27  OA
ATOM     25  N   ALA B   3      29.080   9.390  -5.842  1.00 70.71 LIG-0.35  N 
ATOM     26 H    ALA B   3      28.610   9.029  -6.465  1.00 70.71 LIG 0.16  HD
BRANCH 25 27
ATOM     27  CA  ALA B   3      30.489   9.007  -5.864  1.00 70.82 LIG 0.16  C 
ATOM     28  CB  ALA B   3      30.648   7.540  -5.488  1.00 70.79 LIG 0.04  C 
BRANCH 27 29
ATOM     29  C   ALA B   3      31.110   9.281  -7.233  1.00 70.87 LIG 0.22  C 
ATOM     30 O    ALA B   3      30.430   9.724  -8.161  1.00 70.95 LIG-0.29  OA
ENDBRANCH 27 29
ENDBRANCH 25 27
ENDBRANCH 18 23
ENDBRANCH 3 18
TORSDOF 13
ENDMDL
MODEL 6
USER: ADFR SOLUTION from run 99
USER: SCORE 13.200945 LL:  -1.164 LR: -13.316 RR:   0.000 FEB:  -9.439
USER: RMSD 2.630530
USER: SEED 98
USER: STATUS searching
USER: GENES 15
USER: genes 0 Translation |==|  0.39484 0.55822 0.58814
USER: genes 1 Rotation |==|  0.45778 0.44303 0.37908 0.97995
USER: genes 2 Torsion [N]-C--CA-[N] |==|  0.20140
USER: genes 3 Torsion [C]-CA--N-[H3] |==|  0.06052
USER: genes 4 Torsion [C]-CA--CB-[CG] |==|  0.65769
USER: genes 5 Torsion [CA]-CB--CG-[CD] |==|  0.76349
USER: genes 6 Torsion [CB]-CG--CD-[CE] |==|  0.51949
USER: genes 7 Torsion [CG]-CD--CE-[NZ] |==|  0.66313
USER: genes 8 Torsion [CD]-CE--NZ-[HZ3] |==|  0.14874
USER: genes 9 Torsion [C]-N--CA-[CB] |==|  0.43759
USER: genes 10 Torsion [N]-CA--CB-[CG2] |==|  0.21706
USER: genes 11 Torsion [CA]-CB--CG1-[CD1] |==|  0.16288
USER: genes 12 Torsion [N]-CA--C-[N] |==|  0.93588
USER: genes 13 Torsion [C]-N--CA-[CB] |==|  0.22239
USER: genes 14 Torsion [N]-CA--C-[O] |==|  0.02890
ROOT
ATOM      1  C   LYS B   1      27.550  11.597  -7.085  1.00 69.77 LIG 0.25  C 
ATOM      2 O    LYS B   1      28.043  12.622  -6.619  1.00 69.73 LIG-0.27  OA
ATOM      3  N   ILE B   2      27.206  10.547  -6.343  1.00 70.01 LIG-0.35  N 
ATOM      4 H    ILE B   2      26.820   9.846  -6.658  1.00 70.01 LIG 0.16  HD
ENDROOT
BRANCH 1 5
ATOM      5  CA  LYS B   1      27.291  11.478  -8.580  1.00 69.63 LIG 0.27  C 
BRANCH 5 6
ATOM      6  N   LYS B   1      25.831  11.570  -8.870  1.00 69.58 LIG-0.07  N 
ATOM      7 H3   LYS B   1      25.419  11.980  -8.196  1.00 69.58 LIG 0.28  HD
ATOM      8 H2   LYS B   1      25.496  10.751  -8.967  1.00 69.58 LIG 0.28  HD
ATOM      9 H1   LYS B   1      25.706  12.032  -9.620  1.00 69.58 LIG 0.28  HD
ENDBRANCH 5 6
BRANCH 5 10
ATOM     10  CB  LYS B   1      28.064  12.565  -9.336  1.00 69.57 LIG 0.04  C 
BRANCH 10 11
ATOM     11  CG  LYS B   1      27.207  13.476 -10.209  1.00 69.38 LIG 0.00  C 
BRANCH 11 12
ATOM     12  CD  LYS B   1      26.956  12.887 -11.591  1.00 68.73 LIG 0.03  C 
BRANCH 12 13
ATOM     13  CE  LYS B   1      26.249  13.886 -12.492  1.00 68.60 LIG 0.23  C 
BRANCH 13 14
ATOM     14  NZ  LYS B   1      24.945  13.369 -12.995  1.00 68.55 LIG-0.08  N 
ATOM     15 HZ1  LYS B   1      24.522  14.014 -13.439  1.00 68.55 LIG 0.27  HD
ATOM     16 HZ2  LYS B   1      25.089  12.680 -13.539  1.00 68.55 LIG 0.27  HD
ATOM     17 HZ3  LYS B   1      24.445  13.105 -12.308  1.00 68.55 LIG 0.27  HD
ENDBRANCH 13 14
ENDBRANCH 12 13
ENDBRANCH 11 12
ENDBRANCH 10 11
ENDBRANCH 5 10
ENDBRANCH 1 5
BRANCH 3 18
ATOM     18  CA  ILE B   2      27.457  10.495  -4.905  1.00 70.34 LIG 0.18  C 
BRANCH 18 19
ATOM     19  CB  ILE B   2      26.506   9.485  -4.188  1.00 70.35 LIG 0.01  C 
ATOM     20  CG2 ILE B   2      26.960   8.029  -4.380  1.00 70.46 LIG 0.01  C 
BRANCH 19 21
ATOM     21  CG1 ILE B   2      26.373   9.828  -2.695  1.00 70.36 LIG 0.00  C 
ATOM     22  CD1 ILE B   2      25.840  11.226  -2.376  1.00 70.48 LIG 0.01  C 
ENDBRANCH 19 21
ENDBRANCH 18 19
BRANCH 18 23
ATOM     23  C   ILE B   2      28.924  10.179  -4.623  1.00 70.53 LIG 0.24  C 
ATOM     24 O    ILE B   2      29.439  10.480  -3.543  1.00 70.63 LIG-0.27  OA
ATOM     25  N   ALA B   3      29.578   9.555  -5.601  1.00 70.71 LIG-0.35  N 
ATOM     26 H    ALA B   3      29.209   9.309  -6.338  1.00 70.71 LIG 0.16  HD
BRANCH 25 27
ATOM     27  CA  ALA B   3      30.999   9.227  -5.512  1.00 70.82 LIG 0.16  C 
ATOM     28  CB  ALA B   3      31.204   7.968  -4.680  1.00 70.79 LIG 0.04  C 
BRANCH 27 29
ATOM     29  C   ALA B   3      31.611   9.058  -6.902  1.00 70.87 LIG 0.22  C 
ATOM     30 O    ALA B   3      30.985   9.380  -7.914  1.00 70.95 LIG-0.29  OA
ENDBRANCH 27 29
ENDBRANCH 25 27
ENDBRANCH 18 23
ENDBRANCH 3 18
TORSDOF 13
ENDMDL
MODEL 7
USER: ADFR SOLUTION from run 139
USER: SCORE 13.101559 LL:  -0.974 LR: -13.123 RR:   0.000 FEB:  -9.245
USER: RMSD 2.370261
USER: SEED 138
USER: STATUS searching
USER: GENES 15
USER: genes 0 Translation |==|  0.37289 0.53282 0.58709
USER: genes 1 Rotation |==|  0.43244 0.51747 0.41189 0.98720
USER: genes 2 Torsion [N]-C--CA-[N] |==|  0.39971
USER: genes 3 Torsion [C]-CA--N-[H3] |==|  0.36638
USER: genes 4 Torsion [C]-CA--CB-[CG] |==|  0.48174
USER: genes 5 Torsion [CA]-CB--CG-[CD] |==|  0.27244
USER: genes 6 Torsion [CB]-CG--CD-[CE] |==|  0.54360
USER: genes 7 Torsion [CG]-CD--CE-[NZ] |==|  0.36717
USER: genes 8 Torsion [CD]-CE--NZ-[HZ3] |==|  0.58003
USER: genes 9 Torsion [C]-N--CA-[CB] |==|  0.24243
USER: genes 10 Torsion [N]-CA--CB-[CG2] |==|  0.95438
USER: genes 11 Torsion [CA]-CB--CG1-[CD1] |==|  0.68556
USER: genes 12 Torsion [N]-CA--C-[N] |==|  0.40304
USER: genes 13 Torsion [C]-N--CA-[CB] |==|  0.18605
USER: genes 14 Torsion [N]-CA--C-[O] |==|  0.00372
ROOT
ATOM      1  C   LYS B   1      27.204  11.273  -7.106  1.00 69.77 LIG 0.25  C 
ATOM      2 O    LYS B   1      27.714  12.361  -6.846  1.00 69.73 LIG-0.27  OA
ATOM      3  N   ILE B   2      27.222  10.238  -6.270  1.00 70.01 LIG-0.35  N 
ATOM      4 H    ILE B   2      26.829   9.489  -6.430  1.00 70.01 LIG 0.16  HD
ENDROOT
BRANCH 1 5
ATOM      5  CA  LYS B   1      26.496  11.053  -8.435  1.00 69.63 LIG 0.27  C 
BRANCH 5 6
ATOM      6  N   LYS B   1      25.787  12.291  -8.866  1.00 69.58 LIG-0.07  N 
ATOM      7 H3   LYS B   1      25.980  12.463  -9.718  1.00 69.58 LIG 0.28  HD
ATOM      8 H2   LYS B   1      26.049  12.975  -8.360  1.00 69.58 LIG 0.28  HD
ATOM      9 H1   LYS B   1      24.909  12.176  -8.779  1.00 69.58 LIG 0.28  HD
ENDBRANCH 5 6
BRANCH 5 10
ATOM     10  CB  LYS B   1      27.505  10.606  -9.500  1.00 69.57 LIG 0.04  C 
BRANCH 10 11
ATOM     11  CG  LYS B   1      26.893  10.201 -10.838  1.00 69.38 LIG 0.00  C 
BRANCH 11 12
ATOM     12  CD  LYS B   1      26.950  11.324 -11.865  1.00 68.73 LIG 0.03  C 
BRANCH 12 13
ATOM     13  CE  LYS B   1      26.014  11.047 -13.030  1.00 68.60 LIG 0.23  C 
BRANCH 13 14
ATOM     14  NZ  LYS B   1      25.170  12.226 -13.370  1.00 68.55 LIG-0.08  N 
ATOM     15 HZ1  LYS B   1      25.007  12.697 -12.633  1.00 68.55 LIG 0.27  HD
ATOM     16 HZ2  LYS B   1      25.596  12.737 -13.960  1.00 68.55 LIG 0.27  HD
ATOM     17 HZ3  LYS B   1      24.399  11.949 -13.720  1.00 68.55 LIG 0.27  HD
ENDBRANCH 13 14
ENDBRANCH 12 13
ENDBRANCH 11 12
ENDBRANCH 10 11
ENDBRANCH 5 10
ENDBRANCH 1 5
BRANCH 3 18
ATOM     18  CA  ILE B   2      27.922  10.284  -4.989  1.00 70.34 LIG 0.18  C 
BRANCH 18 19
ATOM     19  CB  ILE B   2      27.016  10.862  -3.856  1.00 70.35 LIG 0.01  C 
ATOM     20  CG2 ILE B   2      25.791  11.603  -4.417  1.00 70.46 LIG 0.01  C 
BRANCH 19 21
ATOM     21  CG1 ILE B   2      26.589   9.752  -2.880  1.00 70.36 LIG 0.00  C 
ATOM     22  CD1 ILE B   2      25.099   9.408  -2.872  1.00 70.48 LIG 0.01  C 
ENDBRANCH 19 21
ENDBRANCH 18 19
BRANCH 18 23
ATOM     23  C   ILE B   2      28.467   8.906  -4.621  1.00 70.53 LIG 0.24  C 
ATOM     24 O    ILE B   2      27.854   7.881  -4.930  1.00 70.63 LIG-0.27  OA
ATOM     25  N   ALA B   3      29.631   8.900  -3.974  1.00 70.71 LIG-0.35  N 
ATOM     26 H    ALA B   3      30.078   9.612  -3.793  1.00 70.71 LIG 0.16  HD
BRANCH 25 27
ATOM     27  CA  ALA B   3      30.263   7.669  -3.505  1.00 70.82 LIG 0.16  C 
ATOM     28  CB  ALA B   3      30.705   6.814  -4.686  1.00 70.79 LIG 0.04  C 
BRANCH 27 29
ATOM     29  C   ALA B   3      31.448   7.974  -2.590  1.00 70.87 LIG 0.22  C 
ATOM     30 O    ALA B   3      31.750   9.137  -2.311  1.00 70.95 LIG-0.29  OA
ENDBRANCH 27 29
ENDBRANCH 25 27
ENDBRANCH 18 23
ENDBRANCH 3 18
TORSDOF 13
ENDMDL
MODEL 8
USER: ADFR SOLUTION from run 17
USER: SCORE 14.121173 LL:  -1.180 LR: -13.079 RR:   0.000 FEB:  -9.201
USER: RMSD 3.822855
USER: SEED 16
USER: STATUS no improvement in best in 8 clusters for 5 generations
USER: GENES 15
USER: genes 0 Translation |==|  0.37822 0.52981 0.57095
USER: genes 1 Rotation |==|  0.51120 0.52562 0.50875 0.99914
USER: genes 2 Torsion [N]-C--CA-[N] |==|  0.46011
USER: genes 3 Torsion [C]-CA--N-[H3] |==|  0.33853
USER: genes 4 Torsion [C]-CA--CB-[CG] |==|  0.49443
USER: genes 5 Torsion [CA]-CB--CG-[CD] |==|  0.73998
USER: genes 6 Torsion [CB]-CG--CD-[CE] |==|  0.70433
USER: genes 7 Torsion [CG]-CD--CE-[NZ] |==|  0.42102
USER: genes 8 Torsion [CD]-CE--NZ-[HZ3] |==|  0.97159
USER: genes 9 Torsion [C]-N--CA-[CB] |==|  0.84758
USER: genes 10 Torsion [N]-CA--CB-[CG2] |==|  0.52698
USER: genes 11 Torsion [CA]-CB--CG1-[CD1] |==|  0.87254
USER: genes 12 Torsion [N]-CA--C-[N] |==|  0.33942
USER: genes 13 Torsion [C]-N--CA-[CB] |==|  0.12643
USER: genes 14 Torsion [N]-CA--C-[O] |==|  0.84673
ROOT
ATOM      1  C   LYS B   1      27.288  11.235  -7.433  1.00 69.77 LIG 0.25  C 
ATOM      2 O    LYS B   1      27.400  12.291  -6.814  1.00 69.73 LIG-0.27  OA
ATOM      3  N   ILE B   2      27.745  10.069  -6.982  1.00 70.01 LIG-0.35  N 
ATOM      4 H    ILE B   2      27.630   9.321  -7.392  1.00 70.01 LIG 0.16  HD
ENDROOT
BRANCH 1 5
ATOM      5  CA  LYS B   1      26.591  11.206  -8.785  1.00 69.63 LIG 0.27  C 
BRANCH 5 6
ATOM      6  N   LYS B   1      25.835  12.470  -9.015  1.00 69.58 LIG-0.07  N 
ATOM      7 H3   LYS B   1      26.128  12.861  -9.760  1.00 69.58 LIG 0.28  HD
ATOM      8 H2   LYS B   1      25.957  13.020  -8.325  1.00 69.58 LIG 0.28  HD
ATOM      9 H1   LYS B   1      24.968  12.287  -9.099  1.00 69.58 LIG 0.28  HD
ENDBRANCH 5 6
BRANCH 5 10
ATOM     10  CB  LYS B   1      27.617  10.976  -9.901  1.00 69.57 LIG 0.04  C 
BRANCH 10 11
ATOM     11  CG  LYS B   1      27.030  10.880 -11.306  1.00 69.38 LIG 0.00  C 
BRANCH 11 12
ATOM     12  CD  LYS B   1      26.746   9.441 -11.718  1.00 68.73 LIG 0.03  C 
BRANCH 12 13
ATOM     13  CE  LYS B   1      27.762   8.954 -12.738  1.00 68.60 LIG 0.23  C 
BRANCH 13 14
ATOM     14  NZ  LYS B   1      27.969   7.480 -12.669  1.00 68.55 LIG-0.08  N 
ATOM     15 HZ1  LYS B   1      27.620   7.097 -13.392  1.00 68.55 LIG 0.27  HD
ATOM     16 HZ2  LYS B   1      28.841   7.304 -12.632  1.00 68.55 LIG 0.27  HD
ATOM     17 HZ3  LYS B   1      27.571   7.157 -11.941  1.00 68.55 LIG 0.27  HD
ENDBRANCH 13 14
ENDBRANCH 12 13
ENDBRANCH 11 12
ENDBRANCH 10 11
ENDBRANCH 5 10
ENDBRANCH 1 5
BRANCH 3 18
ATOM     18  CA  ILE B   2      28.492   9.957  -5.732  1.00 70.34 LIG 0.18  C 
BRANCH 18 19
ATOM     19  CB  ILE B   2      29.733  10.905  -5.713  1.00 70.35 LIG 0.01  C 
ATOM     20  CG2 ILE B   2      30.656  10.626  -4.516  1.00 70.46 LIG 0.01  C 
BRANCH 19 21
ATOM     21  CG1 ILE B   2      30.508  10.813  -7.038  1.00 70.36 LIG 0.00  C 
ATOM     22  CD1 ILE B   2      30.765   9.400  -7.565  1.00 70.48 LIG 0.01  C 
ENDBRANCH 19 21
ENDBRANCH 18 19
BRANCH 18 23
ATOM     23  C   ILE B   2      27.581  10.205  -4.533  1.00 70.53 LIG 0.24  C 
ATOM     24 O    ILE B   2      26.946  11.259  -4.428  1.00 70.63 LIG-0.27  OA
ATOM     25  N   ALA B   3      27.513   9.216  -3.643  1.00 70.71 LIG-0.35  N 
ATOM     26 H    ALA B   3      27.924   8.466  -3.735  1.00 70.71 LIG 0.16  HD
BRANCH 25 27
ATOM     27  CA  ALA B   3      26.728   9.315  -2.415  1.00 70.82 LIG 0.16  C 
ATOM     28  CB  ALA B   3      25.350   9.892  -2.709  1.00 70.79 LIG 0.04  C 
BRANCH 27 29
ATOM     29  C   ALA B   3      26.605   7.954  -1.731  1.00 70.87 LIG 0.22  C 
ATOM     30 O    ALA B   3      26.159   6.977  -2.338  1.00 70.95 LIG-0.29  OA
ENDBRANCH 27 29
ENDBRANCH 25 27
ENDBRANCH 18 23
ENDBRANCH 3 18
TORSDOF 13
ENDMDL
MODEL 9
USER: ADFR SOLUTION from run 197
USER: SCORE 13.696291 LL:  -0.778 LR: -12.924 RR:   0.000 FEB:  -9.046
USER: RMSD 3.986277
USER: SEED 196
USER: STATUS searching
USER: GENES 15
USER: genes 0 Translation |==|  0.41937 0.53952 0.56003
USER: genes 1 Rotation |==|  0.53930 0.52178 0.41476 0.99063
USER: genes 2 Torsion [N]-C--CA-[N] |==|  0.22434
USER: genes 3 Torsion [C]-CA--N-[H3] |==|  0.77308
USER: genes 4 Torsion [C]-CA--CB-[CG] |==|  0.56208
USER: genes 5 Torsion [CA]-CB--CG-[CD] |==|  0.80202
USER: genes 6 Torsion [CB]-CG--CD-[CE] |==|  0.51514
USER: genes 7 Torsion [CG]-CD--CE-[NZ] |==|  0.73447
USER: genes 8 Torsion [CD]-CE--NZ-[HZ3] |==|  0.14806
USER: genes 9 Torsion [C]-N--CA-[CB] |==|  0.84229
USER: genes 10 Torsion [N]-CA--CB-[CG2] |==|  0.27960
USER: genes 11 Torsion [CA]-CB--CG1-[CD1] |==|  0.01388
USER: genes 12 Torsion [N]-CA--C-[N] |==|  0.37706
USER: genes 13 Torsion [C]-N--CA-[CB] |==|  0.12963
USER: genes 14 Torsion [N]-CA--C-[O] |==|  0.91006
ROOT
ATOM      1  C   LYS B   1      27.936  11.359  -7.654  1.00 69.77 LIG 0.25  C 
ATOM      2 O    LYS B   1      28.421  12.235  -6.941  1.00 69.73 LIG-0.27  OA
ATOM      3  N   ILE B   2      27.915  10.071  -7.320  1.00 70.01 LIG-0.35  N 
ATOM      4 H    ILE B   2      27.539   9.460  -7.795  1.00 70.01 LIG 0.16  HD
ENDROOT
BRANCH 1 5
ATOM      5  CA  LYS B   1      27.307  11.716  -8.993  1.00 69.63 LIG 0.27  C 
BRANCH 5 6
ATOM      6  N   LYS B   1      25.824  11.805  -8.871  1.00 69.58 LIG-0.07  N 
ATOM      7 H3   LYS B   1      25.472  10.989  -8.914  1.00 69.58 LIG 0.28  HD
ATOM      8 H2   LYS B   1      25.500  12.302  -9.535  1.00 69.58 LIG 0.28  HD
ATOM      9 H1   LYS B   1      25.612  12.178  -8.091  1.00 69.58 LIG 0.28  HD
ENDBRANCH 5 6
BRANCH 5 10
ATOM     10  CB  LYS B   1      27.890  13.037  -9.511  1.00 69.57 LIG 0.04  C 
BRANCH 10 11
ATOM     11  CG  LYS B   1      27.014  13.775 -10.520  1.00 69.38 LIG 0.00  C 
BRANCH 11 12
ATOM     12  CD  LYS B   1      26.968  13.073 -11.870  1.00 68.73 LIG 0.03  C 
BRANCH 12 13
ATOM     13  CE  LYS B   1      26.200  13.899 -12.890  1.00 68.60 LIG 0.23  C 
BRANCH 13 14
ATOM     14  NZ  LYS B   1      24.774  13.482 -12.995  1.00 68.55 LIG-0.08  N 
ATOM     15 HZ1  LYS B   1      24.338  14.048 -13.525  1.00 68.55 LIG 0.27  HD
ATOM     16 HZ2  LYS B   1      24.728  12.662 -13.336  1.00 68.55 LIG 0.27  HD
ATOM     17 HZ3  LYS B   1      24.402  13.488 -12.186  1.00 68.55 LIG 0.27  HD
ENDBRANCH 13 14
ENDBRANCH 12 13
ENDBRANCH 11 12
ENDBRANCH 10 11
ENDBRANCH 5 10
ENDBRANCH 1 5
BRANCH 3 18
ATOM     18  CA  ILE B   2      28.540   9.574  -6.097  1.00 70.34 LIG 0.18  C 
BRANCH 18 19
ATOM     19  CB  ILE B   2      30.056   9.942  -6.031  1.00 70.35 LIG 0.01  C 
ATOM     20  CG2 ILE B   2      30.317  11.156  -5.124  1.00 70.46 LIG 0.01  C 
BRANCH 19 21
ATOM     21  CG1 ILE B   2      30.892   8.731  -5.585  1.00 70.36 LIG 0.00  C 
ATOM     22  CD1 ILE B   2      30.127   7.417  -5.416  1.00 70.48 LIG 0.01  C 
ENDBRANCH 19 21
ENDBRANCH 18 19
BRANCH 18 23
ATOM     23  C   ILE B   2      27.789  10.072  -4.864  1.00 70.53 LIG 0.24  C 
ATOM     24 O    ILE B   2      27.410  11.245  -4.787  1.00 70.63 LIG-0.27  OA
ATOM     25  N   ALA B   3      27.568   9.164  -3.916  1.00 70.71 LIG-0.35  N 
ATOM     26 H    ALA B   3      27.796   8.338  -3.987  1.00 70.71 LIG 0.16  HD
BRANCH 25 27
ATOM     27  CA  ALA B   3      26.909   9.490  -2.653  1.00 70.82 LIG 0.16  C 
ATOM     28  CB  ALA B   3      25.659  10.323  -2.905  1.00 70.79 LIG 0.04  C 
BRANCH 27 29
ATOM     29  C   ALA B   3      26.563   8.224  -1.872  1.00 70.87 LIG 0.22  C 
ATOM     30 O    ALA B   3      26.269   7.178  -2.456  1.00 70.95 LIG-0.29  OA
ENDBRANCH 27 29
ENDBRANCH 25 27
ENDBRANCH 18 23
ENDBRANCH 3 18
TORSDOF 13
ENDMDL
