MODEL 1
USER: ADFR SOLUTION from run 73
USER: SCORE 11.451244 LL:  -1.541 LR: -11.189 RR:   0.000 FEB:  -8.206
USER: RMSD 3.889059
USER: SEED 72
USER: STATUS no improvement in best in 18 clusters for 5 generations
USER: GENES 12
USER: genes 0 Translation |==|  0.35802 0.53540 0.56221
USER: genes 1 Rotation |==|  0.53308 0.42754 0.51200 0.99347
USER: genes 2 Torsion [C]-N--CA-[CB] |==|  0.15708
USER: genes 3 Torsion [N]-CA--CB-[CG2] |==|  0.37193
USER: genes 4 Torsion [CA]-CB--CG1-[CD1] |==|  0.61250
USER: genes 5 Torsion [N]-CA--C-[N] |==|  0.32679
USER: genes 6 Torsion [C]-N--CA-[CB] |==|  0.33325
USER: genes 7 Torsion [N]-CA--C-[O] |==|  0.18992
USER: genes 8 Torsion [N]-C--CA-[N] |==|  0.36341
USER: genes 9 Torsion [C]-CA--N-[H1] |==|  0.75899
USER: genes 10 Torsion [C]-CA--CB-[CG] |==|  0.87944
USER: genes 11 Torsion [CA]-CB--CG-[CD2] |==|  0.32968
ROOT
ATOM      1  C   HIS B   1      27.119  10.667  -6.675  1.00 77.53 LIG 0.25  C 
ATOM      2 O    HIS B   1      27.099  11.665  -5.960  1.00 77.48 LIG-0.27  OA
ATOM      3  N   ILE B   2      27.252   9.433  -6.200  1.00 78.06 LIG-0.35  N 
ATOM      4 H    ILE B   2      27.272   8.729  -6.695  1.00 78.06 LIG 0.16  HD
ENDROOT
BRANCH 3 5
ATOM      5  CA  ILE B   2      27.378   9.167  -4.772  1.00 78.69 LIG 0.18  C 
BRANCH 5 6
ATOM      6  CB  ILE B   2      26.169   9.753  -3.981  1.00 78.71 LIG 0.01  C 
ATOM      7  CG2 ILE B   2      25.605   8.746  -2.966  1.00 78.95 LIG 0.01  C 
BRANCH 6 8
ATOM      8  CG1 ILE B   2      26.530  11.100  -3.347  1.00 78.88 LIG 0.00  C 
ATOM      9  CD1 ILE B   2      25.980  11.284  -1.935  1.00 79.16 LIG 0.01  C 
ENDBRANCH 6 8
ENDBRANCH 5 6
BRANCH 5 10
ATOM     10  C   ILE B   2      27.578   7.668  -4.510  1.00 79.02 LIG 0.24  C 
ATOM     11 O    ILE B   2      26.709   6.857  -4.841  1.00 79.18 LIG-0.27  OA
ATOM     12  N   ALA B   3      28.727   7.314  -3.932  1.00 79.42 LIG-0.35  N 
ATOM     13 H    ALA B   3      29.318   7.882  -3.671  1.00 79.42 LIG 0.16  HD
BRANCH 12 14
ATOM     14  CA  ALA B   3      29.100   5.917  -3.684  1.00 79.64 LIG 0.16  C 
ATOM     15  CB  ALA B   3      30.393   5.580  -4.416  1.00 79.64 LIG 0.04  C 
BRANCH 14 16
ATOM     16  C   ALA B   3      29.228   5.583  -2.195  1.00 79.83 LIG 0.22  C 
ATOM     17 O    ALA B   3      28.230   5.564  -1.466  1.00 80.02 LIG-0.29  OA
ENDBRANCH 14 16
ENDBRANCH 12 14
ENDBRANCH 5 10
ENDBRANCH 3 5
BRANCH 1 18
ATOM     18  CA  HIS B   1      26.986  10.794  -8.182  1.00 77.18 LIG 0.28  C 
BRANCH 18 19
ATOM     19  N   HIS B   1      25.831  11.662  -8.548  1.00 77.06 LIG-0.07  N 
ATOM     20 H1   HIS B   1      25.090  11.170  -8.587  1.00 77.06 LIG 0.28  HD
ATOM     21 H2   HIS B   1      25.732  12.299  -7.934  1.00 77.06 LIG 0.28  HD
ATOM     22 H3   HIS B   1      25.980  12.037  -9.341  1.00 77.06 LIG 0.28  HD
ENDBRANCH 18 19
BRANCH 18 23
ATOM     23  CB  HIS B   1      28.282  11.333  -8.791  1.00 76.99 LIG 0.10  C 
BRANCH 23 24
ATOM     24  CG  HIS B   1      28.881  12.466  -8.020  1.00 76.37 LIG 0.06  A 
ATOM     25 ND1  HIS B   1      28.217  13.655  -7.808  1.00 75.55 LIG-0.24  NA
ATOM     26  CE1 HIS B   1      28.980  14.461  -7.091  1.00 75.32 LIG 0.23  A 
ATOM     27 NE2  HIS B   1      30.114  13.836  -6.827  1.00 75.43 LIG-0.25  NA
ATOM     28  CD2 HIS B   1      30.076  12.585  -7.395  1.00 75.70 LIG 0.14  A 
ENDBRANCH 23 24
ENDBRANCH 18 23
ENDBRANCH 1 18
TORSDOF 10
ENDMDL
MODEL 2
USER: ADFR SOLUTION from run 37
USER: SCORE 11.730572 LL:  -1.504 LR: -10.977 RR:   0.000 FEB:  -7.994
USER: RMSD 2.551557
USER: SEED 36
USER: STATUS searching
USER: GENES 12
USER: genes 0 Translation |==|  0.35260 0.55438 0.56103
USER: genes 1 Rotation |==|  0.49035 0.46737 0.50230 0.99884
USER: genes 2 Torsion [C]-N--CA-[CB] |==|  0.23889
USER: genes 3 Torsion [N]-CA--CB-[CG2] |==|  0.38478
USER: genes 4 Torsion [CA]-CB--CG1-[CD1] |==|  0.66576
USER: genes 5 Torsion [N]-CA--C-[N] |==|  0.83511
USER: genes 6 Torsion [C]-N--CA-[CB] |==|  0.79557
USER: genes 7 Torsion [N]-CA--C-[O] |==|  0.22548
USER: genes 8 Torsion [N]-C--CA-[N] |==|  0.41183
USER: genes 9 Torsion [C]-CA--N-[H1] |==|  0.40988
USER: genes 10 Torsion [C]-CA--CB-[CG] |==|  0.43354
USER: genes 11 Torsion [CA]-CB--CG-[CD2] |==|  0.97447
ROOT
ATOM      1  C   HIS B   1      27.033  10.937  -6.697  1.00 77.53 LIG 0.25  C 
ATOM      2 O    HIS B   1      27.169  12.037  -6.169  1.00 77.48 LIG-0.27  OA
ATOM      3  N   ILE B   2      27.193   9.791  -6.044  1.00 78.06 LIG-0.35  N 
ATOM      4 H    ILE B   2      27.105   9.016  -6.408  1.00 78.06 LIG 0.16  HD
ENDROOT
BRANCH 3 5
ATOM      5  CA  ILE B   2      27.539   9.753  -4.628  1.00 78.69 LIG 0.18  C 
BRANCH 5 6
ATOM      6  CB  ILE B   2      26.264   9.839  -3.734  1.00 78.71 LIG 0.01  C 
ATOM      7  CG2 ILE B   2      26.335   8.877  -2.538  1.00 78.95 LIG 0.01  C 
BRANCH 6 8
ATOM      8  CG1 ILE B   2      25.981  11.287  -3.319  1.00 78.88 LIG 0.00  C 
ATOM      9  CD1 ILE B   2      25.980  11.505  -1.809  1.00 79.16 LIG 0.01  C 
ENDBRANCH 6 8
ENDBRANCH 5 6
BRANCH 5 10
ATOM     10  C   ILE B   2      28.397   8.523  -4.306  1.00 79.02 LIG 0.24  C 
ATOM     11 O    ILE B   2      29.521   8.660  -3.814  1.00 79.18 LIG-0.27  OA
ATOM     12  N   ALA B   3      27.855   7.334  -4.573  1.00 79.42 LIG-0.35  N 
ATOM     13 H    ALA B   3      27.086   7.240  -4.946  1.00 79.42 LIG 0.16  HD
BRANCH 12 14
ATOM     14  CA  ALA B   3      28.517   6.064  -4.253  1.00 79.64 LIG 0.16  C 
ATOM     15  CB  ALA B   3      29.668   5.813  -5.219  1.00 79.64 LIG 0.04  C 
BRANCH 14 16
ATOM     16  C   ALA B   3      29.009   5.988  -2.805  1.00 79.83 LIG 0.22  C 
ATOM     17 O    ALA B   3      28.230   5.699  -1.890  1.00 80.02 LIG-0.29  OA
ENDBRANCH 14 16
ENDBRANCH 12 14
ENDBRANCH 5 10
ENDBRANCH 3 5
BRANCH 1 18
ATOM     18  CA  HIS B   1      26.663  10.826  -8.165  1.00 77.18 LIG 0.28  C 
BRANCH 18 19
ATOM     19  N   HIS B   1      25.806  11.968  -8.591  1.00 77.06 LIG-0.07  N 
ATOM     20 H1   HIS B   1      25.975  12.165  -9.443  1.00 77.06 LIG 0.28  HD
ATOM     21 H2   HIS B   1      24.948  11.745  -8.502  1.00 77.06 LIG 0.28  HD
ATOM     22 H3   HIS B   1      25.981  12.677  -8.083  1.00 77.06 LIG 0.28  HD
ENDBRANCH 18 19
BRANCH 18 23
ATOM     23  CB  HIS B   1      27.922  10.741  -9.031  1.00 76.99 LIG 0.10  C 
BRANCH 23 24
ATOM     24  CG  HIS B   1      27.695  10.082 -10.355  1.00 76.37 LIG 0.06  A 
ATOM     25 ND1  HIS B   1      28.653  10.053 -11.345  1.00 75.55 LIG-0.24  NA
ATOM     26  CE1 HIS B   1      28.182   9.399 -12.392  1.00 75.32 LIG 0.23  A 
ATOM     27 NE2  HIS B   1      26.954   8.999 -12.114  1.00 75.43 LIG-0.25  NA
ATOM     28  CD2 HIS B   1      26.626   9.412 -10.846  1.00 75.70 LIG 0.14  A 
ENDBRANCH 23 24
ENDBRANCH 18 23
ENDBRANCH 1 18
TORSDOF 10
ENDMDL
MODEL 3
USER: ADFR SOLUTION from run 161
USER: SCORE 10.564650 LL:  -1.467 LR: -10.802 RR:   0.000 FEB:  -7.819
USER: RMSD 1.866650
USER: SEED 160
USER: STATUS no improvement in best in 8 clusters for 5 generations
USER: GENES 12
USER: genes 0 Translation |==|  0.36684 0.58058 0.54204
USER: genes 1 Rotation |==|  0.44781 0.48277 0.44583 0.99401
USER: genes 2 Torsion [C]-N--CA-[CB] |==|  0.38609
USER: genes 3 Torsion [N]-CA--CB-[CG2] |==|  0.38598
USER: genes 4 Torsion [CA]-CB--CG1-[CD1] |==|  0.74787
USER: genes 5 Torsion [N]-CA--C-[N] |==|  0.32044
USER: genes 6 Torsion [C]-N--CA-[CB] |==|  0.34690
USER: genes 7 Torsion [N]-CA--C-[O] |==|  0.74028
USER: genes 8 Torsion [N]-C--CA-[N] |==|  0.38725
USER: genes 9 Torsion [C]-CA--N-[H1] |==|  0.37432
USER: genes 10 Torsion [C]-CA--CB-[CG] |==|  0.42831
USER: genes 11 Torsion [CA]-CB--CG-[CD2] |==|  0.99193
ROOT
ATOM      1  C   HIS B   1      27.258  11.310  -7.053  1.00 77.53 LIG 0.25  C 
ATOM      2 O    HIS B   1      27.682  12.412  -6.714  1.00 77.48 LIG-0.27  OA
ATOM      3  N   ILE B   2      27.196  10.268  -6.231  1.00 78.06 LIG-0.35  N 
ATOM      4 H    ILE B   2      26.905   9.492  -6.462  1.00 78.06 LIG 0.16  HD
ENDROOT
BRANCH 3 5
ATOM      5  CA  ILE B   2      27.626  10.359  -4.840  1.00 78.69 LIG 0.18  C 
BRANCH 5 6
ATOM      6  CB  ILE B   2      26.648   9.593  -3.897  1.00 78.71 LIG 0.01  C 
ATOM      7  CG2 ILE B   2      27.398   8.808  -2.809  1.00 78.95 LIG 0.01  C 
BRANCH 6 8
ATOM      8  CG1 ILE B   2      25.584  10.537  -3.327  1.00 78.88 LIG 0.00  C 
ATOM      9  CD1 ILE B   2      25.980  11.181  -2.001  1.00 79.16 LIG 0.01  C 
ENDBRANCH 6 8
ENDBRANCH 5 6
BRANCH 5 10
ATOM     10  C   ILE B   2      29.078   9.889  -4.685  1.00 79.02 LIG 0.24  C 
ATOM     11 O    ILE B   2      29.383   8.718  -4.929  1.00 79.18 LIG-0.27  OA
ATOM     12  N   ALA B   3      29.961  10.808  -4.294  1.00 79.42 LIG-0.35  N 
ATOM     13 H    ALA B   3      29.743  11.615  -4.091  1.00 79.42 LIG 0.16  HD
BRANCH 12 14
ATOM     14  CA  ALA B   3      31.398  10.536  -4.171  1.00 79.64 LIG 0.16  C 
ATOM     15  CB  ALA B   3      32.195  11.533  -5.002  1.00 79.64 LIG 0.04  C 
BRANCH 14 16
ATOM     16  C   ALA B   3      31.890  10.537  -2.721  1.00 79.83 LIG 0.22  C 
ATOM     17 O    ALA B   3      32.355  11.564  -2.215  1.00 80.02 LIG-0.29  OA
ENDBRANCH 14 16
ENDBRANCH 12 14
ENDBRANCH 5 10
ENDBRANCH 3 5
BRANCH 1 18
ATOM     18  CA  HIS B   1      26.765  11.076  -8.470  1.00 77.18 LIG 0.28  C 
BRANCH 18 19
ATOM     19  N   HIS B   1      25.980  12.241  -8.966  1.00 77.06 LIG-0.07  N 
ATOM     20 H1   HIS B   1      26.238  12.442  -9.794  1.00 77.06 LIG 0.28  HD
ATOM     21 H2   HIS B   1      25.113  12.037  -8.966  1.00 77.06 LIG 0.28  HD
ATOM     22 H3   HIS B   1      26.119  12.941  -8.435  1.00 77.06 LIG 0.28  HD
ENDBRANCH 18 19
BRANCH 18 23
ATOM     23  CB  HIS B   1      27.941  10.778  -9.404  1.00 76.99 LIG 0.10  C 
BRANCH 23 24
ATOM     24  CG  HIS B   1      27.564   9.965 -10.602  1.00 76.37 LIG 0.06  A 
ATOM     25 ND1  HIS B   1      28.468   9.623 -11.583  1.00 75.55 LIG-0.24  NA
ATOM     26  CE1 HIS B   1      27.860   8.899 -12.506  1.00 75.32 LIG 0.23  A 
ATOM     27 NE2  HIS B   1      26.594   8.756 -12.157  1.00 75.43 LIG-0.25  NA
ATOM     28  CD2 HIS B   1      26.384   9.412 -10.968  1.00 75.70 LIG 0.14  A 
ENDBRANCH 23 24
ENDBRANCH 18 23
ENDBRANCH 1 18
TORSDOF 10
ENDMDL
MODEL 4
USER: ADFR SOLUTION from run 166
USER: SCORE 11.313124 LL:  -1.858 LR: -10.388 RR:   0.000 FEB:  -7.405
USER: RMSD 3.114623
USER: SEED 165
USER: STATUS searching
USER: GENES 12
USER: genes 0 Translation |==|  0.37505 0.55680 0.54939
USER: genes 1 Rotation |==|  0.50501 0.44213 0.49878 0.99661
USER: genes 2 Torsion [C]-N--CA-[CB] |==|  0.21736
USER: genes 3 Torsion [N]-CA--CB-[CG2] |==|  0.35696
USER: genes 4 Torsion [CA]-CB--CG1-[CD1] |==|  0.64203
USER: genes 5 Torsion [N]-CA--C-[N] |==|  0.41727
USER: genes 6 Torsion [C]-N--CA-[CB] |==|  0.42683
USER: genes 7 Torsion [N]-CA--C-[O] |==|  0.97096
USER: genes 8 Torsion [N]-C--CA-[N] |==|  0.35106
USER: genes 9 Torsion [C]-CA--N-[H1] |==|  0.40956
USER: genes 10 Torsion [C]-CA--CB-[CG] |==|  0.18719
USER: genes 11 Torsion [CA]-CB--CG-[CD2] |==|  0.31660
ROOT
ATOM      1  C   HIS B   1      27.387  10.971  -6.915  1.00 77.53 LIG 0.25  C 
ATOM      2 O    HIS B   1      27.474  12.037  -6.311  1.00 77.48 LIG-0.27  OA
ATOM      3  N   ILE B   2      27.474   9.787  -6.320  1.00 78.06 LIG-0.35  N 
ATOM      4 H    ILE B   2      27.419   9.036  -6.736  1.00 78.06 LIG 0.16  HD
ENDROOT
BRANCH 3 5
ATOM      5  CA  ILE B   2      27.674   9.662  -4.880  1.00 78.69 LIG 0.18  C 
BRANCH 5 6
ATOM      6  CB  ILE B   2      26.343   9.903  -4.104  1.00 78.71 LIG 0.01  C 
ATOM      7  CG2 ILE B   2      26.044   8.768  -3.112  1.00 78.95 LIG 0.01  C 
BRANCH 6 8
ATOM      8  CG1 ILE B   2      26.335  11.287  -3.446  1.00 78.88 LIG 0.00  C 
ATOM      9  CD1 ILE B   2      25.980  11.262  -1.962  1.00 79.16 LIG 0.01  C 
ENDBRANCH 6 8
ENDBRANCH 5 6
BRANCH 5 10
ATOM     10  C   ILE B   2      28.319   8.314  -4.533  1.00 79.02 LIG 0.24  C 
ATOM     11 O    ILE B   2      28.124   7.327  -5.249  1.00 79.18 LIG-0.27  OA
ATOM     12  N   ALA B   3      29.092   8.288  -3.446  1.00 79.42 LIG-0.35  N 
ATOM     13 H    ALA B   3      29.201   8.966  -2.929  1.00 79.42 LIG 0.16  HD
BRANCH 12 14
ATOM     14  CA  ALA B   3      29.838   7.097  -3.024  1.00 79.64 LIG 0.16  C 
ATOM     15  CB  ALA B   3      31.064   7.503  -2.216  1.00 79.64 LIG 0.04  C 
BRANCH 14 16
ATOM     16  C   ALA B   3      28.985   6.101  -2.233  1.00 79.83 LIG 0.22  C 
ATOM     17 O    ALA B   3      27.855   6.412  -1.841  1.00 80.02 LIG-0.29  OA
ENDBRANCH 14 16
ENDBRANCH 12 14
ENDBRANCH 5 10
ENDBRANCH 3 5
BRANCH 1 18
ATOM     18  CA  HIS B   1      27.166  10.952  -8.418  1.00 77.18 LIG 0.28  C 
BRANCH 18 19
ATOM     19  N   HIS B   1      25.980  11.769  -8.797  1.00 77.06 LIG-0.07  N 
ATOM     20 H1   HIS B   1      26.116  12.136  -9.597  1.00 77.06 LIG 0.28  HD
ATOM     21 H2   HIS B   1      25.258  11.249  -8.828  1.00 77.06 LIG 0.28  HD
ATOM     22 H3   HIS B   1      25.857  12.412  -8.194  1.00 77.06 LIG 0.28  HD
ENDBRANCH 18 19
BRANCH 18 23
ATOM     23  CB  HIS B   1      28.418  11.441  -9.150  1.00 76.99 LIG 0.10  C 
BRANCH 23 24
ATOM     24  CG  HIS B   1      29.587  10.516  -9.023  1.00 76.37 LIG 0.06  A 
ATOM     25 ND1  HIS B   1      30.206  10.261  -7.819  1.00 75.55 LIG-0.24  NA
ATOM     26  CE1 HIS B   1      31.194   9.404  -8.007  1.00 75.32 LIG 0.23  A 
ATOM     27 NE2  HIS B   1      31.235   9.091  -9.290  1.00 75.43 LIG-0.25  NA
ATOM     28  CD2 HIS B   1      30.238   9.771  -9.946  1.00 75.70 LIG 0.14  A 
ENDBRANCH 23 24
ENDBRANCH 18 23
ENDBRANCH 1 18
TORSDOF 10
ENDMDL
MODEL 5
USER: ADFR SOLUTION from run 95
USER: SCORE 10.645940 LL:  -1.320 LR: -10.379 RR:   0.000 FEB:  -7.396
USER: RMSD 3.275685
USER: SEED 94
USER: STATUS no improvement in best in 9 clusters for 5 generations
USER: GENES 12
USER: genes 0 Translation |==|  0.39229 0.52758 0.57338
USER: genes 1 Rotation |==|  0.51439 0.52100 0.34702 0.97534
USER: genes 2 Torsion [C]-N--CA-[CB] |==|  0.23660
USER: genes 3 Torsion [N]-CA--CB-[CG2] |==|  0.96657
USER: genes 4 Torsion [CA]-CB--CG1-[CD1] |==|  0.25902
USER: genes 5 Torsion [N]-CA--C-[N] |==|  0.35680
USER: genes 6 Torsion [C]-N--CA-[CB] |==|  0.31351
USER: genes 7 Torsion [N]-CA--C-[O] |==|  0.14596
USER: genes 8 Torsion [N]-C--CA-[N] |==|  0.11939
USER: genes 9 Torsion [C]-CA--N-[H1] |==|  0.84678
USER: genes 10 Torsion [C]-CA--CB-[CG] |==|  0.40792
USER: genes 11 Torsion [CA]-CB--CG-[CD2] |==|  0.01518
ROOT
ATOM      1  C   HIS B   1      27.659  10.555  -6.465  1.00 77.53 LIG 0.25  C 
ATOM      2 O    HIS B   1      28.497  11.260  -5.911  1.00 77.48 LIG-0.27  OA
ATOM      3  N   ILE B   2      27.196   9.424  -5.942  1.00 78.06 LIG-0.35  N 
ATOM      4 H    ILE B   2      26.613   8.922  -6.327  1.00 78.06 LIG 0.16  HD
ENDROOT
BRANCH 3 5
ATOM      5  CA  ILE B   2      27.651   8.933  -4.647  1.00 78.69 LIG 0.18  C 
BRANCH 5 6
ATOM      6  CB  ILE B   2      26.837   9.577  -3.483  1.00 78.71 LIG 0.01  C 
ATOM      7  CG2 ILE B   2      25.986  10.762  -3.965  1.00 78.95 LIG 0.01  C 
BRANCH 6 8
ATOM      8  CG1 ILE B   2      26.018   8.518  -2.736  1.00 78.88 LIG 0.00  C 
ATOM      9  CD1 ILE B   2      26.730   7.933  -1.520  1.00 79.16 LIG 0.01  C 
ENDBRANCH 6 8
ENDBRANCH 5 6
BRANCH 5 10
ATOM     10  C   ILE B   2      27.624   7.400  -4.602  1.00 79.02 LIG 0.24  C 
ATOM     11 O    ILE B   2      26.607   6.785  -4.936  1.00 79.18 LIG-0.27  OA
ATOM     12  N   ALA B   3      28.745   6.797  -4.205  1.00 79.42 LIG-0.35  N 
ATOM     13 H    ALA B   3      29.442   7.226  -3.940  1.00 79.42 LIG 0.16  HD
BRANCH 12 14
ATOM     14  CA  ALA B   3      28.904   5.339  -4.180  1.00 79.64 LIG 0.16  C 
ATOM     15  CB  ALA B   3      29.932   4.903  -5.216  1.00 79.64 LIG 0.04  C 
BRANCH 14 16
ATOM     16  C   ALA B   3      29.278   4.796  -2.798  1.00 79.83 LIG 0.22  C 
ATOM     17 O    ALA B   3      28.604   5.089  -1.804  1.00 80.02 LIG-0.29  OA
ENDBRANCH 14 16
ENDBRANCH 12 14
ENDBRANCH 5 10
ENDBRANCH 3 5
BRANCH 1 18
ATOM     18  CA  HIS B   1      27.088  10.952  -7.816  1.00 77.18 LIG 0.28  C 
BRANCH 18 19
ATOM     19  N   HIS B   1      25.613  10.741  -7.859  1.00 77.06 LIG-0.07  N 
ATOM     20 H1   HIS B   1      25.428   9.896  -7.645  1.00 77.06 LIG 0.28  HD
ATOM     21 H2   HIS B   1      25.218  11.287  -7.278  1.00 77.06 LIG 0.28  HD
ATOM     22 H3   HIS B   1      25.312  10.912  -8.678  1.00 77.06 LIG 0.28  HD
ENDBRANCH 18 19
BRANCH 18 23
ATOM     23  CB  HIS B   1      27.436  12.406  -8.139  1.00 76.99 LIG 0.10  C 
BRANCH 23 24
ATOM     24  CG  HIS B   1      27.647  12.662  -9.598  1.00 76.37 LIG 0.06  A 
ATOM     25 ND1  HIS B   1      28.095  13.871 -10.084  1.00 75.55 LIG-0.24  NA
ATOM     26  CE1 HIS B   1      28.196  13.804 -11.399  1.00 75.32 LIG 0.23  A 
ATOM     27 NE2  HIS B   1      27.834  12.593 -11.784  1.00 75.43 LIG-0.25  NA
ATOM     28  CD2 HIS B   1      27.488  11.859 -10.675  1.00 75.70 LIG 0.14  A 
ENDBRANCH 23 24
ENDBRANCH 18 23
ENDBRANCH 1 18
TORSDOF 10
ENDMDL
MODEL 6
USER: ADFR SOLUTION from run 113
USER: SCORE 10.999241 LL:  -2.050 LR: -10.159 RR:   0.000 FEB:  -7.176
USER: RMSD 3.403334
USER: SEED 112
USER: STATUS no improvement in best in 10 clusters for 5 generations
USER: GENES 12
USER: genes 0 Translation |==|  0.35930 0.55652 0.55280
USER: genes 1 Rotation |==|  0.51607 0.40716 0.54092 0.98933
USER: genes 2 Torsion [C]-N--CA-[CB] |==|  0.41643
USER: genes 3 Torsion [N]-CA--CB-[CG2] |==|  0.22265
USER: genes 4 Torsion [CA]-CB--CG1-[CD1] |==|  0.07032
USER: genes 5 Torsion [N]-CA--C-[N] |==|  0.90265
USER: genes 6 Torsion [C]-N--CA-[CB] |==|  0.77865
USER: genes 7 Torsion [N]-CA--C-[O] |==|  0.69978
USER: genes 8 Torsion [N]-C--CA-[N] |==|  0.37037
USER: genes 9 Torsion [C]-CA--N-[H1] |==|  0.76008
USER: genes 10 Torsion [C]-CA--CB-[CG] |==|  0.89589
USER: genes 11 Torsion [CA]-CB--CG-[CD2] |==|  0.34420
ROOT
ATOM      1  C   HIS B   1      27.139  10.967  -6.851  1.00 77.53 LIG 0.25  C 
ATOM      2 O    HIS B   1      26.956  12.010  -6.228  1.00 77.48 LIG-0.27  OA
ATOM      3  N   ILE B   2      27.343   9.793  -6.264  1.00 78.06 LIG-0.35  N 
ATOM      4 H    ILE B   2      27.477   9.060  -6.693  1.00 78.06 LIG 0.16  HD
ENDROOT
BRANCH 3 5
ATOM      5  CA  ILE B   2      27.356   9.651  -4.812  1.00 78.69 LIG 0.18  C 
BRANCH 5 6
ATOM      6  CB  ILE B   2      26.865   8.236  -4.380  1.00 78.71 LIG 0.01  C 
ATOM      7  CG2 ILE B   2      27.972   7.179  -4.513  1.00 78.95 LIG 0.01  C 
BRANCH 6 8
ATOM      8  CG1 ILE B   2      26.243   8.276  -2.980  1.00 78.88 LIG 0.00  C 
ATOM      9  CD1 ILE B   2      25.688   9.643  -2.591  1.00 79.16 LIG 0.01  C 
ENDBRANCH 6 8
ENDBRANCH 5 6
BRANCH 5 10
ATOM     10  C   ILE B   2      28.740   9.990  -4.242  1.00 79.02 LIG 0.24  C 
ATOM     11 O    ILE B   2      28.842  10.537  -3.139  1.00 79.18 LIG-0.27  OA
ATOM     12  N   ALA B   3      29.790   9.649  -4.989  1.00 79.42 LIG-0.35  N 
ATOM     13 H    ALA B   3      29.718   9.299  -5.772  1.00 79.42 LIG 0.16  HD
BRANCH 12 14
ATOM     14  CA  ALA B   3      31.178   9.837  -4.551  1.00 79.64 LIG 0.16  C 
ATOM     15  CB  ALA B   3      31.601  11.287  -4.747  1.00 79.64 LIG 0.04  C 
BRANCH 14 16
ATOM     16  C   ALA B   3      31.417   9.403  -3.102  1.00 79.83 LIG 0.22  C 
ATOM     17 O    ALA B   3      31.606  10.244  -2.216  1.00 80.02 LIG-0.29  OA
ENDBRANCH 14 16
ENDBRANCH 12 14
ENDBRANCH 5 10
ENDBRANCH 3 5
BRANCH 1 18
ATOM     18  CA  HIS B   1      27.139  10.966  -8.370  1.00 77.18 LIG 0.28  C 
BRANCH 18 19
ATOM     19  N   HIS B   1      25.980  11.732  -8.908  1.00 77.06 LIG-0.07  N 
ATOM     20 H1   HIS B   1      25.271  11.196  -8.965  1.00 77.06 LIG 0.28  HD
ATOM     21 H2   HIS B   1      25.795  12.412  -8.364  1.00 77.06 LIG 0.28  HD
ATOM     22 H3   HIS B   1      26.180  12.045  -9.717  1.00 77.06 LIG 0.28  HD
ENDBRANCH 18 19
BRANCH 18 23
ATOM     23  CB  HIS B   1      28.457  11.530  -8.906  1.00 76.99 LIG 0.10  C 
BRANCH 23 24
ATOM     24  CG  HIS B   1      28.995  12.669  -8.099  1.00 76.37 LIG 0.06  A 
ATOM     25 ND1  HIS B   1      28.259  13.802  -7.829  1.00 75.55 LIG-0.24  NA
ATOM     26  CE1 HIS B   1      28.980  14.627  -7.091  1.00 75.32 LIG 0.23  A 
ATOM     27 NE2  HIS B   1      30.156  14.068  -6.869  1.00 75.43 LIG-0.25  NA
ATOM     28  CD2 HIS B   1      30.190  12.841  -7.487  1.00 75.70 LIG 0.14  A 
ENDBRANCH 23 24
ENDBRANCH 18 23
ENDBRANCH 1 18
TORSDOF 10
ENDMDL
MODEL 7
USER: ADFR SOLUTION from run 107
USER: SCORE 10.769356 LL:  -1.878 LR: -10.101 RR:   0.000 FEB:  -7.118
USER: RMSD 1.855395
USER: SEED 106
USER: STATUS no improvement in best in 10 clusters for 5 generations
USER: GENES 12
USER: genes 0 Translation |==|  0.34660 0.57820 0.54618
USER: genes 1 Rotation |==|  0.45010 0.47885 0.41577 0.98986
USER: genes 2 Torsion [C]-N--CA-[CB] |==|  0.39654
USER: genes 3 Torsion [N]-CA--CB-[CG2] |==|  0.35358
USER: genes 4 Torsion [CA]-CB--CG1-[CD1] |==|  0.79247
USER: genes 5 Torsion [N]-CA--C-[N] |==|  0.92089
USER: genes 6 Torsion [C]-N--CA-[CB] |==|  0.32514
USER: genes 7 Torsion [N]-CA--C-[O] |==|  0.98416
USER: genes 8 Torsion [N]-C--CA-[N] |==|  0.40509
USER: genes 9 Torsion [C]-CA--N-[H1] |==|  0.04830
USER: genes 10 Torsion [C]-CA--CB-[CG] |==|  0.48191
USER: genes 11 Torsion [CA]-CB--CG-[CD2] |==|  0.73592
ROOT
ATOM      1  C   HIS B   1      26.939  11.276  -6.975  1.00 77.53 LIG 0.25  C 
ATOM      2 O    HIS B   1      27.480  12.317  -6.611  1.00 77.48 LIG-0.27  OA
ATOM      3  N   ILE B   2      26.730  10.242  -6.168  1.00 78.06 LIG-0.35  N 
ATOM      4 H    ILE B   2      26.356   9.509  -6.416  1.00 78.06 LIG 0.16  HD
ENDROOT
BRANCH 3 5
ATOM      5  CA  ILE B   2      27.125  10.270  -4.764  1.00 78.69 LIG 0.18  C 
BRANCH 5 6
ATOM      6  CB  ILE B   2      26.081   9.535  -3.869  1.00 78.71 LIG 0.01  C 
ATOM      7  CG2 ILE B   2      26.737   8.467  -2.981  1.00 78.95 LIG 0.01  C 
BRANCH 6 8
ATOM      8  CG1 ILE B   2      25.238  10.537  -3.074  1.00 78.88 LIG 0.00  C 
ATOM      9  CD1 ILE B   2      25.980  11.171  -1.901  1.00 79.16 LIG 0.01  C 
ENDBRANCH 6 8
ENDBRANCH 5 6
BRANCH 5 10
ATOM     10  C   ILE B   2      28.544   9.715  -4.584  1.00 79.02 LIG 0.24  C 
ATOM     11 O    ILE B   2      29.247  10.096  -3.643  1.00 79.18 LIG-0.27  OA
ATOM     12  N   ALA B   3      28.946   8.811  -5.478  1.00 79.42 LIG-0.35  N 
ATOM     13 H    ALA B   3      28.470   8.571  -6.153  1.00 79.42 LIG 0.16  HD
BRANCH 12 14
ATOM     14  CA  ALA B   3      30.245   8.132  -5.400  1.00 79.64 LIG 0.16  C 
ATOM     15  CB  ALA B   3      30.045   6.633  -5.216  1.00 79.64 LIG 0.04  C 
BRANCH 14 16
ATOM     16  C   ALA B   3      31.141   8.405  -6.612  1.00 79.83 LIG 0.22  C 
ATOM     17 O    ALA B   3      30.715   9.047  -7.578  1.00 80.02 LIG-0.29  OA
ENDBRANCH 14 16
ENDBRANCH 12 14
ENDBRANCH 5 10
ENDBRANCH 3 5
BRANCH 1 18
ATOM     18  CA  HIS B   1      26.465  11.113  -8.409  1.00 77.18 LIG 0.28  C 
BRANCH 18 19
ATOM     19  N   HIS B   1      25.980  12.408  -8.965  1.00 77.06 LIG-0.07  N 
ATOM     20 H1   HIS B   1      26.282  13.079  -8.463  1.00 77.06 LIG 0.28  HD
ATOM     21 H2   HIS B   1      26.278  12.503  -9.798  1.00 77.06 LIG 0.28  HD
ATOM     22 H3   HIS B   1      25.090  12.416  -8.966  1.00 77.06 LIG 0.28  HD
ENDBRANCH 18 19
BRANCH 18 23
ATOM     23  CB  HIS B   1      27.582  10.534  -9.280  1.00 76.99 LIG 0.10  C 
BRANCH 23 24
ATOM     24  CG  HIS B   1      27.145  10.201 -10.672  1.00 76.37 LIG 0.06  A 
ATOM     25 ND1  HIS B   1      27.136  11.127 -11.691  1.00 75.55 LIG-0.24  NA
ATOM     26  CE1 HIS B   1      26.716  10.551 -12.803  1.00 75.32 LIG 0.23  A 
ATOM     27 NE2  HIS B   1      26.456   9.282 -12.542  1.00 75.43 LIG-0.25  NA
ATOM     28  CD2 HIS B   1      26.719   9.037 -11.217  1.00 75.70 LIG 0.14  A 
ENDBRANCH 23 24
ENDBRANCH 18 23
ENDBRANCH 1 18
TORSDOF 10
ENDMDL
MODEL 8
USER: ADFR SOLUTION from run 153
USER: SCORE 10.603450 LL:  -2.240 LR: -10.068 RR:   0.000 FEB:  -7.085
USER: RMSD 2.971016
USER: SEED 152
USER: STATUS no improvement in best in 7 clusters for 5 generations
USER: GENES 12
USER: genes 0 Translation |==|  0.36285 0.57957 0.54424
USER: genes 1 Rotation |==|  0.44209 0.49005 0.44416 0.99339
USER: genes 2 Torsion [C]-N--CA-[CB] |==|  0.39017
USER: genes 3 Torsion [N]-CA--CB-[CG2] |==|  0.39339
USER: genes 4 Torsion [CA]-CB--CG1-[CD1] |==|  0.75238
USER: genes 5 Torsion [N]-CA--C-[N] |==|  0.32347
USER: genes 6 Torsion [C]-N--CA-[CB] |==|  0.35578
USER: genes 7 Torsion [N]-CA--C-[O] |==|  0.74394
USER: genes 8 Torsion [N]-C--CA-[N] |==|  0.40574
USER: genes 9 Torsion [C]-CA--N-[H1] |==|  0.29276
USER: genes 10 Torsion [C]-CA--CB-[CG] |==|  0.98691
USER: genes 11 Torsion [CA]-CB--CG-[CD2] |==|  0.75016
ROOT
ATOM      1  C   HIS B   1      27.195  11.296  -7.011  1.00 77.53 LIG 0.25  C 
ATOM      2 O    HIS B   1      27.641  12.399  -6.707  1.00 77.48 LIG-0.27  OA
ATOM      3  N   ILE B   2      27.147  10.270  -6.168  1.00 78.06 LIG-0.35  N 
ATOM      4 H    ILE B   2      26.841   9.494  -6.375  1.00 78.06 LIG 0.16  HD
ENDROOT
BRANCH 3 5
ATOM      5  CA  ILE B   2      27.620  10.383  -4.793  1.00 78.69 LIG 0.18  C 
BRANCH 5 6
ATOM      6  CB  ILE B   2      26.684   9.615  -3.810  1.00 78.71 LIG 0.01  C 
ATOM      7  CG2 ILE B   2      27.476   8.908  -2.699  1.00 78.95 LIG 0.01  C 
BRANCH 6 8
ATOM      8  CG1 ILE B   2      25.586  10.536  -3.267  1.00 78.88 LIG 0.00  C 
ATOM      9  CD1 ILE B   2      25.980  11.279  -1.993  1.00 79.16 LIG 0.01  C 
ENDBRANCH 6 8
ENDBRANCH 5 6
BRANCH 5 10
ATOM     10  C   ILE B   2      29.083   9.935  -4.679  1.00 79.02 LIG 0.24  C 
ATOM     11 O    ILE B   2      29.399   8.770  -4.939  1.00 79.18 LIG-0.27  OA
ATOM     12  N   ALA B   3      29.963  10.865  -4.306  1.00 79.42 LIG-0.35  N 
ATOM     13 H    ALA B   3      29.738  11.667  -4.092  1.00 79.42 LIG 0.16  HD
BRANCH 12 14
ATOM     14  CA  ALA B   3      31.406  10.614  -4.223  1.00 79.64 LIG 0.16  C 
ATOM     15  CB  ALA B   3      32.170  11.676  -5.004  1.00 79.64 LIG 0.04  C 
BRANCH 14 16
ATOM     16  C   ALA B   3      31.923  10.536  -2.783  1.00 79.83 LIG 0.22  C 
ATOM     17 O    ALA B   3      32.355  11.545  -2.214  1.00 80.02 LIG-0.29  OA
ENDBRANCH 14 16
ENDBRANCH 12 14
ENDBRANCH 5 10
ENDBRANCH 3 5
BRANCH 1 18
ATOM     18  CA  HIS B   1      26.657  11.040  -8.409  1.00 77.18 LIG 0.28  C 
BRANCH 18 19
ATOM     19  N   HIS B   1      26.007  12.259  -8.966  1.00 77.06 LIG-0.07  N 
ATOM     20 H1   HIS B   1      26.538  12.624  -9.580  1.00 77.06 LIG 0.28  HD
ATOM     21 H2   HIS B   1      25.230  12.037  -9.340  1.00 77.06 LIG 0.28  HD
ATOM     22 H3   HIS B   1      25.864  12.845  -8.312  1.00 77.06 LIG 0.28  HD
ENDBRANCH 18 19
BRANCH 18 23
ATOM     23  CB  HIS B   1      27.775  10.551  -9.333  1.00 76.99 LIG 0.10  C 
BRANCH 23 24
ATOM     24  CG  HIS B   1      29.126  10.550  -8.690  1.00 76.37 LIG 0.06  A 
ATOM     25 ND1  HIS B   1      29.632   9.454  -8.025  1.00 75.55 LIG-0.24  NA
ATOM     26  CE1 HIS B   1      30.841   9.736  -7.573  1.00 75.32 LIG 0.23  A 
ATOM     27 NE2  HIS B   1      31.138  10.975  -7.924  1.00 75.43 LIG-0.25  NA
ATOM     28  CD2 HIS B   1      30.083  11.504  -8.626  1.00 75.70 LIG 0.14  A 
ENDBRANCH 23 24
ENDBRANCH 18 23
ENDBRANCH 1 18
TORSDOF 10
ENDMDL
MODEL 9
USER: ADFR SOLUTION from run 158
USER: SCORE 11.402370 LL:  -1.535 LR:  -9.946 RR:   0.000 FEB:  -6.963
USER: RMSD 3.549767
USER: SEED 157
USER: STATUS no improvement in best in 12 clusters for 5 generations
USER: GENES 12
USER: genes 0 Translation |==|  0.37537 0.55711 0.53766
USER: genes 1 Rotation |==|  0.51970 0.53476 0.54695 0.99618
USER: genes 2 Torsion [C]-N--CA-[CB] |==|  0.84329
USER: genes 3 Torsion [N]-CA--CB-[CG2] |==|  0.52190
USER: genes 4 Torsion [CA]-CB--CG1-[CD1] |==|  0.32480
USER: genes 5 Torsion [N]-CA--C-[N] |==|  0.34459
USER: genes 6 Torsion [C]-N--CA-[CB] |==|  0.11973
USER: genes 7 Torsion [N]-CA--C-[O] |==|  0.00681
USER: genes 8 Torsion [N]-C--CA-[N] |==|  0.43763
USER: genes 9 Torsion [C]-CA--N-[H1] |==|  0.41339
USER: genes 10 Torsion [C]-CA--CB-[CG] |==|  0.45266
USER: genes 11 Torsion [CA]-CB--CG-[CD2] |==|  0.83035
ROOT
ATOM      1  C   HIS B   1      27.392  10.976  -7.135  1.00 77.53 LIG 0.25  C 
ATOM      2 O    HIS B   1      27.487  12.037  -6.525  1.00 77.48 LIG-0.27  OA
ATOM      3  N   ILE B   2      27.912   9.834  -6.697  1.00 78.06 LIG-0.35  N 
ATOM      4 H    ILE B   2      27.855   9.088  -7.121  1.00 78.06 LIG 0.16  HD
ENDROOT
BRANCH 3 5
ATOM      5  CA  ILE B   2      28.639   9.754  -5.435  1.00 78.69 LIG 0.18  C 
BRANCH 5 6
ATOM      6  CB  ILE B   2      29.831  10.758  -5.406  1.00 78.71 LIG 0.01  C 
ATOM      7  CG2 ILE B   2      30.722  10.554  -4.170  1.00 78.95 LIG 0.01  C 
BRANCH 6 8
ATOM      8  CG1 ILE B   2      30.616  10.715  -6.721  1.00 78.88 LIG 0.00  C 
ATOM      9  CD1 ILE B   2      30.589  12.029  -7.497  1.00 79.16 LIG 0.01  C 
ENDBRANCH 6 8
ENDBRANCH 5 6
BRANCH 5 10
ATOM     10  C   ILE B   2      27.689   9.938  -4.245  1.00 79.02 LIG 0.24  C 
ATOM     11 O    ILE B   2      26.973  10.942  -4.169  1.00 79.18 LIG-0.27  OA
ATOM     12  N   ALA B   3      27.679   8.963  -3.335  1.00 79.42 LIG-0.35  N 
ATOM     13 H    ALA B   3      28.202   8.281  -3.370  1.00 79.42 LIG 0.16  HD
BRANCH 12 14
ATOM     14  CA  ALA B   3      26.774   8.955  -2.180  1.00 79.64 LIG 0.16  C 
ATOM     15  CB  ALA B   3      25.373   9.375  -2.606  1.00 79.64 LIG 0.04  C 
BRANCH 14 16
ATOM     16  C   ALA B   3      26.730   7.605  -1.458  1.00 79.83 LIG 0.22  C 
ATOM     17 O    ALA B   3      27.446   6.669  -1.831  1.00 80.02 LIG-0.29  OA
ENDBRANCH 14 16
ENDBRANCH 12 14
ENDBRANCH 5 10
ENDBRANCH 3 5
BRANCH 1 18
ATOM     18  CA  HIS B   1      26.652  10.910  -8.459  1.00 77.18 LIG 0.28  C 
BRANCH 18 19
ATOM     19  N   HIS B   1      25.685  12.037  -8.591  1.00 77.06 LIG-0.07  N 
ATOM     20 H1   HIS B   1      25.606  12.262  -9.449  1.00 77.06 LIG 0.28  HD
ATOM     21 H2   HIS B   1      24.892  11.786  -8.276  1.00 77.06 LIG 0.28  HD
ATOM     22 H3   HIS B   1      25.980  12.737  -8.128  1.00 77.06 LIG 0.28  HD
ENDBRANCH 18 19
BRANCH 18 23
ATOM     23  CB  HIS B   1      27.641  10.906  -9.627  1.00 76.99 LIG 0.10  C 
BRANCH 23 24
ATOM     24  CG  HIS B   1      27.042  10.444 -10.918  1.00 76.37 LIG 0.06  A 
ATOM     25 ND1  HIS B   1      26.998  11.237 -12.044  1.00 75.55 LIG-0.24  NA
ATOM     26  CE1 HIS B   1      26.427  10.568 -13.029  1.00 75.32 LIG 0.23  A 
ATOM     27 NE2  HIS B   1      26.102   9.367 -12.584  1.00 75.43 LIG-0.25  NA
ATOM     28  CD2 HIS B   1      26.479   9.264 -11.267  1.00 75.70 LIG 0.14  A 
ENDBRANCH 23 24
ENDBRANCH 18 23
ENDBRANCH 1 18
TORSDOF 10
ENDMDL
MODEL 10
USER: ADFR SOLUTION from run 104
USER: SCORE 10.717326 LL:  -1.455 LR:  -9.908 RR:   0.000 FEB:  -6.925
USER: RMSD 2.639769
USER: SEED 103
USER: STATUS no improvement in best in 11 clusters for 5 generations
USER: GENES 12
USER: genes 0 Translation |==|  0.38863 0.59271 0.52937
USER: genes 1 Rotation |==|  0.49384 0.43394 0.47943 0.99515
USER: genes 2 Torsion [C]-N--CA-[CB] |==|  0.24999
USER: genes 3 Torsion [N]-CA--CB-[CG2] |==|  0.32564
USER: genes 4 Torsion [CA]-CB--CG1-[CD1] |==|  0.67108
USER: genes 5 Torsion [N]-CA--C-[N] |==|  0.98306
USER: genes 6 Torsion [C]-N--CA-[CB] |==|  0.84833
USER: genes 7 Torsion [N]-CA--C-[O] |==|  0.05882
USER: genes 8 Torsion [N]-C--CA-[N] |==|  0.11733
USER: genes 9 Torsion [C]-CA--N-[H1] |==|  0.08665
USER: genes 10 Torsion [C]-CA--CB-[CG] |==|  0.45118
USER: genes 11 Torsion [CA]-CB--CG-[CD2] |==|  0.41243
ROOT
ATOM      1  C   HIS B   1      27.601  11.483  -7.290  1.00 77.53 LIG 0.25  C 
ATOM      2 O    HIS B   1      27.757  12.560  -6.720  1.00 77.48 LIG-0.27  OA
ATOM      3  N   ILE B   2      27.571  10.318  -6.653  1.00 78.06 LIG-0.35  N 
ATOM      4 H    ILE B   2      27.467   9.560  -7.045  1.00 78.06 LIG 0.16  HD
ENDROOT
BRANCH 3 5
ATOM      5  CA  ILE B   2      27.715  10.230  -5.204  1.00 78.69 LIG 0.18  C 
BRANCH 5 6
ATOM      6  CB  ILE B   2      26.330  10.315  -4.493  1.00 78.71 LIG 0.01  C 
ATOM      7  CG2 ILE B   2      26.003   9.030  -3.718  1.00 78.95 LIG 0.01  C 
BRANCH 6 8
ATOM      8  CG1 ILE B   2      26.235  11.576  -3.627  1.00 78.88 LIG 0.00  C 
ATOM      9  CD1 ILE B   2      26.033  11.288  -2.142  1.00 79.16 LIG 0.01  C 
ENDBRANCH 6 8
ENDBRANCH 5 6
BRANCH 5 10
ATOM     10  C   ILE B   2      28.500   8.973  -4.807  1.00 79.02 LIG 0.24  C 
ATOM     11 O    ILE B   2      28.809   8.778  -3.628  1.00 79.18 LIG-0.27  OA
ATOM     12  N   ALA B   3      28.802   8.126  -5.792  1.00 79.42 LIG-0.35  N 
ATOM     13 H    ALA B   3      28.616   8.278  -6.618  1.00 79.42 LIG 0.16  HD
BRANCH 12 14
ATOM     14  CA  ALA B   3      29.482   6.845  -5.566  1.00 79.64 LIG 0.16  C 
ATOM     15  CB  ALA B   3      30.783   7.067  -4.807  1.00 79.64 LIG 0.04  C 
BRANCH 14 16
ATOM     16  C   ALA B   3      28.608   5.819  -4.838  1.00 79.83 LIG 0.22  C 
ATOM     17 O    ALA B   3      27.376   5.926  -4.841  1.00 80.02 LIG-0.29  OA
ENDBRANCH 14 16
ENDBRANCH 12 14
ENDBRANCH 5 10
ENDBRANCH 3 5
BRANCH 1 18
ATOM     18  CA  HIS B   1      27.426  11.426  -8.798  1.00 77.18 LIG 0.28  C 
BRANCH 18 19
ATOM     19  N   HIS B   1      26.355  10.463  -9.179  1.00 77.06 LIG-0.07  N 
ATOM     20 H1   HIS B   1      25.736  10.439  -8.539  1.00 77.06 LIG 0.28  HD
ATOM     21 H2   HIS B   1      25.981  10.721  -9.944  1.00 77.06 LIG 0.28  HD
ATOM     22 H3   HIS B   1      26.707   9.652  -9.280  1.00 77.06 LIG 0.28  HD
ENDBRANCH 18 19
BRANCH 18 23
ATOM     23  CB  HIS B   1      27.124  12.819  -9.356  1.00 76.99 LIG 0.10  C 
BRANCH 23 24
ATOM     24  CG  HIS B   1      27.347  12.936 -10.830  1.00 76.37 LIG 0.06  A 
ATOM     25 ND1  HIS B   1      28.296  12.195 -11.500  1.00 75.55 LIG-0.24  NA
ATOM     26  CE1 HIS B   1      28.260  12.497 -12.786  1.00 75.32 LIG 0.23  A 
ATOM     27 NE2  HIS B   1      27.318  13.404 -12.975  1.00 75.43 LIG-0.25  NA
ATOM     28  CD2 HIS B   1      26.730  13.694 -11.767  1.00 75.70 LIG 0.14  A 
ENDBRANCH 23 24
ENDBRANCH 18 23
ENDBRANCH 1 18
TORSDOF 10
ENDMDL
MODEL 11
USER: ADFR SOLUTION from run 197
USER: SCORE 10.313773 LL:  -1.595 LR:  -9.869 RR:   0.000 FEB:  -6.886
USER: RMSD 2.759102
USER: SEED 196
USER: STATUS no improvement in best in 12 clusters for 5 generations
USER: GENES 12
USER: genes 0 Translation |==|  0.39076 0.58910 0.54858
USER: genes 1 Rotation |==|  0.41646 0.50544 0.50108 0.99294
USER: genes 2 Torsion [C]-N--CA-[CB] |==|  0.28333
USER: genes 3 Torsion [N]-CA--CB-[CG2] |==|  0.91310
USER: genes 4 Torsion [CA]-CB--CG1-[CD1] |==|  0.67008
USER: genes 5 Torsion [N]-CA--C-[N] |==|  0.39426
USER: genes 6 Torsion [C]-N--CA-[CB] |==|  0.16246
USER: genes 7 Torsion [N]-CA--C-[O] |==|  0.04647
USER: genes 8 Torsion [N]-C--CA-[N] |==|  0.35420
USER: genes 9 Torsion [C]-CA--N-[H1] |==|  0.34280
USER: genes 10 Torsion [C]-CA--CB-[CG] |==|  0.78224
USER: genes 11 Torsion [CA]-CB--CG-[CD2] |==|  0.72605
ROOT
ATOM      1  C   HIS B   1      27.635  11.432  -6.930  1.00 77.53 LIG 0.25  C 
ATOM      2 O    HIS B   1      27.853  12.630  -6.774  1.00 77.48 LIG-0.27  OA
ATOM      3  N   ILE B   2      27.886  10.517  -6.000  1.00 78.06 LIG-0.35  N 
ATOM      4 H    ILE B   2      27.740   9.676  -6.103  1.00 78.06 LIG 0.16  HD
ENDROOT
BRANCH 3 5
ATOM      5  CA  ILE B   2      28.440  10.875  -4.699  1.00 78.69 LIG 0.18  C 
BRANCH 5 6
ATOM      6  CB  ILE B   2      27.336  10.886  -3.599  1.00 78.71 LIG 0.01  C 
ATOM      7  CG2 ILE B   2      25.965  11.287  -4.166  1.00 78.95 LIG 0.01  C 
BRANCH 6 8
ATOM      8  CG1 ILE B   2      27.302   9.553  -2.843  1.00 78.88 LIG 0.00  C 
ATOM      9  CD1 ILE B   2      25.975   8.809  -2.966  1.00 79.16 LIG 0.01  C 
ENDBRANCH 6 8
ENDBRANCH 5 6
BRANCH 5 10
ATOM     10  C   ILE B   2      29.619   9.961  -4.337  1.00 79.02 LIG 0.24  C 
ATOM     11 O    ILE B   2      29.593   8.764  -4.636  1.00 79.18 LIG-0.27  OA
ATOM     12  N   ALA B   3      30.646  10.537  -3.711  1.00 79.42 LIG-0.35  N 
ATOM     13 H    ALA B   3      30.650  11.364  -3.473  1.00 79.42 LIG 0.16  HD
BRANCH 12 14
ATOM     14  CA  ALA B   3      31.877   9.817  -3.365  1.00 79.64 LIG 0.16  C 
ATOM     15  CB  ALA B   3      32.522   9.244  -4.620  1.00 79.64 LIG 0.04  C 
BRANCH 14 16
ATOM     16  C   ALA B   3      32.882  10.678  -2.594  1.00 79.83 LIG 0.22  C 
ATOM     17 O    ALA B   3      32.526  11.731  -2.055  1.00 80.02 LIG-0.29  OA
ENDBRANCH 14 16
ENDBRANCH 12 14
ENDBRANCH 5 10
ENDBRANCH 3 5
BRANCH 1 18
ATOM     18  CA  HIS B   1      27.046  10.918  -8.233  1.00 77.18 LIG 0.28  C 
BRANCH 18 19
ATOM     19  N   HIS B   1      25.804  11.661  -8.591  1.00 77.06 LIG-0.07  N 
ATOM     20 H1   HIS B   1      25.896  12.019  -9.401  1.00 77.06 LIG 0.28  HD
ATOM     21 H2   HIS B   1      25.113  11.100  -8.590  1.00 77.06 LIG 0.28  HD
ATOM     22 H3   HIS B   1      25.662  12.307  -7.996  1.00 77.06 LIG 0.28  HD
ENDBRANCH 18 19
BRANCH 18 23
ATOM     23  CB  HIS B   1      28.076  11.011  -9.360  1.00 76.99 LIG 0.10  C 
BRANCH 23 24
ATOM     24  CG  HIS B   1      28.232  12.391  -9.918  1.00 76.37 LIG 0.06  A 
ATOM     25 ND1  HIS B   1      29.028  13.347  -9.326  1.00 75.55 LIG-0.24  NA
ATOM     26  CE1 HIS B   1      28.982  14.458 -10.039  1.00 75.32 LIG 0.23  A 
ATOM     27 NE2  HIS B   1      28.188  14.255 -11.076  1.00 75.43 LIG-0.25  NA
ATOM     28  CD2 HIS B   1      27.708  12.969 -11.024  1.00 75.70 LIG 0.14  A 
ENDBRANCH 23 24
ENDBRANCH 18 23
ENDBRANCH 1 18
TORSDOF 10
ENDMDL
MODEL 12
USER: ADFR SOLUTION from run 153
USER: SCORE 11.061798 LL:  -2.224 LR:  -9.704 RR:   0.000 FEB:  -6.721
USER: RMSD 3.379614
USER: SEED 152
USER: STATUS no improvement in best in 7 clusters for 5 generations
USER: GENES 12
USER: genes 0 Translation |==|  0.36765 0.56348 0.55049
USER: genes 1 Rotation |==|  0.48267 0.43963 0.52576 0.99537
USER: genes 2 Torsion [C]-N--CA-[CB] |==|  0.24391
USER: genes 3 Torsion [N]-CA--CB-[CG2] |==|  0.33952
USER: genes 4 Torsion [CA]-CB--CG1-[CD1] |==|  0.68653
USER: genes 5 Torsion [N]-CA--C-[N] |==|  0.92937
USER: genes 6 Torsion [C]-N--CA-[CB] |==|  0.35814
USER: genes 7 Torsion [N]-CA--C-[O] |==|  0.03517
USER: genes 8 Torsion [N]-C--CA-[N] |==|  0.38155
USER: genes 9 Torsion [C]-CA--N-[H1] |==|  0.39427
USER: genes 10 Torsion [C]-CA--CB-[CG] |==|  0.06962
USER: genes 11 Torsion [CA]-CB--CG-[CD2] |==|  0.25385
ROOT
ATOM      1  C   HIS B   1      27.270  11.067  -6.894  1.00 77.53 LIG 0.25  C 
ATOM      2 O    HIS B   1      27.245  12.191  -6.401  1.00 77.48 LIG-0.27  OA
ATOM      3  N   ILE B   2      27.461   9.962  -6.181  1.00 78.06 LIG-0.35  N 
ATOM      4 H    ILE B   2      27.485   9.171  -6.520  1.00 78.06 LIG 0.16  HD
ENDROOT
BRANCH 3 5
ATOM      5  CA  ILE B   2      27.648  10.002  -4.736  1.00 78.69 LIG 0.18  C 
BRANCH 5 6
ATOM      6  CB  ILE B   2      26.281   9.947  -3.988  1.00 78.71 LIG 0.01  C 
ATOM      7  CG2 ILE B   2      26.203   8.756  -3.021  1.00 78.95 LIG 0.01  C 
BRANCH 6 8
ATOM      8  CG1 ILE B   2      25.973  11.287  -3.311  1.00 78.88 LIG 0.00  C 
ATOM      9  CD1 ILE B   2      25.980  11.223  -1.786  1.00 79.16 LIG 0.01  C 
ENDBRANCH 6 8
ENDBRANCH 5 6
BRANCH 5 10
ATOM     10  C   ILE B   2      28.610   8.898  -4.278  1.00 79.02 LIG 0.24  C 
ATOM     11 O    ILE B   2      29.246   9.022  -3.227  1.00 79.18 LIG-0.27  OA
ATOM     12  N   ALA B   3      28.697   7.822  -5.062  1.00 79.42 LIG-0.35  N 
ATOM     13 H    ALA B   3      28.280   7.750  -5.810  1.00 79.42 LIG 0.16  HD
BRANCH 12 14
ATOM     14  CA  ALA B   3      29.513   6.650  -4.725  1.00 79.64 LIG 0.16  C 
ATOM     15  CB  ALA B   3      28.682   5.379  -4.841  1.00 79.64 LIG 0.04  C 
BRANCH 14 16
ATOM     16  C   ALA B   3      30.783   6.537  -5.572  1.00 79.83 LIG 0.22  C 
ATOM     17 O    ALA B   3      31.162   7.485  -6.268  1.00 80.02 LIG-0.29  OA
ENDBRANCH 14 16
ENDBRANCH 12 14
ENDBRANCH 5 10
ENDBRANCH 3 5
BRANCH 1 18
ATOM     18  CA  HIS B   1      27.077  10.875  -8.389  1.00 77.18 LIG 0.28  C 
BRANCH 18 19
ATOM     19  N   HIS B   1      25.980  11.741  -8.904  1.00 77.06 LIG-0.07  N 
ATOM     20 H1   HIS B   1      26.201  12.053  -9.708  1.00 77.06 LIG 0.28  HD
ATOM     21 H2   HIS B   1      25.230  11.266  -8.966  1.00 77.06 LIG 0.28  HD
ATOM     22 H3   HIS B   1      25.853  12.423  -8.347  1.00 77.06 LIG 0.28  HD
ENDBRANCH 18 19
BRANCH 18 23
ATOM     23  CB  HIS B   1      28.383  11.151  -9.138  1.00 76.99 LIG 0.10  C 
BRANCH 23 24
ATOM     24  CG  HIS B   1      29.607  10.951  -8.302  1.00 76.37 LIG 0.06  A 
ATOM     25 ND1  HIS B   1      30.143  11.949  -7.518  1.00 75.55 LIG-0.24  NA
ATOM     26  CE1 HIS B   1      31.209  11.487  -6.888  1.00 75.32 LIG 0.23  A 
ATOM     27 NE2  HIS B   1      31.380  10.223  -7.233  1.00 75.43 LIG-0.25  NA
ATOM     28  CD2 HIS B   1      30.390   9.863  -8.114  1.00 75.70 LIG 0.14  A 
ENDBRANCH 23 24
ENDBRANCH 18 23
ENDBRANCH 1 18
TORSDOF 10
ENDMDL
MODEL 13
USER: ADFR SOLUTION from run 133
USER: SCORE 10.221847 LL:  -1.901 LR:  -9.601 RR:   0.000 FEB:  -6.618
USER: RMSD 2.437755
USER: SEED 132
USER: STATUS searching
USER: GENES 12
USER: genes 0 Translation |==|  0.33523 0.55637 0.55262
USER: genes 1 Rotation |==|  0.49307 0.43344 0.47295 0.99476
USER: genes 2 Torsion [C]-N--CA-[CB] |==|  0.50057
USER: genes 3 Torsion [N]-CA--CB-[CG2] |==|  0.15856
USER: genes 4 Torsion [CA]-CB--CG1-[CD1] |==|  0.65202
USER: genes 5 Torsion [N]-CA--C-[N] |==|  0.91750
USER: genes 6 Torsion [C]-N--CA-[CB] |==|  0.31613
USER: genes 7 Torsion [N]-CA--C-[O] |==|  0.05886
USER: genes 8 Torsion [N]-C--CA-[N] |==|  0.41802
USER: genes 9 Torsion [C]-CA--N-[H1] |==|  0.40007
USER: genes 10 Torsion [C]-CA--CB-[CG] |==|  0.42606
USER: genes 11 Torsion [CA]-CB--CG-[CD2] |==|  0.97352
ROOT
ATOM      1  C   HIS B   1      26.760  10.965  -6.854  1.00 77.53 LIG 0.25  C 
ATOM      2 O    HIS B   1      26.943  12.037  -6.284  1.00 77.48 LIG-0.27  OA
ATOM      3  N   ILE B   2      26.698   9.801  -6.217  1.00 78.06 LIG-0.35  N 
ATOM      4 H    ILE B   2      26.575   9.046  -6.610  1.00 78.06 LIG 0.16  HD
ENDROOT
BRANCH 3 5
ATOM      5  CA  ILE B   2      26.836   9.709  -4.768  1.00 78.69 LIG 0.18  C 
BRANCH 5 6
ATOM      6  CB  ILE B   2      26.730   8.231  -4.284  1.00 78.71 LIG 0.01  C 
ATOM      7  CG2 ILE B   2      27.776   7.329  -4.960  1.00 78.95 LIG 0.01  C 
BRANCH 6 8
ATOM      8  CG1 ILE B   2      26.771   8.150  -2.754  1.00 78.88 LIG 0.00  C 
ATOM      9  CD1 ILE B   2      27.856   7.222  -2.216  1.00 79.16 LIG 0.01  C 
ENDBRANCH 6 8
ENDBRANCH 5 6
BRANCH 5 10
ATOM     10  C   ILE B   2      28.130  10.387  -4.298  1.00 79.02 LIG 0.24  C 
ATOM     11 O    ILE B   2      28.196  10.889  -3.172  1.00 79.18 LIG-0.27  OA
ATOM     12  N   ALA B   3      29.149  10.383  -5.157  1.00 79.42 LIG-0.35  N 
ATOM     13 H    ALA B   3      29.093  10.064  -5.954  1.00 79.42 LIG 0.16  HD
BRANCH 12 14
ATOM     14  CA  ALA B   3      30.474  10.924  -4.830  1.00 79.64 LIG 0.16  C 
ATOM     15  CB  ALA B   3      31.506   9.804  -4.796  1.00 79.64 LIG 0.04  C 
BRANCH 14 16
ATOM     16  C   ALA B   3      30.924  12.035  -5.783  1.00 79.83 LIG 0.22  C 
ATOM     17 O    ALA B   3      30.096  12.664  -6.451  1.00 80.02 LIG-0.29  OA
ENDBRANCH 14 16
ENDBRANCH 12 14
ENDBRANCH 5 10
ENDBRANCH 3 5
BRANCH 1 18
ATOM     18  CA  HIS B   1      26.587  10.913  -8.363  1.00 77.18 LIG 0.28  C 
BRANCH 18 19
ATOM     19  N   HIS B   1      25.980  12.173  -8.877  1.00 77.06 LIG-0.07  N 
ATOM     20 H1   HIS B   1      26.333  12.370  -9.671  1.00 77.06 LIG 0.28  HD
ATOM     21 H2   HIS B   1      25.100  12.066  -8.962  1.00 77.06 LIG 0.28  HD
ATOM     22 H3   HIS B   1      26.144  12.837  -8.307  1.00 77.06 LIG 0.28  HD
ENDBRANCH 18 19
BRANCH 18 23
ATOM     23  CB  HIS B   1      27.928  10.640  -9.047  1.00 76.99 LIG 0.10  C 
BRANCH 23 24
ATOM     24  CG  HIS B   1      27.796   9.966 -10.376  1.00 76.37 LIG 0.06  A 
ATOM     25 ND1  HIS B   1      28.864   9.786 -11.228  1.00 75.55 LIG-0.24  NA
ATOM     26  CE1 HIS B   1      28.456   9.157 -12.316  1.00 75.32 LIG 0.23  A 
ATOM     27 NE2  HIS B   1      27.161   8.918 -12.197  1.00 75.43 LIG-0.25  NA
ATOM     28  CD2 HIS B   1      26.726   9.412 -10.992  1.00 75.70 LIG 0.14  A 
ENDBRANCH 23 24
ENDBRANCH 18 23
ENDBRANCH 1 18
TORSDOF 10
ENDMDL
MODEL 14
USER: ADFR SOLUTION from run 8
USER: SCORE 10.646814 LL:  -2.501 LR:  -9.426 RR:   0.000 FEB:  -6.443
USER: RMSD 3.253043
USER: SEED 973276
USER: STATUS no improvement in best in 7 clusters for 5 generations
USER: GENES 12
USER: genes 0 Translation |==|  0.35328 0.55266 0.56588
USER: genes 1 Rotation |==|  0.50874 0.39286 0.49210 0.98824
USER: genes 2 Torsion [C]-N--CA-[CB] |==|  0.48909
USER: genes 3 Torsion [N]-CA--CB-[CG2] |==|  0.17091
USER: genes 4 Torsion [CA]-CB--CG1-[CD1] |==|  0.67268
USER: genes 5 Torsion [N]-CA--C-[N] |==|  0.87849
USER: genes 6 Torsion [C]-N--CA-[CB] |==|  0.29086
USER: genes 7 Torsion [N]-CA--C-[O] |==|  0.10853
USER: genes 8 Torsion [N]-C--CA-[N] |==|  0.33518
USER: genes 9 Torsion [C]-CA--N-[H1] |==|  0.43938
USER: genes 10 Torsion [C]-CA--CB-[CG] |==|  0.21132
USER: genes 11 Torsion [CA]-CB--CG-[CD2] |==|  0.39085
ROOT
ATOM      1  C   HIS B   1      27.044  10.912  -6.606  1.00 77.53 LIG 0.25  C 
ATOM      2 O    HIS B   1      27.036  11.966  -5.975  1.00 77.48 LIG-0.27  OA
ATOM      3  N   ILE B   2      26.982   9.717  -6.029  1.00 78.06 LIG-0.35  N 
ATOM      4 H    ILE B   2      26.992   8.975  -6.464  1.00 78.06 LIG 0.16  HD
ENDROOT
BRANCH 3 5
ATOM      5  CA  ILE B   2      26.888   9.565  -4.582  1.00 78.69 LIG 0.18  C 
BRANCH 5 6
ATOM      6  CB  ILE B   2      26.730   8.066  -4.182  1.00 78.71 LIG 0.01  C 
ATOM      7  CG2 ILE B   2      27.938   7.224  -4.622  1.00 78.95 LIG 0.01  C 
BRANCH 6 8
ATOM      8  CG1 ILE B   2      26.419   7.928  -2.688  1.00 78.88 LIG 0.00  C 
ATOM      9  CD1 ILE B   2      27.482   7.162  -1.905  1.00 79.16 LIG 0.01  C 
ENDBRANCH 6 8
ENDBRANCH 5 6
BRANCH 5 10
ATOM     10  C   ILE B   2      28.079  10.235  -3.883  1.00 79.02 LIG 0.24  C 
ATOM     11 O    ILE B   2      27.903  10.912  -2.866  1.00 79.18 LIG-0.27  OA
ATOM     12  N   ALA B   3      29.279  10.028  -4.426  1.00 79.42 LIG-0.35  N 
ATOM     13 H    ALA B   3      29.398   9.585  -5.154  1.00 79.42 LIG 0.16  HD
BRANCH 12 14
ATOM     14  CA  ALA B   3      30.522  10.537  -3.835  1.00 79.64 LIG 0.16  C 
ATOM     15  CB  ALA B   3      31.288   9.405  -3.164  1.00 79.64 LIG 0.04  C 
BRANCH 14 16
ATOM     16  C   ALA B   3      31.418  11.260  -4.845  1.00 79.83 LIG 0.22  C 
ATOM     17 O    ALA B   3      30.926  11.992  -5.711  1.00 80.02 LIG-0.29  OA
ENDBRANCH 14 16
ENDBRANCH 12 14
ENDBRANCH 5 10
ENDBRANCH 3 5
BRANCH 1 18
ATOM     18  CA  HIS B   1      27.126  10.922  -8.122  1.00 77.18 LIG 0.28  C 
BRANCH 18 19
ATOM     19  N   HIS B   1      25.980  11.665  -8.718  1.00 77.06 LIG-0.07  N 
ATOM     20 H1   HIS B   1      26.194  11.932  -9.540  1.00 77.06 LIG 0.28  HD
ATOM     21 H2   HIS B   1      25.268  11.132  -8.755  1.00 77.06 LIG 0.28  HD
ATOM     22 H3   HIS B   1      25.793  12.375  -8.215  1.00 77.06 LIG 0.28  HD
ENDBRANCH 18 19
BRANCH 18 23
ATOM     23  CB  HIS B   1      28.457  11.519  -8.584  1.00 76.99 LIG 0.10  C 
BRANCH 23 24
ATOM     24  CG  HIS B   1      29.618  10.588  -8.428  1.00 76.37 LIG 0.06  A 
ATOM     25 ND1  HIS B   1      29.755   9.745  -7.347  1.00 75.55 LIG-0.24  NA
ATOM     26  CE1 HIS B   1      30.863   9.037  -7.482  1.00 75.32 LIG 0.23  A 
ATOM     27 NE2  HIS B   1      31.447   9.389  -8.613  1.00 75.43 LIG-0.25  NA
ATOM     28  CD2 HIS B   1      30.687  10.356  -9.225  1.00 75.70 LIG 0.14  A 
ENDBRANCH 23 24
ENDBRANCH 18 23
ENDBRANCH 1 18
TORSDOF 10
ENDMDL
MODEL 15
USER: ADFR SOLUTION from run 146
USER: SCORE 10.743788 LL:  -1.846 LR:  -9.337 RR:   0.000 FEB:  -6.354
USER: RMSD 4.553714
USER: SEED 145
USER: STATUS no improvement in best in 11 clusters for 5 generations
USER: GENES 12
USER: genes 0 Translation |==|  0.39511 0.56779 0.53207
USER: genes 1 Rotation |==|  0.56307 0.46902 0.61078 0.98248
USER: genes 2 Torsion [C]-N--CA-[CB] |==|  0.81830
USER: genes 3 Torsion [N]-CA--CB-[CG2] |==|  0.55487
USER: genes 4 Torsion [CA]-CB--CG1-[CD1] |==|  0.44492
USER: genes 5 Torsion [N]-CA--C-[N] |==|  0.49102
USER: genes 6 Torsion [C]-N--CA-[CB] |==|  0.84695
USER: genes 7 Torsion [N]-CA--C-[O] |==|  0.01096
USER: genes 8 Torsion [N]-C--CA-[N] |==|  0.40649
USER: genes 9 Torsion [C]-CA--N-[H1] |==|  0.41780
USER: genes 10 Torsion [C]-CA--CB-[CG] |==|  0.88212
USER: genes 11 Torsion [CA]-CB--CG-[CD2] |==|  0.42220
ROOT
ATOM      1  C   HIS B   1      27.703  11.128  -7.240  1.00 77.53 LIG 0.25  C 
ATOM      2 O    HIS B   1      27.383  12.007  -6.444  1.00 77.48 LIG-0.27  OA
ATOM      3  N   ILE B   2      28.391  10.045  -6.893  1.00 78.06 LIG-0.35  N 
ATOM      4 H    ILE B   2      28.623   9.428  -7.446  1.00 78.06 LIG 0.16  HD
ENDROOT
BRANCH 3 5
ATOM      5  CA  ILE B   2      28.817   9.812  -5.518  1.00 78.69 LIG 0.18  C 
BRANCH 5 6
ATOM      6  CB  ILE B   2      29.853  10.883  -5.059  1.00 78.71 LIG 0.01  C 
ATOM      7  CG2 ILE B   2      30.668  10.410  -3.846  1.00 78.95 LIG 0.01  C 
BRANCH 6 8
ATOM      8  CG1 ILE B   2      30.733  11.331  -6.231  1.00 78.88 LIG 0.00  C 
ATOM      9  CD1 ILE B   2      31.423  12.674  -6.005  1.00 79.16 LIG 0.01  C 
ENDBRANCH 6 8
ENDBRANCH 5 6
BRANCH 5 10
ATOM     10  C   ILE B   2      27.608   9.726  -4.578  1.00 79.02 LIG 0.24  C 
ATOM     11 O    ILE B   2      26.466   9.898  -5.015  1.00 79.18 LIG-0.27  OA
ATOM     12  N   ALA B   3      27.868   9.448  -3.300  1.00 79.42 LIG-0.35  N 
ATOM     13 H    ALA B   3      28.665   9.362  -2.989  1.00 79.42 LIG 0.16  HD
BRANCH 12 14
ATOM     14  CA  ALA B   3      26.817   9.259  -2.293  1.00 79.64 LIG 0.16  C 
ATOM     15  CB  ALA B   3      25.897  10.472  -2.257  1.00 79.64 LIG 0.04  C 
BRANCH 14 16
ATOM     16  C   ALA B   3      26.004   7.979  -2.504  1.00 79.83 LIG 0.22  C 
ATOM     17 O    ALA B   3      26.301   7.185  -3.403  1.00 80.02 LIG-0.29  OA
ENDBRANCH 14 16
ENDBRANCH 12 14
ENDBRANCH 5 10
ENDBRANCH 3 5
BRANCH 1 18
ATOM     18  CA  HIS B   1      27.315  11.235  -8.704  1.00 77.18 LIG 0.28  C 
BRANCH 18 19
ATOM     19  N   HIS B   1      25.997  11.912  -8.863  1.00 77.06 LIG-0.07  N 
ATOM     20 H1   HIS B   1      25.975  12.341  -9.643  1.00 77.06 LIG 0.28  HD
ATOM     21 H2   HIS B   1      25.346  11.304  -8.839  1.00 77.06 LIG 0.28  HD
ATOM     22 H3   HIS B   1      25.880  12.495  -8.201  1.00 77.06 LIG 0.28  HD
ENDBRANCH 18 19
BRANCH 18 23
ATOM     23  CB  HIS B   1      28.399  11.971  -9.494  1.00 76.99 LIG 0.10  C 
BRANCH 23 24
ATOM     24  CG  HIS B   1      28.947  13.170  -8.786  1.00 76.37 LIG 0.06  A 
ATOM     25 ND1  HIS B   1      28.216  13.887  -7.864  1.00 75.55 LIG-0.24  NA
ATOM     26  CE1 HIS B   1      28.953  14.880  -7.398  1.00 75.32 LIG 0.23  A 
ATOM     27 NE2  HIS B   1      30.137  14.830  -7.982  1.00 75.43 LIG-0.25  NA
ATOM     28  CD2 HIS B   1      30.159  13.768  -8.853  1.00 75.70 LIG 0.14  A 
ENDBRANCH 23 24
ENDBRANCH 18 23
ENDBRANCH 1 18
TORSDOF 10
ENDMDL
MODEL 16
USER: ADFR SOLUTION from run 49
USER: SCORE 10.356026 LL:  -1.614 LR:  -9.334 RR:   0.000 FEB:  -6.351
USER: RMSD 2.808065
USER: SEED 48
USER: STATUS no improvement in best in 10 clusters for 5 generations
USER: GENES 12
USER: genes 0 Translation |==|  0.38646 0.57823 0.54806
USER: genes 1 Rotation |==|  0.43472 0.50878 0.48669 0.99546
USER: genes 2 Torsion [C]-N--CA-[CB] |==|  0.23826
USER: genes 3 Torsion [N]-CA--CB-[CG2] |==|  0.95572
USER: genes 4 Torsion [CA]-CB--CG1-[CD1] |==|  0.75117
USER: genes 5 Torsion [N]-CA--C-[N] |==|  0.97222
USER: genes 6 Torsion [C]-N--CA-[CB] |==|  0.36042
USER: genes 7 Torsion [N]-CA--C-[O] |==|  0.07711
USER: genes 8 Torsion [N]-C--CA-[N] |==|  0.35962
USER: genes 9 Torsion [C]-CA--N-[H1] |==|  0.39862
USER: genes 10 Torsion [C]-CA--CB-[CG] |==|  0.77009
USER: genes 11 Torsion [CA]-CB--CG-[CD2] |==|  0.73021
ROOT
ATOM      1  C   HIS B   1      27.567  11.277  -6.940  1.00 77.53 LIG 0.25  C 
ATOM      2 O    HIS B   1      27.857  12.445  -6.698  1.00 77.48 LIG-0.27  OA
ATOM      3  N   ILE B   2      27.764  10.283  -6.080  1.00 78.06 LIG-0.35  N 
ATOM      4 H    ILE B   2      27.568   9.462  -6.244  1.00 78.06 LIG 0.16  HD
ENDROOT
BRANCH 3 5
ATOM      5  CA  ILE B   2      28.341  10.511  -4.760  1.00 78.69 LIG 0.18  C 
BRANCH 5 6
ATOM      6  CB  ILE B   2      27.244  10.912  -3.727  1.00 78.71 LIG 0.01  C 
ATOM      7  CG2 ILE B   2      25.939  11.343  -4.414  1.00 78.95 LIG 0.01  C 
BRANCH 6 8
ATOM      8  CG1 ILE B   2      27.035   9.801  -2.692  1.00 78.88 LIG 0.00  C 
ATOM      9  CD1 ILE B   2      25.981   8.774  -3.095  1.00 79.16 LIG 0.01  C 
ENDBRANCH 6 8
ENDBRANCH 5 6
BRANCH 5 10
ATOM     10  C   ILE B   2      29.160   9.297  -4.304  1.00 79.02 LIG 0.24  C 
ATOM     11 O    ILE B   2      29.864   9.365  -3.292  1.00 79.18 LIG-0.27  OA
ATOM     12  N   ALA B   3      29.050   8.193  -5.045  1.00 79.42 LIG-0.35  N 
ATOM     13 H    ALA B   3      28.586   8.156  -5.768  1.00 79.42 LIG 0.16  HD
BRANCH 12 14
ATOM     14  CA  ALA B   3      29.709   6.928  -4.699  1.00 79.64 LIG 0.16  C 
ATOM     15  CB  ALA B   3      28.705   5.784  -4.740  1.00 79.64 LIG 0.04  C 
BRANCH 14 16
ATOM     16  C   ALA B   3      30.913   6.613  -5.590  1.00 79.83 LIG 0.22  C 
ATOM     17 O    ALA B   3      31.562   7.524  -6.116  1.00 80.02 LIG-0.29  OA
ENDBRANCH 14 16
ENDBRANCH 12 14
ENDBRANCH 5 10
ENDBRANCH 3 5
BRANCH 1 18
ATOM     18  CA  HIS B   1      26.947  10.896  -8.273  1.00 77.18 LIG 0.28  C 
BRANCH 18 19
ATOM     19  N   HIS B   1      25.779  11.766  -8.591  1.00 77.06 LIG-0.07  N 
ATOM     20 H1   HIS B   1      25.759  11.927  -9.467  1.00 77.06 LIG 0.28  HD
ATOM     21 H2   HIS B   1      25.028  11.356  -8.347  1.00 77.06 LIG 0.28  HD
ATOM     22 H3   HIS B   1      25.854  12.536  -8.150  1.00 77.06 LIG 0.28  HD
ENDBRANCH 18 19
BRANCH 18 23
ATOM     23  CB  HIS B   1      27.991  10.963  -9.389  1.00 76.99 LIG 0.10  C 
BRANCH 23 24
ATOM     24  CG  HIS B   1      28.199  12.340  -9.935  1.00 76.37 LIG 0.06  A 
ATOM     25 ND1  HIS B   1      29.043  13.255  -9.343  1.00 75.55 LIG-0.24  NA
ATOM     26  CE1 HIS B   1      29.036  14.375 -10.044  1.00 75.32 LIG 0.23  A 
ATOM     27 NE2  HIS B   1      28.220  14.218 -11.071  1.00 75.43 LIG-0.25  NA
ATOM     28  CD2 HIS B   1      27.686  12.953 -11.027  1.00 75.70 LIG 0.14  A 
ENDBRANCH 23 24
ENDBRANCH 18 23
ENDBRANCH 1 18
TORSDOF 10
ENDMDL
