MODEL 1
USER: ADFR SOLUTION from run 163
USER: SCORE 14.685214 LL:  -1.877 LR: -14.383 RR:   0.000 FEB:  -9.908
USER: RMSD 2.112332
USER: SEED 162
USER: STATUS no improvement in best in 6 clusters for 5 generations
USER: GENES 17
USER: genes 0 Translation |==|  0.54685 0.40718 0.66092
USER: genes 1 Rotation |==|  0.49032 0.46542 0.47802 0.99822
USER: genes 2 Torsion [C]-N--CA-[CB] |==|  0.19797
USER: genes 3 Torsion [N]-CA--CB-[CG] |==|  0.49072
USER: genes 4 Torsion [CA]-CB--CG-[CD] |==|  0.72655
USER: genes 5 Torsion [CB]-CG--CD-[OE1] |==|  0.30849
USER: genes 6 Torsion [N]-CA--C-[N] |==|  0.40143
USER: genes 7 Torsion [C]-N--CA-[CB] |==|  0.22778
USER: genes 8 Torsion [N]-CA--C-[N] |==|  0.00109
USER: genes 9 Torsion [C]-N--CA-[CB] |==|  0.18352
USER: genes 10 Torsion [N]-CA--C-[O] |==|  0.93157
USER: genes 11 Torsion [N]-C--CA-[N] |==|  0.46667
USER: genes 12 Torsion [C]-CA--N-[H3] |==|  0.05010
USER: genes 13 Torsion [C]-CA--CB-[CG] |==|  0.38721
USER: genes 14 Torsion [CA]-CB--CG-[CD] |==|  0.31056
USER: genes 15 Torsion [CB]-CG--CD-[NE] |==|  0.85595
USER: genes 16 Torsion [CG]-CD--NE-[HE] |==|  0.04380
ROOT
ATOM      1  C   ARG X   1     -41.426  11.655  -6.376  1.00 28.35 LIG 0.25  C 
ATOM      2 O    ARG X   1     -40.903  10.598  -6.041  1.00 27.73 LIG-0.27  OA
ATOM      3  N   GLU X   2     -42.360  11.729  -7.316  1.00 29.79 LIG-0.35  N 
ATOM      4 H    GLU X   2     -42.826  12.433  -7.475  1.00 29.79 LIG 0.16  HD
ENDROOT
BRANCH 3 5
ATOM      5  CA  GLU X   2     -42.672  10.596  -8.166  1.00 30.62 LIG 0.18  C 
BRANCH 5 6
ATOM      6  CB  GLU X   2     -43.403   9.489  -7.401  1.00 30.95 LIG 0.04  C 
BRANCH 6 7
ATOM      7  CG  GLU X   2     -43.826   8.301  -8.286  1.00 31.16 LIG 0.12  C 
BRANCH 7 8
ATOM      8  CD  GLU X   2     -45.287   8.350  -8.736  1.00 32.27 LIG 0.17  C 
ATOM      9 OE1  GLU X   2     -45.539   8.554  -9.940  1.00 31.08 LIG-0.65  OA
ATOM     10 OE2  GLU X   2     -46.189   8.203  -7.880  1.00 30.98 LIG-0.65  OA
ENDBRANCH 7 8
ENDBRANCH 6 7
ENDBRANCH 5 6
BRANCH 5 11
ATOM     11  C   GLU X   2     -43.529  11.090  -9.311  1.00 31.96 LIG 0.24  C 
ATOM     12  N   ALA X   3     -43.318  10.495 -10.474  1.00 33.07 LIG-0.35  N 
ATOM     13 H    ALA X   3     -42.711   9.901 -10.609  1.00 33.07 LIG 0.16  HD
ATOM     14 O    GLU X   2     -44.361  11.990  -9.144  1.00 31.51 LIG-0.27  OA
BRANCH 12 15
ATOM     15  CA  ALA X   3     -44.124  10.814 -11.640  1.00 34.83 LIG 0.17  C 
ATOM     16  CB  ALA X   3     -43.601  12.086 -12.316  1.00 34.52 LIG 0.04  C 
BRANCH 15 17
ATOM     17  C   ALA X   3     -44.086   9.637 -12.591  1.00 35.72 LIG 0.24  C 
ATOM     18  N   ALA X   4     -43.366   8.587 -12.193  1.00 36.94 LIG-0.34  N 
ATOM     19 H    ALA X   4     -42.928   8.569 -11.453  1.00 36.94 LIG 0.16  HD
ATOM     20 O    ALA X   3     -44.674   9.694 -13.672  1.00 36.60 LIG-0.27  OA
BRANCH 18 21
ATOM     21  CA  ALA X   4     -43.250   7.355 -12.979  1.00 37.95 LIG 0.18  C 
ATOM     22  CB  ALA X   4     -42.501   7.622 -14.284  1.00 38.38 LIG 0.04  C 
BRANCH 21 23
ATOM     23  C   ALA X   4     -42.561   6.239 -12.198  1.00 38.48 LIG 0.20  C 
ATOM     24 O    ALA X   4     -41.789   6.479 -11.268  1.00 38.71 LIG-0.65  OA
ATOM     25 OXT  ALA X   4     -42.766   5.060 -12.481  1.00 39.00 LIG-0.65  OA
ENDBRANCH 21 23
ENDBRANCH 18 21
ENDBRANCH 15 17
ENDBRANCH 12 15
ENDBRANCH 5 11
ENDBRANCH 3 5
BRANCH 1 26
ATOM     26  CA  ARG X   1     -41.037  12.970  -5.719  1.00 28.22 LIG 0.27  C 
BRANCH 26 27
ATOM     27  N   ARG X   1     -40.205  12.753  -4.494  1.00 27.64 LIG-0.07  N 
ATOM     28 H3   ARG X   1     -39.868  11.930  -4.507  1.00 27.64 LIG 0.28  HD
ATOM     29 H2   ARG X   1     -40.710  12.854  -3.769  1.00 27.64 LIG 0.28  HD
ATOM     30 H1   ARG X   1     -39.541  13.345  -4.477  1.00 27.64 LIG 0.28  HD
ENDBRANCH 26 27
BRANCH 26 31
ATOM     31  CB  ARG X   1     -40.287  13.826  -6.747  1.00 28.04 LIG 0.04  C 
BRANCH 31 32
ATOM     32  CG  ARG X   1     -40.628  15.293  -6.740  1.00 27.94 LIG 0.02  C 
BRANCH 32 33
ATOM     33  CD  ARG X   1     -39.471  16.175  -6.253  1.00 29.24 LIG 0.14  C 
BRANCH 33 34
ATOM     34  NE  ARG X   1     -38.969  15.686  -4.968  1.00 27.62 LIG-0.23  N 
ATOM     35 HE   ARG X   1     -39.194  14.892  -4.726  1.00 27.62 LIG 0.18  HD
ATOM     36  CZ  ARG X   1     -38.190  16.386  -4.147  1.00 28.90 LIG 0.67  C 
ATOM     37  NH2 ARG X   1     -37.794  17.615  -4.472  1.00 29.13 LIG-0.23  N 
ATOM     38  NH1 ARG X   1     -37.793  15.854  -2.998  1.00 27.97 LIG-0.23  N 
ATOM     39 1HH2 ARG X   1     -38.042  17.964  -5.218  1.00 29.13 LIG 0.17  HD
ATOM     40 2HH2 ARG X   1     -37.290  18.061  -3.936  1.00 29.13 LIG 0.17  HD
ATOM     41 2HH1 ARG X   1     -37.289  16.305  -2.466  1.00 27.97 LIG 0.17  HD
ATOM     42 1HH1 ARG X   1     -38.039  15.058  -2.785  1.00 27.97 LIG 0.17  HD
ENDBRANCH 33 34
ENDBRANCH 32 33
ENDBRANCH 31 32
ENDBRANCH 26 31
ENDBRANCH 1 26
TORSDOF 15
ENDMDL
MODEL 2
USER: ADFR SOLUTION from run 152
USER: SCORE 13.411640 LL:  -1.833 LR: -14.149 RR:   0.000 FEB:  -9.674
USER: RMSD 2.961860
USER: SEED 151
USER: STATUS no improvement in best in 4 clusters for 5 generations
USER: GENES 17
USER: genes 0 Translation |==|  0.58391 0.41624 0.67866
USER: genes 1 Rotation |==|  0.45345 0.51890 0.53495 0.99624
USER: genes 2 Torsion [C]-N--CA-[CB] |==|  0.35677
USER: genes 3 Torsion [N]-CA--CB-[CG] |==|  0.49069
USER: genes 4 Torsion [CA]-CB--CG-[CD] |==|  0.66731
USER: genes 5 Torsion [CB]-CG--CD-[OE1] |==|  0.73653
USER: genes 6 Torsion [N]-CA--C-[N] |==|  0.38806
USER: genes 7 Torsion [C]-N--CA-[CB] |==|  0.23836
USER: genes 8 Torsion [N]-CA--C-[N] |==|  0.59404
USER: genes 9 Torsion [C]-N--CA-[CB] |==|  0.32338
USER: genes 10 Torsion [N]-CA--C-[O] |==|  0.02565
USER: genes 11 Torsion [N]-C--CA-[N] |==|  0.50380
USER: genes 12 Torsion [C]-CA--N-[H3] |==|  0.15131
USER: genes 13 Torsion [C]-CA--CB-[CG] |==|  0.54418
USER: genes 14 Torsion [CA]-CB--CG-[CD] |==|  0.85543
USER: genes 15 Torsion [CB]-CG--CD-[NE] |==|  0.46619
USER: genes 16 Torsion [CG]-CD--NE-[HE] |==|  0.24037
ROOT
ATOM      1  C   ARG X   1     -40.842  11.845  -6.003  1.00 28.35 LIG 0.25  C 
ATOM      2 O    ARG X   1     -40.036  10.983  -5.670  1.00 27.73 LIG-0.27  OA
ATOM      3  N   GLU X   2     -41.941  11.573  -6.697  1.00 29.79 LIG-0.35  N 
ATOM      4 H    GLU X   2     -42.576  12.136  -6.831  1.00 29.79 LIG 0.16  HD
ENDROOT
BRANCH 3 5
ATOM      5  CA  GLU X   2     -42.155  10.270  -7.299  1.00 30.62 LIG 0.18  C 
BRANCH 5 6
ATOM      6  CB  GLU X   2     -43.518   9.683  -6.923  1.00 30.95 LIG 0.04  C 
BRANCH 6 7
ATOM      7  CG  GLU X   2     -43.821   8.336  -7.606  1.00 31.16 LIG 0.12  C 
BRANCH 7 8
ATOM      8  CD  GLU X   2     -45.068   8.355  -8.493  1.00 32.27 LIG 0.17  C 
ATOM      9 OE1  GLU X   2     -46.154   7.979  -8.012  1.00 31.08 LIG-0.65  OA
ATOM     10 OE2  GLU X   2     -44.958   8.729  -9.683  1.00 30.98 LIG-0.65  OA
ENDBRANCH 7 8
ENDBRANCH 6 7
ENDBRANCH 5 6
BRANCH 5 11
ATOM     11  C   GLU X   2     -42.050  10.423  -8.800  1.00 31.96 LIG 0.24  C 
ATOM     12  N   ALA X   3     -41.414   9.446  -9.426  1.00 33.07 LIG-0.35  N 
ATOM     13 H    ALA X   3     -41.036   8.784  -9.029  1.00 33.07 LIG 0.16  HD
ATOM     14 O    GLU X   2     -42.534  11.404  -9.378  1.00 31.51 LIG-0.27  OA
BRANCH 12 15
ATOM     15  CA  ALA X   3     -41.308   9.424 -10.875  1.00 34.83 LIG 0.17  C 
ATOM     16  CB  ALA X   3     -40.102  10.251 -11.333  1.00 34.52 LIG 0.04  C 
BRANCH 15 17
ATOM     17  C   ALA X   3     -41.187   7.984 -11.328  1.00 35.72 LIG 0.24  C 
ATOM     18  N   ALA X   4     -40.426   7.771 -12.401  1.00 36.94 LIG-0.34  N 
ATOM     19 H    ALA X   4     -40.035   8.403 -12.835  1.00 36.94 LIG 0.16  HD
ATOM     20 O    ALA X   3     -41.794   7.094 -10.731  1.00 36.60 LIG-0.27  OA
BRANCH 18 21
ATOM     21  CA  ALA X   4     -40.178   6.436 -12.952  1.00 37.95 LIG 0.18  C 
ATOM     22  CB  ALA X   4     -40.753   6.323 -14.363  1.00 38.38 LIG 0.04  C 
BRANCH 21 23
ATOM     23  C   ALA X   4     -38.692   6.085 -12.962  1.00 38.48 LIG 0.20  C 
ATOM     24 O    ALA X   4     -37.856   6.791 -12.396  1.00 38.71 LIG-0.65  OA
ATOM     25 OXT  ALA X   4     -38.292   5.077 -13.542  1.00 39.00 LIG-0.65  OA
ENDBRANCH 21 23
ENDBRANCH 18 21
ENDBRANCH 15 17
ENDBRANCH 12 15
ENDBRANCH 5 11
ENDBRANCH 3 5
BRANCH 1 26
ATOM     26  CA  ARG X   1     -40.635  13.305  -5.630  1.00 28.22 LIG 0.27  C 
BRANCH 26 27
ATOM     27  N   ARG X   1     -39.357  13.509  -4.880  1.00 27.64 LIG-0.07  N 
ATOM     28 H3   ARG X   1     -38.680  13.176  -5.352  1.00 27.64 LIG 0.28  HD
ATOM     29 H2   ARG X   1     -39.403  13.093  -4.095  1.00 27.64 LIG 0.28  HD
ATOM     30 H1   ARG X   1     -39.226  14.379  -4.747  1.00 27.64 LIG 0.28  HD
ENDBRANCH 26 27
BRANCH 26 31
ATOM     31  CB  ARG X   1     -40.659  14.145  -6.913  1.00 28.04 LIG 0.04  C 
BRANCH 31 32
ATOM     32  CG  ARG X   1     -40.106  15.540  -6.784  1.00 27.94 LIG 0.02  C 
BRANCH 32 33
ATOM     33  CD  ARG X   1     -40.732  16.328  -5.628  1.00 29.24 LIG 0.14  C 
BRANCH 33 34
ATOM     34  NE  ARG X   1     -39.964  17.548  -5.373  1.00 27.62 LIG-0.23  N 
ATOM     35 HE   ARG X   1     -40.161  18.248  -5.831  1.00 27.62 LIG 0.18  HD
ATOM     36  CZ  ARG X   1     -38.981  17.647  -4.481  1.00 28.90 LIG 0.67  C 
ATOM     37  NH2 ARG X   1     -38.640  16.604  -3.729  1.00 29.13 LIG-0.23  N 
ATOM     38  NH1 ARG X   1     -38.339  18.800  -4.331  1.00 27.97 LIG-0.23  N 
ATOM     39 1HH2 ARG X   1     -39.055  15.856  -3.816  1.00 29.13 LIG 0.17  HD
ATOM     40 2HH2 ARG X   1     -38.003  16.677  -3.155  1.00 29.13 LIG 0.17  HD
ATOM     41 2HH1 ARG X   1     -37.703  18.866  -3.755  1.00 27.97 LIG 0.17  HD
ATOM     42 1HH1 ARG X   1     -38.559  19.480  -4.809  1.00 27.97 LIG 0.17  HD
ENDBRANCH 33 34
ENDBRANCH 32 33
ENDBRANCH 31 32
ENDBRANCH 26 31
ENDBRANCH 1 26
TORSDOF 15
ENDMDL
MODEL 3
USER: ADFR SOLUTION from run 121
USER: SCORE 14.673386 LL:  -1.897 LR: -14.010 RR:   0.000 FEB:  -9.535
USER: RMSD 2.291611
USER: SEED 120
USER: STATUS searching
USER: GENES 17
USER: genes 0 Translation |==|  0.54779 0.39937 0.66209
USER: genes 1 Rotation |==|  0.47118 0.48686 0.49413 0.99896
USER: genes 2 Torsion [C]-N--CA-[CB] |==|  0.24140
USER: genes 3 Torsion [N]-CA--CB-[CG] |==|  0.49000
USER: genes 4 Torsion [CA]-CB--CG-[CD] |==|  0.72289
USER: genes 5 Torsion [CB]-CG--CD-[OE1] |==|  0.78369
USER: genes 6 Torsion [N]-CA--C-[N] |==|  0.42225
USER: genes 7 Torsion [C]-N--CA-[CB] |==|  0.17582
USER: genes 8 Torsion [N]-CA--C-[N] |==|  0.13333
USER: genes 9 Torsion [C]-N--CA-[CB] |==|  0.22939
USER: genes 10 Torsion [N]-CA--C-[O] |==|  0.97836
USER: genes 11 Torsion [N]-C--CA-[N] |==|  0.43120
USER: genes 12 Torsion [C]-CA--N-[H3] |==|  0.41372
USER: genes 13 Torsion [C]-CA--CB-[CG] |==|  0.53094
USER: genes 14 Torsion [CA]-CB--CG-[CD] |==|  0.86310
USER: genes 15 Torsion [CB]-CG--CD-[NE] |==|  0.76686
USER: genes 16 Torsion [CG]-CD--NE-[HE] |==|  0.22486
ROOT
ATOM      1  C   ARG X   1     -41.411  11.491  -6.351  1.00 28.35 LIG 0.25  C 
ATOM      2 O    ARG X   1     -40.797  10.493  -5.988  1.00 27.73 LIG-0.27  OA
ATOM      3  N   GLU X   2     -42.427  11.440  -7.204  1.00 29.79 LIG-0.35  N 
ATOM      4 H    GLU X   2     -42.947  12.103  -7.372  1.00 29.79 LIG 0.16  HD
ENDROOT
BRANCH 3 5
ATOM      5  CA  GLU X   2     -42.743  10.228  -7.936  1.00 30.62 LIG 0.18  C 
BRANCH 5 6
ATOM      6  CB  GLU X   2     -43.670   9.304  -7.141  1.00 30.95 LIG 0.04  C 
BRANCH 6 7
ATOM      7  CG  GLU X   2     -44.102   8.045  -7.916  1.00 31.16 LIG 0.12  C 
BRANCH 7 8
ATOM      8  CD  GLU X   2     -45.499   8.143  -8.533  1.00 32.27 LIG 0.17  C 
ATOM      9 OE1  GLU X   2     -46.493   7.987  -7.797  1.00 31.08 LIG-0.65  OA
ATOM     10 OE2  GLU X   2     -45.604   8.356  -9.762  1.00 30.98 LIG-0.65  OA
ENDBRANCH 7 8
ENDBRANCH 6 7
ENDBRANCH 5 6
BRANCH 5 11
ATOM     11  C   GLU X   2     -43.399  10.624  -9.241  1.00 31.96 LIG 0.24  C 
ATOM     12  N   ALA X   3     -43.233   9.772 -10.239  1.00 33.07 LIG-0.35  N 
ATOM     13 H    ALA X   3     -42.752   9.061 -10.192  1.00 33.07 LIG 0.16  HD
ATOM     14 O    GLU X   2     -44.039  11.678  -9.339  1.00 31.51 LIG-0.27  OA
BRANCH 12 15
ATOM     15  CA  ALA X   3     -43.873   9.987 -11.526  1.00 34.83 LIG 0.17  C 
ATOM     16  CB  ALA X   3     -43.350  11.275 -12.171  1.00 34.52 LIG 0.04  C 
BRANCH 15 17
ATOM     17  C   ALA X   3     -43.601   8.786 -12.407  1.00 35.72 LIG 0.24  C 
ATOM     18  N   ALA X   4     -43.816   7.594 -11.852  1.00 36.94 LIG-0.34  N 
ATOM     19 H    ALA X   4     -44.075   7.492 -11.038  1.00 36.94 LIG 0.16  HD
ATOM     20 O    ALA X   3     -43.179   8.943 -13.554  1.00 36.60 LIG-0.27  OA
BRANCH 18 21
ATOM     21  CA  ALA X   4     -43.632   6.332 -12.575  1.00 37.95 LIG 0.18  C 
ATOM     22  CB  ALA X   4     -42.161   5.919 -12.565  1.00 38.38 LIG 0.04  C 
BRANCH 21 23
ATOM     23  C   ALA X   4     -44.496   5.210 -12.003  1.00 38.48 LIG 0.20  C 
ATOM     24 O    ALA X   4     -45.137   5.354 -10.960  1.00 38.71 LIG-0.65  OA
ATOM     25 OXT  ALA X   4     -44.573   4.127 -12.578  1.00 39.00 LIG-0.65  OA
ENDBRANCH 21 23
ENDBRANCH 18 21
ENDBRANCH 15 17
ENDBRANCH 12 15
ENDBRANCH 5 11
ENDBRANCH 3 5
BRANCH 1 26
ATOM     26  CA  ARG X   1     -41.046  12.873  -5.832  1.00 28.22 LIG 0.27  C 
BRANCH 26 27
ATOM     27  N   ARG X   1     -40.357  12.803  -4.507  1.00 27.64 LIG-0.07  N 
ATOM     28 H3   ARG X   1     -39.784  13.479  -4.434  1.00 27.64 LIG 0.28  HD
ATOM     29 H2   ARG X   1     -39.915  12.033  -4.441  1.00 27.64 LIG 0.28  HD
ATOM     30 H1   ARG X   1     -40.960  12.854  -3.855  1.00 27.64 LIG 0.28  HD
ENDBRANCH 26 27
BRANCH 26 31
ATOM     31  CB  ARG X   1     -40.162  13.568  -6.875  1.00 28.04 LIG 0.04  C 
BRANCH 31 32
ATOM     32  CG  ARG X   1     -39.496  14.838  -6.416  1.00 27.94 LIG 0.02  C 
BRANCH 32 33
ATOM     33  CD  ARG X   1     -40.467  15.816  -5.744  1.00 29.24 LIG 0.14  C 
BRANCH 33 34
ATOM     34  NE  ARG X   1     -41.156  16.620  -6.755  1.00 27.62 LIG-0.23  N 
ATOM     35 HE   ARG X   1     -41.830  16.267  -7.156  1.00 27.62 LIG 0.18  HD
ATOM     36  CZ  ARG X   1     -40.811  17.859  -7.096  1.00 28.90 LIG 0.67  C 
ATOM     37  NH2 ARG X   1     -39.789  18.467  -6.499  1.00 29.13 LIG-0.23  N 
ATOM     38  NH1 ARG X   1     -41.498  18.502  -8.033  1.00 27.97 LIG-0.23  N 
ATOM     39 1HH2 ARG X   1     -39.343  18.059  -5.887  1.00 29.13 LIG 0.17  HD
ATOM     40 2HH2 ARG X   1     -39.573  19.268  -6.726  1.00 29.13 LIG 0.17  HD
ATOM     41 2HH1 ARG X   1     -41.277  19.303  -8.255  1.00 27.97 LIG 0.17  HD
ATOM     42 1HH1 ARG X   1     -42.164  18.117  -8.417  1.00 27.97 LIG 0.17  HD
ENDBRANCH 33 34
ENDBRANCH 32 33
ENDBRANCH 31 32
ENDBRANCH 26 31
ENDBRANCH 1 26
TORSDOF 15
ENDMDL
MODEL 4
USER: ADFR SOLUTION from run 138
USER: SCORE 14.516753 LL:  -1.061 LR: -13.996 RR:   0.000 FEB:  -9.521
USER: RMSD 3.191654
USER: SEED 137
USER: STATUS no improvement in best in 8 clusters for 5 generations
USER: GENES 17
USER: genes 0 Translation |==|  0.53775 0.40482 0.66456
USER: genes 1 Rotation |==|  0.43541 0.40094 0.43000 0.98074
USER: genes 2 Torsion [C]-N--CA-[CB] |==|  0.16514
USER: genes 3 Torsion [N]-CA--CB-[CG] |==|  0.54354
USER: genes 4 Torsion [CA]-CB--CG-[CD] |==|  0.72620
USER: genes 5 Torsion [CB]-CG--CD-[OE1] |==|  0.89172
USER: genes 6 Torsion [N]-CA--C-[N] |==|  0.12322
USER: genes 7 Torsion [C]-N--CA-[CB] |==|  0.81661
USER: genes 8 Torsion [N]-CA--C-[N] |==|  0.51100
USER: genes 9 Torsion [C]-N--CA-[CB] |==|  0.51873
USER: genes 10 Torsion [N]-CA--C-[O] |==|  0.89032
USER: genes 11 Torsion [N]-C--CA-[N] |==|  0.49850
USER: genes 12 Torsion [C]-CA--N-[H3] |==|  0.10217
USER: genes 13 Torsion [C]-CA--CB-[CG] |==|  0.51016
USER: genes 14 Torsion [CA]-CB--CG-[CD] |==|  0.89152
USER: genes 15 Torsion [CB]-CG--CD-[NE] |==|  0.75863
USER: genes 16 Torsion [CG]-CD--NE-[HE] |==|  0.21022
ROOT
ATOM      1  C   ARG X   1     -41.569  11.605  -6.299  1.00 28.35 LIG 0.25  C 
ATOM      2 O    ARG X   1     -41.392  10.585  -5.642  1.00 27.73 LIG-0.27  OA
ATOM      3  N   GLU X   2     -42.222  11.612  -7.455  1.00 29.79 LIG-0.35  N 
ATOM      4 H    GLU X   2     -42.465  12.326  -7.866  1.00 29.79 LIG 0.16  HD
ENDROOT
BRANCH 3 5
ATOM      5  CA  GLU X   2     -42.581  10.379  -8.130  1.00 30.62 LIG 0.18  C 
BRANCH 5 6
ATOM      6  CB  GLU X   2     -43.482   9.493  -7.264  1.00 30.95 LIG 0.04  C 
BRANCH 6 7
ATOM      7  CG  GLU X   2     -43.579   8.038  -7.760  1.00 31.16 LIG 0.12  C 
BRANCH 7 8
ATOM      8  CD  GLU X   2     -44.832   7.744  -8.586  1.00 32.27 LIG 0.17  C 
ATOM      9 OE1  GLU X   2     -45.913   8.261  -8.243  1.00 31.08 LIG-0.65  OA
ATOM     10 OE2  GLU X   2     -44.741   6.977  -9.571  1.00 30.98 LIG-0.65  OA
ENDBRANCH 7 8
ENDBRANCH 6 7
ENDBRANCH 5 6
BRANCH 5 11
ATOM     11  C   GLU X   2     -43.288  10.738  -9.419  1.00 31.96 LIG 0.24  C 
ATOM     12  N   ALA X   3     -42.727  11.709 -10.122  1.00 33.07 LIG-0.35  N 
ATOM     13 H    ALA X   3     -42.037  12.153  -9.865  1.00 33.07 LIG 0.16  HD
ATOM     14 O    GLU X   2     -44.319  10.149  -9.767  1.00 31.51 LIG-0.27  OA
BRANCH 12 15
ATOM     15  CA  ALA X   3     -43.255  12.102 -11.417  1.00 34.83 LIG 0.17  C 
ATOM     16  CB  ALA X   3     -43.083  10.964 -12.429  1.00 34.52 LIG 0.04  C 
BRANCH 15 17
ATOM     17  C   ALA X   3     -44.714  12.470 -11.252  1.00 35.72 LIG 0.24  C 
ATOM     18  N   ALA X   4     -45.370  12.778 -12.371  1.00 36.94 LIG-0.34  N 
ATOM     19 H    ALA X   4     -44.999  12.790 -13.147  1.00 36.94 LIG 0.16  HD
ATOM     20 O    ALA X   3     -45.222  12.501 -10.130  1.00 36.60 LIG-0.27  OA
BRANCH 18 21
ATOM     21  CA  ALA X   4     -46.793  13.126 -12.392  1.00 37.95 LIG 0.18  C 
ATOM     22  CB  ALA X   4     -47.289  13.263 -13.830  1.00 38.38 LIG 0.04  C 
BRANCH 21 23
ATOM     23  C   ALA X   4     -47.645  12.109 -11.638  1.00 38.48 LIG 0.20  C 
ATOM     24 O    ALA X   4     -47.420  10.899 -11.703  1.00 38.71 LIG-0.65  OA
ATOM     25 OXT  ALA X   4     -48.585  12.479 -10.937  1.00 39.00 LIG-0.65  OA
ENDBRANCH 21 23
ENDBRANCH 18 21
ENDBRANCH 15 17
ENDBRANCH 12 15
ENDBRANCH 5 11
ENDBRANCH 3 5
BRANCH 1 26
ATOM     26  CA  ARG X   1     -41.051  12.952  -5.820  1.00 28.22 LIG 0.27  C 
BRANCH 26 27
ATOM     27  N   ARG X   1     -40.345  12.838  -4.506  1.00 27.64 LIG-0.07  N 
ATOM     28 H3   ARG X   1     -39.891  12.073  -4.478  1.00 27.64 LIG 0.28  HD
ATOM     29 H2   ARG X   1     -40.940  12.853  -3.846  1.00 27.64 LIG 0.28  HD
ATOM     30 H1   ARG X   1     -39.781  13.520  -4.412  1.00 27.64 LIG 0.28  HD
ENDBRANCH 26 27
BRANCH 26 31
ATOM     31  CB  ARG X   1     -40.120  13.527  -6.895  1.00 28.04 LIG 0.04  C 
BRANCH 31 32
ATOM     32  CG  ARG X   1     -39.448  14.828  -6.541  1.00 27.94 LIG 0.02  C 
BRANCH 32 33
ATOM     33  CD  ARG X   1     -40.367  15.789  -5.778  1.00 29.24 LIG 0.14  C 
BRANCH 33 34
ATOM     34  NE  ARG X   1     -41.146  16.597  -6.717  1.00 27.62 LIG-0.23  N 
ATOM     35 HE   ARG X   1     -41.808  16.220  -7.116  1.00 27.62 LIG 0.18  HD
ATOM     36  CZ  ARG X   1     -40.900  17.875  -6.996  1.00 28.90 LIG 0.67  C 
ATOM     37  NH2 ARG X   1     -39.901  18.520  -6.398  1.00 29.13 LIG-0.23  N 
ATOM     38  NH1 ARG X   1     -41.663  18.519  -7.871  1.00 27.97 LIG-0.23  N 
ATOM     39 1HH2 ARG X   1     -39.406  18.111  -5.826  1.00 29.13 LIG 0.17  HD
ATOM     40 2HH2 ARG X   1     -39.749  19.346  -6.585  1.00 29.13 LIG 0.17  HD
ATOM     41 2HH1 ARG X   1     -41.506  19.345  -8.053  1.00 27.97 LIG 0.17  HD
ATOM     42 1HH1 ARG X   1     -42.315  18.111  -8.255  1.00 27.97 LIG 0.17  HD
ENDBRANCH 33 34
ENDBRANCH 32 33
ENDBRANCH 31 32
ENDBRANCH 26 31
ENDBRANCH 1 26
TORSDOF 15
ENDMDL
MODEL 5
USER: ADFR SOLUTION from run 154
USER: SCORE 13.579304 LL:  -2.459 LR: -13.906 RR:   0.000 FEB:  -9.432
USER: RMSD 3.314482
USER: SEED 153
USER: STATUS no improvement in best in 8 clusters for 5 generations
USER: GENES 17
USER: genes 0 Translation |==|  0.55648 0.40776 0.64823
USER: genes 1 Rotation |==|  0.51881 0.45471 0.49932 0.99759
USER: genes 2 Torsion [C]-N--CA-[CB] |==|  0.15752
USER: genes 3 Torsion [N]-CA--CB-[CG] |==|  0.46908
USER: genes 4 Torsion [CA]-CB--CG-[CD] |==|  0.16058
USER: genes 5 Torsion [CB]-CG--CD-[OE1] |==|  0.94346
USER: genes 6 Torsion [N]-CA--C-[N] |==|  0.44030
USER: genes 7 Torsion [C]-N--CA-[CB] |==|  0.44321
USER: genes 8 Torsion [N]-CA--C-[N] |==|  0.91110
USER: genes 9 Torsion [C]-N--CA-[CB] |==|  0.37079
USER: genes 10 Torsion [N]-CA--C-[O] |==|  0.93897
USER: genes 11 Torsion [N]-C--CA-[N] |==|  0.44794
USER: genes 12 Torsion [C]-CA--N-[H3] |==|  0.73195
USER: genes 13 Torsion [C]-CA--CB-[CG] |==|  0.51593
USER: genes 14 Torsion [CA]-CB--CG-[CD] |==|  0.81854
USER: genes 15 Torsion [CB]-CG--CD-[NE] |==|  0.77603
USER: genes 16 Torsion [CG]-CD--NE-[HE] |==|  0.21829
ROOT
ATOM      1  C   ARG X   1     -41.274  11.667  -6.642  1.00 28.35 LIG 0.25  C 
ATOM      2 O    ARG X   1     -40.666  10.632  -6.392  1.00 27.73 LIG-0.27  OA
ATOM      3  N   GLU X   2     -42.172  11.757  -7.616  1.00 29.79 LIG-0.35  N 
ATOM      4 H    GLU X   2     -42.696  12.429  -7.726  1.00 29.79 LIG 0.16  HD
ENDROOT
BRANCH 3 5
ATOM      5  CA  GLU X   2     -42.338  10.698  -8.594  1.00 30.62 LIG 0.18  C 
BRANCH 5 6
ATOM      6  CB  GLU X   2     -42.650   9.352  -7.934  1.00 30.95 LIG 0.04  C 
BRANCH 6 7
ATOM      7  CG  GLU X   2     -43.100   8.265  -8.928  1.00 31.16 LIG 0.12  C 
BRANCH 7 8
ATOM      8  CD  GLU X   2     -42.086   7.978 -10.037  1.00 32.27 LIG 0.17  C 
ATOM      9 OE1  GLU X   2     -41.220   8.837 -10.297  1.00 31.08 LIG-0.65  OA
ATOM     10 OE2  GLU X   2     -42.166   6.898 -10.665  1.00 30.98 LIG-0.65  OA
ENDBRANCH 7 8
ENDBRANCH 6 7
ENDBRANCH 5 6
BRANCH 5 11
ATOM     11  C   GLU X   2     -43.463  11.093  -9.526  1.00 31.96 LIG 0.24  C 
ATOM     12  N   ALA X   3     -43.460  10.490 -10.704  1.00 33.07 LIG-0.35  N 
ATOM     13 H    ALA X   3     -42.849   9.945 -10.966  1.00 33.07 LIG 0.16  HD
ATOM     14 O    GLU X   2     -44.313  11.925  -9.185  1.00 31.51 LIG-0.27  OA
BRANCH 12 15
ATOM     15  CA  ALA X   3     -44.525  10.714 -11.667  1.00 34.83 LIG 0.17  C 
ATOM     16  CB  ALA X   3     -44.055  10.337 -13.076  1.00 34.52 LIG 0.04  C 
BRANCH 15 17
ATOM     17  C   ALA X   3     -45.729   9.894 -11.255  1.00 35.72 LIG 0.24  C 
ATOM     18  N   ALA X   4     -45.468   8.740 -10.640  1.00 36.94 LIG-0.34  N 
ATOM     19 H    ALA X   4     -44.671   8.453 -10.495  1.00 36.94 LIG 0.16  HD
ATOM     20 O    ALA X   3     -46.866  10.290 -11.516  1.00 36.60 LIG-0.27  OA
BRANCH 18 21
ATOM     21  CA  ALA X   4     -46.518   7.842 -10.150  1.00 37.95 LIG 0.18  C 
ATOM     22  CB  ALA X   4     -46.223   6.401 -10.559  1.00 38.38 LIG 0.04  C 
BRANCH 21 23
ATOM     23  C   ALA X   4     -46.690   7.934  -8.635  1.00 38.48 LIG 0.20  C 
ATOM     24 O    ALA X   4     -45.791   8.354  -7.905  1.00 38.71 LIG-0.65  OA
ATOM     25 OXT  ALA X   4     -47.743   7.587  -8.105  1.00 39.00 LIG-0.65  OA
ENDBRANCH 21 23
ENDBRANCH 18 21
ENDBRANCH 15 17
ENDBRANCH 12 15
ENDBRANCH 5 11
ENDBRANCH 3 5
BRANCH 1 26
ATOM     26  CA  ARG X   1     -41.040  12.934  -5.834  1.00 28.22 LIG 0.27  C 
BRANCH 26 27
ATOM     27  N   ARG X   1     -40.385  12.640  -4.521  1.00 27.64 LIG-0.07  N 
ATOM     28 H3   ARG X   1     -41.005  12.587  -3.885  1.00 27.64 LIG 0.28  HD
ATOM     29 H2   ARG X   1     -39.812  13.291  -4.322  1.00 27.64 LIG 0.28  HD
ATOM     30 H1   ARG X   1     -39.948  11.867  -4.574  1.00 27.64 LIG 0.28  HD
ENDBRANCH 26 27
BRANCH 26 31
ATOM     31  CB  ARG X   1     -40.187  13.896  -6.670  1.00 28.04 LIG 0.04  C 
BRANCH 31 32
ATOM     32  CG  ARG X   1     -39.747  15.151  -5.964  1.00 27.94 LIG 0.02  C 
BRANCH 32 33
ATOM     33  CD  ARG X   1     -40.916  16.072  -5.595  1.00 29.24 LIG 0.14  C 
BRANCH 33 34
ATOM     34  NE  ARG X   1     -41.326  16.860  -6.758  1.00 27.62 LIG-0.23  N 
ATOM     35 HE   ARG X   1     -41.814  16.474  -7.351  1.00 27.62 LIG 0.18  HD
ATOM     36  CZ  ARG X   1     -40.996  18.134  -6.960  1.00 28.90 LIG 0.67  C 
ATOM     37  NH2 ARG X   1     -40.258  18.793  -6.071  1.00 29.13 LIG-0.23  N 
ATOM     38  NH1 ARG X   1     -41.414  18.759  -8.054  1.00 27.97 LIG-0.23  N 
ATOM     39 1HH2 ARG X   1     -39.988  18.396  -5.357  1.00 29.13 LIG 0.17  HD
ATOM     40 2HH2 ARG X   1     -40.049  19.616  -6.210  1.00 29.13 LIG 0.17  HD
ATOM     41 2HH1 ARG X   1     -41.202  19.582  -8.187  1.00 27.97 LIG 0.17  HD
ATOM     42 1HH1 ARG X   1     -41.897  18.341  -8.630  1.00 27.97 LIG 0.17  HD
ENDBRANCH 33 34
ENDBRANCH 32 33
ENDBRANCH 31 32
ENDBRANCH 26 31
ENDBRANCH 1 26
TORSDOF 15
ENDMDL
MODEL 6
USER: ADFR SOLUTION from run 1
USER: SCORE 13.193492 LL:  -2.075 LR: -13.806 RR:   0.000 FEB:  -9.332
USER: RMSD 3.247403
USER: SEED 228432
USER: STATUS no improvement in best in 10 clusters for 5 generations
USER: GENES 17
USER: genes 0 Translation |==|  0.61778 0.50942 0.66013
USER: genes 1 Rotation |==|  0.37130 0.44299 0.56933 0.97474
USER: genes 2 Torsion [C]-N--CA-[CB] |==|  0.24444
USER: genes 3 Torsion [N]-CA--CB-[CG] |==|  0.35835
USER: genes 4 Torsion [CA]-CB--CG-[CD] |==|  0.74303
USER: genes 5 Torsion [CB]-CG--CD-[OE1] |==|  0.11572
USER: genes 6 Torsion [N]-CA--C-[N] |==|  0.44934
USER: genes 7 Torsion [C]-N--CA-[CB] |==|  0.32780
USER: genes 8 Torsion [N]-CA--C-[N] |==|  0.22819
USER: genes 9 Torsion [C]-N--CA-[CB] |==|  0.48276
USER: genes 10 Torsion [N]-CA--C-[O] |==|  0.98301
USER: genes 11 Torsion [N]-C--CA-[N] |==|  0.18455
USER: genes 12 Torsion [C]-CA--N-[H3] |==|  0.72604
USER: genes 13 Torsion [C]-CA--CB-[CG] |==|  0.59059
USER: genes 14 Torsion [CA]-CB--CG-[CD] |==|  0.66446
USER: genes 15 Torsion [CB]-CG--CD-[NE] |==|  0.71383
USER: genes 16 Torsion [CG]-CD--NE-[HE] |==|  0.06139
ROOT
ATOM      1  C   ARG X   1     -40.309  13.802  -6.392  1.00 28.35 LIG 0.25  C 
ATOM      2 O    ARG X   1     -39.552  13.267  -5.590  1.00 27.73 LIG-0.27  OA
ATOM      3  N   GLU X   2     -41.074  13.112  -7.230  1.00 29.79 LIG-0.35  N 
ATOM      4 H    GLU X   2     -41.698  13.459  -7.707  1.00 29.79 LIG 0.16  HD
ENDROOT
BRANCH 3 5
ATOM      5  CA  GLU X   2     -40.907  11.682  -7.406  1.00 30.62 LIG 0.18  C 
BRANCH 5 6
ATOM      6  CB  GLU X   2     -41.734  10.880  -6.397  1.00 30.95 LIG 0.04  C 
BRANCH 6 7
ATOM      7  CG  GLU X   2     -42.608   9.788  -7.043  1.00 31.16 LIG 0.12  C 
BRANCH 7 8
ATOM      8  CD  GLU X   2     -44.028  10.246  -7.380  1.00 32.27 LIG 0.17  C 
ATOM      9 OE1  GLU X   2     -44.193  11.377  -7.876  1.00 31.08 LIG-0.65  OA
ATOM     10 OE2  GLU X   2     -44.986   9.479  -7.130  1.00 30.98 LIG-0.65  OA
ENDBRANCH 7 8
ENDBRANCH 6 7
ENDBRANCH 5 6
BRANCH 5 11
ATOM     11  C   GLU X   2     -41.324  11.330  -8.817  1.00 31.96 LIG 0.24  C 
ATOM     12  N   ALA X   3     -40.890  10.162  -9.262  1.00 33.07 LIG-0.35  N 
ATOM     13 H    ALA X   3     -40.367   9.641  -8.820  1.00 33.07 LIG 0.16  HD
ATOM     14 O    GLU X   2     -42.023  12.100  -9.487  1.00 31.51 LIG-0.27  OA
BRANCH 12 15
ATOM     15  CA  ALA X   3     -41.279   9.662 -10.569  1.00 34.83 LIG 0.17  C 
ATOM     16  CB  ALA X   3     -40.047   9.495 -11.464  1.00 34.52 LIG 0.04  C 
BRANCH 15 17
ATOM     17  C   ALA X   3     -42.003   8.345 -10.386  1.00 35.72 LIG 0.24  C 
ATOM     18  N   ALA X   4     -43.295   8.427 -10.068  1.00 36.94 LIG-0.34  N 
ATOM     19 H    ALA X   4     -43.705   9.174  -9.950  1.00 36.94 LIG 0.16  HD
ATOM     20 O    ALA X   3     -41.393   7.282 -10.505  1.00 36.60 LIG-0.27  OA
BRANCH 18 21
ATOM     21  CA  ALA X   4     -44.149   7.250  -9.885  1.00 37.95 LIG 0.18  C 
ATOM     22  CB  ALA X   4     -45.529   7.663  -9.378  1.00 38.38 LIG 0.04  C 
BRANCH 21 23
ATOM     23  C   ALA X   4     -44.284   6.434 -11.169  1.00 38.48 LIG 0.20  C 
ATOM     24 O    ALA X   4     -43.813   6.825 -12.238  1.00 38.71 LIG-0.65  OA
ATOM     25 OXT  ALA X   4     -44.871   5.354 -11.163  1.00 39.00 LIG-0.65  OA
ENDBRANCH 21 23
ENDBRANCH 18 21
ENDBRANCH 15 17
ENDBRANCH 12 15
ENDBRANCH 5 11
ENDBRANCH 3 5
BRANCH 1 26
ATOM     26  CA  ARG X   1     -40.428  15.316  -6.476  1.00 28.22 LIG 0.27  C 
BRANCH 26 27
ATOM     27  N   ARG X   1     -41.779  15.790  -6.041  1.00 27.64 LIG-0.07  N 
ATOM     28 H3   ARG X   1     -42.286  15.938  -6.757  1.00 27.64 LIG 0.28  HD
ATOM     29 H2   ARG X   1     -41.694  16.544  -5.577  1.00 27.64 LIG 0.28  HD
ATOM     30 H1   ARG X   1     -42.161  15.169  -5.530  1.00 27.64 LIG 0.28  HD
ENDBRANCH 26 27
BRANCH 26 31
ATOM     31  CB  ARG X   1     -39.323  15.940  -5.615  1.00 28.04 LIG 0.04  C 
BRANCH 31 32
ATOM     32  CG  ARG X   1     -39.678  17.247  -4.955  1.00 27.94 LIG 0.02  C 
BRANCH 32 33
ATOM     33  CD  ARG X   1     -38.747  18.396  -5.361  1.00 29.24 LIG 0.14  C 
BRANCH 33 34
ATOM     34  NE  ARG X   1     -37.787  18.672  -4.291  1.00 27.62 LIG-0.23  N 
ATOM     35 HE   ARG X   1     -37.628  18.045  -3.724  1.00 27.62 LIG 0.18  HD
ATOM     36  CZ  ARG X   1     -37.144  19.827  -4.135  1.00 28.90 LIG 0.67  C 
ATOM     37  NH2 ARG X   1     -37.334  20.830  -4.989  1.00 29.13 LIG-0.23  N 
ATOM     38  NH1 ARG X   1     -36.297  19.980  -3.125  1.00 27.97 LIG-0.23  N 
ATOM     39 1HH2 ARG X   1     -37.877  20.736  -5.649  1.00 29.13 LIG 0.17  HD
ATOM     40 2HH2 ARG X   1     -36.914  21.573  -4.880  1.00 29.13 LIG 0.17  HD
ATOM     41 2HH1 ARG X   1     -35.880  20.725  -3.021  1.00 27.97 LIG 0.17  HD
ATOM     42 1HH1 ARG X   1     -36.164  19.333  -2.573  1.00 27.97 LIG 0.17  HD
ENDBRANCH 33 34
ENDBRANCH 32 33
ENDBRANCH 31 32
ENDBRANCH 26 31
ENDBRANCH 1 26
TORSDOF 15
ENDMDL
MODEL 7
USER: ADFR SOLUTION from run 163
USER: SCORE 13.631445 LL:  -1.418 LR: -13.602 RR:   0.000 FEB:  -9.128
USER: RMSD 2.772801
USER: SEED 162
USER: STATUS no improvement in best in 6 clusters for 5 generations
USER: GENES 17
USER: genes 0 Translation |==|  0.54731 0.40699 0.66130
USER: genes 1 Rotation |==|  0.48848 0.47012 0.48275 0.99868
USER: genes 2 Torsion [C]-N--CA-[CB] |==|  0.23263
USER: genes 3 Torsion [N]-CA--CB-[CG] |==|  0.56122
USER: genes 4 Torsion [CA]-CB--CG-[CD] |==|  0.70050
USER: genes 5 Torsion [CB]-CG--CD-[OE1] |==|  0.90417
USER: genes 6 Torsion [N]-CA--C-[N] |==|  0.38183
USER: genes 7 Torsion [C]-N--CA-[CB] |==|  0.50013
USER: genes 8 Torsion [N]-CA--C-[N] |==|  0.44223
USER: genes 9 Torsion [C]-N--CA-[CB] |==|  0.85433
USER: genes 10 Torsion [N]-CA--C-[O] |==|  0.03890
USER: genes 11 Torsion [N]-C--CA-[N] |==|  0.46245
USER: genes 12 Torsion [C]-CA--N-[H3] |==|  0.05748
USER: genes 13 Torsion [C]-CA--CB-[CG] |==|  0.39098
USER: genes 14 Torsion [CA]-CB--CG-[CD] |==|  0.30966
USER: genes 15 Torsion [CB]-CG--CD-[NE] |==|  0.85453
USER: genes 16 Torsion [CG]-CD--NE-[HE] |==|  0.04459
ROOT
ATOM      1  C   ARG X   1     -41.419  11.651  -6.368  1.00 28.35 LIG 0.25  C 
ATOM      2 O    ARG X   1     -40.870  10.606  -6.035  1.00 27.73 LIG-0.27  OA
ATOM      3  N   GLU X   2     -42.372  11.701  -7.290  1.00 29.79 LIG-0.35  N 
ATOM      4 H    GLU X   2     -42.854  12.395  -7.446  1.00 29.79 LIG 0.16  HD
ENDROOT
BRANCH 3 5
ATOM      5  CA  GLU X   2     -42.680  10.556  -8.126  1.00 30.62 LIG 0.18  C 
BRANCH 5 6
ATOM      6  CB  GLU X   2     -43.635   9.580  -7.432  1.00 30.95 LIG 0.04  C 
BRANCH 6 7
ATOM      7  CG  GLU X   2     -43.578   8.149  -7.999  1.00 31.16 LIG 0.12  C 
BRANCH 7 8
ATOM      8  CD  GLU X   2     -44.805   7.758  -8.825  1.00 32.27 LIG 0.17  C 
ATOM      9 OE1  GLU X   2     -45.920   8.202  -8.491  1.00 31.08 LIG-0.65  OA
ATOM     10 OE2  GLU X   2     -44.657   6.985  -9.799  1.00 30.98 LIG-0.65  OA
ENDBRANCH 7 8
ENDBRANCH 6 7
ENDBRANCH 5 6
BRANCH 5 11
ATOM     11  C   GLU X   2     -43.298  11.064  -9.410  1.00 31.96 LIG 0.24  C 
ATOM     12  N   ALA X   3     -42.874  10.473 -10.515  1.00 33.07 LIG-0.35  N 
ATOM     13 H    ALA X   3     -42.257   9.874 -10.536  1.00 33.07 LIG 0.16  HD
ATOM     14 O    GLU X   2     -44.139  11.971  -9.399  1.00 31.51 LIG-0.27  OA
BRANCH 12 15
ATOM     15  CA  ALA X   3     -43.439  10.806 -11.811  1.00 34.83 LIG 0.17  C 
ATOM     16  CB  ALA X   3     -42.769   9.977 -12.913  1.00 34.52 LIG 0.04  C 
BRANCH 15 17
ATOM     17  C   ALA X   3     -44.930  10.552 -11.768  1.00 35.72 LIG 0.24  C 
ATOM     18  N   ALA X   4     -45.659  11.188 -12.685  1.00 36.94 LIG-0.34  N 
ATOM     19 H    ALA X   4     -45.323  11.728 -13.263  1.00 36.94 LIG 0.16  HD
ATOM     20 O    ALA X   3     -45.408   9.817 -10.902  1.00 36.60 LIG-0.27  OA
BRANCH 18 21
ATOM     21  CA  ALA X   4     -47.112  11.029 -12.801  1.00 37.95 LIG 0.18  C 
ATOM     22  CB  ALA X   4     -47.483   9.550 -12.892  1.00 38.38 LIG 0.04  C 
BRANCH 21 23
ATOM     23  C   ALA X   4     -47.856  11.687 -11.642  1.00 38.48 LIG 0.20  C 
ATOM     24 O    ALA X   4     -47.299  12.479 -10.880  1.00 38.71 LIG-0.65  OA
ATOM     25 OXT  ALA X   4     -49.043  11.439 -11.441  1.00 39.00 LIG-0.65  OA
ENDBRANCH 21 23
ENDBRANCH 18 21
ENDBRANCH 15 17
ENDBRANCH 12 15
ENDBRANCH 5 11
ENDBRANCH 3 5
BRANCH 1 26
ATOM     26  CA  ARG X   1     -41.041  12.978  -5.729  1.00 28.22 LIG 0.27  C 
BRANCH 26 27
ATOM     27  N   ARG X   1     -40.212  12.784  -4.498  1.00 27.64 LIG-0.07  N 
ATOM     28 H3   ARG X   1     -39.838  11.977  -4.517  1.00 27.64 LIG 0.28  HD
ATOM     29 H2   ARG X   1     -40.728  12.854  -3.777  1.00 27.64 LIG 0.28  HD
ATOM     30 H1   ARG X   1     -39.575  13.405  -4.468  1.00 27.64 LIG 0.28  HD
ENDBRANCH 26 27
BRANCH 26 31
ATOM     31  CB  ARG X   1     -40.293  13.824  -6.767  1.00 28.04 LIG 0.04  C 
BRANCH 31 32
ATOM     32  CG  ARG X   1     -40.620  15.295  -6.760  1.00 27.94 LIG 0.02  C 
BRANCH 32 33
ATOM     33  CD  ARG X   1     -39.454  16.166  -6.280  1.00 29.24 LIG 0.14  C 
BRANCH 33 34
ATOM     34  NE  ARG X   1     -38.959  15.682  -4.990  1.00 27.62 LIG-0.23  N 
ATOM     35 HE   ARG X   1     -39.190  14.891  -4.744  1.00 27.62 LIG 0.18  HD
ATOM     36  CZ  ARG X   1     -38.176  16.382  -4.172  1.00 28.90 LIG 0.67  C 
ATOM     37  NH2 ARG X   1     -37.770  17.605  -4.504  1.00 29.13 LIG-0.23  N 
ATOM     38  NH1 ARG X   1     -37.786  15.854  -3.018  1.00 27.97 LIG-0.23  N 
ATOM     39 1HH2 ARG X   1     -38.013  17.951  -5.253  1.00 29.13 LIG 0.17  HD
ATOM     40 2HH2 ARG X   1     -37.264  18.050  -3.969  1.00 29.13 LIG 0.17  HD
ATOM     41 2HH1 ARG X   1     -37.280  16.304  -2.488  1.00 27.97 LIG 0.17  HD
ATOM     42 1HH1 ARG X   1     -38.039  15.061  -2.801  1.00 27.97 LIG 0.17  HD
ENDBRANCH 33 34
ENDBRANCH 32 33
ENDBRANCH 31 32
ENDBRANCH 26 31
ENDBRANCH 1 26
TORSDOF 15
ENDMDL
MODEL 8
USER: ADFR SOLUTION from run 165
USER: SCORE 14.061457 LL:  -2.236 LR: -13.476 RR:   0.000 FEB:  -9.002
USER: RMSD 3.244969
USER: SEED 164
USER: STATUS no improvement in best in 8 clusters for 5 generations
USER: GENES 17
USER: genes 0 Translation |==|  0.57278 0.41075 0.64680
USER: genes 1 Rotation |==|  0.52344 0.43971 0.51727 0.99550
USER: genes 2 Torsion [C]-N--CA-[CB] |==|  0.46217
USER: genes 3 Torsion [N]-CA--CB-[CG] |==|  0.62401
USER: genes 4 Torsion [CA]-CB--CG-[CD] |==|  0.15441
USER: genes 5 Torsion [CB]-CG--CD-[OE1] |==|  0.80698
USER: genes 6 Torsion [N]-CA--C-[N] |==|  0.42132
USER: genes 7 Torsion [C]-N--CA-[CB] |==|  0.24962
USER: genes 8 Torsion [N]-CA--C-[N] |==|  0.98918
USER: genes 9 Torsion [C]-N--CA-[CB] |==|  0.15138
USER: genes 10 Torsion [N]-CA--C-[O] |==|  0.50353
USER: genes 11 Torsion [N]-C--CA-[N] |==|  0.45231
USER: genes 12 Torsion [C]-CA--N-[H3] |==|  0.03548
USER: genes 13 Torsion [C]-CA--CB-[CG] |==|  0.51892
USER: genes 14 Torsion [CA]-CB--CG-[CD] |==|  0.81074
USER: genes 15 Torsion [CB]-CG--CD-[NE] |==|  0.77431
USER: genes 16 Torsion [CG]-CD--NE-[HE] |==|  0.23222
ROOT
ATOM      1  C   ARG X   1     -41.018  11.730  -6.672  1.00 28.35 LIG 0.25  C 
ATOM      2 O    ARG X   1     -40.355  10.736  -6.394  1.00 27.73 LIG-0.27  OA
ATOM      3  N   GLU X   2     -41.856  11.770  -7.700  1.00 29.79 LIG-0.35  N 
ATOM      4 H    GLU X   2     -42.420  12.405  -7.836  1.00 29.79 LIG 0.16  HD
ENDROOT
BRANCH 3 5
ATOM      5  CA  GLU X   2     -41.886  10.717  -8.697  1.00 30.62 LIG 0.18  C 
BRANCH 5 6
ATOM      6  CB  GLU X   2     -43.132  10.801  -9.583  1.00 30.95 LIG 0.04  C 
BRANCH 6 7
ATOM      7  CG  GLU X   2     -43.817   9.441  -9.817  1.00 31.16 LIG 0.12  C 
BRANCH 7 8
ATOM      8  CD  GLU X   2     -44.199   8.707  -8.530  1.00 32.27 LIG 0.17  C 
ATOM      9 OE1  GLU X   2     -43.292   8.246  -7.810  1.00 31.08 LIG-0.65  OA
ATOM     10 OE2  GLU X   2     -45.411   8.573  -8.247  1.00 30.98 LIG-0.65  OA
ENDBRANCH 7 8
ENDBRANCH 6 7
ENDBRANCH 5 6
BRANCH 5 11
ATOM     11  C   GLU X   2     -40.637  10.837  -9.544  1.00 31.96 LIG 0.24  C 
ATOM     12  N   ALA X   3     -40.202   9.705 -10.073  1.00 33.07 LIG-0.35  N 
ATOM     13 H    ALA X   3     -40.554   8.935  -9.924  1.00 33.07 LIG 0.16  HD
ATOM     14 O    GLU X   2     -40.083  11.929  -9.713  1.00 31.51 LIG-0.27  OA
BRANCH 12 15
ATOM     15  CA  ALA X   3     -39.060   9.685 -10.971  1.00 34.83 LIG 0.17  C 
ATOM     16  CB  ALA X   3     -37.762   9.495 -10.178  1.00 34.52 LIG 0.04  C 
BRANCH 15 17
ATOM     17  C   ALA X   3     -39.254   8.568 -11.974  1.00 35.72 LIG 0.24  C 
ATOM     18  N   ALA X   4     -40.334   7.806 -11.799  1.00 36.94 LIG-0.34  N 
ATOM     19 H    ALA X   4     -40.887   7.914 -11.150  1.00 36.94 LIG 0.16  HD
ATOM     20 O    ALA X   3     -38.426   8.388 -12.868  1.00 36.60 LIG-0.27  OA
BRANCH 18 21
ATOM     21  CA  ALA X   4     -40.687   6.702 -12.697  1.00 37.95 LIG 0.18  C 
ATOM     22  CB  ALA X   4     -39.519   5.726 -12.830  1.00 38.38 LIG 0.04  C 
BRANCH 21 23
ATOM     23  C   ALA X   4     -41.939   5.962 -12.233  1.00 38.48 LIG 0.20  C 
ATOM     24 O    ALA X   4     -42.380   4.988 -12.846  1.00 38.71 LIG-0.65  OA
ATOM     25 OXT  ALA X   4     -42.540   6.324 -11.224  1.00 39.00 LIG-0.65  OA
ENDBRANCH 21 23
ENDBRANCH 18 21
ENDBRANCH 15 17
ENDBRANCH 12 15
ENDBRANCH 5 11
ENDBRANCH 3 5
BRANCH 1 26
ATOM     26  CA  ARG X   1     -40.925  12.998  -5.838  1.00 28.22 LIG 0.27  C 
BRANCH 26 27
ATOM     27  N   ARG X   1     -40.300  12.739  -4.504  1.00 27.64 LIG-0.07  N 
ATOM     28 H3   ARG X   1     -39.926  11.932  -4.503  1.00 27.64 LIG 0.28  HD
ATOM     29 H2   ARG X   1     -40.924  12.777  -3.870  1.00 27.64 LIG 0.28  HD
ATOM     30 H1   ARG X   1     -39.678  13.355  -4.343  1.00 27.64 LIG 0.28  HD
ENDBRANCH 26 27
BRANCH 26 31
ATOM     31  CB  ARG X   1     -40.125  14.043  -6.626  1.00 28.04 LIG 0.04  C 
BRANCH 31 32
ATOM     32  CG  ARG X   1     -39.801  15.309  -5.877  1.00 27.94 LIG 0.02  C 
BRANCH 32 33
ATOM     33  CD  ARG X   1     -41.040  16.163  -5.579  1.00 29.24 LIG 0.14  C 
BRANCH 33 34
ATOM     34  NE  ARG X   1     -41.401  16.957  -6.755  1.00 27.62 LIG-0.23  N 
ATOM     35 HE   ARG X   1     -41.880  16.580  -7.361  1.00 27.62 LIG 0.18  HD
ATOM     36  CZ  ARG X   1     -41.040  18.223  -6.950  1.00 28.90 LIG 0.67  C 
ATOM     37  NH2 ARG X   1     -40.313  18.869  -6.041  1.00 29.13 LIG-0.23  N 
ATOM     38  NH1 ARG X   1     -41.414  18.855  -8.056  1.00 27.97 LIG-0.23  N 
ATOM     39 1HH2 ARG X   1     -40.072  18.468  -5.319  1.00 29.13 LIG 0.17  HD
ATOM     40 2HH2 ARG X   1     -40.084  19.687  -6.175  1.00 29.13 LIG 0.17  HD
ATOM     41 2HH1 ARG X   1     -41.181  19.673  -8.184  1.00 27.97 LIG 0.17  HD
ATOM     42 1HH1 ARG X   1     -41.889  18.446  -8.644  1.00 27.97 LIG 0.17  HD
ENDBRANCH 33 34
ENDBRANCH 32 33
ENDBRANCH 31 32
ENDBRANCH 26 31
ENDBRANCH 1 26
TORSDOF 15
ENDMDL
MODEL 9
USER: ADFR SOLUTION from run 200
USER: SCORE 12.794431 LL:  -1.834 LR: -13.263 RR:   0.000 FEB:  -8.789
USER: RMSD 2.065154
USER: SEED 199
USER: STATUS searching
USER: GENES 17
USER: genes 0 Translation |==|  0.56106 0.39512 0.66634
USER: genes 1 Rotation |==|  0.48040 0.55105 0.54520 0.99494
USER: genes 2 Torsion [C]-N--CA-[CB] |==|  0.43643
USER: genes 3 Torsion [N]-CA--CB-[CG] |==|  0.54441
USER: genes 4 Torsion [CA]-CB--CG-[CD] |==|  0.56849
USER: genes 5 Torsion [CB]-CG--CD-[OE1] |==|  0.74211
USER: genes 6 Torsion [N]-CA--C-[N] |==|  0.44600
USER: genes 7 Torsion [C]-N--CA-[CB] |==|  0.22102
USER: genes 8 Torsion [N]-CA--C-[N] |==|  0.20703
USER: genes 9 Torsion [C]-N--CA-[CB] |==|  0.32872
USER: genes 10 Torsion [N]-CA--C-[O] |==|  0.82493
USER: genes 11 Torsion [N]-C--CA-[N] |==|  0.39343
USER: genes 12 Torsion [C]-CA--N-[H3] |==|  0.74697
USER: genes 13 Torsion [C]-CA--CB-[CG] |==|  0.56840
USER: genes 14 Torsion [CA]-CB--CG-[CD] |==|  0.83279
USER: genes 15 Torsion [CB]-CG--CD-[NE] |==|  0.52852
USER: genes 16 Torsion [CG]-CD--NE-[HE] |==|  0.28411
ROOT
ATOM      1  C   ARG X   1     -41.202  11.401  -6.262  1.00 28.35 LIG 0.25  C 
ATOM      2 O    ARG X   1     -40.342  10.537  -6.131  1.00 27.73 LIG-0.27  OA
ATOM      3  N   GLU X   2     -42.382  11.163  -6.822  1.00 29.79 LIG-0.35  N 
ATOM      4 H    GLU X   2     -43.040  11.716  -6.810  1.00 29.79 LIG 0.16  HD
ENDROOT
BRANCH 3 5
ATOM      5  CA  GLU X   2     -42.654   9.919  -7.516  1.00 30.62 LIG 0.18  C 
BRANCH 5 6
ATOM      6  CB  GLU X   2     -44.154   9.617  -7.583  1.00 30.95 LIG 0.04  C 
BRANCH 6 7
ATOM      7  CG  GLU X   2     -44.475   8.155  -7.949  1.00 31.16 LIG 0.12  C 
BRANCH 7 8
ATOM      8  CD  GLU X   2     -45.851   7.962  -8.590  1.00 32.27 LIG 0.17  C 
ATOM      9 OE1  GLU X   2     -46.821   7.682  -7.859  1.00 31.08 LIG-0.65  OA
ATOM     10 OE2  GLU X   2     -45.960   8.072  -9.832  1.00 30.98 LIG-0.65  OA
ENDBRANCH 7 8
ENDBRANCH 6 7
ENDBRANCH 5 6
BRANCH 5 11
ATOM     11  C   GLU X   2     -42.083  10.025  -8.914  1.00 31.96 LIG 0.24  C 
ATOM     12  N   ALA X   3     -41.886   8.873  -9.534  1.00 33.07 LIG-0.35  N 
ATOM     13 H    ALA X   3     -42.018   8.103  -9.175  1.00 33.07 LIG 0.16  HD
ATOM     14 O    GLU X   2     -41.827  11.126  -9.417  1.00 31.51 LIG-0.27  OA
BRANCH 12 15
ATOM     15  CA  ALA X   3     -41.417   8.829 -10.908  1.00 34.83 LIG 0.17  C 
ATOM     16  CB  ALA X   3     -39.902   9.056 -10.960  1.00 34.52 LIG 0.04  C 
BRANCH 15 17
ATOM     17  C   ALA X   3     -41.788   7.487 -11.502  1.00 35.72 LIG 0.24  C 
ATOM     18  N   ALA X   4     -43.074   7.321 -11.813  1.00 36.94 LIG-0.34  N 
ATOM     19 H    ALA X   4     -43.674   7.921 -11.674  1.00 36.94 LIG 0.16  HD
ATOM     20 O    ALA X   3     -40.930   6.615 -11.647  1.00 36.60 LIG-0.27  OA
BRANCH 18 21
ATOM     21  CA  ALA X   4     -43.596   6.095 -12.424  1.00 37.95 LIG 0.18  C 
ATOM     22  CB  ALA X   4     -44.625   5.436 -11.508  1.00 38.38 LIG 0.04  C 
BRANCH 21 23
ATOM     23  C   ALA X   4     -44.207   6.354 -13.799  1.00 38.48 LIG 0.20  C 
ATOM     24 O    ALA X   4     -45.191   7.081 -13.944  1.00 38.71 LIG-0.65  OA
ATOM     25 OXT  ALA X   4     -43.723   5.838 -14.805  1.00 39.00 LIG-0.65  OA
ENDBRANCH 21 23
ENDBRANCH 18 21
ENDBRANCH 15 17
ENDBRANCH 12 15
ENDBRANCH 5 11
ENDBRANCH 3 5
BRANCH 1 26
ATOM     26  CA  ARG X   1     -40.971  12.824  -5.776  1.00 28.22 LIG 0.27  C 
BRANCH 26 27
ATOM     27  N   ARG X   1     -40.215  12.852  -4.486  1.00 27.64 LIG-0.07  N 
ATOM     28 H3   ARG X   1     -40.788  12.846  -3.805  1.00 27.64 LIG 0.28  HD
ATOM     29 H2   ARG X   1     -39.718  13.590  -4.448  1.00 27.64 LIG 0.28  HD
ATOM     30 H1   ARG X   1     -39.687  12.137  -4.435  1.00 27.64 LIG 0.28  HD
ENDBRANCH 26 27
BRANCH 26 31
ATOM     31  CB  ARG X   1     -40.223  13.597  -6.869  1.00 28.04 LIG 0.04  C 
BRANCH 31 32
ATOM     32  CG  ARG X   1     -39.417  14.777  -6.391  1.00 27.94 LIG 0.02  C 
BRANCH 32 33
ATOM     33  CD  ARG X   1     -40.270  15.843  -5.693  1.00 29.24 LIG 0.14  C 
BRANCH 33 34
ATOM     34  NE  ARG X   1     -39.482  17.056  -5.473  1.00 27.62 LIG-0.23  N 
ATOM     35 HE   ARG X   1     -39.610  17.719  -6.005  1.00 27.62 LIG 0.18  HD
ATOM     36  CZ  ARG X   1     -38.580  17.205  -4.505  1.00 28.90 LIG 0.67  C 
ATOM     37  NH2 ARG X   1     -38.348  16.222  -3.638  1.00 29.13 LIG-0.23  N 
ATOM     38  NH1 ARG X   1     -37.911  18.346  -4.394  1.00 27.97 LIG-0.23  N 
ATOM     39 1HH2 ARG X   1     -38.782  15.482  -3.700  1.00 29.13 LIG 0.17  HD
ATOM     40 2HH2 ARG X   1     -37.763  16.326  -3.015  1.00 29.13 LIG 0.17  HD
ATOM     41 2HH1 ARG X   1     -37.328  18.443  -3.769  1.00 27.97 LIG 0.17  HD
ATOM     42 1HH1 ARG X   1     -38.061  18.987  -4.946  1.00 27.97 LIG 0.17  HD
ENDBRANCH 33 34
ENDBRANCH 32 33
ENDBRANCH 31 32
ENDBRANCH 26 31
ENDBRANCH 1 26
TORSDOF 15
ENDMDL
MODEL 10
USER: ADFR SOLUTION from run 200
USER: SCORE 13.818710 LL:  -2.293 LR: -13.075 RR:   0.000 FEB:  -8.600
USER: RMSD 4.163628
USER: SEED 199
USER: STATUS searching
USER: GENES 17
USER: genes 0 Translation |==|  0.55908 0.39602 0.66377
USER: genes 1 Rotation |==|  0.49032 0.57167 0.56112 0.99095
USER: genes 2 Torsion [C]-N--CA-[CB] |==|  0.44444
USER: genes 3 Torsion [N]-CA--CB-[CG] |==|  0.52787
USER: genes 4 Torsion [CA]-CB--CG-[CD] |==|  0.57095
USER: genes 5 Torsion [CB]-CG--CD-[OE1] |==|  0.74646
USER: genes 6 Torsion [N]-CA--C-[N] |==|  0.42823
USER: genes 7 Torsion [C]-N--CA-[CB] |==|  0.82500
USER: genes 8 Torsion [N]-CA--C-[N] |==|  0.16740
USER: genes 9 Torsion [C]-N--CA-[CB] |==|  0.31129
USER: genes 10 Torsion [N]-CA--C-[O] |==|  0.82376
USER: genes 11 Torsion [N]-C--CA-[N] |==|  0.37831
USER: genes 12 Torsion [C]-CA--N-[H3] |==|  0.73964
USER: genes 13 Torsion [C]-CA--CB-[CG] |==|  0.56815
USER: genes 14 Torsion [CA]-CB--CG-[CD] |==|  0.82096
USER: genes 15 Torsion [CB]-CG--CD-[NE] |==|  0.78804
USER: genes 16 Torsion [CG]-CD--NE-[HE] |==|  0.22472
ROOT
ATOM      1  C   ARG X   1     -41.233  11.420  -6.316  1.00 28.35 LIG 0.25  C 
ATOM      2 O    ARG X   1     -40.318  10.604  -6.296  1.00 27.73 LIG-0.27  OA
ATOM      3  N   GLU X   2     -42.444  11.133  -6.779  1.00 29.79 LIG-0.35  N 
ATOM      4 H    GLU X   2     -43.128  11.645  -6.687  1.00 29.79 LIG 0.16  HD
ENDROOT
BRANCH 3 5
ATOM      5  CA  GLU X   2     -42.708   9.900  -7.496  1.00 30.62 LIG 0.18  C 
BRANCH 5 6
ATOM      6  CB  GLU X   2     -44.199   9.550  -7.502  1.00 30.95 LIG 0.04  C 
BRANCH 6 7
ATOM      7  CG  GLU X   2     -44.500   8.136  -8.034  1.00 31.16 LIG 0.12  C 
BRANCH 7 8
ATOM      8  CD  GLU X   2     -45.904   7.978  -8.622  1.00 32.27 LIG 0.17  C 
ATOM      9 OE1  GLU X   2     -46.830   7.604  -7.876  1.00 31.08 LIG-0.65  OA
ATOM     10 OE2  GLU X   2     -46.079   8.210  -9.840  1.00 30.98 LIG-0.65  OA
ENDBRANCH 7 8
ENDBRANCH 6 7
ENDBRANCH 5 6
BRANCH 5 11
ATOM     11  C   GLU X   2     -42.207  10.064  -8.914  1.00 31.96 LIG 0.24  C 
ATOM     12  N   ALA X   3     -41.877   8.941  -9.531  1.00 33.07 LIG-0.35  N 
ATOM     13 H    ALA X   3     -41.890   8.165  -9.161  1.00 33.07 LIG 0.16  HD
ATOM     14 O    GLU X   2     -42.122  11.182  -9.436  1.00 31.51 LIG-0.27  OA
BRANCH 12 15
ATOM     15  CA  ALA X   3     -41.455   8.942 -10.921  1.00 34.83 LIG 0.17  C 
ATOM     16  CB  ALA X   3     -42.593   9.435 -11.822  1.00 34.52 LIG 0.04  C 
BRANCH 15 17
ATOM     17  C   ALA X   3     -40.232   9.825 -11.054  1.00 35.72 LIG 0.24  C 
ATOM     18  N   ALA X   4     -39.168   9.462 -10.338  1.00 36.94 LIG-0.34  N 
ATOM     19 H    ALA X   4     -39.164   8.781  -9.812  1.00 36.94 LIG 0.16  HD
ATOM     20 O    ALA X   3     -40.267  10.827 -11.769  1.00 36.60 LIG-0.27  OA
BRANCH 18 21
ATOM     21  CA  ALA X   4     -37.895  10.188 -10.375  1.00 37.95 LIG 0.18  C 
ATOM     22  CB  ALA X   4     -37.632  10.875  -9.036  1.00 38.38 LIG 0.04  C 
BRANCH 21 23
ATOM     23  C   ALA X   4     -36.725   9.277 -10.736  1.00 38.48 LIG 0.20  C 
ATOM     24 O    ALA X   4     -36.387   8.338 -10.014  1.00 38.71 LIG-0.65  OA
ATOM     25 OXT  ALA X   4     -36.086   9.462 -11.770  1.00 39.00 LIG-0.65  OA
ENDBRANCH 21 23
ENDBRANCH 18 21
ENDBRANCH 15 17
ENDBRANCH 12 15
ENDBRANCH 5 11
ENDBRANCH 3 5
BRANCH 1 26
ATOM     26  CA  ARG X   1     -41.039  12.836  -5.795  1.00 28.22 LIG 0.27  C 
BRANCH 26 27
ATOM     27  N   ARG X   1     -40.282  12.852  -4.505  1.00 27.64 LIG-0.07  N 
ATOM     28 H3   ARG X   1     -40.855  12.854  -3.825  1.00 27.64 LIG 0.28  HD
ATOM     29 H2   ARG X   1     -39.775  13.583  -4.466  1.00 27.64 LIG 0.28  HD
ATOM     30 H1   ARG X   1     -39.764  12.130  -4.456  1.00 27.64 LIG 0.28  HD
ENDBRANCH 26 27
BRANCH 26 31
ATOM     31  CB  ARG X   1     -40.311  13.655  -6.869  1.00 28.04 LIG 0.04  C 
BRANCH 31 32
ATOM     32  CG  ARG X   1     -39.537  14.844  -6.363  1.00 27.94 LIG 0.02  C 
BRANCH 32 33
ATOM     33  CD  ARG X   1     -40.432  15.918  -5.733  1.00 29.24 LIG 0.14  C 
BRANCH 33 34
ATOM     34  NE  ARG X   1     -41.118  16.681  -6.777  1.00 27.62 LIG-0.23  N 
ATOM     35 HE   ARG X   1     -41.823  16.335  -7.128  1.00 27.62 LIG 0.18  HD
ATOM     36  CZ  ARG X   1     -40.726  17.872  -7.221  1.00 28.90 LIG 0.67  C 
ATOM     37  NH2 ARG X   1     -39.652  18.468  -6.707  1.00 29.13 LIG-0.23  N 
ATOM     38  NH1 ARG X   1     -41.415  18.480  -8.179  1.00 27.97 LIG-0.23  N 
ATOM     39 1HH2 ARG X   1     -39.205  18.083  -6.081  1.00 29.13 LIG 0.17  HD
ATOM     40 2HH2 ARG X   1     -39.406  19.238  -7.000  1.00 29.13 LIG 0.17  HD
ATOM     41 2HH1 ARG X   1     -41.163  19.251  -8.468  1.00 27.97 LIG 0.17  HD
ATOM     42 1HH1 ARG X   1     -42.113  18.104  -8.511  1.00 27.97 LIG 0.17  HD
ENDBRANCH 33 34
ENDBRANCH 32 33
ENDBRANCH 31 32
ENDBRANCH 26 31
ENDBRANCH 1 26
TORSDOF 15
ENDMDL
MODEL 11
USER: ADFR SOLUTION from run 163
USER: SCORE 13.576052 LL:  -1.747 LR: -12.872 RR:   0.000 FEB:  -8.398
USER: RMSD 2.556268
USER: SEED 162
USER: STATUS no improvement in best in 6 clusters for 5 generations
USER: GENES 17
USER: genes 0 Translation |==|  0.54603 0.40481 0.66225
USER: genes 1 Rotation |==|  0.48562 0.46861 0.48268 0.99851
USER: genes 2 Torsion [C]-N--CA-[CB] |==|  0.22775
USER: genes 3 Torsion [N]-CA--CB-[CG] |==|  0.55477
USER: genes 4 Torsion [CA]-CB--CG-[CD] |==|  0.71439
USER: genes 5 Torsion [CB]-CG--CD-[OE1] |==|  0.42466
USER: genes 6 Torsion [N]-CA--C-[N] |==|  0.43868
USER: genes 7 Torsion [C]-N--CA-[CB] |==|  0.86667
USER: genes 8 Torsion [N]-CA--C-[N] |==|  0.37084
USER: genes 9 Torsion [C]-N--CA-[CB] |==|  0.18587
USER: genes 10 Torsion [N]-CA--C-[O] |==|  0.94071
USER: genes 11 Torsion [N]-C--CA-[N] |==|  0.46499
USER: genes 12 Torsion [C]-CA--N-[H3] |==|  0.05735
USER: genes 13 Torsion [C]-CA--CB-[CG] |==|  0.39396
USER: genes 14 Torsion [CA]-CB--CG-[CD] |==|  0.31026
USER: genes 15 Torsion [CB]-CG--CD-[NE] |==|  0.85097
USER: genes 16 Torsion [CG]-CD--NE-[HE] |==|  0.05234
ROOT
ATOM      1  C   ARG X   1     -41.439  11.605  -6.348  1.00 28.35 LIG 0.25  C 
ATOM      2 O    ARG X   1     -40.893  10.563  -6.000  1.00 27.73 LIG-0.27  OA
ATOM      3  N   GLU X   2     -42.387  11.645  -7.276  1.00 29.79 LIG-0.35  N 
ATOM      4 H    GLU X   2     -42.867  12.338  -7.442  1.00 29.79 LIG 0.16  HD
ENDROOT
BRANCH 3 5
ATOM      5  CA  GLU X   2     -42.691  10.491  -8.100  1.00 30.62 LIG 0.18  C 
BRANCH 5 6
ATOM      6  CB  GLU X   2     -43.617   9.503  -7.384  1.00 30.95 LIG 0.04  C 
BRANCH 6 7
ATOM      7  CG  GLU X   2     -43.588   8.084  -7.981  1.00 31.16 LIG 0.12  C 
BRANCH 7 8
ATOM      8  CD  GLU X   2     -44.797   7.753  -8.858  1.00 32.27 LIG 0.17  C 
ATOM      9 OE1  GLU X   2     -44.668   6.909  -9.766  1.00 31.08 LIG-0.65  OA
ATOM     10 OE2  GLU X   2     -45.876   8.354  -8.652  1.00 30.98 LIG-0.65  OA
ENDBRANCH 7 8
ENDBRANCH 6 7
ENDBRANCH 5 6
BRANCH 5 11
ATOM     11  C   GLU X   2     -43.341  10.981  -9.375  1.00 31.96 LIG 0.24  C 
ATOM     12  N   ALA X   3     -43.269  10.152 -10.403  1.00 33.07 LIG-0.35  N 
ATOM     13 H    ALA X   3     -42.847   9.402 -10.390  1.00 33.07 LIG 0.16  HD
ATOM     14 O    GLU X   2     -43.894  12.087  -9.425  1.00 31.51 LIG-0.27  OA
BRANCH 12 15
ATOM     15  CA  ALA X   3     -43.917  10.460 -11.666  1.00 34.83 LIG 0.17  C 
ATOM     16  CB  ALA X   3     -45.363  10.909 -11.426  1.00 34.52 LIG 0.04  C 
BRANCH 15 17
ATOM     17  C   ALA X   3     -43.120  11.539 -12.368  1.00 35.72 LIG 0.24  C 
ATOM     18  N   ALA X   4     -42.869  11.333 -13.660  1.00 36.94 LIG-0.34  N 
ATOM     19 H    ALA X   4     -43.120  10.628 -14.083  1.00 36.94 LIG 0.16  HD
ATOM     20 O    ALA X   3     -42.720  12.520 -11.740  1.00 36.60 LIG-0.27  OA
BRANCH 18 21
ATOM     21  CA  ALA X   4     -42.138  12.292 -14.494  1.00 37.95 LIG 0.18  C 
ATOM     22  CB  ALA X   4     -40.682  12.392 -14.043  1.00 38.38 LIG 0.04  C 
BRANCH 21 23
ATOM     23  C   ALA X   4     -42.204  11.932 -15.976  1.00 38.48 LIG 0.20  C 
ATOM     24 O    ALA X   4     -42.459  10.787 -16.354  1.00 38.71 LIG-0.65  OA
ATOM     25 OXT  ALA X   4     -42.005  12.788 -16.836  1.00 39.00 LIG-0.65  OA
ENDBRANCH 21 23
ENDBRANCH 18 21
ENDBRANCH 15 17
ENDBRANCH 12 15
ENDBRANCH 5 11
ENDBRANCH 3 5
BRANCH 1 26
ATOM     26  CA  ARG X   1     -41.063  12.939  -5.722  1.00 28.22 LIG 0.27  C 
BRANCH 26 27
ATOM     27  N   ARG X   1     -40.223  12.759  -4.497  1.00 27.64 LIG-0.07  N 
ATOM     28 H3   ARG X   1     -39.845  11.954  -4.512  1.00 27.64 LIG 0.28  HD
ATOM     29 H2   ARG X   1     -40.734  12.833  -3.772  1.00 27.64 LIG 0.28  HD
ATOM     30 H1   ARG X   1     -39.590  13.384  -4.477  1.00 27.64 LIG 0.28  HD
ENDBRANCH 26 27
BRANCH 26 31
ATOM     31  CB  ARG X   1     -40.329  13.782  -6.773  1.00 28.04 LIG 0.04  C 
BRANCH 31 32
ATOM     32  CG  ARG X   1     -40.646  15.254  -6.758  1.00 27.94 LIG 0.02  C 
BRANCH 32 33
ATOM     33  CD  ARG X   1     -39.463  16.118  -6.303  1.00 29.24 LIG 0.14  C 
BRANCH 33 34
ATOM     34  NE  ARG X   1     -38.962  15.648  -5.010  1.00 27.62 LIG-0.23  N 
ATOM     35 HE   ARG X   1     -39.172  14.851  -4.766  1.00 27.62 LIG 0.18  HD
ATOM     36  CZ  ARG X   1     -38.205  16.370  -4.188  1.00 28.90 LIG 0.67  C 
ATOM     37  NH2 ARG X   1     -37.833  17.605  -4.517  1.00 29.13 LIG-0.23  N 
ATOM     38  NH1 ARG X   1     -37.807  15.854  -3.031  1.00 27.97 LIG-0.23  N 
ATOM     39 1HH2 ARG X   1     -38.082  17.944  -5.268  1.00 29.13 LIG 0.17  HD
ATOM     40 2HH2 ARG X   1     -37.343  18.065  -3.980  1.00 29.13 LIG 0.17  HD
ATOM     41 2HH1 ARG X   1     -37.318  16.319  -2.498  1.00 27.97 LIG 0.17  HD
ATOM     42 1HH1 ARG X   1     -38.038  15.054  -2.815  1.00 27.97 LIG 0.17  HD
ENDBRANCH 33 34
ENDBRANCH 32 33
ENDBRANCH 31 32
ENDBRANCH 26 31
ENDBRANCH 1 26
TORSDOF 15
ENDMDL
MODEL 12
USER: ADFR SOLUTION from run 98
USER: SCORE 12.975731 LL:  -1.970 LR: -12.779 RR:   0.000 FEB:  -8.304
USER: RMSD 1.124076
USER: SEED 97
USER: STATUS no improvement in best in 4 clusters for 5 generations
USER: GENES 17
USER: genes 0 Translation |==|  0.55357 0.40896 0.66087
USER: genes 1 Rotation |==|  0.48809 0.46842 0.48673 0.99868
USER: genes 2 Torsion [C]-N--CA-[CB] |==|  0.20687
USER: genes 3 Torsion [N]-CA--CB-[CG] |==|  0.48752
USER: genes 4 Torsion [CA]-CB--CG-[CD] |==|  0.72711
USER: genes 5 Torsion [CB]-CG--CD-[OE1] |==|  0.83122
USER: genes 6 Torsion [N]-CA--C-[N] |==|  0.39831
USER: genes 7 Torsion [C]-N--CA-[CB] |==|  0.20555
USER: genes 8 Torsion [N]-CA--C-[N] |==|  0.55409
USER: genes 9 Torsion [C]-N--CA-[CB] |==|  0.20898
USER: genes 10 Torsion [N]-CA--C-[O] |==|  0.96589
USER: genes 11 Torsion [N]-C--CA-[N] |==|  0.46290
USER: genes 12 Torsion [C]-CA--N-[H3] |==|  0.73543
USER: genes 13 Torsion [C]-CA--CB-[CG] |==|  0.53542
USER: genes 14 Torsion [CA]-CB--CG-[CD] |==|  0.82428
USER: genes 15 Torsion [CB]-CG--CD-[NE] |==|  0.53100
USER: genes 16 Torsion [CG]-CD--NE-[HE] |==|  0.32045
ROOT
ATOM      1  C   ARG X   1     -41.320  11.692  -6.377  1.00 28.35 LIG 0.25  C 
ATOM      2 O    ARG X   1     -40.757  10.657  -6.038  1.00 27.73 LIG-0.27  OA
ATOM      3  N   GLU X   2     -42.268  11.724  -7.305  1.00 29.79 LIG-0.35  N 
ATOM      4 H    GLU X   2     -42.760  12.410  -7.466  1.00 29.79 LIG 0.16  HD
ENDROOT
BRANCH 3 5
ATOM      5  CA  GLU X   2     -42.552  10.572  -8.140  1.00 30.62 LIG 0.18  C 
BRANCH 5 6
ATOM      6  CB  GLU X   2     -43.306   9.481  -7.373  1.00 30.95 LIG 0.04  C 
BRANCH 6 7
ATOM      7  CG  GLU X   2     -43.724   8.286  -8.250  1.00 31.16 LIG 0.12  C 
BRANCH 7 8
ATOM      8  CD  GLU X   2     -45.176   8.344  -8.728  1.00 32.27 LIG 0.17  C 
ATOM      9 OE1  GLU X   2     -46.089   8.354  -7.880  1.00 31.08 LIG-0.65  OA
ATOM     10 OE2  GLU X   2     -45.407   8.359  -9.959  1.00 30.98 LIG-0.65  OA
ENDBRANCH 7 8
ENDBRANCH 6 7
ENDBRANCH 5 6
BRANCH 5 11
ATOM     11  C   GLU X   2     -43.374  11.039  -9.321  1.00 31.96 LIG 0.24  C 
ATOM     12  N   ALA X   3     -43.111  10.435 -10.468  1.00 33.07 LIG-0.35  N 
ATOM     13 H    ALA X   3     -42.490   9.849 -10.574  1.00 33.07 LIG 0.16  HD
ATOM     14 O    GLU X   2     -44.226  11.927  -9.195  1.00 31.51 LIG-0.27  OA
BRANCH 12 15
ATOM     15  CA  ALA X   3     -43.878  10.728 -11.667  1.00 34.83 LIG 0.17  C 
ATOM     16  CB  ALA X   3     -43.486  12.099 -12.227  1.00 34.52 LIG 0.04  C 
BRANCH 15 17
ATOM     17  C   ALA X   3     -43.626   9.632 -12.681  1.00 35.72 LIG 0.24  C 
ATOM     18  N   ALA X   4     -43.912   9.931 -13.948  1.00 36.94 LIG-0.34  N 
ATOM     19 H    ALA X   4     -44.239  10.688 -14.192  1.00 36.94 LIG 0.16  HD
ATOM     20 O    ALA X   3     -43.208   8.533 -12.314  1.00 36.60 LIG-0.27  OA
BRANCH 18 21
ATOM     21  CA  ALA X   4     -43.699   8.997 -15.057  1.00 37.95 LIG 0.18  C 
ATOM     22  CB  ALA X   4     -44.773   7.910 -15.055  1.00 38.38 LIG 0.04  C 
BRANCH 21 23
ATOM     23  C   ALA X   4     -43.672   9.706 -16.409  1.00 38.48 LIG 0.20  C 
ATOM     24 O    ALA X   4     -44.034  10.877 -16.534  1.00 38.71 LIG-0.65  OA
ATOM     25 OXT  ALA X   4     -43.281   9.117 -17.415  1.00 39.00 LIG-0.65  OA
ENDBRANCH 21 23
ENDBRANCH 18 21
ENDBRANCH 15 17
ENDBRANCH 12 15
ENDBRANCH 5 11
ENDBRANCH 3 5
BRANCH 1 26
ATOM     26  CA  ARG X   1     -40.967  13.027  -5.739  1.00 28.22 LIG 0.27  C 
BRANCH 26 27
ATOM     27  N   ARG X   1     -40.140  12.850  -4.505  1.00 27.64 LIG-0.07  N 
ATOM     28 H3   ARG X   1     -40.669  12.854  -3.790  1.00 27.64 LIG 0.28  HD
ATOM     29 H2   ARG X   1     -39.552  13.515  -4.443  1.00 27.64 LIG 0.28  HD
ATOM     30 H1   ARG X   1     -39.706  12.074  -4.548  1.00 27.64 LIG 0.28  HD
ENDBRANCH 26 27
BRANCH 26 31
ATOM     31  CB  ARG X   1     -40.230  13.884  -6.776  1.00 28.04 LIG 0.04  C 
BRANCH 31 32
ATOM     32  CG  ARG X   1     -39.547  15.111  -6.233  1.00 27.94 LIG 0.02  C 
BRANCH 32 33
ATOM     33  CD  ARG X   1     -40.525  16.123  -5.625  1.00 29.24 LIG 0.14  C 
BRANCH 33 34
ATOM     34  NE  ARG X   1     -39.842  17.391  -5.361  1.00 27.62 LIG-0.23  N 
ATOM     35 HE   ARG X   1     -40.097  18.083  -5.803  1.00 27.62 LIG 0.18  HD
ATOM     36  CZ  ARG X   1     -38.854  17.546  -4.483  1.00 28.90 LIG 0.67  C 
ATOM     37  NH2 ARG X   1     -38.426  16.517  -3.755  1.00 29.13 LIG-0.23  N 
ATOM     38  NH1 ARG X   1     -38.295  18.739  -4.322  1.00 27.97 LIG-0.23  N 
ATOM     39 1HH2 ARG X   1     -38.788  15.743  -3.850  1.00 29.13 LIG 0.17  HD
ATOM     40 2HH2 ARG X   1     -37.787  16.626  -3.190  1.00 29.13 LIG 0.17  HD
ATOM     41 2HH1 ARG X   1     -37.656  18.841  -3.755  1.00 27.97 LIG 0.17  HD
ATOM     42 1HH1 ARG X   1     -38.571  19.409  -4.784  1.00 27.97 LIG 0.17  HD
ENDBRANCH 33 34
ENDBRANCH 32 33
ENDBRANCH 31 32
ENDBRANCH 26 31
ENDBRANCH 1 26
TORSDOF 15
ENDMDL
MODEL 13
USER: ADFR SOLUTION from run 34
USER: SCORE 13.745061 LL:  -2.074 LR: -12.683 RR:   0.000 FEB:  -8.208
USER: RMSD 3.475994
USER: SEED 33
USER: STATUS no improvement in best in 9 clusters for 5 generations
USER: GENES 17
USER: genes 0 Translation |==|  0.56755 0.41314 0.64449
USER: genes 1 Rotation |==|  0.52140 0.40234 0.49795 0.98990
USER: genes 2 Torsion [C]-N--CA-[CB] |==|  0.87167
USER: genes 3 Torsion [N]-CA--CB-[CG] |==|  0.60431
USER: genes 4 Torsion [CA]-CB--CG-[CD] |==|  0.82297
USER: genes 5 Torsion [CB]-CG--CD-[OE1] |==|  0.82784
USER: genes 6 Torsion [N]-CA--C-[N] |==|  0.41616
USER: genes 7 Torsion [C]-N--CA-[CB] |==|  0.17216
USER: genes 8 Torsion [N]-CA--C-[N] |==|  0.19982
USER: genes 9 Torsion [C]-N--CA-[CB] |==|  0.47140
USER: genes 10 Torsion [N]-CA--C-[O] |==|  0.10353
USER: genes 11 Torsion [N]-C--CA-[N] |==|  0.48333
USER: genes 12 Torsion [C]-CA--N-[H3] |==|  0.04011
USER: genes 13 Torsion [C]-CA--CB-[CG] |==|  0.54177
USER: genes 14 Torsion [CA]-CB--CG-[CD] |==|  0.79124
USER: genes 15 Torsion [CB]-CG--CD-[NE] |==|  0.80154
USER: genes 16 Torsion [CG]-CD--NE-[HE] |==|  0.22781
ROOT
ATOM      1  C   ARG X   1     -41.100  11.780  -6.721  1.00 28.35 LIG 0.25  C 
ATOM      2 O    ARG X   1     -40.570  10.734  -6.362  1.00 27.73 LIG-0.27  OA
ATOM      3  N   GLU X   2     -41.772  11.892  -7.860  1.00 29.79 LIG-0.35  N 
ATOM      4 H    GLU X   2     -42.254  12.572  -8.068  1.00 29.79 LIG 0.16  HD
ENDROOT
BRANCH 3 5
ATOM      5  CA  GLU X   2     -41.741  10.846  -8.865  1.00 30.62 LIG 0.18  C 
BRANCH 5 6
ATOM      6  CB  GLU X   2     -40.318  10.344  -9.126  1.00 30.95 LIG 0.04  C 
BRANCH 6 7
ATOM      7  CG  GLU X   2     -40.041  10.013 -10.605  1.00 31.16 LIG 0.12  C 
BRANCH 7 8
ATOM      8  CD  GLU X   2     -40.888   8.864 -11.154  1.00 32.27 LIG 0.17  C 
ATOM      9 OE1  GLU X   2     -40.769   7.733 -10.645  1.00 31.08 LIG-0.65  OA
ATOM     10 OE2  GLU X   2     -41.662   9.088 -12.113  1.00 30.98 LIG-0.65  OA
ENDBRANCH 7 8
ENDBRANCH 6 7
ENDBRANCH 5 6
BRANCH 5 11
ATOM     11  C   GLU X   2     -42.614   9.707  -8.384  1.00 31.96 LIG 0.24  C 
ATOM     12  N   ALA X   3     -43.197   8.999  -9.338  1.00 33.07 LIG-0.35  N 
ATOM     13 H    ALA X   3     -43.141   9.181 -10.177  1.00 33.07 LIG 0.16  HD
ATOM     14 O    GLU X   2     -42.755   9.476  -7.177  1.00 31.51 LIG-0.27  OA
BRANCH 12 15
ATOM     15  CA  ALA X   3     -43.999   7.830  -9.024  1.00 34.83 LIG 0.17  C 
ATOM     16  CB  ALA X   3     -45.203   8.226  -8.162  1.00 34.52 LIG 0.04  C 
BRANCH 15 17
ATOM     17  C   ALA X   3     -44.444   7.186 -10.320  1.00 35.72 LIG 0.24  C 
ATOM     18  N   ALA X   4     -43.497   6.556 -11.015  1.00 36.94 LIG-0.34  N 
ATOM     19 H    ALA X   4     -42.674   6.522 -10.767  1.00 36.94 LIG 0.16  HD
ATOM     20 O    ALA X   3     -45.614   7.286 -10.691  1.00 36.60 LIG-0.27  OA
BRANCH 18 21
ATOM     21  CA  ALA X   4     -43.763   5.855 -12.274  1.00 37.95 LIG 0.18  C 
ATOM     22  CB  ALA X   4     -42.454   5.457 -12.953  1.00 38.38 LIG 0.04  C 
BRANCH 21 23
ATOM     23  C   ALA X   4     -44.644   4.624 -12.071  1.00 38.48 LIG 0.20  C 
ATOM     24 O    ALA X   4     -45.567   4.615 -11.255  1.00 38.71 LIG-0.65  OA
ATOM     25 OXT  ALA X   4     -44.450   3.603 -12.727  1.00 39.00 LIG-0.65  OA
ENDBRANCH 21 23
ENDBRANCH 18 21
ENDBRANCH 15 17
ENDBRANCH 12 15
ENDBRANCH 5 11
ENDBRANCH 3 5
BRANCH 1 26
ATOM     26  CA  ARG X   1     -41.027  13.035  -5.865  1.00 28.22 LIG 0.27  C 
BRANCH 26 27
ATOM     27  N   ARG X   1     -40.376  12.767  -4.544  1.00 27.64 LIG-0.07  N 
ATOM     28 H3   ARG X   1     -39.962  11.981  -4.571  1.00 27.64 LIG 0.28  HD
ATOM     29 H2   ARG X   1     -40.995  12.755  -3.905  1.00 27.64 LIG 0.28  HD
ATOM     30 H1   ARG X   1     -39.784  13.408  -4.370  1.00 27.64 LIG 0.28  HD
ENDBRANCH 26 27
BRANCH 26 31
ATOM     31  CB  ARG X   1     -40.264  14.113  -6.645  1.00 28.04 LIG 0.04  C 
BRANCH 31 32
ATOM     32  CG  ARG X   1     -39.791  15.288  -5.830  1.00 27.94 LIG 0.02  C 
BRANCH 32 33
ATOM     33  CD  ARG X   1     -40.921  16.257  -5.462  1.00 29.24 LIG 0.14  C 
BRANCH 33 34
ATOM     34  NE  ARG X   1     -41.362  16.994  -6.647  1.00 27.62 LIG-0.23  N 
ATOM     35 HE   ARG X   1     -41.919  16.606  -7.176  1.00 27.62 LIG 0.18  HD
ATOM     36  CZ  ARG X   1     -40.960  18.222  -6.963  1.00 28.90 LIG 0.67  C 
ATOM     37  NH2 ARG X   1     -40.113  18.882  -6.177  1.00 29.13 LIG-0.23  N 
ATOM     38  NH1 ARG X   1     -41.414  18.803  -8.067  1.00 27.97 LIG-0.23  N 
ATOM     39 1HH2 ARG X   1     -39.819  18.515  -5.457  1.00 29.13 LIG 0.17  HD
ATOM     40 2HH2 ARG X   1     -39.858  19.676  -6.389  1.00 29.13 LIG 0.17  HD
ATOM     41 2HH1 ARG X   1     -41.156  19.597  -8.274  1.00 27.97 LIG 0.17  HD
ATOM     42 1HH1 ARG X   1     -41.967  18.385  -8.576  1.00 27.97 LIG 0.17  HD
ENDBRANCH 33 34
ENDBRANCH 32 33
ENDBRANCH 31 32
ENDBRANCH 26 31
ENDBRANCH 1 26
TORSDOF 15
ENDMDL
MODEL 14
USER: ADFR SOLUTION from run 17
USER: SCORE 13.610047 LL:  -2.328 LR: -12.640 RR:   0.000 FEB:  -8.166
USER: RMSD 2.996912
USER: SEED 16
USER: STATUS searching
USER: GENES 17
USER: genes 0 Translation |==|  0.54782 0.40662 0.66049
USER: genes 1 Rotation |==|  0.47609 0.47240 0.47836 0.99820
USER: genes 2 Torsion [C]-N--CA-[CB] |==|  0.22489
USER: genes 3 Torsion [N]-CA--CB-[CG] |==|  0.55006
USER: genes 4 Torsion [CA]-CB--CG-[CD] |==|  0.73888
USER: genes 5 Torsion [CB]-CG--CD-[OE1] |==|  0.88934
USER: genes 6 Torsion [N]-CA--C-[N] |==|  0.42222
USER: genes 7 Torsion [C]-N--CA-[CB] |==|  0.82169
USER: genes 8 Torsion [N]-CA--C-[N] |==|  0.17872
USER: genes 9 Torsion [C]-N--CA-[CB] |==|  0.32120
USER: genes 10 Torsion [N]-CA--C-[O] |==|  0.45725
USER: genes 11 Torsion [N]-C--CA-[N] |==|  0.44508
USER: genes 12 Torsion [C]-CA--N-[H3] |==|  0.08642
USER: genes 13 Torsion [C]-CA--CB-[CG] |==|  0.51516
USER: genes 14 Torsion [CA]-CB--CG-[CD] |==|  0.86987
USER: genes 15 Torsion [CB]-CG--CD-[NE] |==|  0.75497
USER: genes 16 Torsion [CG]-CD--NE-[HE] |==|  0.22358
ROOT
ATOM      1  C   ARG X   1     -41.411  11.643  -6.385  1.00 28.35 LIG 0.25  C 
ATOM      2 O    ARG X   1     -40.880  10.604  -6.007  1.00 27.73 LIG-0.27  OA
ATOM      3  N   GLU X   2     -42.373  11.669  -7.299  1.00 29.79 LIG-0.35  N 
ATOM      4 H    GLU X   2     -42.842  12.365  -7.483  1.00 29.79 LIG 0.16  HD
ENDROOT
BRANCH 3 5
ATOM      5  CA  GLU X   2     -42.713  10.492  -8.075  1.00 30.62 LIG 0.18  C 
BRANCH 5 6
ATOM      6  CB  GLU X   2     -43.626   9.538  -7.300  1.00 30.95 LIG 0.04  C 
BRANCH 6 7
ATOM      7  CG  GLU X   2     -43.661   8.110  -7.876  1.00 31.16 LIG 0.12  C 
BRANCH 7 8
ATOM      8  CD  GLU X   2     -44.807   7.863  -8.859  1.00 32.27 LIG 0.17  C 
ATOM      9 OE1  GLU X   2     -45.926   8.354  -8.613  1.00 31.08 LIG-0.65  OA
ATOM     10 OE2  GLU X   2     -44.594   7.160  -9.873  1.00 30.98 LIG-0.65  OA
ENDBRANCH 7 8
ENDBRANCH 6 7
ENDBRANCH 5 6
BRANCH 5 11
ATOM     11  C   GLU X   2     -43.397  10.948  -9.346  1.00 31.96 LIG 0.24  C 
ATOM     12  N   ALA X   3     -43.259  10.140 -10.385  1.00 33.07 LIG-0.35  N 
ATOM     13 H    ALA X   3     -42.782   9.425 -10.380  1.00 33.07 LIG 0.16  HD
ATOM     14 O    GLU X   2     -44.033  12.008  -9.383  1.00 31.51 LIG-0.27  OA
BRANCH 12 15
ATOM     15  CA  ALA X   3     -43.928  10.414 -11.645  1.00 34.83 LIG 0.17  C 
ATOM     16  CB  ALA X   3     -45.448  10.350 -11.465  1.00 34.52 LIG 0.04  C 
BRANCH 15 17
ATOM     17  C   ALA X   3     -43.493  11.779 -12.135  1.00 35.72 LIG 0.24  C 
ATOM     18  N   ALA X   4     -42.202  11.907 -12.440  1.00 36.94 LIG-0.34  N 
ATOM     19 H    ALA X   4     -41.631  11.269 -12.353  1.00 36.94 LIG 0.16  HD
ATOM     20 O    ALA X   3     -44.308  12.700 -12.206  1.00 36.60 LIG-0.27  OA
BRANCH 18 21
ATOM     21  CA  ALA X   4     -41.623  13.150 -12.957  1.00 37.95 LIG 0.18  C 
ATOM     22  CB  ALA X   4     -40.608  13.720 -11.968  1.00 38.38 LIG 0.04  C 
BRANCH 21 23
ATOM     23  C   ALA X   4     -40.971  12.955 -14.324  1.00 38.48 LIG 0.20  C 
ATOM     24 O    ALA X   4     -40.680  13.911 -15.046  1.00 38.71 LIG-0.65  OA
ATOM     25 OXT  ALA X   4     -40.716  11.827 -14.739  1.00 39.00 LIG-0.65  OA
ENDBRANCH 21 23
ENDBRANCH 18 21
ENDBRANCH 15 17
ENDBRANCH 12 15
ENDBRANCH 5 11
ENDBRANCH 3 5
BRANCH 1 26
ATOM     26  CA  ARG X   1     -40.999  12.991  -5.814  1.00 28.22 LIG 0.27  C 
BRANCH 26 27
ATOM     27  N   ARG X   1     -40.290  12.845  -4.505  1.00 27.64 LIG-0.07  N 
ATOM     28 H3   ARG X   1     -39.844  12.075  -4.493  1.00 27.64 LIG 0.28  HD
ATOM     29 H2   ARG X   1     -40.884  12.853  -3.842  1.00 27.64 LIG 0.28  HD
ATOM     30 H1   ARG X   1     -39.719  13.520  -4.399  1.00 27.64 LIG 0.28  HD
ENDBRANCH 26 27
BRANCH 26 31
ATOM     31  CB  ARG X   1     -40.112  13.706  -6.842  1.00 28.04 LIG 0.04  C 
BRANCH 31 32
ATOM     32  CG  ARG X   1     -39.509  15.007  -6.382  1.00 27.94 LIG 0.02  C 
BRANCH 32 33
ATOM     33  CD  ARG X   1     -40.525  15.931  -5.700  1.00 29.24 LIG 0.14  C 
BRANCH 33 34
ATOM     34  NE  ARG X   1     -41.190  16.774  -6.695  1.00 27.62 LIG-0.23  N 
ATOM     35 HE   ARG X   1     -41.837  16.428  -7.144  1.00 27.62 LIG 0.18  HD
ATOM     36  CZ  ARG X   1     -40.863  18.038  -6.951  1.00 28.90 LIG 0.67  C 
ATOM     37  NH2 ARG X   1     -39.883  18.636  -6.278  1.00 29.13 LIG-0.23  N 
ATOM     38  NH1 ARG X   1     -41.525  18.716  -7.881  1.00 27.97 LIG-0.23  N 
ATOM     39 1HH2 ARG X   1     -39.454  18.204  -5.670  1.00 29.13 LIG 0.17  HD
ATOM     40 2HH2 ARG X   1     -39.678  19.453  -6.450  1.00 29.13 LIG 0.17  HD
ATOM     41 2HH1 ARG X   1     -41.316  19.534  -8.048  1.00 27.97 LIG 0.17  HD
ATOM     42 1HH1 ARG X   1     -42.165  18.339  -8.315  1.00 27.97 LIG 0.17  HD
ENDBRANCH 33 34
ENDBRANCH 32 33
ENDBRANCH 31 32
ENDBRANCH 26 31
ENDBRANCH 1 26
TORSDOF 15
ENDMDL
