MODEL 1
USER: ADFR SOLUTION from run 38
USER: SCORE 14.382305 LL:  -0.738 LR: -13.856 RR:   0.000 FEB: -10.276
USER: RMSD 1.313021
USER: SEED 37
USER: STATUS no improvement in best in 6 clusters for 5 generations
USER: GENES 14
USER: genes 0 Translation |==|  0.57601 0.47151 0.61823
USER: genes 1 Rotation |==|  0.50000 0.44796 0.48042 0.99690
USER: genes 2 Torsion [N]-CA--C-[N] |==|  0.38492
USER: genes 3 Torsion [C]-N--CA-[C] |==|  0.75635
USER: genes 4 Torsion [N]-CA--C-[N] |==|  0.26148
USER: genes 5 Torsion [C]-N--CA-[CB] |==|  0.42219
USER: genes 6 Torsion [N]-CA--C-[O] |==|  0.89725
USER: genes 7 Torsion [N]-CA--CB-[CG] |==|  0.50297
USER: genes 8 Torsion [CA]-CB--CG-[OD2] |==|  0.52305
USER: genes 9 Torsion [C]-CA--CB-[CG] |==|  0.40710
USER: genes 10 Torsion [CA]-CB--CG-[CD] |==|  0.31652
USER: genes 11 Torsion [CB]-CG--CD-[NE] |==|  0.84325
USER: genes 12 Torsion [CG]-CD--NE-[HE] |==|  0.04501
USER: genes 13 Torsion [C]-CA--N-[H3] |==|  0.40582
ROOT
ATOM      1  CA  ARG X   1     -40.311  13.149  -6.373  1.00 44.42 LIG 0.27  C 
ENDROOT
BRANCH 1 2
ATOM      2  C   ARG X   1     -40.601  11.784  -6.997  1.00 44.91 LIG 0.25  C 
ATOM      3 O    ARG X   1     -39.778  10.871  -6.913  1.00 44.76 LIG-0.27  OA
ATOM      4  N   ASP X   2     -41.775  11.648  -7.614  1.00 45.46 LIG-0.34  N 
ATOM      5 H    ASP X   2     -42.391  12.248  -7.610  1.00 45.46 LIG 0.16  HD
BRANCH 4 6
ATOM      6  CA  ASP X   2     -42.116  10.439  -8.365  1.00 46.23 LIG 0.19  C 
BRANCH 6 7
ATOM      7  C   ASP X   2     -41.640  10.534  -9.820  1.00 46.82 LIG 0.24  C 
ATOM      8  N   ALA X   3     -40.443  10.002 -10.073  1.00 47.39 LIG-0.35  N 
ATOM      9 H    ALA X   3     -39.960   9.622  -9.473  1.00 47.39 LIG 0.16  HD
ATOM     10 O    ASP X   2     -42.344  11.069 -10.683  1.00 46.73 LIG-0.27  OA
BRANCH 8 11
ATOM     11  CA  ALA X   3     -39.832  10.013 -11.402  1.00 47.83 LIG 0.16  C 
ATOM     12  CB  ALA X   3     -38.314  10.000 -11.285  1.00 47.95 LIG 0.04  C 
BRANCH 11 13
ATOM     13  C   ALA X   3     -40.319   8.850 -12.273  1.00 48.01 LIG 0.22  C 
ATOM     14 O    ALA X   3     -40.536   7.737 -11.788  1.00 47.84 LIG-0.29  OA
ENDBRANCH 11 13
ENDBRANCH 8 11
ENDBRANCH 6 7
BRANCH 6 15
ATOM     15  CB  ASP X   2     -43.625  10.168  -8.295  1.00 46.29 LIG 0.15  C 
BRANCH 15 16
ATOM     16  CG  ASP X   2     -44.044   8.899  -9.041  1.00 46.38 LIG 0.17  C 
ATOM     17 OD1  ASP X   2     -43.178   8.122  -9.498  1.00 47.16 LIG-0.65  OA
ATOM     18 OD2  ASP X   2     -45.258   8.674  -9.179  1.00 46.37 LIG-0.65  OA
ENDBRANCH 15 16
ENDBRANCH 6 15
ENDBRANCH 4 6
ENDBRANCH 1 2
BRANCH 1 19
ATOM     19  CB  ARG X   1     -39.427  13.985  -7.319  1.00 44.35 LIG 0.04  C 
BRANCH 19 20
ATOM     20  CG  ARG X   1     -39.671  15.500  -7.307  1.00 42.92 LIG 0.02  C 
BRANCH 20 21
ATOM     21  CD  ARG X   1     -38.478  16.271  -6.760  1.00 41.32 LIG 0.14  C 
BRANCH 21 22
ATOM     22  NE  ARG X   1     -38.101  15.832  -5.415  1.00 39.81 LIG-0.23  N 
ATOM     23 HE   ARG X   1     -38.411  15.077  -5.144  1.00 39.81 LIG 0.18  HD
ATOM     24  CZ  ARG X   1     -37.318  16.507  -4.576  1.00 39.75 LIG 0.67  C 
ATOM     25  NH1 ARG X   1     -36.797  17.687  -4.919  1.00 38.76 LIG-0.23  N 
ATOM     26  NH2 ARG X   1     -37.051  15.997  -3.383  1.00 38.02 LIG-0.23  N 
ATOM     27 1HH1 ARG X   1     -36.966  18.023  -5.693  1.00 38.76 LIG 0.17  HD
ATOM     28 2HH1 ARG X   1     -36.293  18.111  -4.367  1.00 38.76 LIG 0.17  HD
ATOM     29 1HH2 ARG X   1     -37.383  15.237  -3.156  1.00 38.02 LIG 0.17  HD
ATOM     30 2HH2 ARG X   1     -36.546  16.427  -2.835  1.00 38.02 LIG 0.17  HD
ENDBRANCH 21 22
ENDBRANCH 20 21
ENDBRANCH 19 20
ENDBRANCH 1 19
BRANCH 1 31
ATOM     31  N   ARG X   1     -39.663  12.997  -5.037  1.00 44.45 LIG-0.07  N 
ATOM     32 H3   ARG X   1     -39.087  13.663  -4.909  1.00 44.45 LIG 0.28  HD
ATOM     33 H2   ARG X   1     -39.230  12.220  -5.003  1.00 44.45 LIG 0.28  HD
ATOM     34 H1   ARG X   1     -40.286  13.017  -4.401  1.00 44.45 LIG 0.28  HD
ENDBRANCH 1 31
TORSDOF 12
ENDMDL
MODEL 2
USER: ADFR SOLUTION from run 163
USER: SCORE 14.219507 LL:  -0.997 LR: -13.437 RR:   0.000 FEB:  -9.857
USER: RMSD 1.347603
USER: SEED 162
USER: STATUS no improvement in best in 3 clusters for 5 generations
USER: GENES 14
USER: genes 0 Translation |==|  0.58508 0.47025 0.61463
USER: genes 1 Rotation |==|  0.48620 0.42131 0.46251 0.99215
USER: genes 2 Torsion [N]-CA--C-[N] |==|  0.36483
USER: genes 3 Torsion [C]-N--CA-[C] |==|  0.75003
USER: genes 4 Torsion [N]-CA--C-[N] |==|  0.25585
USER: genes 5 Torsion [C]-N--CA-[CB] |==|  0.42758
USER: genes 6 Torsion [N]-CA--C-[O] |==|  0.92026
USER: genes 7 Torsion [N]-CA--CB-[CG] |==|  0.49474
USER: genes 8 Torsion [CA]-CB--CG-[OD2] |==|  0.03853
USER: genes 9 Torsion [C]-CA--CB-[CG] |==|  0.51521
USER: genes 10 Torsion [CA]-CB--CG-[CD] |==|  0.88400
USER: genes 11 Torsion [CB]-CG--CD-[NE] |==|  0.76640
USER: genes 12 Torsion [CG]-CD--NE-[HE] |==|  0.22097
USER: genes 13 Torsion [C]-CA--N-[H3] |==|  0.41840
ROOT
ATOM      1  CA  ARG X   1     -40.168  13.122  -6.436  1.00 44.42 LIG 0.27  C 
ENDROOT
BRANCH 1 2
ATOM      2  C   ARG X   1     -40.501  11.751  -7.021  1.00 44.91 LIG 0.25  C 
ATOM      3 O    ARG X   1     -39.702  10.817  -6.919  1.00 44.76 LIG-0.27  OA
ATOM      4  N   ASP X   2     -41.682  11.631  -7.627  1.00 45.46 LIG-0.34  N 
ATOM      5 H    ASP X   2     -42.281  12.248  -7.634  1.00 45.46 LIG 0.16  HD
BRANCH 4 6
ATOM      6  CA  ASP X   2     -42.062  10.413  -8.343  1.00 46.23 LIG 0.19  C 
BRANCH 6 7
ATOM      7  C   ASP X   2     -41.645  10.482  -9.818  1.00 46.82 LIG 0.24  C 
ATOM      8  N   ALA X   3     -40.445   9.974 -10.103  1.00 47.39 LIG-0.35  N 
ATOM      9 H    ALA X   3     -39.930   9.622  -9.512  1.00 47.39 LIG 0.16  HD
ATOM     10 O    ASP X   2     -42.395  10.975 -10.666  1.00 46.73 LIG-0.27  OA
BRANCH 8 11
ATOM     11  CA  ALA X   3     -39.885   9.964 -11.454  1.00 47.83 LIG 0.16  C 
ATOM     12  CB  ALA X   3     -38.364   9.944 -11.396  1.00 47.95 LIG 0.04  C 
BRANCH 11 13
ATOM     13  C   ALA X   3     -40.411   8.793 -12.292  1.00 48.01 LIG 0.22  C 
ATOM     14 O    ALA X   3     -40.758   7.734 -11.761  1.00 47.84 LIG-0.29  OA
ENDBRANCH 11 13
ENDBRANCH 8 11
ENDBRANCH 6 7
BRANCH 6 15
ATOM     15  CB  ASP X   2     -43.569  10.156  -8.209  1.00 46.29 LIG 0.15  C 
BRANCH 15 16
ATOM     16  CG  ASP X   2     -44.039   8.918  -8.977  1.00 46.38 LIG 0.17  C 
ATOM     17 OD1  ASP X   2     -45.258   8.723  -9.172  1.00 47.16 LIG-0.65  OA
ATOM     18 OD2  ASP X   2     -43.179   8.122  -9.388  1.00 46.37 LIG-0.65  OA
ENDBRANCH 15 16
ENDBRANCH 6 15
ENDBRANCH 4 6
ENDBRANCH 1 2
BRANCH 1 19
ATOM     19  CB  ARG X   1     -39.127  13.837  -7.319  1.00 44.35 LIG 0.04  C 
BRANCH 19 20
ATOM     20  CG  ARG X   1     -38.595  15.174  -6.789  1.00 42.92 LIG 0.02  C 
BRANCH 20 21
ATOM     21  CD  ARG X   1     -39.696  16.035  -6.187  1.00 41.32 LIG 0.14  C 
BRANCH 21 22
ATOM     22  NE  ARG X   1     -40.408  16.815  -7.201  1.00 39.81 LIG-0.23  N 
ATOM     23 HE   ARG X   1     -41.009  16.408  -7.663  1.00 39.81 LIG 0.18  HD
ATOM     24  CZ  ARG X   1     -40.201  18.103  -7.467  1.00 39.75 LIG 0.67  C 
ATOM     25  NH1 ARG X   1     -39.286  18.807  -6.797  1.00 38.76 LIG-0.23  N 
ATOM     26  NH2 ARG X   1     -40.917  18.695  -8.413  1.00 38.02 LIG-0.23  N 
ATOM     27 1HH1 ARG X   1     -38.819  18.428  -6.182  1.00 38.76 LIG 0.17  HD
ATOM     28 2HH1 ARG X   1     -39.164  19.638  -6.980  1.00 38.76 LIG 0.17  HD
ATOM     29 1HH2 ARG X   1     -41.508  18.247  -8.848  1.00 38.02 LIG 0.17  HD
ATOM     30 2HH2 ARG X   1     -40.789  19.526  -8.592  1.00 38.02 LIG 0.17  HD
ENDBRANCH 21 22
ENDBRANCH 20 21
ENDBRANCH 19 20
ENDBRANCH 1 19
BRANCH 1 31
ATOM     31  N   ARG X   1     -39.676  12.997  -5.032  1.00 44.45 LIG-0.07  N 
ATOM     32 H3   ARG X   1     -39.114  13.664  -4.854  1.00 44.45 LIG 0.28  HD
ATOM     33 H2   ARG X   1     -39.255  12.219  -4.933  1.00 44.45 LIG 0.28  HD
ATOM     34 H1   ARG X   1     -40.367  13.033  -4.471  1.00 44.45 LIG 0.28  HD
ENDBRANCH 1 31
TORSDOF 12
ENDMDL
MODEL 3
USER: ADFR SOLUTION from run 31
USER: SCORE 13.604318 LL:  -0.788 LR: -13.366 RR:   0.000 FEB:  -9.787
USER: RMSD 2.656822
USER: SEED 30
USER: STATUS searching
USER: GENES 14
USER: genes 0 Translation |==|  0.57767 0.47156 0.61661
USER: genes 1 Rotation |==|  0.50071 0.43672 0.48057 0.99560
USER: genes 2 Torsion [N]-CA--C-[N] |==|  0.38556
USER: genes 3 Torsion [C]-N--CA-[C] |==|  0.68565
USER: genes 4 Torsion [N]-CA--C-[N] |==|  0.80367
USER: genes 5 Torsion [C]-N--CA-[CB] |==|  0.15191
USER: genes 6 Torsion [N]-CA--C-[O] |==|  0.01734
USER: genes 7 Torsion [N]-CA--CB-[CG] |==|  0.44572
USER: genes 8 Torsion [CA]-CB--CG-[OD2] |==|  0.60787
USER: genes 9 Torsion [C]-CA--CB-[CG] |==|  0.40212
USER: genes 10 Torsion [CA]-CB--CG-[CD] |==|  0.32002
USER: genes 11 Torsion [CB]-CG--CD-[NE] |==|  0.85169
USER: genes 12 Torsion [CG]-CD--NE-[HE] |==|  0.03751
USER: genes 13 Torsion [C]-CA--N-[H3] |==|  0.07489
ROOT
ATOM      1  CA  ARG X   1     -40.285  13.150  -6.402  1.00 44.42 LIG 0.27  C 
ENDROOT
BRANCH 1 2
ATOM      2  C   ARG X   1     -40.546  11.786  -7.039  1.00 44.91 LIG 0.25  C 
ATOM      3 O    ARG X   1     -39.728  10.871  -6.915  1.00 44.76 LIG-0.27  OA
ATOM      4  N   ASP X   2     -41.688  11.651  -7.713  1.00 45.46 LIG-0.34  N 
ATOM      5 H    ASP X   2     -42.303  12.251  -7.738  1.00 45.46 LIG 0.16  HD
BRANCH 4 6
ATOM      6  CA  ASP X   2     -41.993  10.442  -8.480  1.00 46.23 LIG 0.19  C 
BRANCH 6 7
ATOM      7  C   ASP X   2     -42.040  10.735  -9.985  1.00 46.82 LIG 0.24  C 
ATOM      8  N   ALA X   3     -43.082  11.457 -10.401  1.00 47.39 LIG-0.35  N 
ATOM      9 H    ALA X   3     -43.692  11.751  -9.872  1.00 47.39 LIG 0.16  HD
ATOM     10 O    ASP X   2     -41.153  10.322 -10.739  1.00 46.73 LIG-0.27  OA
BRANCH 8 11
ATOM     11  CA  ALA X   3     -43.290  11.820 -11.802  1.00 47.83 LIG 0.16  C 
ATOM     12  CB  ALA X   3     -43.286  10.574 -12.678  1.00 47.95 LIG 0.04  C 
BRANCH 11 13
ATOM     13  C   ALA X   3     -44.580  12.622 -12.007  1.00 48.01 LIG 0.22  C 
ATOM     14 O    ALA X   3     -45.258  12.996 -11.046  1.00 47.84 LIG-0.29  OA
ENDBRANCH 11 13
ENDBRANCH 8 11
ENDBRANCH 6 7
BRANCH 6 15
ATOM     15  CB  ASP X   2     -43.308   9.815  -7.999  1.00 46.29 LIG 0.15  C 
BRANCH 15 16
ATOM     16  CG  ASP X   2     -43.930   8.862  -9.022  1.00 46.38 LIG 0.17  C 
ATOM     17 OD1  ASP X   2     -43.204   8.107  -9.703  1.00 47.16 LIG-0.65  OA
ATOM     18 OD2  ASP X   2     -45.166   8.869  -9.153  1.00 46.37 LIG-0.65  OA
ENDBRANCH 15 16
ENDBRANCH 6 15
ENDBRANCH 4 6
ENDBRANCH 1 2
BRANCH 1 19
ATOM     19  CB  ARG X   1     -39.360  13.988  -7.305  1.00 44.35 LIG 0.04  C 
BRANCH 19 20
ATOM     20  CG  ARG X   1     -39.632  15.497  -7.335  1.00 42.92 LIG 0.02  C 
BRANCH 20 21
ATOM     21  CD  ARG X   1     -38.478  16.303  -6.757  1.00 41.32 LIG 0.14  C 
BRANCH 21 22
ATOM     22  NE  ARG X   1     -38.101  15.852  -5.416  1.00 39.81 LIG-0.23  N 
ATOM     23 HE   ARG X   1     -38.414  15.096  -5.151  1.00 39.81 LIG 0.18  HD
ATOM     24  CZ  ARG X   1     -37.314  16.517  -4.573  1.00 39.75 LIG 0.67  C 
ATOM     25  NH1 ARG X   1     -36.788  17.698  -4.908  1.00 38.76 LIG-0.23  N 
ATOM     26  NH2 ARG X   1     -37.048  15.997  -3.384  1.00 38.02 LIG-0.23  N 
ATOM     27 1HH1 ARG X   1     -36.957  18.041  -5.679  1.00 38.76 LIG 0.17  HD
ATOM     28 2HH1 ARG X   1     -36.282  18.115  -4.353  1.00 38.76 LIG 0.17  HD
ATOM     29 1HH2 ARG X   1     -37.383  15.237  -3.163  1.00 38.02 LIG 0.17  HD
ATOM     30 2HH2 ARG X   1     -36.541  16.420  -2.833  1.00 38.02 LIG 0.17  HD
ENDBRANCH 21 22
ENDBRANCH 20 21
ENDBRANCH 19 20
ENDBRANCH 1 19
BRANCH 1 31
ATOM     31  N   ARG X   1     -39.698  12.997  -5.037  1.00 44.45 LIG-0.07  N 
ATOM     32 H3   ARG X   1     -39.256  12.226  -4.989  1.00 44.45 LIG 0.28  HD
ATOM     33 H2   ARG X   1     -40.350  13.004  -4.431  1.00 44.45 LIG 0.28  HD
ATOM     34 H1   ARG X   1     -39.138  13.671  -4.878  1.00 44.45 LIG 0.28  HD
ENDBRANCH 1 31
TORSDOF 12
ENDMDL
MODEL 4
USER: ADFR SOLUTION from run 31
USER: SCORE 13.123969 LL:  -1.014 LR: -12.685 RR:   0.000 FEB:  -9.106
USER: RMSD 2.657403
USER: SEED 30
USER: STATUS searching
USER: GENES 14
USER: genes 0 Translation |==|  0.57985 0.47206 0.61539
USER: genes 1 Rotation |==|  0.49091 0.42745 0.45885 0.99291
USER: genes 2 Torsion [N]-CA--C-[N] |==|  0.38063
USER: genes 3 Torsion [C]-N--CA-[C] |==|  0.69254
USER: genes 4 Torsion [N]-CA--C-[N] |==|  0.79048
USER: genes 5 Torsion [C]-N--CA-[CB] |==|  0.14525
USER: genes 6 Torsion [N]-CA--C-[O] |==|  0.00655
USER: genes 7 Torsion [N]-CA--CB-[CG] |==|  0.49131
USER: genes 8 Torsion [CA]-CB--CG-[OD2] |==|  0.04568
USER: genes 9 Torsion [C]-CA--CB-[CG] |==|  0.51013
USER: genes 10 Torsion [CA]-CB--CG-[CD] |==|  0.88042
USER: genes 11 Torsion [CB]-CG--CD-[NE] |==|  0.76181
USER: genes 12 Torsion [CG]-CD--NE-[HE] |==|  0.21499
USER: genes 13 Torsion [C]-CA--N-[H3] |==|  0.08960
ROOT
ATOM      1  CA  ARG X   1     -40.250  13.160  -6.422  1.00 44.42 LIG 0.27  C 
ENDROOT
BRANCH 1 2
ATOM      2  C   ARG X   1     -40.613  11.807  -7.031  1.00 44.91 LIG 0.25  C 
ATOM      3 O    ARG X   1     -39.871  10.834  -6.879  1.00 44.76 LIG-0.27  OA
ATOM      4  N   ASP X   2     -41.757  11.746  -7.713  1.00 45.46 LIG-0.34  N 
ATOM      5 H    ASP X   2     -42.322  12.392  -7.758  1.00 45.46 LIG 0.16  HD
BRANCH 4 6
ATOM      6  CA  ASP X   2     -42.150  10.548  -8.455  1.00 46.23 LIG 0.19  C 
BRANCH 6 7
ATOM      7  C   ASP X   2     -42.103  10.790  -9.970  1.00 46.82 LIG 0.24  C 
ATOM      8  N   ALA X   3     -43.104  11.517 -10.470  1.00 47.39 LIG-0.35  N 
ATOM      9 H    ALA X   3     -43.738  11.840  -9.989  1.00 47.39 LIG 0.16  HD
ATOM     10 O    ASP X   2     -41.182  10.336 -10.655  1.00 46.73 LIG-0.27  OA
BRANCH 8 11
ATOM     11  CA  ALA X   3     -43.222  11.836 -11.892  1.00 47.83 LIG 0.16  C 
ATOM     12  CB  ALA X   3     -43.132  10.567 -12.729  1.00 47.95 LIG 0.04  C 
BRANCH 11 13
ATOM     13  C   ALA X   3     -44.510  12.604 -12.209  1.00 48.01 LIG 0.22  C 
ATOM     14 O    ALA X   3     -45.296  12.928 -11.314  1.00 47.84 LIG-0.29  OA
ENDBRANCH 11 13
ENDBRANCH 8 11
ENDBRANCH 6 7
BRANCH 6 15
ATOM     15  CB  ASP X   2     -43.542  10.074  -8.017  1.00 46.29 LIG 0.15  C 
BRANCH 15 16
ATOM     16  CG  ASP X   2     -44.045   8.866  -8.811  1.00 46.38 LIG 0.17  C 
ATOM     17 OD1  ASP X   2     -45.255   8.555  -8.786  1.00 47.16 LIG-0.65  OA
ATOM     18 OD2  ASP X   2     -43.218   8.212  -9.468  1.00 46.37 LIG-0.65  OA
ENDBRANCH 15 16
ENDBRANCH 6 15
ENDBRANCH 4 6
ENDBRANCH 1 2
BRANCH 1 19
ATOM     19  CB  ARG X   1     -39.221  13.882  -7.313  1.00 44.35 LIG 0.04  C 
BRANCH 19 20
ATOM     20  CG  ARG X   1     -38.693  15.222  -6.785  1.00 42.92 LIG 0.02  C 
BRANCH 20 21
ATOM     21  CD  ARG X   1     -39.800  16.089  -6.202  1.00 41.32 LIG 0.14  C 
BRANCH 21 22
ATOM     22  NE  ARG X   1     -40.474  16.893  -7.224  1.00 39.81 LIG-0.23  N 
ATOM     23 HE   ARG X   1     -41.046  16.493  -7.727  1.00 39.81 LIG 0.18  HD
ATOM     24  CZ  ARG X   1     -40.273  18.191  -7.438  1.00 39.75 LIG 0.67  C 
ATOM     25  NH1 ARG X   1     -39.402  18.884  -6.702  1.00 38.76 LIG-0.23  N 
ATOM     26  NH2 ARG X   1     -40.951  18.804  -8.398  1.00 38.02 LIG-0.23  N 
ATOM     27 1HH1 ARG X   1     -38.959  18.492  -6.078  1.00 38.76 LIG 0.17  HD
ATOM     28 2HH1 ARG X   1     -39.283  19.722  -6.853  1.00 38.76 LIG 0.17  HD
ATOM     29 1HH2 ARG X   1     -41.514  18.363  -8.875  1.00 38.02 LIG 0.17  HD
ATOM     30 2HH2 ARG X   1     -40.827  19.642  -8.544  1.00 38.02 LIG 0.17  HD
ENDBRANCH 21 22
ENDBRANCH 20 21
ENDBRANCH 19 20
ENDBRANCH 1 19
BRANCH 1 31
ATOM     31  N   ARG X   1     -39.728  12.997  -5.034  1.00 44.45 LIG-0.07  N 
ATOM     32 H3   ARG X   1     -39.294  12.223  -4.969  1.00 44.45 LIG 0.28  HD
ATOM     33 H2   ARG X   1     -40.408  13.005  -4.458  1.00 44.45 LIG 0.28  HD
ATOM     34 H1   ARG X   1     -39.172  13.666  -4.845  1.00 44.45 LIG 0.28  HD
ENDBRANCH 1 31
TORSDOF 12
ENDMDL
MODEL 5
USER: ADFR SOLUTION from run 156
USER: SCORE 13.262384 LL:  -1.032 LR: -12.291 RR:   0.000 FEB:  -8.712
USER: RMSD 2.565239
USER: SEED 155
USER: STATUS no improvement in best in 6 clusters for 5 generations
USER: GENES 14
USER: genes 0 Translation |==|  0.58039 0.47371 0.61525
USER: genes 1 Rotation |==|  0.50165 0.42523 0.46809 0.99334
USER: genes 2 Torsion [N]-CA--C-[N] |==|  0.38131
USER: genes 3 Torsion [C]-N--CA-[C] |==|  0.76980
USER: genes 4 Torsion [N]-CA--C-[N] |==|  0.94420
USER: genes 5 Torsion [C]-N--CA-[CB] |==|  0.21850
USER: genes 6 Torsion [N]-CA--C-[O] |==|  0.02843
USER: genes 7 Torsion [N]-CA--CB-[CG] |==|  0.54848
USER: genes 8 Torsion [CA]-CB--CG-[OD2] |==|  0.03413
USER: genes 9 Torsion [C]-CA--CB-[CG] |==|  0.39239
USER: genes 10 Torsion [CA]-CB--CG-[CD] |==|  0.32327
USER: genes 11 Torsion [CB]-CG--CD-[NE] |==|  0.85837
USER: genes 12 Torsion [CG]-CD--NE-[HE] |==|  0.03163
USER: genes 13 Torsion [C]-CA--N-[H3] |==|  0.07524
ROOT
ATOM      1  CA  ARG X   1     -40.242  13.195  -6.425  1.00 44.42 LIG 0.27  C 
ENDROOT
BRANCH 1 2
ATOM      2  C   ARG X   1     -40.539  11.850  -7.087  1.00 44.91 LIG 0.25  C 
ATOM      3 O    ARG X   1     -39.760  10.903  -6.957  1.00 44.76 LIG-0.27  OA
ATOM      4  N   ASP X   2     -41.670  11.767  -7.788  1.00 45.46 LIG-0.34  N 
ATOM      5 H    ASP X   2     -42.261  12.391  -7.819  1.00 45.46 LIG 0.16  HD
BRANCH 4 6
ATOM      6  CA  ASP X   2     -42.002  10.581  -8.578  1.00 46.23 LIG 0.19  C 
BRANCH 6 7
ATOM      7  C   ASP X   2     -41.321  10.618  -9.952  1.00 46.82 LIG 0.24  C 
ATOM      8  N   ALA X   3     -40.921  11.821 -10.367  1.00 47.39 LIG-0.35  N 
ATOM      9 H    ALA X   3     -41.025  12.538  -9.904  1.00 47.39 LIG 0.16  HD
ATOM     10 O    ASP X   2     -41.161   9.584 -10.608  1.00 46.73 LIG-0.27  OA
BRANCH 8 11
ATOM     11  CA  ALA X   3     -40.263  12.042 -11.654  1.00 47.83 LIG 0.16  C 
ATOM     12  CB  ALA X   3     -41.291  12.055 -12.778  1.00 47.95 LIG 0.04  C 
BRANCH 11 13
ATOM     13  C   ALA X   3     -39.431  13.329 -11.667  1.00 48.01 LIG 0.22  C 
ATOM     14 O    ALA X   3     -39.209  13.955 -10.626  1.00 47.84 LIG-0.29  OA
ENDBRANCH 11 13
ENDBRANCH 8 11
ENDBRANCH 6 7
BRANCH 6 15
ATOM     15  CB  ASP X   2     -43.523  10.437  -8.721  1.00 46.29 LIG 0.15  C 
BRANCH 15 16
ATOM     16  CG  ASP X   2     -43.957   9.034  -9.152  1.00 46.38 LIG 0.17  C 
ATOM     17 OD1  ASP X   2     -45.131   8.824  -9.525  1.00 47.16 LIG-0.65  OA
ATOM     18 OD2  ASP X   2     -43.114   8.122  -9.114  1.00 46.37 LIG-0.65  OA
ENDBRANCH 15 16
ENDBRANCH 6 15
ENDBRANCH 4 6
ENDBRANCH 1 2
BRANCH 1 19
ATOM     19  CB  ARG X   1     -39.235  13.992  -7.277  1.00 44.35 LIG 0.04  C 
BRANCH 19 20
ATOM     20  CG  ARG X   1     -39.481  15.504  -7.373  1.00 42.92 LIG 0.02  C 
BRANCH 20 21
ATOM     21  CD  ARG X   1     -38.349  16.312  -6.754  1.00 41.32 LIG 0.14  C 
BRANCH 21 22
ATOM     22  NE  ARG X   1     -38.022  15.864  -5.399  1.00 39.81 LIG-0.23  N 
ATOM     23 HE   ARG X   1     -38.366  15.122  -5.134  1.00 39.81 LIG 0.18  HD
ATOM     24  CZ  ARG X   1     -37.235  16.513  -4.543  1.00 39.75 LIG 0.67  C 
ATOM     25  NH1 ARG X   1     -36.662  17.671  -4.876  1.00 38.76 LIG-0.23  N 
ATOM     26  NH2 ARG X   1     -37.016  15.997  -3.342  1.00 38.02 LIG-0.23  N 
ATOM     27 1HH1 ARG X   1     -36.800  18.011  -5.655  1.00 38.76 LIG 0.17  HD
ATOM     28 2HH1 ARG X   1     -36.156  18.078  -4.313  1.00 38.76 LIG 0.17  HD
ATOM     29 1HH2 ARG X   1     -37.382  15.251  -3.122  1.00 38.02 LIG 0.17  HD
ATOM     30 2HH2 ARG X   1     -36.509  16.409  -2.783  1.00 38.02 LIG 0.17  HD
ENDBRANCH 21 22
ENDBRANCH 20 21
ENDBRANCH 19 20
ENDBRANCH 1 19
BRANCH 1 31
ATOM     31  N   ARG X   1     -39.728  13.004  -5.037  1.00 44.45 LIG-0.07  N 
ATOM     32 H3   ARG X   1     -39.326  12.212  -4.975  1.00 44.45 LIG 0.28  HD
ATOM     33 H2   ARG X   1     -40.407  13.036  -4.461  1.00 44.45 LIG 0.28  HD
ATOM     34 H1   ARG X   1     -39.145  13.648  -4.844  1.00 44.45 LIG 0.28  HD
ENDBRANCH 1 31
TORSDOF 12
ENDMDL
MODEL 6
USER: ADFR SOLUTION from run 111
USER: SCORE 13.354164 LL:  -1.190 LR: -12.196 RR:   0.000 FEB:  -8.617
USER: RMSD 2.812647
USER: SEED 110
USER: STATUS no improvement in best in 6 clusters for 5 generations
USER: GENES 14
USER: genes 0 Translation |==|  0.61734 0.59879 0.58703
USER: genes 1 Rotation |==|  0.46914 0.08363 0.44120 0.76874
USER: genes 2 Torsion [N]-CA--C-[N] |==|  0.99982
USER: genes 3 Torsion [C]-N--CA-[C] |==|  0.78974
USER: genes 4 Torsion [N]-CA--C-[N] |==|  0.43333
USER: genes 5 Torsion [C]-N--CA-[CB] |==|  0.36074
USER: genes 6 Torsion [N]-CA--C-[O] |==|  0.67983
USER: genes 7 Torsion [N]-CA--CB-[CG] |==|  0.30865
USER: genes 8 Torsion [CA]-CB--CG-[OD2] |==|  0.76482
USER: genes 9 Torsion [C]-CA--CB-[CG] |==|  0.51582
USER: genes 10 Torsion [CA]-CB--CG-[CD] |==|  0.69322
USER: genes 11 Torsion [CB]-CG--CD-[NE] |==|  0.68943
USER: genes 12 Torsion [CG]-CD--NE-[HE] |==|  0.08403
USER: genes 13 Torsion [C]-CA--N-[H3] |==|  0.10992
ROOT
ATOM      1  CA  ARG X   1     -39.660  15.822  -6.912  1.00 44.42 LIG 0.27  C 
ENDROOT
BRANCH 1 2
ATOM      2  C   ARG X   1     -39.357  14.343  -7.149  1.00 44.91 LIG 0.25  C 
ATOM      3 O    ARG X   1     -38.219  13.979  -7.454  1.00 44.76 LIG-0.27  OA
ATOM      4  N   ASP X   2     -40.374  13.494  -7.000  1.00 45.46 LIG-0.34  N 
ATOM      5 H    ASP X   2     -41.150  13.723  -6.709  1.00 45.46 LIG 0.16  HD
BRANCH 4 6
ATOM      6  CA  ASP X   2     -40.248  12.074  -7.328  1.00 46.23 LIG 0.19  C 
BRANCH 6 7
ATOM      7  C   ASP X   2     -40.273  11.848  -8.846  1.00 46.82 LIG 0.24  C 
ATOM      8  N   ALA X   3     -39.687  10.728  -9.273  1.00 47.39 LIG-0.35  N 
ATOM      9 H    ALA X   3     -39.321  10.157  -8.746  1.00 47.39 LIG 0.16  HD
ATOM     10 O    ASP X   2     -40.813  12.664  -9.599  1.00 46.73 LIG-0.27  OA
BRANCH 8 11
ATOM     11  CA  ALA X   3     -39.610  10.360 -10.686  1.00 47.83 LIG 0.16  C 
ATOM     12  CB  ALA X   3     -38.180   9.992 -11.059  1.00 47.95 LIG 0.04  C 
BRANCH 11 13
ATOM     13  C   ALA X   3     -40.573   9.221 -11.041  1.00 48.01 LIG 0.22  C 
ATOM     14 O    ALA X   3     -40.151   8.122 -11.413  1.00 47.84 LIG-0.29  OA
ENDBRANCH 11 13
ENDBRANCH 8 11
ENDBRANCH 6 7
BRANCH 6 15
ATOM     15  CB  ASP X   2     -41.347  11.259  -6.632  1.00 46.29 LIG 0.15  C 
BRANCH 15 16
ATOM     16  CG  ASP X   2     -42.380  10.686  -7.606  1.00 46.38 LIG 0.17  C 
ATOM     17 OD1  ASP X   2     -42.258   9.520  -8.038  1.00 47.16 LIG-0.65  OA
ATOM     18 OD2  ASP X   2     -43.327  11.412  -7.950  1.00 46.37 LIG-0.65  OA
ENDBRANCH 15 16
ENDBRANCH 6 15
ENDBRANCH 4 6
ENDBRANCH 1 2
BRANCH 1 19
ATOM     19  CB  ARG X   1     -38.734  16.382  -5.815  1.00 44.35 LIG 0.04  C 
BRANCH 19 20
ATOM     20  CG  ARG X   1     -39.011  17.824  -5.370  1.00 42.92 LIG 0.02  C 
BRANCH 20 21
ATOM     21  CD  ARG X   1     -37.914  18.784  -5.808  1.00 41.32 LIG 0.14  C 
BRANCH 21 22
ATOM     22  NE  ARG X   1     -37.144  19.302  -4.676  1.00 39.81 LIG-0.23  N 
ATOM     23 HE   ARG X   1     -37.062  18.793  -3.987  1.00 39.81 LIG 0.18  HD
ATOM     24  CZ  ARG X   1     -36.560  20.497  -4.625  1.00 39.75 LIG 0.67  C 
ATOM     25  NH1 ARG X   1     -36.640  21.347  -5.651  1.00 38.76 LIG-0.23  N 
ATOM     26  NH2 ARG X   1     -35.887  20.846  -3.538  1.00 38.02 LIG-0.23  N 
ATOM     27 1HH1 ARG X   1     -37.074  21.126  -6.360  1.00 38.76 LIG 0.17  HD
ATOM     28 2HH1 ARG X   1     -36.257  22.115  -5.603  1.00 38.76 LIG 0.17  HD
ATOM     29 1HH2 ARG X   1     -35.831  20.303  -2.874  1.00 38.02 LIG 0.17  HD
ATOM     30 2HH2 ARG X   1     -35.507  21.617  -3.497  1.00 38.02 LIG 0.17  HD
ENDBRANCH 21 22
ENDBRANCH 20 21
ENDBRANCH 19 20
ENDBRANCH 1 19
BRANCH 1 31
ATOM     31  N   ARG X   1     -41.094  16.020  -6.549  1.00 44.45 LIG-0.07  N 
ATOM     32 H3   ARG X   1     -41.357  15.365  -6.007  1.00 44.45 LIG 0.28  HD
ATOM     33 H2   ARG X   1     -41.591  16.012  -7.287  1.00 44.45 LIG 0.28  HD
ATOM     34 H1   ARG X   1     -41.190  16.803  -6.136  1.00 44.45 LIG 0.28  HD
ENDBRANCH 1 31
TORSDOF 12
ENDMDL
MODEL 7
USER: ADFR SOLUTION from run 200
USER: SCORE 13.425723 LL:  -1.408 LR: -12.087 RR:   0.000 FEB:  -8.508
USER: RMSD 2.710908
USER: SEED 199
USER: STATUS no improvement in best in 7 clusters for 5 generations
USER: GENES 14
USER: genes 0 Translation |==|  0.56818 0.46957 0.60775
USER: genes 1 Rotation |==|  0.48587 0.41150 0.46538 0.99068
USER: genes 2 Torsion [N]-CA--C-[N] |==|  0.39696
USER: genes 3 Torsion [C]-N--CA-[C] |==|  0.82777
USER: genes 4 Torsion [N]-CA--C-[N] |==|  0.96521
USER: genes 5 Torsion [C]-N--CA-[CB] |==|  0.33563
USER: genes 6 Torsion [N]-CA--C-[O] |==|  0.92723
USER: genes 7 Torsion [N]-CA--CB-[CG] |==|  0.13448
USER: genes 8 Torsion [CA]-CB--CG-[OD2] |==|  0.62077
USER: genes 9 Torsion [C]-CA--CB-[CG] |==|  0.43994
USER: genes 10 Torsion [CA]-CB--CG-[CD] |==|  0.33298
USER: genes 11 Torsion [CB]-CG--CD-[NE] |==|  0.79829
USER: genes 12 Torsion [CG]-CD--NE-[HE] |==|  0.09991
USER: genes 13 Torsion [C]-CA--N-[H3] |==|  0.41758
ROOT
ATOM      1  CA  ARG X   1     -40.434  13.108  -6.554  1.00 44.42 LIG 0.27  C 
ENDROOT
BRANCH 1 2
ATOM      2  C   ARG X   1     -40.728  11.729  -7.144  1.00 44.91 LIG 0.25  C 
ATOM      3 O    ARG X   1     -40.038  10.756  -6.831  1.00 44.76 LIG-0.27  OA
ATOM      4  N   ASP X   2     -41.755  11.649  -7.989  1.00 45.46 LIG-0.34  N 
ATOM      5 H    ASP X   2     -42.293  12.299  -8.153  1.00 45.46 LIG 0.16  HD
BRANCH 4 6
ATOM      6  CA  ASP X   2     -42.056  10.418  -8.723  1.00 46.23 LIG 0.19  C 
BRANCH 6 7
ATOM      7  C   ASP X   2     -40.900  10.029  -9.654  1.00 46.82 LIG 0.24  C 
ATOM      8  N   ALA X   3     -39.969  10.965  -9.842  1.00 47.39 LIG-0.35  N 
ATOM      9 H    ALA X   3     -39.996  11.739  -9.469  1.00 47.39 LIG 0.16  HD
ATOM     10 O    ASP X   2     -40.857   8.911 -10.176  1.00 46.73 LIG-0.27  OA
BRANCH 8 11
ATOM     11  CA  ALA X   3     -38.804  10.768 -10.705  1.00 47.83 LIG 0.16  C 
ATOM     12  CB  ALA X   3     -38.786  11.811 -11.814  1.00 47.95 LIG 0.04  C 
BRANCH 11 13
ATOM     13  C   ALA X   3     -37.490  10.790  -9.918  1.00 48.01 LIG 0.22  C 
ATOM     14 O    ALA X   3     -37.395  11.404  -8.851  1.00 47.84 LIG-0.29  OA
ENDBRANCH 11 13
ENDBRANCH 8 11
ENDBRANCH 6 7
BRANCH 6 15
ATOM     15  CB  ASP X   2     -43.368  10.563  -9.505  1.00 46.29 LIG 0.15  C 
BRANCH 15 16
ATOM     16  CG  ASP X   2     -43.444  11.856 -10.320  1.00 46.38 LIG 0.17  C 
ATOM     17 OD1  ASP X   2     -42.455  12.246 -10.976  1.00 47.16 LIG-0.65  OA
ATOM     18 OD2  ASP X   2     -44.508  12.498 -10.303  1.00 46.37 LIG-0.65  OA
ENDBRANCH 15 16
ENDBRANCH 6 15
ENDBRANCH 4 6
ENDBRANCH 1 2
BRANCH 1 19
ATOM     19  CB  ARG X   1     -39.368  13.829  -7.401  1.00 44.35 LIG 0.04  C 
BRANCH 19 20
ATOM     20  CG  ARG X   1     -39.328  15.358  -7.278  1.00 42.92 LIG 0.02  C 
BRANCH 20 21
ATOM     21  CD  ARG X   1     -37.986  15.861  -6.767  1.00 41.32 LIG 0.14  C 
BRANCH 21 22
ATOM     22  NE  ARG X   1     -37.790  15.577  -5.344  1.00 39.81 LIG-0.23  N 
ATOM     23 HE   ARG X   1     -38.106  14.835  -5.042  1.00 39.81 LIG 0.18  HD
ATOM     24  CZ  ARG X   1     -37.164  16.372  -4.479  1.00 39.75 LIG 0.67  C 
ATOM     25  NH1 ARG X   1     -36.647  17.539  -4.867  1.00 38.76 LIG-0.23  N 
ATOM     26  NH2 ARG X   1     -37.053  15.996  -3.213  1.00 38.02 LIG-0.23  N 
ATOM     27 1HH1 ARG X   1     -36.715  17.788  -5.688  1.00 38.76 LIG 0.17  HD
ATOM     28 2HH1 ARG X   1     -36.245  18.042  -4.297  1.00 38.76 LIG 0.17  HD
ATOM     29 1HH2 ARG X   1     -37.384  15.245  -2.957  1.00 38.02 LIG 0.17  HD
ATOM     30 2HH2 ARG X   1     -36.650  16.504  -2.648  1.00 38.02 LIG 0.17  HD
ENDBRANCH 21 22
ENDBRANCH 20 21
ENDBRANCH 19 20
ENDBRANCH 1 19
BRANCH 1 31
ATOM     31  N   ARG X   1     -39.996  12.997  -5.132  1.00 44.45 LIG-0.07  N 
ATOM     32 H3   ARG X   1     -39.446  13.669  -4.937  1.00 44.45 LIG 0.28  HD
ATOM     33 H2   ARG X   1     -39.574  12.223  -5.010  1.00 44.45 LIG 0.28  HD
ATOM     34 H1   ARG X   1     -40.708  13.033  -4.598  1.00 44.45 LIG 0.28  HD
ENDBRANCH 1 31
TORSDOF 12
ENDMDL
