MODEL 1
USER: ADFR SOLUTION from run 137
USER: SCORE 13.357240 LL:  -1.570 LR: -15.197 RR:   0.000 FEB: -10.424
USER: RMSD 2.266716
USER: SEED 136
USER: STATUS no improvement in best in 6 clusters for 5 generations
USER: GENES 18
USER: genes 0 Translation |==|  0.59591 0.46653 0.58687
USER: genes 1 Rotation |==|  0.49613 0.49635 0.50266 0.99996
USER: genes 2 Torsion [C]-CA--CB-[CG] |==|  0.80503
USER: genes 3 Torsion [CA]-CB--CG-[CD] |==|  0.52585
USER: genes 4 Torsion [CB]-CG--CD-[NE] |==|  0.74869
USER: genes 5 Torsion [CG]-CD--NE-[HE] |==|  0.85114
USER: genes 6 Torsion [N]-CA--C-[N] |==|  0.37744
USER: genes 7 Torsion [C]-N--CA-[CB] |==|  0.42938
USER: genes 8 Torsion [N]-CA--C-[N] |==|  0.76379
USER: genes 9 Torsion [C]-N--CA-[CB] |==|  0.87748
USER: genes 10 Torsion [N]-CA--C-[OXT] |==|  0.46665
USER: genes 11 Torsion [CB]-CA--N-[C] |==|  0.38940
USER: genes 12 Torsion [N]-C--CA-[N] |==|  0.41882
USER: genes 13 Torsion [C]-CA--CB-[CG] |==|  0.54395
USER: genes 14 Torsion [CA]-CB--CG-[CD] |==|  0.84161
USER: genes 15 Torsion [CB]-CG--CD-[NE] |==|  0.52421
USER: genes 16 Torsion [CG]-CD--NE-[HE] |==|  0.33347
USER: genes 17 Torsion [C]-CA--N-[H3] |==|  0.39485
ROOT
ATOM      1  CA  ARG X   2     -29.270  -6.652  -8.032  1.00 56.86 LIG 0.18  C 
ENDROOT
BRANCH 1 2
ATOM      2  CB  ARG X   2     -29.752  -8.105  -7.983  1.00 56.93 LIG 0.04  C 
BRANCH 2 3
ATOM      3  CG  ARG X   2     -31.166  -8.312  -8.502  1.00 58.33 LIG 0.02  C 
BRANCH 3 4
ATOM      4  CD  ARG X   2     -31.678  -9.705  -8.229  1.00 61.73 LIG 0.14  C 
BRANCH 4 5
ATOM      5  NE  ARG X   2     -31.389 -10.648  -9.308  1.00 63.99 LIG-0.23  N 
ATOM      6 HE   ARG X   2     -31.639 -10.434 -10.102  1.00 63.99 LIG 0.18  HD
ATOM      7  CZ  ARG X   2     -30.767 -11.819  -9.149  1.00 64.82 LIG 0.67  C 
ATOM      8  NH1 ARG X   2     -30.340 -12.216  -7.953  1.00 63.71 LIG-0.23  N 
ATOM      9  NH2 ARG X   2     -30.566 -12.599 -10.203  1.00 65.19 LIG-0.23  N 
ATOM     10 2HH1 ARG X   2     -29.942 -12.974  -7.868  1.00 63.71 LIG 0.17  HD
ATOM     11 1HH1 ARG X   2     -30.462 -11.716  -7.264  1.00 63.71 LIG 0.17  HD
ATOM     12 2HH2 ARG X   2     -30.167 -13.355 -10.109  1.00 65.19 LIG 0.17  HD
ATOM     13 1HH2 ARG X   2     -30.836 -12.349 -10.981  1.00 65.19 LIG 0.17  HD
ENDBRANCH 4 5
ENDBRANCH 3 4
ENDBRANCH 2 3
ENDBRANCH 1 2
BRANCH 1 14
ATOM     14  C   ARG X   2     -29.043  -6.216  -9.471  1.00 57.66 LIG 0.24  C 
ATOM     15  N   ALA X   3     -27.778  -6.174  -9.892  1.00 58.84 LIG-0.35  N 
ATOM     16 H    ALA X   3     -27.102  -6.344  -9.388  1.00 58.84 LIG 0.16  HD
ATOM     17 O    ARG X   2     -30.010  -5.922 -10.180  1.00 57.54 LIG-0.27  OA
BRANCH 15 18
ATOM     18  CA  ALA X   3     -27.423  -5.826 -11.274  1.00 60.16 LIG 0.17  C 
ATOM     19  CB  ALA X   3     -26.002  -5.246 -11.353  1.00 60.10 LIG 0.04  C 
BRANCH 18 20
ATOM     20  C   ALA X   3     -27.574  -7.036 -12.196  1.00 60.84 LIG 0.24  C 
ATOM     21  N   ALA X   4     -26.516  -7.852 -12.241  1.00 61.66 LIG-0.34  N 
ATOM     22 H    ALA X   4     -25.818  -7.724 -11.756  1.00 61.66 LIG 0.16  HD
ATOM     23 O    ALA X   3     -28.608  -7.205 -12.854  1.00 61.07 LIG-0.27  OA
BRANCH 21 24
ATOM     24  CA  ALA X   4     -26.406  -9.048 -13.101  1.00 62.39 LIG 0.18  C 
ATOM     25  CB  ALA X   4     -27.704  -9.878 -13.081  1.00 62.29 LIG 0.04  C 
BRANCH 24 26
ATOM     26  C   ALA X   4     -25.951  -8.749 -14.537  1.00 62.72 LIG 0.20  C 
ATOM     27 OXT  ALA X   4     -25.604  -9.654 -15.302  1.00 62.96 LIG-0.65  OA
ATOM     28 O    ALA X   4     -25.903  -7.596 -14.975  1.00 63.08 LIG-0.65  OA
ENDBRANCH 24 26
ENDBRANCH 21 24
ENDBRANCH 18 20
ENDBRANCH 15 18
ENDBRANCH 1 14
BRANCH 1 29
ATOM     29  N   ARG X   2     -30.252  -5.765  -7.421  1.00 55.62 LIG-0.35  N 
ATOM     30 H    ARG X   2     -31.069  -5.964  -7.604  1.00 55.62 LIG 0.16  HD
ATOM     31  C   ARG X   1     -29.895  -4.739  -6.649  1.00 54.36 LIG 0.25  C 
ATOM     32 O    ARG X   1     -28.724  -4.498  -6.351  1.00 54.20 LIG-0.27  OA
BRANCH 31 33
ATOM     33  CA  ARG X   1     -31.026  -3.844  -6.151  1.00 53.49 LIG 0.27  C 
BRANCH 33 34
ATOM     34  CB  ARG X   1     -31.317  -2.766  -7.200  1.00 53.17 LIG 0.04  C 
BRANCH 34 35
ATOM     35  CG  ARG X   1     -32.140  -1.582  -6.719  1.00 51.16 LIG 0.02  C 
BRANCH 35 36
ATOM     36  CD  ARG X   1     -33.469  -2.019  -6.149  1.00 48.38 LIG 0.14  C 
BRANCH 36 37
ATOM     37  NE  ARG X   1     -34.351  -0.887  -5.871  1.00 47.01 LIG-0.23  N 
ATOM     38 HE   ARG X   1     -35.107  -0.864  -6.281  1.00 47.01 LIG 0.18  HD
ATOM     39  CZ  ARG X   1     -34.075   0.113  -5.032  1.00 46.53 LIG 0.67  C 
ATOM     40  NH2 ARG X   1     -34.966   1.083  -4.851  1.00 45.07 LIG-0.23  N 
ATOM     41  NH1 ARG X   1     -32.922   0.151  -4.367  1.00 44.67 LIG-0.23  N 
ATOM     42 2HH2 ARG X   1     -34.794   1.730  -4.311  1.00 45.07 LIG 0.17  HD
ATOM     43 1HH2 ARG X   1     -35.714   1.063  -5.274  1.00 45.07 LIG 0.17  HD
ATOM     44 2HH1 ARG X   1     -32.757   0.802  -3.830  1.00 44.67 LIG 0.17  HD
ATOM     45 1HH1 ARG X   1     -32.342  -0.474  -4.476  1.00 44.67 LIG 0.17  HD
ENDBRANCH 36 37
ENDBRANCH 35 36
ENDBRANCH 34 35
ENDBRANCH 33 34
BRANCH 33 46
ATOM     46  N   ARG X   1     -30.693  -3.224  -4.834  1.00 53.50 LIG-0.07  N 
ATOM     47 H1   ARG X   1     -31.069  -3.696  -4.180  1.00 53.50 LIG 0.28  HD
ATOM     48 H3   ARG X   1     -31.001  -2.390  -4.812  1.00 53.50 LIG 0.28  HD
ATOM     49 H2   ARG X   1     -29.810  -3.216  -4.724  1.00 53.50 LIG 0.28  HD
ENDBRANCH 33 46
ENDBRANCH 31 33
ENDBRANCH 1 29
TORSDOF 16
ENDMDL
MODEL 2
USER: ADFR SOLUTION from run 38
USER: SCORE 16.083441 LL:  -2.448 LR: -14.884 RR:   0.000 FEB: -10.111
USER: RMSD 3.116024
USER: SEED 37
USER: STATUS no improvement in best in 8 clusters for 5 generations
USER: GENES 18
USER: genes 0 Translation |==|  0.60122 0.46469 0.59601
USER: genes 1 Rotation |==|  0.36205 0.61097 0.59363 0.95814
USER: genes 2 Torsion [C]-CA--CB-[CG] |==|  0.98495
USER: genes 3 Torsion [CA]-CB--CG-[CD] |==|  0.81787
USER: genes 4 Torsion [CB]-CG--CD-[NE] |==|  0.61632
USER: genes 5 Torsion [CG]-CD--NE-[HE] |==|  0.33331
USER: genes 6 Torsion [N]-CA--C-[N] |==|  0.95673
USER: genes 7 Torsion [C]-N--CA-[CB] |==|  0.86613
USER: genes 8 Torsion [N]-CA--C-[N] |==|  0.30460
USER: genes 9 Torsion [C]-N--CA-[CB] |==|  0.89868
USER: genes 10 Torsion [N]-CA--C-[OXT] |==|  0.57306
USER: genes 11 Torsion [CB]-CA--N-[C] |==|  0.25824
USER: genes 12 Torsion [N]-C--CA-[N] |==|  0.44089
USER: genes 13 Torsion [C]-CA--CB-[CG] |==|  0.56636
USER: genes 14 Torsion [CA]-CB--CG-[CD] |==|  0.82432
USER: genes 15 Torsion [CB]-CG--CD-[NE] |==|  0.52748
USER: genes 16 Torsion [CG]-CD--NE-[HE] |==|  0.32386
USER: genes 17 Torsion [C]-CA--N-[H3] |==|  0.04976
ROOT
ATOM      1  CA  ARG X   2     -29.170  -6.696  -7.854  1.00 56.86 LIG 0.18  C 
ENDROOT
BRANCH 1 2
ATOM      2  CB  ARG X   2     -28.899  -7.912  -6.963  1.00 56.93 LIG 0.04  C 
BRANCH 2 3
ATOM      3  CG  ARG X   2     -29.279  -9.244  -7.591  1.00 58.33 LIG 0.02  C 
BRANCH 3 4
ATOM      4  CD  ARG X   2     -30.767  -9.368  -7.809  1.00 61.73 LIG 0.14  C 
BRANCH 4 5
ATOM      5  NE  ARG X   2     -31.294 -10.688  -7.464  1.00 63.99 LIG-0.23  N 
ATOM      6 HE   ARG X   2     -31.895 -10.728  -6.850  1.00 63.99 LIG 0.18  HD
ATOM      7  CZ  ARG X   2     -30.909 -11.833  -8.031  1.00 64.82 LIG 0.67  C 
ATOM      8  NH1 ARG X   2     -29.993 -11.851  -8.996  1.00 63.71 LIG-0.23  N 
ATOM      9  NH2 ARG X   2     -31.453 -12.975  -7.630  1.00 65.19 LIG-0.23  N 
ATOM     10 2HH1 ARG X   2     -29.756 -12.599  -9.351  1.00 63.71 LIG 0.17  HD
ATOM     11 1HH1 ARG X   2     -29.638 -11.116  -9.266  1.00 63.71 LIG 0.17  HD
ATOM     12 2HH2 ARG X   2     -31.210 -13.717  -7.990  1.00 65.19 LIG 0.17  HD
ATOM     13 1HH2 ARG X   2     -32.049 -12.973  -7.009  1.00 65.19 LIG 0.17  HD
ENDBRANCH 4 5
ENDBRANCH 3 4
ENDBRANCH 2 3
ENDBRANCH 1 2
BRANCH 1 14
ATOM     14  C   ARG X   2     -29.643  -7.140  -9.229  1.00 57.66 LIG 0.24  C 
ATOM     15  N   ALA X   3     -30.940  -6.976  -9.498  1.00 58.84 LIG-0.35  N 
ATOM     16 H    ALA X   3     -31.509  -6.670  -8.930  1.00 58.84 LIG 0.16  HD
ATOM     17 O    ARG X   2     -28.836  -7.626 -10.027  1.00 57.54 LIG-0.27  OA
BRANCH 15 18
ATOM     18  CA  ALA X   3     -31.517  -7.308 -10.807  1.00 60.16 LIG 0.17  C 
ATOM     19  CB  ALA X   3     -30.677  -6.715 -11.950  1.00 60.10 LIG 0.04  C 
BRANCH 18 20
ATOM     20  C   ALA X   3     -31.671  -8.821 -10.967  1.00 60.84 LIG 0.24  C 
ATOM     21  N   ALA X   4     -32.931  -9.267 -10.952  1.00 61.66 LIG-0.34  N 
ATOM     22 H    ALA X   4     -33.605  -8.737 -10.896  1.00 61.66 LIG 0.16  HD
ATOM     23 O    ALA X   3     -30.678  -9.550 -11.079  1.00 61.07 LIG-0.27  OA
BRANCH 21 24
ATOM     24  CA  ALA X   4     -33.325 -10.689 -11.030  1.00 62.39 LIG 0.18  C 
ATOM     25  CB  ALA X   4     -32.394 -11.481 -11.968  1.00 62.29 LIG 0.04  C 
BRANCH 24 26
ATOM     26  C   ALA X   4     -33.467 -11.377  -9.665  1.00 62.72 LIG 0.20  C 
ATOM     27 OXT  ALA X   4     -33.314 -12.596  -9.541  1.00 62.96 LIG-0.65  OA
ATOM     28 O    ALA X   4     -33.751 -10.742  -8.645  1.00 63.08 LIG-0.65  OA
ENDBRANCH 24 26
ENDBRANCH 21 24
ENDBRANCH 18 20
ENDBRANCH 15 18
ENDBRANCH 1 14
BRANCH 1 29
ATOM     29  N   ARG X   2     -30.191  -5.842  -7.259  1.00 55.62 LIG-0.35  N 
ATOM     30 H    ARG X   2     -30.997  -6.062  -7.462  1.00 55.62 LIG 0.16  HD
ATOM     31  C   ARG X   1     -29.881  -4.814  -6.470  1.00 54.36 LIG 0.25  C 
ATOM     32 O    ARG X   1     -28.724  -4.543  -6.143  1.00 54.20 LIG-0.27  OA
BRANCH 31 33
ATOM     33  CA  ARG X   1     -31.048  -3.956  -5.991  1.00 53.49 LIG 0.27  C 
BRANCH 33 34
ATOM     34  CB  ARG X   1     -31.475  -3.008  -7.117  1.00 53.17 LIG 0.04  C 
BRANCH 34 35
ATOM     35  CG  ARG X   1     -32.194  -1.743  -6.679  1.00 51.16 LIG 0.02  C 
BRANCH 35 36
ATOM     36  CD  ARG X   1     -33.507  -2.053  -5.999  1.00 48.38 LIG 0.14  C 
BRANCH 36 37
ATOM     37  NE  ARG X   1     -34.314  -0.855  -5.780  1.00 47.01 LIG-0.23  N 
ATOM     38 HE   ARG X   1     -35.071  -0.807  -6.185  1.00 47.01 LIG 0.18  HD
ATOM     39  CZ  ARG X   1     -33.967   0.172  -5.001  1.00 46.53 LIG 0.67  C 
ATOM     40  NH2 ARG X   1     -34.793   1.205  -4.870  1.00 45.07 LIG-0.23  N 
ATOM     41  NH1 ARG X   1     -32.807   0.176  -4.348  1.00 44.67 LIG-0.23  N 
ATOM     42 2HH2 ARG X   1     -34.576   1.869  -4.369  1.00 45.07 LIG 0.17  HD
ATOM     43 1HH2 ARG X   1     -35.546   1.208  -5.285  1.00 45.07 LIG 0.17  HD
ATOM     44 2HH1 ARG X   1     -32.596   0.844  -3.850  1.00 44.67 LIG 0.17  HD
ATOM     45 1HH1 ARG X   1     -32.268  -0.490  -4.425  1.00 44.67 LIG 0.17  HD
ENDBRANCH 36 37
ENDBRANCH 35 36
ENDBRANCH 34 35
ENDBRANCH 33 34
BRANCH 33 46
ATOM     46  N   ARG X   1     -30.693  -3.188  -4.760  1.00 53.50 LIG-0.07  N 
ATOM     47 H1   ARG X   1     -31.010  -2.359  -4.826  1.00 53.50 LIG 0.28  HD
ATOM     48 H3   ARG X   1     -29.808  -3.160  -4.672  1.00 53.50 LIG 0.28  HD
ATOM     49 H2   ARG X   1     -31.050  -3.586  -4.049  1.00 53.50 LIG 0.28  HD
ENDBRANCH 33 46
ENDBRANCH 31 33
ENDBRANCH 1 29
TORSDOF 16
ENDMDL
MODEL 3
USER: ADFR SOLUTION from run 61
USER: SCORE 14.248761 LL:  -1.435 LR: -14.742 RR:   0.000 FEB:  -9.969
USER: RMSD 3.242661
USER: SEED 60
USER: STATUS no improvement in best in 6 clusters for 5 generations
USER: GENES 18
USER: genes 0 Translation |==|  0.58832 0.45285 0.60138
USER: genes 1 Rotation |==|  0.47908 0.46858 0.46796 0.99754
USER: genes 2 Torsion [C]-CA--CB-[CG] |==|  0.83071
USER: genes 3 Torsion [CA]-CB--CG-[CD] |==|  0.50119
USER: genes 4 Torsion [CB]-CG--CD-[NE] |==|  0.73364
USER: genes 5 Torsion [CG]-CD--NE-[HE] |==|  0.81369
USER: genes 6 Torsion [N]-CA--C-[N] |==|  0.47548
USER: genes 7 Torsion [C]-N--CA-[CB] |==|  0.85441
USER: genes 8 Torsion [N]-CA--C-[N] |==|  0.32228
USER: genes 9 Torsion [C]-N--CA-[CB] |==|  0.48372
USER: genes 10 Torsion [N]-CA--C-[OXT] |==|  0.30482
USER: genes 11 Torsion [CB]-CA--N-[C] |==|  0.37175
USER: genes 12 Torsion [N]-C--CA-[N] |==|  0.43492
USER: genes 13 Torsion [C]-CA--CB-[CG] |==|  0.49813
USER: genes 14 Torsion [CA]-CB--CG-[CD] |==|  0.94654
USER: genes 15 Torsion [CB]-CG--CD-[NE] |==|  0.49199
USER: genes 16 Torsion [CG]-CD--NE-[HE] |==|  0.26638
USER: genes 17 Torsion [C]-CA--N-[H3] |==|  0.10120
ROOT
ATOM      1  CA  ARG X   2     -29.412  -6.981  -7.749  1.00 56.86 LIG 0.18  C 
ENDROOT
BRANCH 1 2
ATOM      2  CB  ARG X   2     -30.097  -8.348  -7.671  1.00 56.93 LIG 0.04  C 
BRANCH 2 3
ATOM      3  CG  ARG X   2     -31.352  -8.467  -8.523  1.00 58.33 LIG 0.02  C 
BRANCH 3 4
ATOM      4  CD  ARG X   2     -31.996  -9.827  -8.405  1.00 61.73 LIG 0.14  C 
BRANCH 4 5
ATOM      5  NE  ARG X   2     -31.604 -10.746  -9.472  1.00 63.99 LIG-0.23  N 
ATOM      6 HE   ARG X   2     -31.866 -10.564 -10.270  1.00 63.99 LIG 0.18  HD
ATOM      7  CZ  ARG X   2     -30.871 -11.848  -9.296  1.00 64.82 LIG 0.67  C 
ATOM      8  NH1 ARG X   2     -30.418 -12.190  -8.092  1.00 63.71 LIG-0.23  N 
ATOM      9  NH2 ARG X   2     -30.582 -12.613 -10.341  1.00 65.19 LIG-0.23  N 
ATOM     10 2HH1 ARG X   2     -29.947 -12.904  -7.997  1.00 63.71 LIG 0.17  HD
ATOM     11 1HH1 ARG X   2     -30.596 -11.698  -7.410  1.00 63.71 LIG 0.17  HD
ATOM     12 2HH2 ARG X   2     -30.110 -13.324 -10.236  1.00 65.19 LIG 0.17  HD
ATOM     13 1HH2 ARG X   2     -30.868 -12.397 -11.123  1.00 65.19 LIG 0.17  HD
ENDBRANCH 4 5
ENDBRANCH 3 4
ENDBRANCH 2 3
ENDBRANCH 1 2
BRANCH 1 14
ATOM     14  C   ARG X   2     -28.973  -6.687  -9.175  1.00 57.66 LIG 0.24  C 
ATOM     15  N   ALA X   3     -28.000  -7.452  -9.671  1.00 58.84 LIG-0.35  N 
ATOM     16 H    ALA X   3     -27.598  -8.064  -9.220  1.00 58.84 LIG 0.16  HD
ATOM     17 O    ARG X   2     -29.515  -5.775  -9.806  1.00 57.54 LIG-0.27  OA
BRANCH 15 18
ATOM     18  CA  ALA X   3     -27.522  -7.314 -11.053  1.00 60.16 LIG 0.17  C 
ATOM     19  CB  ALA X   3     -28.687  -7.375 -12.053  1.00 60.10 LIG 0.04  C 
BRANCH 18 20
ATOM     20  C   ALA X   3     -26.718  -6.024 -11.226  1.00 60.84 LIG 0.24  C 
ATOM     21  N   ALA X   4     -25.430  -6.195 -11.540  1.00 61.66 LIG-0.34  N 
ATOM     22 H    ALA X   4     -25.090  -6.974 -11.672  1.00 61.66 LIG 0.16  HD
ATOM     23 O    ALA X   3     -27.250  -4.920 -11.059  1.00 61.07 LIG-0.27  OA
BRANCH 21 24
ATOM     24  CA  ALA X   4     -24.446  -5.105 -11.698  1.00 62.39 LIG 0.18  C 
ATOM     25  CB  ALA X   4     -23.024  -5.657 -11.918  1.00 62.29 LIG 0.04  C 
BRANCH 24 26
ATOM     26  C   ALA X   4     -24.821  -4.072 -12.770  1.00 62.72 LIG 0.20  C 
ATOM     27 OXT  ALA X   4     -25.160  -2.924 -12.464  1.00 62.96 LIG-0.65  OA
ATOM     28 O    ALA X   4     -24.808  -4.351 -13.972  1.00 63.08 LIG-0.65  OA
ENDBRANCH 24 26
ENDBRANCH 21 24
ENDBRANCH 18 20
ENDBRANCH 15 18
ENDBRANCH 1 14
BRANCH 1 29
ATOM     29  N   ARG X   2     -30.319  -5.927  -7.310  1.00 55.62 LIG-0.35  N 
ATOM     30 H    ARG X   2     -31.109  -5.980  -7.644  1.00 55.62 LIG 0.16  HD
ATOM     31  C   ARG X   1     -29.936  -4.972  -6.463  1.00 54.36 LIG 0.25  C 
ATOM     32 O    ARG X   1     -28.817  -4.939  -5.949  1.00 54.20 LIG-0.27  OA
BRANCH 31 33
ATOM     33  CA  ARG X   1     -30.964  -3.886  -6.162  1.00 53.49 LIG 0.27  C 
BRANCH 33 34
ATOM     34  CB  ARG X   1     -30.963  -2.858  -7.299  1.00 53.17 LIG 0.04  C 
BRANCH 34 35
ATOM     35  CG  ARG X   1     -31.951  -1.713  -7.155  1.00 51.16 LIG 0.02  C 
BRANCH 35 36
ATOM     36  CD  ARG X   1     -33.052  -2.043  -6.174  1.00 48.38 LIG 0.14  C 
BRANCH 36 37
ATOM     37  NE  ARG X   1     -33.971  -0.925  -5.976  1.00 47.01 LIG-0.23  N 
ATOM     38 HE   ARG X   1     -34.694  -0.918  -6.442  1.00 47.01 LIG 0.18  HD
ATOM     39  CZ  ARG X   1     -33.776   0.087  -5.128  1.00 46.53 LIG 0.67  C 
ATOM     40  NH2 ARG X   1     -34.694   1.043  -5.026  1.00 45.07 LIG-0.23  N 
ATOM     41  NH1 ARG X   1     -32.679   0.151  -4.378  1.00 44.67 LIG-0.23  N 
ATOM     42 2HH2 ARG X   1     -34.575   1.698  -4.481  1.00 45.07 LIG 0.17  HD
ATOM     43 1HH2 ARG X   1     -35.408   1.007  -5.504  1.00 45.07 LIG 0.17  HD
ATOM     44 2HH1 ARG X   1     -32.566   0.809  -3.836  1.00 44.67 LIG 0.17  HD
ATOM     45 1HH1 ARG X   1     -32.082  -0.465  -4.436  1.00 44.67 LIG 0.17  HD
ENDBRANCH 36 37
ENDBRANCH 35 36
ENDBRANCH 34 35
ENDBRANCH 33 34
BRANCH 33 46
ATOM     46  N   ARG X   1     -30.693  -3.224  -4.851  1.00 53.50 LIG-0.07  N 
ATOM     47 H1   ARG X   1     -31.058  -2.412  -4.847  1.00 53.50 LIG 0.28  HD
ATOM     48 H3   ARG X   1     -29.814  -3.155  -4.729  1.00 53.50 LIG 0.28  HD
ATOM     49 H2   ARG X   1     -31.046  -3.710  -4.194  1.00 53.50 LIG 0.28  HD
ENDBRANCH 33 46
ENDBRANCH 31 33
ENDBRANCH 1 29
TORSDOF 16
ENDMDL
MODEL 4
USER: ADFR SOLUTION from run 32
USER: SCORE 14.234987 LL:  -1.953 LR: -14.562 RR:   0.000 FEB:  -9.789
USER: RMSD 2.948104
USER: SEED 31
USER: STATUS no improvement in best in 6 clusters for 5 generations
USER: GENES 18
USER: genes 0 Translation |==|  0.59458 0.46644 0.59281
USER: genes 1 Rotation |==|  0.43621 0.54143 0.53259 0.99310
USER: genes 2 Torsion [C]-CA--CB-[CG] |==|  0.12658
USER: genes 3 Torsion [CA]-CB--CG-[CD] |==|  0.74456
USER: genes 4 Torsion [CB]-CG--CD-[NE] |==|  0.83790
USER: genes 5 Torsion [CG]-CD--NE-[HE] |==|  0.79352
USER: genes 6 Torsion [N]-CA--C-[N] |==|  0.37043
USER: genes 7 Torsion [C]-N--CA-[CB] |==|  0.19400
USER: genes 8 Torsion [N]-CA--C-[N] |==|  0.51980
USER: genes 9 Torsion [C]-N--CA-[CB] |==|  0.24709
USER: genes 10 Torsion [N]-CA--C-[OXT] |==|  0.49387
USER: genes 11 Torsion [CB]-CA--N-[C] |==|  0.30943
USER: genes 12 Torsion [N]-C--CA-[N] |==|  0.45827
USER: genes 13 Torsion [C]-CA--CB-[CG] |==|  0.54416
USER: genes 14 Torsion [CA]-CB--CG-[CD] |==|  0.84336
USER: genes 15 Torsion [CB]-CG--CD-[NE] |==|  0.51611
USER: genes 16 Torsion [CG]-CD--NE-[HE] |==|  0.32625
USER: genes 17 Torsion [C]-CA--N-[H3] |==|  0.39365
ROOT
ATOM      1  CA  ARG X   2     -29.295  -6.655  -7.916  1.00 56.86 LIG 0.18  C 
ENDROOT
BRANCH 1 2
ATOM      2  CB  ARG X   2     -29.559  -8.088  -7.445  1.00 56.93 LIG 0.04  C 
BRANCH 2 3
ATOM      3  CG  ARG X   2     -28.811  -9.152  -8.233  1.00 58.33 LIG 0.02  C 
BRANCH 3 4
ATOM      4  CD  ARG X   2     -29.621  -9.680  -9.392  1.00 61.73 LIG 0.14  C 
BRANCH 4 5
ATOM      5  NE  ARG X   2     -30.900 -10.261  -8.986  1.00 63.99 LIG-0.23  N 
ATOM      6 HE   ARG X   2     -30.884 -11.031  -8.604  1.00 63.99 LIG 0.18  HD
ATOM      7  CZ  ARG X   2     -32.089  -9.681  -9.164  1.00 64.82 LIG 0.67  C 
ATOM      8  NH1 ARG X   2     -32.194  -8.484  -9.736  1.00 63.71 LIG-0.23  N 
ATOM      9  NH2 ARG X   2     -33.187 -10.307  -8.760  1.00 65.19 LIG-0.23  N 
ATOM     10 2HH1 ARG X   2     -32.969  -8.125  -9.844  1.00 63.71 LIG 0.17  HD
ATOM     11 1HH1 ARG X   2     -31.488  -8.068  -9.997  1.00 63.71 LIG 0.17  HD
ATOM     12 2HH2 ARG X   2     -33.957  -9.941  -8.872  1.00 65.19 LIG 0.17  HD
ATOM     13 1HH2 ARG X   2     -33.128 -11.080  -8.387  1.00 65.19 LIG 0.17  HD
ENDBRANCH 4 5
ENDBRANCH 3 4
ENDBRANCH 2 3
ENDBRANCH 1 2
BRANCH 1 14
ATOM     14  C   ARG X   2     -29.368  -6.571  -9.432  1.00 57.66 LIG 0.24  C 
ATOM     15  N   ALA X   3     -28.208  -6.465 -10.083  1.00 58.84 LIG-0.35  N 
ATOM     16 H    ALA X   3     -27.445  -6.408  -9.691  1.00 58.84 LIG 0.16  HD
ATOM     17 O    ARG X   2     -30.467  -6.602  -9.995  1.00 57.54 LIG-0.27  OA
BRANCH 15 18
ATOM     18  CA  ALA X   3     -28.132  -6.434 -11.550  1.00 60.16 LIG 0.17  C 
ATOM     19  CB  ALA X   3     -28.706  -5.122 -12.108  1.00 60.10 LIG 0.04  C 
BRANCH 18 20
ATOM     20  C   ALA X   3     -26.696  -6.652 -12.026  1.00 60.84 LIG 0.24  C 
ATOM     21  N   ALA X   4     -26.503  -6.493 -13.339  1.00 61.66 LIG-0.34  N 
ATOM     22 H    ALA X   4     -27.134  -6.249 -13.869  1.00 61.66 LIG 0.16  HD
ATOM     23 O    ALA X   3     -25.806  -6.972 -11.228  1.00 61.07 LIG-0.27  OA
BRANCH 21 24
ATOM     24  CA  ALA X   4     -25.219  -6.708 -14.037  1.00 62.39 LIG 0.18  C 
ATOM     25  CB  ALA X   4     -25.066  -8.170 -14.498  1.00 62.29 LIG 0.04  C 
BRANCH 24 26
ATOM     26  C   ALA X   4     -24.957  -5.725 -15.187  1.00 62.72 LIG 0.20  C 
ATOM     27 OXT  ALA X   4     -23.905  -5.759 -15.834  1.00 62.96 LIG-0.65  OA
ATOM     28 O    ALA X   4     -25.779  -4.859 -15.499  1.00 63.08 LIG-0.65  OA
ENDBRANCH 24 26
ENDBRANCH 21 24
ENDBRANCH 18 20
ENDBRANCH 15 18
ENDBRANCH 1 14
BRANCH 1 29
ATOM     29  N   ARG X   2     -30.276  -5.739  -7.347  1.00 55.62 LIG-0.35  N 
ATOM     30 H    ARG X   2     -31.074  -5.844  -7.650  1.00 55.62 LIG 0.16  HD
ATOM     31  C   ARG X   1     -29.945  -4.823  -6.437  1.00 54.36 LIG 0.25  C 
ATOM     32 O    ARG X   1     -28.809  -4.719  -5.972  1.00 54.20 LIG-0.27  OA
BRANCH 31 33
ATOM     33  CA  ARG X   1     -31.057  -3.877  -5.997  1.00 53.49 LIG 0.27  C 
BRANCH 33 34
ATOM     34  CB  ARG X   1     -31.360  -2.890  -7.130  1.00 53.17 LIG 0.04  C 
BRANCH 34 35
ATOM     35  CG  ARG X   1     -32.160  -1.659  -6.738  1.00 51.16 LIG 0.02  C 
BRANCH 35 36
ATOM     36  CD  ARG X   1     -33.475  -2.029  -6.092  1.00 48.38 LIG 0.14  C 
BRANCH 36 37
ATOM     37  NE  ARG X   1     -34.313  -0.860  -5.833  1.00 47.01 LIG-0.23  N 
ATOM     38 HE   ARG X   1     -35.070  -0.818  -6.238  1.00 47.01 LIG 0.18  HD
ATOM     39  CZ  ARG X   1     -33.994   0.147  -5.018  1.00 46.53 LIG 0.67  C 
ATOM     40  NH2 ARG X   1     -34.847   1.153  -4.852  1.00 45.07 LIG-0.23  N 
ATOM     41  NH1 ARG X   1     -32.836   0.157  -4.362  1.00 44.67 LIG-0.23  N 
ATOM     42 2HH2 ARG X   1     -34.648   1.804  -4.328  1.00 45.07 LIG 0.17  HD
ATOM     43 1HH2 ARG X   1     -35.599   1.152  -5.270  1.00 45.07 LIG 0.17  HD
ATOM     44 2HH1 ARG X   1     -32.644   0.813  -3.839  1.00 44.67 LIG 0.17  HD
ATOM     45 1HH1 ARG X   1     -32.280  -0.491  -4.460  1.00 44.67 LIG 0.17  HD
ENDBRANCH 36 37
ENDBRANCH 35 36
ENDBRANCH 34 35
ENDBRANCH 33 34
BRANCH 33 46
ATOM     46  N   ARG X   1     -30.693  -3.148  -4.746  1.00 53.50 LIG-0.07  N 
ATOM     47 H1   ARG X   1     -31.065  -3.554  -4.046  1.00 53.50 LIG 0.28  HD
ATOM     48 H3   ARG X   1     -30.988  -2.310  -4.793  1.00 53.50 LIG 0.28  HD
ATOM     49 H2   ARG X   1     -29.808  -3.146  -4.650  1.00 53.50 LIG 0.28  HD
ENDBRANCH 33 46
ENDBRANCH 31 33
ENDBRANCH 1 29
TORSDOF 16
ENDMDL
MODEL 5
USER: ADFR SOLUTION from run 74
USER: SCORE 14.998123 LL:  -2.129 LR: -14.338 RR:   0.000 FEB:  -9.566
USER: RMSD 3.541064
USER: SEED 73
USER: STATUS no improvement in best in 7 clusters for 5 generations
USER: GENES 18
USER: genes 0 Translation |==|  0.58752 0.45965 0.62027
USER: genes 1 Rotation |==|  0.49901 0.48732 0.47170 0.99904
USER: genes 2 Torsion [C]-CA--CB-[CG] |==|  0.86303
USER: genes 3 Torsion [CA]-CB--CG-[CD] |==|  0.50442
USER: genes 4 Torsion [CB]-CG--CD-[NE] |==|  0.71916
USER: genes 5 Torsion [CG]-CD--NE-[HE] |==|  0.83301
USER: genes 6 Torsion [N]-CA--C-[N] |==|  0.44071
USER: genes 7 Torsion [C]-N--CA-[CB] |==|  0.79443
USER: genes 8 Torsion [N]-CA--C-[N] |==|  0.13952
USER: genes 9 Torsion [C]-N--CA-[CB] |==|  0.13836
USER: genes 10 Torsion [N]-CA--C-[OXT] |==|  0.60814
USER: genes 11 Torsion [CB]-CA--N-[C] |==|  0.44474
USER: genes 12 Torsion [N]-C--CA-[N] |==|  0.43504
USER: genes 13 Torsion [C]-CA--CB-[CG] |==|  0.53953
USER: genes 14 Torsion [CA]-CB--CG-[CD] |==|  0.79383
USER: genes 15 Torsion [CB]-CG--CD-[NE] |==|  0.50834
USER: genes 16 Torsion [CG]-CD--NE-[HE] |==|  0.33872
USER: genes 17 Torsion [C]-CA--N-[H3] |==|  0.19130
ROOT
ATOM      1  CA  ARG X   2     -29.427  -6.818  -7.381  1.00 56.86 LIG 0.18  C 
ENDROOT
BRANCH 1 2
ATOM      2  CB  ARG X   2     -30.086  -8.200  -7.371  1.00 56.93 LIG 0.04  C 
BRANCH 2 3
ATOM      3  CG  ARG X   2     -31.235  -8.352  -8.356  1.00 58.33 LIG 0.02  C 
BRANCH 3 4
ATOM      4  CD  ARG X   2     -31.875  -9.716  -8.281  1.00 61.73 LIG 0.14  C 
BRANCH 4 5
ATOM      5  NE  ARG X   2     -31.445 -10.615  -9.351  1.00 63.99 LIG-0.23  N 
ATOM      6 HE   ARG X   2     -31.603 -10.375 -10.160  1.00 63.99 LIG 0.18  HD
ATOM      7  CZ  ARG X   2     -30.826 -11.783  -9.160  1.00 64.82 LIG 0.67  C 
ATOM      8  NH1 ARG X   2     -30.536 -12.219  -7.937  1.00 63.71 LIG-0.23  N 
ATOM      9  NH2 ARG X   2     -30.489 -12.521 -10.210  1.00 65.19 LIG-0.23  N 
ATOM     10 2HH1 ARG X   2     -30.138 -12.974  -7.832  1.00 63.71 LIG 0.17  HD
ATOM     11 1HH1 ARG X   2     -30.748 -11.746  -7.250  1.00 63.71 LIG 0.17  HD
ATOM     12 2HH2 ARG X   2     -30.091 -13.275 -10.096  1.00 65.19 LIG 0.17  HD
ATOM     13 1HH2 ARG X   2     -30.669 -12.246 -11.005  1.00 65.19 LIG 0.17  HD
ENDBRANCH 4 5
ENDBRANCH 3 4
ENDBRANCH 2 3
ENDBRANCH 1 2
BRANCH 1 14
ATOM     14  C   ARG X   2     -29.095  -6.398  -8.804  1.00 57.66 LIG 0.24  C 
ATOM     15  N   ALA X   3     -27.988  -6.917  -9.338  1.00 58.84 LIG-0.35  N 
ATOM     16 H    ALA X   3     -27.452  -7.437  -8.912  1.00 58.84 LIG 0.16  HD
ATOM     17 O    ARG X   2     -29.837  -5.612  -9.399  1.00 57.54 LIG-0.27  OA
BRANCH 15 18
ATOM     18  CA  ALA X   3     -27.582  -6.641 -10.723  1.00 60.16 LIG 0.17  C 
ATOM     19  CB  ALA X   3     -28.467  -7.403 -11.722  1.00 60.10 LIG 0.04  C 
BRANCH 18 20
ATOM     20  C   ALA X   3     -27.599  -5.139 -11.007  1.00 60.84 LIG 0.24  C 
ATOM     21  N   ALA X   4     -26.951  -4.385 -10.115  1.00 61.66 LIG-0.34  N 
ATOM     22 H    ALA X   4     -26.523  -4.726  -9.451  1.00 61.66 LIG 0.16  HD
ATOM     23 O    ALA X   3     -28.198  -4.688 -11.991  1.00 61.07 LIG-0.27  OA
BRANCH 21 24
ATOM     24  CA  ALA X   4     -26.880  -2.910 -10.146  1.00 62.39 LIG 0.18  C 
ATOM     25  CB  ALA X   4     -28.278  -2.283 -10.313  1.00 62.29 LIG 0.04  C 
BRANCH 24 26
ATOM     26  C   ALA X   4     -26.124  -2.292  -8.961  1.00 62.72 LIG 0.20  C 
ATOM     27 OXT  ALA X   4     -26.512  -1.249  -8.425  1.00 62.96 LIG-0.65  OA
ATOM     28 O    ALA X   4     -25.097  -2.805  -8.508  1.00 63.08 LIG-0.65  OA
ENDBRANCH 24 26
ENDBRANCH 21 24
ENDBRANCH 18 20
ENDBRANCH 15 18
ENDBRANCH 1 14
BRANCH 1 29
ATOM     29  N   ARG X   2     -30.315  -5.822  -6.793  1.00 55.62 LIG-0.35  N 
ATOM     30 H    ARG X   2     -31.143  -6.055  -6.774  1.00 55.62 LIG 0.16  HD
ATOM     31  C   ARG X   1     -29.864  -4.657  -6.329  1.00 54.36 LIG 0.25  C 
ATOM     32 O    ARG X   1     -28.668  -4.359  -6.312  1.00 54.20 LIG-0.27  OA
BRANCH 31 33
ATOM     33  CA  ARG X   1     -30.919  -3.678  -5.823  1.00 53.49 LIG 0.27  C 
BRANCH 33 34
ATOM     34  CB  ARG X   1     -31.544  -2.946  -7.016  1.00 53.17 LIG 0.04  C 
BRANCH 34 35
ATOM     35  CG  ARG X   1     -32.361  -1.710  -6.678  1.00 51.16 LIG 0.02  C 
BRANCH 35 36
ATOM     36  CD  ARG X   1     -33.696  -2.072  -6.071  1.00 48.38 LIG 0.14  C 
BRANCH 36 37
ATOM     37  NE  ARG X   1     -34.521  -0.895  -5.806  1.00 47.01 LIG-0.23  N 
ATOM     38 HE   ARG X   1     -35.294  -0.860  -6.182  1.00 47.01 LIG 0.18  HD
ATOM     39  CZ  ARG X   1     -34.168   0.130  -5.027  1.00 46.53 LIG 0.67  C 
ATOM     40  NH2 ARG X   1     -35.012   1.141  -4.851  1.00 45.07 LIG-0.23  N 
ATOM     41  NH1 ARG X   1     -32.985   0.151  -4.418  1.00 44.67 LIG-0.23  N 
ATOM     42 2HH2 ARG X   1     -34.790   1.804  -4.350  1.00 45.07 LIG 0.17  HD
ATOM     43 1HH2 ARG X   1     -35.780   1.133  -5.238  1.00 45.07 LIG 0.17  HD
ATOM     44 2HH1 ARG X   1     -32.770   0.818  -3.919  1.00 44.67 LIG 0.17  HD
ATOM     45 1HH1 ARG X   1     -32.435  -0.501  -4.524  1.00 44.67 LIG 0.17  HD
ENDBRANCH 36 37
ENDBRANCH 35 36
ENDBRANCH 34 35
ENDBRANCH 33 34
BRANCH 33 46
ATOM     46  N   ARG X   1     -30.339  -2.704  -4.851  1.00 53.50 LIG-0.07  N 
ATOM     47 H1   ARG X   1     -30.995  -2.232  -4.477  1.00 53.50 LIG 0.28  HD
ATOM     48 H3   ARG X   1     -29.784  -2.154  -5.276  1.00 53.50 LIG 0.28  HD
ATOM     49 H2   ARG X   1     -29.894  -3.145  -4.219  1.00 53.50 LIG 0.28  HD
ENDBRANCH 33 46
ENDBRANCH 31 33
ENDBRANCH 1 29
TORSDOF 16
ENDMDL
MODEL 6
USER: ADFR SOLUTION from run 95
USER: SCORE 14.066018 LL:  -2.519 LR: -14.117 RR:   0.000 FEB:  -9.344
USER: RMSD 1.998394
USER: SEED 94
USER: STATUS no improvement in best in 6 clusters for 5 generations
USER: GENES 18
USER: genes 0 Translation |==|  0.59444 0.46194 0.59764
USER: genes 1 Rotation |==|  0.48079 0.49163 0.49155 0.99949
USER: genes 2 Torsion [C]-CA--CB-[CG] |==|  0.80677
USER: genes 3 Torsion [CA]-CB--CG-[CD] |==|  0.34466
USER: genes 4 Torsion [CB]-CG--CD-[NE] |==|  0.54418
USER: genes 5 Torsion [CG]-CD--NE-[HE] |==|  0.88953
USER: genes 6 Torsion [N]-CA--C-[N] |==|  0.27078
USER: genes 7 Torsion [C]-N--CA-[CB] |==|  0.47792
USER: genes 8 Torsion [N]-CA--C-[N] |==|  0.31751
USER: genes 9 Torsion [C]-N--CA-[CB] |==|  0.89280
USER: genes 10 Torsion [N]-CA--C-[OXT] |==|  0.37057
USER: genes 11 Torsion [CB]-CA--N-[C] |==|  0.39614
USER: genes 12 Torsion [N]-C--CA-[N] |==|  0.39532
USER: genes 13 Torsion [C]-CA--CB-[CG] |==|  0.53013
USER: genes 14 Torsion [CA]-CB--CG-[CD] |==|  0.86113
USER: genes 15 Torsion [CB]-CG--CD-[NE] |==|  0.51700
USER: genes 16 Torsion [CG]-CD--NE-[HE] |==|  0.31839
USER: genes 17 Torsion [C]-CA--N-[H3] |==|  0.40185
ROOT
ATOM      1  CA  ARG X   2     -29.297  -6.762  -7.822  1.00 56.86 LIG 0.18  C 
ENDROOT
BRANCH 1 2
ATOM      2  CB  ARG X   2     -29.845  -8.187  -7.695  1.00 56.93 LIG 0.04  C 
BRANCH 2 3
ATOM      3  CG  ARG X   2     -31.253  -8.366  -8.244  1.00 58.33 LIG 0.02  C 
BRANCH 3 4
ATOM      4  CD  ARG X   2     -31.324  -9.451  -9.290  1.00 61.73 LIG 0.14  C 
BRANCH 4 5
ATOM      5  NE  ARG X   2     -32.546  -9.403 -10.091  1.00 63.99 LIG-0.23  N 
ATOM      6 HE   ARG X   2     -33.280  -9.217  -9.686  1.00 63.99 LIG 0.18  HD
ATOM      7  CZ  ARG X   2     -32.603  -9.627 -11.406  1.00 64.82 LIG 0.67  C 
ATOM      8  NH1 ARG X   2     -31.507  -9.909 -12.107  1.00 63.71 LIG-0.23  N 
ATOM      9  NH2 ARG X   2     -33.773  -9.563 -12.028  1.00 65.19 LIG-0.23  N 
ATOM     10 2HH1 ARG X   2     -31.562 -10.051 -12.953  1.00 63.71 LIG 0.17  HD
ATOM     11 1HH1 ARG X   2     -30.743  -9.948 -11.713  1.00 63.71 LIG 0.17  HD
ATOM     12 2HH2 ARG X   2     -33.818  -9.706 -12.875  1.00 65.19 LIG 0.17  HD
ATOM     13 1HH2 ARG X   2     -34.486  -9.378 -11.585  1.00 65.19 LIG 0.17  HD
ENDBRANCH 4 5
ENDBRANCH 3 4
ENDBRANCH 2 3
ENDBRANCH 1 2
BRANCH 1 14
ATOM     14  C   ARG X   2     -29.025  -6.426  -9.279  1.00 57.66 LIG 0.24  C 
ATOM     15  N   ALA X   3     -27.926  -5.714  -9.534  1.00 58.84 LIG-0.35  N 
ATOM     16 H    ALA X   3     -27.399  -5.416  -8.924  1.00 58.84 LIG 0.16  HD
ATOM     17 O    ARG X   2     -29.809  -6.809 -10.153  1.00 57.54 LIG-0.27  OA
BRANCH 15 18
ATOM     18  CA  ALA X   3     -27.515  -5.370 -10.902  1.00 60.16 LIG 0.17  C 
ATOM     19  CB  ALA X   3     -26.334  -4.387 -10.896  1.00 60.10 LIG 0.04  C 
BRANCH 18 20
ATOM     20  C   ALA X   3     -27.178  -6.629 -11.702  1.00 60.84 LIG 0.24  C 
ATOM     21  N   ALA X   4     -27.994  -6.884 -12.729  1.00 61.66 LIG-0.34  N 
ATOM     22 H    ALA X   4     -28.638  -6.357 -12.945  1.00 61.66 LIG 0.16  HD
ATOM     23 O    ALA X   3     -26.222  -7.346 -11.381  1.00 61.07 LIG-0.27  OA
BRANCH 21 24
ATOM     24  CA  ALA X   4     -27.904  -8.069 -13.607  1.00 62.39 LIG 0.18  C 
ATOM     25  CB  ALA X   4     -26.439  -8.441 -13.903  1.00 62.29 LIG 0.04  C 
BRANCH 24 26
ATOM     26  C   ALA X   4     -28.703  -9.282 -13.108  1.00 62.72 LIG 0.20  C 
ATOM     27 OXT  ALA X   4     -29.432  -9.927 -13.867  1.00 62.96 LIG-0.65  OA
ATOM     28 O    ALA X   4     -28.655  -9.650 -11.930  1.00 63.08 LIG-0.65  OA
ENDBRANCH 24 26
ENDBRANCH 21 24
ENDBRANCH 18 20
ENDBRANCH 15 18
ENDBRANCH 1 14
BRANCH 1 29
ATOM     29  N   ARG X   2     -30.249  -5.797  -7.286  1.00 55.62 LIG-0.35  N 
ATOM     30 H    ARG X   2     -31.073  -5.988  -7.446  1.00 55.62 LIG 0.16  HD
ATOM     31  C   ARG X   1     -29.858  -4.717  -6.611  1.00 54.36 LIG 0.25  C 
ATOM     32 O    ARG X   1     -28.678  -4.484  -6.343  1.00 54.20 LIG-0.27  OA
BRANCH 31 33
ATOM     33  CA  ARG X   1     -30.959  -3.750  -6.188  1.00 53.49 LIG 0.27  C 
BRANCH 33 34
ATOM     34  CB  ARG X   1     -31.084  -2.636  -7.233  1.00 53.17 LIG 0.04  C 
BRANCH 34 35
ATOM     35  CG  ARG X   1     -31.954  -1.455  -6.839  1.00 51.16 LIG 0.02  C 
BRANCH 35 36
ATOM     36  CD  ARG X   1     -33.300  -1.901  -6.318  1.00 48.38 LIG 0.14  C 
BRANCH 36 37
ATOM     37  NE  ARG X   1     -34.199  -0.775  -6.070  1.00 47.01 LIG-0.23  N 
ATOM     38 HE   ARG X   1     -34.905  -0.717  -6.557  1.00 47.01 LIG 0.18  HD
ATOM     39  CZ  ARG X   1     -34.008   0.169  -5.146  1.00 46.53 LIG 0.67  C 
ATOM     40  NH2 ARG X   1     -34.906   1.139  -5.005  1.00 45.07 LIG-0.23  N 
ATOM     41  NH1 ARG X   1     -32.935   0.151  -4.359  1.00 44.67 LIG-0.23  N 
ATOM     42 2HH2 ARG X   1     -34.789   1.750  -4.411  1.00 45.07 LIG 0.17  HD
ATOM     43 1HH2 ARG X   1     -35.604   1.156  -5.507  1.00 45.07 LIG 0.17  HD
ATOM     44 2HH1 ARG X   1     -32.825   0.766  -3.768  1.00 44.67 LIG 0.17  HD
ATOM     45 1HH1 ARG X   1     -32.352  -0.475  -4.442  1.00 44.67 LIG 0.17  HD
ENDBRANCH 36 37
ENDBRANCH 35 36
ENDBRANCH 34 35
ENDBRANCH 33 34
BRANCH 33 46
ATOM     46  N   ARG X   1     -30.693  -3.177  -4.834  1.00 53.50 LIG-0.07  N 
ATOM     47 H1   ARG X   1     -31.126  -3.653  -4.220  1.00 53.50 LIG 0.28  HD
ATOM     48 H3   ARG X   1     -30.975  -2.333  -4.809  1.00 53.50 LIG 0.28  HD
ATOM     49 H2   ARG X   1     -29.819  -3.202  -4.668  1.00 53.50 LIG 0.28  HD
ENDBRANCH 33 46
ENDBRANCH 31 33
ENDBRANCH 1 29
TORSDOF 16
ENDMDL
MODEL 7
USER: ADFR SOLUTION from run 101
USER: SCORE 14.460761 LL:  -2.666 LR: -14.110 RR:   0.000 FEB:  -9.338
USER: RMSD 1.484400
USER: SEED 100
USER: STATUS no improvement in best in 2 clusters for 5 generations
USER: GENES 18
USER: genes 0 Translation |==|  0.59956 0.45905 0.61022
USER: genes 1 Rotation |==|  0.44119 0.53783 0.53469 0.99387
USER: genes 2 Torsion [C]-CA--CB-[CG] |==|  0.99574
USER: genes 3 Torsion [CA]-CB--CG-[CD] |==|  0.54686
USER: genes 4 Torsion [CB]-CG--CD-[NE] |==|  0.38524
USER: genes 5 Torsion [CG]-CD--NE-[HE] |==|  0.35496
USER: genes 6 Torsion [N]-CA--C-[N] |==|  0.39925
USER: genes 7 Torsion [C]-N--CA-[CB] |==|  0.52236
USER: genes 8 Torsion [N]-CA--C-[N] |==|  0.29875
USER: genes 9 Torsion [C]-N--CA-[CB] |==|  0.86240
USER: genes 10 Torsion [N]-CA--C-[OXT] |==|  0.53074
USER: genes 11 Torsion [CB]-CA--N-[C] |==|  0.37632
USER: genes 12 Torsion [N]-C--CA-[N] |==|  0.39078
USER: genes 13 Torsion [C]-CA--CB-[CG] |==|  0.55525
USER: genes 14 Torsion [CA]-CB--CG-[CD] |==|  0.82216
USER: genes 15 Torsion [CB]-CG--CD-[NE] |==|  0.52874
USER: genes 16 Torsion [CG]-CD--NE-[HE] |==|  0.33471
USER: genes 17 Torsion [C]-CA--N-[H3] |==|  0.40273
ROOT
ATOM      1  CA  ARG X   2     -29.201  -6.832  -7.577  1.00 56.86 LIG 0.18  C 
ENDROOT
BRANCH 1 2
ATOM      2  CB  ARG X   2     -29.459  -8.277  -7.140  1.00 56.93 LIG 0.04  C 
BRANCH 2 3
ATOM      3  CG  ARG X   2     -29.742  -9.235  -8.288  1.00 58.33 LIG 0.02  C 
BRANCH 3 4
ATOM      4  CD  ARG X   2     -30.379 -10.519  -7.816  1.00 61.73 LIG 0.14  C 
BRANCH 4 5
ATOM      5  NE  ARG X   2     -31.456 -10.985  -8.689  1.00 63.99 LIG-0.23  N 
ATOM      6 HE   ARG X   2     -31.417 -11.796  -8.970  1.00 63.99 LIG 0.18  HD
ATOM      7  CZ  ARG X   2     -32.493 -10.241  -9.081  1.00 64.82 LIG 0.67  C 
ATOM      8  NH1 ARG X   2     -32.630  -8.980  -8.678  1.00 63.71 LIG-0.23  N 
ATOM      9  NH2 ARG X   2     -33.408 -10.770  -9.883  1.00 65.19 LIG-0.23  N 
ATOM     10 2HH1 ARG X   2     -33.304  -8.516  -8.941  1.00 63.71 LIG 0.17  HD
ATOM     11 1HH1 ARG X   2     -32.044  -8.630  -8.154  1.00 63.71 LIG 0.17  HD
ATOM     12 2HH2 ARG X   2     -34.079 -10.298 -10.140  1.00 65.19 LIG 0.17  HD
ATOM     13 1HH2 ARG X   2     -33.330 -11.586 -10.145  1.00 65.19 LIG 0.17  HD
ENDBRANCH 4 5
ENDBRANCH 3 4
ENDBRANCH 2 3
ENDBRANCH 1 2
BRANCH 1 14
ATOM     14  C   ARG X   2     -29.257  -6.716  -9.092  1.00 57.66 LIG 0.24  C 
ATOM     15  N   ALA X   3     -28.095  -6.801  -9.742  1.00 58.84 LIG-0.35  N 
ATOM     16 H    ALA X   3     -27.335  -6.881  -9.349  1.00 58.84 LIG 0.16  HD
ATOM     17 O    ARG X   2     -30.344  -6.551  -9.653  1.00 57.54 LIG-0.27  OA
BRANCH 15 18
ATOM     18  CA  ALA X   3     -28.013  -6.764 -11.208  1.00 60.16 LIG 0.17  C 
ATOM     19  CB  ALA X   3     -26.589  -7.079 -11.693  1.00 60.10 LIG 0.04  C 
BRANCH 18 20
ATOM     20  C   ALA X   3     -29.031  -7.718 -11.835  1.00 60.84 LIG 0.24  C 
ATOM     21  N   ALA X   4     -30.076  -7.127 -12.423  1.00 61.66 LIG-0.34  N 
ATOM     22 H    ALA X   4     -30.149  -6.272 -12.477  1.00 61.66 LIG 0.16  HD
ATOM     23 O    ALA X   3     -28.875  -8.943 -11.767  1.00 61.07 LIG-0.27  OA
BRANCH 21 24
ATOM     24  CA  ALA X   4     -31.212  -7.839 -13.042  1.00 62.39 LIG 0.18  C 
ATOM     25  CB  ALA X   4     -30.728  -8.940 -14.006  1.00 62.29 LIG 0.04  C 
BRANCH 24 26
ATOM     26  C   ALA X   4     -32.236  -8.382 -12.036  1.00 62.72 LIG 0.20  C 
ATOM     27 OXT  ALA X   4     -33.125  -9.167 -12.384  1.00 62.96 LIG-0.65  OA
ATOM     28 O    ALA X   4     -32.219  -8.048 -10.848  1.00 63.08 LIG-0.65  OA
ENDBRANCH 24 26
ENDBRANCH 21 24
ENDBRANCH 18 20
ENDBRANCH 15 18
ENDBRANCH 1 14
BRANCH 1 29
ATOM     29  N   ARG X   2     -30.197  -5.937  -7.000  1.00 55.62 LIG-0.35  N 
ATOM     30 H    ARG X   2     -31.004  -6.230  -7.047  1.00 55.62 LIG 0.16  HD
ATOM     31  C   ARG X   1     -29.865  -4.768  -6.452  1.00 54.36 LIG 0.25  C 
ATOM     32 O    ARG X   1     -28.699  -4.385  -6.342  1.00 54.20 LIG-0.27  OA
BRANCH 31 33
ATOM     33  CA  ARG X   1     -31.021  -3.897  -5.969  1.00 53.49 LIG 0.27  C 
BRANCH 33 34
ATOM     34  CB  ARG X   1     -31.365  -2.867  -7.050  1.00 53.17 LIG 0.04  C 
BRANCH 34 35
ATOM     35  CG  ARG X   1     -32.141  -1.649  -6.579  1.00 51.16 LIG 0.02  C 
BRANCH 35 36
ATOM     36  CD  ARG X   1     -33.510  -2.024  -6.060  1.00 48.38 LIG 0.14  C 
BRANCH 36 37
ATOM     37  NE  ARG X   1     -34.354  -0.854  -5.831  1.00 47.01 LIG-0.23  N 
ATOM     38 HE   ARG X   1     -35.094  -0.807  -6.268  1.00 47.01 LIG 0.18  HD
ATOM     39  CZ  ARG X   1     -34.067   0.148  -4.997  1.00 46.53 LIG 0.67  C 
ATOM     40  NH2 ARG X   1     -34.924   1.156  -4.863  1.00 45.07 LIG-0.23  N 
ATOM     41  NH1 ARG X   1     -32.938   0.151  -4.293  1.00 44.67 LIG-0.23  N 
ATOM     42 2HH2 ARG X   1     -34.745   1.804  -4.327  1.00 45.07 LIG 0.17  HD
ATOM     43 1HH2 ARG X   1     -35.658   1.159  -5.312  1.00 45.07 LIG 0.17  HD
ATOM     44 2HH1 ARG X   1     -32.766   0.803  -3.759  1.00 44.67 LIG 0.17  HD
ATOM     45 1HH1 ARG X   1     -32.381  -0.499  -4.371  1.00 44.67 LIG 0.17  HD
ENDBRANCH 36 37
ENDBRANCH 35 36
ENDBRANCH 34 35
ENDBRANCH 33 34
BRANCH 33 46
ATOM     46  N   ARG X   1     -30.693  -3.219  -4.679  1.00 53.50 LIG-0.07  N 
ATOM     47 H1   ARG X   1     -31.007  -3.703  -4.001  1.00 53.50 LIG 0.28  HD
ATOM     48 H3   ARG X   1     -31.066  -2.412  -4.665  1.00 53.50 LIG 0.28  HD
ATOM     49 H2   ARG X   1     -29.810  -3.139  -4.602  1.00 53.50 LIG 0.28  HD
ENDBRANCH 33 46
ENDBRANCH 31 33
ENDBRANCH 1 29
TORSDOF 16
ENDMDL
MODEL 8
USER: ADFR SOLUTION from run 60
USER: SCORE 14.417615 LL:  -2.132 LR: -14.079 RR:   0.000 FEB:  -9.306
USER: RMSD 2.849419
USER: SEED 59
USER: STATUS no improvement in best in 7 clusters for 5 generations
USER: GENES 18
USER: genes 0 Translation |==|  0.59960 0.47751 0.60475
USER: genes 1 Rotation |==|  0.51071 0.52172 0.51042 0.99930
USER: genes 2 Torsion [C]-CA--CB-[CG] |==|  0.81184
USER: genes 3 Torsion [CA]-CB--CG-[CD] |==|  0.44326
USER: genes 4 Torsion [CB]-CG--CD-[NE] |==|  0.12572
USER: genes 5 Torsion [CG]-CD--NE-[HE] |==|  0.07080
USER: genes 6 Torsion [N]-CA--C-[N] |==|  0.30697
USER: genes 7 Torsion [C]-N--CA-[CB] |==|  0.78280
USER: genes 8 Torsion [N]-CA--C-[N] |==|  0.22894
USER: genes 9 Torsion [C]-N--CA-[CB] |==|  0.84474
USER: genes 10 Torsion [N]-CA--C-[OXT] |==|  0.56835
USER: genes 11 Torsion [CB]-CA--N-[C] |==|  0.42398
USER: genes 12 Torsion [N]-C--CA-[N] |==|  0.47445
USER: genes 13 Torsion [C]-CA--CB-[CG] |==|  0.58803
USER: genes 14 Torsion [CA]-CB--CG-[CD] |==|  0.70642
USER: genes 15 Torsion [CB]-CG--CD-[NE] |==|  0.51102
USER: genes 16 Torsion [CG]-CD--NE-[HE] |==|  0.35273
USER: genes 17 Torsion [C]-CA--N-[H3] |==|  0.15993
ROOT
ATOM      1  CA  ARG X   2     -29.200  -6.389  -7.683  1.00 56.86 LIG 0.18  C 
ENDROOT
BRANCH 1 2
ATOM      2  CB  ARG X   2     -29.635  -7.857  -7.671  1.00 56.93 LIG 0.04  C 
BRANCH 2 3
ATOM      3  CG  ARG X   2     -31.072  -8.087  -8.114  1.00 58.33 LIG 0.02  C 
BRANCH 3 4
ATOM      4  CD  ARG X   2     -31.312  -9.509  -8.558  1.00 61.73 LIG 0.14  C 
BRANCH 4 5
ATOM      5  NE  ARG X   2     -30.736 -10.503  -7.653  1.00 63.99 LIG-0.23  N 
ATOM      6 HE   ARG X   2     -30.624 -10.276  -6.832  1.00 63.99 LIG 0.18  HD
ATOM      7  CZ  ARG X   2     -30.373 -11.737  -8.010  1.00 64.82 LIG 0.67  C 
ATOM      8  NH1 ARG X   2     -30.528 -12.167  -9.260  1.00 63.71 LIG-0.23  N 
ATOM      9  NH2 ARG X   2     -29.854 -12.552  -7.101  1.00 65.19 LIG-0.23  N 
ATOM     10 2HH1 ARG X   2     -30.288 -12.966  -9.473  1.00 63.71 LIG 0.17  HD
ATOM     11 1HH1 ARG X   2     -30.867 -11.647  -9.855  1.00 63.71 LIG 0.17  HD
ATOM     12 2HH2 ARG X   2     -29.617 -13.349  -7.323  1.00 65.19 LIG 0.17  HD
ATOM     13 1HH2 ARG X   2     -29.754 -12.284  -6.290  1.00 65.19 LIG 0.17  HD
ENDBRANCH 4 5
ENDBRANCH 3 4
ENDBRANCH 2 3
ENDBRANCH 1 2
BRANCH 1 14
ATOM     14  C   ARG X   2     -29.135  -5.866  -9.109  1.00 57.66 LIG 0.24  C 
ATOM     15  N   ALA X   3     -27.999  -5.270  -9.477  1.00 58.84 LIG-0.35  N 
ATOM     16 H    ALA X   3     -27.335  -5.142  -8.947  1.00 58.84 LIG 0.16  HD
ATOM     17 O    ARG X   2     -30.108  -6.003  -9.857  1.00 57.54 LIG-0.27  OA
BRANCH 15 18
ATOM     18  CA  ALA X   3     -27.782  -4.772 -10.842  1.00 60.16 LIG 0.17  C 
ATOM     19  CB  ALA X   3     -27.435  -5.920 -11.803  1.00 60.10 LIG 0.04  C 
BRANCH 18 20
ATOM     20  C   ALA X   3     -28.999  -3.990 -11.337  1.00 60.84 LIG 0.24  C 
ATOM     21  N   ALA X   4     -29.056  -2.716 -10.939  1.00 61.66 LIG-0.34  N 
ATOM     22 H    ALA X   4     -28.433  -2.354 -10.470  1.00 61.66 LIG 0.16  HD
ATOM     23 O    ALA X   3     -29.860  -4.536 -12.038  1.00 61.07 LIG-0.27  OA
BRANCH 21 24
ATOM     24  CA  ALA X   4     -30.161  -1.783 -11.241  1.00 62.39 LIG 0.18  C 
ATOM     25  CB  ALA X   4     -30.407  -1.673 -12.758  1.00 62.29 LIG 0.04  C 
BRANCH 24 26
ATOM     26  C   ALA X   4     -31.461  -2.083 -10.480  1.00 62.72 LIG 0.20  C 
ATOM     27 OXT  ALA X   4     -32.558  -1.723 -10.917  1.00 62.96 LIG-0.65  OA
ATOM     28 O    ALA X   4     -31.457  -2.683  -9.401  1.00 63.08 LIG-0.65  OA
ENDBRANCH 24 26
ENDBRANCH 21 24
ENDBRANCH 18 20
ENDBRANCH 15 18
ENDBRANCH 1 14
BRANCH 1 29
ATOM     29  N   ARG X   2     -30.139  -5.570  -6.925  1.00 55.62 LIG-0.35  N 
ATOM     30 H    ARG X   2     -30.939  -5.884  -6.899  1.00 55.62 LIG 0.16  HD
ATOM     31  C   ARG X   1     -29.769  -4.436  -6.331  1.00 54.36 LIG 0.25  C 
ATOM     32 O    ARG X   1     -28.607  -4.027  -6.330  1.00 54.20 LIG-0.27  OA
BRANCH 31 33
ATOM     33  CA  ARG X   1     -30.877  -3.640  -5.648  1.00 53.49 LIG 0.27  C 
BRANCH 33 34
ATOM     34  CB  ARG X   1     -31.849  -3.112  -6.709  1.00 53.17 LIG 0.04  C 
BRANCH 34 35
ATOM     35  CG  ARG X   1     -32.512  -1.782  -6.394  1.00 51.16 LIG 0.02  C 
BRANCH 35 36
ATOM     36  CD  ARG X   1     -33.960  -1.959  -6.001  1.00 48.38 LIG 0.14  C 
BRANCH 36 37
ATOM     37  NE  ARG X   1     -34.635  -0.681  -5.785  1.00 47.01 LIG-0.23  N 
ATOM     38 HE   ARG X   1     -35.368  -0.543  -6.213  1.00 47.01 LIG 0.18  HD
ATOM     39  CZ  ARG X   1     -34.202   0.288  -4.976  1.00 46.53 LIG 0.67  C 
ATOM     40  NH2 ARG X   1     -34.913   1.405  -4.851  1.00 45.07 LIG-0.23  N 
ATOM     41  NH1 ARG X   1     -33.072   0.151  -4.286  1.00 44.67 LIG-0.23  N 
ATOM     42 2HH2 ARG X   1     -34.639   2.033  -4.331  1.00 45.07 LIG 0.17  HD
ATOM     43 1HH2 ARG X   1     -35.646   1.499  -5.290  1.00 45.07 LIG 0.17  HD
ATOM     44 2HH1 ARG X   1     -32.805   0.784  -3.768  1.00 44.67 LIG 0.17  HD
ATOM     45 1HH1 ARG X   1     -32.609  -0.570  -4.358  1.00 44.67 LIG 0.17  HD
ENDBRANCH 36 37
ENDBRANCH 35 36
ENDBRANCH 34 35
ENDBRANCH 33 34
BRANCH 33 46
ATOM     46  N   ARG X   1     -30.322  -2.517  -4.835  1.00 53.50 LIG-0.07  N 
ATOM     47 H1   ARG X   1     -30.990  -2.050  -4.478  1.00 53.50 LIG 0.28  HD
ATOM     48 H3   ARG X   1     -29.835  -1.986  -5.356  1.00 53.50 LIG 0.28  HD
ATOM     49 H2   ARG X   1     -29.810  -2.846  -4.186  1.00 53.50 LIG 0.28  HD
ENDBRANCH 33 46
ENDBRANCH 31 33
ENDBRANCH 1 29
TORSDOF 16
ENDMDL
MODEL 9
USER: ADFR SOLUTION from run 18
USER: SCORE 13.726747 LL:  -1.648 LR: -13.876 RR:   0.000 FEB:  -9.103
USER: RMSD 2.966821
USER: SEED 17
USER: STATUS no improvement in best in 8 clusters for 5 generations
USER: GENES 18
USER: genes 0 Translation |==|  0.59092 0.45871 0.59668
USER: genes 1 Rotation |==|  0.49198 0.48181 0.48685 0.99943
USER: genes 2 Torsion [C]-CA--CB-[CG] |==|  0.79162
USER: genes 3 Torsion [CA]-CB--CG-[CD] |==|  0.50094
USER: genes 4 Torsion [CB]-CG--CD-[NE] |==|  0.78427
USER: genes 5 Torsion [CG]-CD--NE-[HE] |==|  0.84064
USER: genes 6 Torsion [N]-CA--C-[N] |==|  0.26639
USER: genes 7 Torsion [C]-N--CA-[CB] |==|  0.85243
USER: genes 8 Torsion [N]-CA--C-[N] |==|  0.40983
USER: genes 9 Torsion [C]-N--CA-[CB] |==|  0.26373
USER: genes 10 Torsion [N]-CA--C-[OXT] |==|  0.47626
USER: genes 11 Torsion [CB]-CA--N-[C] |==|  0.37451
USER: genes 12 Torsion [N]-C--CA-[N] |==|  0.44874
USER: genes 13 Torsion [C]-CA--CB-[CG] |==|  0.54541
USER: genes 14 Torsion [CA]-CB--CG-[CD] |==|  0.84556
USER: genes 15 Torsion [CB]-CG--CD-[NE] |==|  0.52071
USER: genes 16 Torsion [CG]-CD--NE-[HE] |==|  0.31446
USER: genes 17 Torsion [C]-CA--N-[H3] |==|  0.06619
ROOT
ATOM      1  CA  ARG X   2     -29.363  -6.840  -7.841  1.00 56.86 LIG 0.18  C 
ENDROOT
BRANCH 1 2
ATOM      2  CB  ARG X   2     -29.939  -8.258  -7.800  1.00 56.93 LIG 0.04  C 
BRANCH 2 3
ATOM      3  CG  ARG X   2     -31.374  -8.365  -8.293  1.00 58.33 LIG 0.02  C 
BRANCH 3 4
ATOM      4  CD  ARG X   2     -31.897  -9.779  -8.225  1.00 61.73 LIG 0.14  C 
BRANCH 4 5
ATOM      5  NE  ARG X   2     -31.411 -10.628  -9.312  1.00 63.99 LIG-0.23  N 
ATOM      6 HE   ARG X   2     -31.569 -10.373 -10.118  1.00 63.99 LIG 0.18  HD
ATOM      7  CZ  ARG X   2     -30.739 -11.769  -9.143  1.00 64.82 LIG 0.67  C 
ATOM      8  NH1 ARG X   2     -30.445 -12.224  -7.928  1.00 63.71 LIG-0.23  N 
ATOM      9  NH2 ARG X   2     -30.353 -12.462 -10.207  1.00 65.19 LIG-0.23  N 
ATOM     10 2HH1 ARG X   2     -30.012 -12.962  -7.837  1.00 63.71 LIG 0.17  HD
ATOM     11 1HH1 ARG X   2     -30.688 -11.779  -7.232  1.00 63.71 LIG 0.17  HD
ATOM     12 2HH2 ARG X   2     -29.921 -13.199 -10.107  1.00 65.19 LIG 0.17  HD
ATOM     13 1HH2 ARG X   2     -30.536 -12.174 -10.997  1.00 65.19 LIG 0.17  HD
ENDBRANCH 4 5
ENDBRANCH 3 4
ENDBRANCH 2 3
ENDBRANCH 1 2
BRANCH 1 14
ATOM     14  C   ARG X   2     -29.027  -6.444  -9.270  1.00 57.66 LIG 0.24  C 
ATOM     15  N   ALA X   3     -27.924  -5.713  -9.444  1.00 58.84 LIG-0.35  N 
ATOM     16 H    ALA X   3     -27.430  -5.435  -8.798  1.00 58.84 LIG 0.16  HD
ATOM     17 O    ARG X   2     -29.764  -6.800 -10.193  1.00 57.54 LIG-0.27  OA
BRANCH 15 18
ATOM     18  CA  ALA X   3     -27.452  -5.313 -10.777  1.00 60.16 LIG 0.17  C 
ATOM     19  CB  ALA X   3     -27.315  -6.530 -11.706  1.00 60.10 LIG 0.04  C 
BRANCH 18 20
ATOM     20  C   ALA X   3     -28.375  -4.257 -11.387  1.00 60.84 LIG 0.24  C 
ATOM     21  N   ALA X   4     -27.772  -3.367 -12.181  1.00 61.66 LIG-0.34  N 
ATOM     22 H    ALA X   4     -26.933  -3.410 -12.364  1.00 61.66 LIG 0.16  HD
ATOM     23 O    ALA X   3     -29.584  -4.246 -11.127  1.00 61.07 LIG-0.27  OA
BRANCH 21 24
ATOM     24  CA  ALA X   4     -28.443  -2.224 -12.833  1.00 62.39 LIG 0.18  C 
ATOM     25  CB  ALA X   4     -28.303  -0.937 -11.997  1.00 62.29 LIG 0.04  C 
BRANCH 24 26
ATOM     26  C   ALA X   4     -28.021  -1.996 -14.291  1.00 62.72 LIG 0.20  C 
ATOM     27 OXT  ALA X   4     -28.607  -1.181 -15.010  1.00 62.96 LIG-0.65  OA
ATOM     28 O    ALA X   4     -27.091  -2.626 -14.803  1.00 63.08 LIG-0.65  OA
ENDBRANCH 24 26
ENDBRANCH 21 24
ENDBRANCH 18 20
ENDBRANCH 15 18
ENDBRANCH 1 14
BRANCH 1 29
ATOM     29  N   ARG X   2     -30.322  -5.882  -7.301  1.00 55.62 LIG-0.35  N 
ATOM     30 H    ARG X   2     -31.126  -5.989  -7.587  1.00 55.62 LIG 0.16  HD
ATOM     31  C   ARG X   1     -29.962  -4.930  -6.441  1.00 54.36 LIG 0.25  C 
ATOM     32 O    ARG X   1     -28.817  -4.823  -5.998  1.00 54.20 LIG-0.27  OA
BRANCH 31 33
ATOM     33  CA  ARG X   1     -31.052  -3.946  -6.030  1.00 53.49 LIG 0.27  C 
BRANCH 33 34
ATOM     34  CB  ARG X   1     -31.297  -2.955  -7.174  1.00 53.17 LIG 0.04  C 
BRANCH 34 35
ATOM     35  CG  ARG X   1     -32.056  -1.692  -6.802  1.00 51.16 LIG 0.02  C 
BRANCH 35 36
ATOM     36  CD  ARG X   1     -33.386  -2.007  -6.160  1.00 48.38 LIG 0.14  C 
BRANCH 36 37
ATOM     37  NE  ARG X   1     -34.200  -0.811  -5.958  1.00 47.01 LIG-0.23  N 
ATOM     38 HE   ARG X   1     -34.925  -0.742  -6.416  1.00 47.01 LIG 0.18  HD
ATOM     39  CZ  ARG X   1     -33.908   0.183  -5.116  1.00 46.53 LIG 0.67  C 
ATOM     40  NH2 ARG X   1     -34.736   1.217  -5.008  1.00 45.07 LIG-0.23  N 
ATOM     41  NH1 ARG X   1     -32.801   0.151  -4.377  1.00 44.67 LIG-0.23  N 
ATOM     42 2HH2 ARG X   1     -34.553   1.860  -4.467  1.00 45.07 LIG 0.17  HD
ATOM     43 1HH2 ARG X   1     -35.455   1.242  -5.479  1.00 45.07 LIG 0.17  HD
ATOM     44 2HH1 ARG X   1     -32.625   0.798  -3.839  1.00 44.67 LIG 0.17  HD
ATOM     45 1HH1 ARG X   1     -32.262  -0.516  -4.438  1.00 44.67 LIG 0.17  HD
ENDBRANCH 36 37
ENDBRANCH 35 36
ENDBRANCH 34 35
ENDBRANCH 33 34
BRANCH 33 46
ATOM     46  N   ARG X   1     -30.693  -3.224  -4.773  1.00 53.50 LIG-0.07  N 
ATOM     47 H1   ARG X   1     -30.986  -2.385  -4.818  1.00 53.50 LIG 0.28  HD
ATOM     48 H3   ARG X   1     -29.809  -3.224  -4.674  1.00 53.50 LIG 0.28  HD
ATOM     49 H2   ARG X   1     -31.069  -3.633  -4.078  1.00 53.50 LIG 0.28  HD
ENDBRANCH 33 46
ENDBRANCH 31 33
ENDBRANCH 1 29
TORSDOF 16
ENDMDL
MODEL 10
USER: ADFR SOLUTION from run 35
USER: SCORE 14.082764 LL:  -1.728 LR: -13.778 RR:   0.000 FEB:  -9.005
USER: RMSD 1.634616
USER: SEED 34
USER: STATUS no improvement in best in 11 clusters for 5 generations
USER: GENES 18
USER: genes 0 Translation |==|  0.59072 0.45965 0.60290
USER: genes 1 Rotation |==|  0.50835 0.49238 0.49199 0.99981
USER: genes 2 Torsion [C]-CA--CB-[CG] |==|  0.81290
USER: genes 3 Torsion [CA]-CB--CG-[CD] |==|  0.51226
USER: genes 4 Torsion [CB]-CG--CD-[NE] |==|  0.76694
USER: genes 5 Torsion [CG]-CD--NE-[HE] |==|  0.83918
USER: genes 6 Torsion [N]-CA--C-[N] |==|  0.42878
USER: genes 7 Torsion [C]-N--CA-[CB] |==|  0.50961
USER: genes 8 Torsion [N]-CA--C-[N] |==|  0.42847
USER: genes 9 Torsion [C]-N--CA-[CB] |==|  0.20457
USER: genes 10 Torsion [N]-CA--C-[OXT] |==|  0.57727
USER: genes 11 Torsion [CB]-CA--N-[C] |==|  0.43889
USER: genes 12 Torsion [N]-C--CA-[N] |==|  0.39239
USER: genes 13 Torsion [C]-CA--CB-[CG] |==|  0.54965
USER: genes 14 Torsion [CA]-CB--CG-[CD] |==|  0.80960
USER: genes 15 Torsion [CB]-CG--CD-[NE] |==|  0.53008
USER: genes 16 Torsion [CG]-CD--NE-[HE] |==|  0.34875
USER: genes 17 Torsion [C]-CA--N-[H3] |==|  0.05706
ROOT
ATOM      1  CA  ARG X   2     -29.367  -6.817  -7.719  1.00 56.86 LIG 0.18  C 
ENDROOT
BRANCH 1 2
ATOM      2  CB  ARG X   2     -29.910  -8.249  -7.749  1.00 56.93 LIG 0.04  C 
BRANCH 2 3
ATOM      3  CG  ARG X   2     -31.296  -8.378  -8.362  1.00 58.33 LIG 0.02  C 
BRANCH 3 4
ATOM      4  CD  ARG X   2     -31.831  -9.786  -8.273  1.00 61.73 LIG 0.14  C 
BRANCH 4 5
ATOM      5  NE  ARG X   2     -31.366 -10.651  -9.356  1.00 63.99 LIG-0.23  N 
ATOM      6 HE   ARG X   2     -31.539 -10.407 -10.162  1.00 63.99 LIG 0.18  HD
ATOM      7  CZ  ARG X   2     -30.694 -11.792  -9.184  1.00 64.82 LIG 0.67  C 
ATOM      8  NH1 ARG X   2     -30.379 -12.230  -7.968  1.00 63.71 LIG-0.23  N 
ATOM      9  NH2 ARG X   2     -30.329 -12.500 -10.245  1.00 65.19 LIG-0.23  N 
ATOM     10 2HH1 ARG X   2     -29.945 -12.967  -7.875  1.00 63.71 LIG 0.17  HD
ATOM     11 1HH1 ARG X   2     -30.608 -11.775  -7.274  1.00 63.71 LIG 0.17  HD
ATOM     12 2HH2 ARG X   2     -29.896 -13.236 -10.142  1.00 65.19 LIG 0.17  HD
ATOM     13 1HH2 ARG X   2     -30.525 -12.223 -11.035  1.00 65.19 LIG 0.17  HD
ENDBRANCH 4 5
ENDBRANCH 3 4
ENDBRANCH 2 3
ENDBRANCH 1 2
BRANCH 1 14
ATOM     14  C   ARG X   2     -29.098  -6.321  -9.131  1.00 57.66 LIG 0.24  C 
ATOM     15  N   ALA X   3     -27.924  -6.655  -9.670  1.00 58.84 LIG-0.35  N 
ATOM     16 H    ALA X   3     -27.316  -7.097  -9.251  1.00 58.84 LIG 0.16  HD
ATOM     17 O    ARG X   2     -29.950  -5.644  -9.715  1.00 57.54 LIG-0.27  OA
BRANCH 15 18
ATOM     18  CA  ALA X   3     -27.561  -6.291 -11.046  1.00 60.16 LIG 0.17  C 
ATOM     19  CB  ALA X   3     -26.193  -6.875 -11.432  1.00 60.10 LIG 0.04  C 
BRANCH 18 20
ATOM     20  C   ALA X   3     -28.645  -6.734 -12.030  1.00 60.84 LIG 0.24  C 
ATOM     21  N   ALA X   4     -28.706  -6.026 -13.162  1.00 61.66 LIG-0.34  N 
ATOM     22 H    ALA X   4     -28.152  -5.393 -13.338  1.00 61.66 LIG 0.16  HD
ATOM     23 O    ALA X   3     -29.404  -7.671 -11.756  1.00 61.07 LIG-0.27  OA
BRANCH 21 24
ATOM     24  CA  ALA X   4     -29.704  -6.228 -14.233  1.00 62.39 LIG 0.18  C 
ATOM     25  CB  ALA X   4     -31.091  -5.700 -13.817  1.00 62.29 LIG 0.04  C 
BRANCH 24 26
ATOM     26  C   ALA X   4     -29.279  -5.675 -15.600  1.00 62.72 LIG 0.20  C 
ATOM     27 OXT  ALA X   4     -30.114  -5.302 -16.430  1.00 62.96 LIG-0.65  OA
ATOM     28 O    ALA X   4     -28.091  -5.595 -15.926  1.00 63.08 LIG-0.65  OA
ENDBRANCH 24 26
ENDBRANCH 21 24
ENDBRANCH 18 20
ENDBRANCH 15 18
ENDBRANCH 1 14
BRANCH 1 29
ATOM     29  N   ARG X   2     -30.322  -5.920  -7.080  1.00 55.62 LIG-0.35  N 
ATOM     30 H    ARG X   2     -31.132  -6.208  -7.082  1.00 55.62 LIG 0.16  HD
ATOM     31  C   ARG X   1     -29.951  -4.757  -6.545  1.00 54.36 LIG 0.25  C 
ATOM     32 O    ARG X   1     -28.778  -4.382  -6.501  1.00 54.20 LIG-0.27  OA
BRANCH 31 33
ATOM     33  CA  ARG X   1     -31.070  -3.882  -5.990  1.00 53.49 LIG 0.27  C 
BRANCH 33 34
ATOM     34  CB  ARG X   1     -31.480  -2.852  -7.048  1.00 53.17 LIG 0.04  C 
BRANCH 34 35
ATOM     35  CG  ARG X   1     -32.262  -1.654  -6.536  1.00 51.16 LIG 0.02  C 
BRANCH 35 36
ATOM     36  CD  ARG X   1     -33.643  -2.048  -6.066  1.00 48.38 LIG 0.14  C 
BRANCH 36 37
ATOM     37  NE  ARG X   1     -34.493  -0.887  -5.811  1.00 47.01 LIG-0.23  N 
ATOM     38 HE   ARG X   1     -35.252  -0.854  -6.213  1.00 47.01 LIG 0.18  HD
ATOM     39  CZ  ARG X   1     -34.182   0.128  -5.001  1.00 46.53 LIG 0.67  C 
ATOM     40  NH2 ARG X   1     -35.045   1.125  -4.838  1.00 45.07 LIG-0.23  N 
ATOM     41  NH1 ARG X   1     -33.022   0.153  -4.349  1.00 44.67 LIG-0.23  N 
ATOM     42 2HH2 ARG X   1     -34.850   1.782  -4.317  1.00 45.07 LIG 0.17  HD
ATOM     43 1HH2 ARG X   1     -35.798   1.114  -5.252  1.00 45.07 LIG 0.17  HD
ATOM     44 2HH1 ARG X   1     -32.834   0.814  -3.831  1.00 44.67 LIG 0.17  HD
ATOM     45 1HH1 ARG X   1     -32.459  -0.490  -4.447  1.00 44.67 LIG 0.17  HD
ENDBRANCH 36 37
ENDBRANCH 35 36
ENDBRANCH 34 35
ENDBRANCH 33 34
BRANCH 33 46
ATOM     46  N   ARG X   1     -30.659  -3.204  -4.724  1.00 53.50 LIG-0.07  N 
ATOM     47 H1   ARG X   1     -30.974  -2.372  -4.717  1.00 53.50 LIG 0.28  HD
ATOM     48 H3   ARG X   1     -29.771  -3.185  -4.673  1.00 53.50 LIG 0.28  HD
ATOM     49 H2   ARG X   1     -30.985  -3.652  -4.028  1.00 53.50 LIG 0.28  HD
ENDBRANCH 33 46
ENDBRANCH 31 33
ENDBRANCH 1 29
TORSDOF 16
ENDMDL
MODEL 11
USER: ADFR SOLUTION from run 87
USER: SCORE 14.327798 LL:  -2.797 LR: -13.744 RR:   0.000 FEB:  -8.972
USER: RMSD 3.893489
USER: SEED 86
USER: STATUS no improvement in best in 11 clusters for 5 generations
USER: GENES 18
USER: genes 0 Translation |==|  0.59419 0.47618 0.58289
USER: genes 1 Rotation |==|  0.52870 0.49425 0.49846 0.99914
USER: genes 2 Torsion [C]-CA--CB-[CG] |==|  0.16888
USER: genes 3 Torsion [CA]-CB--CG-[CD] |==|  0.76552
USER: genes 4 Torsion [CB]-CG--CD-[NE] |==|  0.35008
USER: genes 5 Torsion [CG]-CD--NE-[HE] |==|  0.90202
USER: genes 6 Torsion [N]-CA--C-[N] |==|  0.37509
USER: genes 7 Torsion [C]-N--CA-[CB] |==|  0.22459
USER: genes 8 Torsion [N]-CA--C-[N] |==|  0.56222
USER: genes 9 Torsion [C]-N--CA-[CB] |==|  0.82546
USER: genes 10 Torsion [N]-CA--C-[OXT] |==|  0.55181
USER: genes 11 Torsion [CB]-CA--N-[C] |==|  0.42778
USER: genes 12 Torsion [N]-C--CA-[N] |==|  0.41075
USER: genes 13 Torsion [C]-CA--CB-[CG] |==|  0.54458
USER: genes 14 Torsion [CA]-CB--CG-[CD] |==|  0.81677
USER: genes 15 Torsion [CB]-CG--CD-[NE] |==|  0.52929
USER: genes 16 Torsion [CG]-CD--NE-[HE] |==|  0.35091
USER: genes 17 Torsion [C]-CA--N-[H3] |==|  0.39869
ROOT
ATOM      1  CA  ARG X   2     -29.302  -6.421  -8.110  1.00 56.86 LIG 0.18  C 
ENDROOT
BRANCH 1 2
ATOM      2  CB  ARG X   2     -29.807  -7.859  -8.253  1.00 56.93 LIG 0.04  C 
BRANCH 2 3
ATOM      3  CG  ARG X   2     -28.838  -8.794  -8.962  1.00 58.33 LIG 0.02  C 
BRANCH 3 4
ATOM      4  CD  ARG X   2     -28.965  -8.717 -10.463  1.00 61.73 LIG 0.14  C 
BRANCH 4 5
ATOM      5  NE  ARG X   2     -27.698  -8.438 -11.137  1.00 63.99 LIG-0.23  N 
ATOM      6 HE   ARG X   2     -27.143  -7.914 -10.742  1.00 63.99 LIG 0.18  HD
ATOM      7  CZ  ARG X   2     -27.340  -8.939 -12.322  1.00 64.82 LIG 0.67  C 
ATOM      8  NH1 ARG X   2     -28.139  -9.767 -12.991  1.00 63.71 LIG-0.23  N 
ATOM      9  NH2 ARG X   2     -26.164  -8.609 -12.841  1.00 65.19 LIG-0.23  N 
ATOM     10 2HH1 ARG X   2     -27.892 -10.080 -13.753  1.00 63.71 LIG 0.17  HD
ATOM     11 1HH1 ARG X   2     -28.901  -9.990 -12.660  1.00 63.71 LIG 0.17  HD
ATOM     12 2HH2 ARG X   2     -25.927  -8.927 -13.605  1.00 65.19 LIG 0.17  HD
ATOM     13 1HH2 ARG X   2     -25.640  -8.077 -12.415  1.00 65.19 LIG 0.17  HD
ENDBRANCH 4 5
ENDBRANCH 3 4
ENDBRANCH 2 3
ENDBRANCH 1 2
BRANCH 1 14
ATOM     14  C   ARG X   2     -29.056  -5.805  -9.478  1.00 57.66 LIG 0.24  C 
ATOM     15  N   ALA X   3     -27.785  -5.713  -9.873  1.00 58.84 LIG-0.35  N 
ATOM     16 H    ALA X   3     -27.117  -5.948  -9.387  1.00 58.84 LIG 0.16  HD
ATOM     17 O    ARG X   2     -30.013  -5.420 -10.157  1.00 57.54 LIG-0.27  OA
BRANCH 15 18
ATOM     18  CA  ALA X   3     -27.412  -5.192 -11.195  1.00 60.16 LIG 0.17  C 
ATOM     19  CB  ALA X   3     -27.419  -3.655 -11.209  1.00 60.10 LIG 0.04  C 
BRANCH 18 20
ATOM     20  C   ALA X   3     -26.053  -5.739 -11.633  1.00 60.84 LIG 0.24  C 
ATOM     21  N   ALA X   4     -25.414  -5.007 -12.550  1.00 61.66 LIG-0.34  N 
ATOM     22 H    ALA X   4     -25.729  -4.263 -12.843  1.00 61.66 LIG 0.16  HD
ATOM     23 O    ALA X   3     -25.616  -6.798 -11.164  1.00 61.07 LIG-0.27  OA
BRANCH 21 24
ATOM     24  CA  ALA X   4     -24.120  -5.363 -13.166  1.00 62.39 LIG 0.18  C 
ATOM     25  CB  ALA X   4     -22.993  -5.421 -12.116  1.00 62.29 LIG 0.04  C 
BRANCH 24 26
ATOM     26  C   ALA X   4     -24.160  -6.639 -14.019  1.00 62.72 LIG 0.20  C 
ATOM     27 OXT  ALA X   4     -23.127  -7.249 -14.312  1.00 62.96 LIG-0.65  OA
ATOM     28 O    ALA X   4     -25.222  -7.096 -14.453  1.00 63.08 LIG-0.65  OA
ENDBRANCH 24 26
ENDBRANCH 21 24
ENDBRANCH 18 20
ENDBRANCH 15 18
ENDBRANCH 1 14
BRANCH 1 29
ATOM     29  N   ARG X   2     -30.276  -5.605  -7.395  1.00 55.62 LIG-0.35  N 
ATOM     30 H    ARG X   2     -31.087  -5.884  -7.462  1.00 55.62 LIG 0.16  HD
ATOM     31  C   ARG X   1     -29.921  -4.522  -6.704  1.00 54.36 LIG 0.25  C 
ATOM     32 O    ARG X   1     -28.749  -4.164  -6.572  1.00 54.20 LIG-0.27  OA
BRANCH 31 33
ATOM     33  CA  ARG X   1     -31.057  -3.716  -6.082  1.00 53.49 LIG 0.27  C 
BRANCH 33 34
ATOM     34  CB  ARG X   1     -31.537  -2.660  -7.084  1.00 53.17 LIG 0.04  C 
BRANCH 34 35
ATOM     35  CG  ARG X   1     -32.386  -1.540  -6.507  1.00 51.16 LIG 0.02  C 
BRANCH 35 36
ATOM     36  CD  ARG X   1     -33.712  -2.051  -5.994  1.00 48.38 LIG 0.14  C 
BRANCH 36 37
ATOM     37  NE  ARG X   1     -34.634  -0.965  -5.665  1.00 47.01 LIG-0.23  N 
ATOM     38 HE   ARG X   1     -35.414  -0.984  -6.027  1.00 47.01 LIG 0.18  HD
ATOM     39  CZ  ARG X   1     -34.359   0.053  -4.847  1.00 46.53 LIG 0.67  C 
ATOM     40  NH2 ARG X   1     -35.287   0.976  -4.614  1.00 45.07 LIG-0.23  N 
ATOM     41  NH1 ARG X   1     -33.171   0.156  -4.256  1.00 44.67 LIG-0.23  N 
ATOM     42 2HH2 ARG X   1     -35.116   1.634  -4.088  1.00 45.07 LIG 0.17  HD
ATOM     43 1HH2 ARG X   1     -36.058   0.915  -4.989  1.00 45.07 LIG 0.17  HD
ATOM     44 2HH1 ARG X   1     -33.007   0.817  -3.732  1.00 44.67 LIG 0.17  HD
ATOM     45 1HH1 ARG X   1     -32.567  -0.439  -4.399  1.00 44.67 LIG 0.17  HD
ENDBRANCH 36 37
ENDBRANCH 35 36
ENDBRANCH 34 35
ENDBRANCH 33 34
BRANCH 33 46
ATOM     46  N   ARG X   1     -30.635  -3.075  -4.800  1.00 53.50 LIG-0.07  N 
ATOM     47 H1   ARG X   1     -30.886  -3.586  -4.116  1.00 53.50 LIG 0.28  HD
ATOM     48 H3   ARG X   1     -31.017  -2.275  -4.729  1.00 53.50 LIG 0.28  HD
ATOM     49 H2   ARG X   1     -29.750  -2.983  -4.792  1.00 53.50 LIG 0.28  HD
ENDBRANCH 33 46
ENDBRANCH 31 33
ENDBRANCH 1 29
TORSDOF 16
ENDMDL
MODEL 12
USER: ADFR SOLUTION from run 33
USER: SCORE 13.771579 LL:  -2.374 LR: -13.734 RR:   0.000 FEB:  -8.961
USER: RMSD 2.967891
USER: SEED 32
USER: STATUS no improvement in best in 23 clusters for 5 generations
USER: GENES 18
USER: genes 0 Translation |==|  0.60022 0.46313 0.60602
USER: genes 1 Rotation |==|  0.46501 0.50634 0.44726 0.99594
USER: genes 2 Torsion [C]-CA--CB-[CG] |==|  0.18012
USER: genes 3 Torsion [CA]-CB--CG-[CD] |==|  0.70833
USER: genes 4 Torsion [CB]-CG--CD-[NE] |==|  0.80724
USER: genes 5 Torsion [CG]-CD--NE-[HE] |==|  0.75935
USER: genes 6 Torsion [N]-CA--C-[N] |==|  0.22340
USER: genes 7 Torsion [C]-N--CA-[CB] |==|  0.47351
USER: genes 8 Torsion [N]-CA--C-[N] |==|  0.43270
USER: genes 9 Torsion [C]-N--CA-[CB] |==|  0.20187
USER: genes 10 Torsion [N]-CA--C-[OXT] |==|  0.47124
USER: genes 11 Torsion [CB]-CA--N-[C] |==|  0.43236
USER: genes 12 Torsion [N]-C--CA-[N] |==|  0.16083
USER: genes 13 Torsion [C]-CA--CB-[CG] |==|  0.41531
USER: genes 14 Torsion [CA]-CB--CG-[CD] |==|  0.38005
USER: genes 15 Torsion [CB]-CG--CD-[NE] |==|  0.80890
USER: genes 16 Torsion [CG]-CD--NE-[HE] |==|  0.14540
USER: genes 17 Torsion [C]-CA--N-[H3] |==|  0.13428
ROOT
ATOM      1  CA  ARG X   2     -29.189  -6.734  -7.659  1.00 56.86 LIG 0.18  C 
ENDROOT
BRANCH 1 2
ATOM      2  CB  ARG X   2     -29.974  -8.026  -7.415  1.00 56.93 LIG 0.04  C 
BRANCH 2 3
ATOM      3  CG  ARG X   2     -29.229  -9.293  -7.807  1.00 58.33 LIG 0.02  C 
BRANCH 3 4
ATOM      4  CD  ARG X   2     -29.750  -9.888  -9.092  1.00 61.73 LIG 0.14  C 
BRANCH 4 5
ATOM      5  NE  ARG X   2     -31.092 -10.454  -8.965  1.00 63.99 LIG-0.23  N 
ATOM      6 HE   ARG X   2     -31.157 -11.268  -8.698  1.00 63.99 LIG 0.18  HD
ATOM      7  CZ  ARG X   2     -32.223  -9.797  -9.233  1.00 64.82 LIG 0.67  C 
ATOM      8  NH1 ARG X   2     -32.205  -8.529  -9.638  1.00 63.71 LIG-0.23  N 
ATOM      9  NH2 ARG X   2     -33.387 -10.417  -9.087  1.00 65.19 LIG-0.23  N 
ATOM     10 2HH1 ARG X   2     -32.944  -8.121  -9.807  1.00 63.71 LIG 0.17  HD
ATOM     11 1HH1 ARG X   2     -31.456  -8.118  -9.731  1.00 63.71 LIG 0.17  HD
ATOM     12 2HH2 ARG X   2     -34.120 -10.001  -9.258  1.00 65.19 LIG 0.17  HD
ATOM     13 1HH2 ARG X   2     -33.408 -11.235  -8.822  1.00 65.19 LIG 0.17  HD
ENDBRANCH 4 5
ENDBRANCH 3 4
ENDBRANCH 2 3
ENDBRANCH 1 2
BRANCH 1 14
ATOM     14  C   ARG X   2     -28.946  -6.532  -9.146  1.00 57.66 LIG 0.24  C 
ATOM     15  N   ALA X   3     -27.929  -5.738  -9.484  1.00 58.84 LIG-0.35  N 
ATOM     16 H    ALA X   3     -27.440  -5.321  -8.913  1.00 58.84 LIG 0.16  HD
ATOM     17 O    ARG X   2     -29.679  -7.091  -9.967  1.00 57.54 LIG-0.27  OA
BRANCH 15 18
ATOM     18  CA  ALA X   3     -27.549  -5.505 -10.884  1.00 60.16 LIG 0.17  C 
ATOM     19  CB  ALA X   3     -26.509  -4.379 -10.996  1.00 60.10 LIG 0.04  C 
BRANCH 18 20
ATOM     20  C   ALA X   3     -27.037  -6.792 -11.532  1.00 60.84 LIG 0.24  C 
ATOM     21  N   ALA X   4     -27.144  -6.839 -12.863  1.00 61.66 LIG-0.34  N 
ATOM     22 H    ALA X   4     -27.444  -6.177 -13.322  1.00 61.66 LIG 0.16  HD
ATOM     23 O    ALA X   3     -26.581  -7.711 -10.840  1.00 61.07 LIG-0.27  OA
BRANCH 21 24
ATOM     24  CA  ALA X   4     -26.773  -7.998 -13.701  1.00 62.39 LIG 0.18  C 
ATOM     25  CB  ALA X   4     -27.786  -9.149 -13.551  1.00 62.29 LIG 0.04  C 
BRANCH 24 26
ATOM     26  C   ALA X   4     -26.528  -7.653 -15.177  1.00 62.72 LIG 0.20  C 
ATOM     27 OXT  ALA X   4     -26.031  -8.473 -15.954  1.00 62.96 LIG-0.65  OA
ATOM     28 O    ALA X   4     -26.806  -6.542 -15.638  1.00 63.08 LIG-0.65  OA
ENDBRANCH 24 26
ENDBRANCH 21 24
ENDBRANCH 18 20
ENDBRANCH 15 18
ENDBRANCH 1 14
BRANCH 1 29
ATOM     29  N   ARG X   2     -29.921  -5.584  -7.142  1.00 55.62 LIG-0.35  N 
ATOM     30 H    ARG X   2     -30.771  -5.703  -7.087  1.00 55.62 LIG 0.16  HD
ATOM     31  C   ARG X   1     -29.308  -4.454  -6.791  1.00 54.36 LIG 0.25  C 
ATOM     32 O    ARG X   1     -28.084  -4.316  -6.824  1.00 54.20 LIG-0.27  OA
BRANCH 31 33
ATOM     33  CA  ARG X   1     -30.210  -3.305  -6.351  1.00 53.49 LIG 0.27  C 
BRANCH 33 34
ATOM     34  CB  ARG X   1     -29.346  -2.089  -6.001  1.00 53.17 LIG 0.04  C 
BRANCH 34 35
ATOM     35  CG  ARG X   1     -29.987  -0.732  -6.242  1.00 51.16 LIG 0.02  C 
BRANCH 35 36
ATOM     36  CD  ARG X   1     -29.725   0.220  -5.099  1.00 48.38 LIG 0.14  C 
BRANCH 36 37
ATOM     37  NE  ARG X   1     -30.426  -0.174  -3.879  1.00 47.01 LIG-0.23  N 
ATOM     38 HE   ARG X   1     -30.318  -0.982  -3.603  1.00 47.01 LIG 0.18  HD
ATOM     39  CZ  ARG X   1     -31.221   0.621  -3.159  1.00 46.53 LIG 0.67  C 
ATOM     40  NH2 ARG X   1     -31.794   0.151  -2.056  1.00 45.07 LIG-0.23  N 
ATOM     41  NH1 ARG X   1     -31.443   1.881  -3.526  1.00 44.67 LIG-0.23  N 
ATOM     42 2HH2 ARG X   1     -32.307   0.659  -1.588  1.00 45.07 LIG 0.17  HD
ATOM     43 1HH2 ARG X   1     -31.653  -0.661  -1.810  1.00 45.07 LIG 0.17  HD
ATOM     44 2HH1 ARG X   1     -31.958   2.382  -3.053  1.00 44.67 LIG 0.17  HD
ATOM     45 1HH1 ARG X   1     -31.073   2.194  -4.236  1.00 44.67 LIG 0.17  HD
ENDBRANCH 36 37
ENDBRANCH 35 36
ENDBRANCH 34 35
ENDBRANCH 33 34
BRANCH 33 46
ATOM     46  N   ARG X   1     -31.067  -3.695  -5.192  1.00 53.50 LIG-0.07  N 
ATOM     47 H1   ARG X   1     -31.454  -2.970  -4.851  1.00 53.50 LIG 0.28  HD
ATOM     48 H3   ARG X   1     -30.565  -4.084  -4.569  1.00 53.50 LIG 0.28  HD
ATOM     49 H2   ARG X   1     -31.694  -4.265  -5.465  1.00 53.50 LIG 0.28  HD
ENDBRANCH 33 46
ENDBRANCH 31 33
ENDBRANCH 1 29
TORSDOF 16
ENDMDL
MODEL 13
USER: ADFR SOLUTION from run 35
USER: SCORE 14.760436 LL:  -3.138 LR: -13.438 RR:   0.000 FEB:  -8.665
USER: RMSD 1.917464
USER: SEED 34
USER: STATUS no improvement in best in 11 clusters for 5 generations
USER: GENES 18
USER: genes 0 Translation |==|  0.59164 0.45733 0.60872
USER: genes 1 Rotation |==|  0.49733 0.48724 0.49086 0.99975
USER: genes 2 Torsion [C]-CA--CB-[CG] |==|  0.85422
USER: genes 3 Torsion [CA]-CB--CG-[CD] |==|  0.53712
USER: genes 4 Torsion [CB]-CG--CD-[NE] |==|  0.95010
USER: genes 5 Torsion [CG]-CD--NE-[HE] |==|  0.21722
USER: genes 6 Torsion [N]-CA--C-[N] |==|  0.91746
USER: genes 7 Torsion [C]-N--CA-[CB] |==|  0.80555
USER: genes 8 Torsion [N]-CA--C-[N] |==|  0.06617
USER: genes 9 Torsion [C]-N--CA-[CB] |==|  0.15918
USER: genes 10 Torsion [N]-CA--C-[OXT] |==|  0.51490
USER: genes 11 Torsion [CB]-CA--N-[C] |==|  0.42551
USER: genes 12 Torsion [N]-C--CA-[N] |==|  0.39686
USER: genes 13 Torsion [C]-CA--CB-[CG] |==|  0.54627
USER: genes 14 Torsion [CA]-CB--CG-[CD] |==|  0.83196
USER: genes 15 Torsion [CB]-CG--CD-[NE] |==|  0.52726
USER: genes 16 Torsion [CG]-CD--NE-[HE] |==|  0.32947
USER: genes 17 Torsion [C]-CA--N-[H3] |==|  0.05972
ROOT
ATOM      1  CA  ARG X   2     -29.350  -6.873  -7.606  1.00 56.86 LIG 0.18  C 
ENDROOT
BRANCH 1 2
ATOM      2  CB  ARG X   2     -29.901  -8.302  -7.583  1.00 56.93 LIG 0.04  C 
BRANCH 2 3
ATOM      3  CG  ARG X   2     -31.084  -8.529  -8.511  1.00 58.33 LIG 0.02  C 
BRANCH 3 4
ATOM      4  CD  ARG X   2     -31.791  -9.832  -8.226  1.00 61.73 LIG 0.14  C 
BRANCH 4 5
ATOM      5  NE  ARG X   2     -30.984 -10.769  -7.446  1.00 63.99 LIG-0.23  N 
ATOM      6 HE   ARG X   2     -30.924 -10.633  -6.599  1.00 63.99 LIG 0.18  HD
ATOM      7  CZ  ARG X   2     -30.335 -11.819  -7.953  1.00 64.82 LIG 0.67  C 
ATOM      8  NH1 ARG X   2     -30.390 -12.103  -9.252  1.00 63.71 LIG-0.23  N 
ATOM      9  NH2 ARG X   2     -29.625 -12.598  -7.147  1.00 65.19 LIG-0.23  N 
ATOM     10 2HH1 ARG X   2     -29.965 -12.784  -9.562  1.00 63.71 LIG 0.17  HD
ATOM     11 1HH1 ARG X   2     -30.851 -11.606  -9.782  1.00 63.71 LIG 0.17  HD
ATOM     12 2HH2 ARG X   2     -29.204 -13.277  -7.466  1.00 65.19 LIG 0.17  HD
ATOM     13 1HH2 ARG X   2     -29.587 -12.425  -6.305  1.00 65.19 LIG 0.17  HD
ENDBRANCH 4 5
ENDBRANCH 3 4
ENDBRANCH 2 3
ENDBRANCH 1 2
BRANCH 1 14
ATOM     14  C   ARG X   2     -29.050  -6.442  -9.033  1.00 57.66 LIG 0.24  C 
ATOM     15  N   ALA X   3     -30.029  -5.812  -9.686  1.00 58.84 LIG-0.35  N 
ATOM     16 H    ALA X   3     -30.811  -5.674  -9.355  1.00 58.84 LIG 0.16  HD
ATOM     17 O    ARG X   2     -27.945  -6.683  -9.526  1.00 57.54 LIG-0.27  OA
BRANCH 15 18
ATOM     18  CA  ALA X   3     -29.853  -5.290 -11.048  1.00 60.16 LIG 0.17  C 
ATOM     19  CB  ALA X   3     -28.905  -4.081 -11.061  1.00 60.10 LIG 0.04  C 
BRANCH 18 20
ATOM     20  C   ALA X   3     -29.359  -6.387 -11.992  1.00 60.84 LIG 0.24  C 
ATOM     21  N   ALA X   4     -29.643  -7.636 -11.609  1.00 61.66 LIG-0.34  N 
ATOM     22 H    ALA X   4     -30.104  -7.806 -10.903  1.00 61.66 LIG 0.16  HD
ATOM     23 O    ALA X   3     -28.727  -6.103 -13.016  1.00 61.07 LIG-0.27  OA
BRANCH 21 24
ATOM     24  CA  ALA X   4     -29.220  -8.857 -12.325  1.00 62.39 LIG 0.18  C 
ATOM     25  CB  ALA X   4     -27.688  -8.917 -12.477  1.00 62.29 LIG 0.04  C 
BRANCH 24 26
ATOM     26  C   ALA X   4     -29.778 -10.158 -11.732  1.00 62.72 LIG 0.20  C 
ATOM     27 OXT  ALA X   4     -29.432 -11.262 -12.165  1.00 62.96 LIG-0.65  OA
ATOM     28 O    ALA X   4     -30.601 -10.151 -10.812  1.00 63.08 LIG-0.65  OA
ENDBRANCH 24 26
ENDBRANCH 21 24
ENDBRANCH 18 20
ENDBRANCH 15 18
ENDBRANCH 1 14
BRANCH 1 29
ATOM     29  N   ARG X   2     -30.312  -5.943  -7.026  1.00 55.62 LIG-0.35  N 
ATOM     30 H    ARG X   2     -31.130  -6.198  -7.090  1.00 55.62 LIG 0.16  HD
ATOM     31  C   ARG X   1     -29.934  -4.802  -6.451  1.00 54.36 LIG 0.25  C 
ATOM     32 O    ARG X   1     -28.753  -4.475  -6.318  1.00 54.20 LIG-0.27  OA
BRANCH 31 33
ATOM     33  CA  ARG X   1     -31.054  -3.887  -5.967  1.00 53.49 LIG 0.27  C 
BRANCH 33 34
ATOM     34  CB  ARG X   1     -31.372  -2.856  -7.056  1.00 53.17 LIG 0.04  C 
BRANCH 34 35
ATOM     35  CG  ARG X   1     -32.169  -1.643  -6.605  1.00 51.16 LIG 0.02  C 
BRANCH 35 36
ATOM     36  CD  ARG X   1     -33.517  -2.035  -6.049  1.00 48.38 LIG 0.14  C 
BRANCH 36 37
ATOM     37  NE  ARG X   1     -34.381  -0.878  -5.825  1.00 47.01 LIG-0.23  N 
ATOM     38 HE   ARG X   1     -35.120  -0.844  -6.265  1.00 47.01 LIG 0.18  HD
ATOM     39  CZ  ARG X   1     -34.114   0.129  -4.992  1.00 46.53 LIG 0.67  C 
ATOM     40  NH2 ARG X   1     -34.987   1.123  -4.862  1.00 45.07 LIG-0.23  N 
ATOM     41  NH1 ARG X   1     -32.988   0.151  -4.282  1.00 44.67 LIG-0.23  N 
ATOM     42 2HH2 ARG X   1     -34.821   1.775  -4.327  1.00 45.07 LIG 0.17  HD
ATOM     43 1HH2 ARG X   1     -35.719   1.114  -5.314  1.00 45.07 LIG 0.17  HD
ATOM     44 2HH1 ARG X   1     -32.829   0.807  -3.749  1.00 44.67 LIG 0.17  HD
ATOM     45 1HH1 ARG X   1     -32.420  -0.490  -4.357  1.00 44.67 LIG 0.17  HD
ENDBRANCH 36 37
ENDBRANCH 35 36
ENDBRANCH 34 35
ENDBRANCH 33 34
BRANCH 33 46
ATOM     46  N   ARG X   1     -30.693  -3.209  -4.687  1.00 53.50 LIG-0.07  N 
ATOM     47 H1   ARG X   1     -30.995  -2.372  -4.699  1.00 53.50 LIG 0.28  HD
ATOM     48 H3   ARG X   1     -29.808  -3.204  -4.593  1.00 53.50 LIG 0.28  HD
ATOM     49 H2   ARG X   1     -31.061  -3.647  -4.005  1.00 53.50 LIG 0.28  HD
ENDBRANCH 33 46
ENDBRANCH 31 33
ENDBRANCH 1 29
TORSDOF 16
ENDMDL
MODEL 14
USER: ADFR SOLUTION from run 69
USER: SCORE 14.387522 LL:  -2.375 LR: -13.379 RR:   0.000 FEB:  -8.606
USER: RMSD 2.395853
USER: SEED 68
USER: STATUS searching
USER: GENES 18
USER: genes 0 Translation |==|  0.62459 0.48082 0.58750
USER: genes 1 Rotation |==|  0.38547 0.57384 0.59229 0.97214
USER: genes 2 Torsion [C]-CA--CB-[CG] |==|  0.80658
USER: genes 3 Torsion [CA]-CB--CG-[CD] |==|  0.27012
USER: genes 4 Torsion [CB]-CG--CD-[NE] |==|  0.75086
USER: genes 5 Torsion [CG]-CD--NE-[HE] |==|  0.28477
USER: genes 6 Torsion [N]-CA--C-[N] |==|  0.42239
USER: genes 7 Torsion [C]-N--CA-[CB] |==|  0.77998
USER: genes 8 Torsion [N]-CA--C-[N] |==|  0.21798
USER: genes 9 Torsion [C]-N--CA-[CB] |==|  0.87125
USER: genes 10 Torsion [N]-CA--C-[OXT] |==|  0.46542
USER: genes 11 Torsion [CB]-CA--N-[C] |==|  0.27749
USER: genes 12 Torsion [N]-C--CA-[N] |==|  0.42238
USER: genes 13 Torsion [C]-CA--CB-[CG] |==|  0.55023
USER: genes 14 Torsion [CA]-CB--CG-[CD] |==|  0.86223
USER: genes 15 Torsion [CB]-CG--CD-[NE] |==|  0.51916
USER: genes 16 Torsion [CG]-CD--NE-[HE] |==|  0.33024
USER: genes 17 Torsion [C]-CA--N-[H3] |==|  0.05972
ROOT
ATOM      1  CA  ARG X   2     -28.732  -6.309  -8.020  1.00 56.86 LIG 0.18  C 
ENDROOT
BRANCH 1 2
ATOM      2  CB  ARG X   2     -28.564  -7.630  -7.263  1.00 56.93 LIG 0.04  C 
BRANCH 2 3
ATOM      3  CG  ARG X   2     -29.847  -8.433  -7.115  1.00 58.33 LIG 0.02  C 
BRANCH 3 4
ATOM      4  CD  ARG X   2     -29.972  -9.509  -8.165  1.00 61.73 LIG 0.14  C 
BRANCH 4 5
ATOM      5  NE  ARG X   2     -30.647  -9.055  -9.380  1.00 63.99 LIG-0.23  N 
ATOM      6 HE   ARG X   2     -30.159  -8.877 -10.064  1.00 63.99 LIG 0.18  HD
ATOM      7  CZ  ARG X   2     -31.968  -8.897  -9.503  1.00 64.82 LIG 0.67  C 
ATOM      8  NH1 ARG X   2     -32.791  -9.165  -8.493  1.00 63.71 LIG-0.23  N 
ATOM      9  NH2 ARG X   2     -32.469  -8.472 -10.655  1.00 65.19 LIG-0.23  N 
ATOM     10 2HH1 ARG X   2     -33.639  -9.057  -8.589  1.00 63.71 LIG 0.17  HD
ATOM     11 1HH1 ARG X   2     -32.476  -9.445  -7.743  1.00 63.71 LIG 0.17  HD
ATOM     12 2HH2 ARG X   2     -33.318  -8.367 -10.743  1.00 65.19 LIG 0.17  HD
ATOM     13 1HH2 ARG X   2     -31.944  -8.300 -11.315  1.00 65.19 LIG 0.17  HD
ENDBRANCH 4 5
ENDBRANCH 3 4
ENDBRANCH 2 3
ENDBRANCH 1 2
BRANCH 1 14
ATOM     14  C   ARG X   2     -29.014  -6.572  -9.490  1.00 57.66 LIG 0.24  C 
ATOM     15  N   ALA X   3     -27.953  -6.732 -10.284  1.00 58.84 LIG-0.35  N 
ATOM     16 H    ALA X   3     -27.141  -6.660 -10.013  1.00 58.84 LIG 0.16  HD
ATOM     17 O    ARG X   2     -30.181  -6.626  -9.890  1.00 57.54 LIG-0.27  OA
BRANCH 15 18
ATOM     18  CA  ALA X   3     -28.085  -7.049 -11.712  1.00 60.16 LIG 0.17  C 
ATOM     19  CB  ALA X   3     -28.381  -8.542 -11.925  1.00 60.10 LIG 0.04  C 
BRANCH 18 20
ATOM     20  C   ALA X   3     -29.156  -6.177 -12.368  1.00 60.84 LIG 0.24  C 
ATOM     21  N   ALA X   4     -28.775  -4.929 -12.656  1.00 61.66 LIG-0.34  N 
ATOM     22 H    ALA X   4     -27.973  -4.651 -12.517  1.00 61.66 LIG 0.16  HD
ATOM     23 O    ALA X   3     -30.290  -6.623 -12.584  1.00 61.07 LIG-0.27  OA
BRANCH 21 24
ATOM     24  CA  ALA X   4     -29.650  -3.890 -13.236  1.00 62.39 LIG 0.18  C 
ATOM     25  CB  ALA X   4     -30.466  -4.438 -14.423  1.00 62.29 LIG 0.04  C 
BRANCH 24 26
ATOM     26  C   ALA X   4     -30.550  -3.184 -12.212  1.00 62.72 LIG 0.20  C 
ATOM     27 OXT  ALA X   4     -31.163  -2.151 -12.500  1.00 62.96 LIG-0.65  OA
ATOM     28 O    ALA X   4     -30.686  -3.614 -11.063  1.00 63.08 LIG-0.65  OA
ENDBRANCH 24 26
ENDBRANCH 21 24
ENDBRANCH 18 20
ENDBRANCH 15 18
ENDBRANCH 1 14
BRANCH 1 29
ATOM     29  N   ARG X   2     -29.834  -5.535  -7.461  1.00 55.62 LIG-0.35  N 
ATOM     30 H    ARG X   2     -30.612  -5.787  -7.725  1.00 55.62 LIG 0.16  HD
ATOM     31  C   ARG X   1     -29.631  -4.525  -6.615  1.00 54.36 LIG 0.25  C 
ATOM     32 O    ARG X   1     -28.514  -4.208  -6.202  1.00 54.20 LIG-0.27  OA
BRANCH 31 33
ATOM     33  CA  ARG X   1     -30.870  -3.749  -6.182  1.00 53.49 LIG 0.27  C 
BRANCH 33 34
ATOM     34  CB  ARG X   1     -31.177  -2.664  -7.221  1.00 53.17 LIG 0.04  C 
BRANCH 34 35
ATOM     35  CG  ARG X   1     -32.093  -1.544  -6.755  1.00 51.16 LIG 0.02  C 
BRANCH 35 36
ATOM     36  CD  ARG X   1     -33.342  -2.080  -6.096  1.00 48.38 LIG 0.14  C 
BRANCH 36 37
ATOM     37  NE  ARG X   1     -34.303  -1.023  -5.789  1.00 47.01 LIG-0.23  N 
ATOM     38 HE   ARG X   1     -35.076  -1.069  -6.164  1.00 47.01 LIG 0.18  HD
ATOM     39  CZ  ARG X   1     -34.075   0.008  -4.972  1.00 46.53 LIG 0.67  C 
ATOM     40  NH2 ARG X   1     -35.036   0.901  -4.760  1.00 45.07 LIG-0.23  N 
ATOM     41  NH1 ARG X   1     -32.901   0.151  -4.361  1.00 44.67 LIG-0.23  N 
ATOM     42 2HH2 ARG X   1     -34.895   1.568  -4.235  1.00 45.07 LIG 0.17  HD
ATOM     43 1HH2 ARG X   1     -35.798   0.814  -5.148  1.00 45.07 LIG 0.17  HD
ATOM     44 2HH1 ARG X   1     -32.768   0.820  -3.838  1.00 44.67 LIG 0.17  HD
ATOM     45 1HH1 ARG X   1     -32.276  -0.425  -4.490  1.00 44.67 LIG 0.17  HD
ENDBRANCH 36 37
ENDBRANCH 35 36
ENDBRANCH 34 35
ENDBRANCH 33 34
BRANCH 33 46
ATOM     46  N   ARG X   1     -30.693  -3.147  -4.827  1.00 53.50 LIG-0.07  N 
ATOM     47 H1   ARG X   1     -31.067  -2.339  -4.809  1.00 53.50 LIG 0.28  HD
ATOM     48 H3   ARG X   1     -29.825  -3.075  -4.645  1.00 53.50 LIG 0.28  HD
ATOM     49 H2   ARG X   1     -31.081  -3.667  -4.218  1.00 53.50 LIG 0.28  HD
ENDBRANCH 33 46
ENDBRANCH 31 33
ENDBRANCH 1 29
TORSDOF 16
ENDMDL
MODEL 15
USER: ADFR SOLUTION from run 92
USER: SCORE 13.492081 LL:  -2.225 LR: -13.366 RR:   0.000 FEB:  -8.593
USER: RMSD 2.025036
USER: SEED 91
USER: STATUS no improvement in best in 11 clusters for 5 generations
USER: GENES 18
USER: genes 0 Translation |==|  0.60939 0.46793 0.60582
USER: genes 1 Rotation |==|  0.44223 0.52665 0.52927 0.99507
USER: genes 2 Torsion [C]-CA--CB-[CG] |==|  0.08292
USER: genes 3 Torsion [CA]-CB--CG-[CD] |==|  0.64417
USER: genes 4 Torsion [CB]-CG--CD-[NE] |==|  0.25011
USER: genes 5 Torsion [CG]-CD--NE-[HE] |==|  0.21366
USER: genes 6 Torsion [N]-CA--C-[N] |==|  0.37123
USER: genes 7 Torsion [C]-N--CA-[CB] |==|  0.50000
USER: genes 8 Torsion [N]-CA--C-[N] |==|  0.41903
USER: genes 9 Torsion [C]-N--CA-[CB] |==|  0.20305
USER: genes 10 Torsion [N]-CA--C-[OXT] |==|  0.43827
USER: genes 11 Torsion [CB]-CA--N-[C] |==|  0.37311
USER: genes 12 Torsion [N]-C--CA-[N] |==|  0.36548
USER: genes 13 Torsion [C]-CA--CB-[CG] |==|  0.53268
USER: genes 14 Torsion [CA]-CB--CG-[CD] |==|  0.87860
USER: genes 15 Torsion [CB]-CG--CD-[NE] |==|  0.57263
USER: genes 16 Torsion [CG]-CD--NE-[HE] |==|  0.80068
USER: genes 17 Torsion [C]-CA--N-[H3] |==|  0.39843
ROOT
ATOM      1  CA  ARG X   2     -29.017  -6.619  -7.663  1.00 56.86 LIG 0.18  C 
ENDROOT
BRANCH 1 2
ATOM      2  CB  ARG X   2     -29.319  -8.062  -7.248  1.00 56.93 LIG 0.04  C 
BRANCH 2 3
ATOM      3  CG  ARG X   2     -28.841  -9.110  -8.241  1.00 58.33 LIG 0.02  C 
BRANCH 3 4
ATOM      4  CD  ARG X   2     -29.936 -10.074  -8.626  1.00 61.73 LIG 0.14  C 
BRANCH 4 5
ATOM      5  NE  ARG X   2     -30.706  -9.640  -9.791  1.00 63.99 LIG-0.23  N 
ATOM      6 HE   ARG X   2     -30.346  -9.738 -10.565  1.00 63.99 LIG 0.18  HD
ATOM      7  CZ  ARG X   2     -31.926  -9.101  -9.739  1.00 64.82 LIG 0.67  C 
ATOM      8  NH1 ARG X   2     -32.555  -8.928  -8.579  1.00 63.71 LIG-0.23  N 
ATOM      9  NH2 ARG X   2     -32.527  -8.737 -10.864  1.00 65.19 LIG-0.23  N 
ATOM     10 2HH1 ARG X   2     -33.341  -8.579  -8.563  1.00 63.71 LIG 0.17  HD
ATOM     11 1HH1 ARG X   2     -32.175  -9.165  -7.844  1.00 63.71 LIG 0.17  HD
ATOM     12 2HH2 ARG X   2     -33.313  -8.389 -10.839  1.00 65.19 LIG 0.17  HD
ATOM     13 1HH2 ARG X   2     -32.130  -8.848 -11.619  1.00 65.19 LIG 0.17  HD
ENDBRANCH 4 5
ENDBRANCH 3 4
ENDBRANCH 2 3
ENDBRANCH 1 2
BRANCH 1 14
ATOM     14  C   ARG X   2     -29.000  -6.494  -9.178  1.00 57.66 LIG 0.24  C 
ATOM     15  N   ALA X   3     -27.802  -6.385  -9.756  1.00 58.84 LIG-0.35  N 
ATOM     16 H    ALA X   3     -27.063  -6.350  -9.318  1.00 58.84 LIG 0.16  HD
ATOM     17 O    ARG X   2     -30.064  -6.494  -9.804  1.00 57.54 LIG-0.27  OA
BRANCH 15 18
ATOM     18  CA  ALA X   3     -27.640  -6.316 -11.214  1.00 60.16 LIG 0.17  C 
ATOM     19  CB  ALA X   3     -26.158  -6.195 -11.603  1.00 60.10 LIG 0.04  C 
BRANCH 18 20
ATOM     20  C   ALA X   3     -28.289  -7.523 -11.893  1.00 60.84 LIG 0.24  C 
ATOM     21  N   ALA X   4     -28.741  -7.303 -13.131  1.00 61.66 LIG-0.34  N 
ATOM     22 H    ALA X   4     -28.639  -6.548 -13.529  1.00 61.66 LIG 0.16  HD
ATOM     23 O    ALA X   3     -28.389  -8.604 -11.300  1.00 61.07 LIG-0.27  OA
BRANCH 21 24
ATOM     24  CA  ALA X   4     -29.455  -8.296 -13.960  1.00 62.39 LIG 0.18  C 
ATOM     25  CB  ALA X   4     -30.893  -8.523 -13.454  1.00 62.29 LIG 0.04  C 
BRANCH 24 26
ATOM     26  C   ALA X   4     -29.429  -7.994 -15.465  1.00 62.72 LIG 0.20  C 
ATOM     27 OXT  ALA X   4     -29.606  -8.884 -16.302  1.00 62.96 LIG-0.65  OA
ATOM     28 O    ALA X   4     -29.219  -6.856 -15.894  1.00 63.08 LIG-0.65  OA
ENDBRANCH 24 26
ENDBRANCH 21 24
ENDBRANCH 18 20
ENDBRANCH 15 18
ENDBRANCH 1 14
BRANCH 1 29
ATOM     29  N   ARG X   2     -30.024  -5.710  -7.127  1.00 55.62 LIG-0.35  N 
ATOM     30 H    ARG X   2     -30.833  -5.982  -7.228  1.00 55.62 LIG 0.16  HD
ATOM     31  C   ARG X   1     -29.697  -4.561  -6.537  1.00 54.36 LIG 0.25  C 
ATOM     32 O    ARG X   1     -28.531  -4.209  -6.350  1.00 54.20 LIG-0.27  OA
BRANCH 31 33
ATOM     33  CA  ARG X   1     -30.858  -3.671  -6.104  1.00 53.49 LIG 0.27  C 
BRANCH 33 34
ATOM     34  CB  ARG X   1     -30.967  -2.480  -7.063  1.00 53.17 LIG 0.04  C 
BRANCH 34 35
ATOM     35  CG  ARG X   1     -31.888  -1.356  -6.619  1.00 51.16 LIG 0.02  C 
BRANCH 35 36
ATOM     36  CD  ARG X   1     -33.187  -1.887  -6.057  1.00 48.38 LIG 0.14  C 
BRANCH 36 37
ATOM     37  NE  ARG X   1     -34.281  -0.928  -6.193  1.00 47.01 LIG-0.23  N 
ATOM     38 HE   ARG X   1     -34.264  -0.232  -5.687  1.00 47.01 LIG 0.18  HD
ATOM     39  CZ  ARG X   1     -35.305  -1.047  -7.041  1.00 46.53 LIG 0.67  C 
ATOM     40  NH2 ARG X   1     -36.235  -0.099  -7.083  1.00 45.07 LIG-0.23  N 
ATOM     41  NH1 ARG X   1     -35.405  -2.099  -7.851  1.00 44.67 LIG-0.23  N 
ATOM     42 2HH2 ARG X   1     -36.897  -0.170  -7.628  1.00 45.07 LIG 0.17  HD
ATOM     43 1HH2 ARG X   1     -36.176   0.586  -6.567  1.00 45.07 LIG 0.17  HD
ATOM     44 2HH1 ARG X   1     -36.070  -2.163  -8.392  1.00 44.67 LIG 0.17  HD
ATOM     45 1HH1 ARG X   1     -34.805  -2.714  -7.832  1.00 44.67 LIG 0.17  HD
ENDBRANCH 36 37
ENDBRANCH 35 36
ENDBRANCH 34 35
ENDBRANCH 33 34
BRANCH 33 46
ATOM     46  N   ARG X   1     -30.693  -3.202  -4.696  1.00 53.50 LIG-0.07  N 
ATOM     47 H1   ARG X   1     -31.156  -3.731  -4.151  1.00 53.50 LIG 0.28  HD
ATOM     48 H3   ARG X   1     -30.993  -2.367  -4.625  1.00 53.50 LIG 0.28  HD
ATOM     49 H2   ARG X   1     -29.832  -3.227  -4.474  1.00 53.50 LIG 0.28  HD
ENDBRANCH 33 46
ENDBRANCH 31 33
ENDBRANCH 1 29
TORSDOF 16
ENDMDL
MODEL 16
USER: ADFR SOLUTION from run 193
USER: SCORE 13.772151 LL:  -2.215 LR: -13.255 RR:   0.000 FEB:  -8.483
USER: RMSD 2.566778
USER: SEED 192
USER: STATUS no improvement in best in 18 clusters for 5 generations
USER: GENES 18
USER: genes 0 Translation |==|  0.59048 0.46758 0.62362
USER: genes 1 Rotation |==|  0.49606 0.51161 0.49029 0.99976
USER: genes 2 Torsion [C]-CA--CB-[CG] |==|  0.15604
USER: genes 3 Torsion [CA]-CB--CG-[CD] |==|  0.60473
USER: genes 4 Torsion [CB]-CG--CD-[NE] |==|  0.19463
USER: genes 5 Torsion [CG]-CD--NE-[HE] |==|  0.24062
USER: genes 6 Torsion [N]-CA--C-[N] |==|  0.87982
USER: genes 7 Torsion [C]-N--CA-[CB] |==|  0.77637
USER: genes 8 Torsion [N]-CA--C-[N] |==|  0.12781
USER: genes 9 Torsion [C]-N--CA-[CB] |==|  0.76391
USER: genes 10 Torsion [N]-CA--C-[OXT] |==|  0.65904
USER: genes 11 Torsion [CB]-CA--N-[C] |==|  0.43955
USER: genes 12 Torsion [N]-C--CA-[N] |==|  0.45145
USER: genes 13 Torsion [C]-CA--CB-[CG] |==|  0.45195
USER: genes 14 Torsion [CA]-CB--CG-[CD] |==|  0.32060
USER: genes 15 Torsion [CB]-CG--CD-[NE] |==|  0.47643
USER: genes 16 Torsion [CG]-CD--NE-[HE] |==|  0.34315
USER: genes 17 Torsion [C]-CA--N-[H3] |==|  0.15869
ROOT
ATOM      1  CA  ARG X   2     -29.372  -6.627  -7.315  1.00 56.86 LIG 0.18  C 
ENDROOT
BRANCH 1 2
ATOM      2  CB  ARG X   2     -29.922  -8.054  -7.234  1.00 56.93 LIG 0.04  C 
BRANCH 2 3
ATOM      3  CG  ARG X   2     -29.088  -9.088  -7.976  1.00 58.33 LIG 0.02  C 
BRANCH 3 4
ATOM      4  CD  ARG X   2     -29.942 -10.130  -8.655  1.00 61.73 LIG 0.14  C 
BRANCH 4 5
ATOM      5  NE  ARG X   2     -30.688  -9.610  -9.799  1.00 63.99 LIG-0.23  N 
ATOM      6 HE   ARG X   2     -30.293  -9.604 -10.563  1.00 63.99 LIG 0.18  HD
ATOM      7  CZ  ARG X   2     -31.938  -9.143  -9.744  1.00 64.82 LIG 0.67  C 
ATOM      8  NH1 ARG X   2     -32.620  -9.130  -8.601  1.00 63.71 LIG-0.23  N 
ATOM      9  NH2 ARG X   2     -32.513  -8.688 -10.850  1.00 65.19 LIG-0.23  N 
ATOM     10 2HH1 ARG X   2     -33.424  -8.825  -8.584  1.00 63.71 LIG 0.17  HD
ATOM     11 1HH1 ARG X   2     -32.257  -9.427  -7.880  1.00 63.71 LIG 0.17  HD
ATOM     12 2HH2 ARG X   2     -33.318  -8.385 -10.822  1.00 65.19 LIG 0.17  HD
ATOM     13 1HH2 ARG X   2     -32.081  -8.695 -11.594  1.00 65.19 LIG 0.17  HD
ENDBRANCH 4 5
ENDBRANCH 3 4
ENDBRANCH 2 3
ENDBRANCH 1 2
BRANCH 1 14
ATOM     14  C   ARG X   2     -29.211  -6.201  -8.766  1.00 57.66 LIG 0.24  C 
ATOM     15  N   ALA X   3     -30.321  -5.828  -9.407  1.00 58.84 LIG-0.35  N 
ATOM     16 H    ALA X   3     -31.105  -5.851  -9.054  1.00 58.84 LIG 0.16  HD
ATOM     17 O    ARG X   2     -28.093  -6.216  -9.289  1.00 57.54 LIG-0.27  OA
BRANCH 15 18
ATOM     18  CA  ALA X   3     -30.300  -5.339 -10.791  1.00 60.16 LIG 0.17  C 
ATOM     19  CB  ALA X   3     -29.884  -3.860 -10.851  1.00 60.10 LIG 0.04  C 
BRANCH 18 20
ATOM     20  C   ALA X   3     -29.385  -6.202 -11.661  1.00 60.84 LIG 0.24  C 
ATOM     21  N   ALA X   4     -29.539  -7.521 -11.511  1.00 61.66 LIG-0.34  N 
ATOM     22 H    ALA X   4     -30.136  -7.857 -10.992  1.00 61.66 LIG 0.16  HD
ATOM     23 O    ALA X   3     -28.559  -5.683 -12.421  1.00 61.07 LIG-0.27  OA
BRANCH 21 24
ATOM     24  CA  ALA X   4     -28.731  -8.550 -12.197  1.00 62.39 LIG 0.18  C 
ATOM     25  CB  ALA X   4     -29.291  -8.866 -13.597  1.00 62.29 LIG 0.04  C 
BRANCH 24 26
ATOM     26  C   ALA X   4     -27.229  -8.238 -12.250  1.00 62.72 LIG 0.20  C 
ATOM     27 OXT  ALA X   4     -26.624  -8.171 -13.324  1.00 62.96 LIG-0.65  OA
ATOM     28 O    ALA X   4     -26.568  -8.053 -11.223  1.00 63.08 LIG-0.65  OA
ENDBRANCH 24 26
ENDBRANCH 21 24
ENDBRANCH 18 20
ENDBRANCH 15 18
ENDBRANCH 1 14
BRANCH 1 29
ATOM     29  N   ARG X   2     -30.270  -5.693  -6.648  1.00 55.62 LIG-0.35  N 
ATOM     30 H    ARG X   2     -31.078  -5.975  -6.570  1.00 55.62 LIG 0.16  HD
ATOM     31  C   ARG X   1     -29.854  -4.507  -6.204  1.00 54.36 LIG 0.25  C 
ATOM     32 O    ARG X   1     -28.681  -4.137  -6.273  1.00 54.20 LIG-0.27  OA
BRANCH 31 33
ATOM     33  CA  ARG X   1     -30.923  -3.598  -5.605  1.00 53.49 LIG 0.27  C 
BRANCH 33 34
ATOM     34  CB  ARG X   1     -31.776  -3.008  -6.734  1.00 53.17 LIG 0.04  C 
BRANCH 34 35
ATOM     35  CG  ARG X   1     -33.114  -2.422  -6.314  1.00 51.16 LIG 0.02  C 
BRANCH 35 36
ATOM     36  CD  ARG X   1     -33.172  -0.932  -6.558  1.00 48.38 LIG 0.14  C 
BRANCH 36 37
ATOM     37  NE  ARG X   1     -34.512  -0.389  -6.347  1.00 47.01 LIG-0.23  N 
ATOM     38 HE   ARG X   1     -34.596   0.249  -5.776  1.00 47.01 LIG 0.18  HD
ATOM     39  CZ  ARG X   1     -35.616  -0.806  -6.971  1.00 46.53 LIG 0.67  C 
ATOM     40  NH2 ARG X   1     -36.780  -0.223  -6.704  1.00 45.07 LIG-0.23  N 
ATOM     41  NH1 ARG X   1     -35.568  -1.794  -7.861  1.00 44.67 LIG-0.23  N 
ATOM     42 2HH2 ARG X   1     -37.495  -0.487  -7.103  1.00 45.07 LIG 0.17  HD
ATOM     43 1HH2 ARG X   1     -36.819   0.419  -6.132  1.00 45.07 LIG 0.17  HD
ATOM     44 2HH1 ARG X   1     -36.287  -2.053  -8.255  1.00 44.67 LIG 0.17  HD
ATOM     45 1HH1 ARG X   1     -34.818  -2.174  -8.042  1.00 44.67 LIG 0.17  HD
ENDBRANCH 36 37
ENDBRANCH 35 36
ENDBRANCH 34 35
ENDBRANCH 33 34
BRANCH 33 46
ATOM     46  N   ARG X   1     -30.318  -2.512  -4.778  1.00 53.50 LIG-0.07  N 
ATOM     47 H1   ARG X   1     -30.961  -1.975  -4.477  1.00 53.50 LIG 0.28  HD
ATOM     48 H3   ARG X   1     -29.748  -2.043  -5.275  1.00 53.50 LIG 0.28  HD
ATOM     49 H2   ARG X   1     -29.884  -2.871  -4.089  1.00 53.50 LIG 0.28  HD
ENDBRANCH 33 46
ENDBRANCH 31 33
ENDBRANCH 1 29
TORSDOF 16
ENDMDL
MODEL 17
USER: ADFR SOLUTION from run 194
USER: SCORE 13.168579 LL:  -2.089 LR: -13.237 RR:   0.000 FEB:  -8.465
USER: RMSD 3.984204
USER: SEED 193
USER: STATUS no improvement in best in 12 clusters for 5 generations
USER: GENES 18
USER: genes 0 Translation |==|  0.57624 0.47550 0.56363
USER: genes 1 Rotation |==|  0.49165 0.55713 0.52243 0.99615
USER: genes 2 Torsion [C]-CA--CB-[CG] |==|  0.22980
USER: genes 3 Torsion [CA]-CB--CG-[CD] |==|  0.83996
USER: genes 4 Torsion [CB]-CG--CD-[NE] |==|  0.24602
USER: genes 5 Torsion [CG]-CD--NE-[HE] |==|  0.95309
USER: genes 6 Torsion [N]-CA--C-[N] |==|  0.28385
USER: genes 7 Torsion [C]-N--CA-[CB] |==|  0.82775
USER: genes 8 Torsion [N]-CA--C-[N] |==|  0.21648
USER: genes 9 Torsion [C]-N--CA-[CB] |==|  0.88319
USER: genes 10 Torsion [N]-CA--C-[OXT] |==|  0.56717
USER: genes 11 Torsion [CB]-CA--N-[C] |==|  0.35249
USER: genes 12 Torsion [N]-C--CA-[N] |==|  0.44395
USER: genes 13 Torsion [C]-CA--CB-[CG] |==|  0.54805
USER: genes 14 Torsion [CA]-CB--CG-[CD] |==|  0.76111
USER: genes 15 Torsion [CB]-CG--CD-[NE] |==|  0.54720
USER: genes 16 Torsion [CG]-CD--NE-[HE] |==|  0.35875
USER: genes 17 Torsion [C]-CA--N-[H3] |==|  0.04870
ROOT
ATOM      1  CA  ARG X   2     -29.638  -6.437  -8.485  1.00 56.86 LIG 0.18  C 
ENDROOT
BRANCH 1 2
ATOM      2  CB  ARG X   2     -29.978  -7.919  -8.306  1.00 56.93 LIG 0.04  C 
BRANCH 2 3
ATOM      3  CG  ARG X   2     -28.838  -8.867  -8.643  1.00 58.33 LIG 0.02  C 
BRANCH 3 4
ATOM      4  CD  ARG X   2     -28.347  -8.689 -10.059  1.00 61.73 LIG 0.14  C 
BRANCH 4 5
ATOM      5  NE  ARG X   2     -27.295  -7.681 -10.183  1.00 63.99 LIG-0.23  N 
ATOM      6 HE   ARG X   2     -27.195  -7.127  -9.533  1.00 63.99 LIG 0.18  HD
ATOM      7  CZ  ARG X   2     -26.480  -7.557 -11.234  1.00 64.82 LIG 0.67  C 
ATOM      8  NH1 ARG X   2     -26.565  -8.383 -12.274  1.00 63.71 LIG-0.23  N 
ATOM      9  NH2 ARG X   2     -25.565  -6.597 -11.240  1.00 65.19 LIG-0.23  N 
ATOM     10 2HH1 ARG X   2     -26.032  -8.289 -12.943  1.00 63.71 LIG 0.17  HD
ATOM     11 1HH1 ARG X   2     -27.153  -9.012 -12.277  1.00 63.71 LIG 0.17  HD
ATOM     12 2HH2 ARG X   2     -25.037  -6.510 -11.913  1.00 65.19 LIG 0.17  HD
ATOM     13 1HH2 ARG X   2     -25.501  -6.060 -10.570  1.00 65.19 LIG 0.17  HD
ENDBRANCH 4 5
ENDBRANCH 3 4
ENDBRANCH 2 3
ENDBRANCH 1 2
BRANCH 1 14
ATOM     14  C   ARG X   2     -29.800  -6.028  -9.940  1.00 57.66 LIG 0.24  C 
ATOM     15  N   ALA X   3     -28.838  -5.261 -10.457  1.00 58.84 LIG-0.35  N 
ATOM     16 H    ALA X   3     -28.168  -4.968 -10.005  1.00 58.84 LIG 0.16  HD
ATOM     17 O    ARG X   2     -30.789  -6.405 -10.576  1.00 57.54 LIG-0.27  OA
BRANCH 15 18
ATOM     18  CA  ALA X   3     -28.841  -4.842 -11.865  1.00 60.16 LIG 0.17  C 
ATOM     19  CB  ALA X   3     -28.757  -6.056 -12.805  1.00 60.10 LIG 0.04  C 
BRANCH 18 20
ATOM     20  C   ALA X   3     -30.071  -3.989 -12.178  1.00 60.84 LIG 0.24  C 
ATOM     21  N   ALA X   4     -30.001  -2.720 -11.766  1.00 61.66 LIG-0.34  N 
ATOM     22 H    ALA X   4     -29.300  -2.399 -11.387  1.00 61.66 LIG 0.16  HD
ATOM     23 O    ALA X   3     -31.050  -4.478 -12.755  1.00 61.07 LIG-0.27  OA
BRANCH 21 24
ATOM     24  CA  ALA X   4     -31.085  -1.726 -11.901  1.00 62.39 LIG 0.18  C 
ATOM     25  CB  ALA X   4     -31.767  -1.820 -13.280  1.00 62.29 LIG 0.04  C 
BRANCH 24 26
ATOM     26  C   ALA X   4     -32.114  -1.758 -10.762  1.00 62.72 LIG 0.20  C 
ATOM     27 OXT  ALA X   4     -33.264  -1.340 -10.923  1.00 62.96 LIG-0.65  OA
ATOM     28 O    ALA X   4     -31.827  -2.191  -9.642  1.00 63.08 LIG-0.65  OA
ENDBRANCH 24 26
ENDBRANCH 21 24
ENDBRANCH 18 20
ENDBRANCH 15 18
ENDBRANCH 1 14
BRANCH 1 29
ATOM     29  N   ARG X   2     -30.512  -5.608  -7.664  1.00 55.62 LIG-0.35  N 
ATOM     30 H    ARG X   2     -31.351  -5.756  -7.780  1.00 55.62 LIG 0.16  HD
ATOM     31  C   ARG X   1     -30.032  -4.702  -6.812  1.00 54.36 LIG 0.25  C 
ATOM     32 O    ARG X   1     -28.826  -4.537  -6.616  1.00 54.20 LIG-0.27  OA
BRANCH 31 33
ATOM     33  CA  ARG X   1     -31.063  -3.846  -6.085  1.00 53.49 LIG 0.27  C 
BRANCH 33 34
ATOM     34  CB  ARG X   1     -31.583  -2.762  -7.036  1.00 53.17 LIG 0.04  C 
BRANCH 34 35
ATOM     35  CG  ARG X   1     -32.293  -1.591  -6.377  1.00 51.16 LIG 0.02  C 
BRANCH 35 36
ATOM     36  CD  ARG X   1     -33.759  -1.879  -6.155  1.00 48.38 LIG 0.14  C 
BRANCH 36 37
ATOM     37  NE  ARG X   1     -34.530  -0.664  -5.902  1.00 47.01 LIG-0.23  N 
ATOM     38 HE   ARG X   1     -35.240  -0.540  -6.372  1.00 47.01 LIG 0.18  HD
ATOM     39  CZ  ARG X   1     -34.219   0.269  -4.999  1.00 46.53 LIG 0.67  C 
ATOM     40  NH2 ARG X   1     -35.008   1.328  -4.851  1.00 45.07 LIG-0.23  N 
ATOM     41  NH1 ARG X   1     -33.132   0.151  -4.240  1.00 44.67 LIG-0.23  N 
ATOM     42 2HH2 ARG X   1     -34.813   1.932  -4.271  1.00 45.07 LIG 0.17  HD
ATOM     43 1HH2 ARG X   1     -35.714   1.409  -5.335  1.00 45.07 LIG 0.17  HD
ATOM     44 2HH1 ARG X   1     -32.943   0.760  -3.663  1.00 44.67 LIG 0.17  HD
ATOM     45 1HH1 ARG X   1     -32.618  -0.533  -4.327  1.00 44.67 LIG 0.17  HD
ENDBRANCH 36 37
ENDBRANCH 35 36
ENDBRANCH 34 35
ENDBRANCH 33 34
BRANCH 33 46
ATOM     46  N   ARG X   1     -30.493  -3.234  -4.848  1.00 53.50 LIG-0.07  N 
ATOM     47 H1   ARG X   1     -30.759  -2.387  -4.785  1.00 53.50 LIG 0.28  HD
ATOM     48 H3   ARG X   1     -29.605  -3.264  -4.884  1.00 53.50 LIG 0.28  HD
ATOM     49 H2   ARG X   1     -30.776  -3.687  -4.135  1.00 53.50 LIG 0.28  HD
ENDBRANCH 33 46
ENDBRANCH 31 33
ENDBRANCH 1 29
TORSDOF 16
ENDMDL
MODEL 18
USER: ADFR SOLUTION from run 81
USER: SCORE 14.397982 LL:  -1.584 LR: -13.219 RR:   0.000 FEB:  -8.446
USER: RMSD 3.011503
USER: SEED 80
USER: STATUS no improvement in best in 10 clusters for 5 generations
USER: GENES 18
USER: genes 0 Translation |==|  0.64312 0.45099 0.56391
USER: genes 1 Rotation |==|  0.46570 0.49442 0.44254 0.99547
USER: genes 2 Torsion [C]-CA--CB-[CG] |==|  0.84178
USER: genes 3 Torsion [CA]-CB--CG-[CD] |==|  0.53822
USER: genes 4 Torsion [CB]-CG--CD-[NE] |==|  0.96062
USER: genes 5 Torsion [CG]-CD--NE-[HE] |==|  0.20324
USER: genes 6 Torsion [N]-CA--C-[N] |==|  0.11908
USER: genes 7 Torsion [C]-N--CA-[CB] |==|  0.53349
USER: genes 8 Torsion [N]-CA--C-[N] |==|  0.37887
USER: genes 9 Torsion [C]-N--CA-[CB] |==|  0.83492
USER: genes 10 Torsion [N]-CA--C-[OXT] |==|  0.57797
USER: genes 11 Torsion [CB]-CA--N-[C] |==|  0.14692
USER: genes 12 Torsion [N]-C--CA-[N] |==|  0.46814
USER: genes 13 Torsion [C]-CA--CB-[CG] |==|  0.41439
USER: genes 14 Torsion [CA]-CB--CG-[CD] |==|  0.36703
USER: genes 15 Torsion [CB]-CG--CD-[NE] |==|  0.73581
USER: genes 16 Torsion [CG]-CD--NE-[HE] |==|  0.16486
USER: genes 17 Torsion [C]-CA--N-[H3] |==|  0.84415
ROOT
ATOM      1  CA  ARG X   2     -28.385  -7.025  -8.480  1.00 56.86 LIG 0.18  C 
ENDROOT
BRANCH 1 2
ATOM      2  CB  ARG X   2     -29.201  -8.304  -8.272  1.00 56.93 LIG 0.04  C 
BRANCH 2 3
ATOM      3  CG  ARG X   2     -30.498  -8.353  -9.064  1.00 58.33 LIG 0.02  C 
BRANCH 3 4
ATOM      4  CD  ARG X   2     -31.417  -9.451  -8.587  1.00 61.73 LIG 0.14  C 
BRANCH 4 5
ATOM      5  NE  ARG X   2     -30.755 -10.423  -7.718  1.00 63.99 LIG-0.23  N 
ATOM      6 HE   ARG X   2     -30.562 -10.175  -6.918  1.00 63.99 LIG 0.18  HD
ATOM      7  CZ  ARG X   2     -30.428 -11.666  -8.078  1.00 64.82 LIG 0.67  C 
ATOM      8  NH1 ARG X   2     -30.704 -12.128  -9.295  1.00 63.71 LIG-0.23  N 
ATOM      9  NH2 ARG X   2     -29.821 -12.459  -7.204  1.00 65.19 LIG-0.23  N 
ATOM     10 2HH1 ARG X   2     -30.486 -12.932  -9.510  1.00 63.71 LIG 0.17  HD
ATOM     11 1HH1 ARG X   2     -31.101 -11.623  -9.866  1.00 63.71 LIG 0.17  HD
ATOM     12 2HH2 ARG X   2     -29.606 -13.262  -7.428  1.00 65.19 LIG 0.17  HD
ATOM     13 1HH2 ARG X   2     -29.641 -12.171  -6.414  1.00 65.19 LIG 0.17  HD
ENDBRANCH 4 5
ENDBRANCH 3 4
ENDBRANCH 2 3
ENDBRANCH 1 2
BRANCH 1 14
ATOM     14  C   ARG X   2     -28.066  -6.832  -9.954  1.00 57.66 LIG 0.24  C 
ATOM     15  N   ALA X   3     -27.648  -5.620 -10.322  1.00 58.84 LIG-0.35  N 
ATOM     16 H    ALA X   3     -27.586  -4.953  -9.783  1.00 58.84 LIG 0.16  HD
ATOM     17 O    ARG X   2     -28.204  -7.775 -10.738  1.00 57.54 LIG-0.27  OA
BRANCH 15 18
ATOM     18  CA  ALA X   3     -27.252  -5.313 -11.703  1.00 60.16 LIG 0.17  C 
ATOM     19  CB  ALA X   3     -26.539  -3.954 -11.788  1.00 60.10 LIG 0.04  C 
BRANCH 18 20
ATOM     20  C   ALA X   3     -26.379  -6.428 -12.279  1.00 60.84 LIG 0.24  C 
ATOM     21  N   ALA X   4     -26.675  -6.792 -13.531  1.00 61.66 LIG-0.34  N 
ATOM     22 H    ALA X   4     -27.287  -6.399 -13.990  1.00 61.66 LIG 0.16  HD
ATOM     23 O    ALA X   3     -25.485  -6.947 -11.600  1.00 61.07 LIG-0.27  OA
BRANCH 21 24
ATOM     24  CA  ALA X   4     -26.011  -7.882 -14.275  1.00 62.39 LIG 0.18  C 
ATOM     25  CB  ALA X   4     -24.497  -7.630 -14.412  1.00 62.29 LIG 0.04  C 
BRANCH 24 26
ATOM     26  C   ALA X   4     -26.301  -9.285 -13.723  1.00 62.72 LIG 0.20  C 
ATOM     27 OXT  ALA X   4     -25.491 -10.208 -13.857  1.00 62.96 LIG-0.65  OA
ATOM     28 O    ALA X   4     -27.356  -9.547 -13.138  1.00 63.08 LIG-0.65  OA
ENDBRANCH 24 26
ENDBRANCH 21 24
ENDBRANCH 18 20
ENDBRANCH 15 18
ENDBRANCH 1 14
BRANCH 1 29
ATOM     29  N   ARG X   2     -29.123  -5.863  -8.002  1.00 55.62 LIG-0.35  N 
ATOM     30 H    ARG X   2     -29.197  -5.230  -8.580  1.00 55.62 LIG 0.16  HD
ATOM     31  C   ARG X   1     -29.631  -5.804  -6.771  1.00 54.36 LIG 0.25  C 
ATOM     32 O    ARG X   1     -29.565  -6.740  -5.972  1.00 54.20 LIG-0.27  OA
BRANCH 31 33
ATOM     33  CA  ARG X   1     -30.302  -4.491  -6.380  1.00 53.49 LIG 0.27  C 
BRANCH 33 34
ATOM     34  CB  ARG X   1     -29.238  -3.395  -6.259  1.00 53.17 LIG 0.04  C 
BRANCH 34 35
ATOM     35  CG  ARG X   1     -29.698  -1.987  -6.598  1.00 51.16 LIG 0.02  C 
BRANCH 35 36
ATOM     36  CD  ARG X   1     -29.272  -0.992  -5.544  1.00 48.38 LIG 0.14  C 
BRANCH 36 37
ATOM     37  NE  ARG X   1     -30.318  -0.754  -4.553  1.00 47.01 LIG-0.23  N 
ATOM     38 HE   ARG X   1     -30.598  -1.430  -4.101  1.00 47.01 LIG 0.18  HD
ATOM     39  CZ  ARG X   1     -30.874   0.432  -4.293  1.00 46.53 LIG 0.67  C 
ATOM     40  NH2 ARG X   1     -31.811   0.526  -3.355  1.00 45.07 LIG-0.23  N 
ATOM     41  NH1 ARG X   1     -30.499   1.524  -4.955  1.00 44.67 LIG-0.23  N 
ATOM     42 2HH2 ARG X   1     -32.172   1.287  -3.182  1.00 45.07 LIG 0.17  HD
ATOM     43 1HH2 ARG X   1     -32.056  -0.174  -2.920  1.00 45.07 LIG 0.17  HD
ATOM     44 2HH1 ARG X   1     -30.865   2.281  -4.777  1.00 44.67 LIG 0.17  HD
ATOM     45 1HH1 ARG X   1     -29.891   1.472  -5.560  1.00 44.67 LIG 0.17  HD
ENDBRANCH 36 37
ENDBRANCH 35 36
ENDBRANCH 34 35
ENDBRANCH 33 34
BRANCH 33 46
ATOM     46  N   ARG X   1     -31.068  -4.626  -5.105  1.00 53.50 LIG-0.07  N 
ATOM     47 H1   ARG X   1     -30.507  -4.810  -4.439  1.00 53.50 LIG 0.28  HD
ATOM     48 H3   ARG X   1     -31.661  -5.285  -5.184  1.00 53.50 LIG 0.28  HD
ATOM     49 H2   ARG X   1     -31.494  -3.864  -4.932  1.00 53.50 LIG 0.28  HD
ENDBRANCH 33 46
ENDBRANCH 31 33
ENDBRANCH 1 29
TORSDOF 16
ENDMDL
