MODEL 1
USER: ADFR SOLUTION from run 172
USER: SCORE 14.372565 LL:  -0.805 LR: -14.609 RR:   0.000 FEB: -11.029
USER: RMSD 2.136390
USER: SEED 171
USER: STATUS searching
USER: GENES 14
USER: genes 0 Translation |==|  0.55112 0.45745 0.45109
USER: genes 1 Rotation |==|  0.48499 0.53363 0.48777 0.99849
USER: genes 2 Torsion [CB]-CA--N-[H2] |==|  0.37850
USER: genes 3 Torsion [N]-CA--CB-[CG] |==|  0.74000
USER: genes 4 Torsion [CA]-CB--CG-[CD] |==|  0.32797
USER: genes 5 Torsion [CB]-CG--CD-[NE] |==|  0.87725
USER: genes 6 Torsion [CG]-CD--NE-[HE] |==|  0.04141
USER: genes 7 Torsion [N]-CA--C-[N] |==|  0.40895
USER: genes 8 Torsion [C]-N--CA-[CB] |==|  0.17224
USER: genes 9 Torsion [N]-CA--CB-[CG] |==|  0.45188
USER: genes 10 Torsion [CA]-CB--CG-[CD1] |==|  0.34507
USER: genes 11 Torsion [N]-CA--C-[N] |==|  0.42830
USER: genes 12 Torsion [C]-N--CA-[C] |==|  0.65309
USER: genes 13 Torsion [N]-CA--C-[O] |==|  0.25053
ROOT
ATOM      1  CA  ARG E   1      42.326 -17.221   6.661  1.00 58.91 LIG 0.27  C 
ENDROOT
BRANCH 1 2
ATOM      2  N   ARG E   1      43.098 -18.037   5.692  1.00 58.46 LIG-0.07  N 
ATOM      3 H2   ARG E   1      42.536 -18.506   5.184  1.00 58.46 LIG 0.28  HD
ATOM      4 H1   ARG E   1      43.634 -18.595   6.133  1.00 58.46 LIG 0.28  HD
ATOM      5 H3   ARG E   1      43.587 -17.502   5.176  1.00 58.46 LIG 0.28  HD
ENDBRANCH 1 2
BRANCH 1 6
ATOM      6  CB  ARG E   1      42.956 -17.289   8.053  1.00 58.69 LIG 0.04  C 
BRANCH 6 7
ATOM      7  CG  ARG E   1      42.348 -18.368   8.927  1.00 58.59 LIG 0.02  C 
BRANCH 7 8
ATOM      8  CD  ARG E   1      43.391 -19.386   9.302  1.00 58.62 LIG 0.14  C 
BRANCH 8 9
ATOM      9  NE  ARG E   1      44.246 -19.795   8.188  1.00 56.95 LIG-0.23  N 
ATOM     10  CZ  ARG E   1      45.040 -20.862   8.181  1.00 57.03 LIG 0.67  C 
ATOM     11  NH2 ARG E   1      45.740 -21.139   7.092  1.00 56.92 LIG-0.23  N 
ATOM     12  NH1 ARG E   1      45.149 -21.648   9.249  1.00 56.49 LIG-0.23  N 
ATOM     13 2HH2 ARG E   1      46.257 -21.827   7.077  1.00 56.92 LIG 0.17  HD
ATOM     14 1HH2 ARG E   1      45.679 -20.631   6.401  1.00 56.92 LIG 0.17  HD
ATOM     15 1HH1 ARG E   1      44.702 -21.470   9.961  1.00 56.49 LIG 0.17  HD
ATOM     16 2HH1 ARG E   1      45.667 -22.334   9.226  1.00 56.49 LIG 0.17  HD
ATOM     17 HE   ARG E   1      44.234 -19.306   7.480  1.00 56.95 LIG 0.18  HD
ENDBRANCH 8 9
ENDBRANCH 7 8
ENDBRANCH 6 7
ENDBRANCH 1 6
BRANCH 1 18
ATOM     18  C   ARG E   1      42.193 -15.783   6.197  1.00 59.32 LIG 0.25  C 
ATOM     19  N   LEU E   2      41.064 -15.169   6.540  1.00 59.84 LIG-0.35  N 
ATOM     20 H    LEU E   2      40.469 -15.514   7.056  1.00 59.84 LIG 0.16  HD
ATOM     21 O    ARG E   1      43.092 -15.243   5.556  1.00 59.24 LIG-0.27  OA
BRANCH 19 22
ATOM     22  CA  LEU E   2      40.740 -13.836   6.060  1.00 60.66 LIG 0.18  C 
BRANCH 22 23
ATOM     23  CB  LEU E   2      40.624 -13.857   4.531  1.00 60.80 LIG 0.04  C 
BRANCH 23 24
ATOM     24  CG  LEU E   2      39.925 -12.737   3.750  1.00 61.28 LIG-0.02  C 
ATOM     25  CD1 LEU E   2      40.855 -12.139   2.699  1.00 62.19 LIG 0.01  C 
ATOM     26  CD2 LEU E   2      38.598 -13.193   3.147  1.00 61.48 LIG 0.01  C 
ENDBRANCH 23 24
ENDBRANCH 22 23
BRANCH 22 27
ATOM     27  C   LEU E   2      39.464 -13.300   6.706  1.00 61.14 LIG 0.24  C 
ATOM     28 O    LEU E   2      38.598 -14.073   7.127  1.00 61.18 LIG-0.27  OA
ATOM     29  N   GLY E   3      39.358 -11.972   6.774  1.00 61.67 LIG-0.35  N 
ATOM     30 H    GLY E   3      39.949 -11.432   6.458  1.00 61.67 LIG 0.16  HD
BRANCH 29 31
ATOM     31  CA  GLY E   3      38.214 -11.301   7.398  1.00 62.18 LIG 0.21  C 
BRANCH 31 32
ATOM     32  C   GLY E   3      37.504 -10.301   6.499  1.00 62.54 LIG 0.21  C 
ATOM     33 O    GLY E   3      36.564 -10.639   5.772  1.00 62.83 LIG-0.29  OA
ENDBRANCH 31 32
ENDBRANCH 29 31
ENDBRANCH 22 27
ENDBRANCH 19 22
ENDBRANCH 1 18
TORSDOF 12
ENDMDL
MODEL 2
USER: ADFR SOLUTION from run 128
USER: SCORE 14.211288 LL:  -1.163 LR: -14.062 RR:   0.000 FEB: -10.483
USER: RMSD 2.436925
USER: SEED 127
USER: STATUS searching
USER: GENES 14
USER: genes 0 Translation |==|  0.54393 0.45614 0.44230
USER: genes 1 Rotation |==|  0.49904 0.50554 0.48633 0.99978
USER: genes 2 Torsion [CB]-CA--N-[H2] |==|  0.36472
USER: genes 3 Torsion [N]-CA--CB-[CG] |==|  0.79334
USER: genes 4 Torsion [CA]-CB--CG-[CD] |==|  0.48582
USER: genes 5 Torsion [CB]-CG--CD-[NE] |==|  0.46997
USER: genes 6 Torsion [CG]-CD--NE-[HE] |==|  0.13796
USER: genes 7 Torsion [N]-CA--C-[N] |==|  0.41945
USER: genes 8 Torsion [C]-N--CA-[CB] |==|  0.17433
USER: genes 9 Torsion [N]-CA--CB-[CG] |==|  0.45083
USER: genes 10 Torsion [CA]-CB--CG-[CD1] |==|  0.37611
USER: genes 11 Torsion [N]-CA--C-[N] |==|  0.44078
USER: genes 12 Torsion [C]-N--CA-[C] |==|  0.65902
USER: genes 13 Torsion [N]-CA--C-[O] |==|  0.28062
ROOT
ATOM      1  CA  ARG E   1      42.224 -17.251   6.522  1.00 58.91 LIG 0.27  C 
ENDROOT
BRANCH 1 2
ATOM      2  N   ARG E   1      43.098 -18.022   5.605  1.00 58.46 LIG-0.07  N 
ATOM      3 H2   ARG E   1      42.596 -18.514   5.059  1.00 58.46 LIG 0.28  HD
ATOM      4 H1   ARG E   1      43.630 -18.555   6.080  1.00 58.46 LIG 0.28  HD
ATOM      5 H3   ARG E   1      43.594 -17.460   5.125  1.00 58.46 LIG 0.28  HD
ENDBRANCH 1 2
BRANCH 1 6
ATOM      6  CB  ARG E   1      42.691 -17.397   7.972  1.00 58.69 LIG 0.04  C 
BRANCH 6 7
ATOM      7  CG  ARG E   1      42.359 -18.751   8.568  1.00 58.59 LIG 0.02  C 
BRANCH 7 8
ATOM      8  CD  ARG E   1      42.951 -18.875   9.946  1.00 58.62 LIG 0.14  C 
BRANCH 8 9
ATOM      9  NE  ARG E   1      42.475 -20.040  10.691  1.00 56.95 LIG-0.23  N 
ATOM     10  CZ  ARG E   1      42.007 -20.015  11.936  1.00 57.03 LIG 0.67  C 
ATOM     11  NH2 ARG E   1      41.576 -21.139  12.487  1.00 56.92 LIG-0.23  N 
ATOM     12  NH1 ARG E   1      41.973 -18.885  12.639  1.00 56.49 LIG-0.23  N 
ATOM     13 2HH2 ARG E   1      41.271 -21.134  13.291  1.00 56.92 LIG 0.17  HD
ATOM     14 1HH2 ARG E   1      41.601 -21.874  12.040  1.00 56.92 LIG 0.17  HD
ATOM     15 1HH1 ARG E   1      42.257 -18.153  12.289  1.00 56.49 LIG 0.17  HD
ATOM     16 2HH1 ARG E   1      41.666 -18.888  13.442  1.00 56.49 LIG 0.17  HD
ATOM     17 HE   ARG E   1      42.500 -20.802  10.293  1.00 56.95 LIG 0.18  HD
ENDBRANCH 8 9
ENDBRANCH 7 8
ENDBRANCH 6 7
ENDBRANCH 1 6
BRANCH 1 18
ATOM     18  C   ARG E   1      42.148 -15.789   6.124  1.00 59.32 LIG 0.25  C 
ATOM     19  N   LEU E   2      41.019 -15.163   6.440  1.00 59.84 LIG-0.35  N 
ATOM     20 H    LEU E   2      40.390 -15.516   6.907  1.00 59.84 LIG 0.16  HD
ATOM     21 O    ARG E   1      43.092 -15.243   5.556  1.00 59.24 LIG-0.27  OA
BRANCH 19 22
ATOM     22  CA  LEU E   2      40.751 -13.800   6.010  1.00 60.66 LIG 0.18  C 
BRANCH 22 23
ATOM     23  CB  LEU E   2      40.695 -13.749   4.478  1.00 60.80 LIG 0.04  C 
BRANCH 23 24
ATOM     24  CG  LEU E   2      40.051 -12.578   3.724  1.00 61.28 LIG-0.02  C 
ATOM     25  CD1 LEU E   2      40.925 -12.132   2.556  1.00 62.19 LIG 0.01  C 
ATOM     26  CD2 LEU E   2      38.622 -12.889   3.284  1.00 61.48 LIG 0.01  C 
ENDBRANCH 23 24
ENDBRANCH 22 23
BRANCH 22 27
ATOM     27  C   LEU E   2      39.465 -13.256   6.631  1.00 61.14 LIG 0.24  C 
ATOM     28 O    LEU E   2      38.598 -14.024   7.058  1.00 61.18 LIG-0.27  OA
ATOM     29  N   GLY E   3      39.354 -11.927   6.671  1.00 61.67 LIG-0.35  N 
ATOM     30 H    GLY E   3      39.947 -11.392   6.351  1.00 61.67 LIG 0.16  HD
BRANCH 29 31
ATOM     31  CA  GLY E   3      38.201 -11.248   7.269  1.00 62.18 LIG 0.21  C 
BRANCH 31 32
ATOM     32  C   GLY E   3      37.467 -10.307   6.326  1.00 62.54 LIG 0.21  C 
ATOM     33 O    GLY E   3      36.413 -10.639   5.774  1.00 62.83 LIG-0.29  OA
ENDBRANCH 31 32
ENDBRANCH 29 31
ENDBRANCH 22 27
ENDBRANCH 19 22
ENDBRANCH 1 18
TORSDOF 12
ENDMDL
MODEL 3
USER: ADFR SOLUTION from run 200
USER: SCORE 13.142872 LL:  -0.663 LR: -13.709 RR:   0.000 FEB: -10.129
USER: RMSD 1.881398
USER: SEED 199
USER: STATUS no improvement in best in 7 clusters for 5 generations
USER: GENES 14
USER: genes 0 Translation |==|  0.56135 0.48409 0.46653
USER: genes 1 Rotation |==|  0.42339 0.68201 0.44214 0.95569
USER: genes 2 Torsion [CB]-CA--N-[H2] |==|  0.74914
USER: genes 3 Torsion [N]-CA--CB-[CG] |==|  0.01439
USER: genes 4 Torsion [CA]-CB--CG-[CD] |==|  0.70635
USER: genes 5 Torsion [CB]-CG--CD-[NE] |==|  0.14879
USER: genes 6 Torsion [CG]-CD--NE-[HE] |==|  0.25022
USER: genes 7 Torsion [N]-CA--C-[N] |==|  0.28412
USER: genes 8 Torsion [C]-N--CA-[CB] |==|  0.28333
USER: genes 9 Torsion [N]-CA--CB-[CG] |==|  0.53367
USER: genes 10 Torsion [CA]-CB--CG-[CD1] |==|  0.76628
USER: genes 11 Torsion [N]-CA--C-[N] |==|  0.32231
USER: genes 12 Torsion [C]-N--CA-[C] |==|  0.53115
USER: genes 13 Torsion [N]-CA--C-[O] |==|  0.92539
ROOT
ATOM      1  CA  ARG E   1      42.472 -16.622   6.904  1.00 58.91 LIG 0.27  C 
ENDROOT
BRANCH 1 2
ATOM      2  N   ARG E   1      42.434 -17.764   5.958  1.00 58.46 LIG-0.07  N 
ATOM      3 H2   ARG E   1      42.762 -17.509   5.171  1.00 58.46 LIG 0.28  HD
ATOM      4 H1   ARG E   1      41.592 -18.036   5.855  1.00 58.46 LIG 0.28  HD
ATOM      5 H3   ARG E   1      42.924 -18.433   6.281  1.00 58.46 LIG 0.28  HD
ENDBRANCH 1 2
BRANCH 1 6
ATOM      6  CB  ARG E   1      43.792 -16.598   7.676  1.00 58.69 LIG 0.04  C 
BRANCH 6 7
ATOM      7  CG  ARG E   1      44.774 -17.653   7.206  1.00 58.59 LIG 0.02  C 
BRANCH 7 8
ATOM      8  CD  ARG E   1      44.855 -18.775   8.205  1.00 58.62 LIG 0.14  C 
BRANCH 8 9
ATOM      9  NE  ARG E   1      43.557 -19.358   8.545  1.00 56.95 LIG-0.23  N 
ATOM     10  CZ  ARG E   1      42.766 -18.948   9.533  1.00 57.03 LIG 0.67  C 
ATOM     11  NH2 ARG E   1      41.598 -19.543   9.714  1.00 56.92 LIG-0.23  N 
ATOM     12  NH1 ARG E   1      43.132 -17.960  10.345  1.00 56.49 LIG-0.23  N 
ATOM     13 2HH2 ARG E   1      41.079 -19.286  10.350  1.00 56.92 LIG 0.17  HD
ATOM     14 1HH2 ARG E   1      41.358 -20.187   9.197  1.00 56.92 LIG 0.17  HD
ATOM     15 1HH1 ARG E   1      43.893 -17.573  10.236  1.00 56.49 LIG 0.17  HD
ATOM     16 2HH1 ARG E   1      42.608 -17.707  10.978  1.00 56.49 LIG 0.17  HD
ATOM     17 HE   ARG E   1      43.283 -20.019   8.067  1.00 56.95 LIG 0.18  HD
ENDBRANCH 8 9
ENDBRANCH 7 8
ENDBRANCH 6 7
ENDBRANCH 1 6
BRANCH 1 18
ATOM     18  C   ARG E   1      42.237 -15.302   6.195  1.00 59.32 LIG 0.25  C 
ATOM     19  N   LEU E   2      41.019 -14.785   6.325  1.00 59.84 LIG-0.35  N 
ATOM     20 H    LEU E   2      40.411 -15.117   6.835  1.00 59.84 LIG 0.16  HD
ATOM     21 O    ARG E   1      43.138 -14.762   5.556  1.00 59.24 LIG-0.27  OA
BRANCH 19 22
ATOM     22  CA  LEU E   2      40.608 -13.595   5.600  1.00 60.66 LIG 0.18  C 
BRANCH 22 23
ATOM     23  CB  LEU E   2      39.735 -13.999   4.405  1.00 60.80 LIG 0.04  C 
BRANCH 23 24
ATOM     24  CG  LEU E   2      39.369 -13.010   3.291  1.00 61.28 LIG-0.02  C 
ATOM     25  CD1 LEU E   2      38.155 -12.173   3.679  1.00 62.19 LIG 0.01  C 
ATOM     26  CD2 LEU E   2      40.554 -12.142   2.876  1.00 61.48 LIG 0.01  C 
ENDBRANCH 23 24
ENDBRANCH 22 23
BRANCH 22 27
ATOM     27  C   LEU E   2      39.882 -12.604   6.508  1.00 61.14 LIG 0.24  C 
ATOM     28 O    LEU E   2      38.802 -12.902   7.028  1.00 61.18 LIG-0.27  OA
ATOM     29  N   GLY E   3      40.484 -11.428   6.687  1.00 61.67 LIG-0.35  N 
ATOM     30 H    GLY E   3      41.223 -11.211   6.306  1.00 61.67 LIG 0.16  HD
BRANCH 29 31
ATOM     31  CA  GLY E   3      39.936 -10.384   7.559  1.00 62.18 LIG 0.21  C 
BRANCH 31 32
ATOM     32  C   GLY E   3      40.617  -9.031   7.425  1.00 62.54 LIG 0.21  C 
ATOM     33 O    GLY E   3      41.792  -8.933   7.056  1.00 62.83 LIG-0.29  OA
ENDBRANCH 31 32
ENDBRANCH 29 31
ENDBRANCH 22 27
ENDBRANCH 19 22
ENDBRANCH 1 18
TORSDOF 12
ENDMDL
MODEL 4
USER: ADFR SOLUTION from run 63
USER: SCORE 12.607951 LL:  -0.630 LR: -13.333 RR:   0.000 FEB:  -9.754
USER: RMSD 1.901288
USER: SEED 62
USER: STATUS searching
USER: GENES 14
USER: genes 0 Translation |==|  0.61725 0.46843 0.48943
USER: genes 1 Rotation |==|  0.41444 0.69748 0.45632 0.94919
USER: genes 2 Torsion [CB]-CA--N-[H2] |==|  0.41354
USER: genes 3 Torsion [N]-CA--CB-[CG] |==|  0.80656
USER: genes 4 Torsion [CA]-CB--CG-[CD] |==|  0.32329
USER: genes 5 Torsion [CB]-CG--CD-[NE] |==|  0.80061
USER: genes 6 Torsion [CG]-CD--NE-[HE] |==|  0.10358
USER: genes 7 Torsion [N]-CA--C-[N] |==|  0.29381
USER: genes 8 Torsion [C]-N--CA-[CB] |==|  0.29620
USER: genes 9 Torsion [N]-CA--CB-[CG] |==|  0.52418
USER: genes 10 Torsion [CA]-CB--CG-[CD1] |==|  0.77203
USER: genes 11 Torsion [N]-CA--C-[N] |==|  0.32063
USER: genes 12 Torsion [C]-N--CA-[C] |==|  0.48914
USER: genes 13 Torsion [N]-CA--C-[O] |==|  0.22475
ROOT
ATOM      1  CA  ARG E   1      43.269 -16.974   7.265  1.00 58.91 LIG 0.27  C 
ENDROOT
BRANCH 1 2
ATOM      2  N   ARG E   1      43.217 -18.127   6.333  1.00 58.46 LIG-0.07  N 
ATOM      3 H2   ARG E   1      42.388 -18.451   6.306  1.00 58.46 LIG 0.28  HD
ATOM      4 H1   ARG E   1      43.774 -18.762   6.614  1.00 58.46 LIG 0.28  HD
ATOM      5 H3   ARG E   1      43.457 -17.862   5.518  1.00 58.46 LIG 0.28  HD
ENDBRANCH 1 2
BRANCH 1 6
ATOM      6  CB  ARG E   1      44.642 -16.873   7.930  1.00 58.69 LIG 0.04  C 
BRANCH 6 7
ATOM      7  CG  ARG E   1      44.907 -17.994   8.916  1.00 58.59 LIG 0.02  C 
BRANCH 7 8
ATOM      8  CD  ARG E   1      46.065 -18.836   8.452  1.00 58.62 LIG 0.14  C 
BRANCH 8 9
ATOM      9  NE  ARG E   1      45.759 -19.675   7.293  1.00 56.95 LIG-0.23  N 
ATOM     10  CZ  ARG E   1      46.213 -20.910   7.098  1.00 57.03 LIG 0.67  C 
ATOM     11  NH2 ARG E   1      45.833 -21.575   6.019  1.00 56.92 LIG-0.23  N 
ATOM     12  NH1 ARG E   1      47.048 -21.482   7.962  1.00 56.49 LIG-0.23  N 
ATOM     13 2HH2 ARG E   1      46.120 -22.374   5.883  1.00 56.92 LIG 0.17  HD
ATOM     14 1HH2 ARG E   1      45.298 -21.208   5.454  1.00 56.92 LIG 0.17  HD
ATOM     15 1HH1 ARG E   1      47.304 -21.053   8.661  1.00 56.49 LIG 0.17  HD
ATOM     16 2HH1 ARG E   1      47.332 -22.282   7.820  1.00 56.49 LIG 0.17  HD
ATOM     17 HE   ARG E   1      45.243 -19.343   6.690  1.00 56.95 LIG 0.18  HD
ENDBRANCH 8 9
ENDBRANCH 7 8
ENDBRANCH 6 7
ENDBRANCH 1 6
BRANCH 1 18
ATOM     18  C   ARG E   1      42.910 -15.676   6.567  1.00 59.32 LIG 0.25  C 
ATOM     19  N   LEU E   2      41.706 -15.184   6.847  1.00 59.84 LIG-0.35  N 
ATOM     20 H    LEU E   2      41.179 -15.518   7.438  1.00 59.84 LIG 0.16  HD
ATOM     21 O    ARG E   1      43.706 -15.131   5.806  1.00 59.24 LIG-0.27  OA
BRANCH 19 22
ATOM     22  CA  LEU E   2      41.174 -14.020   6.159  1.00 60.66 LIG 0.18  C 
BRANCH 22 23
ATOM     23  CB  LEU E   2      40.080 -14.460   5.178  1.00 60.80 LIG 0.04  C 
BRANCH 23 24
ATOM     24  CG  LEU E   2      39.459 -13.494   4.161  1.00 61.28 LIG-0.02  C 
ATOM     25  CD1 LEU E   2      38.366 -12.648   4.806  1.00 62.19 LIG 0.01  C 
ATOM     26  CD2 LEU E   2      40.511 -12.635   3.463  1.00 61.48 LIG 0.01  C 
ENDBRANCH 23 24
ENDBRANCH 22 23
BRANCH 22 27
ATOM     27  C   LEU E   2      40.651 -12.975   7.142  1.00 61.14 LIG 0.24  C 
ATOM     28 O    LEU E   2      39.684 -13.223   7.869  1.00 61.18 LIG-0.27  OA
ATOM     29  N   GLY E   3      41.297 -11.808   7.153  1.00 61.67 LIG-0.35  N 
ATOM     30 H    GLY E   3      41.955 -11.626   6.629  1.00 61.67 LIG 0.16  HD
BRANCH 29 31
ATOM     31  CA  GLY E   3      40.943 -10.716   8.064  1.00 62.18 LIG 0.21  C 
BRANCH 31 32
ATOM     32  C   GLY E   3      41.860  -9.506   7.982  1.00 62.54 LIG 0.21  C 
ATOM     33 O    GLY E   3      41.727  -8.654   7.097  1.00 62.83 LIG-0.29  OA
ENDBRANCH 31 32
ENDBRANCH 29 31
ENDBRANCH 22 27
ENDBRANCH 19 22
ENDBRANCH 1 18
TORSDOF 12
ENDMDL
MODEL 5
USER: ADFR SOLUTION from run 159
USER: SCORE 14.023403 LL:  -0.854 LR: -13.279 RR:   0.000 FEB:  -9.700
USER: RMSD 2.696508
USER: SEED 158
USER: STATUS no improvement in best in 9 clusters for 5 generations
USER: GENES 14
USER: genes 0 Translation |==|  0.59667 0.46473 0.47180
USER: genes 1 Rotation |==|  0.42102 0.68413 0.48924 0.95798
USER: genes 2 Torsion [CB]-CA--N-[H2] |==|  0.42391
USER: genes 3 Torsion [N]-CA--CB-[CG] |==|  0.83487
USER: genes 4 Torsion [CA]-CB--CG-[CD] |==|  0.35156
USER: genes 5 Torsion [CB]-CG--CD-[NE] |==|  0.49973
USER: genes 6 Torsion [CG]-CD--NE-[HE] |==|  0.72770
USER: genes 7 Torsion [N]-CA--C-[N] |==|  0.31968
USER: genes 8 Torsion [C]-N--CA-[CB] |==|  0.15530
USER: genes 9 Torsion [N]-CA--CB-[CG] |==|  0.55262
USER: genes 10 Torsion [CA]-CB--CG-[CD1] |==|  0.66582
USER: genes 11 Torsion [N]-CA--C-[N] |==|  0.14143
USER: genes 12 Torsion [C]-N--CA-[C] |==|  0.64016
USER: genes 13 Torsion [N]-CA--C-[O] |==|  0.93994
ROOT
ATOM      1  CA  ARG E   1      42.975 -17.058   6.987  1.00 58.91 LIG 0.27  C 
ENDROOT
BRANCH 1 2
ATOM      2  N   ARG E   1      43.098 -18.131   5.971  1.00 58.46 LIG-0.07  N 
ATOM      3 H2   ARG E   1      42.303 -18.512   5.843  1.00 58.46 LIG 0.28  HD
ATOM      4 H1   ARG E   1      43.678 -18.744   6.254  1.00 58.46 LIG 0.28  HD
ATOM      5 H3   ARG E   1      43.386 -17.783   5.204  1.00 58.46 LIG 0.28  HD
ENDBRANCH 1 2
BRANCH 1 6
ATOM      6  CB  ARG E   1      44.301 -16.848   7.721  1.00 58.69 LIG 0.04  C 
BRANCH 6 7
ATOM      7  CG  ARG E   1      44.786 -18.094   8.436  1.00 58.59 LIG 0.02  C 
BRANCH 7 8
ATOM      8  CD  ARG E   1      46.196 -18.419   8.022  1.00 58.62 LIG 0.14  C 
BRANCH 8 9
ATOM      9  NE  ARG E   1      46.743 -19.610   8.670  1.00 56.95 LIG-0.23  N 
ATOM     10  CZ  ARG E   1      46.524 -20.864   8.283  1.00 57.03 LIG 0.67  C 
ATOM     11  NH2 ARG E   1      47.107 -21.854   8.939  1.00 56.92 LIG-0.23  N 
ATOM     12  NH1 ARG E   1      45.723 -21.139   7.256  1.00 56.49 LIG-0.23  N 
ATOM     13 2HH2 ARG E   1      46.972 -22.668   8.697  1.00 56.92 LIG 0.17  HD
ATOM     14 1HH2 ARG E   1      47.621 -21.684   9.607  1.00 56.92 LIG 0.17  HD
ATOM     15 1HH1 ARG E   1      45.336 -20.501   6.830  1.00 56.49 LIG 0.17  HD
ATOM     16 2HH1 ARG E   1      45.593 -21.955   7.019  1.00 56.49 LIG 0.17  HD
ATOM     17 HE   ARG E   1      47.247 -19.491   9.356  1.00 56.95 LIG 0.18  HD
ENDBRANCH 8 9
ENDBRANCH 7 8
ENDBRANCH 6 7
ENDBRANCH 1 6
BRANCH 1 18
ATOM     18  C   ARG E   1      42.487 -15.760   6.372  1.00 59.32 LIG 0.25  C 
ATOM     19  N   LEU E   2      41.295 -15.339   6.783  1.00 59.84 LIG-0.35  N 
ATOM     20 H    LEU E   2      40.845 -15.716   7.411  1.00 59.84 LIG 0.16  HD
ATOM     21 O    ARG E   1      43.178 -15.152   5.556  1.00 59.24 LIG-0.27  OA
BRANCH 19 22
ATOM     22  CA  LEU E   2      40.643 -14.183   6.190  1.00 60.66 LIG 0.18  C 
BRANCH 22 23
ATOM     23  CB  LEU E   2      40.514 -14.390   4.675  1.00 60.80 LIG 0.04  C 
BRANCH 23 24
ATOM     24  CG  LEU E   2      40.273 -13.222   3.710  1.00 61.28 LIG-0.02  C 
ATOM     25  CD1 LEU E   2      38.973 -13.412   2.935  1.00 62.19 LIG 0.01  C 
ATOM     26  CD2 LEU E   2      40.327 -11.869   4.415  1.00 61.48 LIG 0.01  C 
ENDBRANCH 23 24
ENDBRANCH 22 23
BRANCH 22 27
ATOM     27  C   LEU E   2      39.282 -13.914   6.831  1.00 61.14 LIG 0.24  C 
ATOM     28 O    LEU E   2      38.275 -13.763   6.132  1.00 61.18 LIG-0.27  OA
ATOM     29  N   GLY E   3      39.268 -13.852   8.163  1.00 61.67 LIG-0.35  N 
ATOM     30 H    GLY E   3      39.973 -13.932   8.649  1.00 61.67 LIG 0.16  HD
BRANCH 29 31
ATOM     31  CA  GLY E   3      38.037 -13.639   8.931  1.00 62.18 LIG 0.21  C 
BRANCH 31 32
ATOM     32  C   GLY E   3      38.125 -12.526   9.963  1.00 62.54 LIG 0.21  C 
ATOM     33 O    GLY E   3      39.212 -12.139  10.405  1.00 62.83 LIG-0.29  OA
ENDBRANCH 31 32
ENDBRANCH 29 31
ENDBRANCH 22 27
ENDBRANCH 19 22
ENDBRANCH 1 18
TORSDOF 12
ENDMDL
MODEL 6
USER: ADFR SOLUTION from run 93
USER: SCORE 14.005476 LL:  -0.800 LR: -13.211 RR:   0.000 FEB:  -9.632
USER: RMSD 3.229496
USER: SEED 92
USER: STATUS no improvement in best in 5 clusters for 5 generations
USER: GENES 14
USER: genes 0 Translation |==|  0.55264 0.45592 0.45241
USER: genes 1 Rotation |==|  0.48671 0.54662 0.49809 0.99764
USER: genes 2 Torsion [CB]-CA--N-[H2] |==|  0.04605
USER: genes 3 Torsion [N]-CA--CB-[CG] |==|  0.72279
USER: genes 4 Torsion [CA]-CB--CG-[CD] |==|  0.32539
USER: genes 5 Torsion [CB]-CG--CD-[NE] |==|  0.89304
USER: genes 6 Torsion [CG]-CD--NE-[HE] |==|  0.03082
USER: genes 7 Torsion [N]-CA--C-[N] |==|  0.40978
USER: genes 8 Torsion [C]-N--CA-[CB] |==|  0.82730
USER: genes 9 Torsion [N]-CA--CB-[CG] |==|  0.68165
USER: genes 10 Torsion [CA]-CB--CG-[CD1] |==|  0.77143
USER: genes 11 Torsion [N]-CA--C-[N] |==|  0.40491
USER: genes 12 Torsion [C]-N--CA-[C] |==|  0.77559
USER: genes 13 Torsion [N]-CA--C-[O] |==|  0.98183
ROOT
ATOM      1  CA  ARG E   1      42.348 -17.256   6.682  1.00 58.91 LIG 0.27  C 
ENDROOT
BRANCH 1 2
ATOM      2  N   ARG E   1      43.098 -18.032   5.664  1.00 58.46 LIG-0.07  N 
ATOM      3 H2   ARG E   1      43.674 -18.575   6.069  1.00 58.46 LIG 0.28  HD
ATOM      4 H1   ARG E   1      43.541 -17.472   5.131  1.00 58.46 LIG 0.28  HD
ATOM      5 H3   ARG E   1      42.528 -18.513   5.179  1.00 58.46 LIG 0.28  HD
ENDBRANCH 1 2
BRANCH 1 6
ATOM      6  CB  ARG E   1      43.053 -17.312   8.038  1.00 58.69 LIG 0.04  C 
BRANCH 6 7
ATOM      7  CG  ARG E   1      42.437 -18.323   8.985  1.00 58.59 LIG 0.02  C 
BRANCH 7 8
ATOM      8  CD  ARG E   1      43.433 -19.399   9.321  1.00 58.62 LIG 0.14  C 
BRANCH 8 9
ATOM      9  NE  ARG E   1      44.270 -19.804   8.192  1.00 56.95 LIG-0.23  N 
ATOM     10  CZ  ARG E   1      45.071 -20.866   8.172  1.00 57.03 LIG 0.67  C 
ATOM     11  NH2 ARG E   1      45.753 -21.139   7.072  1.00 56.92 LIG-0.23  N 
ATOM     12  NH1 ARG E   1      45.204 -21.650   9.239  1.00 56.49 LIG-0.23  N 
ATOM     13 2HH2 ARG E   1      46.274 -21.824   7.048  1.00 56.92 LIG 0.17  HD
ATOM     14 1HH2 ARG E   1      45.676 -20.633   6.380  1.00 56.92 LIG 0.17  HD
ATOM     15 1HH1 ARG E   1      44.769 -21.474   9.959  1.00 56.49 LIG 0.17  HD
ATOM     16 2HH1 ARG E   1      45.726 -22.333   9.208  1.00 56.49 LIG 0.17  HD
ATOM     17 HE   ARG E   1      44.242 -19.315   7.485  1.00 56.95 LIG 0.18  HD
ENDBRANCH 8 9
ENDBRANCH 7 8
ENDBRANCH 6 7
ENDBRANCH 1 6
BRANCH 1 18
ATOM     18  C   ARG E   1      42.134 -15.820   6.243  1.00 59.32 LIG 0.25  C 
ATOM     19  N   LEU E   2      41.006 -15.251   6.658  1.00 59.84 LIG-0.35  N 
ATOM     20 H    LEU E   2      40.455 -15.623   7.203  1.00 59.84 LIG 0.16  HD
ATOM     21 O    ARG E   1      42.974 -15.240   5.557  1.00 59.24 LIG-0.27  OA
BRANCH 19 22
ATOM     22  CA  LEU E   2      40.605 -13.927   6.212  1.00 60.66 LIG 0.18  C 
BRANCH 22 23
ATOM     23  CB  LEU E   2      41.647 -12.897   6.665  1.00 60.80 LIG 0.04  C 
BRANCH 23 24
ATOM     24  CG  LEU E   2      41.318 -11.797   7.681  1.00 61.28 LIG-0.02  C 
ATOM     25  CD1 LEU E   2      40.633 -10.614   7.004  1.00 62.19 LIG 0.01  C 
ATOM     26  CD2 LEU E   2      40.510 -12.325   8.865  1.00 61.48 LIG 0.01  C 
ENDBRANCH 23 24
ENDBRANCH 22 23
BRANCH 22 27
ATOM     27  C   LEU E   2      40.399 -13.881   4.699  1.00 61.14 LIG 0.24  C 
ATOM     28 O    LEU E   2      41.104 -14.560   3.946  1.00 61.18 LIG-0.27  OA
ATOM     29  N   GLY E   3      39.431 -13.072   4.266  1.00 61.67 LIG-0.35  N 
ATOM     30 H    GLY E   3      38.956 -12.580   4.788  1.00 61.67 LIG 0.16  HD
BRANCH 29 31
ATOM     31  CA  GLY E   3      39.083 -12.943   2.848  1.00 62.18 LIG 0.21  C 
BRANCH 31 32
ATOM     32  C   GLY E   3      39.997 -12.021   2.057  1.00 62.54 LIG 0.21  C 
ATOM     33 O    GLY E   3      40.873 -11.349   2.612  1.00 62.83 LIG-0.29  OA
ENDBRANCH 31 32
ENDBRANCH 29 31
ENDBRANCH 22 27
ENDBRANCH 19 22
ENDBRANCH 1 18
TORSDOF 12
ENDMDL
MODEL 7
USER: ADFR SOLUTION from run 159
USER: SCORE 12.728508 LL:  -0.715 LR: -12.981 RR:   0.000 FEB:  -9.402
USER: RMSD 2.617336
USER: SEED 158
USER: STATUS no improvement in best in 9 clusters for 5 generations
USER: GENES 14
USER: genes 0 Translation |==|  0.58328 0.48150 0.45088
USER: genes 1 Rotation |==|  0.41150 0.71789 0.53337 0.93998
USER: genes 2 Torsion [CB]-CA--N-[H2] |==|  0.91712
USER: genes 3 Torsion [N]-CA--CB-[CG] |==|  0.57233
USER: genes 4 Torsion [CA]-CB--CG-[CD] |==|  0.24316
USER: genes 5 Torsion [CB]-CG--CD-[NE] |==|  0.78281
USER: genes 6 Torsion [CG]-CD--NE-[HE] |==|  0.76536
USER: genes 7 Torsion [N]-CA--C-[N] |==|  0.34362
USER: genes 8 Torsion [C]-N--CA-[CB] |==|  0.15752
USER: genes 9 Torsion [N]-CA--CB-[CG] |==|  0.62740
USER: genes 10 Torsion [CA]-CB--CG-[CD1] |==|  0.79303
USER: genes 11 Torsion [N]-CA--C-[N] |==|  0.24441
USER: genes 12 Torsion [C]-N--CA-[C] |==|  0.72602
USER: genes 13 Torsion [N]-CA--C-[O] |==|  0.25312
ROOT
ATOM      1  CA  ARG E   1      42.785 -16.680   6.657  1.00 58.91 LIG 0.27  C 
ENDROOT
BRANCH 1 2
ATOM      2  N   ARG E   1      42.882 -17.714   5.598  1.00 58.46 LIG-0.07  N 
ATOM      3 H2   ARG E   1      43.644 -17.609   5.150  1.00 58.46 LIG 0.28  HD
ATOM      4 H1   ARG E   1      42.195 -17.632   5.038  1.00 58.46 LIG 0.28  HD
ATOM      5 H3   ARG E   1      42.867 -18.522   5.970  1.00 58.46 LIG 0.28  HD
ENDBRANCH 1 2
BRANCH 1 6
ATOM      6  CB  ARG E   1      44.174 -16.275   7.154  1.00 58.69 LIG 0.04  C 
BRANCH 6 7
ATOM      7  CG  ARG E   1      44.165 -15.749   8.575  1.00 58.59 LIG 0.02  C 
BRANCH 7 8
ATOM      8  CD  ARG E   1      44.310 -16.883   9.554  1.00 58.62 LIG 0.14  C 
BRANCH 8 9
ATOM      9  NE  ARG E   1      43.076 -17.638   9.771  1.00 56.95 LIG-0.23  N 
ATOM     10  CZ  ARG E   1      42.744 -18.762   9.142  1.00 57.03 LIG 0.67  C 
ATOM     11  NH2 ARG E   1      41.608 -19.366   9.456  1.00 56.92 LIG-0.23  N 
ATOM     12  NH1 ARG E   1      43.525 -19.283   8.199  1.00 56.49 LIG-0.23  N 
ATOM     13 2HH2 ARG E   1      41.384 -20.093   9.056  1.00 56.92 LIG 0.17  HD
ATOM     14 1HH2 ARG E   1      41.095 -19.031  10.060  1.00 56.92 LIG 0.17  HD
ATOM     15 1HH1 ARG E   1      44.261 -18.892   7.986  1.00 56.49 LIG 0.17  HD
ATOM     16 2HH1 ARG E   1      43.294 -20.010   7.803  1.00 56.49 LIG 0.17  HD
ATOM     17 HE   ARG E   1      42.522 -17.330  10.352  1.00 56.95 LIG 0.18  HD
ENDBRANCH 8 9
ENDBRANCH 7 8
ENDBRANCH 6 7
ENDBRANCH 1 6
BRANCH 1 18
ATOM     18  C   ARG E   1      42.005 -15.468   6.184  1.00 59.32 LIG 0.25  C 
ATOM     19  N   LEU E   2      40.952 -15.134   6.924  1.00 59.84 LIG-0.35  N 
ATOM     20 H    LEU E   2      40.750 -15.514   7.668  1.00 59.84 LIG 0.16  HD
ATOM     21 O    ARG E   1      42.356 -14.847   5.182  1.00 59.24 LIG-0.27  OA
BRANCH 19 22
ATOM     22  CA  LEU E   2      40.038 -14.077   6.524  1.00 60.66 LIG 0.18  C 
BRANCH 22 23
ATOM     23  CB  LEU E   2      39.472 -14.389   5.133  1.00 60.80 LIG 0.04  C 
BRANCH 23 24
ATOM     24  CG  LEU E   2      39.394 -13.328   4.028  1.00 61.28 LIG-0.02  C 
ATOM     25  CD1 LEU E   2      38.266 -12.338   4.299  1.00 62.19 LIG 0.01  C 
ATOM     26  CD2 LEU E   2      40.731 -12.625   3.804  1.00 61.48 LIG 0.01  C 
ENDBRANCH 23 24
ENDBRANCH 22 23
BRANCH 22 27
ATOM     27  C   LEU E   2      38.921 -13.882   7.547  1.00 61.14 LIG 0.24  C 
ATOM     28 O    LEU E   2      37.848 -14.483   7.431  1.00 61.18 LIG-0.27  OA
ATOM     29  N   GLY E   3      39.184 -13.036   8.544  1.00 61.67 LIG-0.35  N 
ATOM     30 H    GLY E   3      39.921 -12.598   8.613  1.00 61.67 LIG 0.16  HD
BRANCH 29 31
ATOM     31  CA  GLY E   3      38.232 -12.769   9.627  1.00 62.18 LIG 0.21  C 
BRANCH 31 32
ATOM     32  C   GLY E   3      37.418 -11.497   9.449  1.00 62.54 LIG 0.21  C 
ATOM     33 O    GLY E   3      36.324 -11.504   8.876  1.00 62.83 LIG-0.29  OA
ENDBRANCH 31 32
ENDBRANCH 29 31
ENDBRANCH 22 27
ENDBRANCH 19 22
ENDBRANCH 1 18
TORSDOF 12
ENDMDL
MODEL 8
USER: ADFR SOLUTION from run 11
USER: SCORE 13.751482 LL:  -1.056 LR: -12.760 RR:   0.000 FEB:  -9.180
USER: RMSD 3.383708
USER: SEED 524694
USER: STATUS searching
USER: GENES 14
USER: genes 0 Translation |==|  0.55187 0.45250 0.44599
USER: genes 1 Rotation |==|  0.50871 0.52831 0.49793 0.99912
USER: genes 2 Torsion [CB]-CA--N-[H2] |==|  0.04128
USER: genes 3 Torsion [N]-CA--CB-[CG] |==|  0.73922
USER: genes 4 Torsion [CA]-CB--CG-[CD] |==|  0.49075
USER: genes 5 Torsion [CB]-CG--CD-[NE] |==|  0.51023
USER: genes 6 Torsion [CG]-CD--NE-[HE] |==|  0.15823
USER: genes 7 Torsion [N]-CA--C-[N] |==|  0.40628
USER: genes 8 Torsion [C]-N--CA-[CB] |==|  0.81774
USER: genes 9 Torsion [N]-CA--CB-[CG] |==|  0.65411
USER: genes 10 Torsion [CA]-CB--CG-[CD1] |==|  0.79121
USER: genes 11 Torsion [N]-CA--C-[N] |==|  0.44427
USER: genes 12 Torsion [C]-N--CA-[C] |==|  0.73619
USER: genes 13 Torsion [N]-CA--C-[O] |==|  0.31761
ROOT
ATOM      1  CA  ARG E   1      42.337 -17.333   6.580  1.00 58.91 LIG 0.27  C 
ENDROOT
BRANCH 1 2
ATOM      2  N   ARG E   1      43.157 -18.025   5.556  1.00 58.46 LIG-0.07  N 
ATOM      3 H2   ARG E   1      43.718 -18.589   5.956  1.00 58.46 LIG 0.28  HD
ATOM      4 H1   ARG E   1      43.622 -17.423   5.092  1.00 58.46 LIG 0.28  HD
ATOM      5 H3   ARG E   1      42.625 -18.477   5.005  1.00 58.46 LIG 0.28  HD
ENDBRANCH 1 2
BRANCH 1 6
ATOM      6  CB  ARG E   1      42.940 -17.514   7.975  1.00 58.69 LIG 0.04  C 
BRANCH 6 7
ATOM      7  CG  ARG E   1      42.348 -18.689   8.728  1.00 58.59 LIG 0.02  C 
BRANCH 7 8
ATOM      8  CD  ARG E   1      43.038 -18.860  10.055  1.00 58.62 LIG 0.14  C 
BRANCH 8 9
ATOM      9  NE  ARG E   1      42.585 -20.027  10.811  1.00 56.95 LIG-0.23  N 
ATOM     10  CZ  ARG E   1      42.083 -19.996  12.043  1.00 57.03 LIG 0.67  C 
ATOM     11  NH2 ARG E   1      41.678 -21.124  12.604  1.00 56.92 LIG-0.23  N 
ATOM     12  NH1 ARG E   1      41.990 -18.855  12.721  1.00 56.49 LIG-0.23  N 
ATOM     13 2HH2 ARG E   1      41.352 -21.115  13.400  1.00 56.92 LIG 0.17  HD
ATOM     14 1HH2 ARG E   1      41.741 -21.866  12.173  1.00 56.92 LIG 0.17  HD
ATOM     15 1HH1 ARG E   1      42.258 -18.120  12.365  1.00 56.49 LIG 0.17  HD
ATOM     16 2HH1 ARG E   1      41.663 -18.853  13.516  1.00 56.49 LIG 0.17  HD
ATOM     17 HE   ARG E   1      42.647 -20.795  10.428  1.00 56.95 LIG 0.18  HD
ENDBRANCH 8 9
ENDBRANCH 7 8
ENDBRANCH 6 7
ENDBRANCH 1 6
BRANCH 1 18
ATOM     18  C   ARG E   1      42.161 -15.862   6.255  1.00 59.32 LIG 0.25  C 
ATOM     19  N   LEU E   2      40.997 -15.327   6.610  1.00 59.84 LIG-0.35  N 
ATOM     20 H    LEU E   2      40.398 -15.743   7.065  1.00 59.84 LIG 0.16  HD
ATOM     21 O    ARG E   1      43.061 -15.228   5.706  1.00 59.24 LIG-0.27  OA
BRANCH 19 22
ATOM     22  CA  LEU E   2      40.636 -13.966   6.250  1.00 60.66 LIG 0.18  C 
BRANCH 22 23
ATOM     23  CB  LEU E   2      41.576 -12.982   6.959  1.00 60.80 LIG 0.04  C 
BRANCH 23 24
ATOM     24  CG  LEU E   2      41.049 -11.853   7.854  1.00 61.28 LIG-0.02  C 
ATOM     25  CD1 LEU E   2      40.464 -10.719   7.018  1.00 62.19 LIG 0.01  C 
ATOM     26  CD2 LEU E   2      40.061 -12.359   8.903  1.00 61.48 LIG 0.01  C 
ENDBRANCH 23 24
ENDBRANCH 22 23
BRANCH 22 27
ATOM     27  C   LEU E   2      40.657 -13.760   4.736  1.00 61.14 LIG 0.24  C 
ATOM     28 O    LEU E   2      41.291 -14.527   4.005  1.00 61.18 LIG-0.27  OA
ATOM     29  N   GLY E   3      39.962 -12.717   4.279  1.00 61.67 LIG-0.35  N 
ATOM     30 H    GLY E   3      39.541 -12.168   4.790  1.00 61.67 LIG 0.16  HD
BRANCH 29 31
ATOM     31  CA  GLY E   3      39.850 -12.406   2.851  1.00 62.18 LIG 0.21  C 
BRANCH 31 32
ATOM     32  C   GLY E   3      40.862 -11.388   2.349  1.00 62.54 LIG 0.21  C 
ATOM     33 O    GLY E   3      41.738 -11.696   1.533  1.00 62.83 LIG-0.29  OA
ENDBRANCH 31 32
ENDBRANCH 29 31
ENDBRANCH 22 27
ENDBRANCH 19 22
ENDBRANCH 1 18
TORSDOF 12
ENDMDL
