MODEL 1
USER: ADFR SOLUTION from run 99
USER: SCORE 28.315262 LL:  -4.937 LR: -25.686 RR:   0.000 FEB: -18.229
USER: RMSD 3.522855
USER: SEED 98
USER: STATUS no improvement in best in 4 clusters for 5 generations
USER: GENES 27
USER: genes 0 Translation |==|  0.44990 0.48880 0.56260
USER: genes 1 Rotation |==|  0.46643 0.52235 0.54591 0.99625
USER: genes 2 Torsion [N]-C--CA-[N] |==|  0.34887
USER: genes 3 Torsion [C]-CA--N-[C] |==|  0.69577
USER: genes 4 Torsion [N]-C--CA-[N] |==|  0.37218
USER: genes 5 Torsion [C]-CA--CB-[CG2] |==|  0.16364
USER: genes 6 Torsion [CA]-CB--CG1-[CD1] |==|  0.85927
USER: genes 7 Torsion [C]-CA--N-[C] |==|  0.65518
USER: genes 8 Torsion [N]-C--CA-[N] |==|  0.44951
USER: genes 9 Torsion [C]-CA--N-[C] |==|  0.68174
USER: genes 10 Torsion [N]-C--CA-[CB] |==|  0.80938
USER: genes 11 Torsion [C]-CA--CB-[CG] |==|  0.52597
USER: genes 12 Torsion [CA]-CB--CG-[CD] |==|  0.39041
USER: genes 13 Torsion [CB]-CG--CD-[NE2] |==|  0.77118
USER: genes 14 Torsion [C]-CA--CB-[CG2] |==|  0.29951
USER: genes 15 Torsion [CA]-CB--CG1-[CD1] |==|  0.72247
USER: genes 16 Torsion [C]-N--CA-[CB] |==|  0.34694
USER: genes 17 Torsion [N]-CA--CB-[CG] |==|  0.66449
USER: genes 18 Torsion [CA]-CB--CG-[OD1] |==|  0.03701
USER: genes 19 Torsion [N]-CA--C-[N] |==|  0.43642
USER: genes 20 Torsion [C]-N--CA-[C] |==|  0.65992
USER: genes 21 Torsion [N]-CA--CB-[CG] |==|  0.15531
USER: genes 22 Torsion [CA]-CB--CG-[CD] |==|  0.30756
USER: genes 23 Torsion [CB]-CG--CD-[NE] |==|  0.50893
USER: genes 24 Torsion [CG]-CD--NE-[HE] |==|  0.75184
USER: genes 25 Torsion [N]-CA--C-[N] |==|  0.46110
USER: genes 26 Torsion [N]-CA--C-[O] |==|  0.28637
ROOT
ATOM      1  C   ILE B 120      -2.520  32.213  56.316  1.00 16.04 LIG 0.24  C 
ATOM      2 O    ILE B 120      -3.574  32.027  55.708  1.00 15.27 LIG-0.27  OA
ATOM      3  N   ASN B 121      -2.408  32.121  57.641  1.00 16.46 LIG-0.35  N 
ATOM      4 H    ASN B 121      -1.655  32.151  58.057  1.00 16.46 LIG 0.16  HD
ENDROOT
BRANCH 1 5
ATOM      5  CA  ILE B 120      -1.228  32.445  55.547  1.00 16.12 LIG 0.18  C 
BRANCH 5 6
ATOM      6  N   ILE B 120      -1.170  31.351  54.535  1.00 14.41 LIG-0.35  N 
ATOM      7 H    ILE B 120      -1.753  31.438  53.909  1.00 14.41 LIG 0.16  HD
ATOM      8  C   ILE B 119      -0.310  30.336  54.582  1.00 14.21 LIG 0.24  C 
ATOM      9 O    ILE B 119       0.514  30.146  55.484  1.00 13.95 LIG-0.27  OA
BRANCH 8 10
ATOM     10  CA  ILE B 119      -0.435  29.314  53.463  1.00 14.01 LIG 0.18  C 
BRANCH 10 11
ATOM     11  CB  ILE B 119      -1.100  28.090  54.132  1.00 14.26 LIG 0.01  C 
ATOM     12  CG2 ILE B 119      -2.450  28.465  54.723  1.00 14.00 LIG 0.01  C 
BRANCH 11 13
ATOM     13  CG1 ILE B 119      -1.350  26.975  53.133  1.00 15.18 LIG 0.00  C 
ATOM     14  CD1 ILE B 119      -2.071  27.450  51.888  1.00 12.51 LIG 0.01  C 
ENDBRANCH 11 13
ENDBRANCH 10 11
BRANCH 10 15
ATOM     15  N   ILE B 119       0.923  29.036  52.962  1.00 12.55 LIG-0.35  N 
ATOM     16 H    ILE B 119       1.469  28.774  53.573  1.00 12.55 LIG 0.16  HD
ATOM     17  C   GLN B 118       1.275  29.177  51.684  1.00 12.00 LIG 0.24  C 
ATOM     18 O    GLN B 118       0.475  29.437  50.770  1.00 12.29 LIG-0.27  OA
BRANCH 17 19
ATOM     19  CA  GLN B 118       2.772  29.092  51.375  1.00 10.88 LIG 0.18  C 
BRANCH 19 20
ATOM     20  N   GLN B 118       2.977  28.831  49.950  1.00  9.13 LIG-0.35  N 
ATOM     21  C   PRO B 117       3.525  27.685  49.531  1.00  5.97 LIG 0.25  C 
ATOM     22 O    PRO B 117       3.970  26.840  50.308  1.00  4.88 LIG-0.27  OA
ATOM     23 H    GLN B 118       2.719  29.465  49.428  1.00  9.13 LIG 0.16  HD
BRANCH 21 24
ATOM     24  CA  PRO B 117       3.696  27.539  47.996  1.00  4.52 LIG 0.35  C 
ATOM     25  CB  PRO B 117       2.349  27.410  47.296  1.00  4.68 LIG 0.05  C 
ATOM     26  CG  PRO B 117       2.499  26.291  46.325  1.00  4.01 LIG 0.04  C 
ATOM     27  CD  PRO B 117       3.457  25.349  46.998  1.00  3.18 LIG 0.32  C 
ATOM     28  N   PRO B 117       4.381  26.279  47.668  1.00  3.80 LIG 0.32  N 
ENDBRANCH 21 24
ENDBRANCH 19 20
BRANCH 19 29
ATOM     29  CB  GLN B 118       3.401  30.406  51.724  1.00 12.35 LIG 0.04  C 
BRANCH 29 30
ATOM     30  CG  GLN B 118       4.806  30.499  51.255  1.00 13.74 LIG 0.10  C 
BRANCH 30 31
ATOM     31  CD  GLN B 118       5.092  31.842  50.737  1.00 14.95 LIG 0.21  C 
ATOM     32  NE2 GLN B 118       4.720  32.071  49.488  1.00 14.23 LIG-0.37  N 
ATOM     33 22HE GLN B 118       4.843  32.847  49.138  1.00 14.23 LIG 0.16  HD
ATOM     34 21HE GLN B 118       4.354  31.444  49.027  1.00 14.23 LIG 0.16  HD
ATOM     35 OE1  GLN B 118       5.617  32.692  51.446  1.00 17.00 LIG-0.27  OA
ENDBRANCH 30 31
ENDBRANCH 29 30
ENDBRANCH 19 29
ENDBRANCH 17 19
ENDBRANCH 10 15
ENDBRANCH 8 10
ENDBRANCH 5 6
BRANCH 5 36
ATOM     36  CB  ILE B 120      -1.290  33.825  54.940  1.00 15.78 LIG 0.01  C 
ATOM     37  CG2 ILE B 120      -0.337  34.752  55.682  1.00 15.40 LIG 0.01  C 
BRANCH 36 38
ATOM     38  CG1 ILE B 120      -0.905  33.824  53.465  1.00 16.31 LIG 0.00  C 
ATOM     39  CD1 ILE B 120       0.557  34.282  53.231  1.00 16.15 LIG 0.01  C 
ENDBRANCH 36 38
ENDBRANCH 5 36
ENDBRANCH 1 5
BRANCH 3 40
ATOM     40  CA  ASN B 121      -3.557  31.959  58.512  1.00 16.96 LIG 0.18  C 
BRANCH 40 41
ATOM     41  CB  ASN B 121      -3.395  30.727  59.396  1.00 15.28 LIG 0.14  C 
BRANCH 41 42
ATOM     42  CG  ASN B 121      -4.513  29.727  59.189  1.00 13.24 LIG 0.22  C 
ATOM     43 OD1  ASN B 121      -5.266  29.840  58.220  1.00 13.18 LIG-0.27  OA
ATOM     44  ND2 ASN B 121      -4.654  28.740  60.102  1.00 12.91 LIG-0.37  N 
ATOM     45 22HD ASN B 121      -4.111  28.688  60.768  1.00 12.91 LIG 0.16  HD
ATOM     46 21HD ASN B 121      -5.286  28.163  60.017  1.00 12.91 LIG 0.16  HD
ENDBRANCH 41 42
ENDBRANCH 40 41
BRANCH 40 47
ATOM     47  C   ASN B 121      -3.652  33.228  59.382  1.00 17.96 LIG 0.24  C 
ATOM     48  N   ARG B 122      -4.843  33.519  59.901  1.00 20.13 LIG-0.35  N 
ATOM     49 H    ARG B 122      -5.555  33.082  59.694  1.00 20.13 LIG 0.16  HD
ATOM     50 O    ASN B 121      -2.680  33.961  59.478  1.00 18.88 LIG-0.27  OA
BRANCH 48 51
ATOM     51  CA  ARG B 122      -5.096  34.602  60.877  1.00 22.24 LIG 0.18  C 
BRANCH 51 52
ATOM     52  CB  ARG B 122      -6.117  35.574  60.330  1.00 21.82 LIG 0.04  C 
BRANCH 52 53
ATOM     53  CG  ARG B 122      -7.410  34.942  59.933  1.00 24.56 LIG 0.02  C 
BRANCH 53 54
ATOM     54  CD  ARG B 122      -8.522  35.358  60.876  1.00 26.52 LIG 0.14  C 
BRANCH 54 55
ATOM     55  NE  ARG B 122      -9.823  34.732  60.618  1.00 28.40 LIG-0.23  N 
ATOM     56  CZ  ARG B 122     -10.286  33.590  61.142  1.00 28.18 LIG 0.67  C 
ATOM     57  NH2 ARG B 122     -11.496  33.166  60.784  1.00 29.45 LIG-0.23  N 
ATOM     58  NH1 ARG B 122      -9.572  32.840  61.983  1.00 26.03 LIG-0.23  N 
ATOM     59 1HH2 ARG B 122     -11.965  33.623  60.225  1.00 29.45 LIG 0.17  HD
ATOM     60 2HH2 ARG B 122     -11.810  32.435  61.111  1.00 29.45 LIG 0.17  HD
ATOM     61 1HH1 ARG B 122      -8.779  33.084  62.209  1.00 26.03 LIG 0.17  HD
ATOM     62 2HH1 ARG B 122      -9.905  32.113  62.299  1.00 26.03 LIG 0.17  HD
ATOM     63 HE   ARG B 122     -10.344  35.143  60.071  1.00 28.40 LIG 0.18  HD
ENDBRANCH 54 55
ENDBRANCH 53 54
ENDBRANCH 52 53
ENDBRANCH 51 52
BRANCH 51 64
ATOM     64  C   ARG B 122      -5.705  33.861  62.043  1.00 23.14 LIG 0.24  C 
ATOM     65 O    ARG B 122      -6.054  32.694  61.898  1.00 23.63 LIG-0.27  OA
ATOM     66  N   PRO B 123      -5.794  34.506  63.218  1.00 23.72 LIG-0.34  N 
ATOM     67  CA  PRO B 123      -6.307  33.821  64.397  1.00 24.06 LIG 0.17  C 
ATOM     68  CD  PRO B 123      -5.729  35.966  63.430  1.00 24.11 LIG 0.13  C 
ATOM     69  CB  PRO B 123      -5.780  34.686  65.537  1.00 24.84 LIG 0.04  C 
ATOM     70  CG  PRO B 123      -5.699  36.072  64.963  1.00 25.19 LIG 0.02  C 
BRANCH 67 71
ATOM     71  C   PRO B 123      -7.855  33.762  64.429  1.00 23.73 LIG 0.22  C 
ATOM     72 O    PRO B 123      -8.442  32.708  64.136  1.00 24.65 LIG-0.29  OA
ENDBRANCH 67 71
ENDBRANCH 51 64
ENDBRANCH 48 51
ENDBRANCH 40 47
ENDBRANCH 3 40
TORSDOF 25
ENDMDL
MODEL 2
USER: ADFR SOLUTION from run 30
USER: SCORE 27.030775 LL:  -4.859 LR: -25.237 RR:   0.000 FEB: -17.780
USER: RMSD 4.072852
USER: SEED 29
USER: STATUS no improvement in best in 3 clusters for 5 generations
USER: GENES 27
USER: genes 0 Translation |==|  0.45165 0.48197 0.55769
USER: genes 1 Rotation |==|  0.51160 0.53199 0.52575 0.99818
USER: genes 2 Torsion [N]-C--CA-[N] |==|  0.31605
USER: genes 3 Torsion [C]-CA--N-[C] |==|  0.69039
USER: genes 4 Torsion [N]-C--CA-[N] |==|  0.37480
USER: genes 5 Torsion [C]-CA--CB-[CG2] |==|  0.13678
USER: genes 6 Torsion [CA]-CB--CG1-[CD1] |==|  0.89927
USER: genes 7 Torsion [C]-CA--N-[C] |==|  0.65482
USER: genes 8 Torsion [N]-C--CA-[N] |==|  0.43077
USER: genes 9 Torsion [C]-CA--N-[C] |==|  0.67362
USER: genes 10 Torsion [N]-C--CA-[CB] |==|  0.94979
USER: genes 11 Torsion [C]-CA--CB-[CG] |==|  0.44463
USER: genes 12 Torsion [CA]-CB--CG-[CD] |==|  0.19607
USER: genes 13 Torsion [CB]-CG--CD-[NE2] |==|  0.13811
USER: genes 14 Torsion [C]-CA--CB-[CG2] |==|  0.16246
USER: genes 15 Torsion [CA]-CB--CG1-[CD1] |==|  0.21076
USER: genes 16 Torsion [C]-N--CA-[CB] |==|  0.42567
USER: genes 17 Torsion [N]-CA--CB-[CG] |==|  0.72629
USER: genes 18 Torsion [CA]-CB--CG-[OD1] |==|  0.09752
USER: genes 19 Torsion [N]-CA--C-[N] |==|  0.31410
USER: genes 20 Torsion [C]-N--CA-[C] |==|  0.24612
USER: genes 21 Torsion [N]-CA--CB-[CG] |==|  0.79573
USER: genes 22 Torsion [CA]-CB--CG-[CD] |==|  0.81484
USER: genes 23 Torsion [CB]-CG--CD-[NE] |==|  0.48391
USER: genes 24 Torsion [CG]-CD--NE-[HE] |==|  0.64035
USER: genes 25 Torsion [N]-CA--C-[N] |==|  0.37471
USER: genes 26 Torsion [N]-CA--C-[O] |==|  0.97652
ROOT
ATOM      1  C   ILE B 120      -2.477  32.059  56.195  1.00 16.04 LIG 0.24  C 
ATOM      2 O    ILE B 120      -3.567  32.074  55.625  1.00 15.27 LIG-0.27  OA
ATOM      3  N   ASN B 121      -2.319  31.728  57.476  1.00 16.46 LIG-0.35  N 
ATOM      4 H    ASN B 121      -1.551  31.620  57.847  1.00 16.46 LIG 0.16  HD
ENDROOT
BRANCH 1 5
ATOM      5  CA  ILE B 120      -1.201  32.309  55.404  1.00 16.12 LIG 0.18  C 
BRANCH 5 6
ATOM      6  N   ILE B 120      -1.145  31.215  54.392  1.00 14.41 LIG-0.35  N 
ATOM      7 H    ILE B 120      -1.756  31.278  53.790  1.00 14.41 LIG 0.16  HD
ATOM      8  C   ILE B 119      -0.246  30.233  54.405  1.00 14.21 LIG 0.24  C 
ATOM      9 O    ILE B 119       0.621  30.076  55.272  1.00 13.95 LIG-0.27  OA
BRANCH 8 10
ATOM     10  CA  ILE B 119      -0.379  29.203  53.293  1.00 14.01 LIG 0.18  C 
BRANCH 10 11
ATOM     11  CB  ILE B 119      -0.992  27.966  53.986  1.00 14.26 LIG 0.01  C 
ATOM     12  CG2 ILE B 119      -2.206  28.357  54.815  1.00 14.00 LIG 0.01  C 
BRANCH 11 13
ATOM     13  CG1 ILE B 119      -1.462  26.934  52.976  1.00 15.18 LIG 0.00  C 
ATOM     14  CD1 ILE B 119      -2.045  27.560  51.725  1.00 12.51 LIG 0.01  C 
ENDBRANCH 11 13
ENDBRANCH 10 11
BRANCH 10 15
ATOM     15  N   ILE B 119       0.970  28.957  52.752  1.00 12.55 LIG-0.35  N 
ATOM     16 H    ILE B 119       1.541  28.713  53.348  1.00 12.55 LIG 0.16  HD
ATOM     17  C   GLN B 118       1.279  29.099  51.463  1.00 12.00 LIG 0.24  C 
ATOM     18 O    GLN B 118       0.445  29.333  50.573  1.00 12.29 LIG-0.27  OA
BRANCH 17 19
ATOM     19  CA  GLN B 118       2.767  29.051  51.109  1.00 10.88 LIG 0.18  C 
BRANCH 19 20
ATOM     20  N   GLN B 118       2.939  28.630  49.718  1.00  9.13 LIG-0.35  N 
ATOM     21  C   PRO B 117       3.585  27.498  49.416  1.00  5.97 LIG 0.25  C 
ATOM     22 O    PRO B 117       4.146  26.807  50.267  1.00  4.88 LIG-0.27  OA
ATOM     23 H    GLN B 118       2.596  29.163  49.136  1.00  9.13 LIG 0.16  HD
BRANCH 21 24
ATOM     24  CA  PRO B 117       3.707  27.172  47.904  1.00  4.52 LIG 0.35  C 
ATOM     25  CB  PRO B 117       2.699  27.965  47.081  1.00  4.68 LIG 0.05  C 
ATOM     26  CG  PRO B 117       2.093  26.991  46.131  1.00  4.01 LIG 0.04  C 
ATOM     27  CD  PRO B 117       2.080  25.696  46.892  1.00  3.18 LIG 0.32  C 
ATOM     28  N   PRO B 117       3.344  25.771  47.644  1.00  3.80 LIG 0.32  N 
ENDBRANCH 21 24
ENDBRANCH 19 20
BRANCH 19 29
ATOM     29  CB  GLN B 118       3.336  30.427  51.274  1.00 12.35 LIG 0.04  C 
BRANCH 29 30
ATOM     30  CG  GLN B 118       4.813  30.410  51.421  1.00 13.74 LIG 0.10  C 
BRANCH 30 31
ATOM     31  CD  GLN B 118       5.456  30.051  50.151  1.00 14.95 LIG 0.21  C 
ATOM     32  NE2 GLN B 118       5.051  30.725  49.087  1.00 14.23 LIG-0.37  N 
ATOM     33 22HE GLN B 118       5.408  30.572  48.320  1.00 14.23 LIG 0.16  HD
ATOM     34 21HE GLN B 118       4.431  31.317  49.163  1.00 14.23 LIG 0.16  HD
ATOM     35 OE1  GLN B 118       6.334  29.198  50.109  1.00 17.00 LIG-0.27  OA
ENDBRANCH 30 31
ENDBRANCH 29 30
ENDBRANCH 19 29
ENDBRANCH 17 19
ENDBRANCH 10 15
ENDBRANCH 8 10
ENDBRANCH 5 6
BRANCH 5 36
ATOM     36  CB  ILE B 120      -1.292  33.687  54.797  1.00 15.78 LIG 0.01  C 
ATOM     37  CG2 ILE B 120      -1.473  34.720  55.900  1.00 15.40 LIG 0.01  C 
BRANCH 36 38
ATOM     38  CG1 ILE B 120      -0.044  34.050  54.001  1.00 16.31 LIG 0.00  C 
ATOM     39  CD1 ILE B 120       0.012  33.340  52.624  1.00 16.15 LIG 0.01  C 
ENDBRANCH 36 38
ENDBRANCH 5 36
ENDBRANCH 1 5
BRANCH 3 40
ATOM     40  CA  ASN B 121      -3.442  31.518  58.371  1.00 16.96 LIG 0.18  C 
BRANCH 40 41
ATOM     41  CB  ASN B 121      -3.063  30.560  59.495  1.00 15.28 LIG 0.14  C 
BRANCH 41 42
ATOM     42  CG  ASN B 121      -3.530  29.146  59.219  1.00 13.24 LIG 0.22  C 
ATOM     43 OD1  ASN B 121      -3.530  28.713  58.065  1.00 13.18 LIG-0.27  OA
ATOM     44  ND2 ASN B 121      -3.951  28.404  60.268  1.00 12.91 LIG-0.37  N 
ATOM     45 22HD ASN B 121      -3.938  28.735  61.062  1.00 12.91 LIG 0.16  HD
ATOM     46 21HD ASN B 121      -4.232  27.601  60.141  1.00 12.91 LIG 0.16  HD
ENDBRANCH 41 42
ENDBRANCH 40 41
BRANCH 40 47
ATOM     47  C   ASN B 121      -3.826  32.893  58.951  1.00 17.96 LIG 0.24  C 
ATOM     48  N   ARG B 122      -5.009  33.392  58.596  1.00 20.13 LIG-0.35  N 
ATOM     49 H    ARG B 122      -5.504  33.021  57.999  1.00 20.13 LIG 0.16  HD
ATOM     50 O    ASN B 121      -3.011  33.509  59.618  1.00 18.88 LIG-0.27  OA
BRANCH 48 51
ATOM     51  CA  ARG B 122      -5.612  34.617  59.163  1.00 22.24 LIG 0.18  C 
BRANCH 51 52
ATOM     52  CB  ARG B 122      -5.110  34.847  60.571  1.00 21.82 LIG 0.04  C 
BRANCH 52 53
ATOM     53  CG  ARG B 122      -5.686  33.914  61.584  1.00 24.56 LIG 0.02  C 
BRANCH 53 54
ATOM     54  CD  ARG B 122      -7.171  34.161  61.757  1.00 26.52 LIG 0.14  C 
BRANCH 54 55
ATOM     55  NE  ARG B 122      -7.862  33.209  62.633  1.00 28.40 LIG-0.23  N 
ATOM     56  CZ  ARG B 122      -7.500  32.840  63.869  1.00 28.18 LIG 0.67  C 
ATOM     57  NH2 ARG B 122      -8.248  31.950  64.517  1.00 29.45 LIG-0.23  N 
ATOM     58  NH1 ARG B 122      -6.400  33.302  64.466  1.00 26.03 LIG-0.23  N 
ATOM     59 1HH2 ARG B 122      -8.949  31.623  64.142  1.00 29.45 LIG 0.17  HD
ATOM     60 2HH2 ARG B 122      -8.030  31.703  65.312  1.00 29.45 LIG 0.17  HD
ATOM     61 1HH1 ARG B 122      -5.890  33.860  64.056  1.00 26.03 LIG 0.17  HD
ATOM     62 2HH1 ARG B 122      -6.200  33.041  65.261  1.00 26.03 LIG 0.17  HD
ATOM     63 HE   ARG B 122      -8.577  32.848  62.319  1.00 28.40 LIG 0.18  HD
ENDBRANCH 54 55
ENDBRANCH 53 54
ENDBRANCH 52 53
ENDBRANCH 51 52
BRANCH 51 64
ATOM     64  C   ARG B 122      -5.064  35.702  58.268  1.00 23.14 LIG 0.24  C 
ATOM     65 O    ARG B 122      -3.883  35.669  57.938  1.00 23.63 LIG-0.27  OA
ATOM     66  N   PRO B 123      -5.917  36.640  57.825  1.00 23.72 LIG-0.34  N 
ATOM     67  CA  PRO B 123      -5.462  37.672  56.902  1.00 24.06 LIG 0.17  C 
ATOM     68  CD  PRO B 123      -7.235  36.977  58.400  1.00 24.11 LIG 0.13  C 
ATOM     69  CB  PRO B 123      -6.769  38.169  56.293  1.00 24.84 LIG 0.04  C 
ATOM     70  CG  PRO B 123      -7.798  37.969  57.370  1.00 25.19 LIG 0.02  C 
BRANCH 67 71
ATOM     71  C   PRO B 123      -4.720  38.830  57.615  1.00 23.73 LIG 0.22  C 
ATOM     72 O    PRO B 123      -4.705  38.887  58.855  1.00 24.65 LIG-0.29  OA
ENDBRANCH 67 71
ENDBRANCH 51 64
ENDBRANCH 48 51
ENDBRANCH 40 47
ENDBRANCH 3 40
TORSDOF 25
ENDMDL
MODEL 3
USER: ADFR SOLUTION from run 157
USER: SCORE 27.712199 LL:  -5.019 LR: -24.881 RR:   0.000 FEB: -17.424
USER: RMSD 4.188561
USER: SEED 156
USER: STATUS searching
USER: GENES 27
USER: genes 0 Translation |==|  0.44737 0.47065 0.56167
USER: genes 1 Rotation |==|  0.47068 0.48286 0.51584 0.99859
USER: genes 2 Torsion [N]-C--CA-[N] |==|  0.37524
USER: genes 3 Torsion [C]-CA--N-[C] |==|  0.65405
USER: genes 4 Torsion [N]-C--CA-[N] |==|  0.37981
USER: genes 5 Torsion [C]-CA--CB-[CG2] |==|  0.14581
USER: genes 6 Torsion [CA]-CB--CG1-[CD1] |==|  0.74687
USER: genes 7 Torsion [C]-CA--N-[C] |==|  0.63422
USER: genes 8 Torsion [N]-C--CA-[N] |==|  0.41345
USER: genes 9 Torsion [C]-CA--N-[C] |==|  0.67475
USER: genes 10 Torsion [N]-C--CA-[CB] |==|  0.96872
USER: genes 11 Torsion [C]-CA--CB-[CG] |==|  0.42336
USER: genes 12 Torsion [CA]-CB--CG-[CD] |==|  0.21617
USER: genes 13 Torsion [CB]-CG--CD-[NE2] |==|  0.10323
USER: genes 14 Torsion [C]-CA--CB-[CG2] |==|  0.71853
USER: genes 15 Torsion [CA]-CB--CG1-[CD1] |==|  0.27223
USER: genes 16 Torsion [C]-N--CA-[CB] |==|  0.41890
USER: genes 17 Torsion [N]-CA--CB-[CG] |==|  0.79530
USER: genes 18 Torsion [CA]-CB--CG-[OD1] |==|  0.04155
USER: genes 19 Torsion [N]-CA--C-[N] |==|  0.62587
USER: genes 20 Torsion [C]-N--CA-[C] |==|  0.83745
USER: genes 21 Torsion [N]-CA--CB-[CG] |==|  0.91811
USER: genes 22 Torsion [CA]-CB--CG-[CD] |==|  0.65686
USER: genes 23 Torsion [CB]-CG--CD-[NE] |==|  0.29311
USER: genes 24 Torsion [CG]-CD--NE-[HE] |==|  0.16655
USER: genes 25 Torsion [N]-CA--C-[N] |==|  0.40000
USER: genes 26 Torsion [N]-CA--C-[O] |==|  0.10224
ROOT
ATOM      1  C   ILE B 120      -2.583  31.805  56.293  1.00 16.04 LIG 0.24  C 
ATOM      2 O    ILE B 120      -3.536  31.748  55.517  1.00 15.27 LIG-0.27  OA
ATOM      3  N   ASN B 121      -2.700  31.677  57.615  1.00 16.46 LIG-0.35  N 
ATOM      4 H    ASN B 121      -2.027  31.616  58.147  1.00 16.46 LIG 0.16  HD
ENDROOT
BRANCH 1 5
ATOM      5  CA  ILE B 120      -1.164  31.904  55.751  1.00 16.12 LIG 0.18  C 
BRANCH 5 6
ATOM      6  N   ILE B 120      -1.130  30.995  54.569  1.00 14.41 LIG-0.35  N 
ATOM      7 H    ILE B 120      -1.734  31.176  53.984  1.00 14.41 LIG 0.16  HD
ATOM      8  C   ILE B 119      -0.260  29.999  54.419  1.00 14.21 LIG 0.24  C 
ATOM      9 O    ILE B 119       0.595  29.673  55.252  1.00 13.95 LIG-0.27  OA
BRANCH 8 10
ATOM     10  CA  ILE B 119      -0.412  29.176  53.149  1.00 14.01 LIG 0.18  C 
BRANCH 10 11
ATOM     11  CB  ILE B 119      -1.108  27.878  53.613  1.00 14.26 LIG 0.01  C 
ATOM     12  CG2 ILE B 119      -2.370  28.193  54.403  1.00 14.00 LIG 0.01  C 
BRANCH 11 13
ATOM     13  CG1 ILE B 119      -1.529  27.017  52.435  1.00 15.18 LIG 0.00  C 
ATOM     14  CD1 ILE B 119      -2.938  27.316  51.962  1.00 12.51 LIG 0.01  C 
ENDBRANCH 11 13
ENDBRANCH 10 11
BRANCH 10 15
ATOM     15  N   ILE B 119       0.939  28.948  52.604  1.00 12.55 LIG-0.35  N 
ATOM     16 H    ILE B 119       1.505  28.672  53.189  1.00 12.55 LIG 0.16  HD
ATOM     17  C   GLN B 118       1.255  29.151  51.324  1.00 12.00 LIG 0.24  C 
ATOM     18 O    GLN B 118       0.427  29.432  50.442  1.00 12.29 LIG-0.27  OA
BRANCH 17 19
ATOM     19  CA  GLN B 118       2.744  29.111  50.975  1.00 10.88 LIG 0.18  C 
BRANCH 19 20
ATOM     20  N   GLN B 118       2.928  28.614  49.611  1.00  9.13 LIG-0.35  N 
ATOM     21  C   PRO B 117       3.589  27.474  49.376  1.00  5.97 LIG 0.25  C 
ATOM     22 O    PRO B 117       4.154  26.840  50.267  1.00  4.88 LIG-0.27  OA
ATOM     23 H    GLN B 118       2.581  29.108  48.999  1.00  9.13 LIG 0.16  HD
BRANCH 21 24
ATOM     24  CA  PRO B 117       3.721  27.065  47.886  1.00  4.52 LIG 0.35  C 
ATOM     25  CB  PRO B 117       2.825  27.916  46.993  1.00  4.68 LIG 0.05  C 
ATOM     26  CG  PRO B 117       2.150  26.963  46.067  1.00  4.01 LIG 0.04  C 
ATOM     27  CD  PRO B 117       1.981  25.715  46.886  1.00  3.18 LIG 0.32  C 
ATOM     28  N   PRO B 117       3.223  25.697  47.677  1.00  3.80 LIG 0.32  N 
ENDBRANCH 21 24
ENDBRANCH 19 20
BRANCH 19 29
ATOM     29  CB  GLN B 118       3.287  30.504  51.062  1.00 12.35 LIG 0.04  C 
BRANCH 29 30
ATOM     30  CG  GLN B 118       4.733  30.525  51.392  1.00 13.74 LIG 0.10  C 
BRANCH 30 31
ATOM     31  CD  GLN B 118       5.541  30.207  50.208  1.00 14.95 LIG 0.21  C 
ATOM     32  NE2 GLN B 118       5.095  30.690  49.058  1.00 14.23 LIG-0.37  N 
ATOM     33 22HE GLN B 118       5.538  30.554  48.334  1.00 14.23 LIG 0.16  HD
ATOM     34 21HE GLN B 118       4.363  31.140  49.036  1.00 14.23 LIG 0.16  HD
ATOM     35 OE1  GLN B 118       6.576  29.560  50.305  1.00 17.00 LIG-0.27  OA
ENDBRANCH 30 31
ENDBRANCH 29 30
ENDBRANCH 19 29
ENDBRANCH 17 19
ENDBRANCH 10 15
ENDBRANCH 8 10
ENDBRANCH 5 6
BRANCH 5 36
ATOM     36  CB  ILE B 120      -0.898  33.349  55.409  1.00 15.78 LIG 0.01  C 
ATOM     37  CG2 ILE B 120      -1.030  33.550  53.906  1.00 15.40 LIG 0.01  C 
BRANCH 36 38
ATOM     38  CG1 ILE B 120      -1.868  34.295  56.106  1.00 16.31 LIG 0.00  C 
ATOM     39  CD1 ILE B 120      -1.272  34.918  57.394  1.00 16.15 LIG 0.01  C 
ENDBRANCH 36 38
ENDBRANCH 5 36
ENDBRANCH 1 5
BRANCH 3 40
ATOM     40  CA  ASN B 121      -3.988  31.630  58.282  1.00 16.96 LIG 0.18  C 
BRANCH 40 41
ATOM     41  CB  ASN B 121      -3.902  30.804  59.562  1.00 15.28 LIG 0.14  C 
BRANCH 41 42
ATOM     42  CG  ASN B 121      -3.807  29.320  59.275  1.00 13.24 LIG 0.22  C 
ATOM     43 OD1  ASN B 121      -3.530  28.930  58.139  1.00 13.18 LIG-0.27  OA
ATOM     44  ND2 ASN B 121      -4.050  28.464  60.293  1.00 12.91 LIG-0.37  N 
ATOM     45 22HD ASN B 121      -4.241  28.768  61.075  1.00 12.91 LIG 0.16  HD
ATOM     46 21HD ASN B 121      -4.014  27.615  60.159  1.00 12.91 LIG 0.16  HD
ENDBRANCH 41 42
ENDBRANCH 40 41
BRANCH 40 47
ATOM     47  C   ASN B 121      -4.383  33.082  58.614  1.00 17.96 LIG 0.24  C 
ATOM     48  N   ARG B 122      -4.858  33.318  59.836  1.00 20.13 LIG-0.35  N 
ATOM     49 H    ARG B 122      -5.029  32.685  60.392  1.00 20.13 LIG 0.16  HD
ATOM     50 O    ASN B 121      -4.345  33.927  57.734  1.00 18.88 LIG-0.27  OA
BRANCH 48 51
ATOM     51  CA  ARG B 122      -5.145  34.661  60.384  1.00 22.24 LIG 0.18  C 
BRANCH 51 52
ATOM     52  CB  ARG B 122      -5.539  34.561  61.841  1.00 21.82 LIG 0.04  C 
BRANCH 52 53
ATOM     53  CG  ARG B 122      -6.210  33.278  62.204  1.00 24.56 LIG 0.02  C 
BRANCH 53 54
ATOM     54  CD  ARG B 122      -7.568  33.540  62.824  1.00 26.52 LIG 0.14  C 
BRANCH 54 55
ATOM     55  NE  ARG B 122      -8.715  33.251  61.957  1.00 28.40 LIG-0.23  N 
ATOM     56  CZ  ARG B 122      -9.656  34.112  61.551  1.00 28.18 LIG 0.67  C 
ATOM     57  NH2 ARG B 122     -10.636  33.668  60.767  1.00 29.45 LIG-0.23  N 
ATOM     58  NH1 ARG B 122      -9.674  35.392  61.929  1.00 26.03 LIG-0.23  N 
ATOM     59 1HH2 ARG B 122     -10.656  32.842  60.530  1.00 29.45 LIG 0.17  HD
ATOM     60 2HH2 ARG B 122     -11.249  34.208  60.497  1.00 29.45 LIG 0.17  HD
ATOM     61 1HH1 ARG B 122      -9.064  35.694  62.454  1.00 26.03 LIG 0.17  HD
ATOM     62 2HH1 ARG B 122     -10.296  35.915  61.647  1.00 26.03 LIG 0.17  HD
ATOM     63 HE   ARG B 122      -8.790  32.441  61.679  1.00 28.40 LIG 0.18  HD
ENDBRANCH 54 55
ENDBRANCH 53 54
ENDBRANCH 52 53
ENDBRANCH 51 52
BRANCH 51 64
ATOM     64  C   ARG B 122      -3.806  35.351  60.289  1.00 23.14 LIG 0.24  C 
ATOM     65 O    ARG B 122      -2.780  34.696  60.440  1.00 23.63 LIG-0.27  OA
ATOM     66  N   PRO B 123      -3.796  36.660  59.988  1.00 23.72 LIG-0.34  N 
ATOM     67  CA  PRO B 123      -2.532  37.365  59.812  1.00 24.06 LIG 0.17  C 
ATOM     68  CD  PRO B 123      -4.925  37.604  60.113  1.00 24.11 LIG 0.13  C 
ATOM     69  CB  PRO B 123      -2.951  38.601  59.022  1.00 24.84 LIG 0.04  C 
ATOM     70  CG  PRO B 123      -4.365  38.874  59.454  1.00 25.19 LIG 0.02  C 
BRANCH 67 71
ATOM     71  C   PRO B 123      -1.882  37.774  61.158  1.00 23.73 LIG 0.22  C 
ATOM     72 O    PRO B 123      -1.964  37.020  62.141  1.00 24.65 LIG-0.29  OA
ENDBRANCH 67 71
ENDBRANCH 51 64
ENDBRANCH 48 51
ENDBRANCH 40 47
ENDBRANCH 3 40
TORSDOF 25
ENDMDL
MODEL 4
USER: ADFR SOLUTION from run 130
USER: SCORE 27.339447 LL:  -5.210 LR: -24.495 RR:   0.000 FEB: -17.038
USER: RMSD 2.316463
USER: SEED 129
USER: STATUS no improvement in best in 7 clusters for 5 generations
USER: GENES 27
USER: genes 0 Translation |==|  0.45004 0.48323 0.56883
USER: genes 1 Rotation |==|  0.46104 0.51836 0.55780 0.99478
USER: genes 2 Torsion [N]-C--CA-[N] |==|  0.37336
USER: genes 3 Torsion [C]-CA--N-[C] |==|  0.67991
USER: genes 4 Torsion [N]-C--CA-[N] |==|  0.39865
USER: genes 5 Torsion [C]-CA--CB-[CG2] |==|  0.20494
USER: genes 6 Torsion [CA]-CB--CG1-[CD1] |==|  0.81624
USER: genes 7 Torsion [C]-CA--N-[C] |==|  0.62891
USER: genes 8 Torsion [N]-C--CA-[N] |==|  0.44362
USER: genes 9 Torsion [C]-CA--N-[C] |==|  0.66321
USER: genes 10 Torsion [N]-C--CA-[CB] |==|  0.80789
USER: genes 11 Torsion [C]-CA--CB-[CG] |==|  0.44092
USER: genes 12 Torsion [CA]-CB--CG-[CD] |==|  0.21406
USER: genes 13 Torsion [CB]-CG--CD-[NE2] |==|  0.10378
USER: genes 14 Torsion [C]-CA--CB-[CG2] |==|  0.21481
USER: genes 15 Torsion [CA]-CB--CG1-[CD1] |==|  0.26008
USER: genes 16 Torsion [C]-N--CA-[CB] |==|  0.34214
USER: genes 17 Torsion [N]-CA--CB-[CG] |==|  0.64666
USER: genes 18 Torsion [CA]-CB--CG-[OD1] |==|  0.03987
USER: genes 19 Torsion [N]-CA--C-[N] |==|  0.44074
USER: genes 20 Torsion [C]-N--CA-[C] |==|  0.67533
USER: genes 21 Torsion [N]-CA--CB-[CG] |==|  0.71866
USER: genes 22 Torsion [CA]-CB--CG-[CD] |==|  0.31474
USER: genes 23 Torsion [CB]-CG--CD-[NE] |==|  0.87424
USER: genes 24 Torsion [CG]-CD--NE-[HE] |==|  0.22840
USER: genes 25 Torsion [N]-CA--C-[N] |==|  0.47766
USER: genes 26 Torsion [N]-CA--C-[O] |==|  0.98265
ROOT
ATOM      1  C   ILE B 120      -2.517  32.088  56.471  1.00 16.04 LIG 0.24  C 
ATOM      2 O    ILE B 120      -3.551  31.838  55.852  1.00 15.27 LIG-0.27  OA
ATOM      3  N   ASN B 121      -2.419  32.025  57.798  1.00 16.46 LIG-0.35  N 
ATOM      4 H    ASN B 121      -1.676  32.100  58.224  1.00 16.46 LIG 0.16  HD
ENDROOT
BRANCH 1 5
ATOM      5  CA  ILE B 120      -1.226  32.370  55.715  1.00 16.12 LIG 0.18  C 
BRANCH 5 6
ATOM      6  N   ILE B 120      -1.210  31.395  54.586  1.00 14.41 LIG-0.35  N 
ATOM      7 H    ILE B 120      -1.845  31.520  54.021  1.00 14.41 LIG 0.16  HD
ATOM      8  C   ILE B 119      -0.309  30.425  54.453  1.00 14.21 LIG 0.24  C 
ATOM      9 O    ILE B 119       0.594  30.179  55.261  1.00 13.95 LIG-0.27  OA
BRANCH 8 10
ATOM     10  CA  ILE B 119      -0.485  29.523  53.240  1.00 14.01 LIG 0.18  C 
BRANCH 10 11
ATOM     11  CB  ILE B 119      -1.267  28.304  53.777  1.00 14.26 LIG 0.01  C 
ATOM     12  CG2 ILE B 119      -2.722  28.666  54.034  1.00 14.00 LIG 0.01  C 
BRANCH 11 13
ATOM     13  CG1 ILE B 119      -1.267  27.158  52.782  1.00 15.18 LIG 0.00  C 
ATOM     14  CD1 ILE B 119      -2.031  27.479  51.514  1.00 12.51 LIG 0.01  C 
ENDBRANCH 11 13
ENDBRANCH 10 11
BRANCH 10 15
ATOM     15  N   ILE B 119       0.859  29.179  52.743  1.00 12.55 LIG-0.35  N 
ATOM     16 H    ILE B 119       1.404  28.938  53.363  1.00 12.55 LIG 0.16  HD
ATOM     17  C   GLN B 118       1.200  29.237  51.455  1.00 12.00 LIG 0.24  C 
ATOM     18 O    GLN B 118       0.398  29.465  50.536  1.00 12.29 LIG-0.27  OA
BRANCH 17 19
ATOM     19  CA  GLN B 118       2.691  29.092  51.138  1.00 10.88 LIG 0.18  C 
BRANCH 19 20
ATOM     20  N   GLN B 118       2.871  28.695  49.741  1.00  9.13 LIG-0.35  N 
ATOM     21  C   PRO B 117       3.510  27.563  49.424  1.00  5.97 LIG 0.25  C 
ATOM     22 O    PRO B 117       4.059  26.853  50.267  1.00  4.88 LIG-0.27  OA
ATOM     23 H    GLN B 118       2.536  29.240  49.167  1.00  9.13 LIG 0.16  HD
BRANCH 21 24
ATOM     24  CA  PRO B 117       3.641  27.263  47.908  1.00  4.52 LIG 0.35  C 
ATOM     25  CB  PRO B 117       2.291  26.924  47.289  1.00  4.68 LIG 0.05  C 
ATOM     26  CG  PRO B 117       2.522  25.723  46.438  1.00  4.01 LIG 0.04  C 
ATOM     27  CD  PRO B 117       3.595  24.962  47.163  1.00  3.18 LIG 0.32  C 
ATOM     28  N   PRO B 117       4.441  26.049  47.686  1.00  3.80 LIG 0.32  N 
ENDBRANCH 21 24
ENDBRANCH 19 20
BRANCH 19 29
ATOM     29  CB  GLN B 118       3.349  30.420  51.354  1.00 12.35 LIG 0.04  C 
BRANCH 29 30
ATOM     30  CG  GLN B 118       4.812  30.293  51.569  1.00 13.74 LIG 0.10  C 
BRANCH 30 31
ATOM     31  CD  GLN B 118       5.505  30.057  50.297  1.00 14.95 LIG 0.21  C 
ATOM     32  NE2 GLN B 118       5.025  30.706  49.248  1.00 14.23 LIG-0.37  N 
ATOM     33 22HE GLN B 118       5.404  30.623  48.481  1.00 14.23 LIG 0.16  HD
ATOM     34 21HE GLN B 118       4.335  31.211  49.335  1.00 14.23 LIG 0.16  HD
ATOM     35 OE1  GLN B 118       6.485  29.324  50.239  1.00 17.00 LIG-0.27  OA
ENDBRANCH 30 31
ENDBRANCH 29 30
ENDBRANCH 19 29
ENDBRANCH 17 19
ENDBRANCH 10 15
ENDBRANCH 8 10
ENDBRANCH 5 6
BRANCH 5 36
ATOM     36  CB  ILE B 120      -1.256  33.811  55.267  1.00 15.78 LIG 0.01  C 
ATOM     37  CG2 ILE B 120      -0.932  34.718  56.446  1.00 15.40 LIG 0.01  C 
BRANCH 36 38
ATOM     38  CG1 ILE B 120      -0.249  34.090  54.157  1.00 16.31 LIG 0.00  C 
ATOM     39  CD1 ILE B 120      -0.872  33.962  52.743  1.00 16.15 LIG 0.01  C 
ENDBRANCH 36 38
ENDBRANCH 5 36
ENDBRANCH 1 5
BRANCH 3 40
ATOM     40  CA  ASN B 121      -3.572  31.821  58.656  1.00 16.96 LIG 0.18  C 
BRANCH 40 41
ATOM     41  CB  ASN B 121      -3.380  30.590  59.535  1.00 15.28 LIG 0.14  C 
BRANCH 41 42
ATOM     42  CG  ASN B 121      -4.543  29.627  59.426  1.00 13.24 LIG 0.22  C 
ATOM     43 OD1  ASN B 121      -5.357  29.747  58.508  1.00 13.18 LIG-0.27  OA
ATOM     44  ND2 ASN B 121      -4.655  28.663  60.368  1.00 12.91 LIG-0.37  N 
ATOM     45 22HD ASN B 121      -4.070  28.606  60.996  1.00 12.91 LIG 0.16  HD
ATOM     46 21HD ASN B 121      -5.311  28.108  60.339  1.00 12.91 LIG 0.16  HD
ENDBRANCH 41 42
ENDBRANCH 40 41
BRANCH 40 47
ATOM     47  C   ASN B 121      -3.716  33.082  59.532  1.00 17.96 LIG 0.24  C 
ATOM     48  N   ARG B 122      -4.914  33.314  60.066  1.00 20.13 LIG-0.35  N 
ATOM     49 H    ARG B 122      -5.606  32.845  59.866  1.00 20.13 LIG 0.16  HD
ATOM     50 O    ASN B 121      -2.780  33.859  59.619  1.00 18.88 LIG-0.27  OA
BRANCH 48 51
ATOM     51  CA  ARG B 122      -5.206  34.381  61.049  1.00 22.24 LIG 0.18  C 
BRANCH 51 52
ATOM     52  CB  ARG B 122      -6.370  35.224  60.579  1.00 21.82 LIG 0.04  C 
BRANCH 52 53
ATOM     53  CG  ARG B 122      -5.972  36.530  59.975  1.00 24.56 LIG 0.02  C 
BRANCH 53 54
ATOM     54  CD  ARG B 122      -6.303  36.560  58.496  1.00 26.52 LIG 0.14  C 
BRANCH 54 55
ATOM     55  NE  ARG B 122      -5.930  35.353  57.750  1.00 28.40 LIG-0.23  N 
ATOM     56  CZ  ARG B 122      -4.826  35.170  57.015  1.00 28.18 LIG 0.67  C 
ATOM     57  NH2 ARG B 122      -4.655  34.004  56.395  1.00 29.45 LIG-0.23  N 
ATOM     58  NH1 ARG B 122      -3.904  36.120  56.847  1.00 26.03 LIG-0.23  N 
ATOM     59 1HH2 ARG B 122      -5.248  33.385  56.471  1.00 29.45 LIG 0.17  HD
ATOM     60 2HH2 ARG B 122      -3.951  33.869  55.919  1.00 29.45 LIG 0.17  HD
ATOM     61 1HH1 ARG B 122      -4.006  36.889  57.219  1.00 26.03 LIG 0.17  HD
ATOM     62 2HH1 ARG B 122      -3.208  35.964  56.367  1.00 26.03 LIG 0.17  HD
ATOM     63 HE   ARG B 122      -6.479  34.693  57.790  1.00 28.40 LIG 0.18  HD
ENDBRANCH 54 55
ENDBRANCH 53 54
ENDBRANCH 52 53
ENDBRANCH 51 52
BRANCH 51 64
ATOM     64  C   ARG B 122      -5.632  33.600  62.268  1.00 23.14 LIG 0.24  C 
ATOM     65 O    ARG B 122      -5.752  32.381  62.190  1.00 23.63 LIG-0.27  OA
ATOM     66  N   PRO B 123      -5.815  34.276  63.414  1.00 23.72 LIG-0.34  N 
ATOM     67  CA  PRO B 123      -6.158  33.568  64.641  1.00 24.06 LIG 0.17  C 
ATOM     68  CD  PRO B 123      -6.028  35.731  63.556  1.00 24.11 LIG 0.13  C 
ATOM     69  CB  PRO B 123      -5.780  34.577  65.721  1.00 24.84 LIG 0.04  C 
ATOM     70  CG  PRO B 123      -5.982  35.921  65.080  1.00 25.19 LIG 0.02  C 
BRANCH 67 71
ATOM     71  C   PRO B 123      -7.664  33.216  64.728  1.00 23.73 LIG 0.22  C 
ATOM     72 O    PRO B 123      -8.451  33.638  63.866  1.00 24.65 LIG-0.29  OA
ENDBRANCH 67 71
ENDBRANCH 51 64
ENDBRANCH 48 51
ENDBRANCH 40 47
ENDBRANCH 3 40
TORSDOF 25
ENDMDL
MODEL 5
USER: ADFR SOLUTION from run 19
USER: SCORE 27.245157 LL:  -5.603 LR: -24.454 RR:   0.000 FEB: -16.997
USER: RMSD 3.950234
USER: SEED 18
USER: STATUS searching
USER: GENES 27
USER: genes 0 Translation |==|  0.43806 0.48363 0.56557
USER: genes 1 Rotation |==|  0.44690 0.54004 0.58513 0.98819
USER: genes 2 Torsion [N]-C--CA-[N] |==|  0.35095
USER: genes 3 Torsion [C]-CA--N-[C] |==|  0.71965
USER: genes 4 Torsion [N]-C--CA-[N] |==|  0.35629
USER: genes 5 Torsion [C]-CA--CB-[CG2] |==|  0.15764
USER: genes 6 Torsion [CA]-CB--CG1-[CD1] |==|  0.86469
USER: genes 7 Torsion [C]-CA--N-[C] |==|  0.64186
USER: genes 8 Torsion [N]-C--CA-[N] |==|  0.45959
USER: genes 9 Torsion [C]-CA--N-[C] |==|  0.68255
USER: genes 10 Torsion [N]-C--CA-[CB] |==|  0.80730
USER: genes 11 Torsion [C]-CA--CB-[CG] |==|  0.87420
USER: genes 12 Torsion [CA]-CB--CG-[CD] |==|  0.27363
USER: genes 13 Torsion [CB]-CG--CD-[NE2] |==|  0.65564
USER: genes 14 Torsion [C]-CA--CB-[CG2] |==|  0.13381
USER: genes 15 Torsion [CA]-CB--CG1-[CD1] |==|  0.81175
USER: genes 16 Torsion [C]-N--CA-[CB] |==|  0.34907
USER: genes 17 Torsion [N]-CA--CB-[CG] |==|  0.74590
USER: genes 18 Torsion [CA]-CB--CG-[OD1] |==|  0.11601
USER: genes 19 Torsion [N]-CA--C-[N] |==|  0.36433
USER: genes 20 Torsion [C]-N--CA-[C] |==|  0.14774
USER: genes 21 Torsion [N]-CA--CB-[CG] |==|  0.84719
USER: genes 22 Torsion [CA]-CB--CG-[CD] |==|  0.75442
USER: genes 23 Torsion [CB]-CG--CD-[NE] |==|  0.22088
USER: genes 24 Torsion [CG]-CD--NE-[HE] |==|  0.22544
USER: genes 25 Torsion [N]-CA--C-[N] |==|  0.20554
USER: genes 26 Torsion [N]-CA--C-[O] |==|  0.00971
ROOT
ATOM      1  C   ILE B 120      -2.813  32.097  56.390  1.00 16.04 LIG 0.24  C 
ATOM      2 O    ILE B 120      -3.863  31.700  55.884  1.00 15.27 LIG-0.27  OA
ATOM      3  N   ASN B 121      -2.597  32.135  57.704  1.00 16.46 LIG-0.35  N 
ATOM      4 H    ASN B 121      -1.832  32.316  58.054  1.00 16.46 LIG 0.16  HD
ENDROOT
BRANCH 1 5
ATOM      5  CA  ILE B 120      -1.630  32.459  55.503  1.00 16.12 LIG 0.18  C 
BRANCH 5 6
ATOM      6  N   ILE B 120      -1.480  31.313  54.561  1.00 14.41 LIG-0.35  N 
ATOM      7 H    ILE B 120      -2.043  31.332  53.911  1.00 14.41 LIG 0.16  HD
ATOM      8  C   ILE B 119      -0.571  30.350  54.696  1.00 14.21 LIG 0.24  C 
ATOM      9 O    ILE B 119       0.228  30.256  55.635  1.00 13.95 LIG-0.27  OA
BRANCH 8 10
ATOM     10  CA  ILE B 119      -0.603  29.259  53.636  1.00 14.01 LIG 0.18  C 
BRANCH 10 11
ATOM     11  CB  ILE B 119      -1.089  28.003  54.390  1.00 14.26 LIG 0.01  C 
ATOM     12  CG2 ILE B 119      -2.433  28.259  55.057  1.00 14.00 LIG 0.01  C 
BRANCH 11 13
ATOM     13  CG1 ILE B 119      -1.280  26.825  53.451  1.00 15.18 LIG 0.00  C 
ATOM     14  CD1 ILE B 119      -2.084  27.182  52.217  1.00 12.51 LIG 0.01  C 
ENDBRANCH 11 13
ENDBRANCH 10 11
BRANCH 10 15
ATOM     15  N   ILE B 119       0.764  29.123  53.099  1.00 12.55 LIG-0.35  N 
ATOM     16 H    ILE B 119       1.365  29.029  53.707  1.00 12.55 LIG 0.16  HD
ATOM     17  C   GLN B 118       1.043  29.143  51.796  1.00 12.00 LIG 0.24  C 
ATOM     18 O    GLN B 118       0.181  29.157  50.902  1.00 12.29 LIG-0.27  OA
BRANCH 17 19
ATOM     19  CA  GLN B 118       2.523  29.242  51.417  1.00 10.88 LIG 0.18  C 
BRANCH 19 20
ATOM     20  N   GLN B 118       2.703  28.910  50.004  1.00  9.13 LIG-0.35  N 
ATOM     21  C   PRO B 117       3.384  27.820  49.633  1.00  5.97 LIG 0.25  C 
ATOM     22 O    PRO B 117       3.970  27.098  50.441  1.00  4.88 LIG-0.27  OA
ATOM     23 H    GLN B 118       2.341  29.465  49.455  1.00  9.13 LIG 0.16  HD
BRANCH 21 24
ATOM     24  CA  PRO B 117       3.511  27.588  48.105  1.00  4.52 LIG 0.35  C 
ATOM     25  CB  PRO B 117       2.169  27.216  47.486  1.00  4.68 LIG 0.05  C 
ATOM     26  CG  PRO B 117       2.443  26.062  46.583  1.00  4.01 LIG 0.04  C 
ATOM     27  CD  PRO B 117       3.556  25.320  47.266  1.00  3.18 LIG 0.32  C 
ATOM     28  N   PRO B 117       4.360  26.420  47.825  1.00  3.80 LIG 0.32  N 
ENDBRANCH 21 24
ENDBRANCH 19 20
BRANCH 19 29
ATOM     29  CB  GLN B 118       2.976  30.651  51.648  1.00 12.35 LIG 0.04  C 
BRANCH 29 30
ATOM     30  CG  GLN B 118       2.008  31.645  51.119  1.00 13.74 LIG 0.10  C 
BRANCH 30 31
ATOM     31  CD  GLN B 118       1.148  32.154  52.194  1.00 14.95 LIG 0.21  C 
ATOM     32  NE2 GLN B 118      -0.155  32.020  52.004  1.00 14.23 LIG-0.37  N 
ATOM     33 22HE GLN B 118      -0.707  32.281  52.610  1.00 14.23 LIG 0.16  HD
ATOM     34 21HE GLN B 118      -0.449  31.671  51.276  1.00 14.23 LIG 0.16  HD
ATOM     35 OE1  GLN B 118       1.629  32.642  53.209  1.00 17.00 LIG-0.27  OA
ENDBRANCH 30 31
ENDBRANCH 29 30
ENDBRANCH 19 29
ENDBRANCH 17 19
ENDBRANCH 10 15
ENDBRANCH 8 10
ENDBRANCH 5 6
BRANCH 5 36
ATOM     36  CB  ILE B 120      -1.945  33.766  54.819  1.00 15.78 LIG 0.01  C 
ATOM     37  CG2 ILE B 120      -2.452  34.770  55.844  1.00 15.40 LIG 0.01  C 
BRANCH 36 38
ATOM     38  CG1 ILE B 120      -0.726  34.362  54.127  1.00 16.31 LIG 0.00  C 
ATOM     39  CD1 ILE B 120       0.359  34.831  55.130  1.00 16.15 LIG 0.01  C 
ENDBRANCH 36 38
ENDBRANCH 5 36
ENDBRANCH 1 5
BRANCH 3 40
ATOM     40  CA  ASN B 121      -3.643  31.873  58.675  1.00 16.96 LIG 0.18  C 
BRANCH 40 41
ATOM     41  CB  ASN B 121      -3.219  30.773  59.642  1.00 15.28 LIG 0.14  C 
BRANCH 41 42
ATOM     42  CG  ASN B 121      -3.644  29.400  59.164  1.00 13.24 LIG 0.22  C 
ATOM     43 OD1  ASN B 121      -3.530  29.102  57.973  1.00 13.18 LIG-0.27  OA
ATOM     44  ND2 ASN B 121      -4.156  28.545  60.077  1.00 12.91 LIG-0.37  N 
ATOM     45 22HD ASN B 121      -4.222  28.783  60.901  1.00 12.91 LIG 0.16  HD
ATOM     46 21HD ASN B 121      -4.416  27.762  59.834  1.00 12.91 LIG 0.16  HD
ENDBRANCH 41 42
ENDBRANCH 40 41
BRANCH 40 47
ATOM     47  C   ASN B 121      -3.893  33.187  59.441  1.00 17.96 LIG 0.24  C 
ATOM     48  N   ARG B 122      -5.159  33.584  59.567  1.00 20.13 LIG-0.35  N 
ATOM     49 H    ARG B 122      -5.807  33.187  59.166  1.00 20.13 LIG 0.16  HD
ATOM     50 O    ASN B 121      -2.940  33.855  59.808  1.00 18.88 LIG-0.27  OA
BRANCH 48 51
ATOM     51  CA  ARG B 122      -5.606  34.728  60.391  1.00 22.24 LIG 0.18  C 
BRANCH 51 52
ATOM     52  CB  ARG B 122      -5.291  34.481  61.849  1.00 21.82 LIG 0.04  C 
BRANCH 52 53
ATOM     53  CG  ARG B 122      -5.848  33.204  62.386  1.00 24.56 LIG 0.02  C 
BRANCH 53 54
ATOM     54  CD  ARG B 122      -7.253  33.414  62.914  1.00 26.52 LIG 0.14  C 
BRANCH 54 55
ATOM     55  NE  ARG B 122      -8.304  33.450  61.892  1.00 28.40 LIG-0.23  N 
ATOM     56  CZ  ARG B 122      -8.872  34.539  61.358  1.00 28.18 LIG 0.67  C 
ATOM     57  NH2 ARG B 122      -9.824  34.381  60.441  1.00 29.45 LIG-0.23  N 
ATOM     58  NH1 ARG B 122      -8.549  35.778  61.732  1.00 26.03 LIG-0.23  N 
ATOM     59 1HH2 ARG B 122     -10.064  33.590  60.202  1.00 29.45 LIG 0.17  HD
ATOM     60 2HH2 ARG B 122     -10.200  35.069  60.087  1.00 29.45 LIG 0.17  HD
ATOM     61 1HH1 ARG B 122      -7.952  35.903  62.339  1.00 26.03 LIG 0.17  HD
ATOM     62 2HH1 ARG B 122      -8.936  36.453  61.365  1.00 26.03 LIG 0.17  HD
ATOM     63 HE   ARG B 122      -8.585  32.690  61.604  1.00 28.40 LIG 0.18  HD
ENDBRANCH 54 55
ENDBRANCH 53 54
ENDBRANCH 52 53
ENDBRANCH 51 52
BRANCH 51 64
ATOM     64  C   ARG B 122      -4.737  35.856  59.890  1.00 23.14 LIG 0.24  C 
ATOM     65 O    ARG B 122      -3.783  36.227  60.567  1.00 23.63 LIG-0.27  OA
ATOM     66  N   PRO B 123      -5.020  36.378  58.685  1.00 23.72 LIG-0.34  N 
ATOM     67  CA  PRO B 123      -4.175  37.421  58.117  1.00 24.06 LIG 0.17  C 
ATOM     68  CD  PRO B 123      -6.295  36.260  57.950  1.00 24.11 LIG 0.13  C 
ATOM     69  CB  PRO B 123      -4.520  37.353  56.633  1.00 24.84 LIG 0.04  C 
ATOM     70  CG  PRO B 123      -5.948  36.887  56.590  1.00 25.19 LIG 0.02  C 
BRANCH 67 71
ATOM     71  C   PRO B 123      -4.492  38.826  58.686  1.00 23.73 LIG 0.22  C 
ATOM     72 O    PRO B 123      -5.343  38.955  59.581  1.00 24.65 LIG-0.29  OA
ENDBRANCH 67 71
ENDBRANCH 51 64
ENDBRANCH 48 51
ENDBRANCH 40 47
ENDBRANCH 3 40
TORSDOF 25
ENDMDL
MODEL 6
USER: ADFR SOLUTION from run 12
USER: SCORE 27.103081 LL:  -5.241 LR: -24.347 RR:   0.000 FEB: -16.889
USER: RMSD 4.096816
USER: SEED 137569
USER: STATUS no improvement in best in 8 clusters for 5 generations
USER: GENES 27
USER: genes 0 Translation |==|  0.45158 0.49099 0.56170
USER: genes 1 Rotation |==|  0.46662 0.51793 0.52848 0.99775
USER: genes 2 Torsion [N]-C--CA-[N] |==|  0.34674
USER: genes 3 Torsion [C]-CA--N-[C] |==|  0.67642
USER: genes 4 Torsion [N]-C--CA-[N] |==|  0.37339
USER: genes 5 Torsion [C]-CA--CB-[CG2] |==|  0.15706
USER: genes 6 Torsion [CA]-CB--CG1-[CD1] |==|  0.87604
USER: genes 7 Torsion [C]-CA--N-[C] |==|  0.66361
USER: genes 8 Torsion [N]-C--CA-[N] |==|  0.43045
USER: genes 9 Torsion [C]-CA--N-[C] |==|  0.67184
USER: genes 10 Torsion [N]-C--CA-[CB] |==|  0.79442
USER: genes 11 Torsion [C]-CA--CB-[CG] |==|  0.43982
USER: genes 12 Torsion [CA]-CB--CG-[CD] |==|  0.19629
USER: genes 13 Torsion [CB]-CG--CD-[NE2] |==|  0.13007
USER: genes 14 Torsion [C]-CA--CB-[CG2] |==|  0.36720
USER: genes 15 Torsion [CA]-CB--CG1-[CD1] |==|  0.77716
USER: genes 16 Torsion [C]-N--CA-[CB] |==|  0.36006
USER: genes 17 Torsion [N]-CA--CB-[CG] |==|  0.68165
USER: genes 18 Torsion [CA]-CB--CG-[OD1] |==|  0.02471
USER: genes 19 Torsion [N]-CA--C-[N] |==|  0.21208
USER: genes 20 Torsion [C]-N--CA-[C] |==|  0.13230
USER: genes 21 Torsion [N]-CA--CB-[CG] |==|  0.95302
USER: genes 22 Torsion [CA]-CB--CG-[CD] |==|  0.47905
USER: genes 23 Torsion [CB]-CG--CD-[NE] |==|  0.79822
USER: genes 24 Torsion [CG]-CD--NE-[HE] |==|  0.39601
USER: genes 25 Torsion [N]-CA--C-[N] |==|  0.16442
USER: genes 26 Torsion [N]-CA--C-[O] |==|  0.98520
ROOT
ATOM      1  C   ILE B 120      -2.478  32.262  56.294  1.00 16.04 LIG 0.24  C 
ATOM      2 O    ILE B 120      -3.528  32.148  55.663  1.00 15.27 LIG-0.27  OA
ATOM      3  N   ASN B 121      -2.402  32.164  57.621  1.00 16.46 LIG-0.35  N 
ATOM      4 H    ASN B 121      -1.659  32.143  58.053  1.00 16.46 LIG 0.16  HD
ENDROOT
BRANCH 1 5
ATOM      5  CA  ILE B 120      -1.156  32.404  55.554  1.00 16.12 LIG 0.18  C 
BRANCH 5 6
ATOM      6  N   ILE B 120      -1.143  31.296  54.556  1.00 14.41 LIG-0.35  N 
ATOM      7 H    ILE B 120      -1.767  31.362  53.968  1.00 14.41 LIG 0.16  HD
ATOM      8  C   ILE B 119      -0.261  30.299  54.560  1.00 14.21 LIG 0.24  C 
ATOM      9 O    ILE B 119       0.624  30.139  55.409  1.00 13.95 LIG-0.27  OA
BRANCH 8 10
ATOM     10  CA  ILE B 119      -0.438  29.257  53.466  1.00 14.01 LIG 0.18  C 
BRANCH 10 11
ATOM     11  CB  ILE B 119      -1.043  28.036  54.193  1.00 14.26 LIG 0.01  C 
ATOM     12  CG2 ILE B 119      -2.331  28.415  54.908  1.00 14.00 LIG 0.01  C 
BRANCH 11 13
ATOM     13  CG1 ILE B 119      -1.390  26.922  53.220  1.00 15.18 LIG 0.00  C 
ATOM     14  CD1 ILE B 119      -2.095  27.426  51.977  1.00 12.51 LIG 0.01  C 
ENDBRANCH 11 13
ENDBRANCH 10 11
BRANCH 10 15
ATOM     15  N   ILE B 119       0.892  28.990  52.888  1.00 12.55 LIG-0.35  N 
ATOM     16 H    ILE B 119       1.466  28.706  53.462  1.00 12.55 LIG 0.16  HD
ATOM     17  C   GLN B 118       1.179  29.172  51.599  1.00 12.00 LIG 0.24  C 
ATOM     18 O    GLN B 118       0.335  29.466  50.736  1.00 12.29 LIG-0.27  OA
BRANCH 17 19
ATOM     19  CA  GLN B 118       2.658  29.091  51.212  1.00 10.88 LIG 0.18  C 
BRANCH 19 20
ATOM     20  N   GLN B 118       2.789  28.716  49.804  1.00  9.13 LIG-0.35  N 
ATOM     21  C   PRO B 117       3.404  27.582  49.447  1.00  5.97 LIG 0.25  C 
ATOM     22 O    PRO B 117       3.970  26.851  50.261  1.00  4.88 LIG-0.27  OA
ATOM     23 H    GLN B 118       2.443  29.275  49.249  1.00  9.13 LIG 0.16  HD
BRANCH 21 24
ATOM     24  CA  PRO B 117       3.484  27.307  47.923  1.00  4.52 LIG 0.35  C 
ATOM     25  CB  PRO B 117       2.133  26.879  47.363  1.00  4.68 LIG 0.05  C 
ATOM     26  CG  PRO B 117       2.408  25.706  46.487  1.00  4.01 LIG 0.04  C 
ATOM     27  CD  PRO B 117       3.565  25.016  47.152  1.00  3.18 LIG 0.32  C 
ATOM     28  N   PRO B 117       4.355  26.155  47.649  1.00  3.80 LIG 0.32  N 
ENDBRANCH 21 24
ENDBRANCH 19 20
BRANCH 19 29
ATOM     29  CB  GLN B 118       3.272  30.442  51.414  1.00 12.35 LIG 0.04  C 
BRANCH 29 30
ATOM     30  CG  GLN B 118       4.747  30.371  51.570  1.00 13.74 LIG 0.10  C 
BRANCH 30 31
ATOM     31  CD  GLN B 118       5.387  30.021  50.296  1.00 14.95 LIG 0.21  C 
ATOM     32  NE2 GLN B 118       4.970  30.695  49.236  1.00 14.23 LIG-0.37  N 
ATOM     33 22HE GLN B 118       5.324  30.548  48.466  1.00 14.23 LIG 0.16  HD
ATOM     34 21HE GLN B 118       4.345  31.281  49.317  1.00 14.23 LIG 0.16  HD
ATOM     35 OE1  GLN B 118       6.272  29.177  50.246  1.00 17.00 LIG-0.27  OA
ENDBRANCH 30 31
ENDBRANCH 29 30
ENDBRANCH 19 29
ENDBRANCH 17 19
ENDBRANCH 10 15
ENDBRANCH 8 10
ENDBRANCH 5 6
BRANCH 5 36
ATOM     36  CB  ILE B 120      -1.118  33.778  54.930  1.00 15.78 LIG 0.01  C 
ATOM     37  CG2 ILE B 120       0.218  34.440  55.236  1.00 15.40 LIG 0.01  C 
BRANCH 36 38
ATOM     38  CG1 ILE B 120      -1.293  33.729  53.417  1.00 16.31 LIG 0.00  C 
ATOM     39  CD1 ILE B 120       0.018  33.357  52.678  1.00 16.15 LIG 0.01  C 
ENDBRANCH 36 38
ENDBRANCH 5 36
ENDBRANCH 1 5
BRANCH 3 40
ATOM     40  CA  ASN B 121      -3.579  32.082  58.466  1.00 16.96 LIG 0.18  C 
BRANCH 40 41
ATOM     41  CB  ASN B 121      -3.468  30.909  59.434  1.00 15.28 LIG 0.14  C 
BRANCH 41 42
ATOM     42  CG  ASN B 121      -4.512  29.846  59.162  1.00 13.24 LIG 0.22  C 
ATOM     43 OD1  ASN B 121      -5.209  29.915  58.147  1.00 13.18 LIG-0.27  OA
ATOM     44  ND2 ASN B 121      -4.651  28.852  60.067  1.00 12.91 LIG-0.37  N 
ATOM     45 22HD ASN B 121      -4.149  28.832  60.765  1.00 12.91 LIG 0.16  HD
ATOM     46 21HD ASN B 121      -5.243  28.240  59.946  1.00 12.91 LIG 0.16  HD
ENDBRANCH 41 42
ENDBRANCH 40 41
BRANCH 40 47
ATOM     47  C   ASN B 121      -3.672  33.408  59.247  1.00 17.96 LIG 0.24  C 
ATOM     48  N   ARG B 122      -4.115  34.473  58.581  1.00 20.13 LIG-0.35  N 
ATOM     49 H    ARG B 122      -4.257  34.460  57.733  1.00 20.13 LIG 0.16  HD
ATOM     50 O    ASN B 121      -3.250  33.459  60.391  1.00 18.88 LIG-0.27  OA
BRANCH 48 51
ATOM     51  CA  ARG B 122      -4.414  35.786  59.194  1.00 22.24 LIG 0.18  C 
BRANCH 51 52
ATOM     52  CB  ARG B 122      -5.623  35.682  60.096  1.00 21.82 LIG 0.04  C 
BRANCH 52 53
ATOM     53  CG  ARG B 122      -6.452  34.462  59.867  1.00 24.56 LIG 0.02  C 
BRANCH 53 54
ATOM     54  CD  ARG B 122      -7.529  34.340  60.927  1.00 26.52 LIG 0.14  C 
BRANCH 54 55
ATOM     55  NE  ARG B 122      -7.052  33.951  62.258  1.00 28.40 LIG-0.23  N 
ATOM     56  CZ  ARG B 122      -6.075  33.080  62.541  1.00 28.18 LIG 0.67  C 
ATOM     57  NH2 ARG B 122      -5.780  32.840  63.816  1.00 29.45 LIG-0.23  N 
ATOM     58  NH1 ARG B 122      -5.405  32.415  61.597  1.00 26.03 LIG-0.23  N 
ATOM     59 1HH2 ARG B 122      -6.215  33.241  64.441  1.00 29.45 LIG 0.17  HD
ATOM     60 2HH2 ARG B 122      -5.155  32.284  64.016  1.00 29.45 LIG 0.17  HD
ATOM     61 1HH1 ARG B 122      -5.595  32.538  60.768  1.00 26.03 LIG 0.17  HD
ATOM     62 2HH1 ARG B 122      -4.783  31.864  61.819  1.00 26.03 LIG 0.17  HD
ATOM     63 HE   ARG B 122      -7.442  34.321  62.928  1.00 28.40 LIG 0.18  HD
ENDBRANCH 54 55
ENDBRANCH 53 54
ENDBRANCH 52 53
ENDBRANCH 51 52
BRANCH 51 64
ATOM     64  C   ARG B 122      -3.192  36.041  60.043  1.00 23.14 LIG 0.24  C 
ATOM     65 O    ARG B 122      -3.318  36.151  61.259  1.00 23.63 LIG-0.27  OA
ATOM     66  N   PRO B 123      -1.999  36.086  59.429  1.00 23.72 LIG-0.34  N 
ATOM     67  CA  PRO B 123      -0.777  36.258  60.204  1.00 24.06 LIG 0.17  C 
ATOM     68  CD  PRO B 123      -1.756  36.300  57.988  1.00 24.11 LIG 0.13  C 
ATOM     69  CB  PRO B 123       0.297  35.760  59.242  1.00 24.84 LIG 0.04  C 
ATOM     70  CG  PRO B 123      -0.242  36.062  57.872  1.00 25.19 LIG 0.02  C 
BRANCH 67 71
ATOM     71  C   PRO B 123      -0.517  37.735  60.593  1.00 23.73 LIG 0.22  C 
ATOM     72 O    PRO B 123      -1.260  38.630  60.159  1.00 24.65 LIG-0.29  OA
ENDBRANCH 67 71
ENDBRANCH 51 64
ENDBRANCH 48 51
ENDBRANCH 40 47
ENDBRANCH 3 40
TORSDOF 25
ENDMDL
MODEL 7
USER: ADFR SOLUTION from run 142
USER: SCORE 27.128318 LL:  -5.417 LR: -24.276 RR:   0.000 FEB: -16.819
USER: RMSD 2.573389
USER: SEED 141
USER: STATUS no improvement in best in 3 clusters for 5 generations
USER: GENES 27
USER: genes 0 Translation |==|  0.45154 0.48793 0.55538
USER: genes 1 Rotation |==|  0.46198 0.51740 0.53945 0.99668
USER: genes 2 Torsion [N]-C--CA-[N] |==|  0.35514
USER: genes 3 Torsion [C]-CA--N-[C] |==|  0.68239
USER: genes 4 Torsion [N]-C--CA-[N] |==|  0.37744
USER: genes 5 Torsion [C]-CA--CB-[CG2] |==|  0.16361
USER: genes 6 Torsion [CA]-CB--CG1-[CD1] |==|  0.82054
USER: genes 7 Torsion [C]-CA--N-[C] |==|  0.65215
USER: genes 8 Torsion [N]-C--CA-[N] |==|  0.42731
USER: genes 9 Torsion [C]-CA--N-[C] |==|  0.66217
USER: genes 10 Torsion [N]-C--CA-[CB] |==|  0.96894
USER: genes 11 Torsion [C]-CA--CB-[CG] |==|  0.43005
USER: genes 12 Torsion [CA]-CB--CG-[CD] |==|  0.21762
USER: genes 13 Torsion [CB]-CG--CD-[NE2] |==|  0.10378
USER: genes 14 Torsion [C]-CA--CB-[CG2] |==|  0.19921
USER: genes 15 Torsion [CA]-CB--CG1-[CD1] |==|  0.25794
USER: genes 16 Torsion [C]-N--CA-[CB] |==|  0.38416
USER: genes 17 Torsion [N]-CA--CB-[CG] |==|  0.76729
USER: genes 18 Torsion [CA]-CB--CG-[OD1] |==|  0.06153
USER: genes 19 Torsion [N]-CA--C-[N] |==|  0.31916
USER: genes 20 Torsion [C]-N--CA-[C] |==|  0.67366
USER: genes 21 Torsion [N]-CA--CB-[CG] |==|  0.47508
USER: genes 22 Torsion [CA]-CB--CG-[CD] |==|  0.66629
USER: genes 23 Torsion [CB]-CG--CD-[NE] |==|  0.42170
USER: genes 24 Torsion [CG]-CD--NE-[HE] |==|  0.19250
USER: genes 25 Torsion [N]-CA--C-[N] |==|  0.25469
USER: genes 26 Torsion [N]-CA--C-[O] |==|  0.10033
ROOT
ATOM      1  C   ILE B 120      -2.480  32.193  56.138  1.00 16.04 LIG 0.24  C 
ATOM      2 O    ILE B 120      -3.523  32.021  55.508  1.00 15.27 LIG-0.27  OA
ATOM      3  N   ASN B 121      -2.400  32.121  57.466  1.00 16.46 LIG-0.35  N 
ATOM      4 H    ASN B 121      -1.656  32.141  57.898  1.00 16.46 LIG 0.16  HD
ENDROOT
BRANCH 1 5
ATOM      5  CA  ILE B 120      -1.165  32.382  55.395  1.00 16.12 LIG 0.18  C 
BRANCH 5 6
ATOM      6  N   ILE B 120      -1.136  31.303  54.365  1.00 14.41 LIG-0.35  N 
ATOM      7 H    ILE B 120      -1.747  31.390  53.766  1.00 14.41 LIG 0.16  HD
ATOM      8  C   ILE B 119      -0.261  30.300  54.360  1.00 14.21 LIG 0.24  C 
ATOM      9 O    ILE B 119       0.604  30.110  55.223  1.00 13.95 LIG-0.27  OA
BRANCH 8 10
ATOM     10  CA  ILE B 119      -0.420  29.292  53.232  1.00 14.01 LIG 0.18  C 
BRANCH 10 11
ATOM     11  CB  ILE B 119      -1.083  28.068  53.901  1.00 14.26 LIG 0.01  C 
ATOM     12  CG2 ILE B 119      -2.416  28.450  54.526  1.00 14.00 LIG 0.01  C 
BRANCH 11 13
ATOM     13  CG1 ILE B 119      -1.367  26.966  52.896  1.00 15.18 LIG 0.00  C 
ATOM     14  CD1 ILE B 119      -2.384  27.373  51.848  1.00 12.51 LIG 0.01  C 
ENDBRANCH 11 13
ENDBRANCH 10 11
BRANCH 10 15
ATOM     15  N   ILE B 119       0.924  29.006  52.699  1.00 12.55 LIG-0.35  N 
ATOM     16 H    ILE B 119       1.484  28.746  53.298  1.00 12.55 LIG 0.16  HD
ATOM     17  C   GLN B 118       1.244  29.139  51.411  1.00 12.00 LIG 0.24  C 
ATOM     18 O    GLN B 118       0.422  29.396  50.516  1.00 12.29 LIG-0.27  OA
BRANCH 17 19
ATOM     19  CA  GLN B 118       2.732  29.046  51.066  1.00 10.88 LIG 0.18  C 
BRANCH 19 20
ATOM     20  N   GLN B 118       2.900  28.591  49.685  1.00  9.13 LIG-0.35  N 
ATOM     21  C   PRO B 117       3.590  27.479  49.405  1.00  5.97 LIG 0.25  C 
ATOM     22 O    PRO B 117       4.195  26.840  50.267  1.00  4.88 LIG-0.27  OA
ATOM     23 H    GLN B 118       2.525  29.090  49.094  1.00  9.13 LIG 0.16  HD
BRANCH 21 24
ATOM     24  CA  PRO B 117       3.702  27.113  47.903  1.00  4.52 LIG 0.35  C 
ATOM     25  CB  PRO B 117       2.762  27.960  47.052  1.00  4.68 LIG 0.05  C 
ATOM     26  CG  PRO B 117       2.095  27.012  46.116  1.00  4.01 LIG 0.04  C 
ATOM     27  CD  PRO B 117       1.980  25.738  46.904  1.00  3.18 LIG 0.32  C 
ATOM     28  N   PRO B 117       3.240  25.737  47.668  1.00  3.80 LIG 0.32  N 
ENDBRANCH 21 24
ENDBRANCH 19 20
BRANCH 19 29
ATOM     29  CB  GLN B 118       3.334  30.411  51.204  1.00 12.35 LIG 0.04  C 
BRANCH 29 30
ATOM     30  CG  GLN B 118       4.790  30.358  51.482  1.00 13.74 LIG 0.10  C 
BRANCH 30 31
ATOM     31  CD  GLN B 118       5.544  30.084  50.253  1.00 14.95 LIG 0.21  C 
ATOM     32  NE2 GLN B 118       5.082  30.655  49.152  1.00 14.23 LIG-0.37  N 
ATOM     33 22HE GLN B 118       5.495  30.548  48.406  1.00 14.23 LIG 0.16  HD
ATOM     34 21HE GLN B 118       4.369  31.135  49.184  1.00 14.23 LIG 0.16  HD
ATOM     35 OE1  GLN B 118       6.554  29.391  50.273  1.00 17.00 LIG-0.27  OA
ENDBRANCH 30 31
ENDBRANCH 29 30
ENDBRANCH 19 29
ENDBRANCH 17 19
ENDBRANCH 10 15
ENDBRANCH 8 10
ENDBRANCH 5 6
BRANCH 5 36
ATOM     36  CB  ILE B 120      -1.156  33.773  54.811  1.00 15.78 LIG 0.01  C 
ATOM     37  CG2 ILE B 120      -0.985  34.794  55.927  1.00 15.40 LIG 0.01  C 
BRANCH 36 38
ATOM     38  CG1 ILE B 120      -0.028  33.969  53.805  1.00 16.31 LIG 0.00  C 
ATOM     39  CD1 ILE B 120      -0.470  33.676  52.349  1.00 16.15 LIG 0.01  C 
ENDBRANCH 36 38
ENDBRANCH 5 36
ENDBRANCH 1 5
BRANCH 3 40
ATOM     40  CA  ASN B 121      -3.572  32.001  58.313  1.00 16.96 LIG 0.18  C 
BRANCH 40 41
ATOM     41  CB  ASN B 121      -3.327  30.999  59.435  1.00 15.28 LIG 0.14  C 
BRANCH 41 42
ATOM     42  CG  ASN B 121      -3.576  29.573  58.988  1.00 13.24 LIG 0.22  C 
ATOM     43 OD1  ASN B 121      -3.530  29.288  57.790  1.00 13.18 LIG-0.27  OA
ATOM     44  ND2 ASN B 121      -3.861  28.654  59.939  1.00 12.91 LIG-0.37  N 
ATOM     45 22HD ASN B 121      -3.886  28.886  60.767  1.00 12.91 LIG 0.16  HD
ATOM     46 21HD ASN B 121      -4.018  27.839  59.715  1.00 12.91 LIG 0.16  HD
ENDBRANCH 41 42
ENDBRANCH 40 41
BRANCH 40 47
ATOM     47  C   ASN B 121      -3.854  33.398  58.900  1.00 17.96 LIG 0.24  C 
ATOM     48  N   ARG B 122      -4.990  33.991  58.536  1.00 20.13 LIG-0.35  N 
ATOM     49 H    ARG B 122      -5.506  33.664  57.931  1.00 20.13 LIG 0.16  HD
ATOM     50 O    ASN B 121      -3.000  33.943  59.581  1.00 18.88 LIG-0.27  OA
BRANCH 48 51
ATOM     51  CA  ARG B 122      -5.502  35.255  59.108  1.00 22.24 LIG 0.18  C 
BRANCH 51 52
ATOM     52  CB  ARG B 122      -5.798  36.248  58.007  1.00 21.82 LIG 0.04  C 
BRANCH 52 53
ATOM     53  CG  ARG B 122      -6.515  37.474  58.467  1.00 24.56 LIG 0.02  C 
BRANCH 53 54
ATOM     54  CD  ARG B 122      -7.848  37.613  57.758  1.00 26.52 LIG 0.14  C 
BRANCH 54 55
ATOM     55  NE  ARG B 122      -8.884  38.324  58.514  1.00 28.40 LIG-0.23  N 
ATOM     56  CZ  ARG B 122      -9.999  37.801  59.042  1.00 28.18 LIG 0.67  C 
ATOM     57  NH2 ARG B 122     -10.837  38.604  59.693  1.00 29.45 LIG-0.23  N 
ATOM     58  NH1 ARG B 122     -10.323  36.513  58.913  1.00 26.03 LIG-0.23  N 
ATOM     59 1HH2 ARG B 122     -10.659  39.443  59.768  1.00 29.45 LIG 0.17  HD
ATOM     60 2HH2 ARG B 122     -11.557  38.285  60.039  1.00 29.45 LIG 0.17  HD
ATOM     61 1HH1 ARG B 122      -9.806  35.981  58.477  1.00 26.03 LIG 0.17  HD
ATOM     62 2HH1 ARG B 122     -11.047  36.215  59.267  1.00 26.03 LIG 0.17  HD
ATOM     63 HE   ARG B 122      -8.763  39.167  58.631  1.00 28.40 LIG 0.18  HD
ENDBRANCH 54 55
ENDBRANCH 53 54
ENDBRANCH 52 53
ENDBRANCH 51 52
BRANCH 51 64
ATOM     64  C   ARG B 122      -6.805  34.828  59.741  1.00 23.14 LIG 0.24  C 
ATOM     65 O    ARG B 122      -7.822  34.791  59.056  1.00 23.63 LIG-0.27  OA
ATOM     66  N   PRO B 123      -6.782  34.455  61.031  1.00 23.72 LIG-0.34  N 
ATOM     67  CA  PRO B 123      -7.993  33.967  61.678  1.00 24.06 LIG 0.17  C 
ATOM     68  CD  PRO B 123      -5.733  34.768  62.022  1.00 24.11 LIG 0.13  C 
ATOM     69  CB  PRO B 123      -7.443  33.215  62.885  1.00 24.84 LIG 0.04  C 
ATOM     70  CG  PRO B 123      -6.166  33.928  63.234  1.00 25.19 LIG 0.02  C 
BRANCH 67 71
ATOM     71  C   PRO B 123      -8.934  35.111  62.131  1.00 23.73 LIG 0.22  C 
ATOM     72 O    PRO B 123      -9.042  36.136  61.440  1.00 24.65 LIG-0.29  OA
ENDBRANCH 67 71
ENDBRANCH 51 64
ENDBRANCH 48 51
ENDBRANCH 40 47
ENDBRANCH 3 40
TORSDOF 25
ENDMDL
MODEL 8
USER: ADFR SOLUTION from run 116
USER: SCORE 27.929871 LL:  -5.281 LR: -24.156 RR:   0.000 FEB: -16.699
USER: RMSD 3.541076
USER: SEED 115
USER: STATUS no improvement in best in 4 clusters for 5 generations
USER: GENES 27
USER: genes 0 Translation |==|  0.45419 0.50035 0.54894
USER: genes 1 Rotation |==|  0.50468 0.51835 0.49635 0.99963
USER: genes 2 Torsion [N]-C--CA-[N] |==|  0.30791
USER: genes 3 Torsion [C]-CA--N-[C] |==|  0.68520
USER: genes 4 Torsion [N]-C--CA-[N] |==|  0.36529
USER: genes 5 Torsion [C]-CA--CB-[CG2] |==|  0.17006
USER: genes 6 Torsion [CA]-CB--CG1-[CD1] |==|  0.82925
USER: genes 7 Torsion [C]-CA--N-[C] |==|  0.67392
USER: genes 8 Torsion [N]-C--CA-[N] |==|  0.44003
USER: genes 9 Torsion [C]-CA--N-[C] |==|  0.64671
USER: genes 10 Torsion [N]-C--CA-[CB] |==|  0.91611
USER: genes 11 Torsion [C]-CA--CB-[CG] |==|  0.53123
USER: genes 12 Torsion [CA]-CB--CG-[CD] |==|  0.40783
USER: genes 13 Torsion [CB]-CG--CD-[NE2] |==|  0.77257
USER: genes 14 Torsion [C]-CA--CB-[CG2] |==|  0.17396
USER: genes 15 Torsion [CA]-CB--CG1-[CD1] |==|  0.22306
USER: genes 16 Torsion [C]-N--CA-[CB] |==|  0.45608
USER: genes 17 Torsion [N]-CA--CB-[CG] |==|  0.71671
USER: genes 18 Torsion [CA]-CB--CG-[OD1] |==|  0.35973
USER: genes 19 Torsion [N]-CA--C-[N] |==|  0.43008
USER: genes 20 Torsion [C]-N--CA-[C] |==|  0.82348
USER: genes 21 Torsion [N]-CA--CB-[CG] |==|  0.32959
USER: genes 22 Torsion [CA]-CB--CG-[CD] |==|  0.70425
USER: genes 23 Torsion [CB]-CG--CD-[NE] |==|  0.35158
USER: genes 24 Torsion [CG]-CD--NE-[HE] |==|  0.22250
USER: genes 25 Torsion [N]-CA--C-[N] |==|  0.40456
USER: genes 26 Torsion [N]-CA--C-[O] |==|  0.14357
ROOT
ATOM      1  C   ILE B 120      -2.414  32.473  55.978  1.00 16.04 LIG 0.24  C 
ATOM      2 O    ILE B 120      -3.464  32.593  55.349  1.00 15.27 LIG-0.27  OA
ATOM      3  N   ASN B 121      -2.363  32.171  57.275  1.00 16.46 LIG-0.35  N 
ATOM      4 H    ASN B 121      -1.633  31.989  57.692  1.00 16.46 LIG 0.16  HD
ENDROOT
BRANCH 1 5
ATOM      5  CA  ILE B 120      -1.079  32.545  55.252  1.00 16.12 LIG 0.18  C 
BRANCH 5 6
ATOM      6  N   ILE B 120      -1.069  31.373  54.329  1.00 14.41 LIG-0.35  N 
ATOM      7 H    ILE B 120      -1.655  31.431  53.702  1.00 14.41 LIG 0.16  HD
ATOM      8  C   ILE B 119      -0.244  30.336  54.449  1.00 14.21 LIG 0.24  C 
ATOM      9 O    ILE B 119       0.582  30.189  55.357  1.00 13.95 LIG-0.27  OA
BRANCH 8 10
ATOM     10  CA  ILE B 119      -0.415  29.234  53.415  1.00 14.01 LIG 0.18  C 
BRANCH 10 11
ATOM     11  CB  ILE B 119      -1.056  28.067  54.198  1.00 14.26 LIG 0.01  C 
ATOM     12  CG2 ILE B 119      -2.408  28.475  54.765  1.00 14.00 LIG 0.01  C 
BRANCH 11 13
ATOM     13  CG1 ILE B 119      -1.297  26.861  53.308  1.00 15.18 LIG 0.00  C 
ATOM     14  CD1 ILE B 119      -2.251  27.153  52.167  1.00 12.51 LIG 0.01  C 
ENDBRANCH 11 13
ENDBRANCH 10 11
BRANCH 10 15
ATOM     15  N   ILE B 119       0.922  28.912  52.883  1.00 12.55 LIG-0.35  N 
ATOM     16 H    ILE B 119       1.464  28.605  53.477  1.00 12.55 LIG 0.16  HD
ATOM     17  C   GLN B 118       1.261  29.080  51.605  1.00 12.00 LIG 0.24  C 
ATOM     18 O    GLN B 118       0.461  29.407  50.713  1.00 12.29 LIG-0.27  OA
BRANCH 17 19
ATOM     19  CA  GLN B 118       2.748  28.938  51.270  1.00 10.88 LIG 0.18  C 
BRANCH 19 20
ATOM     20  N   GLN B 118       2.916  28.636  49.848  1.00  9.13 LIG-0.35  N 
ATOM     21  C   PRO B 117       3.639  27.584  49.448  1.00  5.97 LIG 0.25  C 
ATOM     22 O    PRO B 117       4.273  26.878  50.233  1.00  4.88 LIG-0.27  OA
ATOM     23 H    GLN B 118       2.518  29.182  49.316  1.00  9.13 LIG 0.16  HD
BRANCH 21 24
ATOM     24  CA  PRO B 117       3.746  27.382  47.914  1.00  4.52 LIG 0.35  C 
ATOM     25  CB  PRO B 117       2.504  27.896  47.197  1.00  4.68 LIG 0.05  C 
ATOM     26  CG  PRO B 117       2.133  26.838  46.215  1.00  4.01 LIG 0.04  C 
ATOM     27  CD  PRO B 117       2.534  25.557  46.888  1.00  3.18 LIG 0.32  C 
ATOM     28  N   PRO B 117       3.774  25.950  47.580  1.00  3.80 LIG 0.32  N 
ENDBRANCH 21 24
ENDBRANCH 19 20
BRANCH 19 29
ATOM     29  CB  GLN B 118       3.426  30.239  51.574  1.00 12.35 LIG 0.04  C 
BRANCH 29 30
ATOM     30  CG  GLN B 118       4.808  30.291  51.037  1.00 13.74 LIG 0.10  C 
BRANCH 30 31
ATOM     31  CD  GLN B 118       5.155  31.657  50.627  1.00 14.95 LIG 0.21  C 
ATOM     32  NE2 GLN B 118       4.727  32.028  49.431  1.00 14.23 LIG-0.37  N 
ATOM     33 22HE GLN B 118       4.882  32.824  49.147  1.00 14.23 LIG 0.16  HD
ATOM     34 21HE GLN B 118       4.292  31.472  48.938  1.00 14.23 LIG 0.16  HD
ATOM     35 OE1  GLN B 118       5.777  32.401  51.375  1.00 17.00 LIG-0.27  OA
ENDBRANCH 30 31
ENDBRANCH 29 30
ENDBRANCH 19 29
ENDBRANCH 17 19
ENDBRANCH 10 15
ENDBRANCH 8 10
ENDBRANCH 5 6
BRANCH 5 36
ATOM     36  CB  ILE B 120      -1.007  33.873  54.541  1.00 15.78 LIG 0.01  C 
ATOM     37  CG2 ILE B 120      -1.048  35.002  55.562  1.00 15.40 LIG 0.01  C 
BRANCH 36 38
ATOM     38  CG1 ILE B 120       0.267  34.019  53.717  1.00 16.31 LIG 0.00  C 
ATOM     39  CD1 ILE B 120       0.179  33.294  52.350  1.00 16.15 LIG 0.01  C 
ENDBRANCH 36 38
ENDBRANCH 5 36
ENDBRANCH 1 5
BRANCH 3 40
ATOM     40  CA  ASN B 121      -3.547  32.124  58.113  1.00 16.96 LIG 0.18  C 
BRANCH 40 41
ATOM     41  CB  ASN B 121      -3.256  31.391  59.417  1.00 15.28 LIG 0.14  C 
BRANCH 41 42
ATOM     42  CG  ASN B 121      -3.790  29.973  59.404  1.00 13.24 LIG 0.22  C 
ATOM     43 OD1  ASN B 121      -3.052  29.037  59.719  1.00 13.18 LIG-0.27  OA
ATOM     44  ND2 ASN B 121      -5.073  29.785  59.025  1.00 12.91 LIG-0.37  N 
ATOM     45 22HD ASN B 121      -5.562  30.460  58.811  1.00 12.91 LIG 0.16  HD
ATOM     46 21HD ASN B 121      -5.401  28.991  58.997  1.00 12.91 LIG 0.16  HD
ENDBRANCH 41 42
ENDBRANCH 40 41
BRANCH 40 47
ATOM     47  C   ASN B 121      -3.958  33.581  58.403  1.00 17.96 LIG 0.24  C 
ATOM     48  N   ARG B 122      -5.240  33.803  58.691  1.00 20.13 LIG-0.35  N 
ATOM     49 H    ARG B 122      -5.838  33.188  58.630  1.00 20.13 LIG 0.16  HD
ATOM     50 O    ASN B 121      -3.138  34.473  58.261  1.00 18.88 LIG-0.27  OA
BRANCH 48 51
ATOM     51  CA  ARG B 122      -5.790  35.100  59.141  1.00 22.24 LIG 0.18  C 
BRANCH 51 52
ATOM     52  CB  ARG B 122      -7.277  34.983  59.389  1.00 21.82 LIG 0.04  C 
BRANCH 52 53
ATOM     53  CG  ARG B 122      -7.684  35.261  60.798  1.00 24.56 LIG 0.02  C 
BRANCH 53 54
ATOM     54  CD  ARG B 122      -8.060  33.976  61.511  1.00 26.52 LIG 0.14  C 
BRANCH 54 55
ATOM     55  NE  ARG B 122      -7.359  33.739  62.777  1.00 28.40 LIG-0.23  N 
ATOM     56  CZ  ARG B 122      -6.303  32.941  62.976  1.00 28.18 LIG 0.67  C 
ATOM     57  NH2 ARG B 122      -5.799  32.840  64.205  1.00 29.45 LIG-0.23  N 
ATOM     58  NH1 ARG B 122      -5.754  32.213  62.002  1.00 26.03 LIG-0.23  N 
ATOM     59 1HH2 ARG B 122      -6.151  33.283  64.852  1.00 29.45 LIG 0.17  HD
ATOM     60 2HH2 ARG B 122      -5.120  32.332  64.351  1.00 29.45 LIG 0.17  HD
ATOM     61 1HH1 ARG B 122      -6.078  32.246  61.206  1.00 26.03 LIG 0.17  HD
ATOM     62 2HH1 ARG B 122      -5.075  31.713  62.170  1.00 26.03 LIG 0.17  HD
ATOM     63 HE   ARG B 122      -7.659  34.158  63.466  1.00 28.40 LIG 0.18  HD
ENDBRANCH 54 55
ENDBRANCH 53 54
ENDBRANCH 52 53
ENDBRANCH 51 52
BRANCH 51 64
ATOM     64  C   ARG B 122      -5.092  35.315  60.463  1.00 23.14 LIG 0.24  C 
ATOM     65 O    ARG B 122      -4.793  34.343  61.149  1.00 23.63 LIG-0.27  OA
ATOM     66  N   PRO B 123      -4.781  36.574  60.810  1.00 23.72 LIG-0.34  N 
ATOM     67  CA  PRO B 123      -4.044  36.838  62.039  1.00 24.06 LIG 0.17  C 
ATOM     68  CD  PRO B 123      -5.366  37.812  60.257  1.00 24.11 LIG 0.13  C 
ATOM     69  CB  PRO B 123      -3.486  38.237  61.796  1.00 24.84 LIG 0.04  C 
ATOM     70  CG  PRO B 123      -4.491  38.902  60.898  1.00 25.19 LIG 0.02  C 
BRANCH 67 71
ATOM     71  C   PRO B 123      -4.951  36.825  63.296  1.00 23.73 LIG 0.22  C 
ATOM     72 O    PRO B 123      -5.702  35.860  63.509  1.00 24.65 LIG-0.29  OA
ENDBRANCH 67 71
ENDBRANCH 51 64
ENDBRANCH 48 51
ENDBRANCH 40 47
ENDBRANCH 3 40
TORSDOF 25
ENDMDL
MODEL 9
USER: ADFR SOLUTION from run 145
USER: SCORE 27.167218 LL:  -5.528 LR: -24.058 RR:   0.000 FEB: -16.600
USER: RMSD 1.615277
USER: SEED 144
USER: STATUS searching
USER: GENES 27
USER: genes 0 Translation |==|  0.46463 0.49448 0.54753
USER: genes 1 Rotation |==|  0.51913 0.51334 0.48645 0.99927
USER: genes 2 Torsion [N]-C--CA-[N] |==|  0.30802
USER: genes 3 Torsion [C]-CA--N-[C] |==|  0.70027
USER: genes 4 Torsion [N]-C--CA-[N] |==|  0.34082
USER: genes 5 Torsion [C]-CA--CB-[CG2] |==|  0.14247
USER: genes 6 Torsion [CA]-CB--CG1-[CD1] |==|  0.82274
USER: genes 7 Torsion [C]-CA--N-[C] |==|  0.67398
USER: genes 8 Torsion [N]-C--CA-[N] |==|  0.41115
USER: genes 9 Torsion [C]-CA--N-[C] |==|  0.65950
USER: genes 10 Torsion [N]-C--CA-[CB] |==|  0.96554
USER: genes 11 Torsion [C]-CA--CB-[CG] |==|  0.43831
USER: genes 12 Torsion [CA]-CB--CG-[CD] |==|  0.22012
USER: genes 13 Torsion [CB]-CG--CD-[NE2] |==|  0.09988
USER: genes 14 Torsion [C]-CA--CB-[CG2] |==|  0.42579
USER: genes 15 Torsion [CA]-CB--CG1-[CD1] |==|  0.73157
USER: genes 16 Torsion [C]-N--CA-[CB] |==|  0.41845
USER: genes 17 Torsion [N]-CA--CB-[CG] |==|  0.65913
USER: genes 18 Torsion [CA]-CB--CG-[OD1] |==|  0.01885
USER: genes 19 Torsion [N]-CA--C-[N] |==|  0.31222
USER: genes 20 Torsion [C]-N--CA-[C] |==|  0.66419
USER: genes 21 Torsion [N]-CA--CB-[CG] |==|  0.85583
USER: genes 22 Torsion [CA]-CB--CG-[CD] |==|  0.87546
USER: genes 23 Torsion [CB]-CG--CD-[NE] |==|  0.52203
USER: genes 24 Torsion [CG]-CD--NE-[HE] |==|  0.16406
USER: genes 25 Torsion [N]-CA--C-[N] |==|  0.26672
USER: genes 26 Torsion [N]-CA--C-[O] |==|  0.01280
ROOT
ATOM      1  C   ILE B 120      -2.155  32.341  55.943  1.00 16.04 LIG 0.24  C 
ATOM      2 O    ILE B 120      -3.186  32.541  55.302  1.00 15.27 LIG-0.27  OA
ATOM      3  N   ASN B 121      -2.144  31.966  57.222  1.00 16.46 LIG-0.35  N 
ATOM      4 H    ASN B 121      -1.431  31.729  57.641  1.00 16.46 LIG 0.16  HD
ENDROOT
BRANCH 1 5
ATOM      5  CA  ILE B 120      -0.803  32.396  55.247  1.00 16.12 LIG 0.18  C 
BRANCH 5 6
ATOM      6  N   ILE B 120      -0.823  31.279  54.259  1.00 14.41 LIG-0.35  N 
ATOM      7 H    ILE B 120      -1.338  31.430  53.587  1.00 14.41 LIG 0.16  HD
ATOM      8  C   ILE B 119      -0.121  30.156  54.389  1.00 14.21 LIG 0.24  C 
ATOM      9 O    ILE B 119       0.596  29.876  55.357  1.00 13.95 LIG-0.27  OA
BRANCH 8 10
ATOM     10  CA  ILE B 119      -0.302  29.133  53.279  1.00 14.01 LIG 0.18  C 
BRANCH 10 11
ATOM     11  CB  ILE B 119      -0.925  27.907  53.982  1.00 14.26 LIG 0.01  C 
ATOM     12  CG2 ILE B 119      -2.142  28.315  54.801  1.00 14.00 LIG 0.01  C 
BRANCH 11 13
ATOM     13  CG1 ILE B 119      -1.396  26.867  52.982  1.00 15.18 LIG 0.00  C 
ATOM     14  CD1 ILE B 119      -2.512  27.372  52.089  1.00 12.51 LIG 0.01  C 
ENDBRANCH 11 13
ENDBRANCH 10 11
BRANCH 10 15
ATOM     15  N   ILE B 119       1.028  28.859  52.706  1.00 12.55 LIG-0.35  N 
ATOM     16 H    ILE B 119       1.580  28.513  53.267  1.00 12.55 LIG 0.16  HD
ATOM     17  C   GLN B 118       1.348  29.124  51.438  1.00 12.00 LIG 0.24  C 
ATOM     18 O    GLN B 118       0.533  29.512  50.585  1.00 12.29 LIG-0.27  OA
BRANCH 17 19
ATOM     19  CA  GLN B 118       2.830  29.017  51.072  1.00 10.88 LIG 0.18  C 
BRANCH 19 20
ATOM     20  N   GLN B 118       2.974  28.579  49.683  1.00  9.13 LIG-0.35  N 
ATOM     21  C   PRO B 117       3.661  27.473  49.377  1.00  5.97 LIG 0.25  C 
ATOM     22 O    PRO B 117       4.282  26.824  50.219  1.00  4.88 LIG-0.27  OA
ATOM     23 H    GLN B 118       2.587  29.085  49.105  1.00  9.13 LIG 0.16  HD
BRANCH 21 24
ATOM     24  CA  PRO B 117       3.746  27.127  47.868  1.00  4.52 LIG 0.35  C 
ATOM     25  CB  PRO B 117       2.768  27.961  47.049  1.00  4.68 LIG 0.05  C 
ATOM     26  CG  PRO B 117       2.101  27.009  46.117  1.00  4.01 LIG 0.04  C 
ATOM     27  CD  PRO B 117       2.033  25.724  46.892  1.00  3.18 LIG 0.32  C 
ATOM     28  N   PRO B 117       3.310  25.743  47.627  1.00  3.80 LIG 0.32  N 
ENDBRANCH 21 24
ENDBRANCH 19 20
BRANCH 19 29
ATOM     29  CB  GLN B 118       3.452  30.371  51.222  1.00 12.35 LIG 0.04  C 
BRANCH 29 30
ATOM     30  CG  GLN B 118       4.922  30.296  51.411  1.00 13.74 LIG 0.10  C 
BRANCH 30 31
ATOM     31  CD  GLN B 118       5.600  30.082  50.126  1.00 14.95 LIG 0.21  C 
ATOM     32  NE2 GLN B 118       5.061  30.689  49.080  1.00 14.23 LIG-0.37  N 
ATOM     33 22HE GLN B 118       5.427  30.617  48.306  1.00 14.23 LIG 0.16  HD
ATOM     34 21HE GLN B 118       4.345  31.155  49.176  1.00 14.23 LIG 0.16  HD
ATOM     35 OE1  GLN B 118       6.618  29.405  50.055  1.00 17.00 LIG-0.27  OA
ENDBRANCH 30 31
ENDBRANCH 29 30
ENDBRANCH 19 29
ENDBRANCH 17 19
ENDBRANCH 10 15
ENDBRANCH 8 10
ENDBRANCH 5 6
BRANCH 5 36
ATOM     36  CB  ILE B 120      -0.662  33.759  54.615  1.00 15.78 LIG 0.01  C 
ATOM     37  CG2 ILE B 120       0.813  34.118  54.500  1.00 15.40 LIG 0.01  C 
BRANCH 36 38
ATOM     38  CG1 ILE B 120      -1.277  33.814  53.222  1.00 16.31 LIG 0.00  C 
ATOM     39  CD1 ILE B 120      -0.230  33.603  52.098  1.00 16.15 LIG 0.01  C 
ENDBRANCH 36 38
ENDBRANCH 5 36
ENDBRANCH 1 5
BRANCH 3 40
ATOM     40  CA  ASN B 121      -3.347  31.922  58.033  1.00 16.96 LIG 0.18  C 
BRANCH 40 41
ATOM     41  CB  ASN B 121      -3.231  30.851  59.112  1.00 15.28 LIG 0.14  C 
BRANCH 41 42
ATOM     42  CG  ASN B 121      -4.351  29.835  59.027  1.00 13.24 LIG 0.22  C 
ATOM     43 OD1  ASN B 121      -5.139  29.867  58.080  1.00 13.18 LIG-0.27  OA
ATOM     44  ND2 ASN B 121      -4.453  28.923  60.021  1.00 12.91 LIG-0.37  N 
ATOM     45 22HD ASN B 121      -3.886  28.927  60.668  1.00 12.91 LIG 0.16  HD
ATOM     46 21HD ASN B 121      -5.084  28.340  60.005  1.00 12.91 LIG 0.16  HD
ENDBRANCH 41 42
ENDBRANCH 40 41
BRANCH 40 47
ATOM     47  C   ASN B 121      -3.511  33.312  58.679  1.00 17.96 LIG 0.24  C 
ATOM     48  N   ARG B 122      -4.546  34.049  58.277  1.00 20.13 LIG-0.35  N 
ATOM     49 H    ARG B 122      -5.052  33.813  57.623  1.00 20.13 LIG 0.16  HD
ATOM     50 O    ASN B 121      -2.651  33.722  59.442  1.00 18.88 LIG-0.27  OA
BRANCH 48 51
ATOM     51  CA  ARG B 122      -4.952  35.334  58.885  1.00 22.24 LIG 0.18  C 
BRANCH 51 52
ATOM     52  CB  ARG B 122      -4.978  36.426  57.839  1.00 21.82 LIG 0.04  C 
BRANCH 52 53
ATOM     53  CG  ARG B 122      -3.719  36.537  57.043  1.00 24.56 LIG 0.02  C 
BRANCH 53 54
ATOM     54  CD  ARG B 122      -2.505  36.463  57.948  1.00 26.52 LIG 0.14  C 
BRANCH 54 55
ATOM     55  NE  ARG B 122      -1.223  36.744  57.293  1.00 28.40 LIG-0.23  N 
ATOM     56  CZ  ARG B 122      -0.164  35.928  57.212  1.00 28.18 LIG 0.67  C 
ATOM     57  NH2 ARG B 122       0.928  36.357  56.582  1.00 29.45 LIG-0.23  N 
ATOM     58  NH1 ARG B 122      -0.143  34.715  57.767  1.00 26.03 LIG-0.23  N 
ATOM     59 1HH2 ARG B 122       0.944  37.144  56.236  1.00 29.45 LIG 0.17  HD
ATOM     60 2HH2 ARG B 122       1.617  35.846  56.520  1.00 29.45 LIG 0.17  HD
ATOM     61 1HH1 ARG B 122      -0.829  34.427  58.198  1.00 26.03 LIG 0.17  HD
ATOM     62 2HH1 ARG B 122       0.556  34.220  57.693  1.00 26.03 LIG 0.17  HD
ATOM     63 HE   ARG B 122      -1.143  37.515  56.921  1.00 28.40 LIG 0.18  HD
ENDBRANCH 54 55
ENDBRANCH 53 54
ENDBRANCH 52 53
ENDBRANCH 51 52
BRANCH 51 64
ATOM     64  C   ARG B 122      -6.367  35.056  59.333  1.00 23.14 LIG 0.24  C 
ATOM     65 O    ARG B 122      -7.281  35.128  58.517  1.00 23.63 LIG-0.27  OA
ATOM     66  N   PRO B 123      -6.560  34.689  60.610  1.00 23.72 LIG-0.34  N 
ATOM     67  CA  PRO B 123      -7.894  34.340  61.083  1.00 24.06 LIG 0.17  C 
ATOM     68  CD  PRO B 123      -5.626  34.890  61.736  1.00 24.11 LIG 0.13  C 
ATOM     69  CB  PRO B 123      -7.597  33.538  62.346  1.00 24.84 LIG 0.04  C 
ATOM     70  CG  PRO B 123      -6.309  34.108  62.870  1.00 25.19 LIG 0.02  C 
BRANCH 67 71
ATOM     71  C   PRO B 123      -8.756  35.583  61.417  1.00 23.73 LIG 0.22  C 
ATOM     72 O    PRO B 123      -8.317  36.722  61.190  1.00 24.65 LIG-0.29  OA
ENDBRANCH 67 71
ENDBRANCH 51 64
ENDBRANCH 48 51
ENDBRANCH 40 47
ENDBRANCH 3 40
TORSDOF 25
ENDMDL
