MODEL 1
USER: ADFR SOLUTION from run 32
USER: SCORE 16.294418 LL:  -2.806 LR: -16.058 RR:   0.000 FEB:  -9.197
USER: RMSD 4.164775
USER: SEED 31
USER: STATUS no improvement in best in 25 clusters for 5 generations
USER: GENES 25
USER: genes 0 Translation |==|  0.47793 0.62912 0.48541
USER: genes 1 Rotation |==|  0.41946 0.51311 0.50603 0.99326
USER: genes 2 Torsion [C]-CA--CB-[CG] |==|  0.29816
USER: genes 3 Torsion [CA]-CB--CG-[CD] |==|  0.02196
USER: genes 4 Torsion [CB]-CG--CD-[NE] |==|  0.22960
USER: genes 5 Torsion [CG]-CD--NE-[HE] |==|  0.08567
USER: genes 6 Torsion [N]-CA--C-[N] |==|  0.39038
USER: genes 7 Torsion [C]-N--CA-[C] |==|  0.75156
USER: genes 8 Torsion [N]-CA--C-[N] |==|  0.12969
USER: genes 9 Torsion [C]-N--CA-[CB] |==|  0.38395
USER: genes 10 Torsion [N]-CA--CB-[CG] |==|  0.07336
USER: genes 11 Torsion [CA]-CB--CG-[CD] |==|  0.32212
USER: genes 12 Torsion [CB]-CG--CD-[CE] |==|  0.42193
USER: genes 13 Torsion [CG]-CD--CE-[NZ] |==|  0.48334
USER: genes 14 Torsion [CD]-CE--NZ-[HZ2] |==|  0.77197
USER: genes 15 Torsion [N]-CA--C-[N] |==|  0.92060
USER: genes 16 Torsion [C]-N--CA-[C] |==|  0.57718
USER: genes 17 Torsion [N]-CA--C-[O] |==|  0.00369
USER: genes 18 Torsion [N]-CA--CB-[OG] |==|  0.10516
USER: genes 19 Torsion [CA]-CB--OG-[HG] |==|  0.33457
USER: genes 20 Torsion [CB]-CA--N-[C] |==|  0.47959
USER: genes 21 Torsion [N]-C--CA-[N] |==|  0.10921
USER: genes 22 Torsion [C]-CA--CB-[CG] |==|  0.44889
USER: genes 23 Torsion [CA]-CB--CG-[CD1] |==|  0.14677
USER: genes 24 Torsion [C]-CA--N-[H2] |==|  0.73356
ROOT
ATOM      1  CA  ARG D   2     -12.044  -0.190  11.641  1.00 39.33 LIG 0.18  C 
ENDROOT
BRANCH 1 2
ATOM      2  CB  ARG D   2     -13.295  -0.155  10.782  1.00 35.05 LIG 0.04  C 
BRANCH 2 3
ATOM      3  CG  ARG D   2     -14.403   0.640  11.419  1.00 57.88 LIG 0.02  C 
BRANCH 3 4
ATOM      4  CD  ARG D   2     -13.925   1.363  12.663  1.00 90.52 LIG 0.14  C 
BRANCH 4 5
ATOM      5  NE  ARG D   2     -13.258   2.625  12.344  1.00 84.14 LIG-0.23  N 
ATOM      6 HE   ARG D   2     -13.519   3.049  11.643  1.00 84.14 LIG 0.18  HD
ATOM      7  CZ  ARG D   2     -12.275   3.165  13.063  1.00 83.97 LIG 0.67  C 
ATOM      8  NH2 ARG D   2     -11.740   4.320  12.686  1.00 60.39 LIG-0.23  N 
ATOM      9  NH1 ARG D   2     -11.819   2.552  14.151  1.00 80.72 LIG-0.23  N 
ATOM     10 1HH2 ARG D   2     -12.027   4.717  11.979  1.00 60.39 LIG 0.17  HD
ATOM     11 2HH2 ARG D   2     -11.105   4.670  13.148  1.00 60.39 LIG 0.17  HD
ATOM     12 2HH1 ARG D   2     -11.184   2.907  14.610  1.00 80.72 LIG 0.17  HD
ATOM     13 1HH1 ARG D   2     -12.158   1.801  14.395  1.00 80.72 LIG 0.17  HD
ENDBRANCH 4 5
ENDBRANCH 3 4
ENDBRANCH 2 3
ENDBRANCH 1 2
BRANCH 1 14
ATOM     14  C   ARG D   2     -11.886  -1.566  12.252  1.00 29.38 LIG 0.24  C 
ATOM     15 O    ARG D   2     -11.403  -2.491  11.602  1.00 21.44 LIG-0.27  OA
ATOM     16  N   SER D   3     -12.291  -1.710  13.505  1.00 29.93 LIG-0.34  N 
ATOM     17 H    SER D   3     -12.578  -1.073  14.006  1.00 29.93 LIG 0.16  HD
BRANCH 16 18
ATOM     18  CA  SER D   3     -12.267  -3.028  14.123  1.00 48.61 LIG 0.20  C 
BRANCH 18 19
ATOM     19  C   SER D   3     -13.588  -3.726  13.865  1.00 58.83 LIG 0.24  C 
ATOM     20  N   LYS D   4     -14.041  -3.681  12.618  1.00 77.18 LIG-0.35  N 
ATOM     21 H    LYS D   4     -13.661  -3.245  11.980  1.00 77.18 LIG 0.16  HD
ATOM     22 O    SER D   3     -14.198  -4.276  14.782  1.00 53.61 LIG-0.27  OA
BRANCH 20 23
ATOM     23  CA  LYS D   4     -15.251  -4.391  12.232  1.00 70.35 LIG 0.18  C 
BRANCH 23 24
ATOM     24  CB  LYS D   4     -16.113  -3.531  11.304  1.00 80.12 LIG 0.04  C 
BRANCH 24 25
ATOM     25  CG  LYS D   4     -15.312  -2.507  10.511  1.00 84.36 LIG 0.00  C 
BRANCH 25 26
ATOM     26  CD  LYS D   4     -15.363  -2.757   9.017  1.00102.13 LIG 0.03  C 
BRANCH 26 27
ATOM     27  CE  LYS D   4     -15.192  -1.455   8.245  1.00 86.00 LIG 0.23  C 
BRANCH 27 28
ATOM     28  NZ  LYS D   4     -15.094  -1.680   6.778  1.00 85.97 LIG-0.08  N 
ATOM     29 HZ3  LYS D   4     -15.650  -2.334   6.540  1.00 85.97 LIG 0.27  HD
ATOM     30 HZ2  LYS D   4     -14.260  -1.909   6.567  1.00 85.97 LIG 0.27  HD
ATOM     31 HZ1  LYS D   4     -15.314  -0.933   6.347  1.00 85.97 LIG 0.27  HD
ENDBRANCH 27 28
ENDBRANCH 26 27
ENDBRANCH 25 26
ENDBRANCH 24 25
ENDBRANCH 23 24
BRANCH 23 32
ATOM     32  C   LYS D   4     -14.833  -5.679  11.541  1.00 69.25 LIG 0.24  C 
ATOM     33 O    LYS D   4     -15.544  -6.683  11.589  1.00 74.50 LIG-0.27  OA
ATOM     34  N   GLY D   5     -13.661  -5.643  10.914  1.00 72.69 LIG-0.35  N 
ATOM     35 H    GLY D   5     -13.176  -4.935  10.850  1.00 72.69 LIG 0.16  HD
BRANCH 34 36
ATOM     36  CA  GLY D   5     -13.091  -6.814  10.275  1.00 67.28 LIG 0.21  C 
BRANCH 36 37
ATOM     37  C   GLY D   5     -11.577  -6.755  10.238  1.00 69.64 LIG 0.21  C 
ATOM     38 O    GLY D   5     -10.970  -5.805  10.736  1.00 73.82 LIG-0.29  OA
ENDBRANCH 36 37
ENDBRANCH 34 36
ENDBRANCH 23 32
ENDBRANCH 20 23
ENDBRANCH 18 19
BRANCH 18 39
ATOM     39  CB  SER D   3     -12.016  -2.910  15.617  1.00 47.59 LIG 0.20  C 
BRANCH 39 40
ATOM     40 OG   SER D   3     -12.692  -1.781  16.136  1.00 55.88 LIG-0.40  OA
ATOM     41 HG   SER D   3     -13.234  -2.028  16.728  1.00 55.88 LIG 0.21  HD
ENDBRANCH 39 40
ENDBRANCH 18 39
ENDBRANCH 16 18
ENDBRANCH 1 14
BRANCH 1 42
ATOM     42  N   ARG D   2     -10.892   0.117  10.826  1.00 24.62 LIG-0.35  N 
ATOM     43 H    ARG D   2     -11.052   0.174   9.983  1.00 24.62 LIG 0.16  HD
ATOM     44  C   PHE D   1      -9.704   0.290  11.372  1.00 23.06 LIG 0.25  C 
ATOM     45 O    PHE D   1      -9.503   0.196  12.579  1.00 27.40 LIG-0.27  OA
BRANCH 44 46
ATOM     46  CA  PHE D   1      -8.588   0.716  10.428  1.00 18.76 LIG 0.28  C 
BRANCH 46 47
ATOM     47  CB  PHE D   1      -7.362   1.283  11.140  1.00 12.58 LIG 0.08  C 
BRANCH 47 48
ATOM     48  CG  PHE D   1      -6.125   1.285  10.269  1.00 17.06 LIG-0.06  A 
ATOM     49  CD1 PHE D   1      -6.149   1.869   9.006  1.00 22.27 LIG 0.01  A 
ATOM     50  CE1 PHE D   1      -5.001   1.893   8.203  1.00 15.67 LIG 0.00  A 
ATOM     51  CZ  PHE D   1      -3.818   1.320   8.666  1.00 13.83 LIG 0.00  A 
ATOM     52  CE2 PHE D   1      -3.783   0.747   9.924  1.00 20.38 LIG 0.00  A 
ATOM     53  CD2 PHE D   1      -4.930   0.734  10.725  1.00 21.07 LIG 0.01  A 
ENDBRANCH 47 48
ENDBRANCH 46 47
BRANCH 46 54
ATOM     54  N   PHE D   1      -9.113   1.695   9.447  1.00 21.45 LIG-0.07  N 
ATOM     55 H2   PHE D   1      -9.339   1.272   8.697  1.00 21.45 LIG 0.28  HD
ATOM     56 H3   PHE D   1      -9.830   2.100   9.786  1.00 21.45 LIG 0.28  HD
ATOM     57 H1   PHE D   1      -8.487   2.301   9.268  1.00 21.45 LIG 0.28  HD
ENDBRANCH 46 54
ENDBRANCH 44 46
ENDBRANCH 1 42
TORSDOF 23
ENDMDL
MODEL 2
USER: ADFR SOLUTION from run 144
USER: SCORE 15.476164 LL:  -2.096 LR: -15.878 RR:   0.000 FEB:  -9.018
USER: RMSD 4.571379
USER: SEED 143
USER: STATUS searching
USER: GENES 25
USER: genes 0 Translation |==|  0.51081 0.59769 0.49751
USER: genes 1 Rotation |==|  0.63893 0.62136 0.39689 0.95315
USER: genes 2 Torsion [C]-CA--CB-[CG] |==|  0.48703
USER: genes 3 Torsion [CA]-CB--CG-[CD] |==|  0.27088
USER: genes 4 Torsion [CB]-CG--CD-[NE] |==|  0.46422
USER: genes 5 Torsion [CG]-CD--NE-[HE] |==|  0.76085
USER: genes 6 Torsion [N]-CA--C-[N] |==|  0.30660
USER: genes 7 Torsion [C]-N--CA-[C] |==|  0.77764
USER: genes 8 Torsion [N]-CA--C-[N] |==|  0.37062
USER: genes 9 Torsion [C]-N--CA-[CB] |==|  0.39876
USER: genes 10 Torsion [N]-CA--CB-[CG] |==|  0.02319
USER: genes 11 Torsion [CA]-CB--CG-[CD] |==|  0.69003
USER: genes 12 Torsion [CB]-CG--CD-[CE] |==|  0.44115
USER: genes 13 Torsion [CG]-CD--CE-[NZ] |==|  0.51370
USER: genes 14 Torsion [CD]-CE--NZ-[HZ2] |==|  0.29909
USER: genes 15 Torsion [N]-CA--C-[N] |==|  0.92333
USER: genes 16 Torsion [C]-N--CA-[C] |==|  0.61634
USER: genes 17 Torsion [N]-CA--C-[O] |==|  0.61656
USER: genes 18 Torsion [N]-CA--CB-[OG] |==|  0.70596
USER: genes 19 Torsion [CA]-CB--OG-[HG] |==|  0.31109
USER: genes 20 Torsion [CB]-CA--N-[C] |==|  0.27716
USER: genes 21 Torsion [N]-C--CA-[N] |==|  0.14548
USER: genes 22 Torsion [C]-CA--CB-[CG] |==|  0.44271
USER: genes 23 Torsion [CA]-CB--CG-[CD1] |==|  0.65231
USER: genes 24 Torsion [C]-CA--N-[H2] |==|  0.07416
ROOT
ATOM      1  CA  ARG D   2     -11.329  -0.827  11.887  1.00 39.33 LIG 0.18  C 
ENDROOT
BRANCH 1 2
ATOM      2  CB  ARG D   2     -12.391   0.244  12.065  1.00 35.05 LIG 0.04  C 
BRANCH 2 3
ATOM      3  CG  ARG D   2     -11.847   1.484  12.721  1.00 57.88 LIG 0.02  C 
BRANCH 3 4
ATOM      4  CD  ARG D   2     -11.494   2.546  11.698  1.00 90.52 LIG 0.14  C 
BRANCH 4 5
ATOM      5  NE  ARG D   2     -11.254   3.849  12.319  1.00 84.14 LIG-0.23  N 
ATOM      6 HE   ARG D   2     -11.934   4.356  12.460  1.00 84.14 LIG 0.18  HD
ATOM      7  CZ  ARG D   2     -10.057   4.305  12.682  1.00 83.97 LIG 0.67  C 
ATOM      8  NH2 ARG D   2      -9.949   5.504  13.243  1.00 60.39 LIG-0.23  N 
ATOM      9  NH1 ARG D   2      -8.965   3.574  12.480  1.00 80.72 LIG-0.23  N 
ATOM     10 1HH2 ARG D   2     -10.653   5.983  13.371  1.00 60.39 LIG 0.17  HD
ATOM     11 2HH2 ARG D   2      -9.178   5.801  13.479  1.00 60.39 LIG 0.17  HD
ATOM     12 2HH1 ARG D   2      -8.196   3.875  12.717  1.00 80.72 LIG 0.17  HD
ATOM     13 1HH1 ARG D   2      -9.029   2.800  12.111  1.00 80.72 LIG 0.17  HD
ENDBRANCH 4 5
ENDBRANCH 3 4
ENDBRANCH 2 3
ENDBRANCH 1 2
BRANCH 1 14
ATOM     14  C   ARG D   2     -11.964  -2.083  11.330  1.00 29.38 LIG 0.24  C 
ATOM     15 O    ARG D   2     -12.685  -2.037  10.336  1.00 21.44 LIG-0.27  OA
ATOM     16  N   SER D   3     -11.699  -3.214  11.967  1.00 29.93 LIG-0.34  N 
ATOM     17 H    SER D   3     -11.155  -3.292  12.628  1.00 29.93 LIG 0.16  HD
BRANCH 16 18
ATOM     18  CA  SER D   3     -12.356  -4.446  11.554  1.00 48.61 LIG 0.20  C 
BRANCH 18 19
ATOM     19  C   SER D   3     -13.757  -4.485  12.134  1.00 58.83 LIG 0.24  C 
ATOM     20  N   LYS D   4     -14.729  -4.827  11.296  1.00 77.18 LIG-0.35  N 
ATOM     21 H    LYS D   4     -14.615  -4.972  10.456  1.00 77.18 LIG 0.16  HD
ATOM     22 O    SER D   3     -13.958  -4.189  13.311  1.00 53.61 LIG-0.27  OA
BRANCH 20 23
ATOM     23  CA  LYS D   4     -16.099  -4.986  11.760  1.00 70.35 LIG 0.18  C 
BRANCH 23 24
ATOM     24  CB  LYS D   4     -17.091  -4.495  10.702  1.00 80.12 LIG 0.04  C 
BRANCH 24 25
ATOM     25  CG  LYS D   4     -16.437  -4.158   9.369  1.00 84.36 LIG 0.00  C 
BRANCH 25 26
ATOM     26  CD  LYS D   4     -16.465  -2.673   9.066  1.00102.13 LIG 0.03  C 
BRANCH 26 27
ATOM     27  CE  LYS D   4     -15.393  -2.311   8.046  1.00 86.00 LIG 0.23  C 
BRANCH 27 28
ATOM     28  NZ  LYS D   4     -15.314  -0.843   7.812  1.00 85.97 LIG-0.08  N 
ATOM     29 HZ3  LYS D   4     -15.298  -0.683   6.936  1.00 85.97 LIG 0.27  HD
ATOM     30 HZ2  LYS D   4     -14.573  -0.522   8.185  1.00 85.97 LIG 0.27  HD
ATOM     31 HZ1  LYS D   4     -16.024  -0.447   8.174  1.00 85.97 LIG 0.27  HD
ENDBRANCH 27 28
ENDBRANCH 26 27
ENDBRANCH 25 26
ENDBRANCH 24 25
ENDBRANCH 23 24
BRANCH 23 32
ATOM     32  C   LYS D   4     -16.318  -6.459  12.064  1.00 69.25 LIG 0.24  C 
ATOM     33 O    LYS D   4     -17.131  -6.817  12.916  1.00 74.50 LIG-0.27  OA
ATOM     34  N   GLY D   5     -15.567  -7.309  11.369  1.00 72.69 LIG-0.35  N 
ATOM     35 H    GLY D   5     -15.021  -7.067  10.750  1.00 72.69 LIG 0.16  HD
BRANCH 34 36
ATOM     36  CA  GLY D   5     -15.606  -8.741  11.601  1.00 67.28 LIG 0.21  C 
BRANCH 36 37
ATOM     37  C   GLY D   5     -14.220  -9.353  11.576  1.00 69.64 LIG 0.21  C 
ATOM     38 O    GLY D   5     -14.014 -10.428  11.010  1.00 73.82 LIG-0.29  OA
ENDBRANCH 36 37
ENDBRANCH 34 36
ENDBRANCH 23 32
ENDBRANCH 20 23
ENDBRANCH 18 19
BRANCH 18 39
ATOM     39  CB  SER D   3     -11.560  -5.654  12.015  1.00 47.59 LIG 0.20  C 
BRANCH 39 40
ATOM     40 OG   SER D   3     -10.893  -6.245  10.917  1.00 55.88 LIG-0.40  OA
ATOM     41 HG   SER D   3     -10.064  -6.138  11.002  1.00 55.88 LIG 0.21  HD
ENDBRANCH 39 40
ENDBRANCH 18 39
ENDBRANCH 16 18
ENDBRANCH 1 14
BRANCH 1 42
ATOM     42  N   ARG D   2     -10.313  -0.350  10.978  1.00 24.62 LIG-0.35  N 
ATOM     43 H    ARG D   2     -10.519  -0.407  10.145  1.00 24.62 LIG 0.16  HD
ATOM     44  C   PHE D   1      -9.172   0.130  11.432  1.00 23.06 LIG 0.25  C 
ATOM     45 O    PHE D   1      -8.902   0.195  12.627  1.00 27.40 LIG-0.27  OA
BRANCH 44 46
ATOM     46  CA  PHE D   1      -8.222   0.703  10.388  1.00 18.76 LIG 0.28  C 
BRANCH 46 47
ATOM     47  CB  PHE D   1      -6.957   1.320  10.979  1.00 12.58 LIG 0.08  C 
BRANCH 47 48
ATOM     48  CG  PHE D   1      -5.831   1.427   9.974  1.00 17.06 LIG-0.06  A 
ATOM     49  CD1 PHE D   1      -4.584   0.868  10.244  1.00 22.27 LIG 0.01  A 
ATOM     50  CE1 PHE D   1      -3.544   0.945   9.309  1.00 15.67 LIG 0.00  A 
ATOM     51  CZ  PHE D   1      -3.750   1.595   8.094  1.00 13.83 LIG 0.00  A 
ATOM     52  CE2 PHE D   1      -4.988   2.143   7.813  1.00 20.38 LIG 0.00  A 
ATOM     53  CD2 PHE D   1      -6.026   2.056   8.747  1.00 21.07 LIG 0.01  A 
ENDBRANCH 47 48
ENDBRANCH 46 47
BRANCH 46 54
ATOM     54  N   PHE D   1      -8.941   1.697   9.555  1.00 21.45 LIG-0.07  N 
ATOM     55 H2   PHE D   1      -9.610   2.048  10.024  1.00 21.45 LIG 0.28  HD
ATOM     56 H3   PHE D   1      -8.378   2.342   9.311  1.00 21.45 LIG 0.28  HD
ATOM     57 H1   PHE D   1      -9.265   1.297   8.829  1.00 21.45 LIG 0.28  HD
ENDBRANCH 46 54
ENDBRANCH 44 46
ENDBRANCH 1 42
TORSDOF 23
ENDMDL
MODEL 3
USER: ADFR SOLUTION from run 82
USER: SCORE 16.833040 LL:  -2.937 LR: -15.829 RR:   0.000 FEB:  -8.968
USER: RMSD 3.472045
USER: SEED 81
USER: STATUS searching
USER: GENES 25
USER: genes 0 Translation |==|  0.45853 0.63250 0.44611
USER: genes 1 Rotation |==|  0.40289 0.39962 0.55995 0.97634
USER: genes 2 Torsion [C]-CA--CB-[CG] |==|  0.17153
USER: genes 3 Torsion [CA]-CB--CG-[CD] |==|  0.30371
USER: genes 4 Torsion [CB]-CG--CD-[NE] |==|  0.86772
USER: genes 5 Torsion [CG]-CD--NE-[HE] |==|  0.16656
USER: genes 6 Torsion [N]-CA--C-[N] |==|  0.41396
USER: genes 7 Torsion [C]-N--CA-[C] |==|  0.69419
USER: genes 8 Torsion [N]-CA--C-[N] |==|  0.06111
USER: genes 9 Torsion [C]-N--CA-[CB] |==|  0.45667
USER: genes 10 Torsion [N]-CA--CB-[CG] |==|  0.27994
USER: genes 11 Torsion [CA]-CB--CG-[CD] |==|  0.69973
USER: genes 12 Torsion [CB]-CG--CD-[CE] |==|  0.63722
USER: genes 13 Torsion [CG]-CD--CE-[NZ] |==|  0.51370
USER: genes 14 Torsion [CD]-CE--NZ-[HZ2] |==|  0.74324
USER: genes 15 Torsion [N]-CA--C-[N] |==|  0.91474
USER: genes 16 Torsion [C]-N--CA-[C] |==|  0.66004
USER: genes 17 Torsion [N]-CA--C-[O] |==|  0.88138
USER: genes 18 Torsion [N]-CA--CB-[OG] |==|  0.95932
USER: genes 19 Torsion [CA]-CB--OG-[HG] |==|  0.91688
USER: genes 20 Torsion [CB]-CA--N-[C] |==|  0.51116
USER: genes 21 Torsion [N]-C--CA-[N] |==|  0.34969
USER: genes 22 Torsion [C]-CA--CB-[CG] |==|  0.42440
USER: genes 23 Torsion [CA]-CB--CG-[CD1] |==|  0.93916
USER: genes 24 Torsion [C]-CA--N-[H2] |==|  0.81779
ROOT
ATOM      1  CA  ARG D   2     -12.466  -0.122  10.846  1.00 39.33 LIG 0.18  C 
ENDROOT
BRANCH 1 2
ATOM      2  CB  ARG D   2     -13.218  -0.457   9.570  1.00 35.05 LIG 0.04  C 
BRANCH 2 3
ATOM      3  CG  ARG D   2     -14.564  -1.070   9.845  1.00 57.88 LIG 0.02  C 
BRANCH 3 4
ATOM      4  CD  ARG D   2     -15.692  -0.118   9.493  1.00 90.52 LIG 0.14  C 
BRANCH 4 5
ATOM      5  NE  ARG D   2     -15.468   1.223  10.033  1.00 84.14 LIG-0.23  N 
ATOM      6 HE   ARG D   2     -14.761   1.643   9.779  1.00 84.14 LIG 0.18  HD
ATOM      7  CZ  ARG D   2     -16.281   1.840  10.888  1.00 83.97 LIG 0.67  C 
ATOM      8  NH2 ARG D   2     -15.985   3.062  11.315  1.00 60.39 LIG-0.23  N 
ATOM      9  NH1 ARG D   2     -17.382   1.238  11.328  1.00 80.72 LIG-0.23  N 
ATOM     10 1HH2 ARG D   2     -15.270   3.453  11.038  1.00 60.39 LIG 0.17  HD
ATOM     11 2HH2 ARG D   2     -16.508   3.463  11.867  1.00 60.39 LIG 0.17  HD
ATOM     12 2HH1 ARG D   2     -17.902   1.643  11.880  1.00 80.72 LIG 0.17  HD
ATOM     13 1HH1 ARG D   2     -17.574   0.445  11.059  1.00 80.72 LIG 0.17  HD
ENDBRANCH 4 5
ENDBRANCH 3 4
ENDBRANCH 2 3
ENDBRANCH 1 2
BRANCH 1 14
ATOM     14  C   ARG D   2     -12.211  -1.389  11.633  1.00 29.38 LIG 0.24  C 
ATOM     15 O    ARG D   2     -11.195  -2.054  11.444  1.00 21.44 LIG-0.27  OA
ATOM     16  N   SER D   3     -13.133  -1.732  12.521  1.00 29.93 LIG-0.34  N 
ATOM     17 H    SER D   3     -13.825  -1.262  12.719  1.00 29.93 LIG 0.16  HD
BRANCH 16 18
ATOM     18  CA  SER D   3     -13.008  -2.992  13.240  1.00 48.61 LIG 0.20  C 
BRANCH 18 19
ATOM     19  C   SER D   3     -14.082  -3.949  12.763  1.00 58.83 LIG 0.24  C 
ATOM     20  N   LYS D   4     -14.595  -3.703  11.562  1.00 77.18 LIG-0.35  N 
ATOM     21 H    LYS D   4     -14.393  -3.020  11.080  1.00 77.18 LIG 0.16  HD
ATOM     22 O    SER D   3     -14.456  -4.880  13.475  1.00 53.61 LIG-0.27  OA
BRANCH 20 23
ATOM     23  CA  LYS D   4     -15.568  -4.604  10.962  1.00 70.35 LIG 0.18  C 
BRANCH 23 24
ATOM     24  CB  LYS D   4     -16.283  -3.929   9.789  1.00 80.12 LIG 0.04  C 
BRANCH 24 25
ATOM     25  CG  LYS D   4     -15.742  -4.347   8.428  1.00 84.36 LIG 0.00  C 
BRANCH 25 26
ATOM     26  CD  LYS D   4     -14.947  -3.246   7.755  1.00102.13 LIG 0.03  C 
BRANCH 26 27
ATOM     27  CE  LYS D   4     -15.413  -3.046   6.318  1.00 86.00 LIG 0.23  C 
BRANCH 27 28
ATOM     28  NZ  LYS D   4     -14.576  -2.055   5.589  1.00 85.97 LIG-0.08  N 
ATOM     29 HZ3  LYS D   4     -13.756  -2.046   5.937  1.00 85.97 LIG 0.27  HD
ATOM     30 HZ2  LYS D   4     -14.939  -1.246   5.666  1.00 85.97 LIG 0.27  HD
ATOM     31 HZ1  LYS D   4     -14.532  -2.279   4.729  1.00 85.97 LIG 0.27  HD
ENDBRANCH 27 28
ENDBRANCH 26 27
ENDBRANCH 25 26
ENDBRANCH 24 25
ENDBRANCH 23 24
BRANCH 23 32
ATOM     32  C   LYS D   4     -14.824  -5.847  10.498  1.00 69.25 LIG 0.24  C 
ATOM     33 O    LYS D   4     -15.371  -6.949  10.496  1.00 74.50 LIG-0.27  OA
ATOM     34  N   GLY D   5     -13.562  -5.656  10.123  1.00 72.69 LIG-0.35  N 
ATOM     35 H    GLY D   5     -13.185  -4.884  10.091  1.00 72.69 LIG 0.16  HD
BRANCH 34 36
ATOM     36  CA  GLY D   5     -12.701  -6.755   9.729  1.00 67.28 LIG 0.21  C 
BRANCH 36 37
ATOM     37  C   GLY D   5     -11.449  -6.823  10.581  1.00 69.64 LIG 0.21  C 
ATOM     38 O    GLY D   5     -10.829  -5.799  10.875  1.00 73.82 LIG-0.29  OA
ENDBRANCH 36 37
ENDBRANCH 34 36
ENDBRANCH 23 32
ENDBRANCH 20 23
ENDBRANCH 18 19
BRANCH 18 39
ATOM     39  CB  SER D   3     -13.132  -2.764  14.737  1.00 47.59 LIG 0.20  C 
BRANCH 39 40
ATOM     40 OG   SER D   3     -12.996  -1.388  15.032  1.00 55.88 LIG-0.40  OA
ATOM     41 HG   SER D   3     -12.495  -1.027  14.463  1.00 55.88 LIG 0.21  HD
ENDBRANCH 39 40
ENDBRANCH 18 39
ENDBRANCH 16 18
ENDBRANCH 1 14
BRANCH 1 42
ATOM     42  N   ARG D   2     -11.209   0.506  10.512  1.00 24.62 LIG-0.35  N 
ATOM     43 H    ARG D   2     -11.089   0.649   9.672  1.00 24.62 LIG 0.16  HD
ATOM     44  C   PHE D   1     -10.340   0.820  11.453  1.00 23.06 LIG 0.25  C 
ATOM     45 O    PHE D   1     -10.534   0.599  12.644  1.00 27.40 LIG-0.27  OA
BRANCH 44 46
ATOM     46  CA  PHE D   1      -9.099   1.575  10.994  1.00 18.76 LIG 0.28  C 
BRANCH 46 47
ATOM     47  CB  PHE D   1      -7.815   0.750  11.066  1.00 12.58 LIG 0.08  C 
BRANCH 47 48
ATOM     48  CG  PHE D   1      -6.774   1.196  10.064  1.00 17.06 LIG-0.06  A 
ATOM     49  CD1 PHE D   1      -7.144   1.909   8.926  1.00 22.27 LIG 0.01  A 
ATOM     50  CE1 PHE D   1      -6.182   2.344   8.005  1.00 15.67 LIG 0.00  A 
ATOM     51  CZ  PHE D   1      -4.836   2.055   8.220  1.00 13.83 LIG 0.00  A 
ATOM     52  CE2 PHE D   1      -4.458   1.357   9.352  1.00 20.38 LIG 0.00  A 
ATOM     53  CD2 PHE D   1      -5.422   0.934  10.273  1.00 21.07 LIG 0.01  A 
ENDBRANCH 47 48
ENDBRANCH 46 47
BRANCH 46 54
ATOM     54  N   PHE D   1      -8.956   2.822  11.783  1.00 21.45 LIG-0.07  N 
ATOM     55 H2   PHE D   1      -9.634   3.368  11.600  1.00 21.45 LIG 0.28  HD
ATOM     56 H3   PHE D   1      -8.958   2.626  12.651  1.00 21.45 LIG 0.28  HD
ATOM     57 H1   PHE D   1      -8.189   3.220  11.572  1.00 21.45 LIG 0.28  HD
ENDBRANCH 46 54
ENDBRANCH 44 46
ENDBRANCH 1 42
TORSDOF 23
ENDMDL
MODEL 4
USER: ADFR SOLUTION from run 25
USER: SCORE 16.587190 LL:  -3.014 LR: -15.658 RR:   0.000 FEB:  -8.798
USER: RMSD 4.014910
USER: SEED 24
USER: STATUS searching
USER: GENES 25
USER: genes 0 Translation |==|  0.46219 0.63023 0.44794
USER: genes 1 Rotation |==|  0.37593 0.38733 0.57392 0.96524
USER: genes 2 Torsion [C]-CA--CB-[CG] |==|  0.05656
USER: genes 3 Torsion [CA]-CB--CG-[CD] |==|  0.39306
USER: genes 4 Torsion [CB]-CG--CD-[NE] |==|  0.14265
USER: genes 5 Torsion [CG]-CD--NE-[HE] |==|  0.85564
USER: genes 6 Torsion [N]-CA--C-[N] |==|  0.30599
USER: genes 7 Torsion [C]-N--CA-[C] |==|  0.76620
USER: genes 8 Torsion [N]-CA--C-[N] |==|  0.97326
USER: genes 9 Torsion [C]-N--CA-[CB] |==|  0.48450
USER: genes 10 Torsion [N]-CA--CB-[CG] |==|  0.89970
USER: genes 11 Torsion [CA]-CB--CG-[CD] |==|  0.29118
USER: genes 12 Torsion [CB]-CG--CD-[CE] |==|  0.58488
USER: genes 13 Torsion [CG]-CD--CE-[NZ] |==|  0.48027
USER: genes 14 Torsion [CD]-CE--NZ-[HZ2] |==|  0.76959
USER: genes 15 Torsion [N]-CA--C-[N] |==|  0.93673
USER: genes 16 Torsion [C]-N--CA-[C] |==|  0.65982
USER: genes 17 Torsion [N]-CA--C-[O] |==|  0.64263
USER: genes 18 Torsion [N]-CA--CB-[OG] |==|  0.04208
USER: genes 19 Torsion [CA]-CB--OG-[HG] |==|  0.73037
USER: genes 20 Torsion [CB]-CA--N-[C] |==|  0.52222
USER: genes 21 Torsion [N]-C--CA-[N] |==|  0.35849
USER: genes 22 Torsion [C]-CA--CB-[CG] |==|  0.42321
USER: genes 23 Torsion [CA]-CB--CG-[CD1] |==|  0.43717
USER: genes 24 Torsion [C]-CA--N-[H2] |==|  0.81805
ROOT
ATOM      1  CA  ARG D   2     -12.386  -0.168  10.883  1.00 39.33 LIG 0.18  C 
ENDROOT
BRANCH 1 2
ATOM      2  CB  ARG D   2     -13.045  -0.685   9.616  1.00 35.05 LIG 0.04  C 
BRANCH 2 3
ATOM      3  CG  ARG D   2     -13.691  -2.029   9.816  1.00 57.88 LIG 0.02  C 
BRANCH 3 4
ATOM      4  CD  ARG D   2     -15.003  -2.134   9.063  1.00 90.52 LIG 0.14  C 
BRANCH 4 5
ATOM      5  NE  ARG D   2     -14.862  -1.755   7.657  1.00 84.14 LIG-0.23  N 
ATOM      6 HE   ARG D   2     -14.493  -0.998   7.482  1.00 84.14 LIG 0.18  HD
ATOM      7  CZ  ARG D   2     -15.264  -2.501   6.629  1.00 83.97 LIG 0.67  C 
ATOM      8  NH2 ARG D   2     -15.085  -2.064   5.388  1.00 60.39 LIG-0.23  N 
ATOM      9  NH1 ARG D   2     -15.853  -3.674   6.835  1.00 80.72 LIG-0.23  N 
ATOM     10 1HH2 ARG D   2     -14.710  -1.301   5.250  1.00 60.39 LIG 0.17  HD
ATOM     11 2HH2 ARG D   2     -15.343  -2.542   4.722  1.00 60.39 LIG 0.17  HD
ATOM     12 2HH1 ARG D   2     -16.109  -4.150   6.166  1.00 80.72 LIG 0.17  HD
ATOM     13 1HH1 ARG D   2     -15.977  -3.958   7.636  1.00 80.72 LIG 0.17  HD
ENDBRANCH 4 5
ENDBRANCH 3 4
ENDBRANCH 2 3
ENDBRANCH 1 2
BRANCH 1 14
ATOM     14  C   ARG D   2     -12.125  -1.322  11.827  1.00 29.38 LIG 0.24  C 
ATOM     15 O    ARG D   2     -11.553  -2.337  11.436  1.00 21.44 LIG-0.27  OA
ATOM     16  N   SER D   3     -12.543  -1.174  13.075  1.00 29.93 LIG-0.34  N 
ATOM     17 H    SER D   3     -12.894  -0.458  13.396  1.00 29.93 LIG 0.16  HD
BRANCH 16 18
ATOM     18  CA  SER D   3     -12.421  -2.282  14.012  1.00 48.61 LIG 0.20  C 
BRANCH 18 19
ATOM     19  C   SER D   3     -13.612  -3.206  13.852  1.00 58.83 LIG 0.24  C 
ATOM     20  N   LYS D   4     -14.599  -2.762  13.083  1.00 77.18 LIG-0.35  N 
ATOM     21 H    LYS D   4     -14.620  -1.980  12.724  1.00 77.18 LIG 0.16  HD
ATOM     22 O    SER D   3     -13.648  -4.291  14.432  1.00 53.61 LIG-0.27  OA
BRANCH 20 23
ATOM     23  CA  LYS D   4     -15.753  -3.598  12.783  1.00 70.35 LIG 0.18  C 
BRANCH 23 24
ATOM     24  CB  LYS D   4     -16.804  -2.812  11.997  1.00 80.12 LIG 0.04  C 
BRANCH 24 25
ATOM     25  CG  LYS D   4     -16.911  -1.353  12.420  1.00 84.36 LIG 0.00  C 
BRANCH 25 26
ATOM     26  CD  LYS D   4     -16.272  -0.408  11.421  1.00102.13 LIG 0.03  C 
BRANCH 26 27
ATOM     27  CE  LYS D   4     -15.722   0.827  12.123  1.00 86.00 LIG 0.23  C 
BRANCH 27 28
ATOM     28  NZ  LYS D   4     -14.940   1.695  11.201  1.00 85.97 LIG-0.08  N 
ATOM     29 HZ3  LYS D   4     -15.324   1.695  10.397  1.00 85.97 LIG 0.27  HD
ATOM     30 HZ2  LYS D   4     -14.110   1.384  11.132  1.00 85.97 LIG 0.27  HD
ATOM     31 HZ1  LYS D   4     -14.920   2.525  11.520  1.00 85.97 LIG 0.27  HD
ENDBRANCH 27 28
ENDBRANCH 26 27
ENDBRANCH 25 26
ENDBRANCH 24 25
ENDBRANCH 23 24
BRANCH 23 32
ATOM     32  C   LYS D   4     -15.263  -4.795  11.983  1.00 69.25 LIG 0.24  C 
ATOM     33 O    LYS D   4     -15.900  -5.848  11.964  1.00 74.50 LIG-0.27  OA
ATOM     34  N   GLY D   5     -14.112  -4.625  11.339  1.00 72.69 LIG-0.35  N 
ATOM     35 H    GLY D   5     -13.679  -3.882  11.322  1.00 72.69 LIG 0.16  HD
BRANCH 34 36
ATOM     36  CA  GLY D   5     -13.478  -5.699  10.597  1.00 67.28 LIG 0.21  C 
BRANCH 36 37
ATOM     37  C   GLY D   5     -12.073  -5.974  11.095  1.00 69.64 LIG 0.21  C 
ATOM     38 O    GLY D   5     -11.123  -6.018  10.312  1.00 73.82 LIG-0.29  OA
ENDBRANCH 36 37
ENDBRANCH 34 36
ENDBRANCH 23 32
ENDBRANCH 20 23
ENDBRANCH 18 19
BRANCH 18 39
ATOM     39  CB  SER D   3     -12.342  -1.765  15.439  1.00 47.59 LIG 0.20  C 
BRANCH 39 40
ATOM     40 OG   SER D   3     -12.752  -0.413  15.490  1.00 55.88 LIG-0.40  OA
ATOM     41 HG   SER D   3     -12.077   0.086  15.472  1.00 55.88 LIG 0.21  HD
ENDBRANCH 39 40
ENDBRANCH 18 39
ENDBRANCH 16 18
ENDBRANCH 1 14
BRANCH 1 42
ATOM     42  N   ARG D   2     -11.139   0.479  10.547  1.00 24.62 LIG-0.35  N 
ATOM     43 H    ARG D   2     -11.000   0.579   9.704  1.00 24.62 LIG 0.16  HD
ATOM     44  C   PHE D   1     -10.307   0.872  11.491  1.00 23.06 LIG 0.25  C 
ATOM     45 O    PHE D   1     -10.528   0.712  12.687  1.00 27.40 LIG-0.27  OA
BRANCH 44 46
ATOM     46  CA  PHE D   1      -9.076   1.638  11.023  1.00 18.76 LIG 0.28  C 
BRANCH 46 47
ATOM     47  CB  PHE D   1      -7.782   0.832  11.104  1.00 12.58 LIG 0.08  C 
BRANCH 47 48
ATOM     48  CG  PHE D   1      -6.751   1.274  10.089  1.00 17.06 LIG-0.06  A 
ATOM     49  CD1 PHE D   1      -5.398   1.014  10.292  1.00 22.27 LIG 0.01  A 
ATOM     50  CE1 PHE D   1      -4.440   1.401   9.346  1.00 15.67 LIG 0.00  A 
ATOM     51  CZ  PHE D   1      -4.839   2.063   8.187  1.00 13.83 LIG 0.00  A 
ATOM     52  CE2 PHE D   1      -6.182   2.316   7.971  1.00 20.38 LIG 0.00  A 
ATOM     53  CD2 PHE D   1      -7.134   1.919   8.916  1.00 21.07 LIG 0.01  A 
ENDBRANCH 47 48
ENDBRANCH 46 47
BRANCH 46 54
ATOM     54  N   PHE D   1      -8.950   2.896  11.797  1.00 21.45 LIG-0.07  N 
ATOM     55 H2   PHE D   1      -9.637   3.430  11.609  1.00 21.45 LIG 0.28  HD
ATOM     56 H3   PHE D   1      -8.948   2.710  12.668  1.00 21.45 LIG 0.28  HD
ATOM     57 H1   PHE D   1      -8.189   3.303  11.580  1.00 21.45 LIG 0.28  HD
ENDBRANCH 46 54
ENDBRANCH 44 46
ENDBRANCH 1 42
TORSDOF 23
ENDMDL
MODEL 5
USER: ADFR SOLUTION from run 70
USER: SCORE 16.295417 LL:  -2.801 LR: -15.514 RR:   0.000 FEB:  -8.653
USER: RMSD 4.226481
USER: SEED 69
USER: STATUS no improvement in best in 16 clusters for 5 generations
USER: GENES 25
USER: genes 0 Translation |==|  0.46210 0.62372 0.46019
USER: genes 1 Rotation |==|  0.39874 0.40999 0.57304 0.97572
USER: genes 2 Torsion [C]-CA--CB-[CG] |==|  0.01566
USER: genes 3 Torsion [CA]-CB--CG-[CD] |==|  0.43153
USER: genes 4 Torsion [CB]-CG--CD-[NE] |==|  0.07603
USER: genes 5 Torsion [CG]-CD--NE-[HE] |==|  0.16782
USER: genes 6 Torsion [N]-CA--C-[N] |==|  0.45877
USER: genes 7 Torsion [C]-N--CA-[C] |==|  0.87856
USER: genes 8 Torsion [N]-CA--C-[N] |==|  0.40489
USER: genes 9 Torsion [C]-N--CA-[CB] |==|  0.53123
USER: genes 10 Torsion [N]-CA--CB-[CG] |==|  0.63408
USER: genes 11 Torsion [CA]-CB--CG-[CD] |==|  0.27658
USER: genes 12 Torsion [CB]-CG--CD-[CE] |==|  0.15350
USER: genes 13 Torsion [CG]-CD--CE-[NZ] |==|  0.59387
USER: genes 14 Torsion [CD]-CE--NZ-[HZ2] |==|  0.06778
USER: genes 15 Torsion [N]-CA--C-[N] |==|  0.87137
USER: genes 16 Torsion [C]-N--CA-[C] |==|  0.80738
USER: genes 17 Torsion [N]-CA--C-[O] |==|  0.86676
USER: genes 18 Torsion [N]-CA--CB-[OG] |==|  0.11989
USER: genes 19 Torsion [CA]-CB--OG-[HG] |==|  0.21259
USER: genes 20 Torsion [CB]-CA--N-[C] |==|  0.51673
USER: genes 21 Torsion [N]-C--CA-[N] |==|  0.34138
USER: genes 22 Torsion [C]-CA--CB-[CG] |==|  0.42574
USER: genes 23 Torsion [CA]-CB--CG-[CD1] |==|  0.93133
USER: genes 24 Torsion [C]-CA--N-[H2] |==|  0.47235
ROOT
ATOM      1  CA  ARG D   2     -12.388  -0.300  11.131  1.00 39.33 LIG 0.18  C 
ENDROOT
BRANCH 1 2
ATOM      2  CB  ARG D   2     -13.185  -0.705   9.903  1.00 35.05 LIG 0.04  C 
BRANCH 2 3
ATOM      3  CG  ARG D   2     -13.528  -2.170   9.904  1.00 57.88 LIG 0.02  C 
BRANCH 3 4
ATOM      4  CD  ARG D   2     -14.762  -2.453   9.070  1.00 90.52 LIG 0.14  C 
BRANCH 4 5
ATOM      5  NE  ARG D   2     -14.943  -1.469   8.003  1.00 84.14 LIG-0.23  N 
ATOM      6 HE   ARG D   2     -14.319  -1.397   7.415  1.00 84.14 LIG 0.18  HD
ATOM      7  CZ  ARG D   2     -16.006  -0.676   7.877  1.00 83.97 LIG 0.67  C 
ATOM      8  NH2 ARG D   2     -16.072   0.183   6.867  1.00 60.39 LIG-0.23  N 
ATOM      9  NH1 ARG D   2     -16.998  -0.730   8.760  1.00 80.72 LIG-0.23  N 
ATOM     10 1HH2 ARG D   2     -15.429   0.227   6.296  1.00 60.39 LIG 0.17  HD
ATOM     11 2HH2 ARG D   2     -16.757   0.697   6.783  1.00 60.39 LIG 0.17  HD
ATOM     12 2HH1 ARG D   2     -17.681  -0.215   8.672  1.00 80.72 LIG 0.17  HD
ATOM     13 1HH1 ARG D   2     -16.957  -1.280   9.419  1.00 80.72 LIG 0.17  HD
ENDBRANCH 4 5
ENDBRANCH 3 4
ENDBRANCH 2 3
ENDBRANCH 1 2
BRANCH 1 14
ATOM     14  C   ARG D   2     -12.047  -1.530  11.944  1.00 29.38 LIG 0.24  C 
ATOM     15 O    ARG D   2     -10.907  -1.989  11.943  1.00 21.44 LIG-0.27  OA
ATOM     16  N   SER D   3     -13.033  -2.072  12.643  1.00 29.93 LIG-0.34  N 
ATOM     17 H    SER D   3     -13.826  -1.745  12.713  1.00 29.93 LIG 0.16  HD
BRANCH 16 18
ATOM     18  CA  SER D   3     -12.807  -3.315  13.365  1.00 48.61 LIG 0.20  C 
BRANCH 18 19
ATOM     19  C   SER D   3     -12.034  -4.274  12.480  1.00 58.83 LIG 0.24  C 
ATOM     20  N   LYS D   4     -11.171  -5.074  13.097  1.00 77.18 LIG-0.35  N 
ATOM     21 H    LYS D   4     -10.997  -5.041  13.939  1.00 77.18 LIG 0.16  HD
ATOM     22 O    SER D   3     -12.198  -4.275  11.261  1.00 53.61 LIG-0.27  OA
BRANCH 20 23
ATOM     23  CA  LYS D   4     -10.439  -6.096  12.364  1.00 70.35 LIG 0.18  C 
BRANCH 23 24
ATOM     24  CB  LYS D   4      -9.732  -7.054  13.327  1.00 80.12 LIG 0.04  C 
BRANCH 24 25
ATOM     25  CG  LYS D   4      -8.271  -7.298  12.974  1.00 84.36 LIG 0.00  C 
BRANCH 25 26
ATOM     26  CD  LYS D   4      -7.322  -6.465  13.814  1.00102.13 LIG 0.03  C 
BRANCH 26 27
ATOM     27  CE  LYS D   4      -7.569  -6.700  15.299  1.00 86.00 LIG 0.23  C 
BRANCH 27 28
ATOM     28  NZ  LYS D   4      -7.332  -5.474  16.108  1.00 85.97 LIG-0.08  N 
ATOM     29 HZ3  LYS D   4      -7.917  -5.444  16.779  1.00 85.97 LIG 0.27  HD
ATOM     30 HZ2  LYS D   4      -7.434  -4.755  15.594  1.00 85.97 LIG 0.27  HD
ATOM     31 HZ1  LYS D   4      -6.505  -5.489  16.435  1.00 85.97 LIG 0.27  HD
ENDBRANCH 27 28
ENDBRANCH 26 27
ENDBRANCH 25 26
ENDBRANCH 24 25
ENDBRANCH 23 24
BRANCH 23 32
ATOM     32  C   LYS D   4     -11.434  -6.844  11.491  1.00 69.25 LIG 0.24  C 
ATOM     33 O    LYS D   4     -11.194  -7.068  10.305  1.00 74.50 LIG-0.27  OA
ATOM     34  N   GLY D   5     -12.564  -7.210  12.090  1.00 72.69 LIG-0.35  N 
ATOM     35 H    GLY D   5     -12.724  -7.085  12.926  1.00 72.69 LIG 0.16  HD
BRANCH 34 36
ATOM     36  CA  GLY D   5     -13.641  -7.863  11.370  1.00 67.28 LIG 0.21  C 
BRANCH 36 37
ATOM     37  C   GLY D   5     -14.320  -6.920  10.396  1.00 69.64 LIG 0.21  C 
ATOM     38 O    GLY D   5     -14.668  -5.792  10.749  1.00 73.82 LIG-0.29  OA
ENDBRANCH 36 37
ENDBRANCH 34 36
ENDBRANCH 23 32
ENDBRANCH 20 23
ENDBRANCH 18 19
BRANCH 18 39
ATOM     39  CB  SER D   3     -14.129  -3.935  13.785  1.00 47.59 LIG 0.20  C 
BRANCH 39 40
ATOM     40 OG   SER D   3     -15.061  -3.858  12.724  1.00 55.88 LIG-0.40  OA
ATOM     41 HG   SER D   3     -14.881  -4.444  12.150  1.00 55.88 LIG 0.21  HD
ENDBRANCH 39 40
ENDBRANCH 18 39
ENDBRANCH 16 18
ENDBRANCH 1 14
BRANCH 1 42
ATOM     42  N   ARG D   2     -11.174   0.364  10.718  1.00 24.62 LIG-0.35  N 
ATOM     43 H    ARG D   2     -11.111   0.509   9.872  1.00 24.62 LIG 0.16  HD
ATOM     44  C   PHE D   1     -10.257   0.707  11.602  1.00 23.06 LIG 0.25  C 
ATOM     45 O    PHE D   1     -10.369   0.483  12.803  1.00 27.40 LIG-0.27  OA
BRANCH 44 46
ATOM     46  CA  PHE D   1      -9.070   1.496  11.066  1.00 18.76 LIG 0.28  C 
BRANCH 46 47
ATOM     47  CB  PHE D   1      -7.747   0.736  11.124  1.00 12.58 LIG 0.08  C 
BRANCH 47 48
ATOM     48  CG  PHE D   1      -6.760   1.192  10.073  1.00 17.06 LIG-0.06  A 
ATOM     49  CD1 PHE D   1      -7.203   1.792   8.897  1.00 22.27 LIG 0.01  A 
ATOM     50  CE1 PHE D   1      -6.293   2.236   7.929  1.00 15.67 LIG 0.00  A 
ATOM     51  CZ  PHE D   1      -4.925   2.072   8.136  1.00 13.83 LIG 0.00  A 
ATOM     52  CE2 PHE D   1      -4.476   1.487   9.306  1.00 20.38 LIG 0.00  A 
ATOM     53  CD2 PHE D   1      -5.389   1.053  10.273  1.00 21.07 LIG 0.01  A 
ENDBRANCH 47 48
ENDBRANCH 46 47
BRANCH 46 54
ATOM     54  N   PHE D   1      -8.959   2.782  11.795  1.00 21.45 LIG-0.07  N 
ATOM     55 H2   PHE D   1      -8.189   3.176  11.586  1.00 21.45 LIG 0.28  HD
ATOM     56 H3   PHE D   1      -9.636   3.313  11.566  1.00 21.45 LIG 0.28  HD
ATOM     57 H1   PHE D   1      -8.985   2.630  12.671  1.00 21.45 LIG 0.28  HD
ENDBRANCH 46 54
ENDBRANCH 44 46
ENDBRANCH 1 42
TORSDOF 23
ENDMDL
MODEL 6
USER: ADFR SOLUTION from run 11
USER: SCORE 15.757005 LL:  -2.779 LR: -15.469 RR:   0.000 FEB:  -8.608
USER: RMSD 3.600303
USER: SEED 443567
USER: STATUS no improvement in best in 24 clusters for 5 generations
USER: GENES 25
USER: genes 0 Translation |==|  0.47349 0.59917 0.47833
USER: genes 1 Rotation |==|  0.67745 0.56186 0.42313 0.95692
USER: genes 2 Torsion [C]-CA--CB-[CG] |==|  0.22640
USER: genes 3 Torsion [CA]-CB--CG-[CD] |==|  0.66312
USER: genes 4 Torsion [CB]-CG--CD-[NE] |==|  0.09536
USER: genes 5 Torsion [CG]-CD--NE-[HE] |==|  0.24507
USER: genes 6 Torsion [N]-CA--C-[N] |==|  0.28802
USER: genes 7 Torsion [C]-N--CA-[C] |==|  0.83547
USER: genes 8 Torsion [N]-CA--C-[N] |==|  0.35578
USER: genes 9 Torsion [C]-N--CA-[CB] |==|  0.47714
USER: genes 10 Torsion [N]-CA--CB-[CG] |==|  0.82338
USER: genes 11 Torsion [CA]-CB--CG-[CD] |==|  0.36616
USER: genes 12 Torsion [CB]-CG--CD-[CE] |==|  0.42971
USER: genes 13 Torsion [CG]-CD--CE-[NZ] |==|  0.27866
USER: genes 14 Torsion [CD]-CE--NZ-[HZ2] |==|  0.63769
USER: genes 15 Torsion [N]-CA--C-[N] |==|  0.89962
USER: genes 16 Torsion [C]-N--CA-[C] |==|  0.69066
USER: genes 17 Torsion [N]-CA--C-[O] |==|  0.09112
USER: genes 18 Torsion [N]-CA--CB-[OG] |==|  0.75981
USER: genes 19 Torsion [CA]-CB--OG-[HG] |==|  0.39303
USER: genes 20 Torsion [CB]-CA--N-[C] |==|  0.20091
USER: genes 21 Torsion [N]-C--CA-[N] |==|  0.43165
USER: genes 22 Torsion [C]-CA--CB-[CG] |==|  0.47736
USER: genes 23 Torsion [CA]-CB--CG-[CD1] |==|  0.91208
USER: genes 24 Torsion [C]-CA--N-[H2] |==|  0.78659
ROOT
ATOM      1  CA  ARG D   2     -12.141  -0.797  11.498  1.00 39.33 LIG 0.18  C 
ENDROOT
BRANCH 1 2
ATOM      2  CB  ARG D   2     -13.221   0.270  11.494  1.00 35.05 LIG 0.04  C 
BRANCH 2 3
ATOM      3  CG  ARG D   2     -14.321  -0.028  12.476  1.00 57.88 LIG 0.02  C 
BRANCH 3 4
ATOM      4  CD  ARG D   2     -15.669  -0.131  11.789  1.00 90.52 LIG 0.14  C 
BRANCH 4 5
ATOM      5  NE  ARG D   2     -15.561  -0.710  10.450  1.00 84.14 LIG-0.23  N 
ATOM      6 HE   ARG D   2     -15.604  -1.567  10.380  1.00 84.14 LIG 0.18  HD
ATOM      7  CZ  ARG D   2     -15.401  -0.005   9.332  1.00 83.97 LIG 0.67  C 
ATOM      8  NH2 ARG D   2     -15.317  -0.632   8.163  1.00 60.39 LIG-0.23  N 
ATOM      9  NH1 ARG D   2     -15.314   1.320   9.375  1.00 80.72 LIG-0.23  N 
ATOM     10 1HH2 ARG D   2     -15.366  -1.490   8.131  1.00 60.39 LIG 0.17  HD
ATOM     11 2HH2 ARG D   2     -15.213  -0.180   7.440  1.00 60.39 LIG 0.17  HD
ATOM     12 2HH1 ARG D   2     -15.211   1.768   8.648  1.00 80.72 LIG 0.17  HD
ATOM     13 1HH1 ARG D   2     -15.361   1.729  10.129  1.00 80.72 LIG 0.17  HD
ENDBRANCH 4 5
ENDBRANCH 3 4
ENDBRANCH 2 3
ENDBRANCH 1 2
BRANCH 1 14
ATOM     14  C   ARG D   2     -12.583  -1.971  10.651  1.00 29.38 LIG 0.24  C 
ATOM     15 O    ARG D   2     -13.113  -1.793   9.557  1.00 21.44 LIG-0.27  OA
ATOM     16  N   SER D   3     -12.367  -3.178  11.152  1.00 29.93 LIG-0.34  N 
ATOM     17 H    SER D   3     -11.948  -3.341  11.885  1.00 29.93 LIG 0.16  HD
BRANCH 16 18
ATOM     18  CA  SER D   3     -12.859  -4.351  10.443  1.00 48.61 LIG 0.20  C 
BRANCH 18 19
ATOM     19  C   SER D   3     -14.365  -4.254  10.300  1.00 58.83 LIG 0.24  C 
ATOM     20  N   LYS D   4     -14.848  -4.411   9.073  1.00 77.18 LIG-0.35  N 
ATOM     21 H    LYS D   4     -14.362  -4.510   8.370  1.00 77.18 LIG 0.16  HD
ATOM     22 O    SER D   3     -15.076  -4.019  11.277  1.00 53.61 LIG-0.27  OA
BRANCH 20 23
ATOM     23  CA  LYS D   4     -16.283  -4.428   8.826  1.00 70.35 LIG 0.18  C 
BRANCH 23 24
ATOM     24  CB  LYS D   4     -16.576  -4.417   7.324  1.00 80.12 LIG 0.04  C 
BRANCH 24 25
ATOM     25  CG  LYS D   4     -16.098  -3.153   6.623  1.00 84.36 LIG 0.00  C 
BRANCH 25 26
ATOM     26  CD  LYS D   4     -15.314  -3.448   5.359  1.00102.13 LIG 0.03  C 
BRANCH 26 27
ATOM     27  CE  LYS D   4     -15.391  -2.274   4.391  1.00 86.00 LIG 0.23  C 
BRANCH 27 28
ATOM     28  NZ  LYS D   4     -14.168  -1.428   4.437  1.00 85.97 LIG-0.08  N 
ATOM     29 HZ3  LYS D   4     -13.666  -1.669   5.132  1.00 85.97 LIG 0.27  HD
ATOM     30 HZ2  LYS D   4     -14.400  -0.574   4.522  1.00 85.97 LIG 0.27  HD
ATOM     31 HZ1  LYS D   4     -13.704  -1.535   3.685  1.00 85.97 LIG 0.27  HD
ENDBRANCH 27 28
ENDBRANCH 26 27
ENDBRANCH 25 26
ENDBRANCH 24 25
ENDBRANCH 23 24
BRANCH 23 32
ATOM     32  C   LYS D   4     -16.851  -5.678   9.479  1.00 69.25 LIG 0.24  C 
ATOM     33 O    LYS D   4     -17.955  -5.662  10.024  1.00 74.50 LIG-0.27  OA
ATOM     34  N   GLY D   5     -16.073  -6.756   9.434  1.00 72.69 LIG-0.35  N 
ATOM     35 H    GLY D   5     -15.316  -6.781   9.026  1.00 72.69 LIG 0.16  HD
BRANCH 34 36
ATOM     36  CA  GLY D   5     -16.444  -8.001  10.079  1.00 67.28 LIG 0.21  C 
BRANCH 36 37
ATOM     37  C   GLY D   5     -15.549  -8.310  11.262  1.00 69.64 LIG 0.21  C 
ATOM     38 O    GLY D   5     -15.079  -7.403  11.952  1.00 73.82 LIG-0.29  OA
ENDBRANCH 36 37
ENDBRANCH 34 36
ENDBRANCH 23 32
ENDBRANCH 20 23
ENDBRANCH 18 19
BRANCH 18 39
ATOM     39  CB  SER D   3     -12.481  -5.620  11.188  1.00 47.59 LIG 0.20  C 
BRANCH 39 40
ATOM     40 OG   SER D   3     -11.189  -6.045  10.801  1.00 55.88 LIG-0.40  OA
ATOM     41 HG   SER D   3     -10.779  -6.341  11.472  1.00 55.88 LIG 0.21  HD
ENDBRANCH 39 40
ENDBRANCH 18 39
ENDBRANCH 16 18
ENDBRANCH 1 14
BRANCH 1 42
ATOM     42  N   ARG D   2     -10.917  -0.244  10.965  1.00 24.62 LIG-0.35  N 
ATOM     43 H    ARG D   2     -10.708  -0.524  10.179  1.00 24.62 LIG 0.16  HD
ATOM     44  C   PHE D   1     -10.206   0.621  11.662  1.00 23.06 LIG 0.25  C 
ATOM     45 O    PHE D   1     -10.526   0.998  12.785  1.00 27.40 LIG-0.27  OA
BRANCH 44 46
ATOM     46  CA  PHE D   1      -8.996   1.217  10.957  1.00 18.76 LIG 0.28  C 
BRANCH 46 47
ATOM     47  CB  PHE D   1      -7.770   0.305  10.960  1.00 12.58 LIG 0.08  C 
BRANCH 47 48
ATOM     48  CG  PHE D   1      -6.648   0.827  10.091  1.00 17.06 LIG-0.06  A 
ATOM     49  CD1 PHE D   1      -6.924   1.565   8.943  1.00 22.27 LIG 0.01  A 
ATOM     50  CE1 PHE D   1      -5.888   2.070   8.146  1.00 15.67 LIG 0.00  A 
ATOM     51  CZ  PHE D   1      -4.562   1.827   8.496  1.00 13.83 LIG 0.00  A 
ATOM     52  CE2 PHE D   1      -4.278   1.104   9.640  1.00 20.38 LIG 0.00  A 
ATOM     53  CD2 PHE D   1      -5.316   0.610  10.438  1.00 21.07 LIG 0.01  A 
ENDBRANCH 47 48
ENDBRANCH 46 47
BRANCH 46 54
ATOM     54  N   PHE D   1      -8.664   2.529  11.562  1.00 21.45 LIG-0.07  N 
ATOM     55 H2   PHE D   1      -9.238   3.144  11.270  1.00 21.45 LIG 0.28  HD
ATOM     56 H3   PHE D   1      -8.718   2.469  12.448  1.00 21.45 LIG 0.28  HD
ATOM     57 H1   PHE D   1      -7.837   2.762  11.330  1.00 21.45 LIG 0.28  HD
ENDBRANCH 46 54
ENDBRANCH 44 46
ENDBRANCH 1 42
TORSDOF 23
ENDMDL
MODEL 7
USER: ADFR SOLUTION from run 35
USER: SCORE 15.427342 LL:  -2.066 LR: -15.423 RR:   0.000 FEB:  -8.562
USER: RMSD 4.282098
USER: SEED 34
USER: STATUS no improvement in best in 16 clusters for 5 generations
USER: GENES 25
USER: genes 0 Translation |==|  0.48378 0.59363 0.49447
USER: genes 1 Rotation |==|  0.67791 0.59024 0.41905 0.95128
USER: genes 2 Torsion [C]-CA--CB-[CG] |==|  0.36051
USER: genes 3 Torsion [CA]-CB--CG-[CD] |==|  0.34705
USER: genes 4 Torsion [CB]-CG--CD-[NE] |==|  0.89529
USER: genes 5 Torsion [CG]-CD--NE-[HE] |==|  0.02145
USER: genes 6 Torsion [N]-CA--C-[N] |==|  0.29657
USER: genes 7 Torsion [C]-N--CA-[C] |==|  0.81348
USER: genes 8 Torsion [N]-CA--C-[N] |==|  0.41383
USER: genes 9 Torsion [C]-N--CA-[CB] |==|  0.46685
USER: genes 10 Torsion [N]-CA--CB-[CG] |==|  0.91565
USER: genes 11 Torsion [CA]-CB--CG-[CD] |==|  0.81534
USER: genes 12 Torsion [CB]-CG--CD-[CE] |==|  0.55214
USER: genes 13 Torsion [CG]-CD--CE-[NZ] |==|  0.60146
USER: genes 14 Torsion [CD]-CE--NZ-[HZ2] |==|  0.13258
USER: genes 15 Torsion [N]-CA--C-[N] |==|  0.48109
USER: genes 16 Torsion [C]-N--CA-[C] |==|  0.49496
USER: genes 17 Torsion [N]-CA--C-[O] |==|  0.71994
USER: genes 18 Torsion [N]-CA--CB-[OG] |==|  0.79690
USER: genes 19 Torsion [CA]-CB--OG-[HG] |==|  0.45568
USER: genes 20 Torsion [CB]-CA--N-[C] |==|  0.21128
USER: genes 21 Torsion [N]-C--CA-[N] |==|  0.46968
USER: genes 22 Torsion [C]-CA--CB-[CG] |==|  0.49891
USER: genes 23 Torsion [CA]-CB--CG-[CD1] |==|  0.84688
USER: genes 24 Torsion [C]-CA--N-[H2] |==|  0.02167
ROOT
ATOM      1  CA  ARG D   2     -11.917  -0.909  11.825  1.00 39.33 LIG 0.18  C 
ENDROOT
BRANCH 1 2
ATOM      2  CB  ARG D   2     -13.013   0.132  11.969  1.00 35.05 LIG 0.04  C 
BRANCH 2 3
ATOM      3  CG  ARG D   2     -13.217   0.551  13.399  1.00 57.88 LIG 0.02  C 
BRANCH 3 4
ATOM      4  CD  ARG D   2     -13.097   2.054  13.563  1.00 90.52 LIG 0.14  C 
BRANCH 4 5
ATOM      5  NE  ARG D   2     -12.049   2.617  12.711  1.00 84.14 LIG-0.23  N 
ATOM      6 HE   ARG D   2     -11.677   2.095  12.137  1.00 84.14 LIG 0.18  HD
ATOM      7  CZ  ARG D   2     -11.631   3.881  12.760  1.00 83.97 LIG 0.67  C 
ATOM      8  NH2 ARG D   2     -10.673   4.292  11.937  1.00 60.39 LIG-0.23  N 
ATOM      9  NH1 ARG D   2     -12.158   4.733  13.634  1.00 80.72 LIG-0.23  N 
ATOM     10 1HH2 ARG D   2     -10.325   3.742  11.374  1.00 60.39 LIG 0.17  HD
ATOM     11 2HH2 ARG D   2     -10.401   5.107  11.967  1.00 60.39 LIG 0.17  HD
ATOM     12 2HH1 ARG D   2     -11.883   5.547  13.659  1.00 80.72 LIG 0.17  HD
ATOM     13 1HH1 ARG D   2     -12.773   4.470  14.172  1.00 80.72 LIG 0.17  HD
ENDBRANCH 4 5
ENDBRANCH 3 4
ENDBRANCH 2 3
ENDBRANCH 1 2
BRANCH 1 14
ATOM     14  C   ARG D   2     -12.427  -2.072  11.002  1.00 29.38 LIG 0.24  C 
ATOM     15 O    ARG D   2     -13.032  -1.882   9.950  1.00 21.44 LIG-0.27  OA
ATOM     16  N   SER D   3     -12.187  -3.286  11.477  1.00 29.93 LIG-0.34  N 
ATOM     17 H    SER D   3     -11.718  -3.457  12.177  1.00 29.93 LIG 0.16  HD
BRANCH 16 18
ATOM     18  CA  SER D   3     -12.737  -4.449  10.795  1.00 48.61 LIG 0.20  C 
BRANCH 18 19
ATOM     19  C   SER D   3     -14.248  -4.439  10.929  1.00 58.83 LIG 0.24  C 
ATOM     20  N   LYS D   4     -14.928  -4.977   9.924  1.00 77.18 LIG-0.35  N 
ATOM     21 H    LYS D   4     -14.570  -5.273   9.200  1.00 77.18 LIG 0.16  HD
ATOM     22 O    SER D   3     -14.788  -3.935  11.913  1.00 53.61 LIG-0.27  OA
BRANCH 20 23
ATOM     23  CA  LYS D   4     -16.377  -5.105   9.981  1.00 70.35 LIG 0.18  C 
BRANCH 23 24
ATOM     24  CB  LYS D   4     -16.945  -5.473   8.608  1.00 80.12 LIG 0.04  C 
BRANCH 24 25
ATOM     25  CG  LYS D   4     -16.122  -4.929   7.447  1.00 84.36 LIG 0.00  C 
BRANCH 25 26
ATOM     26  CD  LYS D   4     -16.155  -3.416   7.369  1.00102.13 LIG 0.03  C 
BRANCH 26 27
ATOM     27  CE  LYS D   4     -15.734  -2.939   5.984  1.00 86.00 LIG 0.23  C 
BRANCH 27 28
ATOM     28  NZ  LYS D   4     -14.939  -1.682   6.042  1.00 85.97 LIG-0.08  N 
ATOM     29 HZ3  LYS D   4     -14.564  -1.532   5.248  1.00 85.97 LIG 0.27  HD
ATOM     30 HZ2  LYS D   4     -14.304  -1.760   6.660  1.00 85.97 LIG 0.27  HD
ATOM     31 HZ1  LYS D   4     -15.474  -1.002   6.251  1.00 85.97 LIG 0.27  HD
ENDBRANCH 27 28
ENDBRANCH 26 27
ENDBRANCH 25 26
ENDBRANCH 24 25
ENDBRANCH 23 24
BRANCH 23 32
ATOM     32  C   LYS D   4     -16.707  -6.176  11.008  1.00 69.25 LIG 0.24  C 
ATOM     33 O    LYS D   4     -15.820  -6.861  11.517  1.00 74.50 LIG-0.27  OA
ATOM     34  N   GLY D   5     -17.999  -6.325  11.290  1.00 72.69 LIG-0.35  N 
ATOM     35 H    GLY D   5     -18.619  -5.828  10.963  1.00 72.69 LIG 0.16  HD
BRANCH 34 36
ATOM     36  CA  GLY D   5     -18.477  -7.357  12.192  1.00 67.28 LIG 0.21  C 
BRANCH 36 37
ATOM     37  C   GLY D   5     -19.979  -7.287  12.380  1.00 69.64 LIG 0.21  C 
ATOM     38 O    GLY D   5     -20.466  -6.770  13.388  1.00 73.82 LIG-0.29  OA
ENDBRANCH 36 37
ENDBRANCH 34 36
ENDBRANCH 23 32
ENDBRANCH 20 23
ENDBRANCH 18 19
BRANCH 18 39
ATOM     39  CB  SER D   3     -12.164  -5.728  11.380  1.00 47.59 LIG 0.20  C 
BRANCH 39 40
ATOM     40 OG   SER D   3     -10.819  -5.888  10.975  1.00 55.88 LIG-0.40  OA
ATOM     41 HG   SER D   3     -10.445  -6.462  11.462  1.00 55.88 LIG 0.21  HD
ENDBRANCH 39 40
ENDBRANCH 18 39
ENDBRANCH 16 18
ENDBRANCH 1 14
BRANCH 1 42
ATOM     42  N   ARG D   2     -10.772  -0.316  11.174  1.00 24.62 LIG-0.35  N 
ATOM     43 H    ARG D   2     -10.676  -0.532  10.347  1.00 24.62 LIG 0.16  HD
ATOM     44  C   PHE D   1      -9.964   0.492  11.831  1.00 23.06 LIG 0.25  C 
ATOM     45 O    PHE D   1     -10.122   0.780  13.014  1.00 27.40 LIG-0.27  OA
BRANCH 44 46
ATOM     46  CA  PHE D   1      -8.855   1.142  11.015  1.00 18.76 LIG 0.28  C 
BRANCH 46 47
ATOM     47  CB  PHE D   1      -7.811   0.155  10.497  1.00 12.58 LIG 0.08  C 
BRANCH 47 48
ATOM     48  CG  PHE D   1      -6.725   0.821   9.682  1.00 17.06 LIG-0.06  A 
ATOM     49  CD1 PHE D   1      -7.049   1.608   8.579  1.00 22.27 LIG 0.01  A 
ATOM     50  CE1 PHE D   1      -6.049   2.245   7.832  1.00 15.67 LIG 0.00  A 
ATOM     51  CZ  PHE D   1      -4.711   2.088   8.188  1.00 13.83 LIG 0.00  A 
ATOM     52  CE2 PHE D   1      -4.382   1.317   9.287  1.00 20.38 LIG 0.00  A 
ATOM     53  CD2 PHE D   1      -5.385   0.690  10.035  1.00 21.07 LIG 0.01  A 
ENDBRANCH 47 48
ENDBRANCH 46 47
BRANCH 46 54
ATOM     54  N   PHE D   1      -8.205   2.206  11.817  1.00 21.45 LIG-0.07  N 
ATOM     55 H2   PHE D   1      -8.514   2.179  12.652  1.00 21.45 LIG 0.28  HD
ATOM     56 H3   PHE D   1      -7.324   2.078  11.822  1.00 21.45 LIG 0.28  HD
ATOM     57 H1   PHE D   1      -8.388   3.000  11.460  1.00 21.45 LIG 0.28  HD
ENDBRANCH 46 54
ENDBRANCH 44 46
ENDBRANCH 1 42
TORSDOF 23
ENDMDL
MODEL 8
USER: ADFR SOLUTION from run 184
USER: SCORE 15.966419 LL:  -2.073 LR: -15.366 RR:   0.000 FEB:  -8.505
USER: RMSD 3.285150
USER: SEED 183
USER: STATUS no improvement in best in 18 clusters for 5 generations
USER: GENES 25
USER: genes 0 Translation |==|  0.45823 0.63726 0.45316
USER: genes 1 Rotation |==|  0.43632 0.44854 0.53274 0.99216
USER: genes 2 Torsion [C]-CA--CB-[CG] |==|  0.20595
USER: genes 3 Torsion [CA]-CB--CG-[CD] |==|  0.38948
USER: genes 4 Torsion [CB]-CG--CD-[NE] |==|  0.12594
USER: genes 5 Torsion [CG]-CD--NE-[HE] |==|  0.94415
USER: genes 6 Torsion [N]-CA--C-[N] |==|  0.33801
USER: genes 7 Torsion [C]-N--CA-[C] |==|  0.85733
USER: genes 8 Torsion [N]-CA--C-[N] |==|  0.33611
USER: genes 9 Torsion [C]-N--CA-[CB] |==|  0.22172
USER: genes 10 Torsion [N]-CA--CB-[CG] |==|  0.74530
USER: genes 11 Torsion [CA]-CB--CG-[CD] |==|  0.47735
USER: genes 12 Torsion [CB]-CG--CD-[CE] |==|  0.69885
USER: genes 13 Torsion [CG]-CD--CE-[NZ] |==|  0.46785
USER: genes 14 Torsion [CD]-CE--NZ-[HZ2] |==|  0.77723
USER: genes 15 Torsion [N]-CA--C-[N] |==|  0.03888
USER: genes 16 Torsion [C]-N--CA-[C] |==|  0.44821
USER: genes 17 Torsion [N]-CA--C-[O] |==|  0.00825
USER: genes 18 Torsion [N]-CA--CB-[OG] |==|  0.96106
USER: genes 19 Torsion [CA]-CB--OG-[HG] |==|  0.44572
USER: genes 20 Torsion [CB]-CA--N-[C] |==|  0.50750
USER: genes 21 Torsion [N]-C--CA-[N] |==|  0.33068
USER: genes 22 Torsion [C]-CA--CB-[CG] |==|  0.47217
USER: genes 23 Torsion [CA]-CB--CG-[CD1] |==|  0.90391
USER: genes 24 Torsion [C]-CA--N-[H2] |==|  0.80679
ROOT
ATOM      1  CA  ARG D   2     -12.472  -0.026  10.988  1.00 39.33 LIG 0.18  C 
ENDROOT
BRANCH 1 2
ATOM      2  CB  ARG D   2     -13.484  -0.085   9.858  1.00 35.05 LIG 0.04  C 
BRANCH 2 3
ATOM      3  CG  ARG D   2     -14.888  -0.291  10.358  1.00 57.88 LIG 0.02  C 
BRANCH 3 4
ATOM      4  CD  ARG D   2     -15.886   0.542   9.577  1.00 90.52 LIG 0.14  C 
BRANCH 4 5
ATOM      5  NE  ARG D   2     -15.656   0.466   8.135  1.00 84.14 LIG-0.23  N 
ATOM      6 HE   ARG D   2     -14.878   0.213   7.867  1.00 84.14 LIG 0.18  HD
ATOM      7  CZ  ARG D   2     -16.564   0.761   7.207  1.00 83.97 LIG 0.67  C 
ATOM      8  NH2 ARG D   2     -16.252   0.655   5.920  1.00 60.39 LIG-0.23  N 
ATOM      9  NH1 ARG D   2     -17.779   1.171   7.556  1.00 80.72 LIG-0.23  N 
ATOM     10 1HH2 ARG D   2     -15.464   0.396   5.689  1.00 60.39 LIG 0.17  HD
ATOM     11 2HH2 ARG D   2     -16.836   0.845   5.319  1.00 60.39 LIG 0.17  HD
ATOM     12 2HH1 ARG D   2     -18.360   1.360   6.952  1.00 80.72 LIG 0.17  HD
ATOM     13 1HH1 ARG D   2     -17.984   1.248   8.388  1.00 80.72 LIG 0.17  HD
ENDBRANCH 4 5
ENDBRANCH 3 4
ENDBRANCH 2 3
ENDBRANCH 1 2
BRANCH 1 14
ATOM     14  C   ARG D   2     -12.250  -1.416  11.544  1.00 29.38 LIG 0.24  C 
ATOM     15 O    ARG D   2     -11.794  -2.311  10.836  1.00 21.44 LIG-0.27  OA
ATOM     16  N   SER D   3     -12.572  -1.606  12.815  1.00 29.93 LIG-0.34  N 
ATOM     17 H    SER D   3     -12.838  -0.990  13.353  1.00 29.93 LIG 0.16  HD
BRANCH 16 18
ATOM     18  CA  SER D   3     -12.485  -2.941  13.389  1.00 48.61 LIG 0.20  C 
BRANCH 18 19
ATOM     19  C   SER D   3     -13.234  -3.917  12.503  1.00 58.83 LIG 0.24  C 
ATOM     20  N   LYS D   4     -12.523  -4.925  12.010  1.00 77.18 LIG-0.35  N 
ATOM     21 H    LYS D   4     -11.675  -5.020  12.122  1.00 77.18 LIG 0.16  HD
ATOM     22 O    SER D   3     -14.427  -3.749  12.251  1.00 53.61 LIG-0.27  OA
BRANCH 20 23
ATOM     23  CA  LYS D   4     -13.153  -5.973  11.221  1.00 70.35 LIG 0.18  C 
BRANCH 23 24
ATOM     24  CB  LYS D   4     -13.375  -5.509   9.779  1.00 80.12 LIG 0.04  C 
BRANCH 24 25
ATOM     25  CG  LYS D   4     -14.738  -4.870   9.552  1.00 84.36 LIG 0.00  C 
BRANCH 25 26
ATOM     26  CD  LYS D   4     -14.865  -4.241   8.178  1.00102.13 LIG 0.03  C 
BRANCH 26 27
ATOM     27  CE  LYS D   4     -14.864  -2.721   8.279  1.00 86.00 LIG 0.23  C 
BRANCH 27 28
ATOM     28  NZ  LYS D   4     -14.709  -2.071   6.949  1.00 85.97 LIG-0.08  N 
ATOM     29 HZ3  LYS D   4     -15.186  -2.517   6.343  1.00 85.97 LIG 0.27  HD
ATOM     30 HZ2  LYS D   4     -13.851  -2.076   6.714  1.00 85.97 LIG 0.27  HD
ATOM     31 HZ1  LYS D   4     -14.999  -1.231   6.994  1.00 85.97 LIG 0.27  HD
ENDBRANCH 27 28
ENDBRANCH 26 27
ENDBRANCH 25 26
ENDBRANCH 24 25
ENDBRANCH 23 24
BRANCH 23 32
ATOM     32  C   LYS D   4     -12.247  -7.193  11.263  1.00 69.25 LIG 0.24  C 
ATOM     33 O    LYS D   4     -12.419  -8.137  10.492  1.00 74.50 LIG-0.27  OA
ATOM     34  N   GLY D   5     -11.292  -7.170  12.188  1.00 72.69 LIG-0.35  N 
ATOM     35 H    GLY D   5     -11.147  -6.500  12.707  1.00 72.69 LIG 0.16  HD
BRANCH 34 36
ATOM     36  CA  GLY D   5     -10.398  -8.292  12.402  1.00 67.28 LIG 0.21  C 
BRANCH 36 37
ATOM     37  C   GLY D   5      -9.148  -7.881  13.155  1.00 69.64 LIG 0.21  C 
ATOM     38 O    GLY D   5      -9.006  -6.725  13.559  1.00 73.82 LIG-0.29  OA
ENDBRANCH 36 37
ENDBRANCH 34 36
ENDBRANCH 23 32
ENDBRANCH 20 23
ENDBRANCH 18 19
BRANCH 18 39
ATOM     39  CB  SER D   3     -13.062  -2.954  14.794  1.00 47.59 LIG 0.20  C 
BRANCH 39 40
ATOM     40 OG   SER D   3     -13.222  -1.631  15.267  1.00 55.88 LIG-0.40  OA
ATOM     41 HG   SER D   3     -13.770  -1.626  15.904  1.00 55.88 LIG 0.21  HD
ENDBRANCH 39 40
ENDBRANCH 18 39
ENDBRANCH 16 18
ENDBRANCH 1 14
BRANCH 1 42
ATOM     42  N   ARG D   2     -11.225   0.506  10.490  1.00 24.62 LIG-0.35  N 
ATOM     43 H    ARG D   2     -11.239   0.742   9.663  1.00 24.62 LIG 0.16  HD
ATOM     44  C   PHE D   1     -10.171   0.605  11.276  1.00 23.06 LIG 0.25  C 
ATOM     45 O    PHE D   1     -10.178   0.254  12.452  1.00 27.40 LIG-0.27  OA
BRANCH 44 46
ATOM     46  CA  PHE D   1      -8.945   1.278  10.673  1.00 18.76 LIG 0.28  C 
BRANCH 46 47
ATOM     47  CB  PHE D   1      -7.729   0.361  10.564  1.00 12.58 LIG 0.08  C 
BRANCH 47 48
ATOM     48  CG  PHE D   1      -6.608   0.967   9.749  1.00 17.06 LIG-0.06  A 
ATOM     49  CD1 PHE D   1      -6.886   1.782   8.656  1.00 22.27 LIG 0.01  A 
ATOM     50  CE1 PHE D   1      -5.852   2.364   7.911  1.00 15.67 LIG 0.00  A 
ATOM     51  CZ  PHE D   1      -4.525   2.120   8.258  1.00 13.83 LIG 0.00  A 
ATOM     52  CE2 PHE D   1      -4.240   1.319   9.349  1.00 20.38 LIG 0.00  A 
ATOM     53  CD2 PHE D   1      -5.276   0.749  10.095  1.00 21.07 LIG 0.01  A 
ENDBRANCH 47 48
ENDBRANCH 46 47
BRANCH 46 54
ATOM     54  N   PHE D   1      -8.608   2.490  11.457  1.00 21.45 LIG-0.07  N 
ATOM     55 H2   PHE D   1      -9.233   3.111  11.327  1.00 21.45 LIG 0.28  HD
ATOM     56 H3   PHE D   1      -8.571   2.284  12.322  1.00 21.45 LIG 0.28  HD
ATOM     57 H1   PHE D   1      -7.819   2.805  11.193  1.00 21.45 LIG 0.28  HD
ENDBRANCH 46 54
ENDBRANCH 44 46
ENDBRANCH 1 42
TORSDOF 23
ENDMDL
MODEL 9
USER: ADFR SOLUTION from run 26
USER: SCORE 15.908487 LL:  -2.526 LR: -15.309 RR:   0.000 FEB:  -8.448
USER: RMSD 4.187692
USER: SEED 25
USER: STATUS searching
USER: GENES 25
USER: genes 0 Translation |==|  0.46533 0.62043 0.45012
USER: genes 1 Rotation |==|  0.39222 0.39305 0.57701 0.97012
USER: genes 2 Torsion [C]-CA--CB-[CG] |==|  0.26521
USER: genes 3 Torsion [CA]-CB--CG-[CD] |==|  0.00182
USER: genes 4 Torsion [CB]-CG--CD-[NE] |==|  0.21729
USER: genes 5 Torsion [CG]-CD--NE-[HE] |==|  0.05795
USER: genes 6 Torsion [N]-CA--C-[N] |==|  0.46117
USER: genes 7 Torsion [C]-N--CA-[C] |==|  0.87160
USER: genes 8 Torsion [N]-CA--C-[N] |==|  0.41600
USER: genes 9 Torsion [C]-N--CA-[CB] |==|  0.52940
USER: genes 10 Torsion [N]-CA--CB-[CG] |==|  0.62949
USER: genes 11 Torsion [CA]-CB--CG-[CD] |==|  0.59381
USER: genes 12 Torsion [CB]-CG--CD-[CE] |==|  0.34422
USER: genes 13 Torsion [CG]-CD--CE-[NZ] |==|  0.39781
USER: genes 14 Torsion [CD]-CE--NZ-[HZ2] |==|  0.74613
USER: genes 15 Torsion [N]-CA--C-[N] |==|  0.82553
USER: genes 16 Torsion [C]-N--CA-[C] |==|  0.56602
USER: genes 17 Torsion [N]-CA--C-[O] |==|  0.07072
USER: genes 18 Torsion [N]-CA--CB-[OG] |==|  0.22897
USER: genes 19 Torsion [CA]-CB--OG-[HG] |==|  0.34646
USER: genes 20 Torsion [CB]-CA--N-[C] |==|  0.51147
USER: genes 21 Torsion [N]-C--CA-[N] |==|  0.35402
USER: genes 22 Torsion [C]-CA--CB-[CG] |==|  0.41802
USER: genes 23 Torsion [CA]-CB--CG-[CD1] |==|  0.94509
USER: genes 24 Torsion [C]-CA--N-[H2] |==|  0.81056
ROOT
ATOM      1  CA  ARG D   2     -12.318  -0.366  10.927  1.00 39.33 LIG 0.18  C 
ENDROOT
BRANCH 1 2
ATOM      2  CB  ARG D   2     -13.016  -0.820   9.658  1.00 35.05 LIG 0.04  C 
BRANCH 2 3
ATOM      3  CG  ARG D   2     -14.514  -0.736   9.769  1.00 57.88 LIG 0.02  C 
BRANCH 3 4
ATOM      4  CD  ARG D   2     -14.944  -0.202  11.122  1.00 90.52 LIG 0.14  C 
BRANCH 4 5
ATOM      5  NE  ARG D   2     -14.800   1.251  11.210  1.00 84.14 LIG-0.23  N 
ATOM      6 HE   ARG D   2     -14.768   1.695  10.474  1.00 84.14 LIG 0.18  HD
ATOM      7  CZ  ARG D   2     -14.716   1.936  12.349  1.00 83.97 LIG 0.67  C 
ATOM      8  NH2 ARG D   2     -14.591   3.257  12.317  1.00 60.39 LIG-0.23  N 
ATOM      9  NH1 ARG D   2     -14.746   1.306  13.519  1.00 80.72 LIG-0.23  N 
ATOM     10 1HH2 ARG D   2     -14.564   3.669  11.561  1.00 60.39 LIG 0.17  HD
ATOM     11 2HH2 ARG D   2     -14.536   3.702  13.051  1.00 60.39 LIG 0.17  HD
ATOM     12 2HH1 ARG D   2     -14.691   1.755  14.251  1.00 80.72 LIG 0.17  HD
ATOM     13 1HH1 ARG D   2     -14.820   0.450  13.545  1.00 80.72 LIG 0.17  HD
ENDBRANCH 4 5
ENDBRANCH 3 4
ENDBRANCH 2 3
ENDBRANCH 1 2
BRANCH 1 14
ATOM     14  C   ARG D   2     -12.002  -1.569  11.790  1.00 29.38 LIG 0.24  C 
ATOM     15 O    ARG D   2     -10.850  -1.986  11.890  1.00 21.44 LIG-0.27  OA
ATOM     16  N   SER D   3     -13.022  -2.134  12.418  1.00 29.93 LIG-0.34  N 
ATOM     17 H    SER D   3     -13.828  -1.835  12.417  1.00 29.93 LIG 0.16  HD
BRANCH 16 18
ATOM     18  CA  SER D   3     -12.812  -3.356  13.181  1.00 48.61 LIG 0.20  C 
BRANCH 18 19
ATOM     19  C   SER D   3     -11.988  -4.325  12.357  1.00 58.83 LIG 0.24  C 
ATOM     20  N   LYS D   4     -11.204  -5.154  13.037  1.00 77.18 LIG-0.35  N 
ATOM     21 H    LYS D   4     -11.104  -5.134  13.892  1.00 77.18 LIG 0.16  HD
ATOM     22 O    SER D   3     -12.043  -4.309  11.128  1.00 53.61 LIG-0.27  OA
BRANCH 20 23
ATOM     23  CA  LYS D   4     -10.436  -6.188  12.359  1.00 70.35 LIG 0.18  C 
BRANCH 23 24
ATOM     24  CB  LYS D   4      -9.828  -7.164  13.370  1.00 80.12 LIG 0.04  C 
BRANCH 24 25
ATOM     25  CG  LYS D   4      -8.359  -7.467  13.111  1.00 84.36 LIG 0.00  C 
BRANCH 25 26
ATOM     26  CD  LYS D   4      -7.983  -8.889  13.480  1.00102.13 LIG 0.03  C 
BRANCH 26 27
ATOM     27  CE  LYS D   4      -7.367  -9.610  12.288  1.00 86.00 LIG 0.23  C 
BRANCH 27 28
ATOM     28  NZ  LYS D   4      -6.268 -10.527  12.694  1.00 85.97 LIG-0.08  N 
ATOM     29 HZ3  LYS D   4      -6.414 -10.817  13.523  1.00 85.97 LIG 0.27  HD
ATOM     30 HZ2  LYS D   4      -5.492 -10.093  12.664  1.00 85.97 LIG 0.27  HD
ATOM     31 HZ1  LYS D   4      -6.240 -11.222  12.137  1.00 85.97 LIG 0.27  HD
ENDBRANCH 27 28
ENDBRANCH 26 27
ENDBRANCH 25 26
ENDBRANCH 24 25
ENDBRANCH 23 24
BRANCH 23 32
ATOM     32  C   LYS D   4     -11.372  -6.911  11.405  1.00 69.25 LIG 0.24  C 
ATOM     33 O    LYS D   4     -11.189  -6.875  10.188  1.00 74.50 LIG-0.27  OA
ATOM     34  N   GLY D   5     -12.390  -7.553  11.972  1.00 72.69 LIG-0.35  N 
ATOM     35 H    GLY D   5     -12.505  -7.608  12.823  1.00 72.69 LIG 0.16  HD
BRANCH 34 36
ATOM     36  CA  GLY D   5     -13.410  -8.224  11.189  1.00 67.28 LIG 0.21  C 
BRANCH 36 37
ATOM     37  C   GLY D   5     -14.708  -8.367  11.960  1.00 69.64 LIG 0.21  C 
ATOM     38 O    GLY D   5     -14.992  -7.584  12.869  1.00 73.82 LIG-0.29  OA
ENDBRANCH 36 37
ENDBRANCH 34 36
ENDBRANCH 23 32
ENDBRANCH 20 23
ENDBRANCH 18 19
BRANCH 18 39
ATOM     39  CB  SER D   3     -14.143  -3.983  13.559  1.00 47.59 LIG 0.20  C 
BRANCH 39 40
ATOM     40 OG   SER D   3     -14.642  -4.750  12.481  1.00 55.88 LIG-0.40  OA
ATOM     41 HG   SER D   3     -14.792  -5.535  12.740  1.00 55.88 LIG 0.21  HD
ENDBRANCH 39 40
ENDBRANCH 18 39
ENDBRANCH 16 18
ENDBRANCH 1 14
BRANCH 1 42
ATOM     42  N   ARG D   2     -11.096   0.323  10.583  1.00 24.62 LIG-0.35  N 
ATOM     43 H    ARG D   2     -10.966   0.428   9.740  1.00 24.62 LIG 0.16  HD
ATOM     44  C   PHE D   1     -10.270   0.742  11.522  1.00 23.06 LIG 0.25  C 
ATOM     45 O    PHE D   1     -10.477   0.573  12.720  1.00 27.40 LIG-0.27  OA
BRANCH 44 46
ATOM     46  CA  PHE D   1      -9.069   1.549  11.047  1.00 18.76 LIG 0.28  C 
BRANCH 46 47
ATOM     47  CB  PHE D   1      -7.743   0.801  11.153  1.00 12.58 LIG 0.08  C 
BRANCH 47 48
ATOM     48  CG  PHE D   1      -6.739   1.233  10.108  1.00 17.06 LIG-0.06  A 
ATOM     49  CD1 PHE D   1      -7.156   1.887   8.951  1.00 22.27 LIG 0.01  A 
ATOM     50  CE1 PHE D   1      -6.229   2.309   7.989  1.00 15.67 LIG 0.00  A 
ATOM     51  CZ  PHE D   1      -4.871   2.067   8.182  1.00 13.83 LIG 0.00  A 
ATOM     52  CE2 PHE D   1      -4.446   1.428   9.332  1.00 20.38 LIG 0.00  A 
ATOM     53  CD2 PHE D   1      -5.376   1.017  10.294  1.00 21.07 LIG 0.01  A 
ENDBRANCH 47 48
ENDBRANCH 46 47
BRANCH 46 54
ATOM     54  N   PHE D   1      -9.002   2.827  11.795  1.00 21.45 LIG-0.07  N 
ATOM     55 H2   PHE D   1      -9.688   3.344  11.562  1.00 21.45 LIG 0.28  HD
ATOM     56 H3   PHE D   1      -9.039   2.662  12.669  1.00 21.45 LIG 0.28  HD
ATOM     57 H1   PHE D   1      -8.239   3.244  11.604  1.00 21.45 LIG 0.28  HD
ENDBRANCH 46 54
ENDBRANCH 44 46
ENDBRANCH 1 42
TORSDOF 23
ENDMDL
MODEL 10
USER: ADFR SOLUTION from run 153
USER: SCORE 17.345865 LL:  -3.056 LR: -15.121 RR:   0.000 FEB:  -8.261
USER: RMSD 3.422062
USER: SEED 152
USER: STATUS searching
USER: GENES 25
USER: genes 0 Translation |==|  0.46196 0.62795 0.45287
USER: genes 1 Rotation |==|  0.38801 0.40178 0.56993 0.97215
USER: genes 2 Torsion [C]-CA--CB-[CG] |==|  0.04151
USER: genes 3 Torsion [CA]-CB--CG-[CD] |==|  0.40614
USER: genes 4 Torsion [CB]-CG--CD-[NE] |==|  0.13474
USER: genes 5 Torsion [CG]-CD--NE-[HE] |==|  0.87640
USER: genes 6 Torsion [N]-CA--C-[N] |==|  0.37519
USER: genes 7 Torsion [C]-N--CA-[C] |==|  0.85967
USER: genes 8 Torsion [N]-CA--C-[N] |==|  0.35051
USER: genes 9 Torsion [C]-N--CA-[CB] |==|  0.18338
USER: genes 10 Torsion [N]-CA--CB-[CG] |==|  0.64373
USER: genes 11 Torsion [CA]-CB--CG-[CD] |==|  0.70808
USER: genes 12 Torsion [CB]-CG--CD-[CE] |==|  0.32873
USER: genes 13 Torsion [CG]-CD--CE-[NZ] |==|  0.81522
USER: genes 14 Torsion [CD]-CE--NZ-[HZ2] |==|  0.97144
USER: genes 15 Torsion [N]-CA--C-[N] |==|  0.04614
USER: genes 16 Torsion [C]-N--CA-[C] |==|  0.15927
USER: genes 17 Torsion [N]-CA--C-[O] |==|  0.21896
USER: genes 18 Torsion [N]-CA--CB-[OG] |==|  0.05748
USER: genes 19 Torsion [CA]-CB--OG-[HG] |==|  0.64704
USER: genes 20 Torsion [CB]-CA--N-[C] |==|  0.52373
USER: genes 21 Torsion [N]-C--CA-[N] |==|  0.33602
USER: genes 22 Torsion [C]-CA--CB-[CG] |==|  0.42704
USER: genes 23 Torsion [CA]-CB--CG-[CD1] |==|  0.94997
USER: genes 24 Torsion [C]-CA--N-[H2] |==|  0.82067
ROOT
ATOM      1  CA  ARG D   2     -12.391  -0.214  10.983  1.00 39.33 LIG 0.18  C 
ENDROOT
BRANCH 1 2
ATOM      2  CB  ARG D   2     -13.140  -0.656   9.738  1.00 35.05 LIG 0.04  C 
BRANCH 2 3
ATOM      3  CG  ARG D   2     -13.694  -2.049   9.870  1.00 57.88 LIG 0.02  C 
BRANCH 3 4
ATOM      4  CD  ARG D   2     -15.012  -2.196   9.134  1.00 90.52 LIG 0.14  C 
BRANCH 4 5
ATOM      5  NE  ARG D   2     -14.942  -1.669   7.771  1.00 84.14 LIG-0.23  N 
ATOM      6 HE   ARG D   2     -14.556  -0.908   7.656  1.00 84.14 LIG 0.18  HD
ATOM      7  CZ  ARG D   2     -15.434  -2.282   6.696  1.00 83.97 LIG 0.67  C 
ATOM      8  NH2 ARG D   2     -15.314  -1.716   5.501  1.00 60.39 LIG-0.23  N 
ATOM      9  NH1 ARG D   2     -16.052  -3.453   6.810  1.00 80.72 LIG-0.23  N 
ATOM     10 1HH2 ARG D   2     -14.919  -0.955   5.423  1.00 60.39 LIG 0.17  HD
ATOM     11 2HH2 ARG D   2     -15.630  -2.109   4.805  1.00 60.39 LIG 0.17  HD
ATOM     12 2HH1 ARG D   2     -16.367  -3.843   6.111  1.00 80.72 LIG 0.17  HD
ATOM     13 1HH1 ARG D   2     -16.138  -3.820   7.582  1.00 80.72 LIG 0.17  HD
ENDBRANCH 4 5
ENDBRANCH 3 4
ENDBRANCH 2 3
ENDBRANCH 1 2
BRANCH 1 14
ATOM     14  C   ARG D   2     -12.099  -1.417  11.854  1.00 29.38 LIG 0.24  C 
ATOM     15 O    ARG D   2     -11.212  -2.212  11.552  1.00 21.44 LIG-0.27  OA
ATOM     16  N   SER D   3     -12.844  -1.558  12.940  1.00 29.93 LIG-0.34  N 
ATOM     17 H    SER D   3     -13.432  -0.992  13.212  1.00 29.93 LIG 0.16  HD
BRANCH 16 18
ATOM     18  CA  SER D   3     -12.692  -2.745  13.770  1.00 48.61 LIG 0.20  C 
BRANCH 18 19
ATOM     19  C   SER D   3     -12.770  -3.981  12.894  1.00 58.83 LIG 0.24  C 
ATOM     20  N   LYS D   4     -11.757  -4.833  12.993  1.00 77.18 LIG-0.35  N 
ATOM     21 H    LYS D   4     -11.056  -4.699  13.474  1.00 77.18 LIG 0.16  HD
ATOM     22 O    SER D   3     -13.717  -4.149  12.127  1.00 53.61 LIG-0.27  OA
BRANCH 20 23
ATOM     23  CA  LYS D   4     -11.764  -6.096  12.270  1.00 70.35 LIG 0.18  C 
BRANCH 23 24
ATOM     24  CB  LYS D   4     -11.701  -5.858  10.759  1.00 80.12 LIG 0.04  C 
BRANCH 24 25
ATOM     25  CG  LYS D   4     -12.790  -6.587   9.985  1.00 84.36 LIG 0.00  C 
BRANCH 25 26
ATOM     26  CD  LYS D   4     -12.264  -7.799   9.242  1.00102.13 LIG 0.03  C 
BRANCH 26 27
ATOM     27  CE  LYS D   4     -12.933  -9.072   9.746  1.00 86.00 LIG 0.23  C 
BRANCH 27 28
ATOM     28  NZ  LYS D   4     -12.563  -9.380  11.154  1.00 85.97 LIG-0.08  N 
ATOM     29 HZ3  LYS D   4     -13.268  -9.249  11.682  1.00 85.97 LIG 0.27  HD
ATOM     30 HZ2  LYS D   4     -11.898  -8.848  11.410  1.00 85.97 LIG 0.27  HD
ATOM     31 HZ1  LYS D   4     -12.301 -10.229  11.213  1.00 85.97 LIG 0.27  HD
ENDBRANCH 27 28
ENDBRANCH 26 27
ENDBRANCH 25 26
ENDBRANCH 24 25
ENDBRANCH 23 24
BRANCH 23 32
ATOM     32  C   LYS D   4     -10.567  -6.907  12.740  1.00 69.25 LIG 0.24  C 
ATOM     33 O    LYS D   4     -10.170  -7.880  12.100  1.00 74.50 LIG-0.27  OA
ATOM     34  N   GLY D   5     -10.009  -6.504  13.878  1.00 72.69 LIG-0.35  N 
ATOM     35 H    GLY D   5     -10.262  -5.806  14.312  1.00 72.69 LIG 0.16  HD
BRANCH 34 36
ATOM     36  CA  GLY D   5      -8.908  -7.221  14.493  1.00 67.28 LIG 0.21  C 
BRANCH 36 37
ATOM     37  C   GLY D   5      -7.724  -7.346  13.555  1.00 69.64 LIG 0.21  C 
ATOM     38 O    GLY D   5      -6.953  -6.401  13.381  1.00 73.82 LIG-0.29  OA
ENDBRANCH 36 37
ENDBRANCH 34 36
ENDBRANCH 23 32
ENDBRANCH 20 23
ENDBRANCH 18 19
BRANCH 18 39
ATOM     39  CB  SER D   3     -13.769  -2.788  14.840  1.00 47.59 LIG 0.20  C 
BRANCH 39 40
ATOM     40 OG   SER D   3     -14.862  -1.973  14.463  1.00 55.88 LIG-0.40  OA
ATOM     41 HG   SER D   3     -15.036  -1.433  15.082  1.00 55.88 LIG 0.21  HD
ENDBRANCH 39 40
ENDBRANCH 18 39
ENDBRANCH 16 18
ENDBRANCH 1 14
BRANCH 1 42
ATOM     42  N   ARG D   2     -11.153   0.422  10.598  1.00 24.62 LIG-0.35  N 
ATOM     43 H    ARG D   2     -11.068   0.565   9.754  1.00 24.62 LIG 0.16  HD
ATOM     44  C   PHE D   1     -10.249   0.743  11.503  1.00 23.06 LIG 0.25  C 
ATOM     45 O    PHE D   1     -10.394   0.521  12.702  1.00 27.40 LIG-0.27  OA
BRANCH 44 46
ATOM     46  CA  PHE D   1      -9.032   1.505  10.995  1.00 18.76 LIG 0.28  C 
BRANCH 46 47
ATOM     47  CB  PHE D   1      -7.722   0.732  11.126  1.00 12.58 LIG 0.08  C 
BRANCH 47 48
ATOM     48  CG  PHE D   1      -6.684   1.158  10.111  1.00 17.06 LIG-0.06  A 
ATOM     49  CD1 PHE D   1      -7.056   1.864   8.970  1.00 22.27 LIG 0.01  A 
ATOM     50  CE1 PHE D   1      -6.098   2.280   8.037  1.00 15.67 LIG 0.00  A 
ATOM     51  CZ  PHE D   1      -4.753   1.980   8.244  1.00 13.83 LIG 0.00  A 
ATOM     52  CE2 PHE D   1      -4.373   1.289   9.380  1.00 20.38 LIG 0.00  A 
ATOM     53  CD2 PHE D   1      -5.334   0.884  10.313  1.00 21.07 LIG 0.01  A 
ENDBRANCH 47 48
ENDBRANCH 46 47
BRANCH 46 54
ATOM     54  N   PHE D   1      -8.935   2.808  11.695  1.00 21.45 LIG-0.07  N 
ATOM     55 H2   PHE D   1      -9.639   3.312  11.485  1.00 21.45 LIG 0.28  HD
ATOM     56 H3   PHE D   1      -8.919   2.673  12.575  1.00 21.45 LIG 0.28  HD
ATOM     57 H1   PHE D   1      -8.188   3.224  11.446  1.00 21.45 LIG 0.28  HD
ENDBRANCH 46 54
ENDBRANCH 44 46
ENDBRANCH 1 42
TORSDOF 23
ENDMDL
MODEL 11
USER: ADFR SOLUTION from run 180
USER: SCORE 15.874157 LL:  -2.461 LR: -15.089 RR:   0.000 FEB:  -8.228
USER: RMSD 5.234754
USER: SEED 179
USER: STATUS no improvement in best in 31 clusters for 5 generations
USER: GENES 25
USER: genes 0 Translation |==|  0.45263 0.62981 0.45612
USER: genes 1 Rotation |==|  0.43445 0.42617 0.54032 0.98849
USER: genes 2 Torsion [C]-CA--CB-[CG] |==|  0.29284
USER: genes 3 Torsion [CA]-CB--CG-[CD] |==|  0.58063
USER: genes 4 Torsion [CB]-CG--CD-[NE] |==|  0.91265
USER: genes 5 Torsion [CG]-CD--NE-[HE] |==|  0.81728
USER: genes 6 Torsion [N]-CA--C-[N] |==|  0.48887
USER: genes 7 Torsion [C]-N--CA-[C] |==|  0.17203
USER: genes 8 Torsion [N]-CA--C-[N] |==|  0.17321
USER: genes 9 Torsion [C]-N--CA-[CB] |==|  0.51239
USER: genes 10 Torsion [N]-CA--CB-[CG] |==|  0.69312
USER: genes 11 Torsion [CA]-CB--CG-[CD] |==|  0.79774
USER: genes 12 Torsion [CB]-CG--CD-[CE] |==|  0.57969
USER: genes 13 Torsion [CG]-CD--CE-[NZ] |==|  0.63222
USER: genes 14 Torsion [CD]-CE--NZ-[HZ2] |==|  0.88812
USER: genes 15 Torsion [N]-CA--C-[N] |==|  0.41655
USER: genes 16 Torsion [C]-N--CA-[C] |==|  0.77697
USER: genes 17 Torsion [N]-CA--C-[O] |==|  0.93925
USER: genes 18 Torsion [N]-CA--CB-[OG] |==|  0.93969
USER: genes 19 Torsion [CA]-CB--OG-[HG] |==|  0.41554
USER: genes 20 Torsion [CB]-CA--N-[C] |==|  0.48923
USER: genes 21 Torsion [N]-C--CA-[N] |==|  0.34511
USER: genes 22 Torsion [C]-CA--CB-[CG] |==|  0.44094
USER: genes 23 Torsion [CA]-CB--CG-[CD1] |==|  0.92107
USER: genes 24 Torsion [C]-CA--N-[H2] |==|  0.78792
ROOT
ATOM      1  CA  ARG D   2     -12.594  -0.176  11.049  1.00 39.33 LIG 0.18  C 
ENDROOT
BRANCH 1 2
ATOM      2  CB  ARG D   2     -13.502  -0.283   9.836  1.00 35.05 LIG 0.04  C 
BRANCH 2 3
ATOM      3  CG  ARG D   2     -14.897   0.199  10.123  1.00 57.88 LIG 0.02  C 
BRANCH 3 4
ATOM      4  CD  ARG D   2     -15.921  -0.510   9.258  1.00 90.52 LIG 0.14  C 
BRANCH 4 5
ATOM      5  NE  ARG D   2     -15.376  -0.879   7.951  1.00 84.14 LIG-0.23  N 
ATOM      6 HE   ARG D   2     -15.157  -0.243   7.415  1.00 84.14 LIG 0.18  HD
ATOM      7  CZ  ARG D   2     -15.193  -2.131   7.533  1.00 83.97 LIG 0.67  C 
ATOM      8  NH2 ARG D   2     -14.686  -2.356   6.327  1.00 60.39 LIG-0.23  N 
ATOM      9  NH1 ARG D   2     -15.523  -3.157   8.310  1.00 80.72 LIG-0.23  N 
ATOM     10 1HH2 ARG D   2     -14.477  -1.694   5.818  1.00 60.39 LIG 0.17  HD
ATOM     11 2HH2 ARG D   2     -14.567  -3.162   6.054  1.00 60.39 LIG 0.17  HD
ATOM     12 2HH1 ARG D   2     -15.402  -3.962   8.033  1.00 80.72 LIG 0.17  HD
ATOM     13 1HH1 ARG D   2     -15.857  -3.017   9.089  1.00 80.72 LIG 0.17  HD
ENDBRANCH 4 5
ENDBRANCH 3 4
ENDBRANCH 2 3
ENDBRANCH 1 2
BRANCH 1 14
ATOM     14  C   ARG D   2     -12.364  -1.554  11.632  1.00 29.38 LIG 0.24  C 
ATOM     15 O    ARG D   2     -11.240  -2.050  11.649  1.00 21.44 LIG-0.27  OA
ATOM     16  N   SER D   3     -13.428  -2.179  12.115  1.00 29.93 LIG-0.34  N 
ATOM     17 H    SER D   3     -14.215  -1.840  12.172  1.00 29.93 LIG 0.16  HD
BRANCH 16 18
ATOM     18  CA  SER D   3     -13.302  -3.547  12.597  1.00 48.61 LIG 0.20  C 
BRANCH 18 19
ATOM     19  C   SER D   3     -12.333  -3.581  13.763  1.00 58.83 LIG 0.24  C 
ATOM     20  N   LYS D   4     -12.686  -2.885  14.838  1.00 77.18 LIG-0.35  N 
ATOM     21 H    LYS D   4     -13.388  -2.389  14.885  1.00 77.18 LIG 0.16  HD
ATOM     22 O    SER D   3     -11.276  -4.206  13.684  1.00 53.61 LIG-0.27  OA
BRANCH 20 23
ATOM     23  CA  LYS D   4     -11.880  -2.914  16.049  1.00 70.35 LIG 0.18  C 
BRANCH 23 24
ATOM     24  CB  LYS D   4     -12.556  -2.122  17.171  1.00 80.12 LIG 0.04  C 
BRANCH 24 25
ATOM     25  CG  LYS D   4     -11.827  -0.832  17.525  1.00 84.36 LIG 0.00  C 
BRANCH 25 26
ATOM     26  CD  LYS D   4     -10.535  -1.081  18.278  1.00102.13 LIG 0.03  C 
BRANCH 26 27
ATOM     27  CE  LYS D   4     -10.211   0.092  19.195  1.00 86.00 LIG 0.23  C 
BRANCH 27 28
ATOM     28  NZ  LYS D   4      -8.797   0.533  19.063  1.00 85.97 LIG-0.08  N 
ATOM     29 HZ3  LYS D   4      -8.711   1.043  18.337  1.00 85.97 LIG 0.27  HD
ATOM     30 HZ2  LYS D   4      -8.269  -0.179  18.989  1.00 85.97 LIG 0.27  HD
ATOM     31 HZ1  LYS D   4      -8.563   1.002  19.783  1.00 85.97 LIG 0.27  HD
ENDBRANCH 27 28
ENDBRANCH 26 27
ENDBRANCH 25 26
ENDBRANCH 24 25
ENDBRANCH 23 24
BRANCH 23 32
ATOM     32  C   LYS D   4     -11.698  -4.370  16.450  1.00 69.25 LIG 0.24  C 
ATOM     33 O    LYS D   4     -12.564  -5.208  16.203  1.00 74.50 LIG-0.27  OA
ATOM     34  N   GLY D   5     -10.566  -4.654  17.088  1.00 72.69 LIG-0.35  N 
ATOM     35 H    GLY D   5      -9.943  -4.080  17.235  1.00 72.69 LIG 0.16  HD
BRANCH 34 36
ATOM     36  CA  GLY D   5     -10.283  -5.982  17.601  1.00 67.28 LIG 0.21  C 
BRANCH 36 37
ATOM     37  C   GLY D   5     -10.979  -6.234  18.924  1.00 69.64 LIG 0.21  C 
ATOM     38 O    GLY D   5     -11.341  -5.296  19.636  1.00 73.82 LIG-0.29  OA
ENDBRANCH 36 37
ENDBRANCH 34 36
ENDBRANCH 23 32
ENDBRANCH 20 23
ENDBRANCH 18 19
BRANCH 18 39
ATOM     39  CB  SER D   3     -12.820  -4.461  11.484  1.00 47.59 LIG 0.20  C 
BRANCH 39 40
ATOM     40 OG   SER D   3     -13.097  -3.882  10.224  1.00 55.88 LIG-0.40  OA
ATOM     41 HG   SER D   3     -12.515  -4.125   9.669  1.00 55.88 LIG 0.21  HD
ENDBRANCH 39 40
ENDBRANCH 18 39
ENDBRANCH 16 18
ENDBRANCH 1 14
BRANCH 1 42
ATOM     42  N   ARG D   2     -11.332   0.404  10.655  1.00 24.62 LIG-0.35  N 
ATOM     43 H    ARG D   2     -11.251   0.554   9.812  1.00 24.62 LIG 0.16  HD
ATOM     44  C   PHE D   1     -10.401   0.669  11.551  1.00 23.06 LIG 0.25  C 
ATOM     45 O    PHE D   1     -10.541   0.440  12.749  1.00 27.40 LIG-0.27  OA
BRANCH 44 46
ATOM     46  CA  PHE D   1      -9.156   1.378  11.036  1.00 18.76 LIG 0.28  C 
BRANCH 46 47
ATOM     47  CB  PHE D   1      -7.898   0.513  11.066  1.00 12.58 LIG 0.08  C 
BRANCH 47 48
ATOM     48  CG  PHE D   1      -6.826   1.003  10.118  1.00 17.06 LIG-0.06  A 
ATOM     49  CD1 PHE D   1      -7.166   1.695   8.959  1.00 22.27 LIG 0.01  A 
ATOM     50  CE1 PHE D   1      -6.176   2.170   8.088  1.00 15.67 LIG 0.00  A 
ATOM     51  CZ  PHE D   1      -4.832   1.943   8.375  1.00 13.83 LIG 0.00  A 
ATOM     52  CE2 PHE D   1      -4.485   1.265   9.530  1.00 20.38 LIG 0.00  A 
ATOM     53  CD2 PHE D   1      -5.477   0.801  10.401  1.00 21.07 LIG 0.01  A 
ENDBRANCH 47 48
ENDBRANCH 46 47
BRANCH 46 54
ATOM     54  N   PHE D   1      -8.942   2.628  11.804  1.00 21.45 LIG-0.07  N 
ATOM     55 H2   PHE D   1      -9.517   3.249  11.527  1.00 21.45 LIG 0.28  HD
ATOM     56 H3   PHE D   1      -9.071   2.470  12.670  1.00 21.45 LIG 0.28  HD
ATOM     57 H1   PHE D   1      -8.110   2.916  11.676  1.00 21.45 LIG 0.28  HD
ENDBRANCH 46 54
ENDBRANCH 44 46
ENDBRANCH 1 42
TORSDOF 23
ENDMDL
MODEL 12
USER: ADFR SOLUTION from run 85
USER: SCORE 14.834046 LL:  -2.881 LR: -15.085 RR:   0.000 FEB:  -8.224
USER: RMSD 4.012589
USER: SEED 84
USER: STATUS no improvement in best in 23 clusters for 5 generations
USER: GENES 25
USER: genes 0 Translation |==|  0.46782 0.59505 0.47587
USER: genes 1 Rotation |==|  0.51340 0.49445 0.50535 0.99976
USER: genes 2 Torsion [C]-CA--CB-[CG] |==|  0.36677
USER: genes 3 Torsion [CA]-CB--CG-[CD] |==|  0.02261
USER: genes 4 Torsion [CB]-CG--CD-[NE] |==|  0.29395
USER: genes 5 Torsion [CG]-CD--NE-[HE] |==|  0.01821
USER: genes 6 Torsion [N]-CA--C-[N] |==|  0.65479
USER: genes 7 Torsion [C]-N--CA-[C] |==|  0.56527
USER: genes 8 Torsion [N]-CA--C-[N] |==|  0.44097
USER: genes 9 Torsion [C]-N--CA-[CB] |==|  0.44797
USER: genes 10 Torsion [N]-CA--CB-[CG] |==|  0.81021
USER: genes 11 Torsion [CA]-CB--CG-[CD] |==|  0.68244
USER: genes 12 Torsion [CB]-CG--CD-[CE] |==|  0.48645
USER: genes 13 Torsion [CG]-CD--CE-[NZ] |==|  0.55522
USER: genes 14 Torsion [CD]-CE--NZ-[HZ2] |==|  0.17404
USER: genes 15 Torsion [N]-CA--C-[N] |==|  0.92572
USER: genes 16 Torsion [C]-N--CA-[C] |==|  0.66940
USER: genes 17 Torsion [N]-CA--C-[O] |==|  0.86065
USER: genes 18 Torsion [N]-CA--CB-[OG] |==|  0.48590
USER: genes 19 Torsion [CA]-CB--OG-[HG] |==|  0.58492
USER: genes 20 Torsion [CB]-CA--N-[C] |==|  0.33290
USER: genes 21 Torsion [N]-C--CA-[N] |==|  0.43892
USER: genes 22 Torsion [C]-CA--CB-[CG] |==|  0.48986
USER: genes 23 Torsion [CA]-CB--CG-[CD1] |==|  0.88575
USER: genes 24 Torsion [C]-CA--N-[H2] |==|  0.78332
ROOT
ATOM      1  CA  ARG D   2     -12.264  -0.880  11.448  1.00 39.33 LIG 0.18  C 
ENDROOT
BRANCH 1 2
ATOM      2  CB  ARG D   2     -13.453  -0.513  10.579  1.00 35.05 LIG 0.04  C 
BRANCH 2 3
ATOM      3  CG  ARG D   2     -14.341   0.513  11.229  1.00 57.88 LIG 0.02  C 
BRANCH 3 4
ATOM      4  CD  ARG D   2     -13.718   1.065  12.497  1.00 90.52 LIG 0.14  C 
BRANCH 4 5
ATOM      5  NE  ARG D   2     -13.208   2.423  12.312  1.00 84.14 LIG-0.23  N 
ATOM      6 HE   ARG D   2     -13.374   2.814  11.564  1.00 84.14 LIG 0.18  HD
ATOM      7  CZ  ARG D   2     -12.505   3.098  13.220  1.00 83.97 LIG 0.67  C 
ATOM      8  NH2 ARG D   2     -12.091   4.331  12.952  1.00 60.39 LIG-0.23  N 
ATOM      9  NH1 ARG D   2     -12.205   2.544  14.391  1.00 80.72 LIG-0.23  N 
ATOM     10 1HH2 ARG D   2     -12.278   4.692  12.193  1.00 60.39 LIG 0.17  HD
ATOM     11 2HH2 ARG D   2     -11.637   4.769  13.536  1.00 60.39 LIG 0.17  HD
ATOM     12 2HH1 ARG D   2     -11.752   2.986  14.972  1.00 80.72 LIG 0.17  HD
ATOM     13 1HH1 ARG D   2     -12.466   1.744  14.566  1.00 80.72 LIG 0.17  HD
ENDBRANCH 4 5
ENDBRANCH 3 4
ENDBRANCH 2 3
ENDBRANCH 1 2
BRANCH 1 14
ATOM     14  C   ARG D   2     -12.131  -2.387  11.517  1.00 29.38 LIG 0.24  C 
ATOM     15 O    ARG D   2     -11.189  -2.909  12.109  1.00 21.44 LIG-0.27  OA
ATOM     16  N   SER D   3     -13.074  -3.094  10.913  1.00 29.93 LIG-0.34  N 
ATOM     17 H    SER D   3     -13.776  -2.764  10.541  1.00 29.93 LIG 0.16  HD
BRANCH 16 18
ATOM     18  CA  SER D   3     -12.958  -4.544  10.847  1.00 48.61 LIG 0.20  C 
BRANCH 18 19
ATOM     19  C   SER D   3     -13.771  -5.058   9.676  1.00 58.83 LIG 0.24  C 
ATOM     20  N   LYS D   4     -13.438  -6.258   9.213  1.00 77.18 LIG-0.35  N 
ATOM     21 H    LYS D   4     -12.771  -6.720   9.501  1.00 77.18 LIG 0.16  HD
ATOM     22 O    SER D   3     -14.668  -4.374   9.185  1.00 53.61 LIG-0.27  OA
BRANCH 20 23
ATOM     23  CA  LYS D   4     -14.204  -6.893   8.151  1.00 70.35 LIG 0.18  C 
BRANCH 23 24
ATOM     24  CB  LYS D   4     -13.390  -8.006   7.486  1.00 80.12 LIG 0.04  C 
BRANCH 24 25
ATOM     25  CG  LYS D   4     -12.200  -7.492   6.687  1.00 84.36 LIG 0.00  C 
BRANCH 25 26
ATOM     26  CD  LYS D   4     -12.341  -7.752   5.200  1.00102.13 LIG 0.03  C 
BRANCH 26 27
ATOM     27  CE  LYS D   4     -11.190  -7.117   4.431  1.00 86.00 LIG 0.23  C 
BRANCH 27 28
ATOM     28  NZ  LYS D   4     -11.513  -6.930   2.990  1.00 85.97 LIG-0.08  N 
ATOM     29 HZ3  LYS D   4     -10.805  -6.593   2.568  1.00 85.97 LIG 0.27  HD
ATOM     30 HZ2  LYS D   4     -12.199  -6.370   2.910  1.00 85.97 LIG 0.27  HD
ATOM     31 HZ1  LYS D   4     -11.728  -7.715   2.630  1.00 85.97 LIG 0.27  HD
ENDBRANCH 27 28
ENDBRANCH 26 27
ENDBRANCH 25 26
ENDBRANCH 24 25
ENDBRANCH 23 24
BRANCH 23 32
ATOM     32  C   LYS D   4     -15.478  -7.449   8.767  1.00 69.25 LIG 0.24  C 
ATOM     33 O    LYS D   4     -16.503  -7.575   8.097  1.00 74.50 LIG-0.27  OA
ATOM     34  N   GLY D   5     -15.405  -7.761  10.058  1.00 72.69 LIG-0.35  N 
ATOM     35 H    GLY D   5     -14.684  -7.706  10.522  1.00 72.69 LIG 0.16  HD
BRANCH 34 36
ATOM     36  CA  GLY D   5     -16.558  -8.230  10.804  1.00 67.28 LIG 0.21  C 
BRANCH 36 37
ATOM     37  C   GLY D   5     -16.901  -7.301  11.952  1.00 69.64 LIG 0.21  C 
ATOM     38 O    GLY D   5     -16.035  -6.937  12.750  1.00 73.82 LIG-0.29  OA
ENDBRANCH 36 37
ENDBRANCH 34 36
ENDBRANCH 23 32
ENDBRANCH 20 23
ENDBRANCH 18 19
BRANCH 18 39
ATOM     39  CB  SER D   3     -13.440  -5.175  12.142  1.00 47.59 LIG 0.20  C 
BRANCH 39 40
ATOM     40 OG   SER D   3     -13.434  -6.584  12.028  1.00 55.88 LIG-0.40  OA
ATOM     41 HG   SER D   3     -14.043  -6.908  12.508  1.00 55.88 LIG 0.21  HD
ENDBRANCH 39 40
ENDBRANCH 18 39
ENDBRANCH 16 18
ENDBRANCH 1 14
BRANCH 1 42
ATOM     42  N   ARG D   2     -11.062  -0.310  10.885  1.00 24.62 LIG-0.35  N 
ATOM     43 H    ARG D   2     -10.877  -0.575  10.088  1.00 24.62 LIG 0.16  HD
ATOM     44  C   PHE D   1     -10.335   0.548  11.573  1.00 23.06 LIG 0.25  C 
ATOM     45 O    PHE D   1     -10.621   0.905  12.712  1.00 27.40 LIG-0.27  OA
BRANCH 44 46
ATOM     46  CA  PHE D   1      -9.152   1.165  10.839  1.00 18.76 LIG 0.28  C 
BRANCH 46 47
ATOM     47  CB  PHE D   1      -7.943   0.238  10.732  1.00 12.58 LIG 0.08  C 
BRANCH 47 48
ATOM     48  CG  PHE D   1      -6.813   0.838   9.924  1.00 17.06 LIG-0.06  A 
ATOM     49  CD1 PHE D   1      -7.076   1.546   8.755  1.00 22.27 LIG 0.01  A 
ATOM     50  CE1 PHE D   1      -6.036   2.122   8.013  1.00 15.67 LIG 0.00  A 
ATOM     51  CZ  PHE D   1      -4.718   1.981   8.442  1.00 13.83 LIG 0.00  A 
ATOM     52  CE2 PHE D   1      -4.449   1.287   9.608  1.00 20.38 LIG 0.00  A 
ATOM     53  CD2 PHE D   1      -5.492   0.722  10.349  1.00 21.07 LIG 0.01  A 
ENDBRANCH 47 48
ENDBRANCH 46 47
BRANCH 46 54
ATOM     54  N   PHE D   1      -8.770   2.439  11.494  1.00 21.45 LIG-0.07  N 
ATOM     55 H2   PHE D   1      -9.338   3.080  11.251  1.00 21.45 LIG 0.28  HD
ATOM     56 H3   PHE D   1      -8.797   2.338  12.378  1.00 21.45 LIG 0.28  HD
ATOM     57 H1   PHE D   1      -7.945   2.664  11.246  1.00 21.45 LIG 0.28  HD
ENDBRANCH 46 54
ENDBRANCH 44 46
ENDBRANCH 1 42
TORSDOF 23
ENDMDL
MODEL 13
USER: ADFR SOLUTION from run 166
USER: SCORE 17.572507 LL:  -3.425 LR: -15.010 RR:   0.000 FEB:  -8.149
USER: RMSD 3.505044
USER: SEED 165
USER: STATUS searching
USER: GENES 25
USER: genes 0 Translation |==|  0.46061 0.62762 0.45099
USER: genes 1 Rotation |==|  0.38979 0.39925 0.56852 0.97224
USER: genes 2 Torsion [C]-CA--CB-[CG] |==|  0.16474
USER: genes 3 Torsion [CA]-CB--CG-[CD] |==|  0.27472
USER: genes 4 Torsion [CB]-CG--CD-[NE] |==|  0.89197
USER: genes 5 Torsion [CG]-CD--NE-[HE] |==|  0.23629
USER: genes 6 Torsion [N]-CA--C-[N] |==|  0.39050
USER: genes 7 Torsion [C]-N--CA-[C] |==|  0.83928
USER: genes 8 Torsion [N]-CA--C-[N] |==|  0.35046
USER: genes 9 Torsion [C]-N--CA-[CB] |==|  0.18785
USER: genes 10 Torsion [N]-CA--CB-[CG] |==|  0.71607
USER: genes 11 Torsion [CA]-CB--CG-[CD] |==|  0.72493
USER: genes 12 Torsion [CB]-CG--CD-[CE] |==|  0.99385
USER: genes 13 Torsion [CG]-CD--CE-[NZ] |==|  0.27380
USER: genes 14 Torsion [CD]-CE--NZ-[HZ2] |==|  0.05110
USER: genes 15 Torsion [N]-CA--C-[N] |==|  0.02971
USER: genes 16 Torsion [C]-N--CA-[C] |==|  0.31715
USER: genes 17 Torsion [N]-CA--C-[O] |==|  0.76376
USER: genes 18 Torsion [N]-CA--CB-[OG] |==|  0.09832
USER: genes 19 Torsion [CA]-CB--OG-[HG] |==|  0.10391
USER: genes 20 Torsion [CB]-CA--N-[C] |==|  0.51668
USER: genes 21 Torsion [N]-C--CA-[N] |==|  0.35169
USER: genes 22 Torsion [C]-CA--CB-[CG] |==|  0.42683
USER: genes 23 Torsion [CA]-CB--CG-[CD1] |==|  0.93565
USER: genes 24 Torsion [C]-CA--N-[H2] |==|  0.81507
ROOT
ATOM      1  CA  ARG D   2     -12.421  -0.221  10.944  1.00 39.33 LIG 0.18  C 
ENDROOT
BRANCH 1 2
ATOM      2  CB  ARG D   2     -13.158  -0.650   9.688  1.00 35.05 LIG 0.04  C 
BRANCH 2 3
ATOM      3  CG  ARG D   2     -14.463  -1.331   9.997  1.00 57.88 LIG 0.02  C 
BRANCH 3 4
ATOM      4  CD  ARG D   2     -15.635  -0.378   9.859  1.00 90.52 LIG 0.14  C 
BRANCH 4 5
ATOM      5  NE  ARG D   2     -15.317   0.960  10.357  1.00 84.14 LIG-0.23  N 
ATOM      6 HE   ARG D   2     -14.926   1.505   9.818  1.00 84.14 LIG 0.18  HD
ATOM      7  CZ  ARG D   2     -15.590   1.395  11.586  1.00 83.97 LIG 0.67  C 
ATOM      8  NH2 ARG D   2     -15.261   2.633  11.936  1.00 60.39 LIG-0.23  N 
ATOM      9  NH1 ARG D   2     -16.181   0.597  12.470  1.00 80.72 LIG-0.23  N 
ATOM     10 1HH2 ARG D   2     -14.872   3.151  11.370  1.00 60.39 LIG 0.17  HD
ATOM     11 2HH2 ARG D   2     -15.435   2.916  12.729  1.00 60.39 LIG 0.17  HD
ATOM     12 2HH1 ARG D   2     -16.354   0.885  13.261  1.00 80.72 LIG 0.17  HD
ATOM     13 1HH1 ARG D   2     -16.390  -0.207  12.250  1.00 80.72 LIG 0.17  HD
ENDBRANCH 4 5
ENDBRANCH 3 4
ENDBRANCH 2 3
ENDBRANCH 1 2
BRANCH 1 14
ATOM     14  C   ARG D   2     -12.139  -1.432  11.807  1.00 29.38 LIG 0.24  C 
ATOM     15 O    ARG D   2     -11.187  -2.171  11.564  1.00 21.44 LIG-0.27  OA
ATOM     16  N   SER D   3     -12.966  -1.644  12.821  1.00 29.93 LIG-0.34  N 
ATOM     17 H    SER D   3     -13.605  -1.118  13.054  1.00 29.93 LIG 0.16  HD
BRANCH 16 18
ATOM     18  CA  SER D   3     -12.821  -2.846  13.630  1.00 48.61 LIG 0.20  C 
BRANCH 18 19
ATOM     19  C   SER D   3     -12.938  -4.067  12.739  1.00 58.83 LIG 0.24  C 
ATOM     20  N   LYS D   4     -11.939  -4.940  12.806  1.00 77.18 LIG-0.35  N 
ATOM     21 H    LYS D   4     -11.227  -4.825  13.276  1.00 77.18 LIG 0.16  HD
ATOM     22 O    SER D   3     -13.903  -4.206  11.988  1.00 53.61 LIG-0.27  OA
BRANCH 20 23
ATOM     23  CA  LYS D   4     -11.984  -6.191  12.065  1.00 70.35 LIG 0.18  C 
BRANCH 23 24
ATOM     24  CB  LYS D   4     -11.904  -5.934  10.558  1.00 80.12 LIG 0.04  C 
BRANCH 24 25
ATOM     25  CG  LYS D   4     -13.250  -6.040   9.854  1.00 84.36 LIG 0.00  C 
BRANCH 25 26
ATOM     26  CD  LYS D   4     -13.448  -7.380   9.174  1.00102.13 LIG 0.03  C 
BRANCH 26 27
ATOM     27  CE  LYS D   4     -12.210  -8.254   9.334  1.00 86.00 LIG 0.23  C 
BRANCH 27 28
ATOM     28  NZ  LYS D   4     -12.355  -9.236  10.443  1.00 85.97 LIG-0.08  N 
ATOM     29 HZ3  LYS D   4     -12.024 -10.022  10.188  1.00 85.97 LIG 0.27  HD
ATOM     30 HZ2  LYS D   4     -13.216  -9.329  10.646  1.00 85.97 LIG 0.27  HD
ATOM     31 HZ1  LYS D   4     -11.912  -8.944  11.158  1.00 85.97 LIG 0.27  HD
ENDBRANCH 27 28
ENDBRANCH 26 27
ENDBRANCH 25 26
ENDBRANCH 24 25
ENDBRANCH 23 24
BRANCH 23 32
ATOM     32  C   LYS D   4     -10.816  -7.047  12.530  1.00 69.25 LIG 0.24  C 
ATOM     33 O    LYS D   4     -10.516  -8.084  11.938  1.00 74.50 LIG-0.27  OA
ATOM     34  N   GLY D   5     -10.175  -6.609  13.609  1.00 72.69 LIG-0.35  N 
ATOM     35 H    GLY D   5     -10.359  -5.869  14.007  1.00 72.69 LIG 0.16  HD
BRANCH 34 36
ATOM     36  CA  GLY D   5      -9.089  -7.356  14.217  1.00 67.28 LIG 0.21  C 
BRANCH 36 37
ATOM     37  C   GLY D   5      -7.768  -6.622  14.104  1.00 69.64 LIG 0.21  C 
ATOM     38 O    GLY D   5      -7.073  -6.725  13.092  1.00 73.82 LIG-0.29  OA
ENDBRANCH 36 37
ENDBRANCH 34 36
ENDBRANCH 23 32
ENDBRANCH 20 23
ENDBRANCH 18 19
BRANCH 18 39
ATOM     39  CB  SER D   3     -13.879  -2.884  14.719  1.00 47.59 LIG 0.20  C 
BRANCH 39 40
ATOM     40 OG   SER D   3     -15.089  -2.330  14.242  1.00 55.88 LIG-0.40  OA
ATOM     41 HG   SER D   3     -15.199  -2.547  13.438  1.00 55.88 LIG 0.21  HD
ENDBRANCH 39 40
ENDBRANCH 18 39
ENDBRANCH 16 18
ENDBRANCH 1 14
BRANCH 1 42
ATOM     42  N   ARG D   2     -11.178   0.417  10.578  1.00 24.62 LIG-0.35  N 
ATOM     43 H    ARG D   2     -11.069   0.537   9.733  1.00 24.62 LIG 0.16  HD
ATOM     44  C   PHE D   1     -10.304   0.772  11.500  1.00 23.06 LIG 0.25  C 
ATOM     45 O    PHE D   1     -10.482   0.583  12.699  1.00 27.40 LIG-0.27  OA
BRANCH 44 46
ATOM     46  CA  PHE D   1      -9.080   1.532  11.005  1.00 18.76 LIG 0.28  C 
BRANCH 46 47
ATOM     47  CB  PHE D   1      -7.785   0.725  11.071  1.00 12.58 LIG 0.08  C 
BRANCH 47 48
ATOM     48  CG  PHE D   1      -6.759   1.177  10.056  1.00 17.06 LIG-0.06  A 
ATOM     49  CD1 PHE D   1      -7.150   1.854   8.905  1.00 22.27 LIG 0.01  A 
ATOM     50  CE1 PHE D   1      -6.203   2.295   7.971  1.00 15.67 LIG 0.00  A 
ATOM     51  CZ  PHE D   1      -4.849   2.048   8.189  1.00 13.83 LIG 0.00  A 
ATOM     52  CE2 PHE D   1      -4.450   1.386   9.335  1.00 20.38 LIG 0.00  A 
ATOM     53  CD2 PHE D   1      -5.400   0.956  10.268  1.00 21.07 LIG 0.01  A 
ENDBRANCH 47 48
ENDBRANCH 46 47
BRANCH 46 54
ATOM     54  N   PHE D   1      -8.939   2.796  11.767  1.00 21.45 LIG-0.07  N 
ATOM     55 H2   PHE D   1      -9.620   3.337  11.574  1.00 21.45 LIG 0.28  HD
ATOM     56 H3   PHE D   1      -8.939   2.619  12.639  1.00 21.45 LIG 0.28  HD
ATOM     57 H1   PHE D   1      -8.174   3.193  11.545  1.00 21.45 LIG 0.28  HD
ENDBRANCH 46 54
ENDBRANCH 44 46
ENDBRANCH 1 42
TORSDOF 23
ENDMDL
MODEL 14
USER: ADFR SOLUTION from run 190
USER: SCORE 16.144613 LL:  -3.484 LR: -14.934 RR:   0.000 FEB:  -8.073
USER: RMSD 3.648347
USER: SEED 189
USER: STATUS no improvement in best in 12 clusters for 5 generations
USER: GENES 25
USER: genes 0 Translation |==|  0.45976 0.60350 0.46964
USER: genes 1 Rotation |==|  0.62602 0.51897 0.45840 0.98169
USER: genes 2 Torsion [C]-CA--CB-[CG] |==|  0.17242
USER: genes 3 Torsion [CA]-CB--CG-[CD] |==|  0.35986
USER: genes 4 Torsion [CB]-CG--CD-[NE] |==|  0.07461
USER: genes 5 Torsion [CG]-CD--NE-[HE] |==|  0.93979
USER: genes 6 Torsion [N]-CA--C-[N] |==|  0.24253
USER: genes 7 Torsion [C]-N--CA-[C] |==|  0.81170
USER: genes 8 Torsion [N]-CA--C-[N] |==|  0.40871
USER: genes 9 Torsion [C]-N--CA-[CB] |==|  0.36697
USER: genes 10 Torsion [N]-CA--CB-[CG] |==|  0.95778
USER: genes 11 Torsion [CA]-CB--CG-[CD] |==|  0.79771
USER: genes 12 Torsion [CB]-CG--CD-[CE] |==|  0.61020
USER: genes 13 Torsion [CG]-CD--CE-[NZ] |==|  0.65523
USER: genes 14 Torsion [CD]-CE--NZ-[HZ2] |==|  0.01334
USER: genes 15 Torsion [N]-CA--C-[N] |==|  0.91619
USER: genes 16 Torsion [C]-N--CA-[C] |==|  0.67672
USER: genes 17 Torsion [N]-CA--C-[O] |==|  0.92229
USER: genes 18 Torsion [N]-CA--CB-[OG] |==|  0.61971
USER: genes 19 Torsion [CA]-CB--OG-[HG] |==|  0.70404
USER: genes 20 Torsion [CB]-CA--N-[C] |==|  0.19958
USER: genes 21 Torsion [N]-C--CA-[N] |==|  0.51787
USER: genes 22 Torsion [C]-CA--CB-[CG] |==|  0.47268
USER: genes 23 Torsion [CA]-CB--CG-[CD1] |==|  0.84863
USER: genes 24 Torsion [C]-CA--N-[H2] |==|  0.45357
ROOT
ATOM      1  CA  ARG D   2     -12.439  -0.709  11.322  1.00 39.33 LIG 0.18  C 
ENDROOT
BRANCH 1 2
ATOM      2  CB  ARG D   2     -13.585   0.182  10.876  1.00 35.05 LIG 0.04  C 
BRANCH 2 3
ATOM      3  CG  ARG D   2     -14.921  -0.329  11.344  1.00 57.88 LIG 0.02  C 
BRANCH 3 4
ATOM      4  CD  ARG D   2     -15.724   0.759  12.031  1.00 90.52 LIG 0.14  C 
BRANCH 4 5
ATOM      5  NE  ARG D   2     -15.361   2.093  11.555  1.00 84.14 LIG-0.23  N 
ATOM      6 HE   ARG D   2     -14.590   2.191  11.186  1.00 84.14 LIG 0.18  HD
ATOM      7  CZ  ARG D   2     -16.141   3.169  11.651  1.00 83.97 LIG 0.67  C 
ATOM      8  NH2 ARG D   2     -15.716   4.336  11.182  1.00 60.39 LIG-0.23  N 
ATOM      9  NH1 ARG D   2     -17.338   3.087  12.223  1.00 80.72 LIG-0.23  N 
ATOM     10 1HH2 ARG D   2     -14.939   4.396  10.817  1.00 60.39 LIG 0.17  HD
ATOM     11 2HH2 ARG D   2     -16.217   5.033  11.243  1.00 60.39 LIG 0.17  HD
ATOM     12 2HH1 ARG D   2     -17.836   3.785  12.281  1.00 80.72 LIG 0.17  HD
ATOM     13 1HH1 ARG D   2     -17.615   2.335  12.533  1.00 80.72 LIG 0.17  HD
ENDBRANCH 4 5
ENDBRANCH 3 4
ENDBRANCH 2 3
ENDBRANCH 1 2
BRANCH 1 14
ATOM     14  C   ARG D   2     -12.603  -2.087  10.718  1.00 29.38 LIG 0.24  C 
ATOM     15 O    ARG D   2     -13.197  -2.241   9.653  1.00 21.44 LIG-0.27  OA
ATOM     16  N   SER D   3     -12.077  -3.098  11.394  1.00 29.93 LIG-0.34  N 
ATOM     17 H    SER D   3     -11.606  -3.021  12.109  1.00 29.93 LIG 0.16  HD
BRANCH 16 18
ATOM     18  CA  SER D   3     -12.285  -4.462  10.929  1.00 48.61 LIG 0.20  C 
BRANCH 18 19
ATOM     19  C   SER D   3     -13.748  -4.827  11.086  1.00 58.83 LIG 0.24  C 
ATOM     20  N   LYS D   4     -14.246  -5.656  10.176  1.00 77.18 LIG-0.35  N 
ATOM     21 H    LYS D   4     -13.809  -5.945   9.494  1.00 77.18 LIG 0.16  HD
ATOM     22 O    SER D   3     -14.420  -4.350  12.001  1.00 53.61 LIG-0.27  OA
BRANCH 20 23
ATOM     23  CA  LYS D   4     -15.613  -6.147  10.276  1.00 70.35 LIG 0.18  C 
BRANCH 23 24
ATOM     24  CB  LYS D   4     -16.340  -6.006   8.936  1.00 80.12 LIG 0.04  C 
BRANCH 24 25
ATOM     25  CG  LYS D   4     -15.630  -5.081   7.957  1.00 84.36 LIG 0.00  C 
BRANCH 25 26
ATOM     26  CD  LYS D   4     -15.749  -3.620   8.345  1.00102.13 LIG 0.03  C 
BRANCH 26 27
ATOM     27  CE  LYS D   4     -15.965  -2.751   7.112  1.00 86.00 LIG 0.23  C 
BRANCH 27 28
ATOM     28  NZ  LYS D   4     -14.939  -1.680   6.994  1.00 85.97 LIG-0.08  N 
ATOM     29 HZ3  LYS D   4     -14.543  -1.735   6.198  1.00 85.97 LIG 0.27  HD
ATOM     30 HZ2  LYS D   4     -14.331  -1.779   7.635  1.00 85.97 LIG 0.27  HD
ATOM     31 HZ1  LYS D   4     -15.330  -0.884   7.076  1.00 85.97 LIG 0.27  HD
ENDBRANCH 27 28
ENDBRANCH 26 27
ENDBRANCH 25 26
ENDBRANCH 24 25
ENDBRANCH 23 24
BRANCH 23 32
ATOM     32  C   LYS D   4     -15.551  -7.604  10.706  1.00 69.25 LIG 0.24  C 
ATOM     33 O    LYS D   4     -16.445  -8.101  11.391  1.00 74.50 LIG-0.27  OA
ATOM     34  N   GLY D   5     -14.474  -8.277  10.311  1.00 72.69 LIG-0.35  N 
ATOM     35 H    GLY D   5     -13.863  -7.945   9.805  1.00 72.69 LIG 0.16  HD
BRANCH 34 36
ATOM     36  CA  GLY D   5     -14.235  -9.652  10.707  1.00 67.28 LIG 0.21  C 
BRANCH 36 37
ATOM     37  C   GLY D   5     -12.985  -9.785  11.553  1.00 69.64 LIG 0.21  C 
ATOM     38 O    GLY D   5     -12.051  -8.991  11.429  1.00 73.82 LIG-0.29  OA
ENDBRANCH 36 37
ENDBRANCH 34 36
ENDBRANCH 23 32
ENDBRANCH 20 23
ENDBRANCH 18 19
BRANCH 18 39
ATOM     39  CB  SER D   3     -11.413  -5.429  11.711  1.00 47.59 LIG 0.20  C 
BRANCH 39 40
ATOM     40 OG   SER D   3     -10.825  -6.371  10.835  1.00 55.88 LIG-0.40  OA
ATOM     41 HG   SER D   3     -11.201  -7.116  10.932  1.00 55.88 LIG 0.21  HD
ENDBRANCH 39 40
ENDBRANCH 18 39
ENDBRANCH 16 18
ENDBRANCH 1 14
BRANCH 1 42
ATOM     42  N   ARG D   2     -11.187  -0.133  10.892  1.00 24.62 LIG-0.35  N 
ATOM     43 H    ARG D   2     -10.799  -0.553  10.248  1.00 24.62 LIG 0.16  HD
ATOM     44  C   PHE D   1     -10.709   0.953  11.467  1.00 23.06 LIG 0.25  C 
ATOM     45 O    PHE D   1     -11.280   1.528  12.389  1.00 27.40 LIG-0.27  OA
BRANCH 44 46
ATOM     46  CA  PHE D   1      -9.437   1.530  10.859  1.00 18.76 LIG 0.28  C 
BRANCH 46 47
ATOM     47  CB  PHE D   1      -8.333   0.497  10.645  1.00 12.58 LIG 0.08  C 
BRANCH 47 48
ATOM     48  CG  PHE D   1      -7.177   1.033   9.830  1.00 17.06 LIG-0.06  A 
ATOM     49  CD1 PHE D   1      -7.395   1.600   8.578  1.00 22.27 LIG 0.01  A 
ATOM     50  CE1 PHE D   1      -6.331   2.118   7.827  1.00 15.67 LIG 0.00  A 
ATOM     51  CZ  PHE D   1      -5.034   2.061   8.332  1.00 13.83 LIG 0.00  A 
ATOM     52  CE2 PHE D   1      -4.810   1.509   9.580  1.00 20.38 LIG 0.00  A 
ATOM     53  CD2 PHE D   1      -5.877   1.002  10.329  1.00 21.07 LIG 0.01  A 
ENDBRANCH 47 48
ENDBRANCH 46 47
BRANCH 46 54
ATOM     54  N   PHE D   1      -8.945   2.645  11.703  1.00 21.45 LIG-0.07  N 
ATOM     55 H2   PHE D   1      -8.097   2.820  11.497  1.00 21.45 LIG 0.28  HD
ATOM     56 H3   PHE D   1      -9.441   3.369  11.558  1.00 21.45 LIG 0.28  HD
ATOM     57 H1   PHE D   1      -9.000   2.414  12.561  1.00 21.45 LIG 0.28  HD
ENDBRANCH 46 54
ENDBRANCH 44 46
ENDBRANCH 1 42
TORSDOF 23
ENDMDL
MODEL 15
USER: ADFR SOLUTION from run 119
USER: SCORE 16.232548 LL:  -2.605 LR: -14.874 RR:   0.000 FEB:  -8.013
USER: RMSD 3.469749
USER: SEED 118
USER: STATUS no improvement in best in 37 clusters for 5 generations
USER: GENES 25
USER: genes 0 Translation |==|  0.46821 0.62545 0.48401
USER: genes 1 Rotation |==|  0.45726 0.48952 0.53026 0.99714
USER: genes 2 Torsion [C]-CA--CB-[CG] |==|  0.34860
USER: genes 3 Torsion [CA]-CB--CG-[CD] |==|  0.99480
USER: genes 4 Torsion [CB]-CG--CD-[NE] |==|  0.26685
USER: genes 5 Torsion [CG]-CD--NE-[HE] |==|  0.13913
USER: genes 6 Torsion [N]-CA--C-[N] |==|  0.35592
USER: genes 7 Torsion [C]-N--CA-[C] |==|  0.83071
USER: genes 8 Torsion [N]-CA--C-[N] |==|  0.88681
USER: genes 9 Torsion [C]-N--CA-[CB] |==|  0.87041
USER: genes 10 Torsion [N]-CA--CB-[CG] |==|  0.84575
USER: genes 11 Torsion [CA]-CB--CG-[CD] |==|  0.68738
USER: genes 12 Torsion [CB]-CG--CD-[CE] |==|  0.35579
USER: genes 13 Torsion [CG]-CD--CE-[NZ] |==|  0.42160
USER: genes 14 Torsion [CD]-CE--NZ-[HZ2] |==|  0.82606
USER: genes 15 Torsion [N]-CA--C-[N] |==|  0.33585
USER: genes 16 Torsion [C]-N--CA-[C] |==|  0.24279
USER: genes 17 Torsion [N]-CA--C-[O] |==|  0.00859
USER: genes 18 Torsion [N]-CA--CB-[OG] |==|  0.00695
USER: genes 19 Torsion [CA]-CB--OG-[HG] |==|  0.59734
USER: genes 20 Torsion [CB]-CA--N-[C] |==|  0.48927
USER: genes 21 Torsion [N]-C--CA-[N] |==|  0.30691
USER: genes 22 Torsion [C]-CA--CB-[CG] |==|  0.47870
USER: genes 23 Torsion [CA]-CB--CG-[CD1] |==|  0.91818
USER: genes 24 Torsion [C]-CA--N-[H2] |==|  0.79956
ROOT
ATOM      1  CA  ARG D   2     -12.255  -0.265  11.613  1.00 39.33 LIG 0.18  C 
ENDROOT
BRANCH 1 2
ATOM      2  CB  ARG D   2     -13.442  -0.219  10.667  1.00 35.05 LIG 0.04  C 
BRANCH 2 3
ATOM      3  CG  ARG D   2     -14.516   0.720  11.143  1.00 57.88 LIG 0.02  C 
BRANCH 3 4
ATOM      4  CD  ARG D   2     -14.156   1.350  12.475  1.00 90.52 LIG 0.14  C 
BRANCH 4 5
ATOM      5  NE  ARG D   2     -13.544   2.668  12.312  1.00 84.14 LIG-0.23  N 
ATOM      6 HE   ARG D   2     -13.948   3.237  11.808  1.00 84.14 LIG 0.18  HD
ATOM      7  CZ  ARG D   2     -12.407   3.051  12.890  1.00 83.97 LIG 0.67  C 
ATOM      8  NH2 ARG D   2     -11.939   4.276  12.678  1.00 60.39 LIG-0.23  N 
ATOM      9  NH1 ARG D   2     -11.730   2.215  13.670  1.00 80.72 LIG-0.23  N 
ATOM     10 1HH2 ARG D   2     -12.371   4.819  12.169  1.00 60.39 LIG 0.17  HD
ATOM     11 2HH2 ARG D   2     -11.205   4.526  13.049  1.00 60.39 LIG 0.17  HD
ATOM     12 2HH1 ARG D   2     -10.996   2.469  14.039  1.00 80.72 LIG 0.17  HD
ATOM     13 1HH1 ARG D   2     -12.025   1.419  13.805  1.00 80.72 LIG 0.17  HD
ENDBRANCH 4 5
ENDBRANCH 3 4
ENDBRANCH 2 3
ENDBRANCH 1 2
BRANCH 1 14
ATOM     14  C   ARG D   2     -11.986  -1.697  12.020  1.00 29.38 LIG 0.24  C 
ATOM     15 O    ARG D   2     -11.566  -2.515  11.205  1.00 21.44 LIG-0.27  OA
ATOM     16  N   SER D   3     -12.224  -2.010  13.286  1.00 29.93 LIG-0.34  N 
ATOM     17 H    SER D   3     -12.462  -1.452  13.895  1.00 29.93 LIG 0.16  HD
BRANCH 16 18
ATOM     18  CA  SER D   3     -12.088  -3.391  13.725  1.00 48.61 LIG 0.20  C 
BRANCH 18 19
ATOM     19  C   SER D   3     -13.062  -4.260  12.954  1.00 58.83 LIG 0.24  C 
ATOM     20  N   LYS D   4     -14.271  -3.749  12.753  1.00 77.18 LIG-0.35  N 
ATOM     21 H    LYS D   4     -14.538  -2.996  13.073  1.00 77.18 LIG 0.16  HD
ATOM     22 O    SER D   3     -12.733  -5.381  12.567  1.00 53.61 LIG-0.27  OA
BRANCH 20 23
ATOM     23  CA  LYS D   4     -15.260  -4.452  11.949  1.00 70.35 LIG 0.18  C 
BRANCH 23 24
ATOM     24  CB  LYS D   4     -14.641  -4.957  10.644  1.00 80.12 LIG 0.04  C 
BRANCH 24 25
ATOM     25  CG  LYS D   4     -13.983  -3.857   9.821  1.00 84.36 LIG 0.00  C 
BRANCH 25 26
ATOM     26  CD  LYS D   4     -14.713  -3.586   8.521  1.00102.13 LIG 0.03  C 
BRANCH 26 27
ATOM     27  CE  LYS D   4     -15.021  -2.101   8.375  1.00 86.00 LIG 0.23  C 
BRANCH 27 28
ATOM     28  NZ  LYS D   4     -15.097  -1.681   6.949  1.00 85.97 LIG-0.08  N 
ATOM     29 HZ3  LYS D   4     -15.715  -2.166   6.530  1.00 85.97 LIG 0.27  HD
ATOM     30 HZ2  LYS D   4     -14.307  -1.807   6.560  1.00 85.97 LIG 0.27  HD
ATOM     31 HZ1  LYS D   4     -15.314  -0.819   6.905  1.00 85.97 LIG 0.27  HD
ENDBRANCH 27 28
ENDBRANCH 26 27
ENDBRANCH 25 26
ENDBRANCH 24 25
ENDBRANCH 23 24
BRANCH 23 32
ATOM     32  C   LYS D   4     -15.792  -5.610  12.778  1.00 69.25 LIG 0.24  C 
ATOM     33 O    LYS D   4     -15.040  -6.495  13.187  1.00 74.50 LIG-0.27  OA
ATOM     34  N   GLY D   5     -17.103  -5.603  13.004  1.00 72.69 LIG-0.35  N 
ATOM     35 H    GLY D   5     -17.628  -4.971  12.750  1.00 72.69 LIG 0.16  HD
BRANCH 34 36
ATOM     36  CA  GLY D   5     -17.769  -6.679  13.713  1.00 67.28 LIG 0.21  C 
BRANCH 36 37
ATOM     37  C   GLY D   5     -17.757  -6.457  15.213  1.00 69.64 LIG 0.21  C 
ATOM     38 O    GLY D   5     -17.276  -5.430  15.695  1.00 73.82 LIG-0.29  OA
ENDBRANCH 36 37
ENDBRANCH 34 36
ENDBRANCH 23 32
ENDBRANCH 20 23
ENDBRANCH 18 19
BRANCH 18 39
ATOM     39  CB  SER D   3     -12.349  -3.503  15.217  1.00 47.59 LIG 0.20  C 
BRANCH 39 40
ATOM     40 OG   SER D   3     -12.707  -2.240  15.744  1.00 55.88 LIG-0.40  OA
ATOM     41 HG   SER D   3     -12.399  -2.163  16.522  1.00 55.88 LIG 0.21  HD
ENDBRANCH 39 40
ENDBRANCH 18 39
ENDBRANCH 16 18
ENDBRANCH 1 14
BRANCH 1 42
ATOM     42  N   ARG D   2     -11.093   0.282  10.953  1.00 24.62 LIG-0.35  N 
ATOM     43 H    ARG D   2     -11.215   0.500  10.130  1.00 24.62 LIG 0.16  HD
ATOM     44  C   PHE D   1      -9.952   0.421  11.599  1.00 23.06 LIG 0.25  C 
ATOM     45 O    PHE D   1      -9.804   0.096  12.773  1.00 27.40 LIG-0.27  OA
BRANCH 44 46
ATOM     46  CA  PHE D   1      -8.828   1.107  10.834  1.00 18.76 LIG 0.28  C 
BRANCH 46 47
ATOM     47  CB  PHE D   1      -7.538   0.291  10.770  1.00 12.58 LIG 0.08  C 
BRANCH 47 48
ATOM     48  CG  PHE D   1      -6.501   0.903   9.856  1.00 17.06 LIG-0.06  A 
ATOM     49  CD1 PHE D   1      -6.885   1.665   8.756  1.00 22.27 LIG 0.01  A 
ATOM     50  CE1 PHE D   1      -5.929   2.252   7.918  1.00 15.67 LIG 0.00  A 
ATOM     51  CZ  PHE D   1      -4.572   2.069   8.178  1.00 13.83 LIG 0.00  A 
ATOM     52  CE2 PHE D   1      -4.181   1.322   9.274  1.00 20.38 LIG 0.00  A 
ATOM     53  CD2 PHE D   1      -5.141   0.745  10.113  1.00 21.07 LIG 0.01  A 
ENDBRANCH 47 48
ENDBRANCH 46 47
BRANCH 46 54
ATOM     54  N   PHE D   1      -8.565   2.440  11.427  1.00 21.45 LIG-0.07  N 
ATOM     55 H2   PHE D   1      -9.233   2.992  11.224  1.00 21.45 LIG 0.28  HD
ATOM     56 H3   PHE D   1      -8.501   2.364  12.312  1.00 21.45 LIG 0.28  HD
ATOM     57 H1   PHE D   1      -7.803   2.765  11.102  1.00 21.45 LIG 0.28  HD
ENDBRANCH 46 54
ENDBRANCH 44 46
ENDBRANCH 1 42
TORSDOF 23
ENDMDL
MODEL 16
USER: ADFR SOLUTION from run 155
USER: SCORE 15.619266 LL:  -2.571 LR: -14.867 RR:   0.000 FEB:  -8.007
USER: RMSD 4.743265
USER: SEED 154
USER: STATUS no improvement in best in 37 clusters for 5 generations
USER: GENES 25
USER: genes 0 Translation |==|  0.47274 0.61090 0.49410
USER: genes 1 Rotation |==|  0.64133 0.56650 0.41307 0.96696
USER: genes 2 Torsion [C]-CA--CB-[CG] |==|  0.35323
USER: genes 3 Torsion [CA]-CB--CG-[CD] |==|  0.40425
USER: genes 4 Torsion [CB]-CG--CD-[NE] |==|  0.82048
USER: genes 5 Torsion [CG]-CD--NE-[HE] |==|  0.25681
USER: genes 6 Torsion [N]-CA--C-[N] |==|  0.60929
USER: genes 7 Torsion [C]-N--CA-[C] |==|  0.12825
USER: genes 8 Torsion [N]-CA--C-[N] |==|  0.09769
USER: genes 9 Torsion [C]-N--CA-[CB] |==|  0.17296
USER: genes 10 Torsion [N]-CA--CB-[CG] |==|  0.53166
USER: genes 11 Torsion [CA]-CB--CG-[CD] |==|  0.64412
USER: genes 12 Torsion [CB]-CG--CD-[CE] |==|  0.19470
USER: genes 13 Torsion [CG]-CD--CE-[NZ] |==|  0.31292
USER: genes 14 Torsion [CD]-CE--NZ-[HZ2] |==|  0.67304
USER: genes 15 Torsion [N]-CA--C-[N] |==|  0.83835
USER: genes 16 Torsion [C]-N--CA-[C] |==|  0.67030
USER: genes 17 Torsion [N]-CA--C-[O] |==|  0.94447
USER: genes 18 Torsion [N]-CA--CB-[OG] |==|  0.88140
USER: genes 19 Torsion [CA]-CB--OG-[HG] |==|  0.42248
USER: genes 20 Torsion [CB]-CA--N-[C] |==|  0.20000
USER: genes 21 Torsion [N]-C--CA-[N] |==|  0.49889
USER: genes 22 Torsion [C]-CA--CB-[CG] |==|  0.52978
USER: genes 23 Torsion [CA]-CB--CG-[CD1] |==|  0.83168
USER: genes 24 Torsion [C]-CA--N-[H2] |==|  0.75889
ROOT
ATOM      1  CA  ARG D   2     -12.157  -0.559  11.818  1.00 39.33 LIG 0.18  C 
ENDROOT
BRANCH 1 2
ATOM      2  CB  ARG D   2     -13.234   0.505  11.707  1.00 35.05 LIG 0.04  C 
BRANCH 2 3
ATOM      3  CG  ARG D   2     -13.563   1.125  13.037  1.00 57.88 LIG 0.02  C 
BRANCH 3 4
ATOM      4  CD  ARG D   2     -13.911   2.595  12.897  1.00 90.52 LIG 0.14  C 
BRANCH 4 5
ATOM      5  NE  ARG D   2     -12.774   3.386  12.426  1.00 84.14 LIG-0.23  N 
ATOM      6 HE   ARG D   2     -12.697   3.510  11.579  1.00 84.14 LIG 0.18  HD
ATOM      7  CZ  ARG D   2     -11.851   3.930  13.218  1.00 83.97 LIG 0.67  C 
ATOM      8  NH2 ARG D   2     -10.859   4.635  12.687  1.00 60.39 LIG-0.23  N 
ATOM      9  NH1 ARG D   2     -11.908   3.764  14.535  1.00 80.72 LIG-0.23  N 
ATOM     10 1HH2 ARG D   2     -10.814   4.740  11.834  1.00 60.39 LIG 0.17  HD
ATOM     11 2HH2 ARG D   2     -10.262   4.987  13.195  1.00 60.39 LIG 0.17  HD
ATOM     12 2HH1 ARG D   2     -11.309   4.118  15.040  1.00 80.72 LIG 0.17  HD
ATOM     13 1HH1 ARG D   2     -12.545   3.303  14.883  1.00 80.72 LIG 0.17  HD
ENDBRANCH 4 5
ENDBRANCH 3 4
ENDBRANCH 2 3
ENDBRANCH 1 2
BRANCH 1 14
ATOM     14  C   ARG D   2     -12.643  -1.841  11.176  1.00 29.38 LIG 0.24  C 
ATOM     15 O    ARG D   2     -11.847  -2.704  10.812  1.00 21.44 LIG-0.27  OA
ATOM     16  N   SER D   3     -13.953  -1.974  11.034  1.00 29.93 LIG-0.34  N 
ATOM     17 H    SER D   3     -14.540  -1.419  11.329  1.00 29.93 LIG 0.16  HD
BRANCH 16 18
ATOM     18  CA  SER D   3     -14.488  -3.132  10.332  1.00 48.61 LIG 0.20  C 
BRANCH 18 19
ATOM     19  C   SER D   3     -13.795  -4.385  10.832  1.00 58.83 LIG 0.24  C 
ATOM     20  N   LYS D   4     -13.473  -4.402  12.120  1.00 77.18 LIG-0.35  N 
ATOM     21 H    LYS D   4     -13.586  -3.738  12.656  1.00 77.18 LIG 0.16  HD
ATOM     22 O    SER D   3     -13.537  -5.310  10.062  1.00 53.61 LIG-0.27  OA
BRANCH 20 23
ATOM     23  CA  LYS D   4     -12.885  -5.585  12.732  1.00 70.35 LIG 0.18  C 
BRANCH 23 24
ATOM     24  CB  LYS D   4     -11.535  -5.915  12.090  1.00 80.12 LIG 0.04  C 
BRANCH 24 25
ATOM     25  CG  LYS D   4     -10.996  -7.284  12.485  1.00 84.36 LIG 0.00  C 
BRANCH 25 26
ATOM     26  CD  LYS D   4      -9.573  -7.222  13.004  1.00102.13 LIG 0.03  C 
BRANCH 26 27
ATOM     27  CE  LYS D   4      -9.526  -6.542  14.366  1.00 86.00 LIG 0.23  C 
BRANCH 27 28
ATOM     28  NZ  LYS D   4      -9.140  -7.486  15.450  1.00 85.97 LIG-0.08  N 
ATOM     29 HZ3  LYS D   4      -8.970  -8.287  15.100  1.00 85.97 LIG 0.27  HD
ATOM     30 HZ2  LYS D   4      -9.806  -7.553  16.036  1.00 85.97 LIG 0.27  HD
ATOM     31 HZ1  LYS D   4      -8.412  -7.182  15.863  1.00 85.97 LIG 0.27  HD
ENDBRANCH 27 28
ENDBRANCH 26 27
ENDBRANCH 25 26
ENDBRANCH 24 25
ENDBRANCH 23 24
BRANCH 23 32
ATOM     32  C   LYS D   4     -12.724  -5.306  14.218  1.00 69.25 LIG 0.24  C 
ATOM     33 O    LYS D   4     -13.275  -6.017  15.059  1.00 74.50 LIG-0.27  OA
ATOM     34  N   GLY D   5     -11.977  -4.251  14.529  1.00 72.69 LIG-0.35  N 
ATOM     35 H    GLY D   5     -11.564  -3.770  13.947  1.00 72.69 LIG 0.16  HD
BRANCH 34 36
ATOM     36  CA  GLY D   5     -11.794  -3.813  15.900  1.00 67.28 LIG 0.21  C 
BRANCH 36 37
ATOM     37  C   GLY D   5     -12.319  -2.407  16.116  1.00 69.64 LIG 0.21  C 
ATOM     38 O    GLY D   5     -12.486  -1.642  15.165  1.00 73.82 LIG-0.29  OA
ENDBRANCH 36 37
ENDBRANCH 34 36
ENDBRANCH 23 32
ENDBRANCH 20 23
ENDBRANCH 18 19
BRANCH 18 39
ATOM     39  CB  SER D   3     -14.292  -2.983   8.833  1.00 47.59 LIG 0.20  C 
BRANCH 39 40
ATOM     40 OG   SER D   3     -14.599  -1.662   8.432  1.00 55.88 LIG-0.40  OA
ATOM     41 HG   SER D   3     -14.155  -1.468   7.745  1.00 55.88 LIG 0.21  HD
ENDBRANCH 39 40
ENDBRANCH 18 39
ENDBRANCH 16 18
ENDBRANCH 1 14
BRANCH 1 42
ATOM     42  N   ARG D   2     -10.960  -0.103  11.150  1.00 24.62 LIG-0.35  N 
ATOM     43 H    ARG D   2     -10.787  -0.501  10.408  1.00 24.62 LIG 0.16  HD
ATOM     44  C   PHE D   1     -10.217   0.852  11.674  1.00 23.06 LIG 0.25  C 
ATOM     45 O    PHE D   1     -10.484   1.399  12.740  1.00 27.40 LIG-0.27  OA
BRANCH 44 46
ATOM     46  CA  PHE D   1      -9.040   1.325  10.830  1.00 18.76 LIG 0.28  C 
BRANCH 46 47
ATOM     47  CB  PHE D   1      -8.078   0.207  10.435  1.00 12.58 LIG 0.08  C 
BRANCH 47 48
ATOM     48  CG  PHE D   1      -6.794   0.726   9.826  1.00 17.06 LIG-0.06  A 
ATOM     49  CD1 PHE D   1      -6.818   1.483   8.658  1.00 22.27 LIG 0.01  A 
ATOM     50  CE1 PHE D   1      -5.634   1.984   8.101  1.00 15.67 LIG 0.00  A 
ATOM     51  CZ  PHE D   1      -4.412   1.719   8.715  1.00 13.83 LIG 0.00  A 
ATOM     52  CE2 PHE D   1      -4.380   0.977   9.881  1.00 20.38 LIG 0.00  A 
ATOM     53  CD2 PHE D   1      -5.566   0.487  10.438  1.00 21.07 LIG 0.01  A 
ENDBRANCH 47 48
ENDBRANCH 46 47
BRANCH 46 54
ATOM     54  N   PHE D   1      -8.315   2.401  11.548  1.00 21.45 LIG-0.07  N 
ATOM     55 H2   PHE D   1      -8.691   3.186  11.363  1.00 21.45 LIG 0.28  HD
ATOM     56 H3   PHE D   1      -8.354   2.252  12.425  1.00 21.45 LIG 0.28  HD
ATOM     57 H1   PHE D   1      -7.464   2.411  11.287  1.00 21.45 LIG 0.28  HD
ENDBRANCH 46 54
ENDBRANCH 44 46
ENDBRANCH 1 42
TORSDOF 23
ENDMDL
MODEL 17
USER: ADFR SOLUTION from run 94
USER: SCORE 14.720392 LL:  -3.105 LR: -14.852 RR:   0.000 FEB:  -7.991
USER: RMSD 3.076077
USER: SEED 93
USER: STATUS no improvement in best in 20 clusters for 5 generations
USER: GENES 25
USER: genes 0 Translation |==|  0.46627 0.59687 0.46337
USER: genes 1 Rotation |==|  0.49314 0.44894 0.52478 0.99672
USER: genes 2 Torsion [C]-CA--CB-[CG] |==|  0.27909
USER: genes 3 Torsion [CA]-CB--CG-[CD] |==|  0.48491
USER: genes 4 Torsion [CB]-CG--CD-[NE] |==|  0.06334
USER: genes 5 Torsion [CG]-CD--NE-[HE] |==|  0.70568
USER: genes 6 Torsion [N]-CA--C-[N] |==|  0.64379
USER: genes 7 Torsion [C]-N--CA-[C] |==|  0.55044
USER: genes 8 Torsion [N]-CA--C-[N] |==|  0.42324
USER: genes 9 Torsion [C]-N--CA-[CB] |==|  0.45634
USER: genes 10 Torsion [N]-CA--CB-[CG] |==|  0.79769
USER: genes 11 Torsion [CA]-CB--CG-[CD] |==|  0.69730
USER: genes 12 Torsion [CB]-CG--CD-[CE] |==|  0.34900
USER: genes 13 Torsion [CG]-CD--CE-[NZ] |==|  0.39907
USER: genes 14 Torsion [CD]-CE--NZ-[HZ2] |==|  0.53233
USER: genes 15 Torsion [N]-CA--C-[N] |==|  0.92608
USER: genes 16 Torsion [C]-N--CA-[C] |==|  0.62642
USER: genes 17 Torsion [N]-CA--C-[O] |==|  0.15714
USER: genes 18 Torsion [N]-CA--CB-[OG] |==|  0.74284
USER: genes 19 Torsion [CA]-CB--OG-[HG] |==|  0.13524
USER: genes 20 Torsion [CB]-CA--N-[C] |==|  0.33901
USER: genes 21 Torsion [N]-C--CA-[N] |==|  0.45436
USER: genes 22 Torsion [C]-CA--CB-[CG] |==|  0.45761
USER: genes 23 Torsion [CA]-CB--CG-[CD1] |==|  0.91119
USER: genes 24 Torsion [C]-CA--N-[H2] |==|  0.80901
ROOT
ATOM      1  CA  ARG D   2     -12.298  -0.843  11.195  1.00 39.33 LIG 0.18  C 
ENDROOT
BRANCH 1 2
ATOM      2  CB  ARG D   2     -13.325  -0.636  10.097  1.00 35.05 LIG 0.04  C 
BRANCH 2 3
ATOM      3  CG  ARG D   2     -14.688  -0.312  10.643  1.00 57.88 LIG 0.02  C 
BRANCH 3 4
ATOM      4  CD  ARG D   2     -15.668   0.022   9.535  1.00 90.52 LIG 0.14  C 
BRANCH 4 5
ATOM      5  NE  ARG D   2     -15.259  -0.544   8.250  1.00 84.14 LIG-0.23  N 
ATOM      6 HE   ARG D   2     -14.940  -0.006   7.660  1.00 84.14 LIG 0.18  HD
ATOM      7  CZ  ARG D   2     -15.343  -1.834   7.930  1.00 83.97 LIG 0.67  C 
ATOM      8  NH2 ARG D   2     -14.939  -2.245   6.733  1.00 60.39 LIG-0.23  N 
ATOM      9  NH1 ARG D   2     -15.839  -2.714   8.794  1.00 80.72 LIG-0.23  N 
ATOM     10 1HH2 ARG D   2     -14.624  -1.678   6.168  1.00 60.39 LIG 0.17  HD
ATOM     11 2HH2 ARG D   2     -14.993  -3.077   6.524  1.00 60.39 LIG 0.17  HD
ATOM     12 2HH1 ARG D   2     -15.890  -3.545   8.581  1.00 80.72 LIG 0.17  HD
ATOM     13 1HH1 ARG D   2     -16.107  -2.452   9.567  1.00 80.72 LIG 0.17  HD
ENDBRANCH 4 5
ENDBRANCH 3 4
ENDBRANCH 2 3
ENDBRANCH 1 2
BRANCH 1 14
ATOM     14  C   ARG D   2     -12.084  -2.326  11.416  1.00 29.38 LIG 0.24  C 
ATOM     15 O    ARG D   2     -11.189  -2.729  12.156  1.00 21.44 LIG-0.27  OA
ATOM     16  N   SER D   3     -12.904  -3.146  10.776  1.00 29.93 LIG-0.34  N 
ATOM     17 H    SER D   3     -13.574  -2.898  10.298  1.00 29.93 LIG 0.16  HD
BRANCH 16 18
ATOM     18  CA  SER D   3     -12.693  -4.584  10.856  1.00 48.61 LIG 0.20  C 
BRANCH 18 19
ATOM     19  C   SER D   3     -13.439  -5.263   9.724  1.00 58.83 LIG 0.24  C 
ATOM     20  N   LYS D   4     -12.937  -6.418   9.302  1.00 77.18 LIG-0.35  N 
ATOM     21 H    LYS D   4     -12.205  -6.763   9.593  1.00 77.18 LIG 0.16  HD
ATOM     22 O    SER D   3     -14.437  -4.742   9.227  1.00 53.61 LIG-0.27  OA
BRANCH 20 23
ATOM     23  CA  LYS D   4     -13.617  -7.205   8.283  1.00 70.35 LIG 0.18  C 
BRANCH 23 24
ATOM     24  CB  LYS D   4     -12.678  -8.261   7.696  1.00 80.12 LIG 0.04  C 
BRANCH 24 25
ATOM     25  CG  LYS D   4     -11.610  -7.680   6.779  1.00 84.36 LIG 0.00  C 
BRANCH 25 26
ATOM     26  CD  LYS D   4     -11.846  -8.021   5.321  1.00102.13 LIG 0.03  C 
BRANCH 26 27
ATOM     27  CE  LYS D   4     -11.876  -6.757   4.471  1.00 86.00 LIG 0.23  C 
BRANCH 27 28
ATOM     28  NZ  LYS D   4     -11.258  -6.966   3.133  1.00 85.97 LIG-0.08  N 
ATOM     29 HZ3  LYS D   4     -10.470  -7.370   3.230  1.00 85.97 LIG 0.27  HD
ATOM     30 HZ2  LYS D   4     -11.140  -6.180   2.734  1.00 85.97 LIG 0.27  HD
ATOM     31 HZ1  LYS D   4     -11.793  -7.474   2.635  1.00 85.97 LIG 0.27  HD
ENDBRANCH 27 28
ENDBRANCH 26 27
ENDBRANCH 25 26
ENDBRANCH 24 25
ENDBRANCH 23 24
BRANCH 23 32
ATOM     32  C   LYS D   4     -14.827  -7.857   8.932  1.00 69.25 LIG 0.24  C 
ATOM     33 O    LYS D   4     -15.824  -8.144   8.269  1.00 74.50 LIG-0.27  OA
ATOM     34  N   GLY D   5     -14.734  -8.070  10.242  1.00 72.69 LIG-0.35  N 
ATOM     35 H    GLY D   5     -14.028  -7.902  10.704  1.00 72.69 LIG 0.16  HD
BRANCH 34 36
ATOM     36  CA  GLY D   5     -15.835  -8.614  11.015  1.00 67.28 LIG 0.21  C 
BRANCH 36 37
ATOM     37  C   GLY D   5     -16.047  -7.850  12.306  1.00 69.64 LIG 0.21  C 
ATOM     38 O    GLY D   5     -16.251  -6.635  12.294  1.00 73.82 LIG-0.29  OA
ENDBRANCH 36 37
ENDBRANCH 34 36
ENDBRANCH 23 32
ENDBRANCH 20 23
ENDBRANCH 18 19
BRANCH 18 39
ATOM     39  CB  SER D   3     -13.170  -5.117  12.197  1.00 47.59 LIG 0.20  C 
BRANCH 39 40
ATOM     40 OG   SER D   3     -12.099  -5.137  13.120  1.00 55.88 LIG-0.40  OA
ATOM     41 HG   SER D   3     -11.704  -4.396  13.109  1.00 55.88 LIG 0.21  HD
ENDBRANCH 39 40
ENDBRANCH 18 39
ENDBRANCH 16 18
ENDBRANCH 1 14
BRANCH 1 42
ATOM     42  N   ARG D   2     -11.051  -0.222  10.812  1.00 24.62 LIG-0.35  N 
ATOM     43 H    ARG D   2     -10.718  -0.508  10.072  1.00 24.62 LIG 0.16  HD
ATOM     44  C   PHE D   1     -10.500   0.708  11.567  1.00 23.06 LIG 0.25  C 
ATOM     45 O    PHE D   1     -10.994   1.094  12.622  1.00 27.40 LIG-0.27  OA
BRANCH 44 46
ATOM     46  CA  PHE D   1      -9.245   1.367  11.009  1.00 18.76 LIG 0.28  C 
BRANCH 46 47
ATOM     47  CB  PHE D   1      -8.014   0.464  11.032  1.00 12.58 LIG 0.08  C 
BRANCH 47 48
ATOM     48  CG  PHE D   1      -6.891   0.980  10.159  1.00 17.06 LIG-0.06  A 
ATOM     49  CD1 PHE D   1      -7.168   1.692   8.995  1.00 22.27 LIG 0.01  A 
ATOM     50  CE1 PHE D   1      -6.132   2.191   8.194  1.00 15.67 LIG 0.00  A 
ATOM     51  CZ  PHE D   1      -4.806   1.968   8.556  1.00 13.83 LIG 0.00  A 
ATOM     52  CE2 PHE D   1      -4.522   1.271   9.717  1.00 20.38 LIG 0.00  A 
ATOM     53  CD2 PHE D   1      -5.560   0.783  10.518  1.00 21.07 LIG 0.01  A 
ENDBRANCH 47 48
ENDBRANCH 46 47
BRANCH 46 54
ATOM     54  N   PHE D   1      -8.976   2.626  11.746  1.00 21.45 LIG-0.07  N 
ATOM     55 H2   PHE D   1      -9.605   3.224  11.549  1.00 21.45 LIG 0.28  HD
ATOM     56 H3   PHE D   1      -8.983   2.465  12.621  1.00 21.45 LIG 0.28  HD
ATOM     57 H1   PHE D   1      -8.179   2.943  11.509  1.00 21.45 LIG 0.28  HD
ENDBRANCH 46 54
ENDBRANCH 44 46
ENDBRANCH 1 42
TORSDOF 23
ENDMDL
MODEL 18
USER: ADFR SOLUTION from run 59
USER: SCORE 14.906677 LL:  -2.449 LR: -14.758 RR:   0.000 FEB:  -7.897
USER: RMSD 5.256756
USER: SEED 58
USER: STATUS no improvement in best in 25 clusters for 5 generations
USER: GENES 25
USER: genes 0 Translation |==|  0.45643 0.61377 0.45946
USER: genes 1 Rotation |==|  0.44391 0.40505 0.51816 0.98735
USER: genes 2 Torsion [C]-CA--CB-[CG] |==|  0.17965
USER: genes 3 Torsion [CA]-CB--CG-[CD] |==|  0.13213
USER: genes 4 Torsion [CB]-CG--CD-[NE] |==|  0.13979
USER: genes 5 Torsion [CG]-CD--NE-[HE] |==|  0.91352
USER: genes 6 Torsion [N]-CA--C-[N] |==|  0.46194
USER: genes 7 Torsion [C]-N--CA-[C] |==|  0.17776
USER: genes 8 Torsion [N]-CA--C-[N] |==|  0.14666
USER: genes 9 Torsion [C]-N--CA-[CB] |==|  0.50013
USER: genes 10 Torsion [N]-CA--CB-[CG] |==|  0.47993
USER: genes 11 Torsion [CA]-CB--CG-[CD] |==|  0.22941
USER: genes 12 Torsion [CB]-CG--CD-[CE] |==|  0.29240
USER: genes 13 Torsion [CG]-CD--CE-[NZ] |==|  0.56067
USER: genes 14 Torsion [CD]-CE--NZ-[HZ2] |==|  0.01406
USER: genes 15 Torsion [N]-CA--C-[N] |==|  0.41112
USER: genes 16 Torsion [C]-N--CA-[C] |==|  0.77657
USER: genes 17 Torsion [N]-CA--C-[O] |==|  0.00826
USER: genes 18 Torsion [N]-CA--CB-[OG] |==|  0.74704
USER: genes 19 Torsion [CA]-CB--OG-[HG] |==|  0.40972
USER: genes 20 Torsion [CB]-CA--N-[C] |==|  0.28887
USER: genes 21 Torsion [N]-C--CA-[N] |==|  0.55506
USER: genes 22 Torsion [C]-CA--CB-[CG] |==|  0.46062
USER: genes 23 Torsion [CA]-CB--CG-[CD1] |==|  0.37048
USER: genes 24 Torsion [C]-CA--N-[H2] |==|  0.80498
ROOT
ATOM      1  CA  ARG D   2     -12.512  -0.501  11.116  1.00 39.33 LIG 0.18  C 
ENDROOT
BRANCH 1 2
ATOM      2  CB  ARG D   2     -13.306  -0.478   9.823  1.00 35.05 LIG 0.04  C 
BRANCH 2 3
ATOM      3  CG  ARG D   2     -14.742  -0.880  10.027  1.00 57.88 LIG 0.02  C 
BRANCH 3 4
ATOM      4  CD  ARG D   2     -15.361  -0.155  11.206  1.00 90.52 LIG 0.14  C 
BRANCH 4 5
ATOM      5  NE  ARG D   2     -15.144   1.290  11.139  1.00 84.14 LIG-0.23  N 
ATOM      6 HE   ARG D   2     -14.422   1.569  10.763  1.00 84.14 LIG 0.18  HD
ATOM      7  CZ  ARG D   2     -15.985   2.205  11.618  1.00 83.97 LIG 0.67  C 
ATOM      8  NH2 ARG D   2     -15.692   3.495  11.501  1.00 60.39 LIG-0.23  N 
ATOM      9  NH1 ARG D   2     -17.111   1.838  12.221  1.00 80.72 LIG-0.23  N 
ATOM     10 1HH2 ARG D   2     -14.961   3.738  11.117  1.00 60.39 LIG 0.17  HD
ATOM     11 2HH2 ARG D   2     -16.233   4.088  11.810  1.00 60.39 LIG 0.17  HD
ATOM     12 2HH1 ARG D   2     -17.649   2.434  12.528  1.00 80.72 LIG 0.17  HD
ATOM     13 1HH1 ARG D   2     -17.301   1.004  12.305  1.00 80.72 LIG 0.17  HD
ENDBRANCH 4 5
ENDBRANCH 3 4
ENDBRANCH 2 3
ENDBRANCH 1 2
BRANCH 1 14
ATOM     14  C   ARG D   2     -12.430  -1.921  11.635  1.00 29.38 LIG 0.24  C 
ATOM     15 O    ARG D   2     -11.382  -2.559  11.560  1.00 21.44 LIG-0.27  OA
ATOM     16  N   SER D   3     -13.534  -2.423  12.167  1.00 29.93 LIG-0.34  N 
ATOM     17 H    SER D   3     -14.265  -1.987  12.288  1.00 29.93 LIG 0.16  HD
BRANCH 16 18
ATOM     18  CA  SER D   3     -13.561  -3.815  12.592  1.00 48.61 LIG 0.20  C 
BRANCH 18 19
ATOM     19  C   SER D   3     -12.571  -4.013  13.723  1.00 58.83 LIG 0.24  C 
ATOM     20  N   LYS D   4     -12.689  -3.186  14.756  1.00 77.18 LIG-0.35  N 
ATOM     21 H    LYS D   4     -13.247  -2.532  14.791  1.00 77.18 LIG 0.16  HD
ATOM     22 O    SER D   3     -11.703  -4.882  13.653  1.00 53.61 LIG-0.27  OA
BRANCH 20 23
ATOM     23  CA  LYS D   4     -11.853  -3.337  15.938  1.00 70.35 LIG 0.18  C 
BRANCH 23 24
ATOM     24  CB  LYS D   4     -12.186  -2.264  16.978  1.00 80.12 LIG 0.04  C 
BRANCH 24 25
ATOM     25  CG  LYS D   4     -11.472  -2.469  18.308  1.00 84.36 LIG 0.00  C 
BRANCH 25 26
ATOM     26  CD  LYS D   4     -10.056  -1.927  18.298  1.00102.13 LIG 0.03  C 
BRANCH 26 27
ATOM     27  CE  LYS D   4      -9.972  -0.626  19.087  1.00 86.00 LIG 0.23  C 
BRANCH 27 28
ATOM     28  NZ  LYS D   4      -8.795   0.194  18.692  1.00 85.97 LIG-0.08  N 
ATOM     29 HZ3  LYS D   4      -9.066   1.009  18.457  1.00 85.97 LIG 0.27  HD
ATOM     30 HZ2  LYS D   4      -8.382  -0.191  18.005  1.00 85.97 LIG 0.27  HD
ATOM     31 HZ1  LYS D   4      -8.232   0.255  19.379  1.00 85.97 LIG 0.27  HD
ENDBRANCH 27 28
ENDBRANCH 26 27
ENDBRANCH 25 26
ENDBRANCH 24 25
ENDBRANCH 23 24
BRANCH 23 32
ATOM     32  C   LYS D   4     -12.093  -4.729  16.501  1.00 69.25 LIG 0.24  C 
ATOM     33 O    LYS D   4     -13.197  -5.267  16.411  1.00 74.50 LIG-0.27  OA
ATOM     34  N   GLY D   5     -11.050  -5.296  17.099  1.00 72.69 LIG-0.35  N 
ATOM     35 H    GLY D   5     -10.268  -4.939  17.136  1.00 72.69 LIG 0.16  HD
BRANCH 34 36
ATOM     36  CA  GLY D   5     -11.144  -6.589  17.751  1.00 67.28 LIG 0.21  C 
BRANCH 36 37
ATOM     37  C   GLY D   5     -11.749  -6.477  19.136  1.00 69.64 LIG 0.21  C 
ATOM     38 O    GLY D   5     -12.146  -5.393  19.566  1.00 73.82 LIG-0.29  OA
ENDBRANCH 36 37
ENDBRANCH 34 36
ENDBRANCH 23 32
ENDBRANCH 20 23
ENDBRANCH 18 19
BRANCH 18 39
ATOM     39  CB  SER D   3     -13.224  -4.733  11.429  1.00 47.59 LIG 0.20  C 
BRANCH 39 40
ATOM     40 OG   SER D   3     -14.405  -5.118  10.755  1.00 55.88 LIG-0.40  OA
ATOM     41 HG   SER D   3     -14.241  -5.220   9.937  1.00 55.88 LIG 0.21  HD
ENDBRANCH 39 40
ENDBRANCH 18 39
ENDBRANCH 16 18
ENDBRANCH 1 14
BRANCH 1 42
ATOM     42  N   ARG D   2     -11.182   0.007  10.873  1.00 24.62 LIG-0.35  N 
ATOM     43 H    ARG D   2     -10.655  -0.541  10.470  1.00 24.62 LIG 0.16  HD
ATOM     44  C   PHE D   1     -10.843   1.223  11.254  1.00 23.06 LIG 0.25  C 
ATOM     45 O    PHE D   1     -11.614   1.982  11.832  1.00 27.40 LIG-0.27  OA
BRANCH 44 46
ATOM     46  CA  PHE D   1      -9.451   1.689  10.848  1.00 18.76 LIG 0.28  C 
BRANCH 46 47
ATOM     47  CB  PHE D   1      -8.399   0.582  10.874  1.00 12.58 LIG 0.08  C 
BRANCH 47 48
ATOM     48  CG  PHE D   1      -7.124   0.966  10.155  1.00 17.06 LIG-0.06  A 
ATOM     49  CD1 PHE D   1      -5.883   0.734  10.740  1.00 22.27 LIG 0.01  A 
ATOM     50  CE1 PHE D   1      -4.698   1.068  10.071  1.00 15.67 LIG 0.00  A 
ATOM     51  CZ  PHE D   1      -4.757   1.647   8.805  1.00 13.83 LIG 0.00  A 
ATOM     52  CE2 PHE D   1      -5.986   1.871   8.212  1.00 20.38 LIG 0.00  A 
ATOM     53  CD2 PHE D   1      -7.165   1.528   8.882  1.00 21.07 LIG 0.01  A 
ENDBRANCH 47 48
ENDBRANCH 46 47
BRANCH 46 54
ATOM     54  N   PHE D   1      -9.033   2.818  11.714  1.00 21.45 LIG-0.07  N 
ATOM     55 H2   PHE D   1      -9.516   3.539  11.515  1.00 21.45 LIG 0.28  HD
ATOM     56 H3   PHE D   1      -9.161   2.601  12.567  1.00 21.45 LIG 0.28  HD
ATOM     57 H1   PHE D   1      -8.171   2.993  11.579  1.00 21.45 LIG 0.28  HD
ENDBRANCH 46 54
ENDBRANCH 44 46
ENDBRANCH 1 42
TORSDOF 23
ENDMDL
MODEL 19
USER: ADFR SOLUTION from run 192
USER: SCORE 16.742982 LL:  -3.437 LR: -14.701 RR:   0.000 FEB:  -7.840
USER: RMSD 3.503975
USER: SEED 191
USER: STATUS searching
USER: GENES 25
USER: genes 0 Translation |==|  0.45782 0.64302 0.45040
USER: genes 1 Rotation |==|  0.39890 0.41973 0.53329 0.98190
USER: genes 2 Torsion [C]-CA--CB-[CG] |==|  0.17823
USER: genes 3 Torsion [CA]-CB--CG-[CD] |==|  0.18520
USER: genes 4 Torsion [CB]-CG--CD-[NE] |==|  0.74644
USER: genes 5 Torsion [CG]-CD--NE-[HE] |==|  0.82868
USER: genes 6 Torsion [N]-CA--C-[N] |==|  0.37904
USER: genes 7 Torsion [C]-N--CA-[C] |==|  0.84224
USER: genes 8 Torsion [N]-CA--C-[N] |==|  0.31777
USER: genes 9 Torsion [C]-N--CA-[CB] |==|  0.22383
USER: genes 10 Torsion [N]-CA--CB-[CG] |==|  0.75403
USER: genes 11 Torsion [CA]-CB--CG-[CD] |==|  0.31484
USER: genes 12 Torsion [CB]-CG--CD-[CE] |==|  0.40024
USER: genes 13 Torsion [CG]-CD--CE-[NZ] |==|  0.56018
USER: genes 14 Torsion [CD]-CE--NZ-[HZ2] |==|  0.83995
USER: genes 15 Torsion [N]-CA--C-[N] |==|  0.99658
USER: genes 16 Torsion [C]-N--CA-[C] |==|  0.56535
USER: genes 17 Torsion [N]-CA--C-[O] |==|  0.98177
USER: genes 18 Torsion [N]-CA--CB-[OG] |==|  0.08155
USER: genes 19 Torsion [CA]-CB--OG-[HG] |==|  0.60226
USER: genes 20 Torsion [CB]-CA--N-[C] |==|  0.51667
USER: genes 21 Torsion [N]-C--CA-[N] |==|  0.33476
USER: genes 22 Torsion [C]-CA--CB-[CG] |==|  0.45716
USER: genes 23 Torsion [CA]-CB--CG-[CD1] |==|  0.92394
USER: genes 24 Torsion [C]-CA--N-[H2] |==|  0.78489
ROOT
ATOM      1  CA  ARG D   2     -12.481   0.091  10.933  1.00 39.33 LIG 0.18  C 
ENDROOT
BRANCH 1 2
ATOM      2  CB  ARG D   2     -13.342  -0.144   9.704  1.00 35.05 LIG 0.04  C 
BRANCH 2 3
ATOM      3  CG  ARG D   2     -14.751  -0.531  10.060  1.00 57.88 LIG 0.02  C 
BRANCH 3 4
ATOM      4  CD  ARG D   2     -15.489   0.608  10.735  1.00 90.52 LIG 0.14  C 
BRANCH 4 5
ATOM      5  NE  ARG D   2     -15.355   0.563  12.191  1.00 84.14 LIG-0.23  N 
ATOM      6 HE   ARG D   2     -15.666  -0.127  12.600  1.00 84.14 LIG 0.18  HD
ATOM      7  CZ  ARG D   2     -14.784   1.514  12.929  1.00 83.97 LIG 0.67  C 
ATOM      8  NH2 ARG D   2     -14.711   1.372  14.247  1.00 60.39 LIG-0.23  N 
ATOM      9  NH1 ARG D   2     -14.296   2.610  12.357  1.00 80.72 LIG-0.23  N 
ATOM     10 1HH2 ARG D   2     -15.032   0.667  14.622  1.00 60.39 LIG 0.17  HD
ATOM     11 2HH2 ARG D   2     -14.344   1.984  14.726  1.00 60.39 LIG 0.17  HD
ATOM     12 2HH1 ARG D   2     -13.929   3.220  12.840  1.00 80.72 LIG 0.17  HD
ATOM     13 1HH1 ARG D   2     -14.347   2.710  11.505  1.00 80.72 LIG 0.17  HD
ENDBRANCH 4 5
ENDBRANCH 3 4
ENDBRANCH 2 3
ENDBRANCH 1 2
BRANCH 1 14
ATOM     14  C   ARG D   2     -12.339  -1.202  11.707  1.00 29.38 LIG 0.24  C 
ATOM     15 O    ARG D   2     -11.578  -2.086  11.321  1.00 21.44 LIG-0.27  OA
ATOM     16  N   SER D   3     -13.070  -1.319  12.806  1.00 29.93 LIG-0.34  N 
ATOM     17 H    SER D   3     -13.567  -0.700  13.136  1.00 29.93 LIG 0.16  HD
BRANCH 16 18
ATOM     18  CA  SER D   3     -13.064  -2.574  13.544  1.00 48.61 LIG 0.20  C 
BRANCH 18 19
ATOM     19  C   SER D   3     -13.486  -3.700  12.621  1.00 58.83 LIG 0.24  C 
ATOM     20  N   LYS D   4     -12.562  -4.616  12.355  1.00 77.18 LIG-0.35  N 
ATOM     21 H    LYS D   4     -11.747  -4.576  12.629  1.00 77.18 LIG 0.16  HD
ATOM     22 O    SER D   3     -14.618  -3.728  12.140  1.00 53.61 LIG-0.27  OA
BRANCH 20 23
ATOM     23  CA  LYS D   4     -12.877  -5.791  11.555  1.00 70.35 LIG 0.18  C 
BRANCH 23 24
ATOM     24  CB  LYS D   4     -12.856  -5.452  10.062  1.00 80.12 LIG 0.04  C 
BRANCH 24 25
ATOM     25  CG  LYS D   4     -14.196  -4.958   9.534  1.00 84.36 LIG 0.00  C 
BRANCH 25 26
ATOM     26  CD  LYS D   4     -14.153  -3.505   9.105  1.00102.13 LIG 0.03  C 
BRANCH 26 27
ATOM     27  CE  LYS D   4     -15.034  -3.278   7.883  1.00 86.00 LIG 0.23  C 
BRANCH 27 28
ATOM     28  NZ  LYS D   4     -14.645  -2.055   7.130  1.00 85.97 LIG-0.08  N 
ATOM     29 HZ3  LYS D   4     -13.814  -2.147   6.824  1.00 85.97 LIG 0.27  HD
ATOM     30 HZ2  LYS D   4     -14.685  -1.349   7.670  1.00 85.97 LIG 0.27  HD
ATOM     31 HZ1  LYS D   4     -15.202  -1.938   6.446  1.00 85.97 LIG 0.27  HD
ENDBRANCH 27 28
ENDBRANCH 26 27
ENDBRANCH 25 26
ENDBRANCH 24 25
ENDBRANCH 23 24
BRANCH 23 32
ATOM     32  C   LYS D   4     -11.849  -6.863  11.880  1.00 69.25 LIG 0.24  C 
ATOM     33 O    LYS D   4     -11.912  -7.979  11.364  1.00 74.50 LIG-0.27  OA
ATOM     34  N   GLY D   5     -10.913  -6.516  12.759  1.00 72.69 LIG-0.35  N 
ATOM     35 H    GLY D   5     -10.845  -5.728  13.098  1.00 72.69 LIG 0.16  HD
BRANCH 34 36
ATOM     36  CA  GLY D   5      -9.910  -7.453  13.228  1.00 67.28 LIG 0.21  C 
BRANCH 36 37
ATOM     37  C   GLY D   5      -9.348  -7.048  14.576  1.00 69.64 LIG 0.21  C 
ATOM     38 O    GLY D   5      -9.655  -5.971  15.091  1.00 73.82 LIG-0.29  OA
ENDBRANCH 36 37
ENDBRANCH 34 36
ENDBRANCH 23 32
ENDBRANCH 20 23
ENDBRANCH 18 19
BRANCH 18 39
ATOM     39  CB  SER D   3     -14.000  -2.492  14.738  1.00 47.59 LIG 0.20  C 
BRANCH 39 40
ATOM     40 OG   SER D   3     -15.061  -1.597  14.464  1.00 55.88 LIG-0.40  OA
ATOM     41 HG   SER D   3     -15.257  -1.173  15.162  1.00 55.88 LIG 0.21  HD
ENDBRANCH 39 40
ENDBRANCH 18 39
ENDBRANCH 16 18
ENDBRANCH 1 14
BRANCH 1 42
ATOM     42  N   ARG D   2     -11.178   0.562  10.524  1.00 24.62 LIG-0.35  N 
ATOM     43 H    ARG D   2     -11.099   0.718   9.682  1.00 24.62 LIG 0.16  HD
ATOM     44  C   PHE D   1     -10.212   0.725  11.407  1.00 23.06 LIG 0.25  C 
ATOM     45 O    PHE D   1     -10.351   0.488  12.603  1.00 27.40 LIG-0.27  OA
BRANCH 44 46
ATOM     46  CA  PHE D   1      -8.917   1.328  10.879  1.00 18.76 LIG 0.28  C 
BRANCH 46 47
ATOM     47  CB  PHE D   1      -7.721   0.381  10.955  1.00 12.58 LIG 0.08  C 
BRANCH 47 48
ATOM     48  CG  PHE D   1      -6.555   0.837  10.106  1.00 17.06 LIG-0.06  A 
ATOM     49  CD1 PHE D   1      -6.765   1.617   8.972  1.00 22.27 LIG 0.01  A 
ATOM     50  CE1 PHE D   1      -5.688   2.061   8.194  1.00 15.67 LIG 0.00  A 
ATOM     51  CZ  PHE D   1      -4.387   1.715   8.550  1.00 13.83 LIG 0.00  A 
ATOM     52  CE2 PHE D   1      -4.168   0.949   9.681  1.00 20.38 LIG 0.00  A 
ATOM     53  CD2 PHE D   1      -5.247   0.516  10.459  1.00 21.07 LIG 0.01  A 
ENDBRANCH 47 48
ENDBRANCH 46 47
BRANCH 46 54
ATOM     54  N   PHE D   1      -8.623   2.588  11.602  1.00 21.45 LIG-0.07  N 
ATOM     55 H2   PHE D   1      -9.141   3.239  11.286  1.00 21.45 LIG 0.28  HD
ATOM     56 H3   PHE D   1      -8.785   2.476  12.471  1.00 21.45 LIG 0.28  HD
ATOM     57 H1   PHE D   1      -7.768   2.805  11.486  1.00 21.45 LIG 0.28  HD
ENDBRANCH 46 54
ENDBRANCH 44 46
ENDBRANCH 1 42
TORSDOF 23
ENDMDL
MODEL 20
USER: ADFR SOLUTION from run 21
USER: SCORE 15.258879 LL:  -2.230 LR: -14.637 RR:   0.000 FEB:  -7.776
USER: RMSD 2.899120
USER: SEED 20
USER: STATUS no improvement in best in 18 clusters for 5 generations
USER: GENES 25
USER: genes 0 Translation |==|  0.48774 0.59369 0.50197
USER: genes 1 Rotation |==|  0.53068 0.55165 0.44624 0.99346
USER: genes 2 Torsion [C]-CA--CB-[CG] |==|  0.91515
USER: genes 3 Torsion [CA]-CB--CG-[CD] |==|  0.45615
USER: genes 4 Torsion [CB]-CG--CD-[NE] |==|  0.10004
USER: genes 5 Torsion [CG]-CD--NE-[HE] |==|  0.11831
USER: genes 6 Torsion [N]-CA--C-[N] |==|  0.39148
USER: genes 7 Torsion [C]-N--CA-[C] |==|  0.79858
USER: genes 8 Torsion [N]-CA--C-[N] |==|  0.96947
USER: genes 9 Torsion [C]-N--CA-[CB] |==|  0.88889
USER: genes 10 Torsion [N]-CA--CB-[CG] |==|  0.64935
USER: genes 11 Torsion [CA]-CB--CG-[CD] |==|  0.26510
USER: genes 12 Torsion [CB]-CG--CD-[CE] |==|  0.50101
USER: genes 13 Torsion [CG]-CD--CE-[NZ] |==|  0.36190
USER: genes 14 Torsion [CD]-CE--NZ-[HZ2] |==|  0.81431
USER: genes 15 Torsion [N]-CA--C-[N] |==|  0.86405
USER: genes 16 Torsion [C]-N--CA-[C] |==|  0.78582
USER: genes 17 Torsion [N]-CA--C-[O] |==|  0.87912
USER: genes 18 Torsion [N]-CA--CB-[OG] |==|  0.84904
USER: genes 19 Torsion [CA]-CB--OG-[HG] |==|  0.98780
USER: genes 20 Torsion [CB]-CA--N-[C] |==|  0.27832
USER: genes 21 Torsion [N]-C--CA-[N] |==|  0.22865
USER: genes 22 Torsion [C]-CA--CB-[CG] |==|  0.46544
USER: genes 23 Torsion [CA]-CB--CG-[CD1] |==|  0.14191
USER: genes 24 Torsion [C]-CA--N-[H2] |==|  0.71347
ROOT
ATOM      1  CA  ARG D   2     -11.831  -0.908  11.977  1.00 39.33 LIG 0.18  C 
ENDROOT
BRANCH 1 2
ATOM      2  CB  ARG D   2     -13.065  -0.209  11.435  1.00 35.05 LIG 0.04  C 
BRANCH 2 3
ATOM      3  CG  ARG D   2     -13.781  -1.036  10.402  1.00 57.88 LIG 0.02  C 
BRANCH 3 4
ATOM      4  CD  ARG D   2     -15.187  -0.522  10.154  1.00 90.52 LIG 0.14  C 
BRANCH 4 5
ATOM      5  NE  ARG D   2     -15.259   0.937  10.228  1.00 84.14 LIG-0.23  N 
ATOM      6 HE   ARG D   2     -14.629   1.388   9.854  1.00 84.14 LIG 0.18  HD
ATOM      7  CZ  ARG D   2     -16.232   1.617  10.833  1.00 83.97 LIG 0.67  C 
ATOM      8  NH2 ARG D   2     -16.204   2.945  10.838  1.00 60.39 LIG-0.23  N 
ATOM      9  NH1 ARG D   2     -17.226   0.978  11.440  1.00 80.72 LIG-0.23  N 
ATOM     10 1HH2 ARG D   2     -15.558   3.363  10.452  1.00 60.39 LIG 0.17  HD
ATOM     11 2HH2 ARG D   2     -16.830   3.387  11.228  1.00 60.39 LIG 0.17  HD
ATOM     12 2HH1 ARG D   2     -17.851   1.424  11.828  1.00 80.72 LIG 0.17  HD
ATOM     13 1HH1 ARG D   2     -17.245   0.119  11.445  1.00 80.72 LIG 0.17  HD
ENDBRANCH 4 5
ENDBRANCH 3 4
ENDBRANCH 2 3
ENDBRANCH 1 2
BRANCH 1 14
ATOM     14  C   ARG D   2     -12.042  -2.406  11.949  1.00 29.38 LIG 0.24  C 
ATOM     15 O    ARG D   2     -11.877  -3.046  10.912  1.00 21.44 LIG-0.27  OA
ATOM     16  N   SER D   3     -12.408  -2.976  13.087  1.00 29.93 LIG-0.34  N 
ATOM     17 H    SER D   3     -12.476  -2.569  13.842  1.00 29.93 LIG 0.16  HD
BRANCH 16 18
ATOM     18  CA  SER D   3     -12.731  -4.395  13.113  1.00 48.61 LIG 0.20  C 
BRANCH 18 19
ATOM     19  C   SER D   3     -14.065  -4.617  12.426  1.00 58.83 LIG 0.24  C 
ATOM     20  N   LYS D   4     -14.772  -3.527  12.153  1.00 77.18 LIG-0.35  N 
ATOM     21 H    LYS D   4     -14.543  -2.730  12.385  1.00 77.18 LIG 0.16  HD
ATOM     22 O    SER D   3     -14.458  -5.755  12.169  1.00 53.61 LIG-0.27  OA
BRANCH 20 23
ATOM     23  CA  LYS D   4     -16.025  -3.608  11.416  1.00 70.35 LIG 0.18  C 
BRANCH 23 24
ATOM     24  CB  LYS D   4     -15.921  -4.628  10.279  1.00 80.12 LIG 0.04  C 
BRANCH 24 25
ATOM     25  CG  LYS D   4     -16.306  -4.060   8.920  1.00 84.36 LIG 0.00  C 
BRANCH 25 26
ATOM     26  CD  LYS D   4     -15.105  -3.584   8.127  1.00102.13 LIG 0.03  C 
BRANCH 26 27
ATOM     27  CE  LYS D   4     -15.538  -3.017   6.781  1.00 86.00 LIG 0.23  C 
BRANCH 27 28
ATOM     28  NZ  LYS D   4     -14.940  -1.680   6.516  1.00 85.97 LIG-0.08  N 
ATOM     29 HZ3  LYS D   4     -14.056  -1.726   6.613  1.00 85.97 LIG 0.27  HD
ATOM     30 HZ2  LYS D   4     -15.272  -1.088   7.091  1.00 85.97 LIG 0.27  HD
ATOM     31 HZ1  LYS D   4     -15.135  -1.427   5.685  1.00 85.97 LIG 0.27  HD
ENDBRANCH 27 28
ENDBRANCH 26 27
ENDBRANCH 25 26
ENDBRANCH 24 25
ENDBRANCH 23 24
BRANCH 23 32
ATOM     32  C   LYS D   4     -17.116  -4.004  12.399  1.00 69.25 LIG 0.24  C 
ATOM     33 O    LYS D   4     -18.171  -3.373  12.462  1.00 74.50 LIG-0.27  OA
ATOM     34  N   GLY D   5     -16.839  -5.045  13.179  1.00 72.69 LIG-0.35  N 
ATOM     35 H    GLY D   5     -16.117  -5.509  13.117  1.00 72.69 LIG 0.16  HD
BRANCH 34 36
ATOM     36  CA  GLY D   5     -17.747  -5.494  14.217  1.00 67.28 LIG 0.21  C 
BRANCH 36 37
ATOM     37  C   GLY D   5     -17.686  -4.602  15.442  1.00 69.64 LIG 0.21  C 
ATOM     38 O    GLY D   5     -16.604  -4.215  15.887  1.00 73.82 LIG-0.29  OA
ENDBRANCH 36 37
ENDBRANCH 34 36
ENDBRANCH 23 32
ENDBRANCH 20 23
ENDBRANCH 18 19
BRANCH 18 39
ATOM     39  CB  SER D   3     -12.784  -4.903  14.543  1.00 47.59 LIG 0.20  C 
BRANCH 39 40
ATOM     40 OG   SER D   3     -11.576  -4.597  15.212  1.00 55.88 LIG-0.40  OA
ATOM     41 HG   SER D   3     -11.037  -4.246  14.672  1.00 55.88 LIG 0.21  HD
ENDBRANCH 39 40
ENDBRANCH 18 39
ENDBRANCH 16 18
ENDBRANCH 1 14
BRANCH 1 42
ATOM     42  N   ARG D   2     -10.687  -0.561  11.166  1.00 24.62 LIG-0.35  N 
ATOM     43 H    ARG D   2     -10.622  -0.998  10.428  1.00 24.62 LIG 0.16  HD
ATOM     44  C   PHE D   1      -9.831   0.360  11.564  1.00 23.06 LIG 0.25  C 
ATOM     45 O    PHE D   1      -9.943   0.964  12.626  1.00 27.40 LIG-0.27  OA
BRANCH 44 46
ATOM     46  CA  PHE D   1      -8.725   0.718  10.579  1.00 18.76 LIG 0.28  C 
BRANCH 46 47
ATOM     47  CB  PHE D   1      -7.457   1.250  11.243  1.00 12.58 LIG 0.08  C 
BRANCH 47 48
ATOM     48  CG  PHE D   1      -6.281   1.315  10.295  1.00 17.06 LIG-0.06  A 
ATOM     49  CD1 PHE D   1      -6.400   1.944   9.059  1.00 22.27 LIG 0.01  A 
ATOM     50  CE1 PHE D   1      -5.308   2.027   8.185  1.00 15.67 LIG 0.00  A 
ATOM     51  CZ  PHE D   1      -4.085   1.467   8.549  1.00 13.83 LIG 0.00  A 
ATOM     52  CE2 PHE D   1      -3.954   0.851   9.780  1.00 20.38 LIG 0.00  A 
ATOM     53  CD2 PHE D   1      -5.046   0.779  10.652  1.00 21.07 LIG 0.01  A 
ENDBRANCH 47 48
ENDBRANCH 46 47
BRANCH 46 54
ATOM     54  N   PHE D   1      -9.239   1.695   9.589  1.00 21.45 LIG-0.07  N 
ATOM     55 H2   PHE D   1      -9.404   1.279   8.820  1.00 21.45 LIG 0.28  HD
ATOM     56 H3   PHE D   1      -9.989   2.062   9.896  1.00 21.45 LIG 0.28  HD
ATOM     57 H1   PHE D   1      -8.630   2.331   9.458  1.00 21.45 LIG 0.28  HD
ENDBRANCH 46 54
ENDBRANCH 44 46
ENDBRANCH 1 42
TORSDOF 23
ENDMDL
MODEL 21
USER: ADFR SOLUTION from run 27
USER: SCORE 15.522331 LL:  -3.044 LR: -14.596 RR:   0.000 FEB:  -7.736
USER: RMSD 4.676018
USER: SEED 26
USER: STATUS no improvement in best in 27 clusters for 5 generations
USER: GENES 25
USER: genes 0 Translation |==|  0.51427 0.57300 0.49937
USER: genes 1 Rotation |==|  0.73952 0.73937 0.43588 0.86224
USER: genes 2 Torsion [C]-CA--CB-[CG] |==|  0.75882
USER: genes 3 Torsion [CA]-CB--CG-[CD] |==|  0.60979
USER: genes 4 Torsion [CB]-CG--CD-[NE] |==|  0.26081
USER: genes 5 Torsion [CG]-CD--NE-[HE] |==|  0.74092
USER: genes 6 Torsion [N]-CA--C-[N] |==|  0.40045
USER: genes 7 Torsion [C]-N--CA-[C] |==|  0.80905
USER: genes 8 Torsion [N]-CA--C-[N] |==|  0.92130
USER: genes 9 Torsion [C]-N--CA-[CB] |==|  0.86363
USER: genes 10 Torsion [N]-CA--CB-[CG] |==|  0.79971
USER: genes 11 Torsion [CA]-CB--CG-[CD] |==|  0.43563
USER: genes 12 Torsion [CB]-CG--CD-[CE] |==|  0.70834
USER: genes 13 Torsion [CG]-CD--CE-[NZ] |==|  0.31905
USER: genes 14 Torsion [CD]-CE--NZ-[HZ2] |==|  0.92572
USER: genes 15 Torsion [N]-CA--C-[N] |==|  0.74787
USER: genes 16 Torsion [C]-N--CA-[C] |==|  0.78364
USER: genes 17 Torsion [N]-CA--C-[O] |==|  0.89722
USER: genes 18 Torsion [N]-CA--CB-[OG] |==|  0.88575
USER: genes 19 Torsion [CA]-CB--OG-[HG] |==|  0.35404
USER: genes 20 Torsion [CB]-CA--N-[C] |==|  0.21667
USER: genes 21 Torsion [N]-C--CA-[N] |==|  0.46425
USER: genes 22 Torsion [C]-CA--CB-[CG] |==|  0.73891
USER: genes 23 Torsion [CA]-CB--CG-[CD1] |==|  0.64306
USER: genes 24 Torsion [C]-CA--N-[H2] |==|  0.66487
ROOT
ATOM      1  CA  ARG D   2     -11.254  -1.327  11.924  1.00 39.33 LIG 0.18  C 
ENDROOT
BRANCH 1 2
ATOM      2  CB  ARG D   2     -12.134  -0.774  13.031  1.00 35.05 LIG 0.04  C 
BRANCH 2 3
ATOM      3  CG  ARG D   2     -12.804   0.514  12.639  1.00 57.88 LIG 0.02  C 
BRANCH 3 4
ATOM      4  CD  ARG D   2     -12.837   1.499  13.792  1.00 90.52 LIG 0.14  C 
BRANCH 4 5
ATOM      5  NE  ARG D   2     -11.699   2.417  13.763  1.00 84.14 LIG-0.23  N 
ATOM      6 HE   ARG D   2     -11.000   2.203  14.217  1.00 84.14 LIG 0.18  HD
ATOM      7  CZ  ARG D   2     -11.667   3.562  13.083  1.00 83.97 LIG 0.67  C 
ATOM      8  NH2 ARG D   2     -10.580   4.323  13.122  1.00 60.39 LIG-0.23  N 
ATOM      9  NH1 ARG D   2     -12.720   3.956  12.374  1.00 80.72 LIG-0.23  N 
ATOM     10 1HH2 ARG D   2      -9.898   4.076  13.586  1.00 60.39 LIG 0.17  HD
ATOM     11 2HH2 ARG D   2     -10.556   5.063  12.685  1.00 60.39 LIG 0.17  HD
ATOM     12 2HH1 ARG D   2     -12.692   4.696  11.937  1.00 80.72 LIG 0.17  HD
ATOM     13 1HH1 ARG D   2     -13.428   3.470  12.350  1.00 80.72 LIG 0.17  HD
ENDBRANCH 4 5
ENDBRANCH 3 4
ENDBRANCH 2 3
ENDBRANCH 1 2
BRANCH 1 14
ATOM     14  C   ARG D   2     -12.086  -2.182  10.994  1.00 29.38 LIG 0.24  C 
ATOM     15 O    ARG D   2     -12.726  -1.675  10.076  1.00 21.44 LIG-0.27  OA
ATOM     16  N   SER D   3     -12.082  -3.487  11.224  1.00 29.93 LIG-0.34  N 
ATOM     17 H    SER D   3     -11.602  -3.881  11.819  1.00 29.93 LIG 0.16  HD
BRANCH 16 18
ATOM     18  CA  SER D   3     -12.940  -4.361  10.437  1.00 48.61 LIG 0.20  C 
BRANCH 18 19
ATOM     19  C   SER D   3     -14.389  -4.095  10.796  1.00 58.83 LIG 0.24  C 
ATOM     20  N   LYS D   4     -14.617  -3.655  12.028  1.00 77.18 LIG-0.35  N 
ATOM     21 H    LYS D   4     -14.008  -3.565  12.630  1.00 77.18 LIG 0.16  HD
ATOM     22 O    SER D   3     -15.287  -4.306   9.981  1.00 53.61 LIG-0.27  OA
BRANCH 20 23
ATOM     23  CA  LYS D   4     -15.956  -3.281  12.457  1.00 70.35 LIG 0.18  C 
BRANCH 23 24
ATOM     24  CB  LYS D   4     -16.611  -2.344  11.439  1.00 80.12 LIG 0.04  C 
BRANCH 24 25
ATOM     25  CG  LYS D   4     -16.017  -0.942  11.436  1.00 84.36 LIG 0.00  C 
BRANCH 25 26
ATOM     26  CD  LYS D   4     -16.241  -0.217  10.124  1.00102.13 LIG 0.03  C 
BRANCH 26 27
ATOM     27  CE  LYS D   4     -14.954  -0.169   9.309  1.00 86.00 LIG 0.23  C 
BRANCH 27 28
ATOM     28  NZ  LYS D   4     -15.061  -0.945   8.044  1.00 85.97 LIG-0.08  N 
ATOM     29 HZ3  LYS D   4     -15.314  -0.403   7.384  1.00 85.97 LIG 0.27  HD
ATOM     30 HZ2  LYS D   4     -15.663  -1.593   8.143  1.00 85.97 LIG 0.27  HD
ATOM     31 HZ1  LYS D   4     -14.270  -1.303   7.848  1.00 85.97 LIG 0.27  HD
ENDBRANCH 27 28
ENDBRANCH 26 27
ENDBRANCH 25 26
ENDBRANCH 24 25
ENDBRANCH 23 24
BRANCH 23 32
ATOM     32  C   LYS D   4     -16.765  -4.558  12.616  1.00 69.25 LIG 0.24  C 
ATOM     33 O    LYS D   4     -16.774  -5.174  13.682  1.00 74.50 LIG-0.27  OA
ATOM     34  N   GLY D   5     -17.430  -4.957  11.536  1.00 72.69 LIG-0.35  N 
ATOM     35 H    GLY D   5     -17.455  -4.513  10.799  1.00 72.69 LIG 0.16  HD
BRANCH 34 36
ATOM     36  CA  GLY D   5     -18.185  -6.196  11.509  1.00 67.28 LIG 0.21  C 
BRANCH 36 37
ATOM     37  C   GLY D   5     -17.282  -7.401  11.338  1.00 69.64 LIG 0.21  C 
ATOM     38 O    GLY D   5     -16.287  -7.346  10.613  1.00 73.82 LIG-0.29  OA
ENDBRANCH 36 37
ENDBRANCH 34 36
ENDBRANCH 23 32
ENDBRANCH 20 23
ENDBRANCH 18 19
BRANCH 18 39
ATOM     39  CB  SER D   3     -12.592  -5.817  10.691  1.00 47.59 LIG 0.20  C 
BRANCH 39 40
ATOM     40 OG   SER D   3     -11.189  -5.978  10.757  1.00 55.88 LIG-0.40  OA
ATOM     41 HG   SER D   3     -10.986  -6.378  11.468  1.00 55.88 LIG 0.21  HD
ENDBRANCH 39 40
ENDBRANCH 18 39
ENDBRANCH 16 18
ENDBRANCH 1 14
BRANCH 1 42
ATOM     42  N   ARG D   2     -10.666  -0.233  11.186  1.00 24.62 LIG-0.35  N 
ATOM     43 H    ARG D   2     -11.041  -0.065  10.431  1.00 24.62 LIG 0.16  HD
ATOM     44  C   PHE D   1      -9.635   0.432  11.670  1.00 23.06 LIG 0.25  C 
ATOM     45 O    PHE D   1      -9.115   0.167  12.750  1.00 27.40 LIG-0.27  OA
BRANCH 44 46
ATOM     46  CA  PHE D   1      -9.169   1.631  10.856  1.00 18.76 LIG 0.28  C 
BRANCH 46 47
ATOM     47  CB  PHE D   1      -8.534   1.259   9.518  1.00 12.58 LIG 0.08  C 
BRANCH 47 48
ATOM     48  CG  PHE D   1      -7.028   1.139   9.595  1.00 17.06 LIG-0.06  A 
ATOM     49  CD1 PHE D   1      -6.216   1.820   8.693  1.00 22.27 LIG 0.01  A 
ATOM     50  CE1 PHE D   1      -4.819   1.730   8.772  1.00 15.67 LIG 0.00  A 
ATOM     51  CZ  PHE D   1      -4.230   0.945   9.760  1.00 13.83 LIG 0.00  A 
ATOM     52  CE2 PHE D   1      -5.030   0.274  10.668  1.00 20.38 LIG 0.00  A 
ATOM     53  CD2 PHE D   1      -6.423   0.375  10.589  1.00 21.07 LIG 0.01  A 
ENDBRANCH 47 48
ENDBRANCH 46 47
BRANCH 46 54
ATOM     54  N   PHE D   1      -8.229   2.445  11.664  1.00 21.45 LIG-0.07  N 
ATOM     55 H2   PHE D   1      -8.552   3.270  11.754  1.00 21.45 LIG 0.28  HD
ATOM     56 H3   PHE D   1      -8.131   2.075  12.468  1.00 21.45 LIG 0.28  HD
ATOM     57 H1   PHE D   1      -7.439   2.479  11.256  1.00 21.45 LIG 0.28  HD
ENDBRANCH 46 54
ENDBRANCH 44 46
ENDBRANCH 1 42
TORSDOF 23
ENDMDL
MODEL 22
USER: ADFR SOLUTION from run 112
USER: SCORE 15.531490 LL:  -2.897 LR: -14.597 RR:   0.000 FEB:  -7.736
USER: RMSD 3.436878
USER: SEED 111
USER: STATUS no improvement in best in 19 clusters for 5 generations
USER: GENES 25
USER: genes 0 Translation |==|  0.45538 0.62314 0.45709
USER: genes 1 Rotation |==|  0.40243 0.41619 0.55468 0.98007
USER: genes 2 Torsion [C]-CA--CB-[CG] |==|  0.23740
USER: genes 3 Torsion [CA]-CB--CG-[CD] |==|  0.57610
USER: genes 4 Torsion [CB]-CG--CD-[NE] |==|  0.89034
USER: genes 5 Torsion [CG]-CD--NE-[HE] |==|  0.93477
USER: genes 6 Torsion [N]-CA--C-[N] |==|  0.48101
USER: genes 7 Torsion [C]-N--CA-[C] |==|  0.88068
USER: genes 8 Torsion [N]-CA--C-[N] |==|  0.37818
USER: genes 9 Torsion [C]-N--CA-[CB] |==|  0.54251
USER: genes 10 Torsion [N]-CA--CB-[CG] |==|  0.40595
USER: genes 11 Torsion [CA]-CB--CG-[CD] |==|  0.71669
USER: genes 12 Torsion [CB]-CG--CD-[CE] |==|  0.42032
USER: genes 13 Torsion [CG]-CD--CE-[NZ] |==|  0.57610
USER: genes 14 Torsion [CD]-CE--NZ-[HZ2] |==|  0.83296
USER: genes 15 Torsion [N]-CA--C-[N] |==|  0.84427
USER: genes 16 Torsion [C]-N--CA-[C] |==|  0.54133
USER: genes 17 Torsion [N]-CA--C-[O] |==|  0.73925
USER: genes 18 Torsion [N]-CA--CB-[OG] |==|  0.97084
USER: genes 19 Torsion [CA]-CB--OG-[HG] |==|  0.45330
USER: genes 20 Torsion [CB]-CA--N-[C] |==|  0.50000
USER: genes 21 Torsion [N]-C--CA-[N] |==|  0.36240
USER: genes 22 Torsion [C]-CA--CB-[CG] |==|  0.45354
USER: genes 23 Torsion [CA]-CB--CG-[CD1] |==|  0.91377
USER: genes 24 Torsion [C]-CA--N-[H2] |==|  0.79068
ROOT
ATOM      1  CA  ARG D   2     -12.534  -0.311  11.068  1.00 39.33 LIG 0.18  C 
ENDROOT
BRANCH 1 2
ATOM      2  CB  ARG D   2     -13.375  -0.622   9.842  1.00 35.05 LIG 0.04  C 
BRANCH 2 3
ATOM      3  CG  ARG D   2     -14.848  -0.631  10.148  1.00 57.88 LIG 0.02  C 
BRANCH 3 4
ATOM      4  CD  ARG D   2     -15.608  -1.542   9.202  1.00 90.52 LIG 0.14  C 
BRANCH 4 5
ATOM      5  NE  ARG D   2     -15.105  -1.454   7.832  1.00 84.14 LIG-0.23  N 
ATOM      6 HE   ARG D   2     -14.689  -0.736   7.604  1.00 84.14 LIG 0.18  HD
ATOM      7  CZ  ARG D   2     -15.245  -2.406   6.911  1.00 83.97 LIG 0.67  C 
ATOM      8  NH2 ARG D   2     -14.746  -2.226   5.694  1.00 60.39 LIG-0.23  N 
ATOM      9  NH1 ARG D   2     -15.889  -3.533   7.198  1.00 80.72 LIG-0.23  N 
ATOM     10 1HH2 ARG D   2     -14.334  -1.495   5.502  1.00 60.39 LIG 0.17  HD
ATOM     11 2HH2 ARG D   2     -14.835  -2.839   5.097  1.00 60.39 LIG 0.17  HD
ATOM     12 2HH1 ARG D   2     -15.975  -4.144   6.598  1.00 80.72 LIG 0.17  HD
ATOM     13 1HH1 ARG D   2     -16.219  -3.652   7.982  1.00 80.72 LIG 0.17  HD
ENDBRANCH 4 5
ENDBRANCH 3 4
ENDBRANCH 2 3
ENDBRANCH 1 2
BRANCH 1 14
ATOM     14  C   ARG D   2     -12.276  -1.586  11.843  1.00 29.38 LIG 0.24  C 
ATOM     15 O    ARG D   2     -11.141  -2.049  11.932  1.00 21.44 LIG-0.27  OA
ATOM     16  N   SER D   3     -13.327  -2.161  12.408  1.00 29.93 LIG-0.34  N 
ATOM     17 H    SER D   3     -14.123  -1.835  12.415  1.00 29.93 LIG 0.16  HD
BRANCH 16 18
ATOM     18  CA  SER D   3     -13.174  -3.443  13.080  1.00 48.61 LIG 0.20  C 
BRANCH 18 19
ATOM     19  C   SER D   3     -12.298  -4.349  12.236  1.00 58.83 LIG 0.24  C 
ATOM     20  N   LYS D   4     -11.367  -5.036  12.887  1.00 77.18 LIG-0.35  N 
ATOM     21 H    LYS D   4     -11.206  -4.957  13.729  1.00 77.18 LIG 0.16  HD
ATOM     22 O    SER D   3     -12.446  -4.407  11.016  1.00 53.61 LIG-0.27  OA
BRANCH 20 23
ATOM     23  CA  LYS D   4     -10.527  -6.004  12.197  1.00 70.35 LIG 0.18  C 
BRANCH 23 24
ATOM     24  CB  LYS D   4      -9.816  -6.918  13.198  1.00 80.12 LIG 0.04  C 
BRANCH 24 25
ATOM     25  CG  LYS D   4      -9.621  -8.339  12.687  1.00 84.36 LIG 0.00  C 
BRANCH 25 26
ATOM     26  CD  LYS D   4     -10.625  -9.312  13.274  1.00102.13 LIG 0.03  C 
BRANCH 26 27
ATOM     27  CE  LYS D   4     -10.891 -10.460  12.309  1.00 86.00 LIG 0.23  C 
BRANCH 27 28
ATOM     28  NZ  LYS D   4     -12.248 -11.043  12.490  1.00 85.97 LIG-0.08  N 
ATOM     29 HZ3  LYS D   4     -12.862 -10.414  12.351  1.00 85.97 LIG 0.27  HD
ATOM     30 HZ2  LYS D   4     -12.328 -11.357  13.319  1.00 85.97 LIG 0.27  HD
ATOM     31 HZ1  LYS D   4     -12.366 -11.707  11.910  1.00 85.97 LIG 0.27  HD
ENDBRANCH 27 28
ENDBRANCH 26 27
ENDBRANCH 25 26
ENDBRANCH 24 25
ENDBRANCH 23 24
BRANCH 23 32
ATOM     32  C   LYS D   4     -11.418  -6.811  11.266  1.00 69.25 LIG 0.24  C 
ATOM     33 O    LYS D   4     -11.189  -6.864  10.058  1.00 74.50 LIG-0.27  OA
ATOM     34  N   GLY D   5     -12.449  -7.422  11.843  1.00 72.69 LIG-0.35  N 
ATOM     35 H    GLY D   5     -12.595  -7.416  12.690  1.00 72.69 LIG 0.16  HD
BRANCH 34 36
ATOM     36  CA  GLY D   5     -13.431  -8.166  11.076  1.00 67.28 LIG 0.21  C 
BRANCH 36 37
ATOM     37  C   GLY D   5     -14.677  -8.456  11.888  1.00 69.64 LIG 0.21  C 
ATOM     38 O    GLY D   5     -14.798  -9.517  12.503  1.00 73.82 LIG-0.29  OA
ENDBRANCH 36 37
ENDBRANCH 34 36
ENDBRANCH 23 32
ENDBRANCH 20 23
ENDBRANCH 18 19
BRANCH 18 39
ATOM     39  CB  SER D   3     -14.529  -4.088  13.312  1.00 47.59 LIG 0.20  C 
BRANCH 39 40
ATOM     40 OG   SER D   3     -15.562  -3.163  13.032  1.00 55.88 LIG-0.40  OA
ATOM     41 HG   SER D   3     -16.288  -3.574  12.937  1.00 55.88 LIG 0.21  HD
ENDBRANCH 39 40
ENDBRANCH 18 39
ENDBRANCH 16 18
ENDBRANCH 1 14
BRANCH 1 42
ATOM     42  N   ARG D   2     -11.279   0.271  10.655  1.00 24.62 LIG-0.35  N 
ATOM     43 H    ARG D   2     -11.185   0.359   9.804  1.00 24.62 LIG 0.16  HD
ATOM     44  C   PHE D   1     -10.374   0.629  11.545  1.00 23.06 LIG 0.25  C 
ATOM     45 O    PHE D   1     -10.533   0.486  12.754  1.00 27.40 LIG-0.27  OA
BRANCH 44 46
ATOM     46  CA  PHE D   1      -9.137   1.330  11.001  1.00 18.76 LIG 0.28  C 
BRANCH 46 47
ATOM     47  CB  PHE D   1      -7.889   0.451  10.982  1.00 12.58 LIG 0.08  C 
BRANCH 47 48
ATOM     48  CG  PHE D   1      -6.798   0.999  10.089  1.00 17.06 LIG-0.06  A 
ATOM     49  CD1 PHE D   1      -7.115   1.738   8.953  1.00 22.27 LIG 0.01  A 
ATOM     50  CE1 PHE D   1      -6.109   2.267   8.134  1.00 15.67 LIG 0.00  A 
ATOM     51  CZ  PHE D   1      -4.770   2.048   8.452  1.00 13.83 LIG 0.00  A 
ATOM     52  CE2 PHE D   1      -4.445   1.325   9.585  1.00 20.38 LIG 0.00  A 
ATOM     53  CD2 PHE D   1      -5.454   0.807  10.404  1.00 21.07 LIG 0.01  A 
ENDBRANCH 47 48
ENDBRANCH 46 47
BRANCH 46 54
ATOM     54  N   PHE D   1      -8.885   2.567  11.777  1.00 21.45 LIG-0.07  N 
ATOM     55 H2   PHE D   1      -9.470   3.194  11.536  1.00 21.45 LIG 0.28  HD
ATOM     56 H3   PHE D   1      -8.975   2.396  12.646  1.00 21.45 LIG 0.28  HD
ATOM     57 H1   PHE D   1      -8.059   2.856  11.616  1.00 21.45 LIG 0.28  HD
ENDBRANCH 46 54
ENDBRANCH 44 46
ENDBRANCH 1 42
TORSDOF 23
ENDMDL
MODEL 23
USER: ADFR SOLUTION from run 152
USER: SCORE 16.007222 LL:  -3.395 LR: -14.514 RR:   0.000 FEB:  -7.653
USER: RMSD 3.395957
USER: SEED 151
USER: STATUS searching
USER: GENES 25
USER: genes 0 Translation |==|  0.46410 0.62745 0.45644
USER: genes 1 Rotation |==|  0.38773 0.40009 0.57467 0.97100
USER: genes 2 Torsion [C]-CA--CB-[CG] |==|  0.06994
USER: genes 3 Torsion [CA]-CB--CG-[CD] |==|  0.40621
USER: genes 4 Torsion [CB]-CG--CD-[NE] |==|  0.13834
USER: genes 5 Torsion [CG]-CD--NE-[HE] |==|  0.83731
USER: genes 6 Torsion [N]-CA--C-[N] |==|  0.36111
USER: genes 7 Torsion [C]-N--CA-[C] |==|  0.85992
USER: genes 8 Torsion [N]-CA--C-[N] |==|  0.35137
USER: genes 9 Torsion [C]-N--CA-[CB] |==|  0.41017
USER: genes 10 Torsion [N]-CA--CB-[CG] |==|  0.25700
USER: genes 11 Torsion [CA]-CB--CG-[CD] |==|  0.60900
USER: genes 12 Torsion [CB]-CG--CD-[CE] |==|  0.31394
USER: genes 13 Torsion [CG]-CD--CE-[NZ] |==|  0.96392
USER: genes 14 Torsion [CD]-CE--NZ-[HZ2] |==|  0.88560
USER: genes 15 Torsion [N]-CA--C-[N] |==|  0.93027
USER: genes 16 Torsion [C]-N--CA-[C] |==|  0.32356
USER: genes 17 Torsion [N]-CA--C-[O] |==|  0.06486
USER: genes 18 Torsion [N]-CA--CB-[OG] |==|  0.97270
USER: genes 19 Torsion [CA]-CB--OG-[HG] |==|  0.51963
USER: genes 20 Torsion [CB]-CA--N-[C] |==|  0.52222
USER: genes 21 Torsion [N]-C--CA-[N] |==|  0.34046
USER: genes 22 Torsion [C]-CA--CB-[CG] |==|  0.42030
USER: genes 23 Torsion [CA]-CB--CG-[CD1] |==|  0.94638
USER: genes 24 Torsion [C]-CA--N-[H2] |==|  0.81623
ROOT
ATOM      1  CA  ARG D   2     -12.345  -0.224  11.055  1.00 39.33 LIG 0.18  C 
ENDROOT
BRANCH 1 2
ATOM      2  CB  ARG D   2     -13.080  -0.687   9.810  1.00 35.05 LIG 0.04  C 
BRANCH 2 3
ATOM      3  CG  ARG D   2     -13.815  -1.982  10.029  1.00 57.88 LIG 0.02  C 
BRANCH 3 4
ATOM      4  CD  ARG D   2     -15.101  -2.035   9.228  1.00 90.52 LIG 0.14  C 
BRANCH 4 5
ATOM      5  NE  ARG D   2     -14.890  -1.682   7.825  1.00 84.14 LIG-0.23  N 
ATOM      6 HE   ARG D   2     -14.559  -0.907   7.653  1.00 84.14 LIG 0.18  HD
ATOM      7  CZ  ARG D   2     -15.174  -2.475   6.793  1.00 83.97 LIG 0.67  C 
ATOM      8  NH2 ARG D   2     -14.939  -2.058   5.555  1.00 60.39 LIG-0.23  N 
ATOM      9  NH1 ARG D   2     -15.701  -3.680   6.992  1.00 80.72 LIG-0.23  N 
ATOM     10 1HH2 ARG D   2     -14.605  -1.276   5.421  1.00 60.39 LIG 0.17  HD
ATOM     11 2HH2 ARG D   2     -15.122  -2.567   4.887  1.00 60.39 LIG 0.17  HD
ATOM     12 2HH1 ARG D   2     -15.881  -4.186   6.322  1.00 80.72 LIG 0.17  HD
ATOM     13 1HH1 ARG D   2     -15.860  -3.952   7.792  1.00 80.72 LIG 0.17  HD
ENDBRANCH 4 5
ENDBRANCH 3 4
ENDBRANCH 2 3
ENDBRANCH 1 2
BRANCH 1 14
ATOM     14  C   ARG D   2     -12.032  -1.417  11.933  1.00 29.38 LIG 0.24  C 
ATOM     15 O    ARG D   2     -11.191  -2.246  11.591  1.00 21.44 LIG-0.27  OA
ATOM     16  N   SER D   3     -12.706  -1.511  13.069  1.00 29.93 LIG-0.34  N 
ATOM     17 H    SER D   3     -13.257  -0.921  13.366  1.00 29.93 LIG 0.16  HD
BRANCH 16 18
ATOM     18  CA  SER D   3     -12.535  -2.683  13.915  1.00 48.61 LIG 0.20  C 
BRANCH 18 19
ATOM     19  C   SER D   3     -12.707  -3.935  13.075  1.00 58.83 LIG 0.24  C 
ATOM     20  N   LYS D   4     -11.718  -4.819  13.133  1.00 77.18 LIG-0.35  N 
ATOM     21 H    LYS D   4     -10.985  -4.698  13.567  1.00 77.18 LIG 0.16  HD
ATOM     22 O    SER D   3     -13.705  -4.087  12.371  1.00 53.61 LIG-0.27  OA
BRANCH 20 23
ATOM     23  CA  LYS D   4     -11.811  -6.097  12.441  1.00 70.35 LIG 0.18  C 
BRANCH 23 24
ATOM     24  CB  LYS D   4     -10.431  -6.561  11.969  1.00 80.12 LIG 0.04  C 
BRANCH 24 25
ATOM     25  CG  LYS D   4      -9.721  -7.464  12.968  1.00 84.36 LIG 0.00  C 
BRANCH 25 26
ATOM     26  CD  LYS D   4      -8.235  -7.179  13.057  1.00102.13 LIG 0.03  C 
BRANCH 26 27
ATOM     27  CE  LYS D   4      -7.877  -6.604  14.421  1.00 86.00 LIG 0.23  C 
BRANCH 27 28
ATOM     28  NZ  LYS D   4      -9.082  -6.184  15.187  1.00 85.97 LIG-0.08  N 
ATOM     29 HZ3  LYS D   4      -9.469  -6.900  15.547  1.00 85.97 LIG 0.27  HD
ATOM     30 HZ2  LYS D   4      -9.655  -5.780  14.640  1.00 85.97 LIG 0.27  HD
ATOM     31 HZ1  LYS D   4      -8.842  -5.620  15.832  1.00 85.97 LIG 0.27  HD
ENDBRANCH 27 28
ENDBRANCH 26 27
ENDBRANCH 25 26
ENDBRANCH 24 25
ENDBRANCH 23 24
BRANCH 23 32
ATOM     32  C   LYS D   4     -12.419  -7.103  13.406  1.00 69.25 LIG 0.24  C 
ATOM     33 O    LYS D   4     -13.038  -8.083  12.993  1.00 74.50 LIG-0.27  OA
ATOM     34  N   GLY D   5     -12.249  -6.836  14.698  1.00 72.69 LIG-0.35  N 
ATOM     35 H    GLY D   5     -11.790  -6.172  14.992  1.00 72.69 LIG 0.16  HD
BRANCH 34 36
ATOM     36  CA  GLY D   5     -12.835  -7.661  15.738  1.00 67.28 LIG 0.21  C 
BRANCH 36 37
ATOM     37  C   GLY D   5     -11.775  -8.328  16.592  1.00 69.64 LIG 0.21  C 
ATOM     38 O    GLY D   5     -10.641  -7.853  16.676  1.00 73.82 LIG-0.29  OA
ENDBRANCH 36 37
ENDBRANCH 34 36
ENDBRANCH 23 32
ENDBRANCH 20 23
ENDBRANCH 18 19
BRANCH 18 39
ATOM     39  CB  SER D   3     -13.540  -2.670  15.053  1.00 47.59 LIG 0.20  C 
BRANCH 39 40
ATOM     40 OG   SER D   3     -14.203  -1.422  15.102  1.00 55.88 LIG-0.40  OA
ATOM     41 HG   SER D   3     -14.685  -1.387  15.789  1.00 55.88 LIG 0.21  HD
ENDBRANCH 39 40
ENDBRANCH 18 39
ENDBRANCH 16 18
ENDBRANCH 1 14
BRANCH 1 42
ATOM     42  N   ARG D   2     -11.118   0.435  10.671  1.00 24.62 LIG-0.35  N 
ATOM     43 H    ARG D   2     -11.030   0.569   9.826  1.00 24.62 LIG 0.16  HD
ATOM     44  C   PHE D   1     -10.228   0.787  11.579  1.00 23.06 LIG 0.25  C 
ATOM     45 O    PHE D   1     -10.377   0.578  12.779  1.00 27.40 LIG-0.27  OA
BRANCH 44 46
ATOM     46  CA  PHE D   1      -9.025   1.570  11.069  1.00 18.76 LIG 0.28  C 
BRANCH 46 47
ATOM     47  CB  PHE D   1      -7.704   0.813  11.185  1.00 12.58 LIG 0.08  C 
BRANCH 47 48
ATOM     48  CG  PHE D   1      -6.699   1.221  10.130  1.00 17.06 LIG-0.06  A 
ATOM     49  CD1 PHE D   1      -7.113   1.867   8.969  1.00 22.27 LIG 0.01  A 
ATOM     50  CE1 PHE D   1      -6.186   2.267   7.998  1.00 15.67 LIG 0.00  A 
ATOM     51  CZ  PHE D   1      -4.829   2.009   8.187  1.00 13.83 LIG 0.00  A 
ATOM     52  CE2 PHE D   1      -4.408   1.376   9.342  1.00 20.38 LIG 0.00  A 
ATOM     53  CD2 PHE D   1      -5.338   0.988  10.312  1.00 21.07 LIG 0.01  A 
ENDBRANCH 47 48
ENDBRANCH 46 47
BRANCH 46 54
ATOM     54  N   PHE D   1      -8.940   2.868  11.781  1.00 21.45 LIG-0.07  N 
ATOM     55 H2   PHE D   1      -9.640   3.373  11.562  1.00 21.45 LIG 0.28  HD
ATOM     56 H3   PHE D   1      -8.940   2.726  12.659  1.00 21.45 LIG 0.28  HD
ATOM     57 H1   PHE D   1      -8.189   3.285  11.548  1.00 21.45 LIG 0.28  HD
ENDBRANCH 46 54
ENDBRANCH 44 46
ENDBRANCH 1 42
TORSDOF 23
ENDMDL
MODEL 24
USER: ADFR SOLUTION from run 49
USER: SCORE 14.517000 LL:  -2.653 LR: -14.441 RR:   0.000 FEB:  -7.580
USER: RMSD 5.390102
USER: SEED 48
USER: STATUS no improvement in best in 43 clusters for 5 generations
USER: GENES 25
USER: genes 0 Translation |==|  0.50180 0.59703 0.49731
USER: genes 1 Rotation |==|  0.62505 0.58691 0.39058 0.96351
USER: genes 2 Torsion [C]-CA--CB-[CG] |==|  0.28336
USER: genes 3 Torsion [CA]-CB--CG-[CD] |==|  0.28254
USER: genes 4 Torsion [CB]-CG--CD-[NE] |==|  0.00344
USER: genes 5 Torsion [CG]-CD--NE-[HE] |==|  0.89459
USER: genes 6 Torsion [N]-CA--C-[N] |==|  0.25433
USER: genes 7 Torsion [C]-N--CA-[C] |==|  0.75372
USER: genes 8 Torsion [N]-CA--C-[N] |==|  0.88099
USER: genes 9 Torsion [C]-N--CA-[CB] |==|  0.49344
USER: genes 10 Torsion [N]-CA--CB-[CG] |==|  0.39882
USER: genes 11 Torsion [CA]-CB--CG-[CD] |==|  0.62514
USER: genes 12 Torsion [CB]-CG--CD-[CE] |==|  0.19324
USER: genes 13 Torsion [CG]-CD--CE-[NZ] |==|  0.37558
USER: genes 14 Torsion [CD]-CE--NZ-[HZ2] |==|  0.81673
USER: genes 15 Torsion [N]-CA--C-[N] |==|  0.87512
USER: genes 16 Torsion [C]-N--CA-[C] |==|  0.80631
USER: genes 17 Torsion [N]-CA--C-[O] |==|  0.19301
USER: genes 18 Torsion [N]-CA--CB-[OG] |==|  0.67146
USER: genes 19 Torsion [CA]-CB--OG-[HG] |==|  0.60697
USER: genes 20 Torsion [CB]-CA--N-[C] |==|  0.21111
USER: genes 21 Torsion [N]-C--CA-[N] |==|  0.21345
USER: genes 22 Torsion [C]-CA--CB-[CG] |==|  0.45197
USER: genes 23 Torsion [CA]-CB--CG-[CD1] |==|  0.16852
USER: genes 24 Torsion [C]-CA--N-[H2] |==|  0.72082
ROOT
ATOM      1  CA  ARG D   2     -11.525  -0.840  11.882  1.00 39.33 LIG 0.18  C 
ENDROOT
BRANCH 1 2
ATOM      2  CB  ARG D   2     -12.551   0.278  11.833  1.00 35.05 LIG 0.04  C 
BRANCH 2 3
ATOM      3  CG  ARG D   2     -13.138   0.575  13.186  1.00 57.88 LIG 0.02  C 
BRANCH 3 4
ATOM      4  CD  ARG D   2     -12.520   1.816  13.801  1.00 90.52 LIG 0.14  C 
BRANCH 4 5
ATOM      5  NE  ARG D   2     -11.531   2.433  12.917  1.00 84.14 LIG-0.23  N 
ATOM      6 HE   ARG D   2     -11.024   1.911  12.459  1.00 84.14 LIG 0.18  HD
ATOM      7  CZ  ARG D   2     -11.361   3.746  12.772  1.00 83.97 LIG 0.67  C 
ATOM      8  NH2 ARG D   2     -10.434   4.203  11.938  1.00 60.39 LIG-0.23  N 
ATOM      9  NH1 ARG D   2     -12.105   4.604  13.462  1.00 80.72 LIG-0.23  N 
ATOM     10 1HH2 ARG D   2      -9.945   3.651  11.494  1.00 60.39 LIG 0.17  HD
ATOM     11 2HH2 ARG D   2     -10.321   5.050  11.842  1.00 60.39 LIG 0.17  HD
ATOM     12 2HH1 ARG D   2     -11.990   5.451  13.362  1.00 80.72 LIG 0.17  HD
ATOM     13 1HH1 ARG D   2     -12.702   4.313  14.007  1.00 80.72 LIG 0.17  HD
ENDBRANCH 4 5
ENDBRANCH 3 4
ENDBRANCH 2 3
ENDBRANCH 1 2
BRANCH 1 14
ATOM     14  C   ARG D   2     -12.147  -2.123  11.375  1.00 29.38 LIG 0.24  C 
ATOM     15 O    ARG D   2     -13.019  -2.101  10.510  1.00 21.44 LIG-0.27  OA
ATOM     16  N   SER D   3     -11.703  -3.251  11.911  1.00 29.93 LIG-0.34  N 
ATOM     17 H    SER D   3     -11.056  -3.307  12.474  1.00 29.93 LIG 0.16  HD
BRANCH 16 18
ATOM     18  CA  SER D   3     -12.327  -4.516  11.549  1.00 48.61 LIG 0.20  C 
BRANCH 18 19
ATOM     19  C   SER D   3     -13.489  -4.786  12.485  1.00 58.83 LIG 0.24  C 
ATOM     20  N   LYS D   4     -13.277  -4.531  13.771  1.00 77.18 LIG-0.35  N 
ATOM     21 H    LYS D   4     -12.522  -4.279  14.097  1.00 77.18 LIG 0.16  HD
ATOM     22 O    SER D   3     -14.550  -5.238  12.055  1.00 53.61 LIG-0.27  OA
BRANCH 20 23
ATOM     23  CA  LYS D   4     -14.346  -4.667  14.750  1.00 70.35 LIG 0.18  C 
BRANCH 23 24
ATOM     24  CB  LYS D   4     -13.831  -4.374  16.161  1.00 80.12 LIG 0.04  C 
BRANCH 24 25
ATOM     25  CG  LYS D   4     -14.845  -3.650  17.037  1.00 84.36 LIG 0.00  C 
BRANCH 25 26
ATOM     26  CD  LYS D   4     -14.231  -2.499  17.809  1.00102.13 LIG 0.03  C 
BRANCH 26 27
ATOM     27  CE  LYS D   4     -13.852  -1.361  16.868  1.00 86.00 LIG 0.23  C 
BRANCH 27 28
ATOM     28  NZ  LYS D   4     -14.262  -0.033  17.401  1.00 85.97 LIG-0.08  N 
ATOM     29 HZ3  LYS D   4     -13.932   0.073  18.221  1.00 85.97 LIG 0.27  HD
ATOM     30 HZ2  LYS D   4     -15.150   0.013  17.430  1.00 85.97 LIG 0.27  HD
ATOM     31 HZ1  LYS D   4     -13.950   0.609  16.869  1.00 85.97 LIG 0.27  HD
ENDBRANCH 27 28
ENDBRANCH 26 27
ENDBRANCH 25 26
ENDBRANCH 24 25
ENDBRANCH 23 24
BRANCH 23 32
ATOM     32  C   LYS D   4     -15.452  -3.698  14.365  1.00 69.25 LIG 0.24  C 
ATOM     33 O    LYS D   4     -16.631  -4.053  14.357  1.00 74.50 LIG-0.27  OA
ATOM     34  N   GLY D   5     -15.055  -2.474  14.029  1.00 72.69 LIG-0.35  N 
ATOM     35 H    GLY D   5     -14.237  -2.211  14.064  1.00 72.69 LIG 0.16  HD
BRANCH 34 36
ATOM     36  CA  GLY D   5     -15.985  -1.461  13.566  1.00 67.28 LIG 0.21  C 
BRANCH 36 37
ATOM     37  C   GLY D   5     -16.531  -1.786  12.190  1.00 69.64 LIG 0.21  C 
ATOM     38 O    GLY D   5     -17.305  -2.731  12.024  1.00 73.82 LIG-0.29  OA
ENDBRANCH 36 37
ENDBRANCH 34 36
ENDBRANCH 23 32
ENDBRANCH 20 23
ENDBRANCH 18 19
BRANCH 18 39
ATOM     39  CB  SER D   3     -11.316  -5.647  11.623  1.00 47.59 LIG 0.20  C 
BRANCH 39 40
ATOM     40 OG   SER D   3     -11.153  -6.237  10.348  1.00 55.88 LIG-0.40  OA
ATOM     41 HG   SER D   3     -11.071  -7.069  10.432  1.00 55.88 LIG 0.21  HD
ENDBRANCH 39 40
ENDBRANCH 18 39
ENDBRANCH 16 18
ENDBRANCH 1 14
BRANCH 1 42
ATOM     42  N   ARG D   2     -10.391  -0.489  11.059  1.00 24.62 LIG-0.35  N 
ATOM     43 H    ARG D   2     -10.356  -0.895  10.302  1.00 24.62 LIG 0.16  HD
ATOM     44  C   PHE D   1      -9.502   0.392  11.474  1.00 23.06 LIG 0.25  C 
ATOM     45 O    PHE D   1      -9.573   0.952  12.564  1.00 27.40 LIG-0.27  OA
BRANCH 44 46
ATOM     46  CA  PHE D   1      -8.411   0.763  10.479  1.00 18.76 LIG 0.28  C 
BRANCH 46 47
ATOM     47  CB  PHE D   1      -7.162   1.357  11.127  1.00 12.58 LIG 0.08  C 
BRANCH 47 48
ATOM     48  CG  PHE D   1      -5.957   1.332  10.213  1.00 17.06 LIG-0.06  A 
ATOM     49  CD1 PHE D   1      -5.975   2.011   8.998  1.00 22.27 LIG 0.01  A 
ATOM     50  CE1 PHE D   1      -4.854   2.010   8.156  1.00 15.67 LIG 0.00  A 
ATOM     51  CZ  PHE D   1      -3.707   1.314   8.531  1.00 13.83 LIG 0.00  A 
ATOM     52  CE2 PHE D   1      -3.677   0.646   9.741  1.00 20.38 LIG 0.00  A 
ATOM     53  CD2 PHE D   1      -4.795   0.658  10.581  1.00 21.07 LIG 0.01  A 
ENDBRANCH 47 48
ENDBRANCH 46 47
BRANCH 46 54
ATOM     54  N   PHE D   1      -8.959   1.695   9.465  1.00 21.45 LIG-0.07  N 
ATOM     55 H2   PHE D   1      -9.146   1.246   8.719  1.00 21.45 LIG 0.28  HD
ATOM     56 H3   PHE D   1      -9.702   2.071   9.779  1.00 21.45 LIG 0.28  HD
ATOM     57 H1   PHE D   1      -8.359   2.327   9.287  1.00 21.45 LIG 0.28  HD
ENDBRANCH 46 54
ENDBRANCH 44 46
ENDBRANCH 1 42
TORSDOF 23
ENDMDL
MODEL 25
USER: ADFR SOLUTION from run 66
USER: SCORE 15.680497 LL:  -3.328 LR: -14.416 RR:   0.000 FEB:  -7.555
USER: RMSD 4.004593
USER: SEED 65
USER: STATUS no improvement in best in 31 clusters for 5 generations
USER: GENES 25
USER: genes 0 Translation |==|  0.46408 0.62134 0.46022
USER: genes 1 Rotation |==|  0.36255 0.39372 0.58403 0.96125
USER: genes 2 Torsion [C]-CA--CB-[CG] |==|  0.26156
USER: genes 3 Torsion [CA]-CB--CG-[CD] |==|  0.99480
USER: genes 4 Torsion [CB]-CG--CD-[NE] |==|  0.21013
USER: genes 5 Torsion [CG]-CD--NE-[HE] |==|  0.05375
USER: genes 6 Torsion [N]-CA--C-[N] |==|  0.35114
USER: genes 7 Torsion [C]-N--CA-[C] |==|  0.86842
USER: genes 8 Torsion [N]-CA--C-[N] |==|  0.35212
USER: genes 9 Torsion [C]-N--CA-[CB] |==|  0.35907
USER: genes 10 Torsion [N]-CA--CB-[CG] |==|  0.30451
USER: genes 11 Torsion [CA]-CB--CG-[CD] |==|  0.61175
USER: genes 12 Torsion [CB]-CG--CD-[CE] |==|  0.34741
USER: genes 13 Torsion [CG]-CD--CE-[NZ] |==|  0.85971
USER: genes 14 Torsion [CD]-CE--NZ-[HZ2] |==|  0.61916
USER: genes 15 Torsion [N]-CA--C-[N] |==|  0.88546
USER: genes 16 Torsion [C]-N--CA-[C] |==|  0.51337
USER: genes 17 Torsion [N]-CA--C-[O] |==|  0.89187
USER: genes 18 Torsion [N]-CA--CB-[OG] |==|  0.04683
USER: genes 19 Torsion [CA]-CB--OG-[HG] |==|  0.43686
USER: genes 20 Torsion [CB]-CA--N-[C] |==|  0.52570
USER: genes 21 Torsion [N]-C--CA-[N] |==|  0.35570
USER: genes 22 Torsion [C]-CA--CB-[CG] |==|  0.42625
USER: genes 23 Torsion [CA]-CB--CG-[CD1] |==|  0.93896
USER: genes 24 Torsion [C]-CA--N-[H2] |==|  0.81334
ROOT
ATOM      1  CA  ARG D   2     -12.345  -0.348  11.131  1.00 39.33 LIG 0.18  C 
ENDROOT
BRANCH 1 2
ATOM      2  CB  ARG D   2     -13.019  -0.962   9.917  1.00 35.05 LIG 0.04  C 
BRANCH 2 3
ATOM      3  CG  ARG D   2     -14.519  -0.904  10.007  1.00 57.88 LIG 0.02  C 
BRANCH 3 4
ATOM      4  CD  ARG D   2     -14.976  -0.284  11.313  1.00 90.52 LIG 0.14  C 
BRANCH 4 5
ATOM      5  NE  ARG D   2     -14.809   1.169  11.321  1.00 84.14 LIG-0.23  N 
ATOM      6 HE   ARG D   2     -14.728   1.566  10.562  1.00 84.14 LIG 0.18  HD
ATOM      7  CZ  ARG D   2     -14.772   1.921  12.420  1.00 83.97 LIG 0.67  C 
ATOM      8  NH2 ARG D   2     -14.619   3.236  12.315  1.00 60.39 LIG-0.23  N 
ATOM      9  NH1 ARG D   2     -14.878   1.365  13.622  1.00 80.72 LIG-0.23  N 
ATOM     10 1HH2 ARG D   2     -14.543   3.599  11.538  1.00 60.39 LIG 0.17  HD
ATOM     11 2HH2 ARG D   2     -14.594   3.724  13.022  1.00 60.39 LIG 0.17  HD
ATOM     12 2HH1 ARG D   2     -14.854   1.857  14.327  1.00 80.72 LIG 0.17  HD
ATOM     13 1HH1 ARG D   2     -14.971   0.514  13.696  1.00 80.72 LIG 0.17  HD
ENDBRANCH 4 5
ENDBRANCH 3 4
ENDBRANCH 2 3
ENDBRANCH 1 2
BRANCH 1 14
ATOM     14  C   ARG D   2     -12.038  -1.431  12.144  1.00 29.38 LIG 0.24  C 
ATOM     15 O    ARG D   2     -11.211  -2.306  11.898  1.00 21.44 LIG-0.27  OA
ATOM     16  N   SER D   3     -12.702  -1.379  13.289  1.00 29.93 LIG-0.34  N 
ATOM     17 H    SER D   3     -13.243  -0.750  13.517  1.00 29.93 LIG 0.16  HD
BRANCH 16 18
ATOM     18  CA  SER D   3     -12.537  -2.444  14.267  1.00 48.61 LIG 0.20  C 
BRANCH 18 19
ATOM     19  C   SER D   3     -12.657  -3.786  13.571  1.00 58.83 LIG 0.24  C 
ATOM     20  N   LYS D   4     -11.656  -4.638  13.764  1.00 77.18 LIG-0.35  N 
ATOM     21 H    LYS D   4     -10.942  -4.453  14.207  1.00 77.18 LIG 0.16  HD
ATOM     22 O    SER D   3     -13.625  -4.038  12.854  1.00 53.61 LIG-0.27  OA
BRANCH 20 23
ATOM     23  CA  LYS D   4     -11.703  -5.987  13.221  1.00 70.35 LIG 0.18  C 
BRANCH 23 24
ATOM     24  CB  LYS D   4     -10.421  -6.305  12.446  1.00 80.12 LIG 0.04  C 
BRANCH 24 25
ATOM     25  CG  LYS D   4      -9.528  -7.322  13.144  1.00 84.36 LIG 0.00  C 
BRANCH 25 26
ATOM     26  CD  LYS D   4      -8.057  -6.973  13.040  1.00102.13 LIG 0.03  C 
BRANCH 26 27
ATOM     27  CE  LYS D   4      -7.420  -6.906  14.423  1.00 86.00 LIG 0.23  C 
BRANCH 27 28
ATOM     28  NZ  LYS D   4      -8.197  -6.049  15.358  1.00 85.97 LIG-0.08  N 
ATOM     29 HZ3  LYS D   4      -8.753  -5.531  14.893  1.00 85.97 LIG 0.27  HD
ATOM     30 HZ2  LYS D   4      -7.639  -5.538  15.827  1.00 85.97 LIG 0.27  HD
ATOM     31 HZ1  LYS D   4      -8.665  -6.563  15.913  1.00 85.97 LIG 0.27  HD
ENDBRANCH 27 28
ENDBRANCH 26 27
ENDBRANCH 25 26
ENDBRANCH 24 25
ENDBRANCH 23 24
BRANCH 23 32
ATOM     32  C   LYS D   4     -11.884  -6.949  14.384  1.00 69.25 LIG 0.24  C 
ATOM     33 O    LYS D   4     -12.659  -7.902  14.304  1.00 74.50 LIG-0.27  OA
ATOM     34  N   GLY D   5     -11.172  -6.676  15.474  1.00 72.69 LIG-0.35  N 
ATOM     35 H    GLY D   5     -10.605  -6.031  15.525  1.00 72.69 LIG 0.16  HD
BRANCH 34 36
ATOM     36  CA  GLY D   5     -11.295  -7.457  16.691  1.00 67.28 LIG 0.21  C 
BRANCH 36 37
ATOM     37  C   GLY D   5     -10.468  -6.873  17.819  1.00 69.64 LIG 0.21  C 
ATOM     38 O    GLY D   5      -9.351  -6.399  17.604  1.00 73.82 LIG-0.29  OA
ENDBRANCH 36 37
ENDBRANCH 34 36
ENDBRANCH 23 32
ENDBRANCH 20 23
ENDBRANCH 18 19
BRANCH 18 39
ATOM     39  CB  SER D   3     -13.580  -2.324  15.365  1.00 47.59 LIG 0.20  C 
BRANCH 39 40
ATOM     40 OG   SER D   3     -14.634  -1.480  14.945  1.00 55.88 LIG-0.40  OA
ATOM     41 HG   SER D   3     -15.326  -1.652  15.388  1.00 55.88 LIG 0.21  HD
ENDBRANCH 39 40
ENDBRANCH 18 39
ENDBRANCH 16 18
ENDBRANCH 1 14
BRANCH 1 42
ATOM     42  N   ARG D   2     -11.121   0.301  10.725  1.00 24.62 LIG-0.35  N 
ATOM     43 H    ARG D   2     -11.010   0.362   9.874  1.00 24.62 LIG 0.16  HD
ATOM     44  C   PHE D   1     -10.265   0.752  11.621  1.00 23.06 LIG 0.25  C 
ATOM     45 O    PHE D   1     -10.445   0.646  12.831  1.00 27.40 LIG-0.27  OA
BRANCH 44 46
ATOM     46  CA  PHE D   1      -9.063   1.513  11.078  1.00 18.76 LIG 0.28  C 
BRANCH 46 47
ATOM     47  CB  PHE D   1      -7.749   0.741  11.177  1.00 12.58 LIG 0.08  C 
BRANCH 47 48
ATOM     48  CG  PHE D   1      -6.742   1.159  10.129  1.00 17.06 LIG-0.06  A 
ATOM     49  CD1 PHE D   1      -7.157   1.783   8.955  1.00 22.27 LIG 0.01  A 
ATOM     50  CE1 PHE D   1      -6.227   2.191   7.990  1.00 15.67 LIG 0.00  A 
ATOM     51  CZ  PHE D   1      -4.868   1.967   8.198  1.00 13.83 LIG 0.00  A 
ATOM     52  CE2 PHE D   1      -4.446   1.357   9.365  1.00 20.38 LIG 0.00  A 
ATOM     53  CD2 PHE D   1      -5.378   0.960  10.330  1.00 21.07 LIG 0.01  A 
ENDBRANCH 47 48
ENDBRANCH 46 47
BRANCH 46 54
ATOM     54  N   PHE D   1      -8.947   2.819  11.770  1.00 21.45 LIG-0.07  N 
ATOM     55 H2   PHE D   1      -9.637   3.335  11.546  1.00 21.45 LIG 0.28  HD
ATOM     56 H3   PHE D   1      -8.947   2.690  12.650  1.00 21.45 LIG 0.28  HD
ATOM     57 H1   PHE D   1      -8.189   3.217  11.528  1.00 21.45 LIG 0.28  HD
ENDBRANCH 46 54
ENDBRANCH 44 46
ENDBRANCH 1 42
TORSDOF 23
ENDMDL
MODEL 26
USER: ADFR SOLUTION from run 9
USER: SCORE 15.028242 LL:  -2.460 LR: -14.422 RR:   0.000 FEB:  -7.561
USER: RMSD 5.181307
USER: SEED 131457
USER: STATUS searching
USER: GENES 25
USER: genes 0 Translation |==|  0.46463 0.61310 0.47387
USER: genes 1 Rotation |==|  0.22544 0.34358 0.61795 0.86910
USER: genes 2 Torsion [C]-CA--CB-[CG] |==|  0.28615
USER: genes 3 Torsion [CA]-CB--CG-[CD] |==|  0.20130
USER: genes 4 Torsion [CB]-CG--CD-[NE] |==|  0.75738
USER: genes 5 Torsion [CG]-CD--NE-[HE] |==|  0.28615
USER: genes 6 Torsion [N]-CA--C-[N] |==|  0.48485
USER: genes 7 Torsion [C]-N--CA-[C] |==|  0.83652
USER: genes 8 Torsion [N]-CA--C-[N] |==|  0.44222
USER: genes 9 Torsion [C]-N--CA-[CB] |==|  0.50759
USER: genes 10 Torsion [N]-CA--CB-[CG] |==|  0.90933
USER: genes 11 Torsion [CA]-CB--CG-[CD] |==|  0.78374
USER: genes 12 Torsion [CB]-CG--CD-[CE] |==|  0.52048
USER: genes 13 Torsion [CG]-CD--CE-[NZ] |==|  0.52207
USER: genes 14 Torsion [CD]-CE--NZ-[HZ2] |==|  0.54885
USER: genes 15 Torsion [N]-CA--C-[N] |==|  0.88927
USER: genes 16 Torsion [C]-N--CA-[C] |==|  0.56919
USER: genes 17 Torsion [N]-CA--C-[O] |==|  0.96488
USER: genes 18 Torsion [N]-CA--CB-[OG] |==|  0.11860
USER: genes 19 Torsion [CA]-CB--OG-[HG] |==|  0.66922
USER: genes 20 Torsion [CB]-CA--N-[C] |==|  0.51115
USER: genes 21 Torsion [N]-C--CA-[N] |==|  0.49004
USER: genes 22 Torsion [C]-CA--CB-[CG] |==|  0.45191
USER: genes 23 Torsion [CA]-CB--CG-[CD1] |==|  0.89476
USER: genes 24 Torsion [C]-CA--N-[H2] |==|  0.81941
ROOT
ATOM      1  CA  ARG D   2     -12.333  -0.515  11.408  1.00 39.33 LIG 0.18  C 
ENDROOT
BRANCH 1 2
ATOM      2  CB  ARG D   2     -12.546  -1.818  10.659  1.00 35.05 LIG 0.04  C 
BRANCH 2 3
ATOM      3  CG  ARG D   2     -13.943  -1.944  10.117  1.00 57.88 LIG 0.02  C 
BRANCH 3 4
ATOM      4  CD  ARG D   2     -14.169  -1.019   8.937  1.00 90.52 LIG 0.14  C 
BRANCH 4 5
ATOM      5  NE  ARG D   2     -14.607   0.312   9.359  1.00 84.14 LIG-0.23  N 
ATOM      6 HE   ARG D   2     -14.026   0.946   9.348  1.00 84.14 LIG 0.18  HD
ATOM      7  CZ  ARG D   2     -15.842   0.611   9.758  1.00 83.97 LIG 0.67  C 
ATOM      8  NH2 ARG D   2     -16.136   1.855  10.117  1.00 60.39 LIG-0.23  N 
ATOM      9  NH1 ARG D   2     -16.781  -0.327   9.809  1.00 80.72 LIG-0.23  N 
ATOM     10 1HH2 ARG D   2     -15.529   2.465  10.091  1.00 60.39 LIG 0.17  HD
ATOM     11 2HH2 ARG D   2     -16.932   2.052  10.375  1.00 60.39 LIG 0.17  HD
ATOM     12 2HH1 ARG D   2     -17.577  -0.126  10.068  1.00 80.72 LIG 0.17  HD
ATOM     13 1HH1 ARG D   2     -16.594  -1.135   9.584  1.00 80.72 LIG 0.17  HD
ENDBRANCH 4 5
ENDBRANCH 3 4
ENDBRANCH 2 3
ENDBRANCH 1 2
BRANCH 1 14
ATOM     14  C   ARG D   2     -12.361  -0.775  12.899  1.00 29.38 LIG 0.24  C 
ATOM     15 O    ARG D   2     -11.357  -0.603  13.587  1.00 21.44 LIG-0.27  OA
ATOM     16  N   SER D   3     -13.511  -1.192  13.407  1.00 29.93 LIG-0.34  N 
ATOM     17 H    SER D   3     -14.246  -1.268  12.967  1.00 29.93 LIG 0.16  HD
BRANCH 16 18
ATOM     18  CA  SER D   3     -13.585  -1.563  14.813  1.00 48.61 LIG 0.20  C 
BRANCH 18 19
ATOM     19  C   SER D   3     -12.602  -2.684  15.088  1.00 58.83 LIG 0.24  C 
ATOM     20  N   LYS D   4     -12.235  -2.845  16.354  1.00 77.18 LIG-0.35  N 
ATOM     21 H    LYS D   4     -12.479  -2.329  16.998  1.00 77.18 LIG 0.16  HD
ATOM     22 O    SER D   3     -12.166  -3.376  14.169  1.00 53.61 LIG-0.27  OA
BRANCH 20 23
ATOM     23  CA  LYS D   4     -11.367  -3.943  16.751  1.00 70.35 LIG 0.18  C 
BRANCH 23 24
ATOM     24  CB  LYS D   4     -11.151  -3.944  18.267  1.00 80.12 LIG 0.04  C 
BRANCH 24 25
ATOM     25  CG  LYS D   4     -11.152  -2.550  18.879  1.00 84.36 LIG 0.00  C 
BRANCH 25 26
ATOM     26  CD  LYS D   4      -9.845  -1.815  18.655  1.00102.13 LIG 0.03  C 
BRANCH 26 27
ATOM     27  CE  LYS D   4      -9.823  -0.506  19.434  1.00 86.00 LIG 0.23  C 
BRANCH 27 28
ATOM     28  NZ  LYS D   4      -8.641   0.331  19.092  1.00 85.97 LIG-0.08  N 
ATOM     29 HZ3  LYS D   4      -7.918  -0.186  19.035  1.00 85.97 LIG 0.27  HD
ATOM     30 HZ2  LYS D   4      -8.518   0.944  19.724  1.00 85.97 LIG 0.27  HD
ATOM     31 HZ1  LYS D   4      -8.779   0.734  18.311  1.00 85.97 LIG 0.27  HD
ENDBRANCH 27 28
ENDBRANCH 26 27
ENDBRANCH 25 26
ENDBRANCH 24 25
ENDBRANCH 23 24
BRANCH 23 32
ATOM     32  C   LYS D   4     -12.021  -5.239  16.297  1.00 69.25 LIG 0.24  C 
ATOM     33 O    LYS D   4     -11.351  -6.150  15.811  1.00 74.50 LIG-0.27  OA
ATOM     34  N   GLY D   5     -13.341  -5.300  16.446  1.00 72.69 LIG-0.35  N 
ATOM     35 H    GLY D   5     -13.810  -4.681  16.815  1.00 72.69 LIG 0.16  HD
BRANCH 34 36
ATOM     36  CA  GLY D   5     -14.116  -6.439  15.989  1.00 67.28 LIG 0.21  C 
BRANCH 36 37
ATOM     37  C   GLY D   5     -15.556  -6.062  15.704  1.00 69.64 LIG 0.21  C 
ATOM     38 O    GLY D   5     -16.011  -4.979  16.077  1.00 73.82 LIG-0.29  OA
ENDBRANCH 36 37
ENDBRANCH 34 36
ENDBRANCH 23 32
ENDBRANCH 20 23
ENDBRANCH 18 19
BRANCH 18 39
ATOM     39  CB  SER D   3     -14.995  -1.998  15.175  1.00 47.59 LIG 0.20  C 
BRANCH 39 40
ATOM     40 OG   SER D   3     -15.524  -2.826  14.158  1.00 55.88 LIG-0.40  OA
ATOM     41 HG   SER D   3     -16.211  -2.468  13.834  1.00 55.88 LIG 0.21  HD
ENDBRANCH 39 40
ENDBRANCH 18 39
ENDBRANCH 16 18
ENDBRANCH 1 14
BRANCH 1 42
ATOM     42  N   ARG D   2     -11.058   0.052  11.035  1.00 24.62 LIG-0.35  N 
ATOM     43 H    ARG D   2     -10.636  -0.381  10.423  1.00 24.62 LIG 0.16  HD
ATOM     44  C   PHE D   1     -10.611   1.149  11.614  1.00 23.06 LIG 0.25  C 
ATOM     45 O    PHE D   1     -11.231   1.744  12.490  1.00 27.40 LIG-0.27  OA
BRANCH 44 46
ATOM     46  CA  PHE D   1      -9.307   1.713  11.065  1.00 18.76 LIG 0.28  C 
BRANCH 46 47
ATOM     47  CB  PHE D   1      -8.130   0.745  11.159  1.00 12.58 LIG 0.08  C 
BRANCH 47 48
ATOM     48  CG  PHE D   1      -6.977   1.133  10.259  1.00 17.06 LIG-0.06  A 
ATOM     49  CD1 PHE D   1      -7.212   1.665   8.994  1.00 22.27 LIG 0.01  A 
ATOM     50  CE1 PHE D   1      -6.150   2.046   8.165  1.00 15.67 LIG 0.00  A 
ATOM     51  CZ  PHE D   1      -4.837   1.887   8.603  1.00 13.83 LIG 0.00  A 
ATOM     52  CE2 PHE D   1      -4.594   1.370   9.862  1.00 20.38 LIG 0.00  A 
ATOM     53  CD2 PHE D   1      -5.659   0.999  10.689  1.00 21.07 LIG 0.01  A 
ENDBRANCH 47 48
ENDBRANCH 46 47
BRANCH 46 54
ATOM     54  N   PHE D   1      -8.986   2.985  11.756  1.00 21.45 LIG-0.07  N 
ATOM     55 H2   PHE D   1      -9.605   3.593  11.561  1.00 21.45 LIG 0.28  HD
ATOM     56 H3   PHE D   1      -8.971   2.849  12.636  1.00 21.45 LIG 0.28  HD
ATOM     57 H1   PHE D   1      -8.189   3.276  11.487  1.00 21.45 LIG 0.28  HD
ENDBRANCH 46 54
ENDBRANCH 44 46
ENDBRANCH 1 42
TORSDOF 23
ENDMDL
MODEL 27
USER: ADFR SOLUTION from run 77
USER: SCORE 15.293946 LL:  -3.664 LR: -14.405 RR:   0.000 FEB:  -7.544
USER: RMSD 3.911482
USER: SEED 76
USER: STATUS no improvement in best in 12 clusters for 5 generations
USER: GENES 25
USER: genes 0 Translation |==|  0.46447 0.59471 0.46650
USER: genes 1 Rotation |==|  0.35919 0.40357 0.57618 0.96376
USER: genes 2 Torsion [C]-CA--CB-[CG] |==|  0.25483
USER: genes 3 Torsion [CA]-CB--CG-[CD] |==|  0.31959
USER: genes 4 Torsion [CB]-CG--CD-[NE] |==|  0.74704
USER: genes 5 Torsion [CG]-CD--NE-[HE] |==|  0.19316
USER: genes 6 Torsion [N]-CA--C-[N] |==|  0.29898
USER: genes 7 Torsion [C]-N--CA-[C] |==|  0.80259
USER: genes 8 Torsion [N]-CA--C-[N] |==|  0.95329
USER: genes 9 Torsion [C]-N--CA-[CB] |==|  0.42363
USER: genes 10 Torsion [N]-CA--CB-[CG] |==|  0.68105
USER: genes 11 Torsion [CA]-CB--CG-[CD] |==|  0.92734
USER: genes 12 Torsion [CB]-CG--CD-[CE] |==|  0.28821
USER: genes 13 Torsion [CG]-CD--CE-[NZ] |==|  0.70870
USER: genes 14 Torsion [CD]-CE--NZ-[HZ2] |==|  0.89441
USER: genes 15 Torsion [N]-CA--C-[N] |==|  0.93225
USER: genes 16 Torsion [C]-N--CA-[C] |==|  0.78295
USER: genes 17 Torsion [N]-CA--C-[O] |==|  0.73214
USER: genes 18 Torsion [N]-CA--CB-[OG] |==|  0.02853
USER: genes 19 Torsion [CA]-CB--OG-[HG] |==|  0.31676
USER: genes 20 Torsion [CB]-CA--N-[C] |==|  0.42778
USER: genes 21 Torsion [N]-C--CA-[N] |==|  0.46729
USER: genes 22 Torsion [C]-CA--CB-[CG] |==|  0.47638
USER: genes 23 Torsion [CA]-CB--CG-[CD1] |==|  0.89685
USER: genes 24 Torsion [C]-CA--N-[H2] |==|  0.79757
ROOT
ATOM      1  CA  ARG D   2     -12.337  -0.887  11.259  1.00 39.33 LIG 0.18  C 
ENDROOT
BRANCH 1 2
ATOM      2  CB  ARG D   2     -13.071  -1.482  10.070  1.00 35.05 LIG 0.04  C 
BRANCH 2 3
ATOM      3  CG  ARG D   2     -14.565  -1.408  10.226  1.00 57.88 LIG 0.02  C 
BRANCH 3 4
ATOM      4  CD  ARG D   2     -15.191  -0.502   9.183  1.00 90.52 LIG 0.14  C 
BRANCH 4 5
ATOM      5  NE  ARG D   2     -15.301   0.880   9.651  1.00 84.14 LIG-0.23  N 
ATOM      6 HE   ARG D   2     -14.573   1.329   9.745  1.00 84.14 LIG 0.18  HD
ATOM      7  CZ  ARG D   2     -16.448   1.492   9.940  1.00 83.97 LIG 0.67  C 
ATOM      8  NH2 ARG D   2     -16.436   2.753  10.354  1.00 60.39 LIG-0.23  N 
ATOM      9  NH1 ARG D   2     -17.605   0.847   9.827  1.00 80.72 LIG-0.23  N 
ATOM     10 1HH2 ARG D   2     -15.689   3.173  10.435  1.00 60.39 LIG 0.17  HD
ATOM     11 2HH2 ARG D   2     -17.175   3.151  10.542  1.00 60.39 LIG 0.17  HD
ATOM     12 2HH1 ARG D   2     -18.341   1.249  10.015  1.00 80.72 LIG 0.17  HD
ATOM     13 1HH1 ARG D   2     -17.617   0.029   9.565  1.00 80.72 LIG 0.17  HD
ENDBRANCH 4 5
ENDBRANCH 3 4
ENDBRANCH 2 3
ENDBRANCH 1 2
BRANCH 1 14
ATOM     14  C   ARG D   2     -12.050  -1.974  12.273  1.00 29.38 LIG 0.24  C 
ATOM     15 O    ARG D   2     -11.562  -3.046  11.925  1.00 21.44 LIG-0.27  OA
ATOM     16  N   SER D   3     -12.352  -1.703  13.534  1.00 29.93 LIG-0.34  N 
ATOM     17 H    SER D   3     -12.639  -0.944  13.820  1.00 29.93 LIG 0.16  HD
BRANCH 16 18
ATOM     18  CA  SER D   3     -12.201  -2.735  14.549  1.00 48.61 LIG 0.20  C 
BRANCH 18 19
ATOM     19  C   SER D   3     -13.276  -3.788  14.355  1.00 58.83 LIG 0.24  C 
ATOM     20  N   LYS D   4     -14.308  -3.439  13.596  1.00 77.18 LIG-0.35  N 
ATOM     21 H    LYS D   4     -14.420  -2.653  13.263  1.00 77.18 LIG 0.16  HD
ATOM     22 O    SER D   3     -13.183  -4.888  14.900  1.00 53.61 LIG-0.27  OA
BRANCH 20 23
ATOM     23  CA  LYS D   4     -15.355  -4.394  13.265  1.00 70.35 LIG 0.18  C 
BRANCH 23 24
ATOM     24  CB  LYS D   4     -16.683  -3.677  13.008  1.00 80.12 LIG 0.04  C 
BRANCH 24 25
ATOM     25  CG  LYS D   4     -17.760  -4.013  14.031  1.00 84.36 LIG 0.00  C 
BRANCH 25 26
ATOM     26  CD  LYS D   4     -17.556  -5.375  14.666  1.00102.13 LIG 0.03  C 
BRANCH 26 27
ATOM     27  CE  LYS D   4     -16.996  -5.233  16.076  1.00 86.00 LIG 0.23  C 
BRANCH 27 28
ATOM     28  NZ  LYS D   4     -15.549  -5.574  16.143  1.00 85.97 LIG-0.08  N 
ATOM     29 HZ3  LYS D   4     -15.067  -4.872  15.884  1.00 85.97 LIG 0.27  HD
ATOM     30 HZ2  LYS D   4     -15.382  -6.263  15.605  1.00 85.97 LIG 0.27  HD
ATOM     31 HZ1  LYS D   4     -15.334  -5.791  16.979  1.00 85.97 LIG 0.27  HD
ENDBRANCH 27 28
ENDBRANCH 26 27
ENDBRANCH 25 26
ENDBRANCH 24 25
ENDBRANCH 23 24
BRANCH 23 32
ATOM     32  C   LYS D   4     -14.908  -5.163  12.033  1.00 69.25 LIG 0.24  C 
ATOM     33 O    LYS D   4     -15.334  -6.295  11.803  1.00 74.50 LIG-0.27  OA
ATOM     34  N   GLY D   5     -14.028  -4.541  11.253  1.00 72.69 LIG-0.35  N 
ATOM     35 H    GLY D   5     -13.752  -3.739  11.391  1.00 72.69 LIG 0.16  HD
BRANCH 34 36
ATOM     36  CA  GLY D   5     -13.451  -5.176  10.083  1.00 67.28 LIG 0.21  C 
BRANCH 36 37
ATOM     37  C   GLY D   5     -12.350  -6.149  10.457  1.00 69.64 LIG 0.21  C 
ATOM     38 O    GLY D   5     -11.167  -5.806  10.427  1.00 73.82 LIG-0.29  OA
ENDBRANCH 36 37
ENDBRANCH 34 36
ENDBRANCH 23 32
ENDBRANCH 20 23
ENDBRANCH 18 19
BRANCH 18 39
ATOM     39  CB  SER D   3     -12.299  -2.132  15.940  1.00 47.59 LIG 0.20  C 
BRANCH 39 40
ATOM     40 OG   SER D   3     -12.740  -0.791  15.859  1.00 55.88 LIG-0.40  OA
ATOM     41 HG   SER D   3     -13.499  -0.724  16.212  1.00 55.88 LIG 0.21  HD
ENDBRANCH 39 40
ENDBRANCH 18 39
ENDBRANCH 16 18
ENDBRANCH 1 14
BRANCH 1 42
ATOM     42  N   ARG D   2     -11.097  -0.297  10.812  1.00 24.62 LIG-0.35  N 
ATOM     43 H    ARG D   2     -10.774  -0.638  10.091  1.00 24.62 LIG 0.16  HD
ATOM     44  C   PHE D   1     -10.535   0.688  11.486  1.00 23.06 LIG 0.25  C 
ATOM     45 O    PHE D   1     -11.015   1.151  12.516  1.00 27.40 LIG-0.27  OA
BRANCH 44 46
ATOM     46  CA  PHE D   1      -9.289   1.302  10.863  1.00 18.76 LIG 0.28  C 
BRANCH 46 47
ATOM     47  CB  PHE D   1      -8.087   0.362  10.835  1.00 12.58 LIG 0.08  C 
BRANCH 47 48
ATOM     48  CG  PHE D   1      -6.928   0.913  10.034  1.00 17.06 LIG-0.06  A 
ATOM     49  CD1 PHE D   1      -7.154   1.641   8.869  1.00 22.27 LIG 0.01  A 
ATOM     50  CE1 PHE D   1      -6.086   2.172   8.134  1.00 15.67 LIG 0.00  A 
ATOM     51  CZ  PHE D   1      -4.777   1.967   8.565  1.00 13.83 LIG 0.00  A 
ATOM     52  CE2 PHE D   1      -4.544   1.255   9.728  1.00 20.38 LIG 0.00  A 
ATOM     53  CD2 PHE D   1      -5.615   0.734  10.462  1.00 21.07 LIG 0.01  A 
ENDBRANCH 47 48
ENDBRANCH 46 47
BRANCH 46 54
ATOM     54  N   PHE D   1      -8.946   2.558  11.574  1.00 21.45 LIG-0.07  N 
ATOM     55 H2   PHE D   1      -9.531   3.192  11.355  1.00 21.45 LIG 0.28  HD
ATOM     56 H3   PHE D   1      -8.974   2.419  12.453  1.00 21.45 LIG 0.28  HD
ATOM     57 H1   PHE D   1      -8.127   2.816  11.341  1.00 21.45 LIG 0.28  HD
ENDBRANCH 46 54
ENDBRANCH 44 46
ENDBRANCH 1 42
TORSDOF 23
ENDMDL
MODEL 28
USER: ADFR SOLUTION from run 121
USER: SCORE 16.234671 LL:  -2.823 LR: -14.360 RR:   0.000 FEB:  -7.499
USER: RMSD 4.041404
USER: SEED 120
USER: STATUS no improvement in best in 15 clusters for 5 generations
USER: GENES 25
USER: genes 0 Translation |==|  0.45922 0.63679 0.44428
USER: genes 1 Rotation |==|  0.40945 0.39797 0.55512 0.97786
USER: genes 2 Torsion [C]-CA--CB-[CG] |==|  0.13200
USER: genes 3 Torsion [CA]-CB--CG-[CD] |==|  0.18149
USER: genes 4 Torsion [CB]-CG--CD-[NE] |==|  0.03395
USER: genes 5 Torsion [CG]-CD--NE-[HE] |==|  0.12002
USER: genes 6 Torsion [N]-CA--C-[N] |==|  0.41990
USER: genes 7 Torsion [C]-N--CA-[C] |==|  0.86647
USER: genes 8 Torsion [N]-CA--C-[N] |==|  0.35771
USER: genes 9 Torsion [C]-N--CA-[CB] |==|  0.51667
USER: genes 10 Torsion [N]-CA--CB-[CG] |==|  0.15386
USER: genes 11 Torsion [CA]-CB--CG-[CD] |==|  0.74149
USER: genes 12 Torsion [CB]-CG--CD-[CE] |==|  0.35514
USER: genes 13 Torsion [CG]-CD--CE-[NZ] |==|  0.56586
USER: genes 14 Torsion [CD]-CE--NZ-[HZ2] |==|  0.83162
USER: genes 15 Torsion [N]-CA--C-[N] |==|  0.43932
USER: genes 16 Torsion [C]-N--CA-[C] |==|  0.84083
USER: genes 17 Torsion [N]-CA--C-[O] |==|  0.88409
USER: genes 18 Torsion [N]-CA--CB-[OG] |==|  0.00905
USER: genes 19 Torsion [CA]-CB--OG-[HG] |==|  0.20549
USER: genes 20 Torsion [CB]-CA--N-[C] |==|  0.51790
USER: genes 21 Torsion [N]-C--CA-[N] |==|  0.33058
USER: genes 22 Torsion [C]-CA--CB-[CG] |==|  0.41757
USER: genes 23 Torsion [CA]-CB--CG-[CD1] |==|  0.93383
USER: genes 24 Torsion [C]-CA--N-[H2] |==|  0.82038
ROOT
ATOM      1  CA  ARG D   2     -12.451  -0.035  10.809  1.00 39.33 LIG 0.18  C 
ENDROOT
BRANCH 1 2
ATOM      2  CB  ARG D   2     -13.199  -0.322   9.519  1.00 35.05 LIG 0.04  C 
BRANCH 2 3
ATOM      3  CG  ARG D   2     -14.384  -1.223   9.735  1.00 57.88 LIG 0.02  C 
BRANCH 3 4
ATOM      4  CD  ARG D   2     -15.442  -0.557  10.593  1.00 90.52 LIG 0.14  C 
BRANCH 4 5
ATOM      5  NE  ARG D   2     -15.193   0.875  10.760  1.00 84.14 LIG-0.23  N 
ATOM      6 HE   ARG D   2     -14.952   1.322  10.066  1.00 84.14 LIG 0.18  HD
ATOM      7  CZ  ARG D   2     -15.314   1.535  11.911  1.00 83.97 LIG 0.67  C 
ATOM      8  NH2 ARG D   2     -15.066   2.839  11.953  1.00 60.39 LIG-0.23  N 
ATOM      9  NH1 ARG D   2     -15.670   0.897  13.021  1.00 80.72 LIG-0.23  N 
ATOM     10 1HH2 ARG D   2     -14.829   3.255  11.238  1.00 60.39 LIG 0.17  HD
ATOM     11 2HH2 ARG D   2     -15.143   3.268  12.694  1.00 60.39 LIG 0.17  HD
ATOM     12 2HH1 ARG D   2     -15.746   1.330  13.760  1.00 80.72 LIG 0.17  HD
ATOM     13 1HH1 ARG D   2     -15.825   0.052  13.001  1.00 80.72 LIG 0.17  HD
ENDBRANCH 4 5
ENDBRANCH 3 4
ENDBRANCH 2 3
ENDBRANCH 1 2
BRANCH 1 14
ATOM     14  C   ARG D   2     -12.217  -1.329  11.558  1.00 29.38 LIG 0.24  C 
ATOM     15 O    ARG D   2     -11.189  -1.981  11.383  1.00 21.44 LIG-0.27  OA
ATOM     16  N   SER D   3     -13.168  -1.710  12.397  1.00 29.93 LIG-0.34  N 
ATOM     17 H    SER D   3     -13.870  -1.251  12.587  1.00 29.93 LIG 0.16  HD
BRANCH 16 18
ATOM     18  CA  SER D   3     -13.061  -2.994  13.074  1.00 48.61 LIG 0.20  C 
BRANCH 18 19
ATOM     19  C   SER D   3     -12.715  -4.067  12.060  1.00 58.83 LIG 0.24  C 
ATOM     20  N   LYS D   4     -11.679  -4.842  12.357  1.00 77.18 LIG-0.35  N 
ATOM     21 H    LYS D   4     -11.177  -4.736  13.048  1.00 77.18 LIG 0.16  HD
ATOM     22 O    SER D   3     -13.361  -4.178  11.018  1.00 53.61 LIG-0.27  OA
BRANCH 20 23
ATOM     23  CA  LYS D   4     -11.309  -5.962  11.503  1.00 70.35 LIG 0.18  C 
BRANCH 23 24
ATOM     24  CB  LYS D   4     -10.181  -6.779  12.138  1.00 80.12 LIG 0.04  C 
BRANCH 24 25
ATOM     25  CG  LYS D   4     -10.507  -7.272  13.542  1.00 84.36 LIG 0.00  C 
BRANCH 25 26
ATOM     26  CD  LYS D   4     -10.019  -6.324  14.620  1.00102.13 LIG 0.03  C 
BRANCH 26 27
ATOM     27  CE  LYS D   4     -11.148  -5.973  15.581  1.00 86.00 LIG 0.23  C 
BRANCH 27 28
ATOM     28  NZ  LYS D   4     -10.912  -4.678  16.274  1.00 85.97 LIG-0.08  N 
ATOM     29 HZ3  LYS D   4     -10.841  -4.027  15.671  1.00 85.97 LIG 0.27  HD
ATOM     30 HZ2  LYS D   4     -10.161  -4.727  16.748  1.00 85.97 LIG 0.27  HD
ATOM     31 HZ1  LYS D   4     -11.595  -4.504  16.819  1.00 85.97 LIG 0.27  HD
ENDBRANCH 27 28
ENDBRANCH 26 27
ENDBRANCH 25 26
ENDBRANCH 24 25
ENDBRANCH 23 24
BRANCH 23 32
ATOM     32  C   LYS D   4     -12.548  -6.818  11.299  1.00 69.25 LIG 0.24  C 
ATOM     33 O    LYS D   4     -13.481  -6.784  12.101  1.00 74.50 LIG-0.27  OA
ATOM     34  N   GLY D   5     -12.537  -7.601  10.223  1.00 72.69 LIG-0.35  N 
ATOM     35 H    GLY D   5     -11.902  -7.604   9.642  1.00 72.69 LIG 0.16  HD
BRANCH 34 36
ATOM     36  CA  GLY D   5     -13.613  -8.530   9.935  1.00 67.28 LIG 0.21  C 
BRANCH 36 37
ATOM     37  C   GLY D   5     -13.831  -9.509  11.071  1.00 69.64 LIG 0.21  C 
ATOM     38 O    GLY D   5     -12.875 -10.019  11.658  1.00 73.82 LIG-0.29  OA
ENDBRANCH 36 37
ENDBRANCH 34 36
ENDBRANCH 23 32
ENDBRANCH 20 23
ENDBRANCH 18 19
BRANCH 18 39
ATOM     39  CB  SER D   3     -14.363  -3.335  13.779  1.00 47.59 LIG 0.20  C 
BRANCH 39 40
ATOM     40 OG   SER D   3     -15.334  -2.341  13.514  1.00 55.88 LIG-0.40  OA
ATOM     41 HG   SER D   3     -15.612  -2.423  12.725  1.00 55.88 LIG 0.21  HD
ENDBRANCH 39 40
ENDBRANCH 18 39
ENDBRANCH 16 18
ENDBRANCH 1 14
BRANCH 1 42
ATOM     42  N   ARG D   2     -11.184   0.587  10.501  1.00 24.62 LIG-0.35  N 
ATOM     43 H    ARG D   2     -11.071   0.784   9.672  1.00 24.62 LIG 0.16  HD
ATOM     44  C   PHE D   1     -10.297   0.818  11.449  1.00 23.06 LIG 0.25  C 
ATOM     45 O    PHE D   1     -10.482   0.520  12.626  1.00 27.40 LIG-0.27  OA
BRANCH 44 46
ATOM     46  CA  PHE D   1      -9.045   1.574  11.027  1.00 18.76 LIG 0.28  C 
BRANCH 46 47
ATOM     47  CB  PHE D   1      -7.756   0.770  11.183  1.00 12.58 LIG 0.08  C 
BRANCH 47 48
ATOM     48  CG  PHE D   1      -6.695   1.159  10.178  1.00 17.06 LIG-0.06  A 
ATOM     49  CD1 PHE D   1      -7.046   1.755   8.970  1.00 22.27 LIG 0.01  A 
ATOM     50  CE1 PHE D   1      -6.067   2.137   8.044  1.00 15.67 LIG 0.00  A 
ATOM     51  CZ  PHE D   1      -4.721   1.914   8.327  1.00 13.83 LIG 0.00  A 
ATOM     52  CE2 PHE D   1      -4.362   1.332   9.529  1.00 20.38 LIG 0.00  A 
ATOM     53  CD2 PHE D   1      -5.344   0.961  10.454  1.00 21.07 LIG 0.01  A 
ENDBRANCH 47 48
ENDBRANCH 46 47
BRANCH 46 54
ATOM     54  N   PHE D   1      -8.954   2.846  11.783  1.00 21.45 LIG-0.07  N 
ATOM     55 H2   PHE D   1      -9.637   3.372  11.561  1.00 21.45 LIG 0.28  HD
ATOM     56 H3   PHE D   1      -8.982   2.676  12.656  1.00 21.45 LIG 0.28  HD
ATOM     57 H1   PHE D   1      -8.189   3.255  11.585  1.00 21.45 LIG 0.28  HD
ENDBRANCH 46 54
ENDBRANCH 44 46
ENDBRANCH 1 42
TORSDOF 23
ENDMDL
MODEL 29
USER: ADFR SOLUTION from run 32
USER: SCORE 14.455263 LL:  -3.255 LR: -14.334 RR:   0.000 FEB:  -7.473
USER: RMSD 4.300252
USER: SEED 31
USER: STATUS no improvement in best in 25 clusters for 5 generations
USER: GENES 25
USER: genes 0 Translation |==|  0.47487 0.60554 0.48216
USER: genes 1 Rotation |==|  0.46036 0.50136 0.46722 0.99735
USER: genes 2 Torsion [C]-CA--CB-[CG] |==|  0.30189
USER: genes 3 Torsion [CA]-CB--CG-[CD] |==|  0.04864
USER: genes 4 Torsion [CB]-CG--CD-[NE] |==|  0.25132
USER: genes 5 Torsion [CG]-CD--NE-[HE] |==|  0.03735
USER: genes 6 Torsion [N]-CA--C-[N] |==|  0.54304
USER: genes 7 Torsion [C]-N--CA-[C] |==|  0.82630
USER: genes 8 Torsion [N]-CA--C-[N] |==|  0.45515
USER: genes 9 Torsion [C]-N--CA-[CB] |==|  0.38376
USER: genes 10 Torsion [N]-CA--CB-[CG] |==|  0.01761
USER: genes 11 Torsion [CA]-CB--CG-[CD] |==|  0.75638
USER: genes 12 Torsion [CB]-CG--CD-[CE] |==|  0.42351
USER: genes 13 Torsion [CG]-CD--CE-[NZ] |==|  0.74558
USER: genes 14 Torsion [CD]-CE--NZ-[HZ2] |==|  0.84266
USER: genes 15 Torsion [N]-CA--C-[N] |==|  0.93646
USER: genes 16 Torsion [C]-N--CA-[C] |==|  0.77991
USER: genes 17 Torsion [N]-CA--C-[O] |==|  0.91185
USER: genes 18 Torsion [N]-CA--CB-[OG] |==|  0.22718
USER: genes 19 Torsion [CA]-CB--OG-[HG] |==|  0.27392
USER: genes 20 Torsion [CB]-CA--N-[C] |==|  0.31515
USER: genes 21 Torsion [N]-C--CA-[N] |==|  0.23578
USER: genes 22 Torsion [C]-CA--CB-[CG] |==|  0.47044
USER: genes 23 Torsion [CA]-CB--CG-[CD1] |==|  0.16102
USER: genes 24 Torsion [C]-CA--N-[H2] |==|  0.69472
ROOT
ATOM      1  CA  ARG D   2     -12.111  -0.668  11.576  1.00 39.33 LIG 0.18  C 
ENDROOT
BRANCH 1 2
ATOM      2  CB  ARG D   2     -13.270  -0.308  10.664  1.00 35.05 LIG 0.04  C 
BRANCH 2 3
ATOM      3  CG  ARG D   2     -14.284   0.568  11.348  1.00 57.88 LIG 0.02  C 
BRANCH 3 4
ATOM      4  CD  ARG D   2     -13.711   1.214  12.595  1.00 90.52 LIG 0.14  C 
BRANCH 4 5
ATOM      5  NE  ARG D   2     -13.098   2.511  12.310  1.00 84.14 LIG-0.23  N 
ATOM      6 HE   ARG D   2     -13.262   2.872  11.547  1.00 84.14 LIG 0.18  HD
ATOM      7  CZ  ARG D   2     -12.305   3.174  13.150  1.00 83.97 LIG 0.67  C 
ATOM      8  NH2 ARG D   2     -11.802   4.350  12.793  1.00 60.39 LIG-0.23  N 
ATOM      9  NH1 ARG D   2     -12.004   2.664  14.340  1.00 80.72 LIG-0.23  N 
ATOM     10 1HH2 ARG D   2     -11.989   4.681  12.021  1.00 60.39 LIG 0.17  HD
ATOM     11 2HH2 ARG D   2     -11.290   4.781  13.333  1.00 60.39 LIG 0.17  HD
ATOM     12 2HH1 ARG D   2     -11.492   3.098  14.877  1.00 80.72 LIG 0.17  HD
ATOM     13 1HH1 ARG D   2     -12.322   1.900  14.573  1.00 80.72 LIG 0.17  HD
ENDBRANCH 4 5
ENDBRANCH 3 4
ENDBRANCH 2 3
ENDBRANCH 1 2
BRANCH 1 14
ATOM     14  C   ARG D   2     -12.201  -2.129  11.959  1.00 29.38 LIG 0.24  C 
ATOM     15 O    ARG D   2     -11.204  -2.847  11.944  1.00 21.44 LIG-0.27  OA
ATOM     16  N   SER D   3     -13.399  -2.579  12.305  1.00 29.93 LIG-0.34  N 
ATOM     17 H    SER D   3     -14.104  -2.093  12.382  1.00 29.93 LIG 0.16  HD
BRANCH 16 18
ATOM     18  CA  SER D   3     -13.584  -3.995  12.585  1.00 48.61 LIG 0.20  C 
BRANCH 18 19
ATOM     19  C   SER D   3     -13.285  -4.796  11.332  1.00 58.83 LIG 0.24  C 
ATOM     20  N   LYS D   4     -13.084  -6.098  11.503  1.00 77.18 LIG-0.35  N 
ATOM     21 H    LYS D   4     -13.064  -6.488  12.270  1.00 77.18 LIG 0.16  HD
ATOM     22 O    SER D   3     -13.214  -4.244  10.235  1.00 53.61 LIG-0.27  OA
BRANCH 20 23
ATOM     23  CA  LYS D   4     -12.878  -6.982  10.365  1.00 70.35 LIG 0.18  C 
BRANCH 23 24
ATOM     24  CB  LYS D   4     -11.764  -7.990  10.655  1.00 80.12 LIG 0.04  C 
BRANCH 24 25
ATOM     25  CG  LYS D   4     -11.253  -7.932  12.089  1.00 84.36 LIG 0.00  C 
BRANCH 25 26
ATOM     26  CD  LYS D   4     -10.138  -6.921  12.270  1.00102.13 LIG 0.03  C 
BRANCH 26 27
ATOM     27  CE  LYS D   4     -10.115  -6.394  13.699  1.00 86.00 LIG 0.23  C 
BRANCH 27 28
ATOM     28  NZ  LYS D   4     -10.938  -5.165  13.858  1.00 85.97 LIG-0.08  N 
ATOM     29 HZ3  LYS D   4     -11.791  -5.355  13.690  1.00 85.97 LIG 0.27  HD
ATOM     30 HZ2  LYS D   4     -10.655  -4.543  13.288  1.00 85.97 LIG 0.27  HD
ATOM     31 HZ1  LYS D   4     -10.860  -4.861  14.691  1.00 85.97 LIG 0.27  HD
ENDBRANCH 27 28
ENDBRANCH 26 27
ENDBRANCH 25 26
ENDBRANCH 24 25
ENDBRANCH 23 24
BRANCH 23 32
ATOM     32  C   LYS D   4     -14.193  -7.694  10.088  1.00 69.25 LIG 0.24  C 
ATOM     33 O    LYS D   4     -14.444  -8.149   8.972  1.00 74.50 LIG-0.27  OA
ATOM     34  N   GLY D   5     -15.036  -7.769  11.114  1.00 72.69 LIG-0.35  N 
ATOM     35 H    GLY D   5     -14.852  -7.482  11.904  1.00 72.69 LIG 0.16  HD
BRANCH 34 36
ATOM     36  CA  GLY D   5     -16.359  -8.350  10.984  1.00 67.28 LIG 0.21  C 
BRANCH 36 37
ATOM     37  C   GLY D   5     -17.338  -7.383  10.349  1.00 69.64 LIG 0.21  C 
ATOM     38 O    GLY D   5     -17.229  -6.168  10.523  1.00 73.82 LIG-0.29  OA
ENDBRANCH 36 37
ENDBRANCH 34 36
ENDBRANCH 23 32
ENDBRANCH 20 23
ENDBRANCH 18 19
BRANCH 18 39
ATOM     39  CB  SER D   3     -15.003  -4.264  13.056  1.00 47.59 LIG 0.20  C 
BRANCH 39 40
ATOM     40 OG   SER D   3     -15.873  -4.362  11.946  1.00 55.88 LIG-0.40  OA
ATOM     41 HG   SER D   3     -16.004  -5.171  11.763  1.00 55.88 LIG 0.21  HD
ENDBRANCH 39 40
ENDBRANCH 18 39
ENDBRANCH 16 18
ENDBRANCH 1 14
BRANCH 1 42
ATOM     42  N   ARG D   2     -10.864  -0.420  10.889  1.00 24.62 LIG-0.35  N 
ATOM     43 H    ARG D   2     -10.717  -0.930  10.213  1.00 24.62 LIG 0.16  HD
ATOM     44  C   PHE D   1     -10.042   0.526  11.301  1.00 23.06 LIG 0.25  C 
ATOM     45 O    PHE D   1     -10.274   1.236  12.274  1.00 27.40 LIG-0.27  OA
BRANCH 44 46
ATOM     46  CA  PHE D   1      -8.812   0.768  10.437  1.00 18.76 LIG 0.28  C 
BRANCH 46 47
ATOM     47  CB  PHE D   1      -7.606   1.291  11.215  1.00 12.58 LIG 0.08  C 
BRANCH 47 48
ATOM     48  CG  PHE D   1      -6.332   1.281  10.400  1.00 17.06 LIG-0.06  A 
ATOM     49  CD1 PHE D   1      -6.253   1.980   9.199  1.00 22.27 LIG 0.01  A 
ATOM     50  CE1 PHE D   1      -5.069   1.993   8.450  1.00 15.67 LIG 0.00  A 
ATOM     51  CZ  PHE D   1      -3.954   1.291   8.904  1.00 13.83 LIG 0.00  A 
ATOM     52  CE2 PHE D   1      -4.020   0.603  10.101  1.00 20.38 LIG 0.00  A 
ATOM     53  CD2 PHE D   1      -5.202   0.601  10.850  1.00 21.07 LIG 0.01  A 
ENDBRANCH 47 48
ENDBRANCH 46 47
BRANCH 46 54
ATOM     54  N   PHE D   1      -9.155   1.695   9.332  1.00 21.45 LIG-0.07  N 
ATOM     55 H2   PHE D   1      -9.153   1.251   8.561  1.00 21.45 LIG 0.28  HD
ATOM     56 H3   PHE D   1      -9.963   2.040   9.474  1.00 21.45 LIG 0.28  HD
ATOM     57 H1   PHE D   1      -8.554   2.351   9.298  1.00 21.45 LIG 0.28  HD
ENDBRANCH 46 54
ENDBRANCH 44 46
ENDBRANCH 1 42
TORSDOF 23
ENDMDL
MODEL 30
USER: ADFR SOLUTION from run 49
USER: SCORE 14.581431 LL:  -2.795 LR: -14.321 RR:   0.000 FEB:  -7.460
USER: RMSD 4.404689
USER: SEED 48
USER: STATUS no improvement in best in 43 clusters for 5 generations
USER: GENES 25
USER: genes 0 Translation |==|  0.50210 0.59710 0.49113
USER: genes 1 Rotation |==|  0.61332 0.57461 0.39649 0.96998
USER: genes 2 Torsion [C]-CA--CB-[CG] |==|  0.27623
USER: genes 3 Torsion [CA]-CB--CG-[CD] |==|  0.30807
USER: genes 4 Torsion [CB]-CG--CD-[NE] |==|  0.97310
USER: genes 5 Torsion [CG]-CD--NE-[HE] |==|  0.95560
USER: genes 6 Torsion [N]-CA--C-[N] |==|  0.26541
USER: genes 7 Torsion [C]-N--CA-[C] |==|  0.70689
USER: genes 8 Torsion [N]-CA--C-[N] |==|  0.36077
USER: genes 9 Torsion [C]-N--CA-[CB] |==|  0.45997
USER: genes 10 Torsion [N]-CA--CB-[CG] |==|  0.50996
USER: genes 11 Torsion [CA]-CB--CG-[CD] |==|  0.68959
USER: genes 12 Torsion [CB]-CG--CD-[CE] |==|  0.31162
USER: genes 13 Torsion [CG]-CD--CE-[NZ] |==|  0.40600
USER: genes 14 Torsion [CD]-CE--NZ-[HZ2] |==|  0.94175
USER: genes 15 Torsion [N]-CA--C-[N] |==|  0.89518
USER: genes 16 Torsion [C]-N--CA-[C] |==|  0.66108
USER: genes 17 Torsion [N]-CA--C-[O] |==|  0.97056
USER: genes 18 Torsion [N]-CA--CB-[OG] |==|  0.67445
USER: genes 19 Torsion [CA]-CB--OG-[HG] |==|  0.68718
USER: genes 20 Torsion [CB]-CA--N-[C] |==|  0.20459
USER: genes 21 Torsion [N]-C--CA-[N] |==|  0.22729
USER: genes 22 Torsion [C]-CA--CB-[CG] |==|  0.45138
USER: genes 23 Torsion [CA]-CB--CG-[CD1] |==|  0.17190
USER: genes 24 Torsion [C]-CA--N-[H2] |==|  0.71951
ROOT
ATOM      1  CA  ARG D   2     -11.518  -0.839  11.757  1.00 39.33 LIG 0.18  C 
ENDROOT
BRANCH 1 2
ATOM      2  CB  ARG D   2     -12.566   0.249  11.598  1.00 35.05 LIG 0.04  C 
BRANCH 2 3
ATOM      3  CG  ARG D   2     -13.264   0.563  12.893  1.00 57.88 LIG 0.02  C 
BRANCH 3 4
ATOM      4  CD  ARG D   2     -12.893   1.941  13.406  1.00 90.52 LIG 0.14  C 
BRANCH 4 5
ATOM      5  NE  ARG D   2     -11.788   2.530  12.650  1.00 84.14 LIG-0.23  N 
ATOM      6 HE   ARG D   2     -11.318   2.006  12.155  1.00 84.14 LIG 0.18  HD
ATOM      7  CZ  ARG D   2     -11.458   3.820  12.672  1.00 83.97 LIG 0.67  C 
ATOM      8  NH2 ARG D   2     -10.436   4.253  11.943  1.00 60.39 LIG-0.23  N 
ATOM      9  NH1 ARG D   2     -12.138   4.678  13.426  1.00 80.72 LIG-0.23  N 
ATOM     10 1HH2 ARG D   2      -9.989   3.700  11.458  1.00 60.39 LIG 0.17  HD
ATOM     11 2HH2 ARG D   2     -10.221   5.085  11.956  1.00 60.39 LIG 0.17  HD
ATOM     12 2HH1 ARG D   2     -11.919   5.510  13.435  1.00 80.72 LIG 0.17  HD
ATOM     13 1HH1 ARG D   2     -12.796   4.402  13.905  1.00 80.72 LIG 0.17  HD
ENDBRANCH 4 5
ENDBRANCH 3 4
ENDBRANCH 2 3
ENDBRANCH 1 2
BRANCH 1 14
ATOM     14  C   ARG D   2     -12.088  -2.163  11.297  1.00 29.38 LIG 0.24  C 
ATOM     15 O    ARG D   2     -12.864  -2.218  10.345  1.00 21.44 LIG-0.27  OA
ATOM     16  N   SER D   3     -11.706  -3.239  11.969  1.00 29.93 LIG-0.34  N 
ATOM     17 H    SER D   3     -11.123  -3.245  12.600  1.00 29.93 LIG 0.16  HD
BRANCH 16 18
ATOM     18  CA  SER D   3     -12.293  -4.533  11.651  1.00 48.61 LIG 0.20  C 
BRANCH 18 19
ATOM     19  C   SER D   3     -13.277  -4.918  12.738  1.00 58.83 LIG 0.24  C 
ATOM     20  N   LYS D   4     -14.481  -5.301  12.330  1.00 77.18 LIG-0.35  N 
ATOM     21 H    LYS D   4     -14.740  -5.292  11.509  1.00 77.18 LIG 0.16  HD
ATOM     22 O    SER D   3     -12.960  -4.848  13.926  1.00 53.61 LIG-0.27  OA
BRANCH 20 23
ATOM     23  CA  LYS D   4     -15.479  -5.778  13.277  1.00 70.35 LIG 0.18  C 
BRANCH 23 24
ATOM     24  CB  LYS D   4     -16.866  -5.817  12.630  1.00 80.12 LIG 0.04  C 
BRANCH 24 25
ATOM     25  CG  LYS D   4     -17.972  -6.226  13.594  1.00 84.36 LIG 0.00  C 
BRANCH 25 26
ATOM     26  CD  LYS D   4     -18.560  -7.583  13.264  1.00102.13 LIG 0.03  C 
BRANCH 26 27
ATOM     27  CE  LYS D   4     -18.212  -8.599  14.344  1.00 86.00 LIG 0.23  C 
BRANCH 27 28
ATOM     28  NZ  LYS D   4     -19.298  -9.595  14.548  1.00 85.97 LIG-0.08  N 
ATOM     29 HZ3  LYS D   4     -19.101 -10.345  14.109  1.00 85.97 LIG 0.27  HD
ATOM     30 HZ2  LYS D   4     -20.065  -9.266  14.241  1.00 85.97 LIG 0.27  HD
ATOM     31 HZ1  LYS D   4     -19.379  -9.772  15.417  1.00 85.97 LIG 0.27  HD
ENDBRANCH 27 28
ENDBRANCH 26 27
ENDBRANCH 25 26
ENDBRANCH 24 25
ENDBRANCH 23 24
BRANCH 23 32
ATOM     32  C   LYS D   4     -15.057  -7.165  13.734  1.00 69.25 LIG 0.24  C 
ATOM     33 O    LYS D   4     -15.205  -7.519  14.904  1.00 74.50 LIG-0.27  OA
ATOM     34  N   GLY D   5     -14.512  -7.940  12.800  1.00 72.69 LIG-0.35  N 
ATOM     35 H    GLY D   5     -14.436  -7.710  11.975  1.00 72.69 LIG 0.16  HD
BRANCH 34 36
ATOM     36  CA  GLY D   5     -13.990  -9.260  13.101  1.00 67.28 LIG 0.21  C 
BRANCH 36 37
ATOM     37  C   GLY D   5     -12.525  -9.383  12.733  1.00 69.64 LIG 0.21  C 
ATOM     38 O    GLY D   5     -11.965  -8.509  12.069  1.00 73.82 LIG-0.29  OA
ENDBRANCH 36 37
ENDBRANCH 34 36
ENDBRANCH 23 32
ENDBRANCH 20 23
ENDBRANCH 18 19
BRANCH 18 39
ATOM     39  CB  SER D   3     -11.210  -5.591  11.522  1.00 47.59 LIG 0.20  C 
BRANCH 39 40
ATOM     40 OG   SER D   3     -11.189  -6.108  10.206  1.00 55.88 LIG-0.40  OA
ATOM     41 HG   SER D   3     -11.435  -6.911  10.216  1.00 55.88 LIG 0.21  HD
ENDBRANCH 39 40
ENDBRANCH 18 39
ENDBRANCH 16 18
ENDBRANCH 1 14
BRANCH 1 42
ATOM     42  N   ARG D   2     -10.356  -0.506  10.967  1.00 24.62 LIG-0.35  N 
ATOM     43 H    ARG D   2     -10.260  -0.975  10.252  1.00 24.62 LIG 0.16  HD
ATOM     44  C   PHE D   1      -9.531   0.450  11.348  1.00 23.06 LIG 0.25  C 
ATOM     45 O    PHE D   1      -9.689   1.099  12.377  1.00 27.40 LIG-0.27  OA
BRANCH 44 46
ATOM     46  CA  PHE D   1      -8.402   0.785  10.383  1.00 18.76 LIG 0.28  C 
BRANCH 46 47
ATOM     47  CB  PHE D   1      -7.171   1.384  11.059  1.00 12.58 LIG 0.08  C 
BRANCH 47 48
ATOM     48  CG  PHE D   1      -5.934   1.320  10.191  1.00 17.06 LIG-0.06  A 
ATOM     49  CD1 PHE D   1      -5.890   1.984   8.968  1.00 22.27 LIG 0.01  A 
ATOM     50  CE1 PHE D   1      -4.739   1.946   8.169  1.00 15.67 LIG 0.00  A 
ATOM     51  CZ  PHE D   1      -3.623   1.229   8.595  1.00 13.83 LIG 0.00  A 
ATOM     52  CE2 PHE D   1      -3.655   0.574   9.812  1.00 20.38 LIG 0.00  A 
ATOM     53  CD2 PHE D   1      -4.803   0.623  10.610  1.00 21.07 LIG 0.01  A 
ENDBRANCH 47 48
ENDBRANCH 46 47
BRANCH 46 54
ATOM     54  N   PHE D   1      -8.905   1.695   9.326  1.00 21.45 LIG-0.07  N 
ATOM     55 H2   PHE D   1      -9.064   1.230   8.584  1.00 21.45 LIG 0.28  HD
ATOM     56 H3   PHE D   1      -9.658   2.081   9.601  1.00 21.45 LIG 0.28  HD
ATOM     57 H1   PHE D   1      -8.295   2.321   9.159  1.00 21.45 LIG 0.28  HD
ENDBRANCH 46 54
ENDBRANCH 44 46
ENDBRANCH 1 42
TORSDOF 23
ENDMDL
MODEL 31
USER: ADFR SOLUTION from run 111
USER: SCORE 15.708583 LL:  -3.360 LR: -14.225 RR:   0.000 FEB:  -7.364
USER: RMSD 3.596606
USER: SEED 110
USER: STATUS searching
USER: GENES 25
USER: genes 0 Translation |==|  0.46627 0.62147 0.46316
USER: genes 1 Rotation |==|  0.39056 0.41207 0.55789 0.97638
USER: genes 2 Torsion [C]-CA--CB-[CG] |==|  0.29411
USER: genes 3 Torsion [CA]-CB--CG-[CD] |==|  0.58527
USER: genes 4 Torsion [CB]-CG--CD-[NE] |==|  0.83660
USER: genes 5 Torsion [CG]-CD--NE-[HE] |==|  0.88481
USER: genes 6 Torsion [N]-CA--C-[N] |==|  0.33118
USER: genes 7 Torsion [C]-N--CA-[C] |==|  0.81433
USER: genes 8 Torsion [N]-CA--C-[N] |==|  0.92364
USER: genes 9 Torsion [C]-N--CA-[CB] |==|  0.47262
USER: genes 10 Torsion [N]-CA--CB-[CG] |==|  0.81542
USER: genes 11 Torsion [CA]-CB--CG-[CD] |==|  0.71887
USER: genes 12 Torsion [CB]-CG--CD-[CE] |==|  0.93813
USER: genes 13 Torsion [CG]-CD--CE-[NZ] |==|  0.59970
USER: genes 14 Torsion [CD]-CE--NZ-[HZ2] |==|  0.57752
USER: genes 15 Torsion [N]-CA--C-[N] |==|  0.28146
USER: genes 16 Torsion [C]-N--CA-[C] |==|  0.27877
USER: genes 17 Torsion [N]-CA--C-[O] |==|  0.84182
USER: genes 18 Torsion [N]-CA--CB-[OG] |==|  0.02123
USER: genes 19 Torsion [CA]-CB--OG-[HG] |==|  0.48164
USER: genes 20 Torsion [CB]-CA--N-[C] |==|  0.52222
USER: genes 21 Torsion [N]-C--CA-[N] |==|  0.32532
USER: genes 22 Torsion [C]-CA--CB-[CG] |==|  0.44308
USER: genes 23 Torsion [CA]-CB--CG-[CD1] |==|  0.94846
USER: genes 24 Torsion [C]-CA--N-[H2] |==|  0.12234
ROOT
ATOM      1  CA  ARG D   2     -12.298  -0.345  11.191  1.00 39.33 LIG 0.18  C 
ENDROOT
BRANCH 1 2
ATOM      2  CB  ARG D   2     -13.109  -0.724   9.965  1.00 35.05 LIG 0.04  C 
BRANCH 2 3
ATOM      3  CG  ARG D   2     -14.541  -0.273  10.066  1.00 57.88 LIG 0.02  C 
BRANCH 3 4
ATOM      4  CD  ARG D   2     -15.474  -1.207   9.321  1.00 90.52 LIG 0.14  C 
BRANCH 4 5
ATOM      5  NE  ARG D   2     -15.133  -1.308   7.902  1.00 84.14 LIG-0.23  N 
ATOM      6 HE   ARG D   2     -14.914  -0.585   7.491  1.00 84.14 LIG 0.18  HD
ATOM      7  CZ  ARG D   2     -15.137  -2.441   7.202  1.00 83.97 LIG 0.67  C 
ATOM      8  NH2 ARG D   2     -14.806  -2.422   5.915  1.00 60.39 LIG-0.23  N 
ATOM      9  NH1 ARG D   2     -15.479  -3.590   7.776  1.00 80.72 LIG-0.23  N 
ATOM     10 1HH2 ARG D   2     -14.591  -1.680   5.537  1.00 60.39 LIG 0.17  HD
ATOM     11 2HH2 ARG D   2     -14.808  -3.152   5.460  1.00 60.39 LIG 0.17  HD
ATOM     12 2HH1 ARG D   2     -15.479  -4.317   7.317  1.00 80.72 LIG 0.17  HD
ATOM     13 1HH1 ARG D   2     -15.700  -3.606   8.606  1.00 80.72 LIG 0.17  HD
ENDBRANCH 4 5
ENDBRANCH 3 4
ENDBRANCH 2 3
ENDBRANCH 1 2
BRANCH 1 14
ATOM     14  C   ARG D   2     -12.045  -1.578  12.032  1.00 29.38 LIG 0.24  C 
ATOM     15 O    ARG D   2     -11.444  -2.544  11.568  1.00 21.44 LIG-0.27  OA
ATOM     16  N   SER D   3     -12.501  -1.552  13.276  1.00 29.93 LIG-0.34  N 
ATOM     17 H    SER D   3     -12.873  -0.873  13.650  1.00 29.93 LIG 0.16  HD
BRANCH 16 18
ATOM     18  CA  SER D   3     -12.388  -2.740  14.110  1.00 48.61 LIG 0.20  C 
BRANCH 18 19
ATOM     19  C   SER D   3     -13.277  -3.832  13.549  1.00 58.83 LIG 0.24  C 
ATOM     20  N   LYS D   4     -14.341  -3.428  12.865  1.00 77.18 LIG-0.35  N 
ATOM     21 H    LYS D   4     -14.573  -2.605  12.772  1.00 77.18 LIG 0.16  HD
ATOM     22 O    SER D   3     -13.018  -5.018  13.750  1.00 53.61 LIG-0.27  OA
BRANCH 20 23
ATOM     23  CA  LYS D   4     -15.217  -4.385  12.205  1.00 70.35 LIG 0.18  C 
BRANCH 23 24
ATOM     24  CB  LYS D   4     -16.488  -3.698  11.699  1.00 80.12 LIG 0.04  C 
BRANCH 24 25
ATOM     25  CG  LYS D   4     -17.384  -3.183  12.817  1.00 84.36 LIG 0.00  C 
BRANCH 25 26
ATOM     26  CD  LYS D   4     -18.564  -4.096  13.086  1.00102.13 LIG 0.03  C 
BRANCH 26 27
ATOM     27  CE  LYS D   4     -18.864  -4.961  11.869  1.00 86.00 LIG 0.23  C 
BRANCH 27 28
ATOM     28  NZ  LYS D   4     -20.323  -5.191  11.690  1.00 85.97 LIG-0.08  N 
ATOM     29 HZ3  LYS D   4     -20.720  -5.212  12.487  1.00 85.97 LIG 0.27  HD
ATOM     30 HZ2  LYS D   4     -20.453  -5.967  11.274  1.00 85.97 LIG 0.27  HD
ATOM     31 HZ1  LYS D   4     -20.670  -4.532  11.203  1.00 85.97 LIG 0.27  HD
ENDBRANCH 27 28
ENDBRANCH 26 27
ENDBRANCH 25 26
ENDBRANCH 24 25
ENDBRANCH 23 24
BRANCH 23 32
ATOM     32  C   LYS D   4     -14.442  -5.004  11.053  1.00 69.25 LIG 0.24  C 
ATOM     33 O    LYS D   4     -14.309  -4.407   9.985  1.00 74.50 LIG-0.27  OA
ATOM     34  N   GLY D   5     -13.950  -6.219  11.277  1.00 72.69 LIG-0.35  N 
ATOM     35 H    GLY D   5     -14.012  -6.628  12.031  1.00 72.69 LIG 0.16  HD
BRANCH 34 36
ATOM     36  CA  GLY D   5     -13.254  -6.971  10.250  1.00 67.28 LIG 0.21  C 
BRANCH 36 37
ATOM     37  C   GLY D   5     -11.749  -6.892  10.417  1.00 69.64 LIG 0.21  C 
ATOM     38 O    GLY D   5     -11.172  -5.803  10.437  1.00 73.82 LIG-0.29  OA
ENDBRANCH 36 37
ENDBRANCH 34 36
ENDBRANCH 23 32
ENDBRANCH 20 23
ENDBRANCH 18 19
BRANCH 18 39
ATOM     39  CB  SER D   3     -12.781  -2.423  15.543  1.00 47.59 LIG 0.20  C 
BRANCH 39 40
ATOM     40 OG   SER D   3     -13.312  -1.114  15.623  1.00 55.88 LIG-0.40  OA
ATOM     41 HG   SER D   3     -13.610  -0.980  16.397  1.00 55.88 LIG 0.21  HD
ENDBRANCH 39 40
ENDBRANCH 18 39
ENDBRANCH 16 18
ENDBRANCH 1 14
BRANCH 1 42
ATOM     42  N   ARG D   2     -11.039   0.229  10.776  1.00 24.62 LIG-0.35  N 
ATOM     43 H    ARG D   2     -10.971   0.376   9.931  1.00 24.62 LIG 0.16  HD
ATOM     44  C   PHE D   1     -10.094   0.493  11.657  1.00 23.06 LIG 0.25  C 
ATOM     45 O    PHE D   1     -10.216   0.268  12.857  1.00 27.40 LIG-0.27  OA
BRANCH 44 46
ATOM     46  CA  PHE D   1      -8.854   1.196  11.120  1.00 18.76 LIG 0.28  C 
BRANCH 46 47
ATOM     47  CB  PHE D   1      -7.567   0.391  11.291  1.00 12.58 LIG 0.08  C 
BRANCH 47 48
ATOM     48  CG  PHE D   1      -6.467   0.836  10.353  1.00 17.06 LIG-0.06  A 
ATOM     49  CD1 PHE D   1      -6.763   1.585   9.218  1.00 22.27 LIG 0.01  A 
ATOM     50  CE1 PHE D   1      -5.746   2.018   8.356  1.00 15.67 LIG 0.00  A 
ATOM     51  CZ  PHE D   1      -4.420   1.692   8.630  1.00 13.83 LIG 0.00  A 
ATOM     52  CE2 PHE D   1      -4.116   0.958   9.762  1.00 20.38 LIG 0.00  A 
ATOM     53  CD2 PHE D   1      -5.134   0.536  10.623  1.00 21.07 LIG 0.01  A 
ENDBRANCH 47 48
ENDBRANCH 46 47
BRANCH 46 54
ATOM     54  N   PHE D   1      -8.720   2.526  11.760  1.00 21.45 LIG-0.07  N 
ATOM     55 H2   PHE D   1      -8.876   2.452  12.634  1.00 21.45 LIG 0.28  HD
ATOM     56 H3   PHE D   1      -7.896   2.836  11.631  1.00 21.45 LIG 0.28  HD
ATOM     57 H1   PHE D   1      -9.308   3.089  11.401  1.00 21.45 LIG 0.28  HD
ENDBRANCH 46 54
ENDBRANCH 44 46
ENDBRANCH 1 42
TORSDOF 23
ENDMDL
MODEL 32
USER: ADFR SOLUTION from run 49
USER: SCORE 15.463211 LL:  -2.941 LR: -14.221 RR:   0.000 FEB:  -7.360
USER: RMSD 4.796939
USER: SEED 48
USER: STATUS no improvement in best in 43 clusters for 5 generations
USER: GENES 25
USER: genes 0 Translation |==|  0.50060 0.59599 0.49657
USER: genes 1 Rotation |==|  0.61462 0.57772 0.39507 0.96884
USER: genes 2 Torsion [C]-CA--CB-[CG] |==|  0.27854
USER: genes 3 Torsion [CA]-CB--CG-[CD] |==|  0.31649
USER: genes 4 Torsion [CB]-CG--CD-[NE] |==|  0.95936
USER: genes 5 Torsion [CG]-CD--NE-[HE] |==|  0.94438
USER: genes 6 Torsion [N]-CA--C-[N] |==|  0.25048
USER: genes 7 Torsion [C]-N--CA-[C] |==|  0.75403
USER: genes 8 Torsion [N]-CA--C-[N] |==|  0.38517
USER: genes 9 Torsion [C]-N--CA-[CB] |==|  0.23666
USER: genes 10 Torsion [N]-CA--CB-[CG] |==|  0.67193
USER: genes 11 Torsion [CA]-CB--CG-[CD] |==|  0.97282
USER: genes 12 Torsion [CB]-CG--CD-[CE] |==|  0.39852
USER: genes 13 Torsion [CG]-CD--CE-[NZ] |==|  0.78092
USER: genes 14 Torsion [CD]-CE--NZ-[HZ2] |==|  0.02563
USER: genes 15 Torsion [N]-CA--C-[N] |==|  0.02715
USER: genes 16 Torsion [C]-N--CA-[C] |==|  0.54703
USER: genes 17 Torsion [N]-CA--C-[O] |==|  0.98968
USER: genes 18 Torsion [N]-CA--CB-[OG] |==|  0.68546
USER: genes 19 Torsion [CA]-CB--OG-[HG] |==|  0.68771
USER: genes 20 Torsion [CB]-CA--N-[C] |==|  0.20491
USER: genes 21 Torsion [N]-C--CA-[N] |==|  0.23093
USER: genes 22 Torsion [C]-CA--CB-[CG] |==|  0.45864
USER: genes 23 Torsion [CA]-CB--CG-[CD1] |==|  0.17151
USER: genes 24 Torsion [C]-CA--N-[H2] |==|  0.75220
ROOT
ATOM      1  CA  ARG D   2     -11.551  -0.861  11.868  1.00 39.33 LIG 0.18  C 
ENDROOT
BRANCH 1 2
ATOM      2  CB  ARG D   2     -12.596   0.232  11.730  1.00 35.05 LIG 0.04  C 
BRANCH 2 3
ATOM      3  CG  ARG D   2     -13.262   0.553  13.039  1.00 57.88 LIG 0.02  C 
BRANCH 3 4
ATOM      4  CD  ARG D   2     -12.930   1.958  13.504  1.00 90.52 LIG 0.14  C 
BRANCH 4 5
ATOM      5  NE  ARG D   2     -11.799   2.526  12.771  1.00 84.14 LIG-0.23  N 
ATOM      6 HE   ARG D   2     -11.270   1.981  12.367  1.00 84.14 LIG 0.18  HD
ATOM      7  CZ  ARG D   2     -11.530   3.828  12.685  1.00 83.97 LIG 0.67  C 
ATOM      8  NH2 ARG D   2     -10.476   4.239  11.989  1.00 60.39 LIG-0.23  N 
ATOM      9  NH1 ARG D   2     -12.301   4.719  13.299  1.00 80.72 LIG-0.23  N 
ATOM     10 1HH2 ARG D   2      -9.969   3.665  11.596  1.00 60.39 LIG 0.17  HD
ATOM     11 2HH2 ARG D   2     -10.299   5.079  11.932  1.00 60.39 LIG 0.17  HD
ATOM     12 2HH1 ARG D   2     -12.121   5.558  13.238  1.00 80.72 LIG 0.17  HD
ATOM     13 1HH1 ARG D   2     -12.981   4.458  13.755  1.00 80.72 LIG 0.17  HD
ENDBRANCH 4 5
ENDBRANCH 3 4
ENDBRANCH 2 3
ENDBRANCH 1 2
BRANCH 1 14
ATOM     14  C   ARG D   2     -12.132  -2.180  11.404  1.00 29.38 LIG 0.24  C 
ATOM     15 O    ARG D   2     -12.993  -2.215  10.528  1.00 21.44 LIG-0.27  OA
ATOM     16  N   SER D   3     -11.665  -3.273  11.989  1.00 29.93 LIG-0.34  N 
ATOM     17 H    SER D   3     -11.023  -3.290  12.562  1.00 29.93 LIG 0.16  HD
BRANCH 16 18
ATOM     18  CA  SER D   3     -12.249  -4.567  11.670  1.00 48.61 LIG 0.20  C 
BRANCH 18 19
ATOM     19  C   SER D   3     -13.417  -4.832  12.600  1.00 58.83 LIG 0.24  C 
ATOM     20  N   LYS D   4     -14.495  -5.376  12.047  1.00 77.18 LIG-0.35  N 
ATOM     21 H    LYS D   4     -14.581  -5.533  11.205  1.00 77.18 LIG 0.16  HD
ATOM     22 O    SER D   3     -13.353  -4.528  13.791  1.00 53.61 LIG-0.27  OA
BRANCH 20 23
ATOM     23  CA  LYS D   4     -15.644  -5.757  12.856  1.00 70.35 LIG 0.18  C 
BRANCH 23 24
ATOM     24  CB  LYS D   4     -16.577  -4.563  13.072  1.00 80.12 LIG 0.04  C 
BRANCH 24 25
ATOM     25  CG  LYS D   4     -16.729  -4.170  14.535  1.00 84.36 LIG 0.00  C 
BRANCH 25 26
ATOM     26  CD  LYS D   4     -16.115  -5.186  15.478  1.00102.13 LIG 0.03  C 
BRANCH 26 27
ATOM     27  CE  LYS D   4     -15.474  -4.494  16.674  1.00 86.00 LIG 0.23  C 
BRANCH 27 28
ATOM     28  NZ  LYS D   4     -14.141  -3.921  16.343  1.00 85.97 LIG-0.08  N 
ATOM     29 HZ3  LYS D   4     -14.111  -3.070  16.602  1.00 85.97 LIG 0.27  HD
ATOM     30 HZ2  LYS D   4     -14.008  -3.968  15.464  1.00 85.97 LIG 0.27  HD
ATOM     31 HZ1  LYS D   4     -13.507  -4.383  16.763  1.00 85.97 LIG 0.27  HD
ENDBRANCH 27 28
ENDBRANCH 26 27
ENDBRANCH 25 26
ENDBRANCH 24 25
ENDBRANCH 23 24
BRANCH 23 32
ATOM     32  C   LYS D   4     -16.365  -6.884  12.134  1.00 69.25 LIG 0.24  C 
ATOM     33 O    LYS D   4     -17.463  -7.285  12.522  1.00 74.50 LIG-0.27  OA
ATOM     34  N   GLY D   5     -15.725  -7.403  11.090  1.00 72.69 LIG-0.35  N 
ATOM     35 H    GLY D   5     -14.974  -7.106  10.795  1.00 72.69 LIG 0.16  HD
BRANCH 34 36
ATOM     36  CA  GLY D   5     -16.250  -8.534  10.348  1.00 67.28 LIG 0.21  C 
BRANCH 36 37
ATOM     37  C   GLY D   5     -15.183  -9.190   9.494  1.00 69.64 LIG 0.21  C 
ATOM     38 O    GLY D   5     -14.047  -8.719   9.431  1.00 73.82 LIG-0.29  OA
ENDBRANCH 36 37
ENDBRANCH 34 36
ENDBRANCH 23 32
ENDBRANCH 20 23
ENDBRANCH 18 19
BRANCH 18 39
ATOM     39  CB  SER D   3     -11.210  -5.667  11.803  1.00 47.59 LIG 0.20  C 
BRANCH 39 40
ATOM     40 OG   SER D   3     -10.928  -6.226  10.534  1.00 55.88 LIG-0.40  OA
ATOM     41 HG   SER D   3     -11.208  -7.018  10.508  1.00 55.88 LIG 0.21  HD
ENDBRANCH 39 40
ENDBRANCH 18 39
ENDBRANCH 16 18
ENDBRANCH 1 14
BRANCH 1 42
ATOM     42  N   ARG D   2     -10.397  -0.528  11.065  1.00 24.62 LIG-0.35  N 
ATOM     43 H    ARG D   2     -10.313  -0.990  10.345  1.00 24.62 LIG 0.16  HD
ATOM     44  C   PHE D   1      -9.562   0.420  11.444  1.00 23.06 LIG 0.25  C 
ATOM     45 O    PHE D   1      -9.703   1.061  12.481  1.00 27.40 LIG-0.27  OA
BRANCH 44 46
ATOM     46  CA  PHE D   1      -8.444   0.758  10.467  1.00 18.76 LIG 0.28  C 
BRANCH 46 47
ATOM     47  CB  PHE D   1      -7.189   1.315  11.136  1.00 12.58 LIG 0.08  C 
BRANCH 47 48
ATOM     48  CG  PHE D   1      -5.984   1.308  10.222  1.00 17.06 LIG-0.06  A 
ATOM     49  CD1 PHE D   1      -5.983   2.046   9.042  1.00 22.27 LIG 0.01  A 
ATOM     50  CE1 PHE D   1      -4.862   2.060   8.202  1.00 15.67 LIG 0.00  A 
ATOM     51  CZ  PHE D   1      -3.731   1.321   8.543  1.00 13.83 LIG 0.00  A 
ATOM     52  CE2 PHE D   1      -3.719   0.593   9.719  1.00 20.38 LIG 0.00  A 
ATOM     53  CD2 PHE D   1      -4.838   0.590  10.558  1.00 21.07 LIG 0.01  A 
ENDBRANCH 47 48
ENDBRANCH 46 47
BRANCH 46 54
ATOM     54  N   PHE D   1      -8.947   1.706   9.444  1.00 21.45 LIG-0.07  N 
ATOM     55 H2   PHE D   1      -9.287   1.250   8.759  1.00 21.45 LIG 0.28  HD
ATOM     56 H3   PHE D   1      -9.580   2.220   9.801  1.00 21.45 LIG 0.28  HD
ATOM     57 H1   PHE D   1      -8.277   2.217   9.157  1.00 21.45 LIG 0.28  HD
ENDBRANCH 46 54
ENDBRANCH 44 46
ENDBRANCH 1 42
TORSDOF 23
ENDMDL
MODEL 33
USER: ADFR SOLUTION from run 25
USER: SCORE 16.409592 LL:  -3.440 LR: -14.195 RR:   0.000 FEB:  -7.335
USER: RMSD 3.919463
USER: SEED 24
USER: STATUS searching
USER: GENES 25
USER: genes 0 Translation |==|  0.46438 0.62069 0.45518
USER: genes 1 Rotation |==|  0.38360 0.39707 0.57718 0.96893
USER: genes 2 Torsion [C]-CA--CB-[CG] |==|  0.09145
USER: genes 3 Torsion [CA]-CB--CG-[CD] |==|  0.39882
USER: genes 4 Torsion [CB]-CG--CD-[NE] |==|  0.12885
USER: genes 5 Torsion [CG]-CD--NE-[HE] |==|  0.83288
USER: genes 6 Torsion [N]-CA--C-[N] |==|  0.29332
USER: genes 7 Torsion [C]-N--CA-[C] |==|  0.81649
USER: genes 8 Torsion [N]-CA--C-[N] |==|  0.43874
USER: genes 9 Torsion [C]-N--CA-[CB] |==|  0.89346
USER: genes 10 Torsion [N]-CA--CB-[CG] |==|  0.75196
USER: genes 11 Torsion [CA]-CB--CG-[CD] |==|  0.20781
USER: genes 12 Torsion [CB]-CG--CD-[CE] |==|  0.23380
USER: genes 13 Torsion [CG]-CD--CE-[NZ] |==|  0.75636
USER: genes 14 Torsion [CD]-CE--NZ-[HZ2] |==|  0.10370
USER: genes 15 Torsion [N]-CA--C-[N] |==|  0.87651
USER: genes 16 Torsion [C]-N--CA-[C] |==|  0.82210
USER: genes 17 Torsion [N]-CA--C-[O] |==|  0.88700
USER: genes 18 Torsion [N]-CA--CB-[OG] |==|  0.10129
USER: genes 19 Torsion [CA]-CB--OG-[HG] |==|  0.52739
USER: genes 20 Torsion [CB]-CA--N-[C] |==|  0.52222
USER: genes 21 Torsion [N]-C--CA-[N] |==|  0.34679
USER: genes 22 Torsion [C]-CA--CB-[CG] |==|  0.42312
USER: genes 23 Torsion [CA]-CB--CG-[CD1] |==|  0.94594
USER: genes 24 Torsion [C]-CA--N-[H2] |==|  0.81507
ROOT
ATOM      1  CA  ARG D   2     -12.339  -0.361  11.029  1.00 39.33 LIG 0.18  C 
ENDROOT
BRANCH 1 2
ATOM      2  CB  ARG D   2     -13.053  -0.854   9.783  1.00 35.05 LIG 0.04  C 
BRANCH 2 3
ATOM      3  CG  ARG D   2     -13.927  -2.046  10.060  1.00 57.88 LIG 0.02  C 
BRANCH 3 4
ATOM      4  CD  ARG D   2     -15.200  -2.007   9.237  1.00 90.52 LIG 0.14  C 
BRANCH 4 5
ATOM      5  NE  ARG D   2     -14.939  -1.682   7.835  1.00 84.14 LIG-0.23  N 
ATOM      6 HE   ARG D   2     -14.565  -0.926   7.663  1.00 84.14 LIG 0.18  HD
ATOM      7  CZ  ARG D   2     -15.238  -2.473   6.806  1.00 83.97 LIG 0.67  C 
ATOM      8  NH2 ARG D   2     -14.954  -2.082   5.569  1.00 60.39 LIG-0.23  N 
ATOM      9  NH1 ARG D   2     -15.829  -3.647   7.006  1.00 80.72 LIG-0.23  N 
ATOM     10 1HH2 ARG D   2     -14.578  -1.320   5.435  1.00 60.39 LIG 0.17  HD
ATOM     11 2HH2 ARG D   2     -15.147  -2.590   4.903  1.00 60.39 LIG 0.17  HD
ATOM     12 2HH1 ARG D   2     -16.019  -4.152   6.336  1.00 80.72 LIG 0.17  HD
ATOM     13 1HH1 ARG D   2     -16.020  -3.901   7.804  1.00 80.72 LIG 0.17  HD
ENDBRANCH 4 5
ENDBRANCH 3 4
ENDBRANCH 2 3
ENDBRANCH 1 2
BRANCH 1 14
ATOM     14  C   ARG D   2     -12.026  -1.535  11.932  1.00 29.38 LIG 0.24  C 
ATOM     15 O    ARG D   2     -11.542  -2.568  11.476  1.00 21.44 LIG-0.27  OA
ATOM     16  N   SER D   3     -12.299  -1.383  13.220  1.00 29.93 LIG-0.34  N 
ATOM     17 H    SER D   3     -12.583  -0.656  13.581  1.00 29.93 LIG 0.16  HD
BRANCH 16 18
ATOM     18  CA  SER D   3     -12.123  -2.505  14.131  1.00 48.61 LIG 0.20  C 
BRANCH 18 19
ATOM     19  C   SER D   3     -13.119  -3.594  13.783  1.00 58.83 LIG 0.24  C 
ATOM     20  N   LYS D   4     -12.812  -4.820  14.189  1.00 77.18 LIG-0.35  N 
ATOM     21 H    LYS D   4     -12.075  -5.030  14.581  1.00 77.18 LIG 0.16  HD
ATOM     22 O    SER D   3     -14.136  -3.333  13.141  1.00 53.61 LIG-0.27  OA
BRANCH 20 23
ATOM     23  CA  LYS D   4     -13.733  -5.930  13.992  1.00 70.35 LIG 0.18  C 
BRANCH 23 24
ATOM     24  CB  LYS D   4     -15.180  -5.482  14.216  1.00 80.12 LIG 0.04  C 
BRANCH 24 25
ATOM     25  CG  LYS D   4     -15.639  -5.618  15.661  1.00 84.36 LIG 0.00  C 
BRANCH 25 26
ATOM     26  CD  LYS D   4     -15.057  -4.545  16.561  1.00102.13 LIG 0.03  C 
BRANCH 26 27
ATOM     27  CE  LYS D   4     -15.891  -3.273  16.492  1.00 86.00 LIG 0.23  C 
BRANCH 27 28
ATOM     28  NZ  LYS D   4     -15.456  -2.375  15.388  1.00 85.97 LIG-0.08  N 
ATOM     29 HZ3  LYS D   4     -16.127  -1.834  15.164  1.00 85.97 LIG 0.27  HD
ATOM     30 HZ2  LYS D   4     -15.221  -2.864  14.683  1.00 85.97 LIG 0.27  HD
ATOM     31 HZ1  LYS D   4     -14.760  -1.889  15.657  1.00 85.97 LIG 0.27  HD
ENDBRANCH 27 28
ENDBRANCH 26 27
ENDBRANCH 25 26
ENDBRANCH 24 25
ENDBRANCH 23 24
BRANCH 23 32
ATOM     32  C   LYS D   4     -13.540  -6.447  12.575  1.00 69.25 LIG 0.24  C 
ATOM     33 O    LYS D   4     -13.458  -7.653  12.346  1.00 74.50 LIG-0.27  OA
ATOM     34  N   GLY D   5     -13.449  -5.516  11.630  1.00 72.69 LIG-0.35  N 
ATOM     35 H    GLY D   5     -13.538  -4.673  11.779  1.00 72.69 LIG 0.16  HD
BRANCH 34 36
ATOM     36  CA  GLY D   5     -13.188  -5.849  10.242  1.00 67.28 LIG 0.21  C 
BRANCH 36 37
ATOM     37  C   GLY D   5     -11.822  -6.482  10.063  1.00 69.64 LIG 0.21  C 
ATOM     38 O    GLY D   5     -10.843  -6.057  10.680  1.00 73.82 LIG-0.29  OA
ENDBRANCH 36 37
ENDBRANCH 34 36
ENDBRANCH 23 32
ENDBRANCH 20 23
ENDBRANCH 18 19
BRANCH 18 39
ATOM     39  CB  SER D   3     -12.313  -2.056  15.570  1.00 47.59 LIG 0.20  C 
BRANCH 39 40
ATOM     40 OG   SER D   3     -13.333  -1.078  15.644  1.00 55.88 LIG-0.40  OA
ATOM     41 HG   SER D   3     -13.341  -0.739  16.412  1.00 55.88 LIG 0.21  HD
ENDBRANCH 39 40
ENDBRANCH 18 39
ENDBRANCH 16 18
ENDBRANCH 1 14
BRANCH 1 42
ATOM     42  N   ARG D   2     -11.114   0.303  10.650  1.00 24.62 LIG-0.35  N 
ATOM     43 H    ARG D   2     -11.015   0.424   9.804  1.00 24.62 LIG 0.16  HD
ATOM     44  C   PHE D   1     -10.240   0.681  11.563  1.00 23.06 LIG 0.25  C 
ATOM     45 O    PHE D   1     -10.403   0.491  12.764  1.00 27.40 LIG-0.27  OA
BRANCH 44 46
ATOM     46  CA  PHE D   1      -9.038   1.467  11.056  1.00 18.76 LIG 0.28  C 
BRANCH 46 47
ATOM     47  CB  PHE D   1      -7.718   0.704  11.151  1.00 12.58 LIG 0.08  C 
BRANCH 47 48
ATOM     48  CG  PHE D   1      -6.711   1.140  10.110  1.00 17.06 LIG-0.06  A 
ATOM     49  CD1 PHE D   1      -7.122   1.819   8.966  1.00 22.27 LIG 0.01  A 
ATOM     50  CE1 PHE D   1      -6.192   2.244   8.009  1.00 15.67 LIG 0.00  A 
ATOM     51  CZ  PHE D   1      -4.837   1.981   8.194  1.00 13.83 LIG 0.00  A 
ATOM     52  CE2 PHE D   1      -4.418   1.317   9.333  1.00 20.38 LIG 0.00  A 
ATOM     53  CD2 PHE D   1      -5.351   0.903  10.290  1.00 21.07 LIG 0.01  A 
ENDBRANCH 47 48
ENDBRANCH 46 47
BRANCH 46 54
ATOM     54  N   PHE D   1      -8.943   2.755  11.784  1.00 21.45 LIG-0.07  N 
ATOM     55 H2   PHE D   1      -9.640   3.267  11.573  1.00 21.45 LIG 0.28  HD
ATOM     56 H3   PHE D   1      -8.943   2.601  12.661  1.00 21.45 LIG 0.28  HD
ATOM     57 H1   PHE D   1      -8.190   3.170  11.556  1.00 21.45 LIG 0.28  HD
ENDBRANCH 46 54
ENDBRANCH 44 46
ENDBRANCH 1 42
TORSDOF 23
ENDMDL
MODEL 34
USER: ADFR SOLUTION from run 163
USER: SCORE 16.633825 LL:  -3.373 LR: -14.153 RR:   0.000 FEB:  -7.292
USER: RMSD 3.157537
USER: SEED 162
USER: STATUS searching
USER: GENES 25
USER: genes 0 Translation |==|  0.46043 0.62818 0.44910
USER: genes 1 Rotation |==|  0.37132 0.38662 0.56382 0.96531
USER: genes 2 Torsion [C]-CA--CB-[CG] |==|  0.16610
USER: genes 3 Torsion [CA]-CB--CG-[CD] |==|  0.29110
USER: genes 4 Torsion [CB]-CG--CD-[NE] |==|  0.86832
USER: genes 5 Torsion [CG]-CD--NE-[HE] |==|  0.10341
USER: genes 6 Torsion [N]-CA--C-[N] |==|  0.41737
USER: genes 7 Torsion [C]-N--CA-[C] |==|  0.84987
USER: genes 8 Torsion [N]-CA--C-[N] |==|  0.92159
USER: genes 9 Torsion [C]-N--CA-[CB] |==|  0.88889
USER: genes 10 Torsion [N]-CA--CB-[CG] |==|  0.36276
USER: genes 11 Torsion [CA]-CB--CG-[CD] |==|  0.69354
USER: genes 12 Torsion [CB]-CG--CD-[CE] |==|  0.84915
USER: genes 13 Torsion [CG]-CD--CE-[NZ] |==|  0.32457
USER: genes 14 Torsion [CD]-CE--NZ-[HZ2] |==|  0.79235
USER: genes 15 Torsion [N]-CA--C-[N] |==|  0.87531
USER: genes 16 Torsion [C]-N--CA-[C] |==|  0.74956
USER: genes 17 Torsion [N]-CA--C-[O] |==|  0.88541
USER: genes 18 Torsion [N]-CA--CB-[OG] |==|  0.43093
USER: genes 19 Torsion [CA]-CB--OG-[HG] |==|  0.70740
USER: genes 20 Torsion [CB]-CA--N-[C] |==|  0.52222
USER: genes 21 Torsion [N]-C--CA-[N] |==|  0.34726
USER: genes 22 Torsion [C]-CA--CB-[CG] |==|  0.42903
USER: genes 23 Torsion [CA]-CB--CG-[CD1] |==|  0.94105
USER: genes 24 Torsion [C]-CA--N-[H2] |==|  0.82522
ROOT
ATOM      1  CA  ARG D   2     -12.425  -0.209  10.906  1.00 39.33 LIG 0.18  C 
ENDROOT
BRANCH 1 2
ATOM      2  CB  ARG D   2     -13.084  -0.709   9.633  1.00 35.05 LIG 0.04  C 
BRANCH 2 3
ATOM      3  CG  ARG D   2     -14.426  -1.337   9.894  1.00 57.88 LIG 0.02  C 
BRANCH 3 4
ATOM      4  CD  ARG D   2     -15.561  -0.423   9.474  1.00 90.52 LIG 0.14  C 
BRANCH 4 5
ATOM      5  NE  ARG D   2     -15.375   0.944   9.962  1.00 84.14 LIG-0.23  N 
ATOM      6 HE   ARG D   2     -14.575   1.259   9.973  1.00 84.14 LIG 0.18  HD
ATOM      7  CZ  ARG D   2     -16.358   1.735  10.389  1.00 83.97 LIG 0.67  C 
ATOM      8  NH2 ARG D   2     -16.080   2.963  10.809  1.00 60.39 LIG-0.23  N 
ATOM      9  NH1 ARG D   2     -17.614   1.301  10.408  1.00 80.72 LIG-0.23  N 
ATOM     10 1HH2 ARG D   2     -15.267   3.246  10.805  1.00 60.39 LIG 0.17  HD
ATOM     11 2HH2 ARG D   2     -16.712   3.476  11.086  1.00 60.39 LIG 0.17  HD
ATOM     12 2HH1 ARG D   2     -18.243   1.818  10.685  1.00 80.72 LIG 0.17  HD
ATOM     13 1HH1 ARG D   2     -17.798   0.505  10.143  1.00 80.72 LIG 0.17  HD
ENDBRANCH 4 5
ENDBRANCH 3 4
ENDBRANCH 2 3
ENDBRANCH 1 2
BRANCH 1 14
ATOM     14  C   ARG D   2     -12.226  -1.366  11.862  1.00 29.38 LIG 0.24  C 
ATOM     15 O    ARG D   2     -11.189  -2.025  11.845  1.00 21.44 LIG-0.27  OA
ATOM     16  N   SER D   3     -13.218  -1.619  12.703  1.00 29.93 LIG-0.34  N 
ATOM     17 H    SER D   3     -13.931  -1.144  12.781  1.00 29.93 LIG 0.16  HD
BRANCH 16 18
ATOM     18  CA  SER D   3     -13.143  -2.779  13.579  1.00 48.61 LIG 0.20  C 
BRANCH 18 19
ATOM     19  C   SER D   3     -12.888  -4.020  12.746  1.00 58.83 LIG 0.24  C 
ATOM     20  N   LYS D   4     -13.341  -3.991  11.498  1.00 77.18 LIG-0.35  N 
ATOM     21 H    LYS D   4     -13.803  -3.346  11.166  1.00 77.18 LIG 0.16  HD
ATOM     22 O    SER D   3     -12.312  -4.994  13.230  1.00 53.61 LIG-0.27  OA
BRANCH 20 23
ATOM     23  CA  LYS D   4     -13.077  -5.088  10.578  1.00 70.35 LIG 0.18  C 
BRANCH 23 24
ATOM     24  CB  LYS D   4     -11.648  -5.608  10.748  1.00 80.12 LIG 0.04  C 
BRANCH 24 25
ATOM     25  CG  LYS D   4     -11.567  -7.122  10.890  1.00 84.36 LIG 0.00  C 
BRANCH 25 26
ATOM     26  CD  LYS D   4     -11.165  -7.555  12.286  1.00102.13 LIG 0.03  C 
BRANCH 26 27
ATOM     27  CE  LYS D   4      -9.863  -6.882  12.705  1.00 86.00 LIG 0.23  C 
BRANCH 27 28
ATOM     28  NZ  LYS D   4     -10.046  -5.990  13.882  1.00 85.97 LIG-0.08  N 
ATOM     29 HZ3  LYS D   4     -10.538  -6.407  14.496  1.00 85.97 LIG 0.27  HD
ATOM     30 HZ2  LYS D   4     -10.458  -5.244  13.628  1.00 85.97 LIG 0.27  HD
ATOM     31 HZ1  LYS D   4      -9.251  -5.787  14.226  1.00 85.97 LIG 0.27  HD
ENDBRANCH 27 28
ENDBRANCH 26 27
ENDBRANCH 25 26
ENDBRANCH 24 25
ENDBRANCH 23 24
BRANCH 23 32
ATOM     32  C   LYS D   4     -14.089  -6.186  10.863  1.00 69.25 LIG 0.24  C 
ATOM     33 O    LYS D   4     -14.690  -6.748   9.947  1.00 74.50 LIG-0.27  OA
ATOM     34  N   GLY D   5     -14.284  -6.470  12.148  1.00 72.69 LIG-0.35  N 
ATOM     35 H    GLY D   5     -13.844  -6.105  12.790  1.00 72.69 LIG 0.16  HD
BRANCH 34 36
ATOM     36  CA  GLY D   5     -15.273  -7.440  12.581  1.00 67.28 LIG 0.21  C 
BRANCH 36 37
ATOM     37  C   GLY D   5     -16.621  -6.795  12.833  1.00 69.64 LIG 0.21  C 
ATOM     38 O    GLY D   5     -16.703  -5.703  13.399  1.00 73.82 LIG-0.29  OA
ENDBRANCH 36 37
ENDBRANCH 34 36
ENDBRANCH 23 32
ENDBRANCH 20 23
ENDBRANCH 18 19
BRANCH 18 39
ATOM     39  CB  SER D   3     -14.429  -2.931  14.372  1.00 47.59 LIG 0.20  C 
BRANCH 39 40
ATOM     40 OG   SER D   3     -14.605  -4.279  14.760  1.00 55.88 LIG-0.40  OA
ATOM     41 HG   SER D   3     -15.202  -4.632  14.286  1.00 55.88 LIG 0.21  HD
ENDBRANCH 39 40
ENDBRANCH 18 39
ENDBRANCH 16 18
ENDBRANCH 1 14
BRANCH 1 42
ATOM     42  N   ARG D   2     -11.147   0.383  10.585  1.00 24.62 LIG-0.35  N 
ATOM     43 H    ARG D   2     -10.992   0.470   9.744  1.00 24.62 LIG 0.16  HD
ATOM     44  C   PHE D   1     -10.313   0.749  11.539  1.00 23.06 LIG 0.25  C 
ATOM     45 O    PHE D   1     -10.559   0.608  12.733  1.00 27.40 LIG-0.27  OA
BRANCH 44 46
ATOM     46  CA  PHE D   1      -9.046   1.460  11.085  1.00 18.76 LIG 0.28  C 
BRANCH 46 47
ATOM     47  CB  PHE D   1      -7.774   0.638  11.282  1.00 12.58 LIG 0.08  C 
BRANCH 47 48
ATOM     48  CG  PHE D   1      -6.668   1.028  10.327  1.00 17.06 LIG-0.06  A 
ATOM     49  CD1 PHE D   1      -6.959   1.693   9.138  1.00 22.27 LIG 0.01  A 
ATOM     50  CE1 PHE D   1      -5.937   2.076   8.259  1.00 15.67 LIG 0.00  A 
ATOM     51  CZ  PHE D   1      -4.611   1.784   8.569  1.00 13.83 LIG 0.00  A 
ATOM     52  CE2 PHE D   1      -4.312   1.133   9.752  1.00 20.38 LIG 0.00  A 
ATOM     53  CD2 PHE D   1      -5.335   0.761  10.630  1.00 21.07 LIG 0.01  A 
ENDBRANCH 47 48
ENDBRANCH 46 47
BRANCH 46 54
ATOM     54  N   PHE D   1      -8.930   2.764  11.781  1.00 21.45 LIG-0.07  N 
ATOM     55 H2   PHE D   1      -9.616   3.284  11.553  1.00 21.45 LIG 0.28  HD
ATOM     56 H3   PHE D   1      -8.938   2.632  12.661  1.00 21.45 LIG 0.28  HD
ATOM     57 H1   PHE D   1      -8.168   3.160  11.547  1.00 21.45 LIG 0.28  HD
ENDBRANCH 46 54
ENDBRANCH 44 46
ENDBRANCH 1 42
TORSDOF 23
ENDMDL
MODEL 35
USER: ADFR SOLUTION from run 119
USER: SCORE 16.031715 LL:  -2.720 LR: -14.061 RR:   0.000 FEB:  -7.200
USER: RMSD 4.240416
USER: SEED 118
USER: STATUS no improvement in best in 37 clusters for 5 generations
USER: GENES 25
USER: genes 0 Translation |==|  0.46468 0.61055 0.46631
USER: genes 1 Rotation |==|  0.35859 0.40816 0.57569 0.96458
USER: genes 2 Torsion [C]-CA--CB-[CG] |==|  0.28854
USER: genes 3 Torsion [CA]-CB--CG-[CD] |==|  0.97315
USER: genes 4 Torsion [CB]-CG--CD-[NE] |==|  0.24380
USER: genes 5 Torsion [CG]-CD--NE-[HE] |==|  0.09129
USER: genes 6 Torsion [N]-CA--C-[N] |==|  0.30990
USER: genes 7 Torsion [C]-N--CA-[C] |==|  0.83790
USER: genes 8 Torsion [N]-CA--C-[N] |==|  0.38618
USER: genes 9 Torsion [C]-N--CA-[CB] |==|  0.86023
USER: genes 10 Torsion [N]-CA--CB-[CG] |==|  0.79009
USER: genes 11 Torsion [CA]-CB--CG-[CD] |==|  0.77268
USER: genes 12 Torsion [CB]-CG--CD-[CE] |==|  0.26973
USER: genes 13 Torsion [CG]-CD--CE-[NZ] |==|  0.46170
USER: genes 14 Torsion [CD]-CE--NZ-[HZ2] |==|  0.72160
USER: genes 15 Torsion [N]-CA--C-[N] |==|  0.35016
USER: genes 16 Torsion [C]-N--CA-[C] |==|  0.20863
USER: genes 17 Torsion [N]-CA--C-[O] |==|  0.01080
USER: genes 18 Torsion [N]-CA--CB-[OG] |==|  0.01401
USER: genes 19 Torsion [CA]-CB--OG-[HG] |==|  0.45591
USER: genes 20 Torsion [CB]-CA--N-[C] |==|  0.52631
USER: genes 21 Torsion [N]-C--CA-[N] |==|  0.33758
USER: genes 22 Torsion [C]-CA--CB-[CG] |==|  0.45225
USER: genes 23 Torsion [CA]-CB--CG-[CD1] |==|  0.94723
USER: genes 24 Torsion [C]-CA--N-[H2] |==|  0.79977
ROOT
ATOM      1  CA  ARG D   2     -12.332  -0.566  11.255  1.00 39.33 LIG 0.18  C 
ENDROOT
BRANCH 1 2
ATOM      2  CB  ARG D   2     -13.090  -1.159  10.081  1.00 35.05 LIG 0.04  C 
BRANCH 2 3
ATOM      3  CG  ARG D   2     -14.555  -0.819  10.116  1.00 57.88 LIG 0.02  C 
BRANCH 3 4
ATOM      4  CD  ARG D   2     -14.945  -0.172  11.432  1.00 90.52 LIG 0.14  C 
BRANCH 4 5
ATOM      5  NE  ARG D   2     -14.766   1.279  11.405  1.00 84.14 LIG-0.23  N 
ATOM      6 HE   ARG D   2     -14.894   1.684  10.658  1.00 84.14 LIG 0.18  HD
ATOM      7  CZ  ARG D   2     -14.417   2.018  12.458  1.00 83.97 LIG 0.67  C 
ATOM      8  NH2 ARG D   2     -14.285   3.332  12.326  1.00 60.39 LIG-0.23  N 
ATOM      9  NH1 ARG D   2     -14.192   1.449  13.637  1.00 80.72 LIG-0.23  N 
ATOM     10 1HH2 ARG D   2     -14.423   3.704  11.562  1.00 60.39 LIG 0.17  HD
ATOM     11 2HH2 ARG D   2     -14.059   3.812  13.003  1.00 60.39 LIG 0.17  HD
ATOM     12 2HH1 ARG D   2     -13.968   1.933  14.312  1.00 80.72 LIG 0.17  HD
ATOM     13 1HH1 ARG D   2     -14.270   0.598  13.726  1.00 80.72 LIG 0.17  HD
ENDBRANCH 4 5
ENDBRANCH 3 4
ENDBRANCH 2 3
ENDBRANCH 1 2
BRANCH 1 14
ATOM     14  C   ARG D   2     -12.037  -1.651  12.268  1.00 29.38 LIG 0.24  C 
ATOM     15 O    ARG D   2     -11.497  -2.701  11.927  1.00 21.44 LIG-0.27  OA
ATOM     16  N   SER D   3     -12.389  -1.405  13.521  1.00 29.93 LIG-0.34  N 
ATOM     17 H    SER D   3     -12.715  -0.661  13.805  1.00 29.93 LIG 0.16  HD
BRANCH 16 18
ATOM     18  CA  SER D   3     -12.233  -2.441  14.532  1.00 48.61 LIG 0.20  C 
BRANCH 18 19
ATOM     19  C   SER D   3     -13.029  -3.665  14.121  1.00 58.83 LIG 0.24  C 
ATOM     20  N   LYS D   4     -12.445  -4.840  14.328  1.00 77.18 LIG-0.35  N 
ATOM     21 H    LYS D   4     -11.644  -4.937  14.624  1.00 77.18 LIG 0.16  HD
ATOM     22 O    SER D   3     -14.140  -3.547  13.606  1.00 53.61 LIG-0.27  OA
BRANCH 20 23
ATOM     23  CA  LYS D   4     -13.148  -6.086  14.056  1.00 70.35 LIG 0.18  C 
BRANCH 23 24
ATOM     24  CB  LYS D   4     -14.528  -6.086  14.719  1.00 80.12 LIG 0.04  C 
BRANCH 24 25
ATOM     25  CG  LYS D   4     -14.476  -6.313  16.224  1.00 84.36 LIG 0.00  C 
BRANCH 25 26
ATOM     26  CD  LYS D   4     -14.355  -7.780  16.588  1.00102.13 LIG 0.03  C 
BRANCH 26 27
ATOM     27  CE  LYS D   4     -12.902  -8.150  16.857  1.00 86.00 LIG 0.23  C 
BRANCH 27 28
ATOM     28  NZ  LYS D   4     -12.775  -9.473  17.527  1.00 85.97 LIG-0.08  N 
ATOM     29 HZ3  LYS D   4     -13.521  -9.942  17.402  1.00 85.97 LIG 0.27  HD
ATOM     30 HZ2  LYS D   4     -12.643  -9.352  18.399  1.00 85.97 LIG 0.27  HD
ATOM     31 HZ1  LYS D   4     -12.084  -9.915  17.182  1.00 85.97 LIG 0.27  HD
ENDBRANCH 27 28
ENDBRANCH 26 27
ENDBRANCH 25 26
ENDBRANCH 24 25
ENDBRANCH 23 24
BRANCH 23 32
ATOM     32  C   LYS D   4     -13.273  -6.229  12.548  1.00 69.25 LIG 0.24  C 
ATOM     33 O    LYS D   4     -13.786  -5.341  11.867  1.00 74.50 LIG-0.27  OA
ATOM     34  N   GLY D   5     -12.813  -7.367  12.037  1.00 72.69 LIG-0.35  N 
ATOM     35 H    GLY D   5     -12.424  -7.977  12.503  1.00 72.69 LIG 0.16  HD
BRANCH 34 36
ATOM     36  CA  GLY D   5     -12.931  -7.683  10.626  1.00 67.28 LIG 0.21  C 
BRANCH 36 37
ATOM     37  C   GLY D   5     -11.939  -6.898   9.790  1.00 69.64 LIG 0.21  C 
ATOM     38 O    GLY D   5     -11.110  -6.159  10.322  1.00 73.82 LIG-0.29  OA
ENDBRANCH 36 37
ENDBRANCH 34 36
ENDBRANCH 23 32
ENDBRANCH 20 23
ENDBRANCH 18 19
BRANCH 18 39
ATOM     39  CB  SER D   3     -12.700  -1.938  15.887  1.00 47.59 LIG 0.20  C 
BRANCH 39 40
ATOM     40 OG   SER D   3     -13.262  -0.647  15.759  1.00 55.88 LIG-0.40  OA
ATOM     41 HG   SER D   3     -13.707  -0.465  16.448  1.00 55.88 LIG 0.21  HD
ENDBRANCH 39 40
ENDBRANCH 18 39
ENDBRANCH 16 18
ENDBRANCH 1 14
BRANCH 1 42
ATOM     42  N   ARG D   2     -11.095   0.012  10.785  1.00 24.62 LIG-0.35  N 
ATOM     43 H    ARG D   2     -11.021   0.059   9.930  1.00 24.62 LIG 0.16  HD
ATOM     44  C   PHE D   1     -10.176   0.425  11.637  1.00 23.06 LIG 0.25  C 
ATOM     45 O    PHE D   1     -10.306   0.340  12.854  1.00 27.40 LIG-0.27  OA
BRANCH 44 46
ATOM     46  CA  PHE D   1      -8.962   1.115  11.030  1.00 18.76 LIG 0.28  C 
BRANCH 46 47
ATOM     47  CB  PHE D   1      -7.657   0.344  11.218  1.00 12.58 LIG 0.08  C 
BRANCH 47 48
ATOM     48  CG  PHE D   1      -6.562   0.806  10.283  1.00 17.06 LIG-0.06  A 
ATOM     49  CD1 PHE D   1      -6.869   1.528   9.133  1.00 22.27 LIG 0.01  A 
ATOM     50  CE1 PHE D   1      -5.857   1.978   8.274  1.00 15.67 LIG 0.00  A 
ATOM     51  CZ  PHE D   1      -4.524   1.695   8.564  1.00 13.83 LIG 0.00  A 
ATOM     52  CE2 PHE D   1      -4.210   0.987   9.710  1.00 20.38 LIG 0.00  A 
ATOM     53  CD2 PHE D   1      -5.223   0.549  10.569  1.00 21.07 LIG 0.01  A 
ENDBRANCH 47 48
ENDBRANCH 46 47
BRANCH 46 54
ATOM     54  N   PHE D   1      -8.837   2.483  11.588  1.00 21.45 LIG-0.07  N 
ATOM     55 H2   PHE D   1      -9.480   3.000  11.252  1.00 21.45 LIG 0.28  HD
ATOM     56 H3   PHE D   1      -8.916   2.450  12.474  1.00 21.45 LIG 0.28  HD
ATOM     57 H1   PHE D   1      -8.042   2.820  11.374  1.00 21.45 LIG 0.28  HD
ENDBRANCH 46 54
ENDBRANCH 44 46
ENDBRANCH 1 42
TORSDOF 23
ENDMDL
