MODEL 1
USER: ADFR SOLUTION from run 23
USER: SCORE 25.944077 LL:  -4.536 LR: -23.620 RR:   0.000 FEB: -13.776
USER: RMSD 2.652023
USER: SEED 22
USER: STATUS no improvement in best in 4 clusters for 5 generations
USER: GENES 35
USER: genes 0 Translation |==|  0.45345 0.52983 0.59833
USER: genes 1 Rotation |==|  0.50207 0.54801 0.51757 0.99737
USER: genes 2 Torsion [C]-N--CA-[C] |==|  0.76768
USER: genes 3 Torsion [N]-CA--C-[N] |==|  0.33662
USER: genes 4 Torsion [C]-N--CA-[CB] |==|  0.45051
USER: genes 5 Torsion [N]-CA--C-[N] |==|  0.27875
USER: genes 6 Torsion [C]-N--CA-[C] |==|  0.84170
USER: genes 7 Torsion [N]-CA--C-[OXT] |==|  0.90655
USER: genes 8 Torsion [N]-CA--CB-[CG] |==|  0.60193
USER: genes 9 Torsion [CA]-CB--CG-[OD1] |==|  0.48985
USER: genes 10 Torsion [N]-CA--CB-[CG] |==|  0.46800
USER: genes 11 Torsion [CA]-CB--CG-[CD] |==|  0.47135
USER: genes 12 Torsion [CB]-CG--CD-[NE] |==|  0.47643
USER: genes 13 Torsion [CG]-CD--NE-[HE] |==|  0.92391
USER: genes 14 Torsion [N]-CA--CB-[CG] |==|  0.47560
USER: genes 15 Torsion [CA]-CB--CG-[CD2] |==|  0.75295
USER: genes 16 Torsion [CE2]-CZ--OH-[HH] |==|  0.89759
USER: genes 17 Torsion [N]-C--CA-[N] |==|  0.35648
USER: genes 18 Torsion [C]-CA--CB-[CG] |==|  0.75909
USER: genes 19 Torsion [CA]-CB--CG-[CD] |==|  0.54326
USER: genes 20 Torsion [CB]-CG--CD-[CE] |==|  0.79378
USER: genes 21 Torsion [CG]-CD--CE-[NZ] |==|  0.67964
USER: genes 22 Torsion [CD]-CE--NZ-[HZ2] |==|  0.95285
USER: genes 23 Torsion [C]-CA--N-[C] |==|  0.66070
USER: genes 24 Torsion [N]-C--CA-[N] |==|  0.38498
USER: genes 25 Torsion [C]-CA--CB-[CG] |==|  0.56699
USER: genes 26 Torsion [CA]-CB--CG-[CD] |==|  0.50613
USER: genes 27 Torsion [CB]-CG--CD-[CE] |==|  0.57736
USER: genes 28 Torsion [CG]-CD--CE-[NZ] |==|  0.41245
USER: genes 29 Torsion [CD]-CE--NZ-[HZ2] |==|  0.82476
USER: genes 30 Torsion [C]-CA--N-[C] |==|  0.62355
USER: genes 31 Torsion [N]-C--CA-[N] |==|  0.24222
USER: genes 32 Torsion [C]-CA--N-[C] |==|  0.73228
USER: genes 33 Torsion [N]-C--CA-[N] |==|  0.40134
USER: genes 34 Torsion [C]-CA--CB-[CG1] |==|  0.50077
ROOT
ATOM      1  C   LYS B 204      -0.933   3.968  -8.794  1.00 29.43 LIG 0.24  C 
ATOM      2 O    LYS B 204      -0.236   3.947  -9.826  1.00 26.08 LIG-0.27  OA
ATOM      3  N   TYR B 205      -1.476   2.916  -8.226  1.00 31.29 LIG-0.35  N 
ATOM      4 H    TYR B 205      -1.951   2.963  -7.511  1.00 31.29 LIG 0.16  HD
ENDROOT
BRANCH 3 5
ATOM      5  CA  TYR B 205      -1.338   1.578  -8.733  1.00 33.02 LIG 0.18  C 
BRANCH 5 6
ATOM      6  C   TYR B 205      -2.429   1.483  -9.805  1.00 33.21 LIG 0.24  C 
ATOM      7 O    TYR B 205      -3.583   1.737  -9.514  1.00 35.15 LIG-0.27  OA
ATOM      8  N   ARG B 206      -2.068   1.201 -11.054  1.00 31.57 LIG-0.35  N 
ATOM      9 H    ARG B 206      -1.254   1.132 -11.324  1.00 31.57 LIG 0.16  HD
BRANCH 8 10
ATOM     10  CA  ARG B 206      -3.087   0.980 -12.092  1.00 33.28 LIG 0.18  C 
BRANCH 10 11
ATOM     11  C   ARG B 206      -3.813  -0.373 -11.904  1.00 36.59 LIG 0.24  C 
ATOM     12  N   ASN B 207      -5.017  -0.335 -11.328  1.00 40.84 LIG-0.34  N 
ATOM     13 H    ASN B 207      -5.368   0.371 -10.984  1.00 40.84 LIG 0.16  HD
ATOM     14 O    ARG B 206      -3.277  -1.452 -12.250  1.00 36.06 LIG-0.27  OA
BRANCH 12 15
ATOM     15  CA  ASN B 207      -5.857  -1.548 -11.243  1.00 46.04 LIG 0.19  C 
BRANCH 15 16
ATOM     16  C   ASN B 207      -6.149  -2.183 -12.590  1.00 46.07 LIG 0.20  C 
ATOM     17 OXT  ASN B 207      -6.281  -1.511 -13.600  1.00 45.13 LIG-0.65  OA
ATOM     18 O    ASN B 207      -6.297  -3.383 -12.690  1.00 48.62 LIG-0.65  OA
ENDBRANCH 15 16
BRANCH 15 19
ATOM     19  CB  ASN B 207      -7.194  -1.264 -10.562  1.00 51.14 LIG 0.14  C 
BRANCH 19 20
ATOM     20  CG  ASN B 207      -7.635  -2.409  -9.707  1.00 56.09 LIG 0.22  C 
ATOM     21 OD1  ASN B 207      -8.665  -2.324  -9.028  1.00 63.46 LIG-0.27  OA
ATOM     22  ND2 ASN B 207      -6.897  -3.520  -9.770  1.00 58.21 LIG-0.37  N 
ATOM     23 22HD ASN B 207      -6.186  -3.538 -10.255  1.00 58.21 LIG 0.16  HD
ATOM     24 21HD ASN B 207      -7.132  -4.217  -9.326  1.00 58.21 LIG 0.16  HD
ENDBRANCH 19 20
ENDBRANCH 15 19
ENDBRANCH 12 15
ENDBRANCH 10 11
BRANCH 10 25
ATOM     25  CB  ARG B 206      -2.484   1.109 -13.493  1.00 29.97 LIG 0.04  C 
BRANCH 25 26
ATOM     26  CG  ARG B 206      -3.453   0.608 -14.561  1.00 35.04 LIG 0.02  C 
BRANCH 26 27
ATOM     27  CD  ARG B 206      -3.017   0.937 -16.000  1.00 34.71 LIG 0.14  C 
BRANCH 27 28
ATOM     28  NE  ARG B 206      -3.896   0.247 -16.942  1.00 36.74 LIG-0.23  N 
ATOM     29 HE   ARG B 206      -4.270  -0.485 -16.689  1.00 36.74 LIG 0.18  HD
ATOM     30  CZ  ARG B 206      -4.145   0.688 -18.163  1.00 37.33 LIG 0.67  C 
ATOM     31  NH2 ARG B 206      -4.959   0.045 -18.953  1.00 40.70 LIG-0.23  N 
ATOM     32  NH1 ARG B 206      -3.566   1.782 -18.594  1.00 35.99 LIG-0.23  N 
ATOM     33 1HH2 ARG B 206      -5.342  -0.676 -18.681  1.00 40.70 LIG 0.17  HD
ATOM     34 2HH2 ARG B 206      -5.113   0.342 -19.745  1.00 40.70 LIG 0.17  HD
ATOM     35 1HH1 ARG B 206      -3.024   2.212 -18.082  1.00 35.99 LIG 0.17  HD
ATOM     36 2HH1 ARG B 206      -3.728   2.069 -19.387  1.00 35.99 LIG 0.17  HD
ENDBRANCH 27 28
ENDBRANCH 26 27
ENDBRANCH 25 26
ENDBRANCH 10 25
ENDBRANCH 8 10
ENDBRANCH 5 6
BRANCH 5 37
ATOM     37  CB  TYR B 205      -1.634   0.686  -7.538  1.00 37.09 LIG 0.07  C 
BRANCH 37 38
ATOM     38  CG  TYR B 205      -1.781  -0.779  -7.713  1.00 41.64 LIG-0.06  A 
ATOM     39  CD2 TYR B 205      -3.023  -1.327  -8.004  1.00 44.35 LIG 0.01  A 
ATOM     40  CE2 TYR B 205      -3.198  -2.686  -8.089  1.00 49.08 LIG 0.04  A 
ATOM     41  CZ  TYR B 205      -2.127  -3.531  -7.853  1.00 48.61 LIG 0.07  A 
ATOM     42  CE1 TYR B 205      -0.883  -3.018  -7.534  1.00 45.09 LIG 0.04  A 
ATOM     43  CD1 TYR B 205      -0.719  -1.643  -7.442  1.00 43.95 LIG 0.01  A 
BRANCH 41 44
ATOM     44 OH   TYR B 205      -2.327  -4.895  -7.926  1.00 50.49 LIG-0.36  OA
ATOM     45 HH   TYR B 205      -3.086  -5.084  -7.620  1.00 50.49 LIG 0.22  HD
ENDBRANCH 41 44
ENDBRANCH 37 38
ENDBRANCH 5 37
ENDBRANCH 3 5
BRANCH 1 46
ATOM     46  CA  LYS B 204      -1.175   5.239  -8.050  1.00 31.16 LIG 0.18  C 
BRANCH 46 47
ATOM     47  CB  LYS B 204      -2.106   6.079  -8.918  1.00 32.72 LIG 0.04  C 
BRANCH 47 48
ATOM     48  CG  LYS B 204      -1.386   6.937  -9.948  1.00 37.78 LIG 0.00  C 
BRANCH 48 49
ATOM     49  CD  LYS B 204      -2.364   7.999 -10.473  1.00 44.67 LIG 0.03  C 
BRANCH 49 50
ATOM     50  CE  LYS B 204      -3.388   7.377 -11.422  1.00 46.31 LIG 0.23  C 
BRANCH 50 51
ATOM     51  NZ  LYS B 204      -3.243   7.909 -12.801  1.00 49.87 LIG-0.08  N 
ATOM     52 HZ2  LYS B 204      -2.763   8.659 -12.781  1.00 49.87 LIG 0.27  HD
ATOM     53 HZ3  LYS B 204      -2.830   7.307 -13.309  1.00 49.87 LIG 0.27  HD
ATOM     54 HZ1  LYS B 204      -4.048   8.081 -13.139  1.00 49.87 LIG 0.27  HD
ENDBRANCH 50 51
ENDBRANCH 49 50
ENDBRANCH 48 49
ENDBRANCH 47 48
ENDBRANCH 46 47
BRANCH 46 55
ATOM     55  N   LYS B 204       0.138   5.890  -7.851  1.00 28.52 LIG-0.35  N 
ATOM     56 H    LYS B 204       0.557   6.050  -8.585  1.00 28.52 LIG 0.16  HD
ATOM     57  C   LYS B 203       0.623   6.199  -6.661  1.00 30.36 LIG 0.24  C 
ATOM     58 O    LYS B 203       0.062   5.897  -5.583  1.00 32.75 LIG-0.27  OA
BRANCH 57 59
ATOM     59  CA  LYS B 203       1.923   7.022  -6.662  1.00 29.12 LIG 0.18  C 
BRANCH 59 60
ATOM     60  CB  LYS B 203       3.147   6.118  -6.426  1.00 27.59 LIG 0.04  C 
BRANCH 60 61
ATOM     61  CG  LYS B 203       4.349   6.822  -5.852  1.00 28.85 LIG 0.00  C 
BRANCH 61 62
ATOM     62  CD  LYS B 203       5.542   5.856  -5.700  1.00 30.56 LIG 0.03  C 
BRANCH 62 63
ATOM     63  CE  LYS B 203       6.459   6.322  -4.546  1.00 30.34 LIG 0.23  C 
BRANCH 63 64
ATOM     64  NZ  LYS B 203       7.171   5.213  -3.800  1.00 29.96 LIG-0.08  N 
ATOM     65 HZ2  LYS B 203       6.571   4.690  -3.402  1.00 29.96 LIG 0.27  HD
ATOM     66 HZ3  LYS B 203       7.652   4.730  -4.372  1.00 29.96 LIG 0.27  HD
ATOM     67 HZ1  LYS B 203       7.709   5.566  -3.185  1.00 29.96 LIG 0.27  HD
ENDBRANCH 63 64
ENDBRANCH 62 63
ENDBRANCH 61 62
ENDBRANCH 60 61
ENDBRANCH 59 60
BRANCH 59 68
ATOM     68  N   LYS B 203       1.782   8.024  -5.619  1.00 32.23 LIG-0.35  N 
ATOM     69  C   ALA B 202       2.145   9.277  -5.866  1.00 35.90 LIG 0.24  C 
ATOM     70 O    ALA B 202       2.618   9.608  -6.947  1.00 35.09 LIG-0.27  OA
ATOM     71 H    LYS B 203       1.460   7.740  -4.874  1.00 32.23 LIG 0.16  HD
BRANCH 69 72
ATOM     72  CA  ALA B 202       2.042  10.317  -4.735  1.00 40.49 LIG 0.17  C 
ATOM     73  CB  ALA B 202       1.670  11.688  -5.315  1.00 40.15 LIG 0.04  C 
BRANCH 72 74
ATOM     74  N   ALA B 202       3.214  10.409  -3.862  1.00 44.85 LIG-0.35  N 
ATOM     75  C   VAL B 201       3.217   9.737  -2.707  1.00 49.40 LIG 0.26  C 
ATOM     76 O    VAL B 201       2.221   9.115  -2.277  1.00 49.68 LIG-0.27  OA
ATOM     77 H    ALA B 202       3.855  10.905  -4.149  1.00 44.85 LIG 0.16  HD
BRANCH 75 78
ATOM     78  CA  VAL B 201       4.507   9.722  -1.923  1.00 53.79 LIG 0.40  C 
ATOM     79  N   VAL B 201       4.170   9.753  -0.472  1.00 59.48 LIG 0.61  N 
BRANCH 78 80
ATOM     80  CB  VAL B 201       5.292   8.421  -2.329  1.00 53.10 LIG 0.03  C 
ATOM     81  CG1 VAL B 201       6.630   8.298  -1.579  1.00 58.27 LIG 0.01  C 
ATOM     82  CG2 VAL B 201       4.419   7.152  -2.110  1.00 52.00 LIG 0.01  C 
ENDBRANCH 78 80
ENDBRANCH 75 78
ENDBRANCH 72 74
ENDBRANCH 69 72
ENDBRANCH 59 68
ENDBRANCH 57 59
ENDBRANCH 46 55
ENDBRANCH 1 46
TORSDOF 33
ENDMDL
MODEL 2
USER: ADFR SOLUTION from run 104
USER: SCORE 26.369627 LL:  -4.940 LR: -23.580 RR:   0.000 FEB: -13.736
USER: RMSD 1.308383
USER: SEED 103
USER: STATUS 1 or 2 clusters left
USER: GENES 35
USER: genes 0 Translation |==|  0.44743 0.53517 0.58595
USER: genes 1 Rotation |==|  0.49663 0.46055 0.49179 0.99836
USER: genes 2 Torsion [C]-N--CA-[C] |==|  0.73196
USER: genes 3 Torsion [N]-CA--C-[N] |==|  0.35246
USER: genes 4 Torsion [C]-N--CA-[CB] |==|  0.43519
USER: genes 5 Torsion [N]-CA--C-[N] |==|  0.33034
USER: genes 6 Torsion [C]-N--CA-[C] |==|  0.72594
USER: genes 7 Torsion [N]-CA--C-[OXT] |==|  0.97583
USER: genes 8 Torsion [N]-CA--CB-[CG] |==|  0.74289
USER: genes 9 Torsion [CA]-CB--CG-[OD1] |==|  0.36902
USER: genes 10 Torsion [N]-CA--CB-[CG] |==|  0.45522
USER: genes 11 Torsion [CA]-CB--CG-[CD] |==|  0.24573
USER: genes 12 Torsion [CB]-CG--CD-[NE] |==|  0.28138
USER: genes 13 Torsion [CG]-CD--NE-[HE] |==|  0.98086
USER: genes 14 Torsion [N]-CA--CB-[CG] |==|  0.50961
USER: genes 15 Torsion [CA]-CB--CG-[CD2] |==|  0.73968
USER: genes 16 Torsion [CE2]-CZ--OH-[HH] |==|  0.92603
USER: genes 17 Torsion [N]-C--CA-[N] |==|  0.38167
USER: genes 18 Torsion [C]-CA--CB-[CG] |==|  0.51579
USER: genes 19 Torsion [CA]-CB--CG-[CD] |==|  0.47562
USER: genes 20 Torsion [CB]-CG--CD-[CE] |==|  0.08299
USER: genes 21 Torsion [CG]-CD--CE-[NZ] |==|  0.59313
USER: genes 22 Torsion [CD]-CE--NZ-[HZ2] |==|  0.95502
USER: genes 23 Torsion [C]-CA--N-[C] |==|  0.63200
USER: genes 24 Torsion [N]-C--CA-[N] |==|  0.40780
USER: genes 25 Torsion [C]-CA--CB-[CG] |==|  0.46820
USER: genes 26 Torsion [CA]-CB--CG-[CD] |==|  0.49036
USER: genes 27 Torsion [CB]-CG--CD-[CE] |==|  0.52456
USER: genes 28 Torsion [CG]-CD--CE-[NZ] |==|  0.49546
USER: genes 29 Torsion [CD]-CE--NZ-[HZ2] |==|  0.01778
USER: genes 30 Torsion [C]-CA--N-[C] |==|  0.60346
USER: genes 31 Torsion [N]-C--CA-[N] |==|  0.88626
USER: genes 32 Torsion [C]-CA--N-[C] |==|  0.77963
USER: genes 33 Torsion [N]-C--CA-[N] |==|  0.39139
USER: genes 34 Torsion [C]-CA--CB-[CG1] |==|  0.00318
ROOT
ATOM      1  C   LYS B 204      -1.078   4.101  -9.109  1.00 29.43 LIG 0.24  C 
ATOM      2 O    LYS B 204      -0.076   3.974  -9.839  1.00 26.08 LIG-0.27  OA
ATOM      3  N   TYR B 205      -1.888   3.127  -8.762  1.00 31.29 LIG-0.35  N 
ATOM      4 H    TYR B 205      -2.571   3.247  -8.253  1.00 31.29 LIG 0.16  HD
ENDROOT
BRANCH 3 5
ATOM      5  CA  TYR B 205      -1.725   1.765  -9.188  1.00 33.02 LIG 0.18  C 
BRANCH 5 6
ATOM      6  C   TYR B 205      -2.659   1.650 -10.399  1.00 33.21 LIG 0.24  C 
ATOM      7 O    TYR B 205      -3.806   2.045 -10.312  1.00 35.15 LIG-0.27  OA
ATOM      8  N   ARG B 206      -2.160   1.191 -11.544  1.00 31.57 LIG-0.35  N 
ATOM      9 H    ARG B 206      -1.330   1.014 -11.679  1.00 31.57 LIG 0.16  HD
BRANCH 8 10
ATOM     10  CA  ARG B 206      -3.043   0.950 -12.695  1.00 33.28 LIG 0.18  C 
BRANCH 10 11
ATOM     11  C   ARG B 206      -3.835  -0.371 -12.545  1.00 36.59 LIG 0.24  C 
ATOM     12  N   ASN B 207      -5.166  -0.274 -12.514  1.00 40.84 LIG-0.34  N 
ATOM     13 H    ASN B 207      -5.597   0.469 -12.485  1.00 40.84 LIG 0.16  HD
ATOM     14 O    ARG B 206      -3.247  -1.472 -12.426  1.00 36.06 LIG-0.27  OA
BRANCH 12 15
ATOM     15  CA  ASN B 207      -6.016  -1.483 -12.528  1.00 46.04 LIG 0.19  C 
BRANCH 15 16
ATOM     16  C   ASN B 207      -6.567  -1.825 -13.901  1.00 46.07 LIG 0.20  C 
ATOM     17 OXT  ASN B 207      -6.444  -1.065 -14.847  1.00 45.13 LIG-0.65  OA
ATOM     18 O    ASN B 207      -7.182  -2.855 -14.082  1.00 48.62 LIG-0.65  OA
ENDBRANCH 15 16
BRANCH 15 19
ATOM     19  CB  ASN B 207      -7.198  -1.356 -11.569  1.00 51.14 LIG 0.14  C 
BRANCH 19 20
ATOM     20  CG  ASN B 207      -6.880  -1.916 -10.220  1.00 56.09 LIG 0.22  C 
ATOM     21 OD1  ASN B 207      -7.152  -1.277  -9.196  1.00 63.46 LIG-0.27  OA
ATOM     22  ND2 ASN B 207      -6.354  -3.143 -10.192  1.00 58.21 LIG-0.37  N 
ATOM     23 22HD ASN B 207      -6.179  -3.554 -10.928  1.00 58.21 LIG 0.16  HD
ATOM     24 21HD ASN B 207      -6.189  -3.523  -9.438  1.00 58.21 LIG 0.16  HD
ENDBRANCH 19 20
ENDBRANCH 15 19
ENDBRANCH 12 15
ENDBRANCH 10 11
BRANCH 10 25
ATOM     25  CB  ARG B 206      -2.258   0.992 -14.009  1.00 29.97 LIG 0.04  C 
BRANCH 25 26
ATOM     26  CG  ARG B 206      -3.055   0.364 -15.151  1.00 35.04 LIG 0.02  C 
BRANCH 26 27
ATOM     27  CD  ARG B 206      -3.972   1.355 -15.888  1.00 34.71 LIG 0.14  C 
BRANCH 27 28
ATOM     28  NE  ARG B 206      -3.340   1.757 -17.143  1.00 36.74 LIG-0.23  N 
ATOM     29 HE   ARG B 206      -2.534   1.498 -17.295  1.00 36.74 LIG 0.18  HD
ATOM     30  CZ  ARG B 206      -3.942   2.499 -18.057  1.00 37.33 LIG 0.67  C 
ATOM     31  NH2 ARG B 206      -3.339   2.806 -19.172  1.00 40.70 LIG-0.23  N 
ATOM     32  NH1 ARG B 206      -5.158   2.938 -17.845  1.00 35.99 LIG-0.23  N 
ATOM     33 1HH2 ARG B 206      -2.540   2.525 -19.320  1.00 40.70 LIG 0.17  HD
ATOM     34 2HH2 ARG B 206      -3.741   3.289 -19.759  1.00 40.70 LIG 0.17  HD
ATOM     35 1HH1 ARG B 206      -5.564   2.745 -17.112  1.00 35.99 LIG 0.17  HD
ATOM     36 2HH1 ARG B 206      -5.550   3.420 -18.439  1.00 35.99 LIG 0.17  HD
ENDBRANCH 27 28
ENDBRANCH 26 27
ENDBRANCH 25 26
ENDBRANCH 10 25
ENDBRANCH 8 10
ENDBRANCH 5 6
BRANCH 5 37
ATOM     37  CB  TYR B 205      -2.212   0.936  -8.012  1.00 37.09 LIG 0.07  C 
BRANCH 37 38
ATOM     38  CG  TYR B 205      -2.127  -0.544  -8.048  1.00 41.64 LIG-0.06  A 
ATOM     39  CD2 TYR B 205      -3.209  -1.296  -8.483  1.00 44.35 LIG 0.01  A 
ATOM     40  CE2 TYR B 205      -3.182  -2.668  -8.448  1.00 49.08 LIG 0.04  A 
ATOM     41  CZ  TYR B 205      -2.068  -3.319  -7.944  1.00 48.61 LIG 0.07  A 
ATOM     42  CE1 TYR B 205      -0.984  -2.598  -7.478  1.00 45.09 LIG 0.04  A 
ATOM     43  CD1 TYR B 205      -1.025  -1.211  -7.510  1.00 43.95 LIG 0.01  A 
BRANCH 41 44
ATOM     44 OH   TYR B 205      -2.067  -4.698  -7.901  1.00 50.49 LIG-0.36  OA
ATOM     45 HH   TYR B 205      -2.856  -4.978  -7.848  1.00 50.49 LIG 0.22  HD
ENDBRANCH 41 44
ENDBRANCH 37 38
ENDBRANCH 5 37
ENDBRANCH 3 5
BRANCH 1 46
ATOM     46  CA  LYS B 204      -1.426   5.415  -8.495  1.00 31.16 LIG 0.18  C 
BRANCH 46 47
ATOM     47  CB  LYS B 204      -2.122   6.230  -9.581  1.00 32.72 LIG 0.04  C 
BRANCH 47 48
ATOM     48  CG  LYS B 204      -2.434   7.663  -9.177  1.00 37.78 LIG 0.00  C 
BRANCH 48 49
ATOM     49  CD  LYS B 204      -2.924   8.427 -10.416  1.00 44.67 LIG 0.03  C 
BRANCH 49 50
ATOM     50  CE  LYS B 204      -3.634   7.488 -11.392  1.00 46.31 LIG 0.23  C 
BRANCH 50 51
ATOM     51  NZ  LYS B 204      -3.410   7.900 -12.801  1.00 49.87 LIG-0.08  N 
ATOM     52 HZ2  LYS B 204      -3.107   8.736 -12.821  1.00 49.87 LIG 0.27  HD
ATOM     53 HZ3  LYS B 204      -2.812   7.358 -13.177  1.00 49.87 LIG 0.27  HD
ATOM     54 HZ1  LYS B 204      -4.177   7.851 -13.250  1.00 49.87 LIG 0.27  HD
ENDBRANCH 50 51
ENDBRANCH 49 50
ENDBRANCH 48 49
ENDBRANCH 47 48
ENDBRANCH 46 47
BRANCH 46 55
ATOM     55  N   LYS B 204      -0.163   6.044  -8.054  1.00 28.52 LIG-0.35  N 
ATOM     56 H    LYS B 204       0.457   6.027  -8.650  1.00 28.52 LIG 0.16  HD
ATOM     57  C   LYS B 203       0.001   6.583  -6.857  1.00 30.36 LIG 0.24  C 
ATOM     58 O    LYS B 203      -0.864   6.541  -5.953  1.00 32.75 LIG-0.27  OA
BRANCH 57 59
ATOM     59  CA  LYS B 203       1.324   7.337  -6.640  1.00 29.12 LIG 0.18  C 
BRANCH 59 60
ATOM     60  CB  LYS B 203       2.405   6.399  -6.072  1.00 27.59 LIG 0.04  C 
BRANCH 60 61
ATOM     61  CG  LYS B 203       3.800   6.968  -6.078  1.00 28.85 LIG 0.00  C 
BRANCH 61 62
ATOM     62  CD  LYS B 203       4.801   6.000  -5.416  1.00 30.56 LIG 0.03  C 
BRANCH 62 63
ATOM     63  CE  LYS B 203       6.172   6.693  -5.235  1.00 30.34 LIG 0.23  C 
BRANCH 63 64
ATOM     64  NZ  LYS B 203       7.235   5.855  -4.556  1.00 29.96 LIG-0.08  N 
ATOM     65 HZ2  LYS B 203       6.930   5.028  -4.438  1.00 29.96 LIG 0.27  HD
ATOM     66 HZ3  LYS B 203       7.965   5.831  -5.065  1.00 29.96 LIG 0.27  HD
ATOM     67 HZ1  LYS B 203       7.435   6.213  -3.766  1.00 29.96 LIG 0.27  HD
ENDBRANCH 63 64
ENDBRANCH 62 63
ENDBRANCH 61 62
ENDBRANCH 60 61
ENDBRANCH 59 60
BRANCH 59 68
ATOM     68  N   LYS B 203       1.034   8.437  -5.736  1.00 32.23 LIG-0.35  N 
ATOM     69  C   ALA B 202       1.640   9.605  -5.913  1.00 35.90 LIG 0.24  C 
ATOM     70 O    ALA B 202       2.458   9.774  -6.810  1.00 35.09 LIG-0.27  OA
ATOM     71 H    LYS B 203       0.465   8.264  -5.115  1.00 32.23 LIG 0.16  HD
BRANCH 69 72
ATOM     72  CA  ALA B 202       1.363  10.745  -4.916  1.00 40.49 LIG 0.17  C 
ATOM     73  CB  ALA B 202       2.303  10.625  -3.709  1.00 40.15 LIG 0.04  C 
BRANCH 72 74
ATOM     74  N   ALA B 202      -0.033  10.880  -4.493  1.00 44.85 LIG-0.35  N 
ATOM     75  C   VAL B 201      -0.900  11.489  -5.306  1.00 49.40 LIG 0.26  C 
ATOM     76 O    VAL B 201      -0.559  12.052  -6.369  1.00 49.68 LIG-0.27  OA
ATOM     77 H    ALA B 202      -0.222  10.549  -3.722  1.00 44.85 LIG 0.16  HD
BRANCH 75 78
ATOM     78  CA  VAL B 201      -2.356  11.455  -4.908  1.00 53.79 LIG 0.40  C 
ATOM     79  N   VAL B 201      -2.957  12.780  -5.228  1.00 59.48 LIG 0.61  N 
BRANCH 78 80
ATOM     80  CB  VAL B 201      -3.035  10.280  -5.703  1.00 53.10 LIG 0.03  C 
ATOM     81  CG1 VAL B 201      -2.029   9.531  -6.594  1.00 58.27 LIG 0.01  C 
ATOM     82  CG2 VAL B 201      -3.756   9.296  -4.737  1.00 52.00 LIG 0.01  C 
ENDBRANCH 78 80
ENDBRANCH 75 78
ENDBRANCH 72 74
ENDBRANCH 69 72
ENDBRANCH 59 68
ENDBRANCH 57 59
ENDBRANCH 46 55
ENDBRANCH 1 46
TORSDOF 33
ENDMDL
MODEL 3
USER: ADFR SOLUTION from run 157
USER: SCORE 25.610236 LL:  -5.121 LR: -21.935 RR:   0.000 FEB: -12.091
USER: RMSD 3.568380
USER: SEED 156
USER: STATUS no improvement in best in 2 clusters for 5 generations
USER: GENES 35
USER: genes 0 Translation |==|  0.45567 0.53372 0.58296
USER: genes 1 Rotation |==|  0.49535 0.43435 0.47572 0.99505
USER: genes 2 Torsion [C]-N--CA-[C] |==|  0.71465
USER: genes 3 Torsion [N]-CA--C-[N] |==|  0.33865
USER: genes 4 Torsion [C]-N--CA-[CB] |==|  0.44546
USER: genes 5 Torsion [N]-CA--C-[N] |==|  0.40002
USER: genes 6 Torsion [C]-N--CA-[C] |==|  0.61291
USER: genes 7 Torsion [N]-CA--C-[OXT] |==|  0.03543
USER: genes 8 Torsion [N]-CA--CB-[CG] |==|  0.68359
USER: genes 9 Torsion [CA]-CB--CG-[OD1] |==|  0.26496
USER: genes 10 Torsion [N]-CA--CB-[CG] |==|  0.46460
USER: genes 11 Torsion [CA]-CB--CG-[CD] |==|  0.34689
USER: genes 12 Torsion [CB]-CG--CD-[NE] |==|  0.50542
USER: genes 13 Torsion [CG]-CD--NE-[HE] |==|  0.03424
USER: genes 14 Torsion [N]-CA--CB-[CG] |==|  0.51314
USER: genes 15 Torsion [CA]-CB--CG-[CD2] |==|  0.70958
USER: genes 16 Torsion [CE2]-CZ--OH-[HH] |==|  0.93495
USER: genes 17 Torsion [N]-C--CA-[N] |==|  0.34624
USER: genes 18 Torsion [C]-CA--CB-[CG] |==|  0.44435
USER: genes 19 Torsion [CA]-CB--CG-[CD] |==|  0.65613
USER: genes 20 Torsion [CB]-CG--CD-[CE] |==|  0.72746
USER: genes 21 Torsion [CG]-CD--CE-[NZ] |==|  0.25045
USER: genes 22 Torsion [CD]-CE--NZ-[HZ2] |==|  0.90411
USER: genes 23 Torsion [C]-CA--N-[C] |==|  0.83541
USER: genes 24 Torsion [N]-C--CA-[N] |==|  0.44027
USER: genes 25 Torsion [C]-CA--CB-[CG] |==|  0.48580
USER: genes 26 Torsion [CA]-CB--CG-[CD] |==|  0.33952
USER: genes 27 Torsion [CB]-CG--CD-[CE] |==|  0.52899
USER: genes 28 Torsion [CG]-CD--CE-[NZ] |==|  0.45648
USER: genes 29 Torsion [CD]-CE--NZ-[HZ2] |==|  0.76154
USER: genes 30 Torsion [C]-CA--N-[C] |==|  0.61814
USER: genes 31 Torsion [N]-C--CA-[N] |==|  0.39830
USER: genes 32 Torsion [C]-CA--N-[C] |==|  0.81245
USER: genes 33 Torsion [N]-C--CA-[N] |==|  0.40548
USER: genes 34 Torsion [C]-CA--CB-[CG1] |==|  0.66466
ROOT
ATOM      1  C   LYS B 204      -0.880   4.065  -9.186  1.00 29.43 LIG 0.24  C 
ATOM      2 O    LYS B 204       0.183   3.870  -9.805  1.00 26.08 LIG-0.27  OA
ATOM      3  N   TYR B 205      -1.783   3.147  -8.927  1.00 31.29 LIG-0.35  N 
ATOM      4 H    TYR B 205      -2.507   3.312  -8.494  1.00 31.29 LIG 0.16  HD
ENDROOT
BRANCH 3 5
ATOM      5  CA  TYR B 205      -1.663   1.775  -9.336  1.00 33.02 LIG 0.18  C 
BRANCH 5 6
ATOM      6  C   TYR B 205      -2.598   1.675 -10.547  1.00 33.21 LIG 0.24  C 
ATOM      7 O    TYR B 205      -3.758   2.024 -10.441  1.00 35.15 LIG-0.27  OA
ATOM      8  N   ARG B 206      -2.088   1.281 -11.711  1.00 31.57 LIG-0.35  N 
ATOM      9 H    ARG B 206      -1.252   1.140 -11.856  1.00 31.57 LIG 0.16  HD
BRANCH 8 10
ATOM     10  CA  ARG B 206      -2.966   1.054 -12.869  1.00 33.28 LIG 0.18  C 
BRANCH 10 11
ATOM     11  C   ARG B 206      -3.778  -0.255 -12.726  1.00 36.59 LIG 0.24  C 
ATOM     12  N   ASN B 207      -5.025  -0.245 -13.204  1.00 40.84 LIG-0.34  N 
ATOM     13 H    ASN B 207      -5.425   0.455 -13.500  1.00 40.84 LIG 0.16  HD
ATOM     14 O    ARG B 206      -3.293  -1.263 -12.159  1.00 36.06 LIG-0.27  OA
BRANCH 12 15
ATOM     15  CA  ASN B 207      -5.828  -1.485 -13.255  1.00 46.04 LIG 0.19  C 
BRANCH 15 16
ATOM     16  C   ASN B 207      -6.648  -1.627 -14.525  1.00 46.07 LIG 0.20  C 
ATOM     17 OXT  ASN B 207      -6.457  -0.911 -15.494  1.00 45.13 LIG-0.65  OA
ATOM     18 O    ASN B 207      -7.546  -2.439 -14.595  1.00 48.62 LIG-0.65  OA
ENDBRANCH 15 16
BRANCH 15 19
ATOM     19  CB  ASN B 207      -6.785  -1.590 -12.069  1.00 51.14 LIG 0.14  C 
BRANCH 19 20
ATOM     20  CG  ASN B 207      -6.427  -2.728 -11.168  1.00 56.09 LIG 0.22  C 
ATOM     21 OD1  ASN B 207      -5.725  -2.538 -10.167  1.00 63.46 LIG-0.27  OA
ATOM     22  ND2 ASN B 207      -6.948  -3.919 -11.473  1.00 58.21 LIG-0.37  N 
ATOM     23 22HD ASN B 207      -7.431  -4.009 -12.180  1.00 58.21 LIG 0.16  HD
ATOM     24 21HD ASN B 207      -6.802  -4.595 -10.963  1.00 58.21 LIG 0.16  HD
ENDBRANCH 19 20
ENDBRANCH 15 19
ENDBRANCH 12 15
ENDBRANCH 10 11
BRANCH 10 25
ATOM     25  CB  ARG B 206      -2.172   1.087 -14.177  1.00 29.97 LIG 0.04  C 
BRANCH 25 26
ATOM     26  CG  ARG B 206      -3.001   0.549 -15.342  1.00 35.04 LIG 0.02  C 
BRANCH 26 27
ATOM     27  CD  ARG B 206      -3.114   1.523 -16.528  1.00 34.71 LIG 0.14  C 
BRANCH 27 28
ATOM     28  NE  ARG B 206      -3.961   0.932 -17.561  1.00 36.74 LIG-0.23  N 
ATOM     29 HE   ARG B 206      -4.420   0.232 -17.361  1.00 36.74 LIG 0.18  HD
ATOM     30  CZ  ARG B 206      -4.059   1.415 -18.788  1.00 37.33 LIG 0.67  C 
ATOM     31  NH2 ARG B 206      -4.852   0.862 -19.663  1.00 40.70 LIG-0.23  N 
ATOM     32  NH1 ARG B 206      -3.349   2.459 -19.137  1.00 35.99 LIG-0.23  N 
ATOM     33 1HH2 ARG B 206      -5.320   0.174 -19.445  1.00 40.70 LIG 0.17  HD
ATOM     34 2HH2 ARG B 206      -4.907   1.186 -20.458  1.00 40.70 LIG 0.17  HD
ATOM     35 1HH1 ARG B 206      -2.820   2.830 -18.569  1.00 35.99 LIG 0.17  HD
ATOM     36 2HH1 ARG B 206      -3.412   2.774 -19.935  1.00 35.99 LIG 0.17  HD
ENDBRANCH 27 28
ENDBRANCH 26 27
ENDBRANCH 25 26
ENDBRANCH 10 25
ENDBRANCH 8 10
ENDBRANCH 5 6
BRANCH 5 37
ATOM     37  CB  TYR B 205      -2.180   0.976  -8.150  1.00 37.09 LIG 0.07  C 
BRANCH 37 38
ATOM     38  CG  TYR B 205      -2.116  -0.505  -8.156  1.00 41.64 LIG-0.06  A 
ATOM     39  CD2 TYR B 205      -3.265  -1.252  -8.373  1.00 44.35 LIG 0.01  A 
ATOM     40  CE2 TYR B 205      -3.246  -2.623  -8.302  1.00 49.08 LIG 0.04  A 
ATOM     41  CZ  TYR B 205      -2.068  -3.276  -7.980  1.00 48.61 LIG 0.07  A 
ATOM     42  CE1 TYR B 205      -0.912  -2.559  -7.731  1.00 45.09 LIG 0.04  A 
ATOM     43  CD1 TYR B 205      -0.945  -1.173  -7.797  1.00 43.95 LIG 0.01  A 
BRANCH 41 44
ATOM     44 OH   TYR B 205      -2.073  -4.654  -7.896  1.00 50.49 LIG-0.36  OA
ATOM     45 HH   TYR B 205      -2.853  -4.923  -7.741  1.00 50.49 LIG 0.22  HD
ENDBRANCH 41 44
ENDBRANCH 37 38
ENDBRANCH 5 37
ENDBRANCH 3 5
BRANCH 1 46
ATOM     46  CA  LYS B 204      -1.207   5.402  -8.610  1.00 31.16 LIG 0.18  C 
BRANCH 46 47
ATOM     47  CB  LYS B 204      -1.419   6.342  -9.792  1.00 32.72 LIG 0.04  C 
BRANCH 47 48
ATOM     48  CG  LYS B 204      -2.213   7.595  -9.452  1.00 37.78 LIG 0.00  C 
BRANCH 48 49
ATOM     49  CD  LYS B 204      -3.432   7.673 -10.384  1.00 44.67 LIG 0.03  C 
BRANCH 49 50
ATOM     50  CE  LYS B 204      -3.160   8.608 -11.562  1.00 46.31 LIG 0.23  C 
BRANCH 50 51
ATOM     51  NZ  LYS B 204      -2.575   7.875 -12.714  1.00 49.87 LIG-0.08  N 
ATOM     52 HZ2  LYS B 204      -2.047   7.225 -12.414  1.00 49.87 LIG 0.27  HD
ATOM     53 HZ3  LYS B 204      -3.229   7.523 -13.204  1.00 49.87 LIG 0.27  HD
ATOM     54 HZ1  LYS B 204      -2.099   8.437 -13.213  1.00 49.87 LIG 0.27  HD
ENDBRANCH 50 51
ENDBRANCH 49 50
ENDBRANCH 48 49
ENDBRANCH 47 48
ENDBRANCH 46 47
BRANCH 46 55
ATOM     55  N   LYS B 204      -0.059   5.813  -7.773  1.00 28.52 LIG-0.35  N 
ATOM     56 H    LYS B 204       0.301   6.553  -8.023  1.00 28.52 LIG 0.16  HD
ATOM     57  C   LYS B 203       0.373   5.114  -6.738  1.00 30.36 LIG 0.24  C 
ATOM     58 O    LYS B 203      -0.089   3.996  -6.414  1.00 32.75 LIG-0.27  OA
BRANCH 57 59
ATOM     59  CA  LYS B 203       1.467   5.784  -5.888  1.00 29.12 LIG 0.18  C 
BRANCH 59 60
ATOM     60  CB  LYS B 203       2.847   5.641  -6.558  1.00 27.59 LIG 0.04  C 
BRANCH 60 61
ATOM     61  CG  LYS B 203       3.965   6.372  -5.859  1.00 28.85 LIG 0.00  C 
BRANCH 61 62
ATOM     62  CD  LYS B 203       5.098   5.406  -5.457  1.00 30.56 LIG 0.03  C 
BRANCH 62 63
ATOM     63  CE  LYS B 203       6.100   6.121  -4.521  1.00 30.34 LIG 0.23  C 
BRANCH 63 64
ATOM     64  NZ  LYS B 203       7.040   5.207  -3.763  1.00 29.96 LIG-0.08  N 
ATOM     65 HZ2  LYS B 203       6.647   4.932  -3.014  1.00 29.96 LIG 0.27  HD
ATOM     66 HZ3  LYS B 203       7.241   4.503  -4.268  1.00 29.96 LIG 0.27  HD
ATOM     67 HZ1  LYS B 203       7.785   5.650  -3.561  1.00 29.96 LIG 0.27  HD
ENDBRANCH 63 64
ENDBRANCH 62 63
ENDBRANCH 61 62
ENDBRANCH 60 61
ENDBRANCH 59 60
BRANCH 59 68
ATOM     68  N   LYS B 203       1.432   5.146  -4.584  1.00 32.23 LIG-0.35  N 
ATOM     69  C   ALA B 202       1.537   5.891  -3.490  1.00 35.90 LIG 0.24  C 
ATOM     70 O    ALA B 202       1.687   7.106  -3.553  1.00 35.09 LIG-0.27  OA
ATOM     71 H    LYS B 203       1.340   4.290  -4.593  1.00 32.23 LIG 0.16  HD
BRANCH 69 72
ATOM     72  CA  ALA B 202       1.552   5.197  -2.115  1.00 40.49 LIG 0.17  C 
ATOM     73  CB  ALA B 202       0.120   5.060  -1.582  1.00 40.15 LIG 0.04  C 
BRANCH 72 74
ATOM     74  N   ALA B 202       2.436   5.805  -1.119  1.00 44.85 LIG-0.35  N 
ATOM     75  C   VAL B 201       3.758   5.749  -1.304  1.00 49.40 LIG 0.26  C 
ATOM     76 O    VAL B 201       4.289   5.105  -2.236  1.00 49.68 LIG-0.27  OA
ATOM     77 H    ALA B 202       2.044   6.175  -0.449  1.00 44.85 LIG 0.16  HD
BRANCH 75 78
ATOM     78  CA  VAL B 201       4.622   6.532  -0.346  1.00 53.79 LIG 0.40  C 
ATOM     79  N   VAL B 201       5.888   5.777  -0.136  1.00 59.48 LIG 0.61  N 
BRANCH 78 80
ATOM     80  CB  VAL B 201       4.866   7.950  -0.982  1.00 53.10 LIG 0.03  C 
ATOM     81  CG1 VAL B 201       6.362   8.235  -1.195  1.00 58.27 LIG 0.01  C 
ATOM     82  CG2 VAL B 201       4.079   8.107  -2.314  1.00 52.00 LIG 0.01  C 
ENDBRANCH 78 80
ENDBRANCH 75 78
ENDBRANCH 72 74
ENDBRANCH 69 72
ENDBRANCH 59 68
ENDBRANCH 57 59
ENDBRANCH 46 55
ENDBRANCH 1 46
TORSDOF 33
ENDMDL
